data_PCOD9260074
_publ_section_title
;
Structure prediction by ZEFSAII (Michael W. Deem and Ramdas Pophale) SiO2 
 PCOD9260074
Probable space group: C 2/C
;
_chemical_formula_sum "Si O2"
_cell_formula_units_Z 48
_cell_length_a 15.684456
_cell_length_b 8.652664
_cell_length_c 21.331860
_cell_angle_alpha 90.000000
_cell_angle_beta 41.565361
_cell_angle_gamma 90.000000
_cell_volume 1920.754823
_symmetry_space_group_name_H-M "C 2/C"
_symmetry_group_IT_number 15
_symmetry_cell_setting 'monoclinic'
loop_
_space_group_symop_operation_xyz
x,y,z
-x,y,1/2-z
-x,-y,-z
x,-y,1/2+z
1/2+x,1/2+y,z
1/2-x,1/2+y,1/2-z
1/2-x,1/2-y,-z
1/2+x,1/2-y,1/2+z
loop_
_atom_site_type_symbol
_atom_site_label
_atom_site_fract_x
_atom_site_fract_y
_atom_site_fract_z
Si Si1 0.885527 0.433936 0.983592
Si Si2 0.225125 0.604257 0.642229
Si Si3 0.053278 0.661506 0.277911
Si Si4 0.785521 0.810758 0.741761
Si Si5 0.503816 0.263935 0.527482
Si Si6 0.150919 0.925944 0.662334
O O1 0.931994 0.297583 0.004760
O O2 0.732959 0.460640 0.074098
O O3 0.942237 0.397371 0.885101
O O4 0.941724 0.601109 0.974659
O O5 0.137936 0.455979 0.688469
O O6 0.197318 0.652435 0.729742
O O7 0.377745 0.619375 0.549241
O O8 0.172956 0.746539 0.629421
O O9 0.159511 0.711859 0.269961
O O10 0.000000 0.764514 0.250000
O O11 0.904070 0.836388 0.630932
O O12 0.785237 0.926946 0.802022
O O13 0.000000 0.935937 0.750000
#
# Coordination Sequence:
#
# PCOD9260074 Si02
#       6
#     8   8   8   8   8   8
#     4  10  18  36  62  83 115 167 204 232 296 370
#     4   9  20  34  60  88 117 149 197 248 296 344
#     4  12  23  39  60  91 123 157 200 250 300 350
#     4  10  21  36  61  86 122 154 195 251 297 347
#     4  10  18  36  62  86 114 162 201 238 300 361
#     4   9  19  34  57  91 117 149 202 247 290 353
#
# _framework density 24.990175000000001
#
# number of rings (size 3 to 8) (size 9 to 14) (size 15 to 20)
#    1.000    1.000    3.333    1.500    0.000    2.000 
#    0.000    5.833    0.000    0.000    0.000    0.000 
#    0.000    0.000    0.000    0.000    0.000    0.000 
#
# Total GULP energy -133889.924443 kJ/mol
# GULP energy per Si atom -5578.746852 kJ/mol
# Density = 2.493330 g / cm^3
# Si number density = 24.990175 Si / 1000 Ang^3
#
#
#
# Elastic Constant Matrix: (Units=GPa)
#
#
# Indices 1 2 3 4 5 6 
#
# 1 77.6729 -12.4553 -8.1873 0.0000 -1.0253 0.0000
# 2 -12.4553 34.1342 5.0923 0.0000 0.3703 0.0000
# 3 -8.1873 5.0923 59.3454 0.0000 -23.4651 0.0000
# 4 0.0000 0.0000 0.0000 17.8853 0.0000 1.5197
# 5 -1.0253 0.3703 -23.4651 0.0000 37.7255 0.0000
# 6 0.0000 0.0000 0.0000 1.5197 0.0000 -0.1160
#
#
#
# Elastic Compliance Matrix: (Units=1/GPa)
#
#
# Indices 1 2 3 4 5 6 
#
# 1 0.013884 0.004723 0.002176 0.000000 0.001685 0.000000
# 2 0.004723 0.031460 -0.002810 0.000000 -0.001929 0.000000
# 3 0.002176 -0.002810 0.023110 0.000000 0.014461 0.000000
# 4 0.000000 0.000000 0.000000 0.026458 0.000000 0.346650
# 5 0.001685 -0.001929 0.014461 0.000000 0.035567 0.000000
# 6 0.000000 0.000000 0.000000 0.346650 0.000000 -4.079804
#
#
# Mechanical properties :
#
#
# Convention : Reuss Voigt Hill
#
# Bulk Modulus (GPa) = 13.04962 15.56130 14.30546
# Shear Modulus (GPa) = -1.27163 23.54580 11.13709
#
# Velocity S-wave (km/s) = -0.71411 3.07286 2.11335
# Velocity P-wave (km/s) = 2.13385 4.33941 3.41934
#
# Compressibility (1/GPa) = 0.07663057
#
# Stress axis : x y z
#
# Youngs Moduli (GPa) = 72.02793 31.78663 43.27188
#
# Poissons Ratio (x) = -0.15013 -0.09417
# Poissons Ratio (y) = -0.34019 0.12161
# Poissons Ratio (z) = -0.15674 0.08933
#
# Static dielectric constant tensor:
#      x y z
#    x 2.058810 0.000000 -0.042990 
#    y 0.000000 2.076430 0.000000 
#    z -0.042990 0.000000 1.936840 
# 
# From -- ./inp_files/277223.got.cif
#   From: 2010.05.17/outbox.cif.g08.bks.cpg/sg15_139_cif.got.tgz:277223.got - 2010.06.03 18:47:42.
