data_PCOD9260112
_publ_section_title
;
Structure prediction by ZEFSAII (Michael W. Deem and Ramdas Pophale) SiO2 
 PCOD9260112
Probable space group: C 2/C
;
_chemical_formula_sum "Si O2"
_cell_formula_units_Z 52
_cell_length_a 9.065151
_cell_length_b 16.501850
_cell_length_c 16.895460
_cell_angle_alpha 90.000000
_cell_angle_beta 67.014887
_cell_angle_gamma 90.000000
_cell_volume 2326.760390
_symmetry_space_group_name_H-M "C 2/C"
_symmetry_group_IT_number 15
_symmetry_cell_setting 'monoclinic'
loop_
_space_group_symop_operation_xyz
x,y,z
-x,y,1/2-z
-x,-y,-z
x,-y,1/2+z
1/2+x,1/2+y,z
1/2-x,1/2+y,1/2-z
1/2-x,1/2-y,-z
1/2+x,1/2-y,1/2+z
loop_
_atom_site_type_symbol
_atom_site_label
_atom_site_fract_x
_atom_site_fract_y
_atom_site_fract_z
Si Si1 0.000000 0.637102 0.250000
Si Si2 0.024465 0.858416 0.659301
Si Si3 0.613907 0.821405 0.326510
Si Si4 0.379038 0.201152 0.109021
Si Si5 0.706431 0.161384 0.975836
Si Si6 0.761866 0.630916 0.870303
Si Si7 0.700907 0.447146 0.904957
O O1 0.076122 0.688044 0.307367
O O2 0.143484 0.584827 0.179190
O O3 0.209626 0.835760 0.619439
O O4 0.000000 0.898276 0.750000
O O5 0.922795 0.774153 0.678628
O O6 0.954935 0.912639 0.605436
O O7 0.725056 0.837599 0.378277
O O8 0.691437 0.858583 0.232046
O O9 0.434638 0.856201 0.375250
O O10 0.517731 0.156819 0.032870
O O11 0.361254 0.295580 0.089506
O O12 0.786403 0.092351 0.011221
O O13 0.750000 0.250000 0.000000
O O14 0.700725 0.543116 0.903703
#
# Coordination Sequence:
#
# PCOD9260112 Si02
#       7
#     4   8   8   8   8   8   8
#     4  10  18  36  62  90 118 164 224 254 294 394
#     4  11  18  38  65  95 121 172 223 266 301 389
#     4  10  19  40  68  89 131 171 217 255 330 386
#     4  10  22  38  66  90 121 172 220 261 323 382
#     4  11  24  41  67  97 127 173 217 273 316 393
#     4  10  21  39  65  95 126 169 211 271 317 388
#     4  11  22  38  65  96 131 160 217 265 324 375
#
# _framework density 22.348669000000001
#
# number of rings (size 3 to 8) (size 9 to 14) (size 15 to 20)
#    0.000    1.538    6.154    0.923    2.154    3.077 
#    1.385    0.769    3.385    0.000    0.000    0.000 
#    0.000    0.000    0.000    0.000    0.000    0.000 
#
# Total GULP energy -145453.574408 kJ/mol
# GULP energy per Si atom -5594.368246 kJ/mol
# Density = 2.229780 g / cm^3
# Si number density = 22.348669 Si / 1000 Ang^3
#
#
#
# Elastic Constant Matrix: (Units=GPa)
#
#
# Indices 1 2 3 4 5 6 
#
# 1 97.0327 37.5312 24.0886 0.0000 20.1621 0.0000
# 2 37.5312 92.9433 -7.3745 0.0000 19.3033 0.0000
# 3 24.0886 -7.3745 65.4546 0.0000 35.4437 0.0000
# 4 0.0000 0.0000 0.0000 6.5565 0.0000 10.6463
# 5 20.1621 19.3033 35.4437 0.0000 44.7573 0.0000
# 6 0.0000 0.0000 0.0000 10.6463 0.0000 12.5530
#
#
#
# Elastic Compliance Matrix: (Units=1/GPa)
#
#
# Indices 1 2 3 4 5 6 
#
# 1 0.014264 -0.006793 -0.007216 0.000000 0.002219 0.000000
# 2 -0.006793 0.017343 0.011988 0.000000 -0.013913 0.000000
# 3 -0.007216 0.011988 0.035582 0.000000 -0.030097 0.000000
# 4 0.000000 0.000000 0.000000 -0.404401 0.000000 0.342977
# 5 0.002219 -0.013913 -0.030097 0.000000 0.051178 0.000000
# 6 0.000000 0.000000 0.000000 0.342977 0.000000 -0.211221
#
#
# Mechanical properties :
#
#
# Convention : Reuss Voigt Hill
#
# Bulk Modulus (GPa) = 15.83644 40.43572 28.13608
# Shear Modulus (GPa) = -10.58955 26.18569 7.79807
#
# Velocity S-wave (km/s) = -2.17913 3.42671 1.86999
# Velocity P-wave (km/s) = 0.87748 5.81282 4.15685
#
# Compressibility (1/GPa) = 0.06314551
#
# Stress axis : x y z
#
# Youngs Moduli (GPa) = 70.10779 57.65945 28.10436
#
# Poissons Ratio (x) = 0.39170 0.20281
# Poissons Ratio (y) = 0.47626 -0.33692
# Poissons Ratio (z) = 0.50592 -0.69122
#
# Static dielectric constant tensor:
#      x y z
#    x 1.835060 0.000000 -0.036100 
#    y 0.000000 1.787000 0.000000 
#    z -0.036100 0.000000 1.869520 
# 
# From -- ./inp_files/190414.got.cif
#   From: 2010.05.17/outbox.cif.g08.bks.cpg/sg15_96_cif.got.tgz:190414.got - 2010.06.03 18:47:42.
