data_PCOD9260752
_publ_section_title
;
Structure prediction by ZEFSAII (Michael W. Deem and Ramdas Pophale) SiO2 
 PCOD9260752
Probable space group: C 2/C
;
_chemical_formula_sum "Si O2"
_cell_formula_units_Z 48
_cell_length_a 7.795910
_cell_length_b 31.644745
_cell_length_c 15.070821
_cell_angle_alpha 90.000000
_cell_angle_beta 142.367486
_cell_angle_gamma 90.000000
_cell_volume 2270.169783
_symmetry_space_group_name_H-M "C 2/C"
_symmetry_group_IT_number 15
_symmetry_cell_setting 'monoclinic'
loop_
_space_group_symop_operation_xyz
x,y,z
-x,y,1/2-z
-x,-y,-z
x,-y,1/2+z
1/2+x,1/2+y,z
1/2-x,1/2+y,1/2-z
1/2-x,1/2-y,-z
1/2+x,1/2-y,1/2+z
loop_
_atom_site_type_symbol
_atom_site_label
_atom_site_fract_x
_atom_site_fract_y
_atom_site_fract_z
Si Si1 0.410481 0.783672 0.816721
Si Si2 0.921192 0.968874 0.118411
Si Si3 0.672566 0.608586 0.613865
Si Si4 0.368917 0.958590 0.795629
Si Si5 0.273180 0.630249 0.295920
Si Si6 0.496644 0.307091 0.353615
O O1 0.500000 0.778824 0.750000
O O2 0.202209 0.823444 0.736217
O O3 0.328042 0.736038 0.809001
O O4 0.686920 0.797592 0.983775
O O5 0.019881 0.931762 0.093156
O O6 0.000000 0.954433 0.250000
O O7 0.099150 0.011600 0.180185
O O8 0.599239 0.975671 0.958691
O O9 0.540447 0.617879 0.463847
O O10 0.612595 0.651077 0.644410
O O11 0.000000 0.599653 0.750000
O O12 0.500000 0.958193 0.750000
O O13 0.295500 0.910367 0.791562
O O14 0.000000 0.633691 0.250000
O O15 0.500000 0.313605 0.250000
#
# Coordination Sequence:
#
# PCOD9260752 Si02
#       6
#     8   8   8   8   8   8
#     4   9  16  33  64  85 115 158 208 233 289 366
#     4  12  25  41  62  94 125 155 199 262 305 351
#     4  12  24  39  61  92 125 161 202 252 301 361
#     4  11  22  40  66  89 120 165 205 242 300 371
#     4  10  18  38  63  84 114 165 211 234 283 371
#     4  10  19  33  61  95 115 152 204 254 293 348
#
# _framework density 21.143792999999999
#
# number of rings (size 3 to 8) (size 9 to 14) (size 15 to 20)
#    0.000    1.333    6.667    2.000    2.333    0.000 
#    0.000    0.833    0.000    0.000    0.000    0.000 
#    0.000    0.000    0.000    0.000    0.000    0.000 
#
# Total GULP energy -134019.108972 kJ/mol
# GULP energy per Si atom -5584.129540 kJ/mol
# Density = 2.109567 g / cm^3
# Si number density = 21.143793 Si / 1000 Ang^3
#
#
#
# Elastic Constant Matrix: (Units=GPa)
#
#
# Indices 1 2 3 4 5 6 
#
# 1 15.4075 -4.2441 7.6448 0.0000 -8.6658 0.0000
# 2 -4.2441 135.8983 -8.2517 0.0000 11.1795 0.0000
# 3 7.6448 -8.2517 105.2239 0.0000 -17.9225 0.0000
# 4 0.0000 0.0000 0.0000 34.2484 0.0000 -2.6688
# 5 -8.6658 11.1795 -17.9225 0.0000 20.1708 0.0000
# 6 0.0000 0.0000 0.0000 -2.6688 0.0000 10.2513
#
#
#
# Elastic Compliance Matrix: (Units=1/GPa)
#
#
# Indices 1 2 3 4 5 6 
#
# 1 0.085602 -0.000370 0.000060 0.000000 0.037034 0.000000
# 2 -0.000370 0.007713 -0.000145 0.000000 -0.004563 0.000000
# 3 0.000060 -0.000145 0.011201 0.000000 0.010059 0.000000
# 4 0.000000 0.000000 0.000000 0.029803 0.000000 0.007759
# 5 0.037034 -0.004563 0.010059 0.000000 0.076954 0.000000
# 6 0.000000 0.000000 0.000000 0.007759 0.000000 0.099568
#
#
# Mechanical properties :
#
#
# Convention : Reuss Voigt Hill
#
# Bulk Modulus (GPa) = 9.65199 27.42530 18.53864
# Shear Modulus (GPa) = 14.43888 30.35950 22.39919
#
# Velocity S-wave (km/s) = 2.61605 3.79338 3.25833
# Velocity P-wave (km/s) = 3.70132 5.67321 4.78984
#
# Compressibility (1/GPa) = 0.10360559
#
# Stress axis : x y z
#
# Youngs Moduli (GPa) = 11.68201 129.64368 89.27702
#
# Poissons Ratio (x) = 0.04792 -0.00534
# Poissons Ratio (y) = 0.00432 0.01299
# Poissons Ratio (z) = -0.00070 0.01886
#
# Static dielectric constant tensor:
#      x y z
#    x 1.706650 0.000000 -0.049960 
#    y 0.000000 1.799330 0.000000 
#    z -0.049960 0.000000 1.736680 
# 
# From -- ./inp_files/194314.got.cif
#   From: 2010.05.17/outbox.cif.g08.bks.cpg/sg15_98_cif.got.tgz:194314.got - 2010.06.03 18:47:42.
