data_PCOD9260038
_publ_section_title
;
Structure prediction by ZEFSAII (Michael W. Deem and Ramdas Pophale) SiO2 
 PCOD9260038
Probable space group: C 2/C
;
_chemical_formula_sum "Si O2"
_cell_formula_units_Z 60
_cell_length_a 10.099485
_cell_length_b 19.517767
_cell_length_c 28.197524
_cell_angle_alpha 90.000000
_cell_angle_beta 149.277029
_cell_angle_gamma 90.000000
_cell_volume 2839.655801
_symmetry_space_group_name_H-M "C 2/C"
_symmetry_group_IT_number 15
_symmetry_cell_setting 'monoclinic'
loop_
_space_group_symop_operation_xyz
x,y,z
-x,y,1/2-z
-x,-y,-z
x,-y,1/2+z
1/2+x,1/2+y,z
1/2-x,1/2+y,1/2-z
1/2-x,1/2-y,-z
1/2+x,1/2-y,1/2+z
loop_
_atom_site_type_symbol
_atom_site_label
_atom_site_fract_x
_atom_site_fract_y
_atom_site_fract_z
Si Si1 0.777934 0.226892 0.813725
Si Si2 0.941791 0.761152 0.912894
Si Si3 0.232864 0.534876 0.199084
Si Si4 0.130785 0.167660 0.197462
Si Si5 0.468796 0.795022 0.962244
Si Si6 0.000000 0.842933 0.250000
Si Si7 0.366009 0.579809 0.802527
Si Si8 0.866153 0.549645 0.997528
O O1 0.500000 0.244002 0.750000
O O2 0.797107 0.270642 0.771797
O O3 0.967161 0.255279 0.912105
O O4 0.776078 0.146658 0.802602
O O5 0.856755 0.827167 0.855822
O O6 0.762644 0.701375 0.835556
O O7 0.250000 0.750000 0.000000
O O8 0.917082 0.753585 0.961653
O O9 0.500000 0.527685 0.250000
O O10 0.281366 0.601240 0.246760
O O11 0.177854 0.473267 0.218726
O O12 0.004334 0.539126 0.090325
O O13 0.828779 0.183885 0.116328
O O14 0.604947 0.868798 0.003194
O O15 0.996837 0.888646 0.201981
O O16 0.561797 0.537816 0.896163
O O17 0.000000 0.500000 0.000000
#
# Coordination Sequence:
#
# PCOD9260038 Si02
#       8
#     8   8   8   8   8   4   8   8
#     4  10  21  40  64  86 122 169 213 253 311 381
#     4  10  22  36  59  90 128 165 209 259 323 381
#     4  12  21  38  60  87 126 160 199 261 325 381
#     4  10  18  36  61  86 118 168 205 248 317 378
#     4  10  19  35  57  89 124 158 204 254 304 380
#     4  12  20  38  60  96 132 160 208 274 320 376
#     4  12  24  38  62  95 126 160 212 269 319 382
#     4  12  21  34  59  92 128 154 193 260 334 381
#
# _framework density 21.129321000000001
#
# number of rings (size 3 to 8) (size 9 to 14) (size 15 to 20)
#    0.000    1.067    7.333    0.400    0.000    0.533 
#    2.400    0.000    1.467    1.600    0.000    0.000 
#    0.000    0.000    0.000    0.000    0.000    0.000 
#
# Total GULP energy -167246.903735 kJ/mol
# GULP energy per Si atom -5574.896791 kJ/mol
# Density = 2.108123 g / cm^3
# Si number density = 21.129321 Si / 1000 Ang^3
#
#
#
# Elastic Constant Matrix: (Units=GPa)
#
#
# Indices 1 2 3 4 5 6 
#
# 1 33.6577 21.6265 39.8558 0.0008 -28.6957 0.0008
# 2 21.6265 80.6674 34.4875 0.0000 -28.3219 0.0005
# 3 39.8558 34.4875 158.9489 -0.0027 -35.0866 -0.0008
# 4 0.0008 0.0000 -0.0027 32.1030 -0.0005 -11.9047
# 5 -28.6957 -28.3219 -35.0866 -0.0005 47.7465 0.0006
# 6 0.0008 0.0005 -0.0008 -11.9047 0.0006 42.0170
#
#
#
# Elastic Compliance Matrix: (Units=1/GPa)
#
#
# Indices 1 2 3 4 5 6 
#
# 1 0.073252 -0.003140 -0.010002 -0.000003 0.034812 -0.000003
# 2 -0.003140 0.016144 -0.001215 0.000000 0.006796 0.000000
# 3 -0.010002 -0.001215 0.009044 0.000001 -0.000086 0.000001
# 4 -0.000003 0.000000 0.000001 0.034807 -0.000001 0.009862
# 5 0.034812 0.006796 -0.000086 -0.000001 0.045834 -0.000002
# 6 -0.000003 0.000000 0.000001 0.009862 -0.000002 0.026594
#
#
# Mechanical properties :
#
#
# Convention : Reuss Voigt Hill
#
# Bulk Modulus (GPa) = 14.34192 51.69041 33.01616
# Shear Modulus (GPa) = 19.40755 36.19359 27.80057
#
# Velocity S-wave (km/s) = 3.03399 4.14328 3.63124
# Velocity P-wave (km/s) = 4.36759 6.88520 5.76549
#
# Compressibility (1/GPa) = 0.06972569
#
# Stress axis : x y z
#
# Youngs Moduli (GPa) = 13.65143 61.94252 110.57114
#
# Poissons Ratio (x) = 0.19451 1.10592
# Poissons Ratio (y) = 0.04287 0.13438
# Poissons Ratio (z) = 0.13654 0.07528
#
# Static dielectric constant tensor:
#      x y z
#    x 1.832360 0.000000 0.055690 
#    y 0.000000 1.794740 0.000000 
#    z 0.055690 0.000000 1.847320 
# 
# From -- ./inp_files/183069.got.cif
#   From: 2010.05.17/outbox.cif.g08.bks.cpg/sg15_92_cif.got.tgz:183069.got - 2010.06.03 18:47:42.
