data_PCOD9260881
_publ_section_title
;
Structure prediction by ZEFSAII (Michael W. Deem and Ramdas Pophale) SiO2 
 PCOD9260881
Probable space group: C 2/C
;
_chemical_formula_sum "Si O2"
_cell_formula_units_Z 56
_cell_length_a 20.993461
_cell_length_b 9.258479
_cell_length_c 28.727016
_cell_angle_alpha 90.000000
_cell_angle_beta 154.416128
_cell_angle_gamma 90.000000
_cell_volume 2411.175952
_symmetry_space_group_name_H-M "C 2/C"
_symmetry_group_IT_number 15
_symmetry_cell_setting 'monoclinic'
loop_
_space_group_symop_operation_xyz
x,y,z
-x,y,1/2-z
-x,-y,-z
x,-y,1/2+z
1/2+x,1/2+y,z
1/2-x,1/2+y,1/2-z
1/2-x,1/2-y,-z
1/2+x,1/2-y,1/2+z
loop_
_atom_site_type_symbol
_atom_site_label
_atom_site_fract_x
_atom_site_fract_y
_atom_site_fract_z
Si Si1 0.189778 0.276364 0.761739
Si Si2 0.353535 0.138604 0.013368
Si Si3 0.194965 0.031447 0.996204
Si Si4 0.326370 0.997071 0.394712
Si Si5 0.134947 0.469040 0.809584
Si Si6 0.808489 0.831910 0.372275
Si Si7 0.556049 0.455882 0.608518
O O1 0.238619 0.111786 0.803082
O O2 0.209496 0.346029 0.826820
O O3 0.308374 0.346908 0.805385
O O4 0.026033 0.331340 0.639704
O O5 0.293685 0.301995 0.978573
O O6 0.268808 0.039360 0.995193
O O7 0.319829 0.065780 0.942389
O O8 0.293632 0.950059 0.098802
O O9 0.031319 0.979954 0.900956
O O10 0.500000 0.000000 0.500000
O O11 0.285144 0.163301 0.361490
O O12 0.151566 0.593358 0.781273
O O13 0.000000 0.403408 0.750000
O O14 0.933051 0.890988 0.491233
O O15 0.879700 0.894614 0.371394
#
# Coordination Sequence:
#
# PCOD9260881 Si02
#       7
#     8   8   8   8   8   8   8
#     4  11  22  39  69  96 131 176 228 272 326 400
#     4  11  24  38  64 103 131 173 227 274 330 403
#     4  10  20  39  63  90 132 172 217 275 323 398
#     4  12  23  42  67 100 136 173 214 288 339 382
#     4  10  18  38  67  93 124 185 225 266 330 404
#     4   9  19  35  66  92 125 173 223 268 336 394
#     4   9  18  39  66  90 121 186 221 262 336 394
#
# _framework density 23.225182
#
# number of rings (size 3 to 8) (size 9 to 14) (size 15 to 20)
#    0.000    1.714    4.286    1.714    0.000    1.143 
#    0.000    6.429    9.429    0.000    0.000    0.000 
#    0.000    0.000    0.000    0.000    0.000    0.000 
#
# Total GULP energy -155887.559707 kJ/mol
# GULP energy per Si atom -5567.412847 kJ/mol
# Density = 2.317232 g / cm^3
# Si number density = 23.225182 Si / 1000 Ang^3
#
#
#
# Elastic Constant Matrix: (Units=GPa)
#
#
# Indices 1 2 3 4 5 6 
#
# 1 144.9944 32.5275 38.5480 -0.0014 10.0837 -0.0001
# 2 32.5275 148.7894 17.1262 0.0003 2.4841 0.0004
# 3 38.5480 17.1262 87.3107 0.0013 0.9728 0.0018
# 4 -0.0014 0.0003 0.0013 21.1799 -0.0009 1.6022
# 5 10.0837 2.4841 0.9728 -0.0009 32.9864 0.0002
# 6 -0.0001 0.0004 0.0018 1.6022 0.0002 9.0041
#
#
#
# Elastic Compliance Matrix: (Units=1/GPa)
#
#
# Indices 1 2 3 4 5 6 
#
# 1 0.008259 -0.001381 -0.003349 0.000001 -0.002322 0.000001
# 2 -0.001381 0.007115 -0.000785 0.000000 -0.000090 0.000000
# 3 -0.003349 -0.000785 0.013078 -0.000001 0.000697 -0.000002
# 4 0.000001 0.000000 -0.000001 0.047859 0.000001 -0.008516
# 5 -0.002322 -0.000090 0.000697 0.000001 0.031012 -0.000001
# 6 0.000001 0.000000 -0.000002 -0.008516 -0.000001 0.112576
#
#
# Mechanical properties :
#
#
# Convention : Reuss Voigt Hill
#
# Bulk Modulus (GPa) = 57.40231 61.94421 59.67326
# Shear Modulus (GPa) = 21.12063 32.16028 26.64045
#
# Velocity S-wave (km/s) = 3.01887 3.72521 3.39049
# Velocity P-wave (km/s) = 6.07624 6.72547 6.40908
#
# Compressibility (1/GPa) = 0.01742090
#
# Stress axis : x y z
#
# Youngs Moduli (GPa) = 121.08587 140.55432 76.46258
#
# Poissons Ratio (x) = 0.19413 0.25610
# Poissons Ratio (y) = 0.16724 0.06001
# Poissons Ratio (z) = 0.40557 0.11030
#
# Static dielectric constant tensor:
#      x y z
#    x 1.933890 0.000000 0.017550 
#    y 0.000000 1.886000 0.000000 
#    z 0.017550 0.000000 2.076910 
# 
# From -- ./inp_files/317547.got.cif
#   From: 2010.05.17/outbox.cif.g08.bks.cpg/sg15_159_cif.got.tgz:317547.got - 2010.06.03 18:47:42.
