data_PCOD9260948
_publ_section_title
;
Structure prediction by ZEFSAII (Michael W. Deem and Ramdas Pophale) SiO2 
 PCOD9260948
Probable space group: C 2/C
;
_chemical_formula_sum "Si O2"
_cell_formula_units_Z 60
_cell_length_a 12.554376
_cell_length_b 14.706054
_cell_length_c 17.368989
_cell_angle_alpha 90.000000
_cell_angle_beta 81.156199
_cell_angle_gamma 90.000000
_cell_volume 3168.630683
_symmetry_space_group_name_H-M "C 2/C"
_symmetry_group_IT_number 15
_symmetry_cell_setting 'monoclinic'
loop_
_space_group_symop_operation_xyz
x,y,z
-x,y,1/2-z
-x,-y,-z
x,-y,1/2+z
1/2+x,1/2+y,z
1/2-x,1/2+y,1/2-z
1/2-x,1/2-y,-z
1/2+x,1/2-y,1/2+z
loop_
_atom_site_type_symbol
_atom_site_label
_atom_site_fract_x
_atom_site_fract_y
_atom_site_fract_z
Si Si1 0.890749 0.475495 0.914233
Si Si2 0.157557 0.059011 0.187246
Si Si3 0.631440 0.998355 0.904479
Si Si4 0.674730 0.816919 0.316313
Si Si5 0.713838 0.436460 0.323980
Si Si6 0.000000 0.784094 0.750000
Si Si7 0.679083 0.768140 0.583794
Si Si8 0.518953 0.386299 0.156615
O O1 0.803331 0.527824 0.872561
O O2 0.867370 0.368574 0.915846
O O3 0.015664 0.486681 0.877201
O O4 0.880799 0.509838 0.003037
O O5 0.088864 0.149826 0.202383
O O6 0.273768 0.067023 0.135061
O O7 0.180980 0.017727 0.269201
O O8 0.087137 0.980394 0.152582
O O9 0.667930 0.099801 0.876857
O O10 0.733657 0.858426 0.235261
O O11 0.559961 0.778361 0.305022
O O12 0.744682 0.740543 0.349989
O O13 0.598484 0.401835 0.367410
O O14 0.750000 0.750000 0.500000
O O15 0.587854 0.691393 0.607388
O O16 0.500000 0.362847 0.250000
#
# Coordination Sequence:
#
# PCOD9260948 Si02
#       8
#     8   8   8   8   8   4   8   8
#     4  11  23  39  64  90 118 165 208 243 308 382
#     4  10  19  39  60  86 120 159 198 252 311 357
#     4  10  22  44  59  83 133 160 192 258 310 368
#     4  11  22  40  61  89 127 158 203 259 310 354
#     4  10  20  40  63  89 120 161 208 252 312 366
#     4  12  22  34  64  90 118 158 210 260 302 372
#     4  12  22  40  63  91 125 164 208 253 310 372
#     4  10  18  39  61  83 126 159 194 263 308 347
#
# _framework density 18.935624000000001
#
# number of rings (size 3 to 8) (size 9 to 14) (size 15 to 20)
#    0.000    1.333    7.333    1.600    0.000    2.667 
#    7.200    1.333    0.000    4.000    0.000    0.000 
#    0.000    0.000    0.000    0.000    0.000    0.000 
#
# Total GULP energy -167465.591704 kJ/mol
# GULP energy per Si atom -5582.186390 kJ/mol
# Density = 1.889253 g / cm^3
# Si number density = 18.935624 Si / 1000 Ang^3
#
#
#
# Elastic Constant Matrix: (Units=GPa)
#
#
# Indices 1 2 3 4 5 6 
#
# 1 150.2365 19.4103 39.2333 0.0000 0.5918 0.0000
# 2 19.4103 32.4211 13.3002 0.0000 -0.3207 0.0000
# 3 39.2333 13.3002 43.6201 0.0000 -5.4961 0.0000
# 4 0.0000 0.0000 0.0000 9.1048 0.0000 -2.4901
# 5 0.5918 -0.3207 -5.4961 0.0000 34.9075 0.0000
# 6 0.0000 0.0000 0.0000 -2.4901 0.0000 38.5565
#
#
#
# Elastic Compliance Matrix: (Units=1/GPa)
#
#
# Indices 1 2 3 4 5 6 
#
# 1 0.008912 -0.002275 -0.007492 0.000000 -0.001352 0.000000
# 2 -0.002275 0.035902 -0.009033 0.000000 -0.001054 0.000000
# 3 -0.007492 -0.009033 0.033080 0.000000 0.005252 0.000000
# 4 0.000000 0.000000 0.000000 0.111807 0.000000 0.007221
# 5 -0.001352 -0.001054 0.005252 0.000000 0.029487 0.000000
# 6 0.000000 0.000000 0.000000 0.007221 0.000000 0.026402
#
#
# Mechanical properties :
#
#
# Convention : Reuss Voigt Hill
#
# Bulk Modulus (GPa) = 24.81861 41.12949 32.97405
# Shear Modulus (GPa) = 16.85644 26.80267 21.82956
#
# Velocity S-wave (km/s) = 2.98685 3.76635 3.39902
# Velocity P-wave (km/s) = 5.00303 6.37822 5.73202
#
# Compressibility (1/GPa) = 0.04029235
#
# Stress axis : x y z
#
# Youngs Moduli (GPa) = 112.20776 27.85393 30.22961
#
# Poissons Ratio (x) = 0.06338 0.22649
# Poissons Ratio (y) = 0.25531 0.27307
# Poissons Ratio (z) = 0.84070 0.25161
#
# Static dielectric constant tensor:
#      x y z
#    x 1.688270 0.000000 -0.009710 
#    y 0.000000 1.641440 0.000000 
#    z -0.009710 0.000000 1.660410 
# 
# From -- ./inp_files/197812.got.cif
#   From: 2010.05.17/outbox.cif.g08.bks.cpg/sg15_99_cif.got.tgz:197812.got - 2010.06.03 18:47:42.
