data_PCOD9260316
_publ_section_title
;
Structure prediction by ZEFSAII (Michael W. Deem and Ramdas Pophale) SiO2 
 PCOD9260316
Probable space group: C 2/C
;
_chemical_formula_sum "Si O2"
_cell_formula_units_Z 56
_cell_length_a 14.599337
_cell_length_b 21.653075
_cell_length_c 9.316183
_cell_angle_alpha 90.000000
_cell_angle_beta 75.931780
_cell_angle_gamma 90.000000
_cell_volume 2856.706276
_symmetry_space_group_name_H-M "C 2/C"
_symmetry_group_IT_number 15
_symmetry_cell_setting 'monoclinic'
loop_
_space_group_symop_operation_xyz
x,y,z
-x,y,1/2-z
-x,-y,-z
x,-y,1/2+z
1/2+x,1/2+y,z
1/2-x,1/2+y,1/2-z
1/2-x,1/2-y,-z
1/2+x,1/2-y,1/2+z
loop_
_atom_site_type_symbol
_atom_site_label
_atom_site_fract_x
_atom_site_fract_y
_atom_site_fract_z
Si Si1 0.632904 0.411675 0.092792
Si Si2 0.732475 0.530939 0.979674
Si Si3 0.206771 0.317615 0.501424
Si Si4 0.134473 0.491031 0.314363
Si Si5 0.553292 0.437116 0.433322
Si Si6 0.025348 0.369047 0.404290
Si Si7 0.906019 0.626560 0.211931
O O1 0.601013 0.441620 0.257155
O O2 0.535305 0.391299 0.053711
O O3 0.685824 0.463101 0.977397
O O4 0.708643 0.359424 0.091176
O O5 0.802757 0.545645 0.824383
O O6 0.639909 0.574132 0.008975
O O7 0.795579 0.519942 0.094254
O O8 0.250000 0.250000 0.500000
O O9 0.113260 0.330341 0.438911
O O10 0.179321 0.342216 0.671527
O O11 0.059416 0.441328 0.399626
O O12 0.096873 0.553210 0.256345
O O13 0.500000 0.500000 0.500000
O O14 0.000000 0.354800 0.250000
O O15 0.930631 0.363394 0.536327
O O16 0.000000 0.652436 0.250000
#
# Coordination Sequence:
#
# PCOD9260316 Si02
#       7
#     8   8   8   8   8   8   8
#     4  10  18  37  53  82 117 161 203 244 294 356
#     4  11  18  30  53  85 124 158 190 238 300 368
#     4  11  23  43  67  85 120 171 218 255 300 365
#     4  12  19  32  60  92 129 160 192 242 320 379
#     4   9  19  31  53  82 119 154 196 247 298 363
#     4  11  22  39  62  94 124 157 200 262 318 364
#     4  10  21  38  59  92 124 160 204 249 306 373
#
# _framework density 19.602996000000001
#
# number of rings (size 3 to 8) (size 9 to 14) (size 15 to 20)
#    0.000    1.429    4.286    2.571    0.000    0.000 
#    7.714    0.714    3.143    0.000    0.000    0.000 
#    0.000    0.000    0.000    0.000    0.000    0.000 
#
# Total GULP energy -155876.806024 kJ/mol
# GULP energy per Si atom -5567.028787 kJ/mol
# Density = 1.955838 g / cm^3
# Si number density = 19.602996 Si / 1000 Ang^3
#
#
#
# Elastic Constant Matrix: (Units=GPa)
#
#
# Indices 1 2 3 4 5 6 
#
# 1 105.9833 25.6953 43.3359 0.0000 2.3886 0.0000
# 2 25.6953 74.8151 28.4397 0.0000 -9.1641 0.0000
# 3 43.3359 28.4397 111.4913 0.0000 -12.1431 0.0000
# 4 0.0000 0.0000 0.0000 11.1063 0.0000 1.8763
# 5 2.3886 -9.1641 -12.1431 0.0000 28.5531 0.0000
# 6 0.0000 0.0000 0.0000 1.8763 0.0000 10.9883
#
#
#
# Elastic Compliance Matrix: (Units=1/GPa)
#
#
# Indices 1 2 3 4 5 6 
#
# 1 0.012004 -0.002942 -0.004328 0.000000 -0.003789 0.000000
# 2 -0.002942 0.015825 -0.002426 0.000000 0.004293 0.000000
# 3 -0.004328 -0.002426 0.011770 0.000000 0.004589 0.000000
# 4 0.000000 0.000000 0.000000 0.092713 0.000000 -0.015831
# 5 -0.003789 0.004293 0.004589 0.000000 0.038669 0.000000
# 6 0.000000 0.000000 0.000000 -0.015831 0.000000 0.093709
#
#
# Mechanical properties :
#
#
# Convention : Reuss Voigt Hill
#
# Bulk Modulus (GPa) = 49.48554 54.13681 51.81118
# Shear Modulus (GPa) = 17.19301 23.11747 20.15524
#
# Velocity S-wave (km/s) = 2.96473 3.43779 3.20999
# Velocity P-wave (km/s) = 6.08426 6.59048 6.34242
#
# Compressibility (1/GPa) = 0.02020792
#
# Stress axis : x y z
#
# Youngs Moduli (GPa) = 83.30735 63.19314 84.96044
#
# Poissons Ratio (x) = 0.18588 0.36772
# Poissons Ratio (y) = 0.24505 0.20608
# Poissons Ratio (z) = 0.36056 0.15328
#
# Static dielectric constant tensor:
#      x y z
#    x 1.823920 0.000000 0.033640 
#    y 0.000000 1.677720 0.000000 
#    z 0.033640 0.000000 1.759720 
# 
# From -- ./inp_files/42127.got.cif
#   From: 2010.05.17/outbox.cif.g08.bks.cpg/sg15_22_cif.got.tgz:42127.got - 2010.06.03 18:47:42.
