data_PCOD9260476
_publ_section_title
;
Structure prediction by ZEFSAII (Michael W. Deem and Ramdas Pophale) SiO2 
 PCOD9260476
Probable space group: C 2/C
;
_chemical_formula_sum "Si O2"
_cell_formula_units_Z 48
_cell_length_a 18.191465
_cell_length_b 9.082358
_cell_length_c 19.074625
_cell_angle_alpha 90.000000
_cell_angle_beta 38.622941
_cell_angle_gamma 90.000000
_cell_volume 1967.165149
_symmetry_space_group_name_H-M "C 2/C"
_symmetry_group_IT_number 15
_symmetry_cell_setting 'monoclinic'
loop_
_space_group_symop_operation_xyz
x,y,z
-x,y,1/2-z
-x,-y,-z
x,-y,1/2+z
1/2+x,1/2+y,z
1/2-x,1/2+y,1/2-z
1/2-x,1/2-y,-z
1/2+x,1/2-y,1/2+z
loop_
_atom_site_type_symbol
_atom_site_label
_atom_site_fract_x
_atom_site_fract_y
_atom_site_fract_z
Si Si1 0.308969 0.954237 0.014810
Si Si2 0.767969 0.529461 0.840990
Si Si3 0.940666 0.286407 0.681564
Si Si4 0.619640 0.785301 0.135544
Si Si5 0.093102 0.970044 0.087301
Si Si6 0.864574 0.463463 0.622636
O O1 0.292474 0.993182 0.108201
O O2 0.194891 0.896157 0.059352
O O3 0.328577 0.111577 0.962785
O O4 0.429722 0.863000 0.917584
O O5 0.800909 0.680130 0.856103
O O6 0.802720 0.547149 0.733908
O O7 0.854371 0.387477 0.792928
O O8 0.644768 0.484046 0.969316
O O9 0.973945 0.122277 0.677532
O O10 0.883131 0.304651 0.646562
O O11 0.500000 0.858183 0.250000
O O12 0.583286 0.630826 0.129243
O O13 0.000000 0.500000 0.500000
#
# Coordination Sequence:
#
# PCOD9260476 Si02
#       6
#     8   8   8   8   8   8
#     4  10  18  37  63  89 125 169 221 258 325 403
#     4   9  19  38  66  85 129 176 214 262 342 403
#     4   9  19  38  61  86 128 165 215 262 338 381
#     4  11  20  40  61  90 125 170 214 267 338 393
#     4  11  23  36  61 104 126 161 226 288 315 399
#     4   8  16  35  64  89 119 178 216 249 330 405
#
# _framework density 24.400594000000002
#
# number of rings (size 3 to 8) (size 9 to 14) (size 15 to 20)
#    1.000    1.333    1.667    2.500    0.000    0.000 
#    9.000    9.167    0.000    0.000    0.000    0.000 
#    0.000    0.000    0.000    0.000    0.000    0.000 
#
# Total GULP energy -133617.333779 kJ/mol
# GULP energy per Si atom -5567.388907 kJ/mol
# Density = 2.434506 g / cm^3
# Si number density = 24.400594 Si / 1000 Ang^3
#
#
#
# Elastic Constant Matrix: (Units=GPa)
#
#
# Indices 1 2 3 4 5 6 
#
# 1 51.5955 8.1161 32.1270 0.0000 31.4571 0.0000
# 2 8.1161 107.8188 28.1887 0.0000 12.0425 0.0000
# 3 32.1270 28.1887 145.8323 0.0000 34.1630 0.0000
# 4 0.0000 0.0000 0.0000 9.3363 0.0000 -23.4363
# 5 31.4571 12.0425 34.1630 0.0000 47.9325 0.0000
# 6 0.0000 0.0000 0.0000 -23.4363 0.0000 12.1835
#
#
#
# Elastic Compliance Matrix: (Units=1/GPa)
#
#
# Indices 1 2 3 4 5 6 
#
# 1 0.033159 0.000442 -0.002721 0.000000 -0.019934 0.000000
# 2 0.000442 0.009846 -0.001624 0.000000 -0.001606 0.000000
# 3 -0.002721 -0.001624 0.008711 0.000000 -0.004015 0.000000
# 4 0.000000 0.000000 0.000000 -0.027975 0.000000 -0.053813
# 5 -0.019934 -0.001606 -0.004015 0.000000 0.037210 0.000000
# 6 0.000000 0.000000 0.000000 -0.053813 0.000000 -0.021437
#
#
# Mechanical properties :
#
#
# Convention : Reuss Voigt Hill
#
# Bulk Modulus (GPa) = 22.77406 49.12333 35.94870
# Shear Modulus (GPa) = 80.70161 29.67811 55.18986
#
# Velocity S-wave (km/s) = 5.75721 3.49131 4.76102
# Velocity P-wave (km/s) = 7.31762 6.03557 6.70730
#
# Compressibility (1/GPa) = 0.04390960
#
# Stress axis : x y z
#
# Youngs Moduli (GPa) = 30.15732 101.56844 114.79608
#
# Poissons Ratio (x) = -0.04486 0.31233
# Poissons Ratio (y) = -0.01332 0.18645
# Poissons Ratio (z) = 0.08205 0.16497
#
# Static dielectric constant tensor:
#      x y z
#    x 1.999230 0.000000 -0.005530 
#    y 0.000000 2.035810 0.000000 
#    z -0.005530 0.000000 1.947050 
# 
# From -- ./inp_files/251776.got.cif
#   From: 2010.05.17/outbox.cif.g08.bks.cpg/sg15_126_cif.got.tgz:251776.got - 2010.06.03 18:47:42.
