data_PCOD9260494
_publ_section_title
;
Structure prediction by ZEFSAII (Michael W. Deem and Ramdas Pophale) SiO2 
 PCOD9260494
Probable space group: C 2/C
;
_chemical_formula_sum "Si O2"
_cell_formula_units_Z 40
_cell_length_a 7.355523
_cell_length_b 16.095124
_cell_length_c 20.429063
_cell_angle_alpha 90.000000
_cell_angle_beta 130.905552
_cell_angle_gamma 90.000000
_cell_volume 1827.921267
_symmetry_space_group_name_H-M "C 2/C"
_symmetry_group_IT_number 15
_symmetry_cell_setting 'monoclinic'
loop_
_space_group_symop_operation_xyz
x,y,z
-x,y,1/2-z
-x,-y,-z
x,-y,1/2+z
1/2+x,1/2+y,z
1/2-x,1/2+y,1/2-z
1/2-x,1/2-y,-z
1/2+x,1/2-y,1/2+z
loop_
_atom_site_type_symbol
_atom_site_label
_atom_site_fract_x
_atom_site_fract_y
_atom_site_fract_z
Si Si1 0.674530 0.757303 0.846578
Si Si2 0.989454 0.367522 0.008216
Si Si3 0.248935 0.316454 0.672380
Si Si4 0.743859 0.433217 0.705606
Si Si5 0.342032 0.490909 0.028313
O O1 0.500000 0.719133 0.750000
O O2 0.896507 0.702669 0.920170
O O3 0.490761 0.769401 0.862909
O O4 0.750474 0.847771 0.836632
O O5 0.200118 0.406547 0.011762
O O6 0.783369 0.335425 0.910801
O O7 0.868451 0.440312 0.021567
O O8 0.500000 0.272968 0.750000
O O9 0.256090 0.399017 0.720276
O O10 0.523592 0.488634 0.630760
O O11 0.000000 0.474722 0.750000
O O12 0.500000 0.500000 0.000000
#
# Coordination Sequence:
#
# PCOD9260494 Si02
#       5
#     8   8   8   8   8
#     4   9  21  41  60  93 126 157 207 265 315 370
#     4  11  23  41  64  91 126 165 206 265 312 364
#     4  10  18  37  64  90 117 163 210 247 313 378
#     4   9  19  39  63  86 121 164 209 254 306 378
#     4  11  23  41  58  93 124 162 216 250 313 382
#
# _framework density 21.882781999999999
#
# number of rings (size 3 to 8) (size 9 to 14) (size 15 to 20)
#    0.000    2.400    2.000    3.000    0.000    0.800 
#   18.000    0.000    0.000    0.000    0.000    0.000 
#    0.000    0.000    0.000    0.000    0.000    0.000 
#
# Total GULP energy -111653.166599 kJ/mol
# GULP energy per Si atom -5582.658330 kJ/mol
# Density = 2.183298 g / cm^3
# Si number density = 21.882782 Si / 1000 Ang^3
#
#
#
# Elastic Constant Matrix: (Units=GPa)
#
#
# Indices 1 2 3 4 5 6 
#
# 1 97.2386 6.3717 3.1344 -0.0001 7.7896 0.0000
# 2 6.3717 34.6542 35.4897 0.0000 11.8613 0.0000
# 3 3.1344 35.4897 98.2777 -0.0001 19.5971 -0.0001
# 4 -0.0001 0.0000 -0.0001 25.3458 -0.0001 11.8912
# 5 7.7896 11.8613 19.5971 -0.0001 38.6768 0.0000
# 6 0.0000 0.0000 -0.0001 11.8912 0.0000 16.0003
#
#
#
# Elastic Compliance Matrix: (Units=1/GPa)
#
#
# Indices 1 2 3 4 5 6 
#
# 1 0.010548 -0.002118 0.000804 0.000000 -0.001882 0.000000
# 2 -0.002118 0.047640 -0.015916 0.000000 -0.006119 0.000000
# 3 0.000804 -0.015916 0.016637 0.000000 -0.003711 0.000000
# 4 0.000000 0.000000 0.000000 0.060575 0.000000 -0.045019
# 5 -0.001882 -0.006119 -0.003711 0.000000 0.029991 0.000000
# 6 0.000000 0.000000 0.000000 -0.045019 0.000000 0.095956
#
#
# Mechanical properties :
#
#
# Convention : Reuss Voigt Hill
#
# Bulk Modulus (GPa) = 24.77464 35.57357 30.17411
# Shear Modulus (GPa) = 16.16745 28.34956 22.25850
#
# Velocity S-wave (km/s) = 2.72107 3.60324 3.19277
# Velocity P-wave (km/s) = 4.60635 5.79679 5.23551
#
# Compressibility (1/GPa) = 0.04036386
#
# Stress axis : x y z
#
# Youngs Moduli (GPa) = 94.80790 20.99071 60.10692
#
# Poissons Ratio (x) = 0.04447 -0.04832
# Poissons Ratio (y) = 0.20084 0.95666
# Poissons Ratio (z) = -0.07621 0.33409
#
# Static dielectric constant tensor:
#      x y z
#    x 1.880620 0.000000 -0.014210 
#    y 0.000000 1.792360 0.000000 
#    z -0.014210 0.000000 1.810830 
# 
# From -- ./inp_files/192379.got.cif
#   From: 2010.05.17/outbox.cif.g08.bks.cpg/sg15_97_cif.got.tgz:192379.got - 2010.06.03 18:47:42.
