data_PCOD9260790
_publ_section_title
;
Structure prediction by ZEFSAII (Michael W. Deem and Ramdas Pophale) SiO2 
 PCOD9260790
Probable space group: C 2/C
;
_chemical_formula_sum "Si O2"
_cell_formula_units_Z 60
_cell_length_a 26.088575
_cell_length_b 13.383449
_cell_length_c 13.475734
_cell_angle_alpha 90.000000
_cell_angle_beta 144.684832
_cell_angle_gamma 90.000000
_cell_volume 2719.906771
_symmetry_space_group_name_H-M "C 2/C"
_symmetry_group_IT_number 15
_symmetry_cell_setting 'monoclinic'
loop_
_space_group_symop_operation_xyz
x,y,z
-x,y,1/2-z
-x,-y,-z
x,-y,1/2+z
1/2+x,1/2+y,z
1/2-x,1/2+y,1/2-z
1/2-x,1/2-y,-z
1/2+x,1/2-y,1/2+z
loop_
_atom_site_type_symbol
_atom_site_label
_atom_site_fract_x
_atom_site_fract_y
_atom_site_fract_z
Si Si1 0.148646 0.005956 0.606220
Si Si2 0.060421 0.139118 0.612492
Si Si3 0.686024 0.106354 0.115887
Si Si4 0.899802 0.747395 0.771623
Si Si5 0.500000 0.866272 0.250000
Si Si6 0.906912 0.820152 0.110966
Si Si7 0.226286 0.729871 0.348140
Si Si8 0.774228 0.824942 0.417172
O O1 0.075540 0.043839 0.567644
O O2 0.186071 0.089039 0.589341
O O3 0.237451 0.966589 0.800454
O O4 0.104984 0.914522 0.478601
O O5 0.088907 0.133547 0.771694
O O6 0.138800 0.208429 0.690526
O O7 0.967551 0.194728 0.449556
O O8 0.702349 0.122760 0.260475
O O9 0.705629 0.216559 0.101333
O O10 0.586617 0.077917 0.929439
O O11 0.960171 0.697153 0.780167
O O12 0.833386 0.822842 0.610314
O O13 0.829975 0.674386 0.717537
O O14 0.000000 0.765619 0.250000
O O15 0.823559 0.749451 0.957157
O O16 0.250000 0.750000 0.500000
#
# Coordination Sequence:
#
# PCOD9260790 Si02
#       8
#     8   8   8   8   4   8   8   8
#     4  11  24  40  63  91 128 163 204 256 312 373
#     4  11  21  39  68  86 122 170 205 245 323 371
#     4  10  20  39  64  88 124 161 204 263 303 363
#     4  10  21  36  66  92 118 166 203 253 311 368
#     4  10  18  38  64  88 120 160 218 254 304 366
#     4  10  25  38  57  94 127 155 208 262 305 374
#     4   9  18  38  61  84 116 164 200 243 306 366
#     4  10  22  40  60  93 127 155 210 258 303 367
#
# _framework density 22.059577999999998
#
# number of rings (size 3 to 8) (size 9 to 14) (size 15 to 20)
#    0.000    1.867    2.667    0.800    5.600    3.733 
#    0.000    0.667   10.267    0.000    0.000    0.000 
#    0.000    0.000    0.000    0.000    0.000    0.000 
#
# Total GULP energy -167131.620652 kJ/mol
# GULP energy per Si atom -5571.054022 kJ/mol
# Density = 2.200937 g / cm^3
# Si number density = 22.059578 Si / 1000 Ang^3
#
#
#
# Elastic Constant Matrix: (Units=GPa)
#
#
# Indices 1 2 3 4 5 6 
#
# 1 97.2393 9.1980 33.5848 0.0000 16.4724 0.0000
# 2 9.1980 20.1407 8.4680 0.0000 11.4035 0.0000
# 3 33.5848 8.4680 171.9227 0.0000 24.9779 0.0000
# 4 0.0000 0.0000 0.0000 17.8353 0.0000 3.4424
# 5 16.4724 11.4035 24.9779 0.0000 45.9566 0.0000
# 6 0.0000 0.0000 0.0000 3.4424 0.0000 25.2728
#
#
#
# Elastic Compliance Matrix: (Units=1/GPa)
#
#
# Indices 1 2 3 4 5 6 
#
# 1 0.011602 -0.003194 -0.001759 0.000000 -0.002410 0.000000
# 2 -0.003194 0.058755 -0.000345 0.000000 -0.013247 0.000000
# 3 -0.001759 -0.000345 0.006594 0.000000 -0.002868 0.000000
# 4 0.000000 0.000000 0.000000 0.057582 0.000000 -0.007843
# 5 -0.002410 -0.013247 -0.002868 0.000000 0.027469 0.000000
# 6 0.000000 0.000000 0.000000 -0.007843 0.000000 0.040637
#
#
# Mechanical properties :
#
#
# Convention : Reuss Voigt Hill
#
# Bulk Modulus (GPa) = 15.07089 43.53381 29.30235
# Shear Modulus (GPa) = 21.24460 33.68307 27.46383
#
# Velocity S-wave (km/s) = 3.10668 3.91181 3.53226
# Velocity P-wave (km/s) = 4.44020 6.33881 5.47247
#
# Compressibility (1/GPa) = 0.06635310
#
# Stress axis : x y z
#
# Youngs Moduli (GPa) = 86.19351 17.01982 151.65738
#
# Poissons Ratio (x) = 0.05437 0.26676
# Poissons Ratio (y) = 0.27534 0.05238
# Poissons Ratio (z) = 0.15161 0.00588
#
# Static dielectric constant tensor:
#      x y z
#    x 1.927710 0.000000 -0.014440 
#    y 0.000000 1.855390 0.000000 
#    z -0.014440 0.000000 1.838980 
# 
# From -- ./inp_files/178546.got.cif
#   From: 2010.05.17/outbox.cif.g08.bks.cpg/sg15_90_cif.got.tgz:178546.got - 2010.06.03 18:47:42.
