data_PCOD9260568
_publ_section_title
;
Structure prediction by ZEFSAII (Michael W. Deem and Ramdas Pophale) SiO2 
 PCOD9260568
Probable space group: C 2/C
;
_chemical_formula_sum "Si O2"
_cell_formula_units_Z 64
_cell_length_a 7.507637
_cell_length_b 17.448675
_cell_length_c 30.200284
_cell_angle_alpha 90.000000
_cell_angle_beta 132.636736
_cell_angle_gamma 90.000000
_cell_volume 2910.419753
_symmetry_space_group_name_H-M "C 2/C"
_symmetry_group_IT_number 15
_symmetry_cell_setting 'monoclinic'
loop_
_space_group_symop_operation_xyz
x,y,z
-x,y,1/2-z
-x,-y,-z
x,-y,1/2+z
1/2+x,1/2+y,z
1/2-x,1/2+y,1/2-z
1/2-x,1/2-y,-z
1/2+x,1/2-y,1/2+z
loop_
_atom_site_type_symbol
_atom_site_label
_atom_site_fract_x
_atom_site_fract_y
_atom_site_fract_z
Si Si1 0.151455 0.012673 0.480598
Si Si2 0.993035 0.426207 0.396344
Si Si3 0.947731 0.871419 0.423393
Si Si4 0.035984 0.130580 0.388493
Si Si5 0.025201 0.979877 0.804691
Si Si6 0.287450 0.360323 0.296376
Si Si7 0.444478 0.234164 0.493177
Si Si8 0.276819 0.729610 0.631156
O O1 0.390817 0.055114 0.536699
O O2 0.019314 0.066124 0.423534
O O3 0.000000 0.000000 0.500000
O O4 0.175585 0.928160 0.465202
O O5 0.799508 0.490599 0.354707
O O6 0.864373 0.344823 0.375039
O O7 0.208824 0.419021 0.398101
O O8 0.889623 0.857328 0.363237
O O9 0.969628 0.804226 0.462951
O O10 0.303231 0.169206 0.440672
O O11 0.993056 0.087006 0.335188
O O12 0.839431 0.195692 0.366266
O O13 0.000000 0.954354 0.750000
O O14 0.863832 0.057156 0.787914
O O15 0.448724 0.288495 0.306488
O O16 0.000000 0.351215 0.250000
O O17 0.250000 0.250000 0.500000
O O18 0.691994 0.230134 0.564208
#
# Coordination Sequence:
#
# PCOD9260568 Si02
#       8
#     8   8   8   8   8   8   8   8
#     4  10  19  33  65 108 137 173 216 279 346 410
#     4  10  19  37  67 100 137 174 227 270 340 415
#     4  11  20  38  66 103 137 175 226 273 337 410
#     4  11  20  40  69 103 140 176 218 285 353 415
#     4  11  25  44  70  97 131 184 239 292 338 390
#     4  11  25  44  70  96 128 180 246 283 326 401
#     4  10  18  37  69 100 147 177 205 274 358 424
#     4  10  20  39  70 103 133 183 213 274 353 410
#
# _framework density 21.989954999999998
#
# number of rings (size 3 to 8) (size 9 to 14) (size 15 to 20)
#    0.000    1.500    5.000    3.000    0.000    2.000 
#    0.000    3.125    2.750    0.000    0.000    0.000 
#    0.000    0.000    0.000    0.000    0.000    0.000 
#
# Total GULP energy -178460.024971 kJ/mol
# GULP energy per Si atom -5576.875780 kJ/mol
# Density = 2.193991 g / cm^3
# Si number density = 21.989955 Si / 1000 Ang^3
#
#
#
# Elastic Constant Matrix: (Units=GPa)
#
#
# Indices 1 2 3 4 5 6 
#
# 1 71.1202 41.5181 45.8018 0.0001 -1.1494 0.0000
# 2 41.5181 127.9762 50.5598 0.0000 -14.9449 0.0000
# 3 45.8018 50.5598 100.6752 0.0000 -14.4807 0.0000
# 4 0.0001 0.0000 0.0000 15.2832 0.0001 -4.6893
# 5 -1.1494 -14.9449 -14.4807 0.0001 37.9667 0.0000
# 6 0.0000 0.0000 0.0000 -4.6893 0.0000 6.9622
#
#
#
# Elastic Compliance Matrix: (Units=1/GPa)
#
#
# Indices 1 2 3 4 5 6 
#
# 1 0.021919 -0.004273 -0.008435 0.000000 -0.004236 0.000000
# 2 -0.004273 0.010740 -0.003026 0.000000 0.002944 0.000000
# 3 -0.008435 -0.003026 0.015958 0.000000 0.004640 0.000000
# 4 0.000000 0.000000 0.000000 0.082476 0.000000 0.055551
# 5 -0.004236 0.002944 0.004640 0.000000 0.029139 0.000000
# 6 0.000000 0.000000 0.000000 0.055551 0.000000 0.181049
#
#
# Mechanical properties :
#
#
# Convention : Reuss Voigt Hill
#
# Bulk Modulus (GPa) = 58.31769 63.94790 61.13279
# Shear Modulus (GPa) = 13.21125 22.83520 18.02322
#
# Velocity S-wave (km/s) = 2.45375 3.22598 2.86599
# Velocity P-wave (km/s) = 5.88265 6.55893 6.22997
#
# Compressibility (1/GPa) = 0.01714746
#
# Stress axis : x y z
#
# Youngs Moduli (GPa) = 45.62218 93.11412 62.66619
#
# Poissons Ratio (x) = 0.39789 0.52861
# Poissons Ratio (y) = 0.19495 0.18963
# Poissons Ratio (z) = 0.38484 0.28176
#
# Static dielectric constant tensor:
#      x y z
#    x 1.898160 0.000000 0.009410 
#    y 0.000000 1.134720 0.000000 
#    z 0.009410 0.000000 1.852740 
# 
# From -- ./inp_files/308783.got.cif
#   From: 2010.05.17/outbox.cif.g08.bks.cpg/sg15_155_cif.got.tgz:308783.got - 2010.06.03 18:47:42.
