data_PCOD9260517
_publ_section_title
;
Structure prediction by ZEFSAII (Michael W. Deem and Ramdas Pophale) SiO2 
 PCOD9260517
Probable space group: C 2/C
;
_chemical_formula_sum "Si O2"
_cell_formula_units_Z 40
_cell_length_a 9.349531
_cell_length_b 10.685342
_cell_length_c 18.281922
_cell_angle_alpha 90.000000
_cell_angle_beta 109.711442
_cell_angle_gamma 90.000000
_cell_volume 1719.395471
_symmetry_space_group_name_H-M "C 2/C"
_symmetry_group_IT_number 15
_symmetry_cell_setting 'monoclinic'
loop_
_space_group_symop_operation_xyz
x,y,z
-x,y,1/2-z
-x,-y,-z
x,-y,1/2+z
1/2+x,1/2+y,z
1/2-x,1/2+y,1/2-z
1/2-x,1/2-y,-z
1/2+x,1/2-y,1/2+z
loop_
_atom_site_type_symbol
_atom_site_label
_atom_site_fract_x
_atom_site_fract_y
_atom_site_fract_z
Si Si1 0.960680 0.950521 0.074044
Si Si2 0.166890 0.056962 0.308075
Si Si3 0.467867 0.937634 0.378187
Si Si4 0.746694 0.317374 0.145328
Si Si5 0.025696 0.305649 0.971512
O O1 0.120580 0.921037 0.142335
O O2 0.888195 0.813102 0.048479
O O3 0.857937 0.035126 0.108142
O O4 0.000000 0.000000 0.000000
O O5 0.308304 0.968814 0.312642
O O6 0.000000 0.032599 0.250000
O O7 0.215141 0.198998 0.297511
O O8 0.598469 0.880117 0.351630
O O9 0.440413 0.843133 0.440453
O O10 0.527891 0.068839 0.423335
O O11 0.647586 0.248595 0.063880
#
# Coordination Sequence:
#
# PCOD9260517 Si02
#       5
#     8   8   8   8   8
#     4  10  22  39  64  94 125 150 207 258 301 364
#     4  11  25  42  59  88 127 168 204 247 304 369
#     4  10  18  37  65  86 123 164 197 253 310 358
#     4   9  21  40  62  87 123 159 202 251 309 363
#     4   8  19  33  60  92 125 144 204 251 311 355
#
# _framework density 23.263991000000001
#
# number of rings (size 3 to 8) (size 9 to 14) (size 15 to 20)
#    1.200    1.200    0.000    1.800    8.400    2.400 
#    3.600    0.000    0.000    0.000    0.000    0.000 
#    0.000    0.000    0.000    0.000    0.000    0.000 
#
# Total GULP energy -111479.333043 kJ/mol
# GULP energy per Si atom -5573.966652 kJ/mol
# Density = 2.321104 g / cm^3
# Si number density = 23.263991 Si / 1000 Ang^3
#
#
#
# Elastic Constant Matrix: (Units=GPa)
#
#
# Indices 1 2 3 4 5 6 
#
# 1 91.6903 37.3090 10.1453 0.0000 25.5149 0.0000
# 2 37.3090 65.9903 14.5961 0.0000 7.7742 0.0000
# 3 10.1453 14.5961 53.6460 0.0000 21.0903 0.0000
# 4 0.0000 0.0000 0.0000 12.6459 0.0000 16.8467
# 5 25.5149 7.7742 21.0903 0.0000 33.7511 0.0000
# 6 0.0000 0.0000 0.0000 16.8467 0.0000 48.4132
#
#
#
# Elastic Compliance Matrix: (Units=1/GPa)
#
#
# Indices 1 2 3 4 5 6 
#
# 1 0.018467 -0.009801 0.005005 0.000000 -0.014831 0.000000
# 2 -0.009801 0.021368 -0.006546 0.000000 0.006578 0.000000
# 3 0.005005 -0.006546 0.027004 0.000000 -0.019150 0.000000
# 4 0.000000 0.000000 0.000000 0.147413 0.000000 -0.051296
# 5 -0.014831 0.006578 -0.019150 0.000000 0.051291 0.000000
# 6 0.000000 0.000000 0.000000 -0.051296 0.000000 0.038505
#
#
# Mechanical properties :
#
#
# Convention : Reuss Voigt Hill
#
# Bulk Modulus (GPa) = 22.64793 37.26971 29.95882
# Shear Modulus (GPa) = 14.64339 28.91380 21.77860
#
# Velocity S-wave (km/s) = 2.51160 3.52924 3.06298
# Velocity P-wave (km/s) = 4.26229 5.71511 5.04131
#
# Compressibility (1/GPa) = 0.04415414
#
# Stress axis : x y z
#
# Youngs Moduli (GPa) = 54.14941 46.79940 37.03183
#
# Poissons Ratio (x) = 0.45867 -0.18533
# Poissons Ratio (y) = 0.53070 0.24242
# Poissons Ratio (z) = -0.27100 0.30636
#
# Static dielectric constant tensor:
#      x y z
#    x 1.857600 0.000000 0.050260 
#    y 0.000000 1.929460 0.000000 
#    z 0.050260 0.000000 1.972350 
# 
# From -- ./inp_files/263346.got.cif
#   From: 2010.05.17/outbox.cif.g08.bks.cpg/sg15_132_cif.got.tgz:263346.got - 2010.06.03 18:47:42.
