data_PCOD9260590
_publ_section_title
;
Structure prediction by ZEFSAII (Michael W. Deem and Ramdas Pophale) SiO2 
 PCOD9260590
Probable space group: C 2/C
;
_chemical_formula_sum "Si O2"
_cell_formula_units_Z 36
_cell_length_a 22.056193
_cell_length_b 17.280100
_cell_length_c 13.324640
_cell_angle_alpha 90.000000
_cell_angle_beta 158.343146
_cell_angle_gamma 90.000000
_cell_volume 1874.191411
_symmetry_space_group_name_H-M "C 2/C"
_symmetry_group_IT_number 15
_symmetry_cell_setting 'monoclinic'
loop_
_space_group_symop_operation_xyz
x,y,z
-x,y,1/2-z
-x,-y,-z
x,-y,1/2+z
1/2+x,1/2+y,z
1/2-x,1/2+y,1/2-z
1/2-x,1/2-y,-z
1/2+x,1/2-y,1/2+z
loop_
_atom_site_type_symbol
_atom_site_label
_atom_site_fract_x
_atom_site_fract_y
_atom_site_fract_z
Si Si1 0.295207 0.833216 0.113529
Si Si2 0.224839 0.070877 0.309161
Si Si3 0.885385 0.945550 0.223727
Si Si4 0.597713 0.919453 0.629245
Si Si5 0.500000 0.422163 0.750000
O O1 0.469735 0.848711 0.434213
O O2 0.250000 0.750000 0.000000
O O3 0.297497 0.885019 0.016057
O O4 0.157176 0.866994 0.976999
O O5 0.328624 0.075154 0.368759
O O6 0.204177 0.983818 0.319290
O O7 0.041388 0.102785 0.001244
O O8 0.250436 0.912356 0.560037
O O9 0.973733 0.017315 0.300633
O O10 0.500000 0.000000 0.500000
#
# Coordination Sequence:
#
# PCOD9260590 Si02
#       5
#     8   8   8   8   4
#     4  11  25  37  57  86 121 166 198 241 302 373
#     4  10  20  35  58  89 118 156 189 244 303 353
#     4  10  19  35  61  89 119 147 192 255 307 336
#     4  12  20  36  59  93 117 148 204 255 290 355
#     4  10  18  38  54  82 124 144 192 254 298 342
#
# _framework density 19.208283000000002
#
# number of rings (size 3 to 8) (size 9 to 14) (size 15 to 20)
#    0.000    1.333    6.667    0.667    3.111    0.000 
#    0.000    1.111    0.000    0.000    0.000    0.000 
#    0.000    0.000    0.000    0.000    0.000    0.000 
#
# Total GULP energy -100275.427182 kJ/mol
# GULP energy per Si atom -5570.857066 kJ/mol
# Density = 1.916456 g / cm^3
# Si number density = 19.208283 Si / 1000 Ang^3
#
#
#
# Elastic Constant Matrix: (Units=GPa)
#
#
# Indices 1 2 3 4 5 6 
#
# 1 68.4351 -7.1758 52.4698 0.0000 5.5549 0.0000
# 2 -7.1758 40.5265 29.5436 0.0000 0.9834 0.0000
# 3 52.4698 29.5436 149.0168 0.0000 -9.1942 0.0000
# 4 0.0000 0.0000 0.0000 21.8045 0.0000 -3.8175
# 5 5.5549 0.9834 -9.1942 0.0000 31.4090 0.0000
# 6 0.0000 0.0000 0.0000 -3.8175 0.0000 10.5758
#
#
#
# Elastic Compliance Matrix: (Units=1/GPa)
#
#
# Indices 1 2 3 4 5 6 
#
# 1 0.026568 0.014188 -0.012715 0.000000 -0.008865 0.000000
# 2 0.014188 0.036635 -0.012714 0.000000 -0.007378 0.000000
# 3 -0.012715 -0.012714 0.014127 0.000000 0.006782 0.000000
# 4 0.000000 0.000000 0.000000 0.048956 0.000000 0.017671
# 5 -0.008865 -0.007378 0.006782 0.000000 0.035622 0.000000
# 6 0.000000 0.000000 0.000000 0.017671 0.000000 0.100934
#
#
# Mechanical properties :
#
#
# Convention : Reuss Voigt Hill
#
# Bulk Modulus (GPa) = 18.23192 45.29484 31.76338
# Shear Modulus (GPa) = 16.46871 24.96726 20.71799
#
# Velocity S-wave (km/s) = 2.93127 3.60921 3.28776
# Velocity P-wave (km/s) = 4.57917 6.40317 5.56639
#
# Compressibility (1/GPa) = 0.05484885
#
# Stress axis : x y z
#
# Youngs Moduli (GPa) = 37.63899 27.29624 70.78785
#
# Poissons Ratio (x) = -0.38729 0.90005
# Poissons Ratio (y) = -0.53404 0.90001
# Poissons Ratio (z) = 0.47857 0.34705
#
# Static dielectric constant tensor:
#      x y z
#    x 1.681680 0.000000 0.009590 
#    y 0.000000 1.703370 0.000000 
#    z 0.009590 0.000000 1.742970 
# 
# From -- ./inp_files/144836.got.cif
#   From: 2010.05.17/outbox.cif.g08.bks.cpg/sg15_73_cif.got.tgz:144836.got - 2010.06.03 18:47:42.
