data_PCOD9260342
_publ_section_title
;
Structure prediction by ZEFSAII (Michael W. Deem and Ramdas Pophale) SiO2 
 PCOD9260342
Probable space group: C 2/C
;
_chemical_formula_sum "Si O2"
_cell_formula_units_Z 44
_cell_length_a 12.071473
_cell_length_b 16.078168
_cell_length_c 15.369007
_cell_angle_alpha 90.000000
_cell_angle_beta 145.896205
_cell_angle_gamma 90.000000
_cell_volume 1672.508844
_symmetry_space_group_name_H-M "C 2/C"
_symmetry_group_IT_number 15
_symmetry_cell_setting 'monoclinic'
loop_
_space_group_symop_operation_xyz
x,y,z
-x,y,1/2-z
-x,-y,-z
x,-y,1/2+z
1/2+x,1/2+y,z
1/2-x,1/2+y,1/2-z
1/2-x,1/2-y,-z
1/2+x,1/2-y,1/2+z
loop_
_atom_site_type_symbol
_atom_site_label
_atom_site_fract_x
_atom_site_fract_y
_atom_site_fract_z
Si Si1 0.987526 0.158688 0.107727
Si Si2 0.488868 0.522866 0.633957
Si Si3 0.828186 0.683490 0.450023
Si Si4 0.000000 0.780325 0.250000
Si Si5 0.075271 0.473693 0.143287
Si Si6 0.842633 0.367221 0.542546
O O1 0.214488 0.155304 0.288260
O O2 0.851565 0.189376 0.099228
O O3 0.916127 0.064967 0.048771
O O4 0.941363 0.230091 0.008884
O O5 0.500000 0.510011 0.750000
O O6 0.693743 0.535574 0.718917
O O7 0.338834 0.597323 0.517614
O O8 0.971588 0.615415 0.587237
O O9 0.045955 0.714985 0.355987
O O10 0.199425 0.835924 0.369347
O O11 0.986089 0.552875 0.136062
O O12 0.000000 0.500000 0.000000
#
# Coordination Sequence:
#
# PCOD9260342 Si02
#       6
#     8   8   8   4   8   8
#     4  10  18  37  57  86 121 156 196 254 303 372
#     4  12  20  40  67  90 125 171 213 255 320 395
#     4  10  20  35  59  88 118 158 202 245 311 371
#     4  10  24  44  72  90 130 170 220 282 324 370
#     4  12  20  38  68  94 123 172 216 257 320 395
#     4  11  22  46  66  96 127 170 223 271 325 389
#
# _framework density 26.307784999999999
#
# number of rings (size 3 to 8) (size 9 to 14) (size 15 to 20)
#    0.000    1.091    8.182    0.000    0.000    0.000 
#   13.091    0.909    0.000    0.000    0.000    0.000 
#    0.000    0.000    0.000    0.000    0.000    0.000 
#
# Total GULP energy -122684.770423 kJ/mol
# GULP energy per Si atom -5576.580474 kJ/mol
# Density = 2.624791 g / cm^3
# Si number density = 26.307785 Si / 1000 Ang^3
#
#
#
# Elastic Constant Matrix: (Units=GPa)
#
#
# Indices 1 2 3 4 5 6 
#
# 1 60.4971 20.6800 51.4585 -0.0003 23.8029 0.0002
# 2 20.6800 195.8232 53.5592 -0.0038 19.9929 0.0011
# 3 51.4585 53.5592 95.4700 -0.0032 27.3433 0.0026
# 4 -0.0003 -0.0038 -0.0032 35.0465 0.0004 -6.6114
# 5 23.8029 19.9929 27.3433 0.0004 39.3122 0.0007
# 6 0.0002 0.0011 0.0026 -6.6114 0.0007 5.4359
#
#
#
# Elastic Compliance Matrix: (Units=1/GPa)
#
#
# Indices 1 2 3 4 5 6 
#
# 1 0.033783 0.001950 -0.016434 0.000001 -0.010016 0.000009
# 2 0.001950 0.006170 -0.004090 0.000001 -0.001473 0.000002
# 3 -0.016434 -0.004090 0.022705 0.000000 -0.003761 -0.000009
# 4 0.000001 0.000001 0.000000 0.037030 -0.000002 0.045038
# 5 -0.010016 -0.001473 -0.003761 -0.000002 0.034867 -0.000004
# 6 0.000009 0.000002 -0.000009 0.045038 -0.000004 0.238741
#
#
# Mechanical properties :
#
#
# Convention : Reuss Voigt Hill
#
# Bulk Modulus (GPa) = 39.20376 67.02062 53.11219
# Shear Modulus (GPa) = 11.93468 31.03174 21.48321
#
# Velocity S-wave (km/s) = 2.13223 3.43821 2.86074
# Velocity P-wave (km/s) = 4.58216 6.42593 5.58071
#
# Compressibility (1/GPa) = 0.02550776
#
# Stress axis : x y z
#
# Youngs Moduli (GPa) = 29.60068 162.07718 44.04410
#
# Poissons Ratio (x) = -0.31603 0.72384
# Poissons Ratio (y) = -0.05772 0.18015
# Poissons Ratio (z) = 0.48647 0.66295
#
# Static dielectric constant tensor:
#      x y z
#    x 2.117050 0.000000 -0.186330 
#    y 0.000000 2.202400 0.000010 
#    z -0.186330 0.000010 2.182260 
# 
# From -- ./inp_files/62833.got.cif
#   From: 2010.05.17/outbox.cif.g08.bks.cpg/sg15_32_cif.got.tgz:62833.got - 2010.06.03 18:47:42.
