data_PCOD9260078
_publ_section_title
;
Structure prediction by ZEFSAII (Michael W. Deem and Ramdas Pophale) SiO2 
 PCOD9260078
Probable space group: C 2/C
;
_chemical_formula_sum "Si O2"
_cell_formula_units_Z 36
_cell_length_a 14.314191
_cell_length_b 11.588614
_cell_length_c 21.500850
_cell_angle_alpha 90.000000
_cell_angle_beta 156.891894
_cell_angle_gamma 90.000000
_cell_volume 1399.772162
_symmetry_space_group_name_H-M "C 2/C"
_symmetry_group_IT_number 15
_symmetry_cell_setting 'monoclinic'
loop_
_space_group_symop_operation_xyz
x,y,z
-x,y,1/2-z
-x,-y,-z
x,-y,1/2+z
1/2+x,1/2+y,z
1/2-x,1/2+y,1/2-z
1/2-x,1/2-y,-z
1/2+x,1/2-y,1/2+z
loop_
_atom_site_type_symbol
_atom_site_label
_atom_site_fract_x
_atom_site_fract_y
_atom_site_fract_z
Si Si1 0.550182 0.994421 0.847148
Si Si2 0.500000 0.396378 0.750000
Si Si3 0.678606 0.327529 0.165416
Si Si4 0.605811 0.705559 0.485043
Si Si5 0.046835 0.884194 0.343789
O O1 0.500000 0.937152 0.750000
O O2 0.322282 0.054878 0.737704
O O3 0.734482 0.096987 0.938243
O O4 0.678587 0.914801 0.975713
O O5 0.284743 0.315190 0.597234
O O6 0.576326 0.490611 0.744847
O O7 0.534059 0.305896 0.013699
O O8 0.541291 0.336673 0.145339
O O9 0.886481 0.234591 0.306502
O O10 0.000000 0.821514 0.250000
#
# Coordination Sequence:
#
# PCOD9260078 Si02
#       5
#     8   4   8   8   8
#     4  10  20  35  62  91 120 147 198 254 287 344
#     4  10  18  36  62  84 116 150 194 246 272 352
#     4  11  21  38  61  90 116 160 193 248 294 347
#     4  11  20  35  64  91 113 152 205 243 287 342
#     4  10  23  37  56  87 129 152 194 238 304 351
#
# _framework density 25.718471000000001
#
# number of rings (size 3 to 8) (size 9 to 14) (size 15 to 20)
#    0.667    0.889    5.556    2.000    0.000    7.111 
#    0.000    3.333    0.000    0.000    0.000    0.000 
#    0.000    0.000    0.000    0.000    0.000    0.000 
#
# Total GULP energy -100657.280311 kJ/mol
# GULP energy per Si atom -5592.071128 kJ/mol
# Density = 2.565993 g / cm^3
# Si number density = 25.718471 Si / 1000 Ang^3
#
#
#
# Elastic Constant Matrix: (Units=GPa)
#
#
# Indices 1 2 3 4 5 6 
#
# 1 136.0286 19.3822 9.2091 -0.0034 -44.4638 -0.0083
# 2 19.3822 95.5399 8.7021 0.0079 -3.1242 -0.0003
# 3 9.2091 8.7021 80.4834 0.0291 -45.0398 -0.0030
# 4 -0.0034 0.0079 0.0291 2.6995 0.0050 -1.4274
# 5 -44.4638 -3.1242 -45.0398 0.0050 48.4081 -0.0069
# 6 -0.0083 -0.0003 -0.0030 -1.4274 -0.0069 22.9363
#
#
#
# Elastic Compliance Matrix: (Units=1/GPa)
#
#
# Indices 1 2 3 4 5 6 
#
# 1 0.015735 -0.003555 0.013652 -0.000164 0.026925 0.000005
# 2 -0.003555 0.011389 -0.004675 0.000024 -0.006880 -0.000002
# 3 0.013652 -0.004675 0.038006 -0.000470 0.047599 -0.000005
# 4 -0.000164 0.000024 -0.000470 0.383049 -0.000622 0.023838
# 5 0.026925 -0.006880 0.047599 -0.000622 0.089232 0.000004
# 6 0.000005 -0.000002 -0.000005 0.023838 0.000004 0.045082
#
#
# Mechanical properties :
#
#
# Convention : Reuss Voigt Hill
#
# Bulk Modulus (GPa) = 13.16252 42.95985 28.06119
# Shear Modulus (GPa) = 8.37558 33.12601 20.75080
#
# Velocity S-wave (km/s) = 1.80657 3.59280 2.84358
# Velocity P-wave (km/s) = 3.07907 5.82676 4.66003
#
# Compressibility (1/GPa) = 0.07597327
#
# Stress axis : x y z
#
# Youngs Moduli (GPa) = 63.55347 87.80516 26.31198
#
# Poissons Ratio (x) = 0.31215 -0.35921
# Poissons Ratio (y) = 0.22594 0.12300
# Poissons Ratio (z) = -0.86762 0.41046
#
# Static dielectric constant tensor:
#      x y z
#    x 2.068830 0.000000 -0.028160 
#    y 0.000000 2.065020 -0.000010 
#    z -0.028160 -0.000010 2.037770 
# 
# From -- ./inp_files/243867.got.cif
#   From: 2010.05.17/outbox.cif.g08.bks.cpg/sg15_122_cif.got.tgz:243867.got - 2010.06.03 18:47:42.
