data_PCOD9260486
_publ_section_title
;
Structure prediction by ZEFSAII (Michael W. Deem and Ramdas Pophale) SiO2 
 PCOD9260486
Probable space group: C 2/C
;
_chemical_formula_sum "Si O2"
_cell_formula_units_Z 48
_cell_length_a 13.739384
_cell_length_b 15.876309
_cell_length_c 9.019604
_cell_angle_alpha 90.000000
_cell_angle_beta 82.078216
_cell_angle_gamma 90.000000
_cell_volume 1948.677452
_symmetry_space_group_name_H-M "C 2/C"
_symmetry_group_IT_number 15
_symmetry_cell_setting 'monoclinic'
loop_
_space_group_symop_operation_xyz
x,y,z
-x,y,1/2-z
-x,-y,-z
x,-y,1/2+z
1/2+x,1/2+y,z
1/2-x,1/2+y,1/2-z
1/2-x,1/2-y,-z
1/2+x,1/2-y,1/2+z
loop_
_atom_site_type_symbol
_atom_site_label
_atom_site_fract_x
_atom_site_fract_y
_atom_site_fract_z
Si Si1 0.506527 0.199195 0.582165
Si Si2 0.716426 0.068901 0.246783
Si Si3 0.662218 0.336186 0.564645
Si Si4 0.000000 0.955419 0.750000
Si Si5 0.153995 0.082428 0.765989
Si Si6 0.335645 0.316903 0.514150
Si Si7 0.000000 0.613162 0.250000
O O1 0.500000 0.156262 0.750000
O O2 0.609996 0.247178 0.571044
O O3 0.418778 0.269650 0.591364
O O4 0.498432 0.157895 0.416939
O O5 0.743990 0.143151 0.355512
O O6 0.602953 0.064661 0.232818
O O7 0.757865 0.980567 0.295984
O O8 0.782732 0.102588 0.097810
O O9 0.576986 0.399236 0.644476
O O10 0.687787 0.363213 0.395187
O O11 0.066479 0.019632 0.829590
O O12 0.120443 0.145751 0.645468
O O13 0.250000 0.250000 0.500000
#
# Coordination Sequence:
#
# PCOD9260486 Si02
#       7
#     8   8   8   4   8   8   4
#     4  12  23  44  72 110 145 184 237 305 375 440
#     4  11  24  46  66 101 146 183 247 298 355 444
#     4  11  21  38  69 102 136 179 233 298 370 437
#     4  10  18  37  64 108 147 168 222 300 380 447
#     4  11  23  40  71 103 139 192 233 296 374 432
#     4  12  24  45  70 102 146 188 238 304 367 431
#     4  12  28  45  72 100 147 202 248 298 352 429
#
# _framework density 24.632090000000002
#
# number of rings (size 3 to 8) (size 9 to 14) (size 15 to 20)
#    0.000    0.667    4.167    5.500    0.000    2.000 
#    0.000    3.333    1.833    0.000    0.000    0.000 
#    0.000    0.000    0.000    0.000    0.000    0.000 
#
# Total GULP energy -134016.379371 kJ/mol
# GULP energy per Si atom -5584.015807 kJ/mol
# Density = 2.457603 g / cm^3
# Si number density = 24.632090 Si / 1000 Ang^3
#
#
#
# Elastic Constant Matrix: (Units=GPa)
#
#
# Indices 1 2 3 4 5 6 
#
# 1 114.8318 20.1502 16.4741 0.0000 15.2637 0.0000
# 2 20.1502 45.7882 27.8971 0.0000 -1.1771 0.0000
# 3 16.4741 27.8971 139.6440 0.0000 14.3339 0.0000
# 4 0.0000 0.0000 0.0000 17.4013 0.0000 21.8976
# 5 15.2637 -1.1771 14.3339 0.0000 32.3801 0.0000
# 6 0.0000 0.0000 0.0000 21.8976 0.0000 111.4136
#
#
#
# Elastic Compliance Matrix: (Units=1/GPa)
#
#
# Indices 1 2 3 4 5 6 
#
# 1 0.010185 -0.004782 0.000277 0.000000 -0.005098 0.000000
# 2 -0.004782 0.027443 -0.005502 0.000000 0.005687 0.000000
# 3 0.000277 -0.005502 0.008655 0.000000 -0.004162 0.000000
# 4 0.000000 0.000000 0.000000 0.076350 0.000000 -0.015006
# 5 -0.005098 0.005687 -0.004162 0.000000 0.035335 0.000000
# 6 0.000000 0.000000 0.000000 -0.015006 0.000000 0.011925
#
#
# Mechanical properties :
#
#
# Convention : Reuss Voigt Hill
#
# Bulk Modulus (GPa) = 38.06833 47.70075 42.88454
# Shear Modulus (GPa) = 25.16819 47.95520 36.56169
#
# Velocity S-wave (km/s) = 3.19997 4.41711 3.85686
# Velocity P-wave (km/s) = 5.39828 6.73957 6.10587
#
# Compressibility (1/GPa) = 0.02626856
#
# Stress axis : x y z
#
# Youngs Moduli (GPa) = 98.17977 36.43982 115.54398
#
# Poissons Ratio (x) = 0.17426 -0.03201
# Poissons Ratio (y) = 0.46951 0.63571
# Poissons Ratio (z) = -0.02720 0.20049
#
# Static dielectric constant tensor:
#      x y z
#    x 1.936610 0.000000 -0.007060 
#    y 0.000000 1.944080 0.000000 
#    z -0.007060 0.000000 2.033800 
# 
# From -- ./inp_files/39690.got.cif
#   From: 2010.05.17/outbox.cif.g08.bks.cpg/sg15_20_cif.got.tgz:39690.got - 2010.06.03 18:47:42.
