data_PCOD9260867
_publ_section_title
;
Structure prediction by ZEFSAII (Michael W. Deem and Ramdas Pophale) SiO2 
 PCOD9260867
Probable space group: C 2/C
;
_chemical_formula_sum "Si O2"
_cell_formula_units_Z 52
_cell_length_a 16.607186
_cell_length_b 8.238084
_cell_length_c 25.023815
_cell_angle_alpha 90.000000
_cell_angle_beta 137.752841
_cell_angle_gamma 90.000000
_cell_volume 2301.751015
_symmetry_space_group_name_H-M "C 2/C"
_symmetry_group_IT_number 15
_symmetry_cell_setting 'monoclinic'
loop_
_space_group_symop_operation_xyz
x,y,z
-x,y,1/2-z
-x,-y,-z
x,-y,1/2+z
1/2+x,1/2+y,z
1/2-x,1/2+y,1/2-z
1/2-x,1/2-y,-z
1/2+x,1/2-y,1/2+z
loop_
_atom_site_type_symbol
_atom_site_label
_atom_site_fract_x
_atom_site_fract_y
_atom_site_fract_z
Si Si1 0.957579 0.390879 0.060717
Si Si2 0.114249 0.884841 0.053417
Si Si3 0.019513 0.183996 0.823099
Si Si4 0.321535 0.959305 0.585578
Si Si5 0.090712 0.146840 0.205085
Si Si6 0.500000 0.856658 0.250000
Si Si7 0.139182 0.328503 0.664671
O O1 0.038731 0.268035 0.135652
O O2 0.045152 0.542790 0.093898
O O3 0.845187 0.457260 0.040188
O O4 0.911856 0.283646 0.989775
O O5 0.207112 0.984656 0.062267
O O6 0.147473 0.827893 0.129726
O O7 0.000000 0.000000 0.000000
O O8 0.917817 0.280773 0.806344
O O9 0.000000 0.186171 0.750000
O O10 0.145554 0.268926 0.899631
O O11 0.000562 0.001897 0.834109
O O12 0.429087 0.033094 0.674231
O O13 0.228166 0.099923 0.262975
O O14 0.087586 0.241797 0.259792
#
# Coordination Sequence:
#
# PCOD9260867 Si02
#       7
#     8   8   8   8   8   4   8
#     4  10  24  43  65  95 132 181 227 265 340 405
#     4  12  25  44  66  98 135 178 222 278 338 405
#     4  11  23  39  64 102 135 166 224 282 339 393
#     4  10  22  42  67  90 134 174 217 273 331 407
#     4  11  21  40  67 103 129 173 226 278 331 396
#     4  10  18  38  66  94 126 168 210 266 334 390
#     4  11  24  43  69  96 138 178 225 283 333 402
#
# _framework density 22.591495999999999
#
# number of rings (size 3 to 8) (size 9 to 14) (size 15 to 20)
#    0.000    1.231    3.077    2.769    0.000    3.692 
#    0.000    8.462    0.000    0.000    0.000    0.000 
#    0.000    0.000    0.000    0.000    0.000    0.000 
#
# Total GULP energy -145353.854148 kJ/mol
# GULP energy per Si atom -5590.532852 kJ/mol
# Density = 2.254008 g / cm^3
# Si number density = 22.591496 Si / 1000 Ang^3
#
#
#
# Elastic Constant Matrix: (Units=GPa)
#
#
# Indices 1 2 3 4 5 6 
#
# 1 164.7602 51.9640 49.2739 0.0000 15.0028 0.0000
# 2 51.9640 100.7838 12.5609 0.0000 12.2129 0.0000
# 3 49.2739 12.5609 35.1428 0.0000 0.7647 0.0000
# 4 0.0000 0.0000 0.0000 34.2915 0.0000 -0.6363
# 5 15.0028 12.2129 0.7647 0.0000 36.1964 0.0000
# 6 0.0000 0.0000 0.0000 -0.6363 0.0000 27.0093
#
#
#
# Elastic Compliance Matrix: (Units=1/GPa)
#
#
# Indices 1 2 3 4 5 6 
#
# 1 0.012388 -0.003991 -0.015868 0.000000 -0.003453 0.000000
# 2 -0.003991 0.012114 0.001320 0.000000 -0.002461 0.000000
# 3 -0.015868 0.001320 0.050121 0.000000 0.005073 0.000000
# 4 0.000000 0.000000 0.000000 0.029174 0.000000 0.000687
# 5 -0.003453 -0.002461 0.005073 0.000000 0.029781 0.000000
# 6 0.000000 0.000000 0.000000 0.000687 0.000000 0.037040
#
#
# Mechanical properties :
#
#
# Convention : Reuss Voigt Hill
#
# Bulk Modulus (GPa) = 26.63456 58.69826 42.66641
# Shear Modulus (GPa) = 22.70533 31.95864 27.33199
#
# Velocity S-wave (km/s) = 3.17367 3.76524 3.48204
# Velocity P-wave (km/s) = 5.02442 6.70385 5.92395
#
# Compressibility (1/GPa) = 0.03754520
#
# Stress axis : x y z
#
# Youngs Moduli (GPa) = 80.72257 82.55038 19.95159
#
# Poissons Ratio (x) = 0.32948 0.31659
# Poissons Ratio (y) = 0.32219 -0.02634
# Poissons Ratio (z) = 1.28088 -0.10896
#
# Static dielectric constant tensor:
#      x y z
#    x 1.829640 0.000000 -0.012340 
#    y 0.000000 1.851620 0.000000 
#    z -0.012340 0.000000 1.818160 
# 
# From -- ./inp_files/295292.got.cif
#   From: 2010.05.17/outbox.cif.g08.bks.cpg/sg15_148_cif.got.tgz:295292.got - 2010.06.03 18:47:42.
