data_PCOD9260114
_publ_section_title
;
Structure prediction by ZEFSAII (Michael W. Deem and Ramdas Pophale) SiO2 
 PCOD9260114
Probable space group: C 2/C
;
_chemical_formula_sum "Si O2"
_cell_formula_units_Z 52
_cell_length_a 16.626258
_cell_length_b 9.705751
_cell_length_c 27.552721
_cell_angle_alpha 90.000000
_cell_angle_beta 147.869162
_cell_angle_gamma 90.000000
_cell_volume 2364.726662
_symmetry_space_group_name_H-M "C 2/C"
_symmetry_group_IT_number 15
_symmetry_cell_setting 'monoclinic'
loop_
_space_group_symop_operation_xyz
x,y,z
-x,y,1/2-z
-x,-y,-z
x,-y,1/2+z
1/2+x,1/2+y,z
1/2-x,1/2+y,1/2-z
1/2-x,1/2-y,-z
1/2+x,1/2-y,1/2+z
loop_
_atom_site_type_symbol
_atom_site_label
_atom_site_fract_x
_atom_site_fract_y
_atom_site_fract_z
Si Si1 0.323464 0.215945 0.384135
Si Si2 0.633456 0.027433 0.175251
Si Si3 0.000000 0.388735 0.750000
Si Si4 0.592347 0.756942 0.891315
Si Si5 0.705561 0.683316 0.528752
Si Si6 0.950215 0.630848 0.787852
Si Si7 0.446791 0.463280 0.377067
O O1 0.362625 0.072724 0.378177
O O2 0.348470 0.221699 0.454199
O O3 0.146419 0.245408 0.282554
O O4 0.403948 0.345272 0.395827
O O5 0.506610 0.125634 0.133312
O O6 0.585902 0.880594 0.173193
O O7 0.798099 0.044961 0.283901
O O8 0.095684 0.296381 0.836444
O O9 0.097697 0.491830 0.765877
O O10 0.503848 0.617869 0.858482
O O11 0.750000 0.750000 0.000000
O O12 0.750000 0.750000 0.500000
O O13 0.582755 0.562478 0.461937
O O14 0.871842 0.631106 0.628807
#
# Coordination Sequence:
#
# PCOD9260114 Si02
#       7
#     8   8   4   8   8   8   8
#     4  10  20  38  59  86 115 163 201 254 311 378
#     4   9  20  38  59  85 122 156 198 262 316 369
#     4  10  18  36  62  92 114 164 212 254 312 368
#     4  10  21  38  64  94 124 162 218 268 309 387
#     4  12  23  37  59  93 119 161 211 255 308 385
#     4  10  19  36  64  82 117 161 209 251 309 375
#     4  10  21  38  61  85 125 160 207 259 322 371
#
# _framework density 21.989856
#
# number of rings (size 3 to 8) (size 9 to 14) (size 15 to 20)
#    0.000    1.846    1.538    3.231    0.000    0.000 
#   11.077    0.769    0.000    0.000    0.000    0.000 
#    0.000    0.000    0.000    0.000    0.000    0.000 
#
# Total GULP energy -144808.103098 kJ/mol
# GULP energy per Si atom -5569.542427 kJ/mol
# Density = 2.193981 g / cm^3
# Si number density = 21.989856 Si / 1000 Ang^3
#
#
#
# Elastic Constant Matrix: (Units=GPa)
#
#
# Indices 1 2 3 4 5 6 
#
# 1 114.6704 24.3840 39.6273 0.0000 -28.2698 0.0000
# 2 24.3840 18.9371 10.9713 0.0000 -11.1325 0.0000
# 3 39.6273 10.9713 75.6778 0.0000 0.0468 0.0000
# 4 0.0000 0.0000 0.0000 25.2619 0.0000 -12.0639
# 5 -28.2698 -11.1325 0.0468 0.0000 57.1352 0.0000
# 6 0.0000 0.0000 0.0000 -12.0639 0.0000 43.4643
#
#
#
# Elastic Compliance Matrix: (Units=1/GPa)
#
#
# Indices 1 2 3 4 5 6 
#
# 1 0.014586 -0.012613 -0.005812 0.000000 0.004764 0.000000
# 2 -0.012613 0.076806 -0.004536 0.000000 0.008728 0.000000
# 3 -0.005812 -0.004536 0.016917 0.000000 -0.003773 0.000000
# 4 0.000000 0.000000 0.000000 0.045634 0.000000 0.012666
# 5 0.004764 0.008728 -0.003773 0.000000 0.021563 0.000000
# 6 0.000000 0.000000 0.000000 0.012666 0.000000 0.026523
#
#
# Mechanical properties :
#
#
# Convention : Reuss Voigt Hill
#
# Bulk Modulus (GPa) = 16.02884 39.91671 27.97278
# Shear Modulus (GPa) = 18.60489 34.12580 26.36534
#
# Velocity S-wave (km/s) = 2.91188 3.94368 3.46638
# Velocity P-wave (km/s) = 4.31398 6.23927 5.36372
#
# Compressibility (1/GPa) = 0.06238756
#
# Stress axis : x y z
#
# Youngs Moduli (GPa) = 68.56031 13.01977 59.11185
#
# Poissons Ratio (x) = 0.16422 0.34355
# Poissons Ratio (y) = 0.86477 0.26811
# Poissons Ratio (z) = 0.39846 0.05905
#
# Static dielectric constant tensor:
#      x y z
#    x 1.954190 0.000000 -0.056570 
#    y 0.000000 1.915870 0.000000 
#    z -0.056570 0.000000 1.872010 
# 
# From -- ./inp_files/298889.got.cif
#   From: 2010.05.17/outbox.cif.g08.bks.cpg/sg15_150_cif.got.tgz:298889.got - 2010.06.03 18:47:42.
