data_PCOD9260553
_publ_section_title
;
Structure prediction by ZEFSAII (Michael W. Deem and Ramdas Pophale) SiO2 
 PCOD9260553
Probable space group: C 2/C
;
_chemical_formula_sum "Si O2"
_cell_formula_units_Z 56
_cell_length_a 12.275152
_cell_length_b 7.430041
_cell_length_c 25.989800
_cell_angle_alpha 90.000000
_cell_angle_beta 77.733831
_cell_angle_gamma 90.000000
_cell_volume 2316.283325
_symmetry_space_group_name_H-M "C 2/C"
_symmetry_group_IT_number 15
_symmetry_cell_setting 'monoclinic'
loop_
_space_group_symop_operation_xyz
x,y,z
-x,y,1/2-z
-x,-y,-z
x,-y,1/2+z
1/2+x,1/2+y,z
1/2-x,1/2+y,1/2-z
1/2-x,1/2-y,-z
1/2+x,1/2-y,1/2+z
loop_
_atom_site_type_symbol
_atom_site_label
_atom_site_fract_x
_atom_site_fract_y
_atom_site_fract_z
Si Si1 0.431992 0.366184 0.094240
Si Si2 0.273981 0.926427 0.308393
Si Si3 0.388557 0.379676 0.739920
Si Si4 0.963353 0.739370 0.622229
Si Si5 0.690523 0.474033 0.980524
Si Si6 0.385388 0.089113 0.382478
Si Si7 0.615440 0.906005 0.471558
O O1 0.323522 0.366130 0.142562
O O2 0.485791 0.564916 0.095738
O O3 0.380723 0.373826 0.041409
O O4 0.518288 0.222523 0.108529
O O5 0.211774 0.989026 0.263226
O O6 0.342050 0.089171 0.328344
O O7 0.353819 0.765223 0.285380
O O8 0.500000 0.472070 0.750000
O O9 0.413213 0.279258 0.683159
O O10 0.886960 0.630437 0.589192
O O11 0.070062 0.614044 0.615351
O O12 0.777960 0.401437 0.928963
O O13 0.618468 0.294145 0.996890
O O14 0.773369 0.507510 0.019787
O O15 0.500000 0.000000 0.500000
#
# Coordination Sequence:
#
# PCOD9260553 Si02
#       7
#     8   8   8   8   8   8   8
#     4   9  22  41  63  96 128 166 211 258 311 377
#     4  10  24  40  63  94 122 166 210 254 325 373
#     4  11  23  41  61  90 126 158 209 263 306 381
#     4  10  21  39  64  89 127 166 203 262 314 361
#     4   9  20  38  63  94 128 167 211 259 313 377
#     4  11  20  42  68  90 128 165 210 265 311 377
#     4  10  18  37  67  88 130 171 202 267 319 360
#
# _framework density 24.176663999999999
#
# number of rings (size 3 to 8) (size 9 to 14) (size 15 to 20)
#    0.000    2.000    2.857    0.857    2.000    2.286 
#    0.000   14.286    0.000    0.000    0.000    0.000 
#    0.000    0.000    0.000    0.000    0.000    0.000 
#
# Total GULP energy -156418.814841 kJ/mol
# GULP energy per Si atom -5586.386244 kJ/mol
# Density = 2.412164 g / cm^3
# Si number density = 24.176664 Si / 1000 Ang^3
#
#
#
# Elastic Constant Matrix: (Units=GPa)
#
#
# Indices 1 2 3 4 5 6 
#
# 1 160.0975 54.8588 16.4628 0.0000 27.5307 0.0000
# 2 54.8588 85.5312 4.5743 0.0000 0.1580 0.0000
# 3 16.4628 4.5743 30.2418 0.0000 18.7635 0.0000
# 4 0.0000 0.0000 0.0000 15.1801 0.0000 5.7413
# 5 27.5307 0.1580 18.7635 0.0000 37.7567 0.0000
# 6 0.0000 0.0000 0.0000 5.7413 0.0000 58.5315
#
#
#
# Elastic Compliance Matrix: (Units=1/GPa)
#
#
# Indices 1 2 3 4 5 6 
#
# 1 0.009525 -0.006099 0.000044 0.000000 -0.006942 0.000000
# 2 -0.006099 0.015730 -0.002570 0.000000 0.005659 0.000000
# 3 0.000044 -0.002570 0.048354 0.000000 -0.024052 0.000000
# 4 0.000000 0.000000 0.000000 0.068414 0.000000 -0.006711
# 5 -0.006942 0.005659 -0.024052 0.000000 0.043476 0.000000
# 6 0.000000 0.000000 0.000000 -0.006711 0.000000 0.017743
#
#
# Mechanical properties :
#
#
# Convention : Reuss Voigt Hill
#
# Bulk Modulus (GPa) = 17.74291 47.51804 32.63048
# Shear Modulus (GPa) = 20.89613 35.62529 28.26071
#
# Velocity S-wave (km/s) = 2.94310 3.84284 3.42266
# Velocity P-wave (km/s) = 4.34787 6.27591 5.39866
#
# Compressibility (1/GPa) = 0.05636053
#
# Stress axis : x y z
#
# Youngs Moduli (GPa) = 104.98415 63.57105 20.68075
#
# Poissons Ratio (x) = 0.38772 -0.00092
# Poissons Ratio (y) = 0.64029 0.05315
# Poissons Ratio (z) = -0.00466 0.16338
#
# Static dielectric constant tensor:
#      x y z
#    x 2.008790 0.000000 0.048290 
#    y 0.000000 1.937040 0.000000 
#    z 0.048290 0.000000 1.978280 
# 
# From -- ./inp_files/309932.got.cif
#   From: 2010.05.17/outbox.cif.g08.bks.cpg/sg15_155_cif.got.tgz:309932.got - 2010.06.03 18:47:42.
