data_PCOD9260456
_publ_section_title
;
Structure prediction by ZEFSAII (Michael W. Deem and Ramdas Pophale) SiO2 
 PCOD9260456
Probable space group: C 2/C
;
_chemical_formula_sum "Si O2"
_cell_formula_units_Z 48
_cell_length_a 31.103594
_cell_length_b 12.976834
_cell_length_c 12.440822
_cell_angle_alpha 90.000000
_cell_angle_beta 25.534651
_cell_angle_gamma 90.000000
_cell_volume 2164.526859
_symmetry_space_group_name_H-M "C 2/C"
_symmetry_group_IT_number 15
_symmetry_cell_setting 'monoclinic'
loop_
_space_group_symop_operation_xyz
x,y,z
-x,y,1/2-z
-x,-y,-z
x,-y,1/2+z
1/2+x,1/2+y,z
1/2-x,1/2+y,1/2-z
1/2-x,1/2-y,-z
1/2+x,1/2-y,1/2+z
loop_
_atom_site_type_symbol
_atom_site_label
_atom_site_fract_x
_atom_site_fract_y
_atom_site_fract_z
Si Si1 0.801337 0.936054 0.694393
Si Si2 0.346881 0.429058 0.819389
Si Si3 0.885686 0.381986 0.525056
Si Si4 0.183262 0.154141 0.883075
Si Si5 0.834854 0.678049 0.361020
Si Si6 0.068855 0.136494 0.772175
O O1 0.778338 0.917689 0.870196
O O2 0.874963 0.856227 0.468805
O O3 0.862313 0.044375 0.550662
O O4 0.699333 0.934921 0.855658
O O5 0.366080 0.546930 0.814955
O O6 0.455606 0.396946 0.530565
O O7 0.313588 0.360423 0.995862
O O8 0.871160 0.259238 0.528691
O O9 0.862241 0.398739 0.704213
O O10 0.000000 0.411370 0.250000
O O11 0.286422 0.147064 0.583170
O O12 0.750000 0.750000 0.500000
O O13 0.924290 0.755697 0.182542
#
# Coordination Sequence:
#
# PCOD9260456 Si02
#       6
#     8   8   8   8   8   8
#     4  11  22  37  64  91 127 157 198 261 315 355
#     4  10  21  34  61  96 125 145 204 254 321 363
#     4  11  23  41  66  89 118 166 216 248 295 371
#     4  10  22  37  64  89 118 165 202 249 303 369
#     4  10  18  37  63  80 117 162 212 235 294 366
#     4  10  19  37  60  92 120 164 194 258 306 368
#
# _framework density 22.175747000000001
#
# number of rings (size 3 to 8) (size 9 to 14) (size 15 to 20)
#    0.000    1.667    3.333    3.500    2.333    3.333 
#    0.000    0.833    3.667    0.000    0.000    0.000 
#    0.000    0.000    0.000    0.000    0.000    0.000 
#
# Total GULP energy -133803.010236 kJ/mol
# GULP energy per Si atom -5575.125426 kJ/mol
# Density = 2.212527 g / cm^3
# Si number density = 22.175747 Si / 1000 Ang^3
#
#
#
# Elastic Constant Matrix: (Units=GPa)
#
#
# Indices 1 2 3 4 5 6 
#
# 1 111.2121 22.4979 59.5781 0.0000 34.7893 0.0000
# 2 22.4979 47.5032 3.2092 0.0000 1.0444 0.0000
# 3 59.5781 3.2092 128.4073 0.0000 16.1409 0.0000
# 4 0.0000 0.0000 0.0000 27.4049 0.0000 5.7012
# 5 34.7893 1.0444 16.1409 0.0000 41.4966 0.0000
# 6 0.0000 0.0000 0.0000 5.7012 0.0000 21.7725
#
#
#
# Elastic Compliance Matrix: (Units=1/GPa)
#
#
# Indices 1 2 3 4 5 6 
#
# 1 0.017932 -0.007778 -0.006583 0.000000 -0.012278 0.000000
# 2 -0.007778 0.024465 0.002371 0.000000 0.004983 0.000000
# 3 -0.006583 0.002371 0.010615 0.000000 0.001330 0.000000
# 4 0.000000 0.000000 0.000000 0.038592 0.000000 -0.010106
# 5 -0.012278 0.004983 0.001330 0.000000 0.033749 0.000000
# 6 0.000000 0.000000 0.000000 -0.010106 0.000000 0.048576
#
#
# Mechanical properties :
#
#
# Convention : Reuss Voigt Hill
#
# Bulk Modulus (GPa) = 34.44255 50.85478 42.64866
# Shear Modulus (GPa) = 24.08626 31.59063 27.83844
#
# Velocity S-wave (km/s) = 3.29926 3.77843 3.54694
# Velocity P-wave (km/s) = 5.48442 6.48211 6.00402
#
# Compressibility (1/GPa) = 0.02903385
#
# Stress axis : x y z
#
# Youngs Moduli (GPa) = 55.76490 40.87417 94.20239
#
# Poissons Ratio (x) = 0.31793 0.62009
# Poissons Ratio (y) = 0.43376 -0.22337
# Poissons Ratio (z) = 0.36707 -0.09692
#
# Static dielectric constant tensor:
#      x y z
#    x 1.883520 0.000000 0.043780 
#    y 0.000000 1.890130 0.000000 
#    z 0.043780 0.000000 1.818530 
# 
# From -- ./inp_files/96543.got.cif
#   From: 2010.05.17/outbox.cif.g08.bks.cpg/sg15_49_cif.got.tgz:96543.got - 2010.06.03 18:47:42.
