data_PCOD9260069
_publ_section_title
;
Structure prediction by ZEFSAII (Michael W. Deem and Ramdas Pophale) SiO2 
 PCOD9260069
Probable space group: C 2/C
;
_chemical_formula_sum "Si O2"
_cell_formula_units_Z 48
_cell_length_a 8.232995
_cell_length_b 11.281493
_cell_length_c 21.239943
_cell_angle_alpha 90.000000
_cell_angle_beta 77.458095
_cell_angle_gamma 90.000000
_cell_volume 1925.700531
_symmetry_space_group_name_H-M "C 2/C"
_symmetry_group_IT_number 15
_symmetry_cell_setting 'monoclinic'
loop_
_space_group_symop_operation_xyz
x,y,z
-x,y,1/2-z
-x,-y,-z
x,-y,1/2+z
1/2+x,1/2+y,z
1/2-x,1/2+y,1/2-z
1/2-x,1/2-y,-z
1/2+x,1/2-y,1/2+z
loop_
_atom_site_type_symbol
_atom_site_label
_atom_site_fract_x
_atom_site_fract_y
_atom_site_fract_z
Si Si1 0.500000 0.529723 0.250000
Si Si2 0.991265 0.327890 0.613049
Si Si3 0.112489 0.898675 0.441458
Si Si4 0.302075 0.934455 0.154606
Si Si5 0.735535 0.585579 0.331182
Si Si6 0.231611 0.437886 0.489359
Si Si7 0.500000 0.905186 0.250000
O O1 0.617505 0.447818 0.197199
O O2 0.606278 0.609977 0.287629
O O3 0.143636 0.314223 0.650297
O O4 0.878722 0.217720 0.602323
O O5 0.877522 0.431505 0.650222
O O6 0.091541 0.379322 0.544245
O O7 0.240025 0.925993 0.488101
O O8 0.143181 0.013292 0.394506
O O9 0.921501 0.891897 0.480597
O O10 0.308031 0.911974 0.079737
O O11 0.415817 0.858231 0.192406
O O12 0.853461 0.486674 0.290047
#
# Coordination Sequence:
#
# PCOD9260069 Si02
#       7
#     4   8   8   8   8   8   4
#     4  10  18  36  62  78 114 166 194 238 292 352
#     4  10  21  36  59  88 122 148 192 255 303 356
#     4  10  20  36  59  90 114 152 198 246 300 362
#     4  10  19  36  60  85 112 158 191 239 299 355
#     4   9  18  36  60  83 115 158 203 240 304 361
#     4  10  20  36  60  87 117 153 196 240 308 363
#     4   8  18  34  60  78 110 158 196 238 292 350
#
# _framework density 24.925995
#
# number of rings (size 3 to 8) (size 9 to 14) (size 15 to 20)
#    0.000    2.333    1.667    1.000    0.000    0.667 
#    0.000    5.833    0.000    0.000    0.000    0.000 
#    0.000    0.000    0.000    0.000    0.000    0.000 
#
# Total GULP energy -133885.191726 kJ/mol
# GULP energy per Si atom -5578.549655 kJ/mol
# Density = 2.486926 g / cm^3
# Si number density = 24.925995 Si / 1000 Ang^3
#
#
#
# Elastic Constant Matrix: (Units=GPa)
#
#
# Indices 1 2 3 4 5 6 
#
# 1 93.6444 20.5097 53.5849 0.0000 14.1831 0.0000
# 2 20.5097 83.7201 7.7571 0.0000 -0.0611 0.0000
# 3 53.5849 7.7571 161.5724 0.0000 20.3486 0.0000
# 4 0.0000 0.0000 0.0000 -61.4306 0.0000 -8.2862
# 5 14.1831 -0.0611 20.3486 0.0000 58.4165 0.0000
# 6 0.0000 0.0000 0.0000 -8.2862 0.0000 12.0691
#
#
#
# Elastic Compliance Matrix: (Units=1/GPa)
#
#
# Indices 1 2 3 4 5 6 
#
# 1 0.014092 -0.003057 -0.004283 0.000000 -0.001933 0.000000
# 2 -0.003057 0.012664 0.000325 0.000000 0.000642 0.000000
# 3 -0.004283 0.000325 0.007806 0.000000 -0.001679 0.000000
# 4 0.000000 0.000000 0.000000 -0.014899 0.000000 -0.010229
# 5 -0.001933 0.000642 -0.001679 0.000000 0.018173 0.000000
# 6 0.000000 0.000000 0.000000 -0.010229 0.000000 0.075834
#
#
# Mechanical properties :
#
#
# Convention : Reuss Voigt Hill
#
# Bulk Modulus (GPa) = 48.70749 55.84894 52.27821
# Shear Modulus (GPa) = 37.16279 18.95000 28.05640
#
# Velocity S-wave (km/s) = 3.86544 2.76026 3.35862
# Velocity P-wave (km/s) = 6.28533 5.71080 6.00494
#
# Compressibility (1/GPa) = 0.02053072
#
# Stress axis : x y z
#
# Youngs Moduli (GPa) = 70.96271 78.96544 128.11383
#
# Poissons Ratio (x) = 0.24138 0.54876
# Poissons Ratio (y) = 0.21692 -0.04162
# Poissons Ratio (z) = 0.30396 -0.02566
#
# Static dielectric constant tensor:
#      x y z
#    x 2.004060 0.000000 0.074830 
#    y 0.000000 2.051280 0.000000 
#    z 0.074830 0.000000 2.169830 
# 
# From -- ./inp_files/263732.got.cif
#   From: 2010.05.17/outbox.cif.g08.bks.cpg/sg15_132_cif.got.tgz:263732.got - 2010.06.03 18:47:42.
