data_PCOD9260803
_publ_section_title
;
Structure prediction by ZEFSAII (Michael W. Deem and Ramdas Pophale) SiO2 
 PCOD9260803
Probable space group: C 2/C
;
_chemical_formula_sum "Si O2"
_cell_formula_units_Z 36
_cell_length_a 7.676166
_cell_length_b 15.147582
_cell_length_c 12.298439
_cell_angle_alpha 90.000000
_cell_angle_beta 79.141314
_cell_angle_gamma 90.000000
_cell_volume 1404.400827
_symmetry_space_group_name_H-M "C 2/C"
_symmetry_group_IT_number 15
_symmetry_cell_setting 'monoclinic'
loop_
_space_group_symop_operation_xyz
x,y,z
-x,y,1/2-z
-x,-y,-z
x,-y,1/2+z
1/2+x,1/2+y,z
1/2-x,1/2+y,1/2-z
1/2-x,1/2-y,-z
1/2+x,1/2-y,1/2+z
loop_
_atom_site_type_symbol
_atom_site_label
_atom_site_fract_x
_atom_site_fract_y
_atom_site_fract_z
Si Si1 0.265067 0.026223 0.466777
Si Si2 0.195577 0.183003 0.599052
Si Si3 0.062419 0.881203 0.617196
Si Si4 0.500000 0.921865 0.750000
Si Si5 0.307914 0.754070 0.668976
O O1 0.296678 0.092725 0.562460
O O2 0.401247 0.021203 0.352412
O O3 0.107727 0.083603 0.428553
O O4 0.208209 0.937800 0.532954
O O5 0.250000 0.250000 0.500000
O O6 0.255287 0.215196 0.709630
O O7 0.977904 0.191896 0.622221
O O8 0.000000 0.901323 0.750000
O O9 0.144464 0.782283 0.611955
O O10 0.384190 0.851166 0.694127
#
# Coordination Sequence:
#
# PCOD9260803 Si02
#       5
#     8   8   8   4   8
#     4  11  23  39  68  93 134 170 224 262 341 389
#     4  10  18  38  64  91 118 177 213 263 319 397
#     4  11  23  41  61  99 133 173 211 285 321 396
#     4  10  18  40  58  94 122 178 200 274 316 396
#     4  10  21  36  63  88 128 165 215 265 327 375
#
# _framework density 25.633709
#
# number of rings (size 3 to 8) (size 9 to 14) (size 15 to 20)
#    0.000    1.778    6.667    0.000    3.111    1.778 
#    0.000    0.000    0.000    1.333    8.667    0.000 
#    0.000    0.000    0.000    0.000    0.000    0.000 
#
# Total GULP energy -100348.706209 kJ/mol
# GULP energy per Si atom -5574.928123 kJ/mol
# Density = 2.557537 g / cm^3
# Si number density = 25.633709 Si / 1000 Ang^3
#
#
#
# Elastic Constant Matrix: (Units=GPa)
#
#
# Indices 1 2 3 4 5 6 
#
# 1 70.5122 17.5749 31.9971 0.0000 1.6143 0.0000
# 2 17.5749 52.2669 60.9650 0.0000 -8.9348 0.0000
# 3 31.9971 60.9650 201.8002 0.0000 -41.7469 0.0000
# 4 0.0000 0.0000 0.0000 15.9572 0.0000 9.9580
# 5 1.6143 -8.9348 -41.7469 0.0000 43.7313 0.0000
# 6 0.0000 0.0000 0.0000 9.9580 0.0000 25.9191
#
#
#
# Elastic Compliance Matrix: (Units=1/GPa)
#
#
# Indices 1 2 3 4 5 6 
#
# 1 0.016123 -0.003395 -0.002240 0.000000 -0.003427 0.000000
# 2 -0.003395 0.030598 -0.009204 0.000000 -0.002410 0.000000
# 3 -0.002240 -0.009204 0.009619 0.000000 0.007384 0.000000
# 4 0.000000 0.000000 0.000000 0.082431 0.000000 -0.031670
# 5 -0.003427 -0.002410 0.007384 0.000000 0.029551 0.000000
# 6 0.000000 0.000000 0.000000 -0.031670 0.000000 0.050749
#
#
# Mechanical properties :
#
#
# Convention : Reuss Voigt Hill
#
# Bulk Modulus (GPa) = 37.50572 60.62814 49.06693
# Shear Modulus (GPa) = 19.40737 31.39101 25.39919
#
# Velocity S-wave (km/s) = 2.75454 3.50322 3.15119
# Velocity P-wave (km/s) = 4.97793 6.32981 5.69413
#
# Compressibility (1/GPa) = 0.02666260
#
# Stress axis : x y z
#
# Youngs Moduli (GPa) = 62.02363 32.68207 103.96337
#
# Poissons Ratio (x) = 0.11094 0.23286
# Poissons Ratio (y) = 0.21055 0.95688
# Poissons Ratio (z) = 0.13892 0.30081
#
# Static dielectric constant tensor:
#      x y z
#    x 2.297890 0.000000 0.002840 
#    y 0.000000 2.086040 0.000000 
#    z 0.002840 0.000000 2.012110 
# 
# From -- ./inp_files/133718.got.cif
#   From: 2010.05.17/outbox.cif.g08.bks.cpg/sg15_67_cif.got.tgz:133718.got - 2010.06.03 18:47:42.
