data_PCOD9260732
_publ_section_title
;
Structure prediction by ZEFSAII (Michael W. Deem and Ramdas Pophale) SiO2 
 PCOD9260732
Probable space group: C 2/C
;
_chemical_formula_sum "Si O2"
_cell_formula_units_Z 52
_cell_length_a 14.481051
_cell_length_b 16.912802
_cell_length_c 15.322438
_cell_angle_alpha 90.000000
_cell_angle_beta 38.656957
_cell_angle_gamma 90.000000
_cell_volume 2344.145512
_symmetry_space_group_name_H-M "C 2/C"
_symmetry_group_IT_number 15
_symmetry_cell_setting 'monoclinic'
loop_
_space_group_symop_operation_xyz
x,y,z
-x,y,1/2-z
-x,-y,-z
x,-y,1/2+z
1/2+x,1/2+y,z
1/2-x,1/2+y,1/2-z
1/2-x,1/2-y,-z
1/2+x,1/2-y,1/2+z
loop_
_atom_site_type_symbol
_atom_site_label
_atom_site_fract_x
_atom_site_fract_y
_atom_site_fract_z
Si Si1 0.947699 0.690941 0.146055
Si Si2 0.916042 0.670758 0.731141
Si Si3 0.500000 0.073823 0.250000
Si Si4 0.101019 0.567294 0.469790
Si Si5 0.396862 0.461971 0.680144
Si Si6 0.217442 0.034098 0.911059
Si Si7 0.127615 0.793185 0.893926
O O1 0.901198 0.639507 0.096359
O O2 0.794486 0.709642 0.305675
O O3 0.035971 0.631252 0.142281
O O4 0.025352 0.766826 0.048939
O O5 0.773559 0.624342 0.872051
O O6 0.882191 0.730292 0.678181
O O7 0.000000 0.710337 0.750000
O O8 0.023445 0.601916 0.612679
O O9 0.645420 0.022307 0.164742
O O10 0.272606 0.542398 0.347047
O O11 0.000000 0.500000 0.500000
O O12 0.326291 0.517883 0.657778
O O13 0.566148 0.482866 0.574882
O O14 0.407688 0.377685 0.621695
#
# Coordination Sequence:
#
# PCOD9260732 Si02
#       7
#     8   8   4   8   8   8   8
#     4  10  22  37  63  87 128 166 208 260 313 389
#     4  11  22  37  68  91 126 169 209 261 317 389
#     4  12  20  40  66  98 122 166 218 268 320 360
#     4  10  18  38  62  91 120 166 210 250 318 377
#     4  10  21  40  64  93 122 173 211 262 313 383
#     4  11  21  38  67  92 126 160 218 262 317 368
#     4  10  21  42  61  93 125 170 208 251 329 387
#
# _framework density 22.182922999999999
#
# number of rings (size 3 to 8) (size 9 to 14) (size 15 to 20)
#    0.000    1.538    5.385    0.923    0.000    0.615 
#    0.000   13.077    0.000    3.692    0.000    0.000 
#    0.000    0.000    0.000    0.000    0.000    0.000 
#
# Total GULP energy -145187.093758 kJ/mol
# GULP energy per Si atom -5584.118991 kJ/mol
# Density = 2.213243 g / cm^3
# Si number density = 22.182923 Si / 1000 Ang^3
#
#
#
# Elastic Constant Matrix: (Units=GPa)
#
#
# Indices 1 2 3 4 5 6 
#
# 1 62.3438 2.8130 15.6324 0.0000 -12.2477 0.0000
# 2 2.8130 51.0111 -3.6914 0.0000 -11.2768 0.0000
# 3 15.6324 -3.6914 94.6684 0.0001 -32.8490 -0.0001
# 4 0.0000 0.0000 0.0001 25.7022 -0.0001 3.4237
# 5 -12.2477 -11.2768 -32.8490 -0.0001 27.0127 0.0000
# 6 0.0000 0.0000 -0.0001 3.4237 0.0000 28.4436
#
#
#
# Elastic Compliance Matrix: (Units=1/GPa)
#
#
# Indices 1 2 3 4 5 6 
#
# 1 0.017644 0.000894 0.000046 0.000000 0.008429 0.000000
# 2 0.000894 0.024574 0.007804 0.000000 0.020154 0.000000
# 3 0.000046 0.007804 0.020756 0.000000 0.028519 0.000000
# 4 0.000000 0.000000 0.000000 0.039541 0.000000 -0.004759
# 5 0.008429 0.020154 0.028519 0.000000 0.083936 0.000000
# 6 0.000000 0.000000 0.000000 -0.004759 0.000000 0.035730
#
#
# Mechanical properties :
#
#
# Convention : Reuss Voigt Hill
#
# Bulk Modulus (GPa) = 12.42824 26.39237 19.41031
# Shear Modulus (GPa) = 21.59697 29.11631 25.35664
#
# Velocity S-wave (km/s) = 3.12362 3.62685 3.38460
# Velocity P-wave (km/s) = 4.31556 5.42791 4.90338
#
# Compressibility (1/GPa) = 0.08046189
#
# Stress axis : x y z
#
# Youngs Moduli (GPa) = 56.67600 40.69277 48.17978
#
# Poissons Ratio (x) = -0.03637 -0.00222
# Poissons Ratio (y) = -0.05066 -0.37599
# Poissons Ratio (z) = -0.00262 -0.31756
#
# Static dielectric constant tensor:
#      x y z
#    x 1.830810 0.000000 -0.029210 
#    y 0.000000 1.812760 0.000000 
#    z -0.029210 0.000000 1.884330 
# 
# From -- ./inp_files/206102.got.cif
#   From: 2010.05.17/outbox.cif.g08.bks.cpg/sg15_104_cif.got.tgz:206102.got - 2010.06.03 18:47:42.
