data_PCOD9260936
_publ_section_title
;
Structure prediction by ZEFSAII (Michael W. Deem and Ramdas Pophale) SiO2 
 PCOD9260936
Probable space group: C 2/C
;
_chemical_formula_sum "Si O2"
_cell_formula_units_Z 56
_cell_length_a 22.733193
_cell_length_b 14.752623
_cell_length_c 10.898246
_cell_angle_alpha 90.000000
_cell_angle_beta 138.348210
_cell_angle_gamma 90.000000
_cell_volume 2429.113770
_symmetry_space_group_name_H-M "C 2/C"
_symmetry_group_IT_number 15
_symmetry_cell_setting 'monoclinic'
loop_
_space_group_symop_operation_xyz
x,y,z
-x,y,1/2-z
-x,-y,-z
x,-y,1/2+z
1/2+x,1/2+y,z
1/2-x,1/2+y,1/2-z
1/2-x,1/2-y,-z
1/2+x,1/2-y,1/2+z
loop_
_atom_site_type_symbol
_atom_site_label
_atom_site_fract_x
_atom_site_fract_y
_atom_site_fract_z
Si Si1 0.824588 0.636766 0.700080
Si Si2 0.395001 0.758375 0.903785
Si Si3 0.879510 0.817427 0.648686
Si Si4 0.493752 0.620849 0.535621
Si Si5 0.332957 0.064706 0.217056
Si Si6 0.865606 0.101568 0.561095
Si Si7 0.694820 0.194599 0.553950
O O1 0.869076 0.719209 0.697041
O O2 0.719653 0.641342 0.503844
O O3 0.863731 0.536999 0.741860
O O4 0.829006 0.658039 0.850461
O O5 0.469773 0.723897 0.926747
O O6 0.385540 0.867095 0.889444
O O7 0.298635 0.720591 0.713848
O O8 0.407537 0.708946 0.054315
O O9 0.942871 0.883362 0.826251
O O10 0.425218 0.589611 0.532953
O O11 0.583769 0.577724 0.733074
O O12 0.230784 0.058435 0.103063
O O13 0.327912 0.121565 0.083648
O O14 0.852059 0.209762 0.537515
#
# Coordination Sequence:
#
# PCOD9260936 Si02
#       7
#     8   8   8   8   8   8   8
#     4  10  23  37  60  87 114 159 200 244 286 353
#     4  10  20  36  62  87 114 155 195 241 296 351
#     4  10  22  39  58  83 121 160 197 232 300 355
#     4  11  19  36  62  85 116 157 191 234 294 365
#     4  11  21  37  62  90 115 148 204 252 286 336
#     4  10  20  35  63  86 112 153 196 239 292 349
#     4  10  18  39  58  83 116 149 200 238 288 351
#
# _framework density 23.053675999999999
#
# number of rings (size 3 to 8) (size 9 to 14) (size 15 to 20)
#    0.000    1.714    4.286    1.286    4.000    0.000 
#    0.000    1.429   12.571    0.000    0.000    0.000 
#    0.000    0.000    0.000    0.000    0.000    0.000 
#
# Total GULP energy -156100.443146 kJ/mol
# GULP energy per Si atom -5575.015827 kJ/mol
# Density = 2.300120 g / cm^3
# Si number density = 23.053676 Si / 1000 Ang^3
#
#
#
# Elastic Constant Matrix: (Units=GPa)
#
#
# Indices 1 2 3 4 5 6 
#
# 1 21.3838 -6.4427 -16.5505 0.0000 -6.2708 0.0000
# 2 -6.4427 146.1789 5.7808 0.0000 -5.3201 0.0000
# 3 -16.5505 5.7808 103.5709 0.0000 -13.1133 0.0000
# 4 0.0000 0.0000 0.0000 39.6935 0.0000 -34.0497
# 5 -6.2708 -5.3201 -13.1133 0.0000 30.4782 0.0000
# 6 0.0000 0.0000 0.0000 -34.0497 0.0000 24.2698
#
#
#
# Elastic Compliance Matrix: (Units=1/GPa)
#
#
# Indices 1 2 3 4 5 6 
#
# 1 0.062552 0.002953 0.012190 0.000000 0.018630 0.000000
# 2 0.002953 0.007030 0.000330 0.000000 0.001977 0.000000
# 3 0.012190 0.000330 0.012596 0.000000 0.007985 0.000000
# 4 0.000000 0.000000 0.000000 -0.123807 0.000000 -0.173697
# 5 0.018630 0.001977 0.007985 0.000000 0.040424 0.000000
# 6 0.000000 0.000000 0.000000 -0.173697 0.000000 -0.202488
#
#
# Mechanical properties :
#
#
# Convention : Reuss Voigt Hill
#
# Bulk Modulus (GPa) = 8.84002 26.30098 17.57050
# Shear Modulus (GPa) = -25.38962 38.11137 6.36088
#
# Velocity S-wave (km/s) = -3.32222 4.07032 1.66287
# Velocity P-wave (km/s) = 3.29748 5.78993 3.36526
#
# Compressibility (1/GPa) = 0.11312188
#
# Stress axis : x y z
#
# Youngs Moduli (GPa) = 15.98677 142.24804 79.39229
#
# Poissons Ratio (x) = -0.42004 -0.96776
# Poissons Ratio (y) = -0.04721 -0.02618
# Poissons Ratio (z) = -0.19487 -0.04691
#
# Static dielectric constant tensor:
#      x y z
#    x 1.886320 0.000000 0.011750 
#    y 0.000000 1.844960 0.000000 
#    z 0.011750 0.000000 1.943070 
# 
# From -- ./inp_files/105279.got.cif
#   From: 2010.05.17/outbox.cif.g08.bks.cpg/sg15_53_cif.got.tgz:105279.got - 2010.06.03 18:47:42.
