data_PCOD9260508
_publ_section_title
;
Structure prediction by ZEFSAII (Michael W. Deem and Ramdas Pophale) SiO2 
 PCOD9260508
Probable space group: C 2/C
;
_chemical_formula_sum "Si O2"
_cell_formula_units_Z 52
_cell_length_a 9.059983
_cell_length_b 31.472497
_cell_length_c 13.896408
_cell_angle_alpha 90.000000
_cell_angle_beta 40.795364
_cell_angle_gamma 90.000000
_cell_volume 2588.887933
_symmetry_space_group_name_H-M "C 2/C"
_symmetry_group_IT_number 15
_symmetry_cell_setting 'monoclinic'
loop_
_space_group_symop_operation_xyz
x,y,z
-x,y,1/2-z
-x,-y,-z
x,-y,1/2+z
1/2+x,1/2+y,z
1/2-x,1/2+y,1/2-z
1/2-x,1/2-y,-z
1/2+x,1/2-y,1/2+z
loop_
_atom_site_type_symbol
_atom_site_label
_atom_site_fract_x
_atom_site_fract_y
_atom_site_fract_z
Si Si1 0.353335 0.902288 0.617151
Si Si2 0.500000 0.665629 0.250000
Si Si3 0.703841 0.396489 0.224138
Si Si4 0.079925 0.966645 0.038680
Si Si5 0.500000 0.474424 0.750000
Si Si6 0.500000 0.913820 0.750000
Si Si7 0.485778 0.268400 0.924059
Si Si8 0.711620 0.193765 0.720917
O O1 0.213774 0.865187 0.632760
O O2 0.577832 0.910178 0.444906
O O3 0.409661 0.889708 0.699690
O O4 0.190182 0.943401 0.700598
O O5 0.451233 0.695298 0.183182
O O6 0.500000 0.389742 0.250000
O O7 0.614851 0.432570 0.340365
O O8 0.752549 0.352655 0.254489
O O9 0.116749 0.994668 0.115703
O O10 0.298891 0.942381 0.892389
O O11 0.000000 0.000000 0.000000
O O12 0.652516 0.228612 0.831616
O O13 0.250000 0.250000 0.000000
O O14 0.426558 0.288977 0.055116
O O15 0.500000 0.192479 0.750000
#
# Coordination Sequence:
#
# PCOD9260508 Si02
#       8
#     8   4   8   8   4   4   8   8
#     4  11  25  41  68  96 134 172 220 277 335 395
#     4  11  22  38  70  99 130 168 223 274 332 393
#     4  12  26  45  64  95 139 179 215 274 342 399
#     4  12  26  43  68  96 131 177 228 273 338 399
#     4  11  24  46  66  98 127 175 226 282 330 397
#     4  12  24  44  62  95 131 169 217 276 334 404
#     4  10  18  37  64  96 124 164 216 275 324 380
#     4  10  22  39  67  95 126 168 223 275 328 386
#
# _framework density 20.085844000000002
#
# number of rings (size 3 to 8) (size 9 to 14) (size 15 to 20)
#    0.000    0.923    6.154    1.846    4.308    2.462 
#    0.000    0.769    1.692    0.000    0.000    0.000 
#    0.000    0.000    0.000    0.000    0.000    0.000 
#
# Total GULP energy -145229.092881 kJ/mol
# GULP energy per Si atom -5585.734342 kJ/mol
# Density = 2.004013 g / cm^3
# Si number density = 20.085844 Si / 1000 Ang^3
#
#
#
# Elastic Constant Matrix: (Units=GPa)
#
#
# Indices 1 2 3 4 5 6 
#
# 1 51.9978 25.5769 20.3567 0.0000 4.5009 0.0000
# 2 25.5769 119.7640 45.6677 0.0000 5.7430 0.0000
# 3 20.3567 45.6677 127.2789 0.0000 1.9616 0.0000
# 4 0.0000 0.0000 0.0000 29.8699 0.0000 10.2677
# 5 4.5009 5.7430 1.9616 0.0000 30.7332 0.0000
# 6 0.0000 0.0000 0.0000 10.2677 0.0000 63.7784
#
#
#
# Elastic Compliance Matrix: (Units=1/GPa)
#
#
# Indices 1 2 3 4 5 6 
#
# 1 0.022146 -0.003798 -0.002142 0.000000 -0.002397 0.000000
# 2 -0.003798 0.010402 -0.003107 0.000000 -0.001189 0.000000
# 3 -0.002142 -0.003107 0.009309 0.000000 0.000300 0.000000
# 4 0.000000 0.000000 0.000000 0.035440 0.000000 -0.005705
# 5 -0.002397 -0.001189 0.000300 0.000000 0.033092 0.000000
# 6 0.000000 0.000000 0.000000 -0.005705 0.000000 0.016598
#
#
# Mechanical properties :
#
#
# Convention : Reuss Voigt Hill
#
# Bulk Modulus (GPa) = 42.08002 53.58262 47.83132
# Shear Modulus (GPa) = 32.67923 38.70559 35.69241
#
# Velocity S-wave (km/s) = 4.03796 4.39453 4.22001
# Velocity P-wave (km/s) = 6.53726 7.24458 6.89999
#
# Compressibility (1/GPa) = 0.02376425
#
# Stress axis : x y z
#
# Youngs Moduli (GPa) = 45.15535 96.13142 107.41751
#
# Poissons Ratio (x) = 0.36507 0.23013
# Poissons Ratio (y) = 0.17148 0.33371
# Poissons Ratio (z) = 0.09674 0.29865
#
# Static dielectric constant tensor:
#      x y z
#    x 1.745030 0.000000 0.046570 
#    y 0.000000 1.712760 0.000000 
#    z 0.046570 0.000000 1.773990 
# 
# From -- ./inp_files/139757.got.cif
#   From: 2010.05.17/outbox.cif.g08.bks.cpg/sg15_70_cif.got.tgz:139757.got - 2010.06.03 18:47:42.
