data_PCOD9260920
_publ_section_title
;
Structure prediction by ZEFSAII (Michael W. Deem and Ramdas Pophale) SiO2 
 PCOD9260920
Probable space group: C 2/C
;
_chemical_formula_sum "Si O2"
_cell_formula_units_Z 40
_cell_length_a 18.133416
_cell_length_b 12.920190
_cell_length_c 11.344988
_cell_angle_alpha 90.000000
_cell_angle_beta 141.139561
_cell_angle_gamma 90.000000
_cell_volume 1667.687868
_symmetry_space_group_name_H-M "C 2/C"
_symmetry_group_IT_number 15
_symmetry_cell_setting 'monoclinic'
loop_
_space_group_symop_operation_xyz
x,y,z
-x,y,1/2-z
-x,-y,-z
x,-y,1/2+z
1/2+x,1/2+y,z
1/2-x,1/2+y,1/2-z
1/2-x,1/2-y,-z
1/2+x,1/2-y,1/2+z
loop_
_atom_site_type_symbol
_atom_site_label
_atom_site_fract_x
_atom_site_fract_y
_atom_site_fract_z
Si Si1 0.738019 0.442118 0.437816
Si Si2 0.441778 0.809517 0.793723
Si Si3 0.500000 0.000000 0.000000
Si Si4 0.625898 0.136393 0.967878
Si Si5 0.500000 0.482621 0.750000
Si Si6 0.869100 0.163176 0.906985
O O1 0.814960 0.356751 0.600677
O O2 0.801524 0.554873 0.520159
O O3 0.612114 0.455936 0.341776
O O4 0.718416 0.405931 0.278901
O O5 0.500000 0.763215 0.750000
O O6 0.438936 0.726887 0.894062
O O7 0.515842 0.911476 0.918214
O O8 0.407903 0.922573 0.954198
O O9 0.500000 0.158185 0.750000
O O10 0.683431 0.246326 0.074016
O O11 0.452233 0.409701 0.586069
#
# Coordination Sequence:
#
# PCOD9260920 Si02
#       6
#     8   8   4   8   4   8
#     4  12  26  48  71 107 146 196 229 299 360 433
#     4  11  23  44  79 107 140 182 249 302 350 420
#     4  10  18  38  72 110 134 172 228 306 358 400
#     4  11  22  46  74 107 136 180 245 301 352 418
#     4  12  30  50  66 100 162 194 232 282 376 438
#     4  11  28  47  71 108 143 193 240 295 364 427
#
# _framework density 23.985305
#
# number of rings (size 3 to 8) (size 9 to 14) (size 15 to 20)
#    0.000    0.800    5.000    1.200    7.000    2.400 
#    0.000    0.000    0.000    0.000    0.000    0.000 
#    0.000    0.000    0.000    0.000    0.000    0.000 
#
# Total GULP energy -111419.809671 kJ/mol
# GULP energy per Si atom -5570.990484 kJ/mol
# Density = 2.393071 g / cm^3
# Si number density = 23.985305 Si / 1000 Ang^3
#
#
#
# Elastic Constant Matrix: (Units=GPa)
#
#
# Indices 1 2 3 4 5 6 
#
# 1 87.8939 39.5087 37.1611 0.0000 13.1961 0.0000
# 2 39.5087 118.4856 56.6823 0.0000 7.7852 0.0000
# 3 37.1611 56.6823 139.3316 0.0000 -3.9717 0.0000
# 4 0.0000 0.0000 0.0000 41.1912 0.0000 14.7857
# 5 13.1961 7.7852 -3.9717 0.0000 32.6389 0.0000
# 6 0.0000 0.0000 0.0000 14.7857 0.0000 50.4719
#
#
#
# Elastic Compliance Matrix: (Units=1/GPa)
#
#
# Indices 1 2 3 4 5 6 
#
# 1 0.014858 -0.003249 -0.002800 0.000000 -0.005573 0.000000
# 2 -0.003249 0.011497 -0.003865 0.000000 -0.001899 0.000000
# 3 -0.002800 -0.003865 0.009588 0.000000 0.003221 0.000000
# 4 0.000000 0.000000 0.000000 0.027130 0.000000 -0.007948
# 5 -0.005573 -0.001899 0.003221 0.000000 0.033736 0.000000
# 6 0.000000 0.000000 0.000000 -0.007948 0.000000 0.022141
#
#
# Mechanical properties :
#
#
# Convention : Reuss Voigt Hill
#
# Bulk Modulus (GPa) = 62.05046 68.04616 65.04831
# Shear Modulus (GPa) = 34.68622 39.01769 36.85195
#
# Velocity S-wave (km/s) = 3.80695 4.03765 3.92400
# Velocity P-wave (km/s) = 6.72682 7.08296 6.90719
#
# Compressibility (1/GPa) = 0.01611592
#
# Stress axis : x y z
#
# Youngs Moduli (GPa) = 67.30262 86.98112 104.29744
#
# Poissons Ratio (x) = 0.28258 0.29204
# Poissons Ratio (y) = 0.21865 0.40308
# Poissons Ratio (z) = 0.18845 0.33616
#
# Static dielectric constant tensor:
#      x y z
#    x 1.948280 0.000000 -0.043960 
#    y 0.000000 1.943000 0.000000 
#    z -0.043960 0.000000 1.953770 
# 
# From -- ./inp_files/96697.got.cif
#   From: 2010.05.17/outbox.cif.g08.bks.cpg/sg15_49_cif.got.tgz:96697.got - 2010.06.03 18:47:42.
