data_PCOD9260104
_publ_section_title
;
Structure prediction by ZEFSAII (Michael W. Deem and Ramdas Pophale) SiO2 
 PCOD9260104
Probable space group: C 2/C
;
_chemical_formula_sum "Si O2"
_cell_formula_units_Z 60
_cell_length_a 15.140234
_cell_length_b 23.941494
_cell_length_c 12.064173
_cell_angle_alpha 90.000000
_cell_angle_beta 44.667628
_cell_angle_gamma 90.000000
_cell_volume 3074.201897
_symmetry_space_group_name_H-M "C 2/C"
_symmetry_group_IT_number 15
_symmetry_cell_setting 'monoclinic'
loop_
_space_group_symop_operation_xyz
x,y,z
-x,y,1/2-z
-x,-y,-z
x,-y,1/2+z
1/2+x,1/2+y,z
1/2-x,1/2+y,1/2-z
1/2-x,1/2-y,-z
1/2+x,1/2-y,1/2+z
loop_
_atom_site_type_symbol
_atom_site_label
_atom_site_fract_x
_atom_site_fract_y
_atom_site_fract_z
Si Si1 0.357123 0.403442 0.906558
Si Si2 0.197492 0.268644 0.354174
Si Si3 0.945626 0.407286 0.562985
Si Si4 0.500000 0.036949 0.250000
Si Si5 0.056249 0.703924 0.314868
Si Si6 0.147977 0.784480 0.659953
Si Si7 0.219763 0.504247 0.419096
Si Si8 0.721713 0.102049 0.763461
O O1 0.500000 0.393181 0.750000
O O2 0.301914 0.348117 0.897569
O O3 0.332106 0.462431 0.872423
O O4 0.307337 0.402481 0.077501
O O5 0.318093 0.240537 0.304441
O O6 0.165373 0.238821 0.267270
O O7 0.226848 0.334793 0.307626
O O8 0.066562 0.262873 0.535690
O O9 0.978342 0.430466 0.655603
O O10 0.913319 0.343626 0.620976
O O11 0.847736 0.450876 0.600941
O O12 0.072262 0.407609 0.375873
O O13 0.375236 0.004155 0.393523
O O14 0.000000 0.679733 0.250000
O O15 0.250000 0.750000 0.500000
O O16 0.000000 0.777867 0.750000
O O17 0.251233 0.447131 0.326225
#
# Coordination Sequence:
#
# PCOD9260104 Si02
#       8
#     8   8   8   4   8   8   8   8
#     4  11  24  40  60  85 123 161 201 247 299 364
#     4  11  23  41  65  91 126 163 200 258 312 363
#     4  10  20  37  61  89 121 152 194 254 300 349
#     4  10  18  36  62  88 122 146 198 254 296 350
#     4  11  23  41  63  90 124 162 209 251 304 370
#     4  11  22  40  63  94 126 158 203 252 312 370
#     4  11  21  37  62  89 117 161 199 243 306 356
#     4  10  22  40  58  91 123 152 198 255 296 358
#
# _framework density 19.51726
#
# number of rings (size 3 to 8) (size 9 to 14) (size 15 to 20)
#    0.000    1.333    2.000    5.200    1.867    1.600 
#    1.200    0.667    0.000    0.000    0.000    0.000 
#    0.000    0.000    0.000    0.000    0.000    0.000 
#
# Total GULP energy -167022.121511 kJ/mol
# GULP energy per Si atom -5567.404050 kJ/mol
# Density = 1.947284 g / cm^3
# Si number density = 19.517260 Si / 1000 Ang^3
#
#
#
# Elastic Constant Matrix: (Units=GPa)
#
#
# Indices 1 2 3 4 5 6 
#
# 1 52.4641 14.3660 19.3925 0.0000 -8.2590 0.0000
# 2 14.3660 94.5012 12.0861 0.0000 -8.3889 0.0000
# 3 19.3925 12.0861 100.3164 0.0000 2.4843 0.0000
# 4 0.0000 0.0000 0.0000 23.1131 0.0000 -10.8984
# 5 -8.2590 -8.3889 2.4843 0.0000 17.1591 0.0000
# 6 0.0000 0.0000 0.0000 -10.8984 0.0000 22.0808
#
#
#
# Elastic Compliance Matrix: (Units=1/GPa)
#
#
# Indices 1 2 3 4 5 6 
#
# 1 0.022937 -0.001964 -0.004463 0.000000 0.010726 0.000000
# 2 -0.001964 0.011451 -0.001119 0.000000 0.004815 0.000000
# 3 -0.004463 -0.001119 0.011073 0.000000 -0.004298 0.000000
# 4 0.000000 0.000000 0.000000 0.056389 0.000000 0.027832
# 5 0.010726 0.004815 -0.004298 0.000000 0.066417 0.000000
# 6 0.000000 0.000000 0.000000 0.027832 0.000000 0.059025
#
#
# Mechanical properties :
#
#
# Convention : Reuss Voigt Hill
#
# Bulk Modulus (GPa) = 32.92946 37.66344 35.29645
# Shear Modulus (GPa) = 19.80148 25.89972 22.85060
#
# Velocity S-wave (km/s) = 3.18868 3.64678 3.42539
# Velocity P-wave (km/s) = 5.51955 6.08863 5.81106
#
# Compressibility (1/GPa) = 0.03036795
#
# Stress axis : x y z
#
# Youngs Moduli (GPa) = 43.59848 87.32860 90.31381
#
# Poissons Ratio (x) = 0.17150 0.40307
# Poissons Ratio (y) = 0.08562 0.10108
# Poissons Ratio (z) = 0.19458 0.09774
#
# Static dielectric constant tensor:
#      x y z
#    x 1.652070 0.000000 -0.072340 
#    y 0.000000 1.745020 0.000000 
#    z -0.072340 0.000000 1.651280 
# 
# From -- ./inp_files/100661.got.cif
#   From: 2010.05.17/outbox.cif.g08.bks.cpg/sg15_51_cif.got.tgz:100661.got - 2010.06.03 18:47:42.
