data_PCOD9260800
_publ_section_title
;
Structure prediction by ZEFSAII (Michael W. Deem and Ramdas Pophale) SiO2 
 PCOD9260800
Probable space group: C 2/C
;
_chemical_formula_sum "Si O2"
_cell_formula_units_Z 44
_cell_length_a 22.425013
_cell_length_b 7.966251
_cell_length_c 10.054616
_cell_angle_alpha 90.000000
_cell_angle_beta 67.264350
_cell_angle_gamma 90.000000
_cell_volume 1656.621713
_symmetry_space_group_name_H-M "C 2/C"
_symmetry_group_IT_number 15
_symmetry_cell_setting 'monoclinic'
loop_
_space_group_symop_operation_xyz
x,y,z
-x,y,1/2-z
-x,-y,-z
x,-y,1/2+z
1/2+x,1/2+y,z
1/2-x,1/2+y,1/2-z
1/2-x,1/2-y,-z
1/2+x,1/2-y,1/2+z
loop_
_atom_site_type_symbol
_atom_site_label
_atom_site_fract_x
_atom_site_fract_y
_atom_site_fract_z
Si Si1 0.000000 0.593718 0.250000
Si Si2 0.984660 0.195100 0.495492
Si Si3 0.863594 0.469215 0.388190
Si Si4 0.146376 0.209958 0.801255
Si Si5 0.282482 0.802078 0.112286
Si Si6 0.378135 0.658551 0.220827
O O1 0.988205 0.709764 0.132497
O O2 0.060477 0.486229 0.148094
O O3 0.049100 0.235077 0.356029
O O4 0.907592 0.210329 0.535362
O O5 0.000000 0.000000 0.500000
O O6 0.857581 0.620758 0.283493
O O7 0.819407 0.525300 0.548642
O O8 0.843829 0.293586 0.343606
O O9 0.222095 0.183954 0.763363
O O10 0.125751 0.037337 0.739706
O O11 0.338447 0.679286 0.116875
O O12 0.250000 0.750000 0.000000
#
# Coordination Sequence:
#
# PCOD9260800 Si02
#       6
#     4   8   8   8   8   8
#     4  10  18  38  64  90 126 160 204 268 314 370
#     4   9  19  39  64  89 123 168 209 260 314 375
#     4  10  22  41  64  91 129 167 206 266 327 369
#     4   9  22  39  62  91 124 166 210 256 316 379
#     4  10  22  41  62  93 131 169 206 268 321 374
#     4  11  22  41  67  92 126 167 219 260 315 388
#
# _framework density 26.560077
#
# number of rings (size 3 to 8) (size 9 to 14) (size 15 to 20)
#    0.000    2.182    1.818    0.000    5.091    3.636 
#    0.000   11.818    0.000    0.000    0.000    0.000 
#    0.000    0.000    0.000    0.000    0.000    0.000 
#
# Total GULP energy -122835.953283 kJ/mol
# GULP energy per Si atom -5583.452422 kJ/mol
# Density = 2.649962 g / cm^3
# Si number density = 26.560077 Si / 1000 Ang^3
#
#
#
# Elastic Constant Matrix: (Units=GPa)
#
#
# Indices 1 2 3 4 5 6 
#
# 1 149.9531 11.6886 47.1433 0.0000 -39.6506 0.0000
# 2 11.6886 133.6842 55.3332 0.0000 8.4563 0.0000
# 3 47.1433 55.3332 77.2246 0.0000 -28.0656 0.0000
# 4 0.0000 0.0000 0.0000 52.8274 0.0000 -6.7487
# 5 -39.6506 8.4563 -28.0656 0.0000 55.2973 0.0000
# 6 0.0000 0.0000 0.0000 -6.7487 0.0000 9.3961
#
#
#
# Elastic Compliance Matrix: (Units=1/GPa)
#
#
# Indices 1 2 3 4 5 6 
#
# 1 0.009164 0.000945 -0.004826 0.000000 0.003977 0.000000
# 2 0.000945 0.013265 -0.012964 0.000000 -0.007931 0.000000
# 3 -0.004826 -0.012964 0.030221 0.000000 0.013861 0.000000
# 4 0.000000 0.000000 0.000000 0.020842 0.000000 0.014970
# 5 0.003977 -0.007931 0.013861 0.000000 0.029184 0.000000
# 6 0.000000 0.000000 0.000000 0.014970 0.000000 0.117180
#
#
# Mechanical properties :
#
#
# Convention : Reuss Voigt Hill
#
# Bulk Modulus (GPa) = 52.74024 65.46577 59.10301
# Shear Modulus (GPa) = 19.24068 39.95059 29.59564
#
# Velocity S-wave (km/s) = 2.69443 3.88256 3.34172
# Velocity P-wave (km/s) = 5.43875 6.69333 6.09839
#
# Compressibility (1/GPa) = 0.01896085
#
# Stress axis : x y z
#
# Youngs Moduli (GPa) = 109.12373 75.38486 33.08905
#
# Poissons Ratio (x) = -0.07120 0.15968
# Poissons Ratio (y) = -0.10307 0.42896
# Poissons Ratio (z) = 0.52659 0.97728
#
# Static dielectric constant tensor:
#      x y z
#    x 2.233900 0.000000 0.010330 
#    y 0.000000 2.133050 0.000000 
#    z 0.010330 0.000000 2.155590 
# 
# From -- ./inp_files/116211.got.cif
#   From: 2010.05.17/outbox.cif.g08.bks.cpg/sg15_59_cif.got.tgz:116211.got - 2010.06.03 18:47:42.
