data_PCOD9260905
_publ_section_title
;
Structure prediction by ZEFSAII (Michael W. Deem and Ramdas Pophale) SiO2 
 PCOD9260905
Probable space group: C 2/C
;
_chemical_formula_sum "Si O2"
_cell_formula_units_Z 60
_cell_length_a 23.226807
_cell_length_b 14.641181
_cell_length_c 9.751961
_cell_angle_alpha 90.000000
_cell_angle_beta 79.152347
_cell_angle_gamma 90.000000
_cell_volume 3257.069494
_symmetry_space_group_name_H-M "C 2/C"
_symmetry_group_IT_number 15
_symmetry_cell_setting 'monoclinic'
loop_
_space_group_symop_operation_xyz
x,y,z
-x,y,1/2-z
-x,-y,-z
x,-y,1/2+z
1/2+x,1/2+y,z
1/2-x,1/2+y,1/2-z
1/2-x,1/2-y,-z
1/2+x,1/2-y,1/2+z
loop_
_atom_site_type_symbol
_atom_site_label
_atom_site_fract_x
_atom_site_fract_y
_atom_site_fract_z
Si Si1 0.618379 0.202996 0.864832
Si Si2 0.790132 0.810932 0.079319
Si Si3 0.500463 0.092707 0.915701
Si Si4 0.176229 0.006393 0.075356
Si Si5 0.742030 0.834083 0.401264
Si Si6 0.907405 0.735341 0.927719
Si Si7 0.000000 0.875687 0.750000
Si Si8 0.392916 0.420210 0.629343
O O1 0.557433 0.153524 0.924218
O O2 0.672415 0.153864 0.913242
O O3 0.623785 0.199967 0.697208
O O4 0.616690 0.311882 0.895067
O O5 0.766291 0.806414 0.242156
O O6 0.750000 0.750000 0.000000
O O7 0.791134 0.912471 0.017987
O O8 0.857460 0.778036 0.042683
O O9 0.500000 0.078776 0.750000
O O10 0.443641 0.153139 0.975462
O O11 0.500000 0.000000 0.000000
O O12 0.150904 0.044666 0.230528
O O13 0.220806 0.922398 0.072487
O O14 0.122808 0.974044 0.001421
O O15 0.750000 0.750000 0.500000
O O16 0.954984 0.809959 0.853448
O O17 0.041851 0.929224 0.836495
#
# Coordination Sequence:
#
# PCOD9260905 Si02
#       8
#     8   8   8   8   8   8   4   8
#     4  10  19  41  65  84 127 176 209 257 331 380
#     4  12  24  41  67  93 131 177 225 268 322 406
#     4  10  21  41  66  94 125 167 217 269 317 387
#     4  12  24  39  63  96 131 165 222 272 321 395
#     4  12  25  42  64  96 135 173 212 276 336 380
#     4  10  18  38  69  90 119 173 217 255 324 387
#     4  10  18  38  70  90 124 174 214 254 332 394
#     4  11  21  40  64  93 128 169 217 269 322 392
#
# _framework density 18.421465999999999
#
# number of rings (size 3 to 8) (size 9 to 14) (size 15 to 20)
#    0.000    1.067   10.000    0.000    0.000    1.600 
#    2.400    0.000    0.000    0.000    0.000    0.000 
#    0.000    0.000    0.000    0.000    0.000    0.000 
#
# Total GULP energy -167468.915822 kJ/mol
# GULP energy per Si atom -5582.297194 kJ/mol
# Density = 1.837954 g / cm^3
# Si number density = 18.421466 Si / 1000 Ang^3
#
#
#
# Elastic Constant Matrix: (Units=GPa)
#
#
# Indices 1 2 3 4 5 6 
#
# 1 120.9162 55.3104 27.5316 0.0000 13.5147 0.0000
# 2 55.3104 128.5773 46.2384 0.0000 5.8035 0.0000
# 3 27.5316 46.2384 71.5411 0.0000 -2.1564 0.0000
# 4 0.0000 0.0000 0.0000 29.3574 0.0000 2.5708
# 5 13.5147 5.8035 -2.1564 0.0000 27.2925 0.0000
# 6 0.0000 0.0000 0.0000 2.5708 0.0000 40.1303
#
#
#
# Elastic Compliance Matrix: (Units=1/GPa)
#
#
# Indices 1 2 3 4 5 6 
#
# 1 0.010987 -0.003828 -0.001898 0.000000 -0.004777 0.000000
# 2 -0.003828 0.011666 -0.006099 0.000000 -0.001067 0.000000
# 3 -0.001898 -0.006099 0.018762 0.000000 0.003719 0.000000
# 4 0.000000 0.000000 0.000000 0.034255 0.000000 -0.002194
# 5 -0.004777 -0.001067 0.003719 0.000000 0.039526 0.000000
# 6 0.000000 0.000000 0.000000 -0.002194 0.000000 0.025059
#
#
# Mechanical properties :
#
#
# Convention : Reuss Voigt Hill
#
# Bulk Modulus (GPa) = 56.28951 64.35507 60.32229
# Shear Modulus (GPa) = 29.44167 32.15297 30.79732
#
# Velocity S-wave (km/s) = 4.00212 4.18234 4.09322
# Velocity P-wave (km/s) = 7.20963 7.63762 7.42671
#
# Compressibility (1/GPa) = 0.01776530
#
# Stress axis : x y z
#
# Youngs Moduli (GPa) = 91.01321 85.72253 53.29892
#
# Poissons Ratio (x) = 0.32817 0.10116
# Poissons Ratio (y) = 0.34843 0.32505
# Poissons Ratio (z) = 0.17274 0.52278
#
# Static dielectric constant tensor:
#      x y z
#    x 1.658960 0.000000 0.015930 
#    y 0.000000 1.634210 0.000000 
#    z 0.015930 0.000000 1.623870 
# 
# From -- ./inp_files/61554.got.cif
#   From: 2010.05.17/outbox.cif.g08.bks.cpg/sg15_31_cif.got.tgz:61554.got - 2010.06.03 18:47:42.
