data_PCOD9260600
_publ_section_title
;
Structure prediction by ZEFSAII (Michael W. Deem and Ramdas Pophale) SiO2 
 PCOD9260600
Probable space group: C 2/C
;
_chemical_formula_sum "Si O2"
_cell_formula_units_Z 60
_cell_length_a 8.495791
_cell_length_b 10.728973
_cell_length_c 27.753442
_cell_angle_alpha 90.000000
_cell_angle_beta 103.153686
_cell_angle_gamma 90.000000
_cell_volume 2463.384295
_symmetry_space_group_name_H-M "C 2/C"
_symmetry_group_IT_number 15
_symmetry_cell_setting 'monoclinic'
loop_
_space_group_symop_operation_xyz
x,y,z
-x,y,1/2-z
-x,-y,-z
x,-y,1/2+z
1/2+x,1/2+y,z
1/2-x,1/2+y,1/2-z
1/2-x,1/2-y,-z
1/2+x,1/2-y,1/2+z
loop_
_atom_site_type_symbol
_atom_site_label
_atom_site_fract_x
_atom_site_fract_y
_atom_site_fract_z
Si Si1 0.207917 0.140204 0.551436
Si Si2 0.000000 0.788134 0.250000
Si Si3 0.745722 0.515889 0.721067
Si Si4 0.773749 0.413748 0.948658
Si Si5 0.412237 0.149595 0.908829
Si Si6 0.548579 0.000655 0.177562
Si Si7 0.027320 0.005515 0.622741
Si Si8 0.378775 0.773149 0.640257
O O1 0.134822 0.280857 0.549009
O O2 0.198519 0.087681 0.496927
O O3 0.397632 0.164797 0.573792
O O4 0.136633 0.045726 0.585140
O O5 0.904888 0.717569 0.200498
O O6 0.861891 0.872031 0.265325
O O7 0.820719 0.453617 0.774134
O O8 0.625926 0.451200 0.674697
O O9 0.897734 0.553441 0.697733
O O10 0.866975 0.542009 0.944017
O O11 0.624746 0.422507 0.901216
O O12 0.291166 0.267112 0.900060
O O13 0.376190 0.100935 0.852097
O O14 0.483775 0.105047 0.136043
O O15 0.958402 0.141611 0.632780
#
# Coordination Sequence:
#
# PCOD9260600 Si02
#       8
#     8   4   8   8   8   8   8   8
#     4  11  22  41  66  89 120 161 201 252 307 361
#     4  10  18  38  56  84 120 160 196 242 298 344
#     4  10  21  35  61  85 123 162 197 249 297 353
#     4  10  24  41  62  93 123 154 202 255 308 357
#     4  11  22  40  64  91 122 157 203 248 296 362
#     4  11  21  39  59  87 124 160 200 246 294 356
#     4  10  21  41  61  89 123 159 203 249 303 357
#     4  10  22  37  60  85 123 163 196 244 301 349
#
# _framework density 24.356736000000001
#
# number of rings (size 3 to 8) (size 9 to 14) (size 15 to 20)
#    0.000    1.600    2.667    2.400    1.867    0.000 
#    0.000    0.000    2.933    8.800    0.000    0.000 
#    0.000    0.000    0.000    0.000    0.000    0.000 
#
# Total GULP energy -167510.335592 kJ/mol
# GULP energy per Si atom -5583.677853 kJ/mol
# Density = 2.430130 g / cm^3
# Si number density = 24.356736 Si / 1000 Ang^3
#
#
#
# Elastic Constant Matrix: (Units=GPa)
#
#
# Indices 1 2 3 4 5 6 
#
# 1 55.6403 10.8739 -7.3588 0.0000 0.3044 0.0000
# 2 10.8739 73.4999 -7.4460 0.0000 -10.2999 0.0000
# 3 -7.3588 -7.4460 71.9721 0.0000 -6.4605 0.0000
# 4 0.0000 0.0000 0.0000 31.2429 0.0000 4.6887
# 5 0.3044 -10.2999 -6.4605 0.0000 31.6107 0.0000
# 6 0.0000 0.0000 0.0000 4.6887 0.0000 26.9365
#
#
#
# Elastic Compliance Matrix: (Units=1/GPa)
#
#
# Indices 1 2 3 4 5 6 
#
# 1 0.018714 -0.002714 0.001566 0.000000 -0.000745 0.000000
# 2 -0.002714 0.014917 0.001736 0.000000 0.005242 0.000000
# 3 0.001566 0.001736 0.014550 0.000000 0.003524 0.000000
# 4 0.000000 0.000000 0.000000 0.032866 0.000000 -0.005721
# 5 -0.000745 0.005242 0.003524 0.000000 0.034070 0.000000
# 6 0.000000 0.000000 0.000000 -0.005721 0.000000 0.038120
#
#
# Mechanical properties :
#
#
# Convention : Reuss Voigt Hill
#
# Bulk Modulus (GPa) = 20.26037 21.47226 20.86632
# Shear Modulus (GPa) = 29.67088 31.62757 30.64923
#
# Velocity S-wave (km/s) = 3.49403 3.60740 3.55117
# Velocity P-wave (km/s) = 4.96124 5.11722 5.03984
#
# Compressibility (1/GPa) = 0.04935744
#
# Stress axis : x y z
#
# Youngs Moduli (GPa) = 53.43531 67.03544 68.72676
#
# Poissons Ratio (x) = 0.18196 -0.10761
# Poissons Ratio (y) = 0.14504 -0.11933
# Poissons Ratio (z) = -0.08367 -0.11639
#
# Static dielectric constant tensor:
#      x y z
#    x 1.980970 0.000000 0.017090 
#    y 0.000000 1.994060 0.000000 
#    z 0.017090 0.000000 1.928450 
# 
# From -- ./inp_files/288011.got.cif
#   From: 2010.05.17/outbox.cif.g08.bks.cpg/sg15_145_cif.got.tgz:288011.got - 2010.06.03 18:47:42.
