data_PCOD9260426
_publ_section_title
;
Structure prediction by ZEFSAII (Michael W. Deem and Ramdas Pophale) SiO2 
 PCOD9260426
Probable space group: C 2/C
;
_chemical_formula_sum "Si O2"
_cell_formula_units_Z 52
_cell_length_a 14.028063
_cell_length_b 29.042166
_cell_length_c 8.949407
_cell_angle_alpha 90.000000
_cell_angle_beta 142.947296
_cell_angle_gamma 90.000000
_cell_volume 2196.916895
_symmetry_space_group_name_H-M "C 2/C"
_symmetry_group_IT_number 15
_symmetry_cell_setting 'monoclinic'
loop_
_space_group_symop_operation_xyz
x,y,z
-x,y,1/2-z
-x,-y,-z
x,-y,1/2+z
1/2+x,1/2+y,z
1/2-x,1/2+y,1/2-z
1/2-x,1/2-y,-z
1/2+x,1/2-y,1/2+z
loop_
_atom_site_type_symbol
_atom_site_label
_atom_site_fract_x
_atom_site_fract_y
_atom_site_fract_z
Si Si1 0.831336 0.263698 0.761115
Si Si2 0.000000 0.364085 0.250000
Si Si3 0.142743 0.849430 0.531179
Si Si4 0.166766 0.311422 0.214993
Si Si5 0.319651 0.104560 0.982530
Si Si6 0.743932 0.932482 0.697556
Si Si7 0.684062 0.012209 0.431997
O O1 0.750000 0.250000 0.500000
O O2 0.727124 0.305045 0.699994
O O3 0.812030 0.221130 0.850391
O O4 0.007930 0.283805 0.962824
O O5 0.122173 0.330086 0.321208
O O6 0.094890 0.398368 0.479151
O O7 0.257002 0.870233 0.549446
O O8 0.117264 0.894798 0.599492
O O9 0.000000 0.833375 0.250000
O O10 0.192938 0.359211 0.162429
O O11 0.500000 0.095581 0.250000
O O12 0.250043 0.053743 0.881640
O O13 0.707896 0.966420 0.794930
O O14 0.766838 0.964884 0.582518
O O15 0.500000 0.003479 0.250000
#
# Coordination Sequence:
#
# PCOD9260426 Si02
#       7
#     8   4   8   8   8   8   8
#     4  12  22  39  67  96 125 171 224 273 325 384
#     4  12  24  42  62  90 144 172 210 280 334 386
#     4  11  22  40  64  97 135 175 215 272 330 392
#     4  12  24  39  62  96 132 172 219 269 331 385
#     4  10  18  37  61  93 130 158 216 274 319 371
#     4  11  23  39  63  98 130 171 215 273 333 392
#     4  10  20  33  63  98 129 161 217 269 333 384
#
# _framework density 23.669535
#
# number of rings (size 3 to 8) (size 9 to 14) (size 15 to 20)
#    0.000    0.923    5.385    3.692    2.154    0.615 
#    0.000    3.077    0.000    0.923    0.000    0.000 
#    0.000    0.000    0.000    0.000    0.000    0.000 
#
# Total GULP energy -145033.881752 kJ/mol
# GULP energy per Si atom -5578.226221 kJ/mol
# Density = 2.361566 g / cm^3
# Si number density = 23.669535 Si / 1000 Ang^3
#
#
#
# Elastic Constant Matrix: (Units=GPa)
#
#
# Indices 1 2 3 4 5 6 
#
# 1 41.8699 28.8611 7.2348 0.0000 -24.6584 0.0000
# 2 28.8611 120.3082 18.5061 0.0000 -24.3230 0.0000
# 3 7.2348 18.5061 41.1095 0.0000 -13.8137 0.0000
# 4 0.0000 0.0000 0.0000 38.8916 0.0000 -9.8921
# 5 -24.6584 -24.3230 -13.8137 0.0000 27.6742 0.0000
# 6 0.0000 0.0000 0.0000 -9.8921 0.0000 30.4298
#
#
#
# Elastic Compliance Matrix: (Units=1/GPa)
#
#
# Indices 1 2 3 4 5 6 
#
# 1 0.054143 -0.004505 0.008867 0.000000 0.048709 0.000000
# 2 -0.004505 0.010605 -0.002641 0.000000 0.003989 0.000000
# 3 0.008867 -0.002641 0.031034 0.000000 0.021070 0.000000
# 4 0.000000 0.000000 0.000000 0.028030 0.000000 0.009112
# 5 0.048709 0.003989 0.021070 0.000000 0.093559 0.000000
# 6 0.000000 0.000000 0.000000 0.009112 0.000000 0.035825
#
#
# Mechanical properties :
#
#
# Convention : Reuss Voigt Hill
#
# Bulk Modulus (GPa) = 10.07825 34.72129 22.39977
# Shear Modulus (GPa) = 17.67861 29.31149 23.49505
#
# Velocity S-wave (km/s) = 2.73590 3.52286 3.15402
# Velocity P-wave (km/s) = 3.77456 5.59003 4.76947
#
# Compressibility (1/GPa) = 0.09922353
#
# Stress axis : x y z
#
# Youngs Moduli (GPa) = 18.46975 94.29201 32.22311
#
# Poissons Ratio (x) = 0.42476 -0.28571
# Poissons Ratio (y) = 0.08320 0.08510
# Poissons Ratio (z) = -0.16377 0.24902
#
# Static dielectric constant tensor:
#      x y z
#    x 1.929400 0.000000 -0.026170 
#    y 0.000000 1.965680 0.000000 
#    z -0.026170 0.000000 1.971640 
# 
# From -- ./inp_files/44911.got.cif
#   From: 2010.05.17/outbox.cif.g08.bks.cpg/sg15_23_cif.got.tgz:44911.got - 2010.06.03 18:47:42.
