data_PCOD9260209
_publ_section_title
;
Structure prediction by ZEFSAII (Michael W. Deem and Ramdas Pophale) SiO2 
 PCOD9260209
Probable space group: C 2/C
;
_chemical_formula_sum "Si O2"
_cell_formula_units_Z 44
_cell_length_a 20.087118
_cell_length_b 8.301067
_cell_length_c 11.482635
_cell_angle_alpha 90.000000
_cell_angle_beta 115.993772
_cell_angle_gamma 90.000000
_cell_volume 1720.981962
_symmetry_space_group_name_H-M "C 2/C"
_symmetry_group_IT_number 15
_symmetry_cell_setting 'monoclinic'
loop_
_space_group_symop_operation_xyz
x,y,z
-x,y,1/2-z
-x,-y,-z
x,-y,1/2+z
1/2+x,1/2+y,z
1/2-x,1/2+y,1/2-z
1/2-x,1/2-y,-z
1/2+x,1/2-y,1/2+z
loop_
_atom_site_type_symbol
_atom_site_label
_atom_site_fract_x
_atom_site_fract_y
_atom_site_fract_z
Si Si1 0.000000 0.013927 0.250000
Si Si2 0.541393 0.047605 0.156716
Si Si3 0.740246 0.514670 0.872270
Si Si4 0.158853 0.245265 0.638779
Si Si5 0.359962 0.574225 0.515891
Si Si6 0.889750 0.220131 0.302390
O O1 0.035032 0.128018 0.176799
O O2 0.068554 0.913207 0.349057
O O3 0.500000 0.060092 0.250000
O O4 0.588828 0.203836 0.161062
O O5 0.599591 0.902692 0.223674
O O6 0.500000 0.000000 0.000000
O O7 0.811655 0.407204 0.901163
O O8 0.720781 0.654466 0.764926
O O9 0.719448 0.582911 0.982513
O O10 0.675663 0.378762 0.808215
O O11 0.135998 0.104864 0.534157
O O12 0.372458 0.702084 0.424727
#
# Coordination Sequence:
#
# PCOD9260209 Si02
#       6
#     4   8   8   8   8   8
#     4  10  18  36  64  94 146 176 224 288 346 424
#     4  12  28  47  71 105 148 194 240 298 360 428
#     4  10  23  44  73 100 138 181 234 302 358 430
#     4  11  24  47  68 104 138 182 241 292 364 430
#     4  10  22  39  67 105 133 185 232 293 358 428
#     4  10  21  41  63 101 135 182 234 285 361 416
#
# _framework density 25.566797999999999
#
# number of rings (size 3 to 8) (size 9 to 14) (size 15 to 20)
#    0.000    1.455    0.909    3.273    5.091    2.909 
#   13.091    4.545    0.000    0.000    0.000    0.000 
#    0.000    0.000    0.000    0.000    0.000    0.000 
#
# Total GULP energy -123089.972161 kJ/mol
# GULP energy per Si atom -5594.998735 kJ/mol
# Density = 2.550861 g / cm^3
# Si number density = 25.566798 Si / 1000 Ang^3
#
#
#
# Elastic Constant Matrix: (Units=GPa)
#
#
# Indices 1 2 3 4 5 6 
#
# 1 140.3232 52.8301 53.3203 0.0000 -39.8634 0.0000
# 2 52.8301 116.4825 42.8594 0.0000 -16.8543 0.0000
# 3 53.3203 42.8594 89.1937 0.0000 -24.1661 0.0000
# 4 0.0000 0.0000 0.0000 -13.0070 0.0000 12.7773
# 5 -39.8634 -16.8543 -24.1661 0.0000 47.6310 0.0000
# 6 0.0000 0.0000 0.0000 12.7773 0.0000 34.0896
#
#
#
# Elastic Compliance Matrix: (Units=1/GPa)
#
#
# Indices 1 2 3 4 5 6 
#
# 1 0.011535 -0.002903 -0.003668 0.000000 0.006766 0.000000
# 2 -0.002903 0.011233 -0.003760 0.000000 -0.000363 0.000000
# 3 -0.003668 -0.003760 0.016253 0.000000 0.003846 0.000000
# 4 0.000000 0.000000 0.000000 -0.056192 0.000000 0.021062
# 5 0.006766 -0.000363 0.003846 0.000000 0.028480 0.000000
# 6 0.000000 0.000000 0.000000 0.021062 0.000000 0.021440
#
#
# Mechanical properties :
#
#
# Convention : Reuss Voigt Hill
#
# Bulk Modulus (GPa) = 54.47007 71.55769 63.01388
# Shear Modulus (GPa) = 83.98941 26.87536 55.43238
#
# Velocity S-wave (km/s) = 5.73779 3.24571 4.66138
# Velocity P-wave (km/s) = 8.07760 6.48810 7.32609
#
# Compressibility (1/GPa) = 0.01835871
#
# Stress axis : x y z
#
# Youngs Moduli (GPa) = 86.69180 89.02463 61.52709
#
# Poissons Ratio (x) = 0.25846 0.22565
# Poissons Ratio (y) = 0.25169 0.23136
# Poissons Ratio (z) = 0.31794 0.33476
#
# Static dielectric constant tensor:
#      x y z
#    x 2.068870 0.000000 -0.036570 
#    y 0.000000 1.969920 0.000000 
#    z -0.036570 0.000000 2.130640 
# 
# From -- ./inp_files/110053.got.cif
#   From: 2010.05.17/outbox.cif.g08.bks.cpg/sg15_56_cif.got.tgz:110053.got - 2010.06.03 18:47:42.
