data_PCOD9260257
_publ_section_title
;
Structure prediction by ZEFSAII (Michael W. Deem and Ramdas Pophale) SiO2 
 PCOD9260257
Probable space group: C 2/C
;
_chemical_formula_sum "Si O2"
_cell_formula_units_Z 44
_cell_length_a 21.038199
_cell_length_b 16.152429
_cell_length_c 7.913557
_cell_angle_alpha 90.000000
_cell_angle_beta 39.241337
_cell_angle_gamma 90.000000
_cell_volume 1701.136820
_symmetry_space_group_name_H-M "C 2/C"
_symmetry_group_IT_number 15
_symmetry_cell_setting 'monoclinic'
loop_
_space_group_symop_operation_xyz
x,y,z
-x,y,1/2-z
-x,-y,-z
x,-y,1/2+z
1/2+x,1/2+y,z
1/2-x,1/2+y,1/2-z
1/2-x,1/2-y,-z
1/2+x,1/2-y,1/2+z
loop_
_atom_site_type_symbol
_atom_site_label
_atom_site_fract_x
_atom_site_fract_y
_atom_site_fract_z
Si Si1 0.625022 0.147787 0.832786
Si Si2 0.851534 0.906663 0.472525
Si Si3 0.000000 0.780390 0.750000
Si Si4 0.360660 0.856859 0.579659
Si Si5 0.000000 0.788269 0.250000
Si Si6 0.000000 0.512695 0.250000
Si Si7 0.844071 0.904601 0.896153
O O1 0.650817 0.172760 0.589631
O O2 0.728898 0.112427 0.691466
O O3 0.586263 0.228089 0.006673
O O4 0.536032 0.078596 0.032251
O O5 0.944609 0.849397 0.233647
O O6 0.869007 0.000975 0.389779
O O7 0.746722 0.871448 0.615972
O O8 0.063362 0.712159 0.505486
O O9 0.081945 0.840503 0.665761
O O10 0.408617 0.947655 0.450036
O O11 0.154978 0.900928 0.809874
#
# Coordination Sequence:
#
# PCOD9260257 Si02
#       7
#     8   8   4   8   4   4   8
#     4  10  21  39  64  93 128 169 218 270 325 387
#     4  11  24  44  67  95 133 175 218 269 328 390
#     4  11  23  37  63  94 128 170 213 261 323 385
#     4  10  21  39  64  93 128 169 218 270 325 387
#     4  11  23  37  63  94 128 170 213 261 323 385
#     4  10  18  36  66  92 122 164 216 272 326 380
#     4  11  24  44  67  95 133 175 218 269 328 390
#
# _framework density 25.865055999999999
#
# number of rings (size 3 to 8) (size 9 to 14) (size 15 to 20)
#    0.000    1.455    1.818    3.273    0.000    7.273 
#    0.000    1.818    0.000   13.091    0.000    0.000 
#    0.000    0.000    0.000    0.000    0.000    0.000 
#
# Total GULP energy -123036.517712 kJ/mol
# GULP energy per Si atom -5592.568987 kJ/mol
# Density = 2.580619 g / cm^3
# Si number density = 25.865056 Si / 1000 Ang^3
#
#
#
# Elastic Constant Matrix: (Units=GPa)
#
#
# Indices 1 2 3 4 5 6 
#
# 1 49.8672 32.3773 13.7308 0.0000 -7.9393 0.0000
# 2 32.3773 218.7113 56.6934 0.0000 -22.4440 0.0000
# 3 13.7308 56.6934 108.2089 0.0000 -24.1607 0.0000
# 4 0.0000 0.0000 0.0000 42.3641 0.0000 -3.1685
# 5 -7.9393 -22.4440 -24.1607 0.0000 34.1137 0.0000
# 6 0.0000 0.0000 0.0000 -3.1685 0.0000 40.4071
#
#
#
# Elastic Compliance Matrix: (Units=1/GPa)
#
#
# Indices 1 2 3 4 5 6 
#
# 1 0.022564 -0.002859 -0.000728 0.000000 0.002855 0.000000
# 2 -0.002859 0.005748 -0.002320 0.000000 0.001473 0.000000
# 3 -0.000728 -0.002320 0.012081 0.000000 0.006861 0.000000
# 4 0.000000 0.000000 0.000000 0.023744 0.000000 0.001862
# 5 0.002855 0.001473 0.006861 0.000000 0.035806 0.000000
# 6 0.000000 0.000000 0.000000 0.001862 0.000000 0.024894
#
#
# Mechanical properties :
#
#
# Convention : Reuss Voigt Hill
#
# Bulk Modulus (GPa) = 34.98917 64.71007 49.84962
# Shear Modulus (GPa) = 34.20494 41.64270 37.92382
#
# Velocity S-wave (km/s) = 3.64048 4.01683 3.83328
# Velocity P-wave (km/s) = 5.58818 6.82539 6.23753
#
# Compressibility (1/GPa) = 0.02858027
#
# Stress axis : x y z
#
# Youngs Moduli (GPa) = 44.31780 173.97521 82.77469
#
# Poissons Ratio (x) = 0.49733 0.06026
# Poissons Ratio (y) = 0.12669 0.19202
# Poissons Ratio (z) = 0.03227 0.40358
#
# Static dielectric constant tensor:
#      x y z
#    x 2.127360 0.000000 -0.010310 
#    y 0.000000 1.972840 0.000000 
#    z -0.010310 0.000000 2.077140 
# 
# From -- ./inp_files/112631.got.cif
#   From: 2010.05.17/outbox.cif.g08.bks.cpg/sg15_57_cif.got.tgz:112631.got - 2010.06.03 18:47:42.
