data_PCOD9260311
_publ_section_title
;
Structure prediction by ZEFSAII (Michael W. Deem and Ramdas Pophale) SiO2 
 PCOD9260311
Probable space group: C 2/C
;
_chemical_formula_sum "Si O2"
_cell_formula_units_Z 60
_cell_length_a 20.688810
_cell_length_b 17.137145
_cell_length_c 9.731810
_cell_angle_alpha 90.000000
_cell_angle_beta 59.964846
_cell_angle_gamma 90.000000
_cell_volume 2987.062325
_symmetry_space_group_name_H-M "C 2/C"
_symmetry_group_IT_number 15
_symmetry_cell_setting 'monoclinic'
loop_
_space_group_symop_operation_xyz
x,y,z
-x,y,1/2-z
-x,-y,-z
x,-y,1/2+z
1/2+x,1/2+y,z
1/2-x,1/2+y,1/2-z
1/2-x,1/2-y,-z
1/2+x,1/2-y,1/2+z
loop_
_atom_site_type_symbol
_atom_site_label
_atom_site_fract_x
_atom_site_fract_y
_atom_site_fract_z
Si Si1 0.945320 0.486443 0.930627
Si Si2 0.686078 0.587989 0.735507
Si Si3 0.076554 0.203027 0.991441
Si Si4 0.090251 0.652325 0.635555
Si Si5 0.129569 0.961104 0.009131
Si Si6 0.443232 0.295467 0.440209
Si Si7 0.845960 0.343424 0.127505
Si Si8 0.000000 0.921615 0.750000
O O1 0.902652 0.565379 0.932639
O O2 0.000000 0.463255 0.750000
O O3 0.890454 0.417588 0.023805
O O4 0.000000 0.500000 0.000000
O O5 0.620065 0.649912 0.835630
O O6 0.681957 0.560932 0.582107
O O7 0.760287 0.634418 0.696475
O O8 0.670090 0.512746 0.849567
O O9 0.997784 0.224633 0.007684
O O10 0.115269 0.281086 0.002848
O O11 0.058966 0.146547 0.136811
O O12 0.132383 0.662657 0.734610
O O13 0.000000 0.660932 0.750000
O O14 0.092187 0.880733 0.996204
O O15 0.060784 0.011522 0.140043
O O16 0.500000 0.294690 0.250000
O O17 0.377358 0.231880 0.512820
#
# Coordination Sequence:
#
# PCOD9260311 Si02
#       8
#     8   8   8   8   8   8   8   4
#     4  11  21  40  66  93 122 167 228 279 314 378
#     4  11  27  43  64  98 143 173 217 269 348 402
#     4  11  20  41  67 100 129 171 218 278 329 394
#     4  11  21  40  65  93 124 166 222 268 317 386
#     4  11  23  44  66 101 133 177 222 273 337 399
#     4  12  22  41  71  96 130 171 229 275 327 391
#     4  12  26  43  63  98 134 175 219 274 341 397
#     4  10  18  36  74  94 126 164 224 274 320 392
#
# _framework density 20.086624
#
# number of rings (size 3 to 8) (size 9 to 14) (size 15 to 20)
#    0.000    0.800    6.667    1.200    1.867    4.267 
#    2.400    0.000    0.000    0.000    0.000    0.000 
#    0.000    0.000    0.000    0.000    0.000    0.000 
#
# Total GULP energy -167046.207241 kJ/mol
# GULP energy per Si atom -5568.206908 kJ/mol
# Density = 2.004091 g / cm^3
# Si number density = 20.086624 Si / 1000 Ang^3
#
#
#
# Elastic Constant Matrix: (Units=GPa)
#
#
# Indices 1 2 3 4 5 6 
#
# 1 84.0695 -12.8450 10.9516 0.0000 4.3029 0.0000
# 2 -12.8450 102.3168 16.0027 0.0000 -16.6431 0.0000
# 3 10.9516 16.0027 47.3867 0.0000 6.1829 0.0000
# 4 0.0000 0.0000 0.0000 83.7003 0.0000 4.0934
# 5 4.3029 -16.6431 6.1829 0.0000 27.8983 0.0000
# 6 0.0000 0.0000 0.0000 4.0934 0.0000 13.1577
#
#
#
# Elastic Compliance Matrix: (Units=1/GPa)
#
#
# Indices 1 2 3 4 5 6 
#
# 1 0.012705 0.002203 -0.003703 0.000000 0.000175 0.000000
# 2 0.002203 0.012292 -0.005739 0.000000 0.008265 0.000000
# 3 -0.003703 -0.005739 0.024992 0.000000 -0.008391 0.000000
# 4 0.000000 0.000000 0.000000 0.012132 0.000000 -0.003774
# 5 0.000175 0.008265 -0.008391 0.000000 0.042608 0.000000
# 6 0.000000 0.000000 0.000000 -0.003774 0.000000 0.077175
#
#
# Mechanical properties :
#
#
# Convention : Reuss Voigt Hill
#
# Bulk Modulus (GPa) = 28.16047 29.11017 28.63532
# Shear Modulus (GPa) = 24.01333 39.59551 31.80442
#
# Velocity S-wave (km/s) = 3.46133 4.44468 3.98347
# Velocity P-wave (km/s) = 5.47945 6.39250 5.95350
#
# Compressibility (1/GPa) = 0.03551078
#
# Stress axis : x y z
#
# Youngs Moduli (GPa) = 78.70994 81.35356 40.01357
#
# Poissons Ratio (x) = -0.17919 0.14817
# Poissons Ratio (y) = -0.17337 0.22962
# Poissons Ratio (z) = 0.29146 0.46685
#
# Static dielectric constant tensor:
#      x y z
#    x 1.780780 0.000000 0.007610 
#    y 0.000000 1.701240 0.000000 
#    z 0.007610 0.000000 1.737420 
# 
# From -- ./inp_files/57019.got.cif
#   From: 2010.05.17/outbox.cif.g08.bks.cpg/sg15_29_cif.got.tgz:57019.got - 2010.06.03 18:47:42.
