data_PCOD9260577
_publ_section_title
;
Structure prediction by ZEFSAII (Michael W. Deem and Ramdas Pophale) SiO2 
 PCOD9260577
Probable space group: C 2/C
;
_chemical_formula_sum "Si O2"
_cell_formula_units_Z 44
_cell_length_a 19.416187
_cell_length_b 11.171723
_cell_length_c 32.729192
_cell_angle_alpha 90.000000
_cell_angle_beta 164.764189
_cell_angle_gamma 90.000000
_cell_volume 1865.657829
_symmetry_space_group_name_H-M "C 2/C"
_symmetry_group_IT_number 15
_symmetry_cell_setting 'monoclinic'
loop_
_space_group_symop_operation_xyz
x,y,z
-x,y,1/2-z
-x,-y,-z
x,-y,1/2+z
1/2+x,1/2+y,z
1/2-x,1/2+y,1/2-z
1/2-x,1/2-y,-z
1/2+x,1/2-y,1/2+z
loop_
_atom_site_type_symbol
_atom_site_label
_atom_site_fract_x
_atom_site_fract_y
_atom_site_fract_z
Si Si1 0.503823 0.475456 0.801159
Si Si2 0.379194 0.272766 0.117765
Si Si3 0.945410 0.690398 0.579123
Si Si4 0.802411 0.845397 0.422679
Si Si5 0.377245 0.771092 0.882301
Si Si6 0.000000 0.577339 0.250000
O O1 0.500000 0.472465 0.750000
O O2 0.443854 0.609138 0.782228
O O3 0.296483 0.384094 0.702728
O O4 0.794851 0.430542 0.981066
O O5 0.503389 0.157897 0.211186
O O6 0.250000 0.250000 0.000000
O O7 0.147378 0.307221 0.016653
O O8 0.750000 0.750000 0.500000
O O9 0.952185 0.780519 0.544752
O O10 0.220009 0.690796 0.759284
O O11 0.500000 0.796353 0.250000
O O12 0.914376 0.807627 0.443697
O O13 0.745802 0.986004 0.394860
#
# Coordination Sequence:
#
# PCOD9260577 Si02
#       6
#     8   8   8   8   8   4
#     4  11  21  46  69  96 135 172 226 281 324 397
#     4  12  30  45  62 101 142 173 221 278 332 399
#     4  10  18  37  72 103 126 166 231 276 317 393
#     4  10  19  41  72  97 130 176 225 266 320 400
#     4  11  24  43  73  99 126 183 224 270 342 387
#     4  10  24  48  64  92 144 174 210 284 330 384
#
# _framework density 23.584174999999998
#
# number of rings (size 3 to 8) (size 9 to 14) (size 15 to 20)
#    0.545    0.727    6.364    0.000    7.636    4.364 
#    0.000    0.000    0.000    0.000    0.000    0.000 
#    0.000    0.000    0.000    0.000    0.000    0.000 
#
# Total GULP energy -123059.781861 kJ/mol
# GULP energy per Si atom -5593.626448 kJ/mol
# Density = 2.353050 g / cm^3
# Si number density = 23.584175 Si / 1000 Ang^3
#
#
#
# Elastic Constant Matrix: (Units=GPa)
#
#
# Indices 1 2 3 4 5 6 
#
# 1 124.9741 45.3910 36.7841 -0.0245 -33.2000 -0.0043
# 2 45.3910 154.6395 20.3585 0.0008 -17.9710 -0.0092
# 3 36.7841 20.3585 59.6589 -0.0092 -14.5519 -0.0237
# 4 -0.0245 0.0008 -0.0092 20.7040 -0.0158 -0.2358
# 5 -33.2000 -17.9710 -14.5519 -0.0158 51.7857 -0.0212
# 6 -0.0043 -0.0092 -0.0237 -0.2358 -0.0212 27.1261
#
#
#
# Elastic Compliance Matrix: (Units=1/GPa)
#
#
# Indices 1 2 3 4 5 6 
#
# 1 0.011720 -0.002138 -0.005201 0.000016 0.005310 0.000001
# 2 -0.002138 0.007326 -0.000962 -0.000003 0.000901 0.000002
# 3 -0.005201 -0.000962 0.020830 0.000005 0.002185 0.000019
# 4 0.000016 -0.000003 0.000005 0.048305 0.000025 0.000420
# 5 0.005310 0.000901 0.002185 0.000025 0.023641 0.000022
# 6 0.000001 0.000002 0.000019 0.000420 0.000022 0.036869
#
#
# Mechanical properties :
#
#
# Convention : Reuss Voigt Hill
#
# Bulk Modulus (GPa) = 42.96791 60.48216 51.72503
# Shear Modulus (GPa) = 28.89334 35.70574 32.29954
#
# Velocity S-wave (km/s) = 3.50396 3.89520 3.70475
# Velocity P-wave (km/s) = 5.88463 6.77724 6.34665
#
# Compressibility (1/GPa) = 0.02327318
#
# Stress axis : x y z
#
# Youngs Moduli (GPa) = 85.32559 136.50734 48.00757
#
# Poissons Ratio (x) = 0.29189 0.24970
# Poissons Ratio (y) = 0.18245 0.04617
# Poissons Ratio (z) = 0.44380 0.13127
#
# Static dielectric constant tensor:
#      x y z
#    x 1.876850 0.000060 0.056920 
#    y 0.000060 1.936350 0.000050 
#    z 0.056920 0.000050 1.988510 
# 
# From -- ./inp_files/316258.got.cif
#   From: 2010.05.17/outbox.cif.g08.bks.cpg/sg15_159_cif.got.tgz:316258.got - 2010.06.03 18:47:42.
