data_PCOD9260089
_publ_section_title
;
Structure prediction by ZEFSAII (Michael W. Deem and Ramdas Pophale) SiO2 
 PCOD9260089
Probable space group: C 2/C
;
_chemical_formula_sum "Si O2"
_cell_formula_units_Z 60
_cell_length_a 11.378943
_cell_length_b 13.721610
_cell_length_c 22.411639
_cell_angle_alpha 90.000000
_cell_angle_beta 69.227025
_cell_angle_gamma 90.000000
_cell_volume 3271.816985
_symmetry_space_group_name_H-M "C 2/C"
_symmetry_group_IT_number 15
_symmetry_cell_setting 'monoclinic'
loop_
_space_group_symop_operation_xyz
x,y,z
-x,y,1/2-z
-x,-y,-z
x,-y,1/2+z
1/2+x,1/2+y,z
1/2-x,1/2+y,1/2-z
1/2-x,1/2-y,-z
1/2+x,1/2-y,1/2+z
loop_
_atom_site_type_symbol
_atom_site_label
_atom_site_fract_x
_atom_site_fract_y
_atom_site_fract_z
Si Si1 0.266891 0.183063 0.844763
Si Si2 0.479461 0.672021 0.685830
Si Si3 0.722539 0.477018 0.909698
Si Si4 0.363519 0.205508 0.439475
Si Si5 0.669478 0.399486 0.528641
Si Si6 0.105746 0.711372 0.474768
Si Si7 0.519820 0.552415 0.344538
Si Si8 0.500000 0.705949 0.250000
O O1 0.161979 0.189828 0.811974
O O2 0.204312 0.246151 0.908675
O O3 0.394946 0.228011 0.799111
O O4 0.281632 0.073297 0.867538
O O5 0.500000 0.705642 0.750000
O O6 0.575784 0.721067 0.620862
O O7 0.488472 0.555195 0.680786
O O8 0.813340 0.390158 0.914010
O O9 0.618668 0.443922 0.880882
O O10 0.655863 0.517639 0.981509
O O11 0.250000 0.250000 0.500000
O O12 0.477934 0.184153 0.464852
O O13 0.816978 0.372983 0.506434
O O14 0.593864 0.303236 0.521141
O O15 0.615343 0.428720 0.601677
O O16 0.554035 0.633317 0.290275
#
# Coordination Sequence:
#
# PCOD9260089 Si02
#       8
#     8   8   8   8   8   8   8   4
#     4   9  21  41  57  85 120 156 196 247 299 361
#     4  10  22  41  59  84 122 158 197 252 307 351
#     4  10  22  38  59  90 121 153 197 249 307 359
#     4  11  22  39  61  90 122 162 205 245 300 371
#     4  10  18  36  62  86 118 154 195 253 303 345
#     4   9  19  36  60  87 122 154 189 247 311 343
#     4  11  21  37  63  89 112 157 211 244 289 360
#     4  12  22  38  64  86 118 152 216 244 282 374
#
# _framework density 18.338432999999998
#
# number of rings (size 3 to 8) (size 9 to 14) (size 15 to 20)
#    0.000    1.867    2.000    2.800    1.867    0.533 
#    1.200    2.667    0.000    0.000    0.000    0.000 
#    0.000    0.000    0.000    0.000    0.000    0.000 
#
# Total GULP energy -167313.378870 kJ/mol
# GULP energy per Si atom -5577.112629 kJ/mol
# Density = 1.829669 g / cm^3
# Si number density = 18.338433 Si / 1000 Ang^3
#
#
#
# Elastic Constant Matrix: (Units=GPa)
#
#
# Indices 1 2 3 4 5 6 
#
# 1 100.1043 49.5455 27.0522 0.0000 11.7013 0.0000
# 2 49.5455 70.5241 12.7452 0.0000 -1.2891 0.0000
# 3 27.0522 12.7452 51.8625 0.0000 10.2689 0.0000
# 4 0.0000 0.0000 0.0000 24.4777 0.0000 3.5916
# 5 11.7013 -1.2891 10.2689 0.0000 32.3095 0.0000
# 6 0.0000 0.0000 0.0000 3.5916 0.0000 23.1688
#
#
#
# Elastic Compliance Matrix: (Units=1/GPa)
#
#
# Indices 1 2 3 4 5 6 
#
# 1 0.017816 -0.011635 -0.005405 0.000000 -0.005199 0.000000
# 2 -0.011635 0.022543 -0.000516 0.000000 0.005277 0.000000
# 3 -0.005405 -0.000516 0.023311 0.000000 -0.005472 0.000000
# 4 0.000000 0.000000 0.000000 0.041804 0.000000 -0.006481
# 5 -0.005199 0.005277 -0.005472 0.000000 0.034783 0.000000
# 6 0.000000 0.000000 0.000000 -0.006481 0.000000 0.044166
#
#
# Mechanical properties :
#
#
# Convention : Reuss Voigt Hill
#
# Bulk Modulus (GPa) = 35.01420 44.57518 39.79469
# Shear Modulus (GPa) = 21.82878 24.86773 23.34825
#
# Velocity S-wave (km/s) = 3.45386 3.68645 3.57205
# Velocity P-wave (km/s) = 5.91949 6.51764 6.22575
#
# Compressibility (1/GPa) = 0.02855984
#
# Stress axis : x y z
#
# Youngs Moduli (GPa) = 56.12807 44.35938 42.89790
#
# Poissons Ratio (x) = 0.51612 0.23185
# Poissons Ratio (y) = 0.65304 0.02213
# Poissons Ratio (z) = 0.30335 0.02289
#
# Static dielectric constant tensor:
#      x y z
#    x 1.632810 0.000000 0.018510 
#    y 0.000000 1.654710 0.000000 
#    z 0.018510 0.000000 1.632170 
# 
# From -- ./inp_files/268801.got.cif
#   From: 2010.05.17/outbox.cif.g08.bks.cpg/sg15_135_cif.got.tgz:268801.got - 2010.06.03 18:47:42.
