data_PCOD9260765
_publ_section_title
;
Structure prediction by ZEFSAII (Michael W. Deem and Ramdas Pophale) SiO2 
 PCOD9260765
Probable space group: C 2/C
;
_chemical_formula_sum "Si O2"
_cell_formula_units_Z 60
_cell_length_a 5.432027
_cell_length_b 21.798176
_cell_length_c 24.097538
_cell_angle_alpha 90.000000
_cell_angle_beta 84.150474
_cell_angle_gamma 90.000000
_cell_volume 2838.490615
_symmetry_space_group_name_H-M "C 2/C"
_symmetry_group_IT_number 15
_symmetry_cell_setting 'monoclinic'
loop_
_space_group_symop_operation_xyz
x,y,z
-x,y,1/2-z
-x,-y,-z
x,-y,1/2+z
1/2+x,1/2+y,z
1/2-x,1/2+y,1/2-z
1/2-x,1/2-y,-z
1/2+x,1/2-y,1/2+z
loop_
_atom_site_type_symbol
_atom_site_label
_atom_site_fract_x
_atom_site_fract_y
_atom_site_fract_z
Si Si1 0.171117 0.749540 0.356496
Si Si2 0.853340 0.829663 0.443857
Si Si3 0.104293 0.462293 0.805976
Si Si4 0.134537 0.630977 0.689698
Si Si5 0.684675 0.848629 0.655973
Si Si6 0.169243 0.077931 0.639642
Si Si7 0.000000 0.867423 0.750000
Si Si8 0.025143 0.784015 0.945688
O O1 0.323677 0.796343 0.316073
O O2 0.306595 0.722394 0.407040
O O3 0.970955 0.795468 0.388194
O O4 0.046947 0.695112 0.326272
O O5 0.848135 0.900112 0.424234
O O6 0.011844 0.818320 0.495508
O O7 0.614274 0.785699 0.457987
O O8 0.245265 0.510539 0.842001
O O9 0.297857 0.412747 0.780290
O O10 0.000000 0.489326 0.750000
O O11 0.893203 0.420145 0.839987
O O12 0.399668 0.595720 0.673617
O O13 0.000000 0.617413 0.750000
O O14 0.918688 0.615014 0.651137
O O15 0.778597 0.824654 0.594265
O O16 0.880061 0.834607 0.699956
#
# Coordination Sequence:
#
# PCOD9260765 Si02
#       8
#     8   8   8   8   8   8   4   8
#     4  10  20  39  61  91 129 164 210 262 324 389
#     4   9  20  36  63  93 122 169 210 262 326 380
#     4  10  23  40  63  87 118 170 214 262 316 381
#     4  11  24  40  62  94 131 166 209 263 328 384
#     4  10  22  40  61  91 121 166 214 263 317 381
#     4  11  23  42  64  95 130 168 216 266 318 389
#     4  10  22  42  60  86 118 168 220 252 316 380
#     4  10  18  38  63  90 127 163 213 263 318 387
#
# _framework density 21.137993999999999
#
# number of rings (size 3 to 8) (size 9 to 14) (size 15 to 20)
#    0.000    1.867    1.333    2.000    5.600    0.000 
#    9.600    2.000    5.867    3.200    0.000    0.000 
#    0.000    0.000    0.000    0.000    0.000    0.000 
#
# Total GULP energy -167064.305550 kJ/mol
# GULP energy per Si atom -5568.810185 kJ/mol
# Density = 2.108988 g / cm^3
# Si number density = 21.137994 Si / 1000 Ang^3
#
#
#
# Elastic Constant Matrix: (Units=GPa)
#
#
# Indices 1 2 3 4 5 6 
#
# 1 94.6011 30.1535 16.7202 0.0000 13.3184 0.0000
# 2 30.1535 85.3489 49.1036 0.0000 0.9310 0.0000
# 3 16.7202 49.1036 58.0489 0.0000 3.2331 0.0000
# 4 0.0000 0.0000 0.0000 -122.7348 0.0000 -45.9532
# 5 13.3184 0.9310 3.2331 0.0000 30.3065 0.0000
# 6 0.0000 0.0000 0.0000 -45.9532 0.0000 9.4558
#
#
#
# Elastic Compliance Matrix: (Units=1/GPa)
#
#
# Indices 1 2 3 4 5 6 
#
# 1 0.012776 -0.004897 0.000771 0.000000 -0.005546 0.000000
# 2 -0.004897 0.024758 -0.019727 0.000000 0.003496 0.000000
# 3 0.000771 -0.019727 0.033878 0.000000 -0.003347 0.000000
# 4 0.000000 0.000000 0.000000 -0.002890 0.000000 -0.014043
# 5 -0.005546 0.003496 -0.003347 0.000000 0.035683 0.000000
# 6 0.000000 0.000000 0.000000 -0.014043 0.000000 0.037508
#
#
# Mechanical properties :
#
#
# Convention : Reuss Voigt Hill
#
# Bulk Modulus (GPa) = 42.18181 47.77261 44.97721
# Shear Modulus (GPa) = 25.33930 -7.12640 9.10645
#
# Velocity S-wave (km/s) = 3.46606 -1.83812 2.07785
# Velocity P-wave (km/s) = 6.00141 4.25964 5.20391
#
# Compressibility (1/GPa) = 0.02370690
#
# Stress axis : x y z
#
# Youngs Moduli (GPa) = 78.27099 40.39073 29.51742
#
# Poissons Ratio (x) = 0.19779 -0.02277
# Poissons Ratio (y) = 0.38329 0.58229
# Poissons Ratio (z) = -0.06037 0.79679
#
# Static dielectric constant tensor:
#      x y z
#    x 0.531700 0.000000 -1.166750 
#    y 0.000000 1.817380 0.000000 
#    z -1.166750 0.000000 0.820380 
# 
# From -- ./inp_files/261378.got.cif
#   From: 2010.05.17/outbox.cif.g08.bks.cpg/sg15_131_cif.got.tgz:261378.got - 2010.06.03 18:47:42.
