data_PCOD9260469
_publ_section_title
;
Structure prediction by ZEFSAII (Michael W. Deem and Ramdas Pophale) SiO2 
 PCOD9260469
Probable space group: C 2/C
;
_chemical_formula_sum "Si O2"
_cell_formula_units_Z 56
_cell_length_a 17.871913
_cell_length_b 8.938559
_cell_length_c 22.347144
_cell_angle_alpha 90.000000
_cell_angle_beta 51.177479
_cell_angle_gamma 90.000000
_cell_volume 2781.308140
_symmetry_space_group_name_H-M "C 2/C"
_symmetry_group_IT_number 15
_symmetry_cell_setting 'monoclinic'
loop_
_space_group_symop_operation_xyz
x,y,z
-x,y,1/2-z
-x,-y,-z
x,-y,1/2+z
1/2+x,1/2+y,z
1/2-x,1/2+y,1/2-z
1/2-x,1/2-y,-z
1/2+x,1/2-y,1/2+z
loop_
_atom_site_type_symbol
_atom_site_label
_atom_site_fract_x
_atom_site_fract_y
_atom_site_fract_z
Si Si1 0.531979 0.245540 0.165866
Si Si2 0.712671 0.365669 0.583447
Si Si3 0.473562 0.418537 0.880794
Si Si4 0.853312 0.753585 0.181806
Si Si5 0.317104 0.540534 0.270558
Si Si6 0.356963 0.396535 0.051836
Si Si7 0.273540 0.902260 0.953178
O O1 0.500000 0.272223 0.250000
O O2 0.551358 0.409792 0.126687
O O3 0.447122 0.185094 0.165747
O O4 0.619924 0.131183 0.122826
O O5 0.608285 0.319744 0.610397
O O6 0.688909 0.456011 0.655300
O O7 0.783059 0.232533 0.566584
O O8 0.762402 0.468505 0.508597
O O9 0.581387 0.393505 0.804342
O O10 0.450758 0.398791 0.962447
O O11 0.772559 0.634279 0.207811
O O12 0.876662 0.851250 0.110313
O O13 0.813649 0.873076 0.248720
O O14 0.298449 0.548186 0.064319
O O15 0.250000 0.750000 0.000000
#
# Coordination Sequence:
#
# PCOD9260469 Si02
#       7
#     8   8   8   8   8   8   8
#     4  11  23  39  61  92 124 156 209 263 300 368
#     4  10  20  40  60  90 124 154 203 255 305 374
#     4  10  18  37  63  86 113 162 205 242 309 367
#     4  10  24  42  58  88 128 162 209 255 314 369
#     4  10  22  39  61  84 121 166 201 256 307 371
#     4  10  22  40  60  91 127 157 204 260 305 377
#     4  11  21  37  64  93 115 158 205 251 313 361
#
# _framework density 20.134411
#
# number of rings (size 3 to 8) (size 9 to 14) (size 15 to 20)
#    0.000    1.714    2.857    3.857    2.000    2.286 
#    7.714    1.429    0.000    0.000    0.000    0.000 
#    0.000    0.000    0.000    0.000    0.000    0.000 
#
# Total GULP energy -156217.005706 kJ/mol
# GULP energy per Si atom -5579.178775 kJ/mol
# Density = 2.008858 g / cm^3
# Si number density = 20.134411 Si / 1000 Ang^3
#
#
#
# Elastic Constant Matrix: (Units=GPa)
#
#
# Indices 1 2 3 4 5 6 
#
# 1 69.6863 -3.0697 19.1780 0.0000 2.2975 0.0001
# 2 -3.0697 11.8710 -2.5300 0.0000 0.0633 0.0002
# 3 19.1780 -2.5300 90.6837 0.0000 5.0254 0.0000
# 4 0.0000 0.0000 0.0000 30.1710 0.0000 -4.1161
# 5 2.2975 0.0633 5.0254 0.0000 29.5305 0.0000
# 6 0.0001 0.0002 0.0000 -4.1161 0.0000 34.4645
#
#
#
# Elastic Compliance Matrix: (Units=1/GPa)
#
#
# Indices 1 2 3 4 5 6 
#
# 1 0.015377 0.003315 -0.003122 0.000000 -0.000672 0.000000
# 2 0.003315 0.085467 0.001724 0.000000 -0.000735 -0.000001
# 3 -0.003122 0.001724 0.011834 0.000000 -0.001775 0.000000
# 4 0.000000 0.000000 0.000000 0.033693 0.000000 0.004024
# 5 -0.000672 -0.000735 -0.001775 0.000000 0.034219 0.000000
# 6 0.000000 -0.000001 0.000000 0.004024 0.000000 0.029496
#
#
# Mechanical properties :
#
#
# Convention : Reuss Voigt Hill
#
# Bulk Modulus (GPa) = 8.58283 22.15528 15.36905
# Shear Modulus (GPa) = 20.40053 29.41071 24.90562
#
# Velocity S-wave (km/s) = 3.18656 3.82608 3.52087
# Velocity P-wave (km/s) = 4.22030 5.52685 4.91716
#
# Compressibility (1/GPa) = 0.11651172
#
# Stress axis : x y z
#
# Youngs Moduli (GPa) = 65.03016 11.70040 84.50151
#
# Poissons Ratio (x) = -0.03878 0.26384
# Poissons Ratio (y) = -0.21555 -0.14570
# Poissons Ratio (z) = 0.20305 -0.02017
#
# Static dielectric constant tensor:
#      x y z
#    x 1.772610 0.000000 -0.011930 
#    y 0.000000 1.713940 0.000000 
#    z -0.011930 0.000000 1.736820 
# 
# From -- ./inp_files/276517.got.cif
#   From: 2010.05.17/outbox.cif.g08.bks.cpg/sg15_139_cif.got.tgz:276517.got - 2010.06.03 18:47:42.
