data_PCOD9260158
_publ_section_title
;
Structure prediction by ZEFSAII (Michael W. Deem and Ramdas Pophale) SiO2 
 PCOD9260158
Probable space group: C 2/C
;
_chemical_formula_sum "Si O2"
_cell_formula_units_Z 48
_cell_length_a 9.659137
_cell_length_b 17.922616
_cell_length_c 18.751359
_cell_angle_alpha 90.000000
_cell_angle_beta 129.326165
_cell_angle_gamma 90.000000
_cell_volume 2511.084702
_symmetry_space_group_name_H-M "C 2/C"
_symmetry_group_IT_number 15
_symmetry_cell_setting 'monoclinic'
loop_
_space_group_symop_operation_xyz
x,y,z
-x,y,1/2-z
-x,-y,-z
x,-y,1/2+z
1/2+x,1/2+y,z
1/2-x,1/2+y,1/2-z
1/2-x,1/2-y,-z
1/2+x,1/2-y,1/2+z
loop_
_atom_site_type_symbol
_atom_site_label
_atom_site_fract_x
_atom_site_fract_y
_atom_site_fract_z
Si Si1 0.153074 0.172915 0.487630
Si Si2 0.381877 0.602445 0.784085
Si Si3 0.005142 0.412839 0.099468
Si Si4 0.617166 0.317598 0.473293
Si Si5 0.637360 0.056758 0.493465
Si Si6 0.457779 0.546107 0.153740
O O1 0.250000 0.250000 0.500000
O O2 0.320679 0.121508 0.567022
O O3 0.061735 0.122449 0.396119
O O4 0.000880 0.189942 0.495200
O O5 0.500000 0.600673 0.750000
O O6 0.177401 0.615773 0.697292
O O7 0.475333 0.663023 0.864522
O O8 0.401289 0.518660 0.822988
O O9 0.987024 0.502707 0.093116
O O10 0.040180 0.398264 0.025689
O O11 0.750000 0.250000 0.500000
O O12 0.745422 0.389689 0.516362
O O13 0.773895 0.000103 0.578888
O O14 0.500000 0.562115 0.250000
#
# Coordination Sequence:
#
# PCOD9260158 Si02
#       6
#     8   8   8   8   8   8
#     4  11  25  39  57  89 126 164 204 251 305 365
#     4  10  19  38  67  93 117 157 206 251 303 370
#     4  10  18  36  63  93 119 151 205 251 301 359
#     4  11  23  42  60  85 126 172 203 245 311 369
#     4   9  18  34  67  90 117 160 199 242 306 371
#     4   9  17  37  62  90 116 156 198 250 301 363
#
# _framework density 19.115245000000002
#
# number of rings (size 3 to 8) (size 9 to 14) (size 15 to 20)
#    0.000    2.000    5.000    1.000    0.000    6.667 
#    3.000    0.000    0.000    0.000    0.000    0.000 
#    0.000    0.000    0.000    0.000    0.000    0.000 
#
# Total GULP energy -133641.675622 kJ/mol
# GULP energy per Si atom -5568.403151 kJ/mol
# Density = 1.907174 g / cm^3
# Si number density = 19.115245 Si / 1000 Ang^3
#
#
#
# Elastic Constant Matrix: (Units=GPa)
#
#
# Indices 1 2 3 4 5 6 
#
# 1 134.7115 61.7872 29.7655 0.0000 0.1714 0.0000
# 2 61.7872 110.3092 52.1005 0.0000 -9.5663 0.0000
# 3 29.7655 52.1005 91.5045 0.0000 8.1669 0.0000
# 4 0.0000 0.0000 0.0000 8.9809 0.0000 -1.9867
# 5 0.1714 -9.5663 8.1669 0.0000 24.0133 0.0000
# 6 0.0000 0.0000 0.0000 -1.9867 0.0000 30.4567
#
#
#
# Elastic Compliance Matrix: (Units=1/GPa)
#
#
# Indices 1 2 3 4 5 6 
#
# 1 0.010133 -0.006100 0.000413 0.000000 -0.002643 0.000000
# 2 -0.006100 0.017568 -0.008918 0.000000 0.010075 0.000000
# 3 0.000413 -0.008918 0.016696 0.000000 -0.009234 0.000000
# 4 0.000000 0.000000 0.000000 0.112978 0.000000 0.007370
# 5 -0.002643 0.010075 -0.009234 0.000000 0.048816 0.000000
# 6 0.000000 0.000000 0.000000 0.007370 0.000000 0.033314
#
#
# Mechanical properties :
#
#
# Convention : Reuss Voigt Hill
#
# Bulk Modulus (GPa) = 65.84509 69.31461 67.57985
# Shear Modulus (GPa) = 18.26300 25.54833 21.90566
#
# Velocity S-wave (km/s) = 3.09433 3.65984 3.38890
# Velocity P-wave (km/s) = 6.87660 7.36202 7.12345
#
# Compressibility (1/GPa) = 0.01518716
#
# Stress axis : x y z
#
# Youngs Moduli (GPa) = 98.68439 56.92185 59.89556
#
# Poissons Ratio (x) = 0.34723 -0.02473
# Poissons Ratio (y) = 0.60199 0.53413
# Poissons Ratio (z) = -0.04075 0.50761
#
# Static dielectric constant tensor:
#      x y z
#    x 1.698030 0.000000 0.008080 
#    y 0.000000 1.710600 0.000000 
#    z 0.008080 0.000000 1.700450 
# 
# From -- ./inp_files/190640.got.cif
#   From: 2010.05.17/outbox.cif.g08.bks.cpg/sg15_96_cif.got.tgz:190640.got - 2010.06.03 18:47:42.
