data_PCOD9260824
_publ_section_title
;
Structure prediction by ZEFSAII (Michael W. Deem and Ramdas Pophale) SiO2 
 PCOD9260824
Probable space group: C 2/C
;
_chemical_formula_sum "Si O2"
_cell_formula_units_Z 60
_cell_length_a 16.984351
_cell_length_b 27.201803
_cell_length_c 5.640052
_cell_angle_alpha 90.000000
_cell_angle_beta 77.202945
_cell_angle_gamma 90.000000
_cell_volume 2541.007601
_symmetry_space_group_name_H-M "C 2/C"
_symmetry_group_IT_number 15
_symmetry_cell_setting 'monoclinic'
loop_
_space_group_symop_operation_xyz
x,y,z
-x,y,1/2-z
-x,-y,-z
x,-y,1/2+z
1/2+x,1/2+y,z
1/2-x,1/2+y,1/2-z
1/2-x,1/2-y,-z
1/2+x,1/2-y,1/2+z
loop_
_atom_site_type_symbol
_atom_site_label
_atom_site_fract_x
_atom_site_fract_y
_atom_site_fract_z
Si Si1 0.558257 0.215726 0.395189
Si Si2 0.622389 0.700827 0.152688
Si Si3 0.823900 0.877211 0.282153
Si Si4 0.324508 0.906191 0.404921
Si Si5 0.000000 0.371619 0.250000
Si Si6 0.072615 0.103566 0.380466
Si Si7 0.724305 0.816835 0.732855
Si Si8 0.211022 0.972272 0.687384
O O1 0.500000 0.240994 0.250000
O O2 0.578566 0.251295 0.595857
O O3 0.518753 0.165330 0.518016
O O4 0.642685 0.207351 0.203456
O O5 0.643814 0.663436 0.922921
O O6 0.576003 0.662862 0.353215
O O7 0.707041 0.717616 0.208210
O O8 0.749305 0.910342 0.233728
O O9 0.902626 0.902367 0.355137
O O10 0.773057 0.847949 0.512068
O O11 0.417481 0.902555 0.264437
O O12 0.306029 0.854170 0.543323
O O13 0.301141 0.949387 0.603373
O O14 0.000000 0.088218 0.250000
O O15 0.148057 0.073368 0.220395
O O16 0.198033 0.995653 0.957105
#
# Coordination Sequence:
#
# PCOD9260824 Si02
#       8
#     8   8   8   8   4   8   8   8
#     4  11  23  35  54  98 128 173 230 284 329 383
#     4  10  22  36  60  89 129 180 223 276 331 411
#     4  10  18  38  65  86 129 182 226 269 343 422
#     4  10  20  43  67  98 128 183 221 278 366 412
#     4  10  24  42  68  92 144 176 228 288 336 418
#     4  11  25  42  65  97 134 184 218 279 356 412
#     4   9  19  37  61  83 126 178 226 271 335 416
#     4  12  26  47  77 108 137 179 236 302 359 437
#
# _framework density 23.612679
#
# number of rings (size 3 to 8) (size 9 to 14) (size 15 to 20)
#    0.000    1.600    4.000    2.000    2.800    2.133 
#    0.000    0.667    0.000    0.000    0.000    0.000 
#    0.000    0.000    0.000    0.000    0.000    0.000 
#
# Total GULP energy -167196.903787 kJ/mol
# GULP energy per Si atom -5573.230126 kJ/mol
# Density = 2.355894 g / cm^3
# Si number density = 23.612679 Si / 1000 Ang^3
#
#
#
# Elastic Constant Matrix: (Units=GPa)
#
#
# Indices 1 2 3 4 5 6 
#
# 1 119.8152 10.2235 18.7015 0.0000 13.7857 0.0000
# 2 10.2235 47.4088 -4.8252 0.0000 1.2039 0.0000
# 3 18.7015 -4.8252 56.2854 0.0000 12.5724 0.0000
# 4 0.0000 0.0000 0.0000 -73.0596 0.0000 -241.0418
# 5 13.7857 1.2039 12.5724 0.0000 27.8146 0.0000
# 6 0.0000 0.0000 0.0000 -241.0418 0.0000 -474.4175
#
#
#
# Elastic Compliance Matrix: (Units=1/GPa)
#
#
# Indices 1 2 3 4 5 6 
#
# 1 0.009316 -0.002180 -0.002527 0.000000 -0.003380 0.000000
# 2 -0.002180 0.021884 0.002859 0.000000 -0.001159 0.000000
# 3 -0.002527 0.002859 0.020688 0.000000 -0.008222 0.000000
# 4 0.000000 0.000000 0.000000 0.020239 0.000000 -0.010283
# 5 -0.003380 -0.001159 -0.008222 0.000000 0.041395 0.000000
# 6 0.000000 0.000000 0.000000 -0.010283 0.000000 0.003117
#
#
# Mechanical properties :
#
#
# Convention : Reuss Voigt Hill
#
# Bulk Modulus (GPa) = 20.75055 30.18989 25.47022
# Shear Modulus (GPa) = 36.65749 -90.63852 -26.99052
#
# Velocity S-wave (km/s) = 3.94439 -6.20233 -3.38457
# Velocity P-wave (km/s) = 5.43610 6.20311 2.11274
#
# Compressibility (1/GPa) = 0.04819150
#
# Stress axis : x y z
#
# Youngs Moduli (GPa) = 107.34674 45.69604 48.33723
#
# Poissons Ratio (x) = 0.09963 0.12215
# Poissons Ratio (y) = 0.23404 -0.13821
# Poissons Ratio (z) = 0.27127 -0.13066
#
# Static dielectric constant tensor:
#      x y z
#    x 1.974790 0.000000 0.045720 
#    y 0.000000 1.908220 0.000000 
#    z 0.045720 0.000000 2.017670 
# 
# From -- ./inp_files/11566.got.cif
#   From: 2010.05.17/outbox.cif.g08.bks.cpg/sg15_6_cif.got.tgz:11566.got - 2010.06.03 18:47:42.
