data_PCOD9260121
_publ_section_title
;
Structure prediction by ZEFSAII (Michael W. Deem and Ramdas Pophale) SiO2 
 PCOD9260121
Probable space group: C 2/C
;
_chemical_formula_sum "Si O2"
_cell_formula_units_Z 52
_cell_length_a 11.121967
_cell_length_b 30.540043
_cell_length_c 8.638980
_cell_angle_alpha 90.000000
_cell_angle_beta 114.350137
_cell_angle_gamma 90.000000
_cell_volume 2673.329614
_symmetry_space_group_name_H-M "C 2/C"
_symmetry_group_IT_number 15
_symmetry_cell_setting 'monoclinic'
loop_
_space_group_symop_operation_xyz
x,y,z
-x,y,1/2-z
-x,-y,-z
x,-y,1/2+z
1/2+x,1/2+y,z
1/2-x,1/2+y,1/2-z
1/2-x,1/2-y,-z
1/2+x,1/2-y,1/2+z
loop_
_atom_site_type_symbol
_atom_site_label
_atom_site_fract_x
_atom_site_fract_y
_atom_site_fract_z
Si Si1 0.000000 0.199108 0.750000
Si Si2 0.319261 0.082901 0.265835
Si Si3 0.605820 0.985517 0.180963
Si Si4 0.342066 0.656749 0.176202
Si Si5 0.842988 0.235681 0.407148
Si Si6 0.884677 0.599775 0.959111
Si Si7 0.761319 0.322945 0.221370
O O1 0.132509 0.173858 0.768401
O O2 0.973862 0.226391 0.577791
O O3 0.209843 0.108746 0.303415
O O4 0.323537 0.103517 0.097131
O O5 0.460200 0.092437 0.422676
O O6 0.313712 0.029887 0.241143
O O7 0.500000 0.969777 0.250000
O O8 0.678057 0.943244 0.154815
O O9 0.500000 0.000000 0.000000
O O10 0.500000 0.657491 0.250000
O O11 0.306153 0.692403 0.290455
O O12 0.281976 0.669719 0.978004
O O13 0.750000 0.250000 0.500000
O O14 0.831983 0.276281 0.285230
O O15 0.859744 0.640290 0.836079
#
# Coordination Sequence:
#
# PCOD9260121 Si02
#       7
#     4   8   8   8   8   8   8
#     4  10  20  42  64  88 128 168 198 252 320 368
#     4  10  21  40  62  92 129 166 205 260 313 371
#     4  10  18  36  62  92 127 161 201 260 318 359
#     4  12  25  43  64  91 130 167 207 258 311 371
#     4  10  22  42  64  86 118 166 208 250 306 363
#     4  10  22  37  64  98 125 164 209 260 315 369
#     4  11  24  38  65  94 125 166 208 256 305 378
#
# _framework density 19.451398000000001
#
# number of rings (size 3 to 8) (size 9 to 14) (size 15 to 20)
#    0.000    1.538    4.615    2.308    4.308    3.692 
#    2.769    0.000    1.692    1.846    0.000    0.000 
#    0.000    0.000    0.000    0.000    0.000    0.000 
#
# Total GULP energy -144757.908918 kJ/mol
# GULP energy per Si atom -5567.611881 kJ/mol
# Density = 1.940713 g / cm^3
# Si number density = 19.451398 Si / 1000 Ang^3
#
#
#
# Elastic Constant Matrix: (Units=GPa)
#
#
# Indices 1 2 3 4 5 6 
#
# 1 39.1596 20.3070 15.6973 0.0000 -11.7477 0.0000
# 2 20.3070 103.3743 34.5135 0.0000 0.6915 0.0000
# 3 15.6973 34.5135 125.8163 0.0000 -6.2597 0.0000
# 4 0.0000 0.0000 0.0000 29.2387 0.0000 -16.6473
# 5 -11.7477 0.6915 -6.2597 0.0000 20.5685 0.0000
# 6 0.0000 0.0000 0.0000 -16.6473 0.0000 8.4358
#
#
#
# Elastic Compliance Matrix: (Units=1/GPa)
#
#
# Indices 1 2 3 4 5 6 
#
# 1 0.035631 -0.006586 -0.001640 0.000000 0.020073 0.000000
# 2 -0.006586 0.011899 -0.002690 0.000000 -0.004980 0.000000
# 3 -0.001640 -0.002690 0.008985 0.000000 0.001888 0.000000
# 4 0.000000 0.000000 0.000000 -0.276759 0.000000 -0.546159
# 5 0.020073 -0.004980 0.001888 0.000000 0.060825 0.000000
# 6 0.000000 0.000000 0.000000 -0.546159 0.000000 -0.959252
#
#
# Mechanical properties :
#
#
# Convention : Reuss Voigt Hill
#
# Bulk Modulus (GPa) = 28.83354 45.48732 37.16043
# Shear Modulus (GPa) = -4.60711 24.83744 10.11516
#
# Velocity S-wave (km/s) = -1.54067 3.57725 2.28287
# Velocity P-wave (km/s) = 3.41916 6.36381 5.10827
#
# Compressibility (1/GPa) = 0.03468183
#
# Stress axis : x y z
#
# Youngs Moduli (GPa) = 28.06537 84.04179 111.30149
#
# Poissons Ratio (x) = 0.55351 0.18254
# Poissons Ratio (y) = 0.18484 0.29942
# Poissons Ratio (z) = 0.04603 0.22608
#
# Static dielectric constant tensor:
#      x y z
#    x 1.721340 0.000000 0.015570 
#    y 0.000000 1.714390 0.000000 
#    z 0.015570 0.000000 1.685570 
# 
# From -- ./inp_files/33726.got.cif
#   From: 2010.05.17/outbox.cif.g08.bks.cpg/sg15_17_cif.got.tgz:33726.got - 2010.06.03 18:47:42.
