data_PCOD9260332
_publ_section_title
;
Structure prediction by ZEFSAII (Michael W. Deem and Ramdas Pophale) SiO2 
 PCOD9260332
Probable space group: C 2/C
;
_chemical_formula_sum "Si O2"
_cell_formula_units_Z 52
_cell_length_a 23.639651
_cell_length_b 7.001118
_cell_length_c 21.831907
_cell_angle_alpha 90.000000
_cell_angle_beta 120.414608
_cell_angle_gamma 90.000000
_cell_volume 3116.026449
_symmetry_space_group_name_H-M "C 2/C"
_symmetry_group_IT_number 15
_symmetry_cell_setting 'monoclinic'
loop_
_space_group_symop_operation_xyz
x,y,z
-x,y,1/2-z
-x,-y,-z
x,-y,1/2+z
1/2+x,1/2+y,z
1/2-x,1/2+y,1/2-z
1/2-x,1/2-y,-z
1/2+x,1/2-y,1/2+z
loop_
_atom_site_type_symbol
_atom_site_label
_atom_site_fract_x
_atom_site_fract_y
_atom_site_fract_z
Si Si1 0.913026 0.365711 0.001224
Si Si2 0.567500 0.921926 0.756179
Si Si3 0.971176 0.343968 0.900665
Si Si4 0.000000 0.791215 0.750000
Si Si5 0.834968 0.773244 0.102213
Si Si6 0.724561 0.947778 0.515763
Si Si7 0.548920 0.499359 0.898125
O O1 0.928351 0.169995 0.045269
O O2 0.965239 0.520527 0.055302
O O3 0.927107 0.355011 0.936782
O O4 0.838657 0.415898 0.976679
O O5 0.500000 0.840938 0.750000
O O6 0.563127 0.905157 0.681189
O O7 0.627381 0.810065 0.818568
O O8 0.560726 0.144742 0.771398
O O9 0.997144 0.131047 0.904476
O O10 0.983004 0.910848 0.680712
O O11 0.782215 0.940514 0.082724
O O12 0.890345 0.867563 0.089030
O O13 0.799734 0.594648 0.050154
O O14 0.750000 0.750000 0.500000
#
# Coordination Sequence:
#
# PCOD9260332 Si02
#       7
#     8   8   8   4   8   8   8
#     4  11  22  38  57  87 123 155 190 235 297 352
#     4  10  18  37  56  86 118 145 190 242 296 340
#     4  11  22  37  60  87 123 150 187 245 299 356
#     4  10  20  30  62  88 122 144 184 246 300 344
#     4  11  22  34  62  86 113 153 197 243 286 340
#     4  11  22  39  59  83 116 157 199 238 281 348
#     4  12  18  35  56  92 116 148 189 238 300 345
#
# _framework density 16.687919000000001
#
# number of rings (size 3 to 8) (size 9 to 14) (size 15 to 20)
#    0.462    0.615    6.154    2.308    0.000    0.000 
#    0.000    0.000    3.385    0.000    0.000    0.000 
#    0.000    0.000    0.000    0.000    0.000    0.000 
#
# Total GULP energy -145049.181488 kJ/mol
# GULP energy per Si atom -5578.814673 kJ/mol
# Density = 1.664994 g / cm^3
# Si number density = 16.687919 Si / 1000 Ang^3
#
#
#
# Elastic Constant Matrix: (Units=GPa)
#
#
# Indices 1 2 3 4 5 6 
#
# 1 108.6530 51.1010 52.7168 0.0000 -2.6188 0.0000
# 2 51.1010 111.9515 50.5152 -0.0001 -1.9757 0.0001
# 3 52.7168 50.5152 115.6292 0.0000 -9.3497 0.0000
# 4 0.0000 -0.0001 0.0000 32.1429 0.0000 6.5846
# 5 -2.6188 -1.9757 -9.3497 0.0000 25.3801 0.0000
# 6 0.0000 0.0001 0.0000 6.5846 0.0000 2.5544
#
#
#
# Elastic Compliance Matrix: (Units=1/GPa)
#
#
# Indices 1 2 3 4 5 6 
#
# 1 0.013190 -0.004107 -0.004262 0.000000 -0.000529 0.000000
# 2 -0.004107 0.012427 -0.003620 0.000000 -0.000790 -0.000001
# 3 -0.004262 -0.003620 0.012487 0.000000 0.003878 0.000000
# 4 0.000000 0.000000 0.000000 0.065921 0.000000 -0.169928
# 5 -0.000529 -0.000790 0.003878 0.000000 0.040714 0.000000
# 6 0.000000 -0.000001 0.000000 -0.169928 0.000000 0.829512
#
#
# Mechanical properties :
#
#
# Convention : Reuss Voigt Hill
#
# Bulk Modulus (GPa) = 70.79738 71.65553 71.22646
# Shear Modulus (GPa) = 4.98535 24.14219 14.56377
#
# Velocity S-wave (km/s) = 1.73029 3.80766 2.95738
# Velocity P-wave (km/s) = 6.81970 7.89701 7.37804
#
# Compressibility (1/GPa) = 0.01412482
#
# Stress axis : x y z
#
# Youngs Moduli (GPa) = 75.81283 80.47155 80.08476
#
# Poissons Ratio (x) = 0.33049 0.34134
# Poissons Ratio (y) = 0.31136 0.28994
# Poissons Ratio (z) = 0.32313 0.29134
#
# Static dielectric constant tensor:
#      x y z
#    x 1.544480 0.000000 0.015530 
#    y 0.000000 1.590250 0.000000 
#    z 0.015530 0.000000 1.550500 
# 
# From -- ./inp_files/279010.got.cif
#   From: 2010.05.17/outbox.cif.g08.bks.cpg/sg15_140_cif.got.tgz:279010.got - 2010.06.03 18:47:42.
