data_PCOD9260906
_publ_section_title
;
Structure prediction by ZEFSAII (Michael W. Deem and Ramdas Pophale) SiO2 
 PCOD9260906
Probable space group: C 2/C
;
_chemical_formula_sum "Si O2"
_cell_formula_units_Z 52
_cell_length_a 23.944207
_cell_length_b 4.892620
_cell_length_c 17.389118
_cell_angle_alpha 90.000000
_cell_angle_beta 76.875645
_cell_angle_gamma 90.000000
_cell_volume 1983.922666
_symmetry_space_group_name_H-M "C 2/C"
_symmetry_group_IT_number 15
_symmetry_cell_setting 'monoclinic'
loop_
_space_group_symop_operation_xyz
x,y,z
-x,y,1/2-z
-x,-y,-z
x,-y,1/2+z
1/2+x,1/2+y,z
1/2-x,1/2+y,1/2-z
1/2-x,1/2-y,-z
1/2+x,1/2-y,1/2+z
loop_
_atom_site_type_symbol
_atom_site_label
_atom_site_fract_x
_atom_site_fract_y
_atom_site_fract_z
Si Si1 0.806394 0.056822 0.392441
Si Si2 0.221404 0.645349 0.295179
Si Si3 0.381010 0.800249 0.230665
Si Si4 0.913352 0.840183 0.564307
Si Si5 0.500000 0.260325 0.750000
Si Si6 0.965530 0.755484 0.921728
Si Si7 0.646515 0.960661 0.540860
O O1 0.744545 0.085270 0.373192
O O2 0.849807 0.160963 0.312406
O O3 0.819431 0.259610 0.458548
O O4 0.822539 0.755360 0.413750
O O5 0.263859 0.456601 0.229251
O O6 0.159766 0.537006 0.289279
O O7 0.391652 0.592747 0.156199
O O8 0.443707 0.897955 0.238324
O O9 0.863705 0.670913 0.538607
O O10 0.972419 0.678326 0.564048
O O11 0.933393 0.069052 0.497512
O O12 0.478687 0.404936 0.835810
O O13 0.920198 0.519660 0.916536
#
# Coordination Sequence:
#
# PCOD9260906 Si02
#       7
#     8   8   8   8   4   8   8
#     4  11  23  41  72  95 130 181 233 279 327 397
#     4  10  22  43  69  98 135 177 230 289 334 390
#     4  10  21  42  68 103 136 173 234 277 344 402
#     4  10  22  41  66  98 142 183 216 278 350 405
#     4  10  18  38  70 102 132 172 224 284 328 406
#     4  10  21  40  65  96 140 179 223 271 341 407
#     4  12  21  43  65  96 133 179 222 277 338 395
#
# _framework density 26.210697
#
# number of rings (size 3 to 8) (size 9 to 14) (size 15 to 20)
#    0.000    1.538    3.077    2.308    0.000    0.000 
#    8.308    7.692    0.000    0.000    0.000    0.000 
#    0.000    0.000    0.000    0.000    0.000    0.000 
#
# Total GULP energy -145323.347117 kJ/mol
# GULP energy per Si atom -5589.359505 kJ/mol
# Density = 2.615104 g / cm^3
# Si number density = 26.210697 Si / 1000 Ang^3
#
#
#
# Elastic Constant Matrix: (Units=GPa)
#
#
# Indices 1 2 3 4 5 6 
#
# 1 175.0431 19.1952 33.6214 0.0000 33.4923 0.0000
# 2 19.1952 62.5363 8.5624 0.0000 -3.1244 0.0000
# 3 33.6214 8.5624 141.3684 0.0000 -0.8878 0.0000
# 4 0.0000 0.0000 0.0000 4.0021 0.0000 7.9101
# 5 33.4923 -3.1244 -0.8878 0.0000 51.6335 0.0000
# 6 0.0000 0.0000 0.0000 7.9101 0.0000 28.9875
#
#
#
# Elastic Compliance Matrix: (Units=1/GPa)
#
#
# Indices 1 2 3 4 5 6 
#
# 1 0.007189 -0.002228 -0.001605 0.000000 -0.004825 0.000000
# 2 -0.002228 0.016862 -0.000476 0.000000 0.002457 0.000000
# 3 -0.001605 -0.000476 0.007491 0.000000 0.001141 0.000000
# 4 0.000000 0.000000 0.000000 0.542418 0.000000 -0.148015
# 5 -0.004825 0.002457 0.001141 0.000000 0.022666 0.000000
# 6 0.000000 0.000000 0.000000 -0.148015 0.000000 0.074888
#
#
# Mechanical properties :
#
#
# Convention : Reuss Voigt Hill
#
# Bulk Modulus (GPa) = 43.62096 55.74506 49.68301
# Shear Modulus (GPa) = 7.26983 38.09589 22.68286
#
# Velocity S-wave (km/s) = 1.66722 3.81655 2.94497
# Velocity P-wave (km/s) = 4.51495 6.38245 5.52813
#
# Compressibility (1/GPa) = 0.02292476
#
# Stress axis : x y z
#
# Youngs Moduli (GPa) = 139.10589 59.30320 133.48566
#
# Poissons Ratio (x) = 0.13212 0.21425
# Poissons Ratio (y) = 0.30991 0.06354
# Poissons Ratio (z) = 0.22327 0.02823
#
# Static dielectric constant tensor:
#      x y z
#    x 2.063620 0.000000 -0.026880 
#    y 0.000000 2.029160 0.000000 
#    z -0.026880 0.000000 2.104570 
# 
# From -- ./inp_files/220943.got.cif
#   From: 2010.05.17/outbox.cif.g08.bks.cpg/sg15_111_cif.got.tgz:220943.got - 2010.06.03 18:47:42.
