data_PCOD9260148
_publ_section_title
;
Structure prediction by ZEFSAII (Michael W. Deem and Ramdas Pophale) SiO2 
 PCOD9260148
Probable space group: C 2/C
;
_chemical_formula_sum "Si O2"
_cell_formula_units_Z 48
_cell_length_a 8.449351
_cell_length_b 29.959858
_cell_length_c 8.565793
_cell_angle_alpha 90.000000
_cell_angle_beta 108.568870
_cell_angle_gamma 90.000000
_cell_volume 2055.475218
_symmetry_space_group_name_H-M "C 2/C"
_symmetry_group_IT_number 15
_symmetry_cell_setting 'monoclinic'
loop_
_space_group_symop_operation_xyz
x,y,z
-x,y,1/2-z
-x,-y,-z
x,-y,1/2+z
1/2+x,1/2+y,z
1/2-x,1/2+y,1/2-z
1/2-x,1/2-y,-z
1/2+x,1/2-y,1/2+z
loop_
_atom_site_type_symbol
_atom_site_label
_atom_site_fract_x
_atom_site_fract_y
_atom_site_fract_z
Si Si1 0.318408 0.030384 0.770545
Si Si2 0.119576 0.280510 0.634679
Si Si3 0.819965 0.384476 0.486841
Si Si4 0.158320 0.958845 0.905732
Si Si5 0.782738 0.626411 0.329362
Si Si6 0.200320 0.714623 0.622302
O O1 0.500000 0.036254 0.750000
O O2 0.282409 0.072700 0.870056
O O3 0.180423 0.027684 0.590813
O O4 0.308747 0.984752 0.864941
O O5 0.248403 0.321063 0.668538
O O6 0.204486 0.233913 0.699457
O O7 0.000000 0.291601 0.750000
O O8 0.999370 0.281557 0.448573
O O9 0.755602 0.389209 0.643147
O O10 0.758206 0.336767 0.400666
O O11 0.021483 0.379918 0.566163
O O12 0.181321 0.905770 0.907962
O O13 0.000000 0.969649 0.750000
O O14 0.250000 0.750000 0.500000
#
# Coordination Sequence:
#
# PCOD9260148 Si02
#       6
#     8   8   8   8   8   8
#     4  12  25  43  69  93 118 166 216 253 310 382
#     4   9  15  28  53  86 120 152 200 252 292 346
#     4  10  19  35  63  97 119 156 216 261 288 364
#     4  12  27  45  62  91 131 159 201 266 324 373
#     4  10  18  36  63  87 125 162 205 251 311 358
#     4   9  15  30  51  89 123 153 199 255 292 347
#
# _framework density 23.352264000000002
#
# number of rings (size 3 to 8) (size 9 to 14) (size 15 to 20)
#    0.000    1.667    6.667    2.000    2.333    0.000 
#    3.000    2.500    0.000    2.000    0.000    0.000 
#    0.000    0.000    0.000    0.000    0.000    0.000 
#
# Total GULP energy -134072.604411 kJ/mol
# GULP energy per Si atom -5586.358517 kJ/mol
# Density = 2.329911 g / cm^3
# Si number density = 23.352264 Si / 1000 Ang^3
#
#
#
# Elastic Constant Matrix: (Units=GPa)
#
#
# Indices 1 2 3 4 5 6 
#
# 1 23.9886 14.1779 0.2529 0.0000 -0.6195 0.0000
# 2 14.1779 118.8213 31.0196 0.0000 -3.7134 0.0000
# 3 0.2529 31.0196 94.0274 0.0000 19.4290 0.0000
# 4 0.0000 0.0000 0.0000 36.4115 0.0000 2.0205
# 5 -0.6195 -3.7134 19.4290 0.0000 18.2486 0.0000
# 6 0.0000 0.0000 0.0000 2.0205 0.0000 17.4851
#
#
#
# Elastic Compliance Matrix: (Units=1/GPa)
#
#
# Indices 1 2 3 4 5 6 
#
# 1 0.045193 -0.006070 0.002332 0.000000 -0.002184 0.000000
# 2 -0.006070 0.010678 -0.005016 0.000000 0.007308 0.000000
# 3 0.002332 -0.005016 0.015998 0.000000 -0.017974 0.000000
# 4 0.000000 0.000000 0.000000 0.027641 0.000000 -0.003194
# 5 -0.002184 0.007308 -0.017974 0.000000 0.075349 0.000000
# 6 0.000000 0.000000 0.000000 -0.003194 0.000000 0.057561
#
#
# Mechanical properties :
#
#
# Convention : Reuss Voigt Hill
#
# Bulk Modulus (GPa) = 18.39552 36.41534 27.40543
# Shear Modulus (GPa) = 18.65342 27.18816 22.92079
#
# Velocity S-wave (km/s) = 2.82934 3.41583 3.13633
# Velocity P-wave (km/s) = 4.30907 5.58435 4.98764
#
# Compressibility (1/GPa) = 0.05436107
#
# Stress axis : x y z
#
# Youngs Moduli (GPa) = 22.12741 93.64879 62.50822
#
# Poissons Ratio (x) = 0.56840 -0.14577
# Poissons Ratio (y) = 0.13430 0.31357
# Poissons Ratio (z) = -0.05160 0.46978
#
# Static dielectric constant tensor:
#      x y z
#    x 1.944640 0.000000 -0.003500 
#    y 0.000000 1.837150 0.000000 
#    z -0.003500 0.000000 1.921940 
# 
# From -- ./inp_files/33793.got.cif
#   From: 2010.05.17/outbox.cif.g08.bks.cpg/sg15_17_cif.got.tgz:33793.got - 2010.06.03 18:47:42.
