data_PCOD9260604
_publ_section_title
;
Structure prediction by ZEFSAII (Michael W. Deem and Ramdas Pophale) SiO2 
 PCOD9260604
Probable space group: C 2/C
;
_chemical_formula_sum "Si O2"
_cell_formula_units_Z 44
_cell_length_a 9.999034
_cell_length_b 14.718887
_cell_length_c 16.763399
_cell_angle_alpha 90.000000
_cell_angle_beta 119.796747
_cell_angle_gamma 90.000000
_cell_volume 2140.974897
_symmetry_space_group_name_H-M "C 2/C"
_symmetry_group_IT_number 15
_symmetry_cell_setting 'monoclinic'
loop_
_space_group_symop_operation_xyz
x,y,z
-x,y,1/2-z
-x,-y,-z
x,-y,1/2+z
1/2+x,1/2+y,z
1/2-x,1/2+y,1/2-z
1/2-x,1/2-y,-z
1/2+x,1/2-y,1/2+z
loop_
_atom_site_type_symbol
_atom_site_label
_atom_site_fract_x
_atom_site_fract_y
_atom_site_fract_z
Si Si1 0.000000 0.096898 0.750000
Si Si2 0.496102 0.160089 0.932787
Si Si3 0.295771 0.975088 0.266592
Si Si4 0.165731 0.311058 0.332152
Si Si5 0.413098 0.160305 0.357850
Si Si6 0.297421 0.747728 0.605871
O O1 0.881706 0.038378 0.764453
O O2 0.893652 0.159981 0.662669
O O3 0.407193 0.077152 0.863131
O O4 0.639090 0.186434 0.918989
O O5 0.365414 0.240074 0.896958
O O6 0.543603 0.137308 0.037237
O O7 0.318200 0.914925 0.193899
O O8 0.330328 0.080122 0.286622
O O9 0.303190 0.249424 0.337049
O O10 0.000000 0.277557 0.250000
O O11 0.569926 0.177234 0.355018
O O12 0.250000 0.750000 0.500000
#
# Coordination Sequence:
#
# PCOD9260604 Si02
#       6
#     4   8   8   8   8   8
#     4  10  18  38  56  86 126 162 202 272 300 364
#     4   9  20  39  60  89 124 154 201 262 317 367
#     4  10  21  36  61  86 123 159 212 248 310 373
#     4  10  21  39  56  91 122 158 200 257 306 369
#     4  11  20  37  66  87 118 166 205 251 315 375
#     4   9  19  36  63  91 116 160 210 249 309 371
#
# _framework density 20.551383999999999
#
# number of rings (size 3 to 8) (size 9 to 14) (size 15 to 20)
#    0.000    2.182    1.818    1.091    1.273    0.000 
#    4.909    0.000    0.000    1.091    0.000    0.000 
#    0.000    0.000    0.000    0.000    0.000    0.000 
#
# Total GULP energy -122525.286348 kJ/mol
# GULP energy per Si atom -5569.331198 kJ/mol
# Density = 2.050461 g / cm^3
# Si number density = 20.551384 Si / 1000 Ang^3
#
#
#
# Elastic Constant Matrix: (Units=GPa)
#
#
# Indices 1 2 3 4 5 6 
#
# 1 124.3401 50.0549 37.4183 0.0000 -9.8753 0.0000
# 2 50.0549 73.2895 25.6262 0.0000 -13.8868 0.0000
# 3 37.4183 25.6262 78.4442 0.0000 -7.4136 0.0000
# 4 0.0000 0.0000 0.0000 19.0752 0.0000 -0.2152
# 5 -9.8753 -13.8868 -7.4136 0.0000 26.5115 0.0000
# 6 0.0000 0.0000 0.0000 -0.2152 0.0000 6.0427
#
#
#
# Elastic Compliance Matrix: (Units=1/GPa)
#
#
# Indices 1 2 3 4 5 6 
#
# 1 0.011843 -0.006931 -0.003401 0.000000 -0.000170 0.000000
# 2 -0.006931 0.020772 -0.002768 0.000000 0.007524 0.000000
# 3 -0.003401 -0.002768 0.015425 0.000000 0.001597 0.000000
# 4 0.000000 0.000000 0.000000 0.052445 0.000000 0.001868
# 5 -0.000170 0.007524 0.001597 0.000000 0.042044 0.000000
# 6 0.000000 0.000000 0.000000 0.001868 0.000000 0.165556
#
#
# Mechanical properties :
#
#
# Convention : Reuss Voigt Hill
#
# Bulk Modulus (GPa) = 45.78955 55.80806 50.79880
# Shear Modulus (GPa) = 14.63843 21.19082 17.91463
#
# Velocity S-wave (km/s) = 2.67176 3.21458 2.95566
# Velocity P-wave (km/s) = 5.64328 6.40253 6.03486
#
# Compressibility (1/GPa) = 0.02183905
#
# Stress axis : x y z
#
# Youngs Moduli (GPa) = 84.44033 48.14113 64.82824
#
# Poissons Ratio (x) = 0.33369 0.22046
# Poissons Ratio (y) = 0.58529 0.17947
# Poissons Ratio (z) = 0.28716 0.13328
#
# Static dielectric constant tensor:
#      x y z
#    x 1.778470 0.000000 -0.023800 
#    y 0.000000 1.752660 0.000000 
#    z -0.023800 0.000000 1.756520 
# 
# From -- ./inp_files/182236.got.cif
#   From: 2010.05.17/outbox.cif.g08.bks.cpg/sg15_92_cif.got.tgz:182236.got - 2010.06.03 18:47:42.
