data_PCOD9260064
_publ_section_title
;
Structure prediction by ZEFSAII (Michael W. Deem and Ramdas Pophale) SiO2 
 PCOD9260064
Probable space group: C 2/C
;
_chemical_formula_sum "Si O2"
_cell_formula_units_Z 44
_cell_length_a 12.086870
_cell_length_b 20.146116
_cell_length_c 8.209732
_cell_angle_alpha 90.000000
_cell_angle_beta 111.131356
_cell_angle_gamma 90.000000
_cell_volume 1864.671746
_symmetry_space_group_name_H-M "C 2/C"
_symmetry_group_IT_number 15
_symmetry_cell_setting 'monoclinic'
loop_
_space_group_symop_operation_xyz
x,y,z
-x,y,1/2-z
-x,-y,-z
x,-y,1/2+z
1/2+x,1/2+y,z
1/2-x,1/2+y,1/2-z
1/2-x,1/2-y,-z
1/2+x,1/2-y,1/2+z
loop_
_atom_site_type_symbol
_atom_site_label
_atom_site_fract_x
_atom_site_fract_y
_atom_site_fract_z
Si Si1 0.136569 0.982628 0.274969
Si Si2 0.343019 0.607058 0.033369
Si Si3 0.271108 0.127411 0.010161
Si Si4 0.945012 0.204803 0.445922
Si Si5 0.867920 0.321878 0.216243
Si Si6 0.000000 0.310293 0.750000
O O1 0.156579 0.947446 0.112794
O O2 0.225384 0.945918 0.446974
O O3 0.000000 0.968934 0.250000
O O4 0.151850 0.061866 0.301968
O O5 0.225794 0.651991 0.963286
O O6 0.456040 0.652195 0.051517
O O7 0.314718 0.152688 0.857385
O O8 0.159268 0.170219 0.008454
O O9 0.383476 0.143798 0.182134
O O10 0.885640 0.244006 0.263289
O O11 0.001034 0.261308 0.593873
O O12 0.000000 0.347888 0.250000
#
# Coordination Sequence:
#
# PCOD9260064 Si02
#       6
#     8   8   8   8   8   4
#     4  11  22  43  65 100 131 171 228 275 325 390
#     4  11  24  43  69  99 132 174 225 277 332 393
#     4  10  21  39  66  93 130 175 222 268 322 402
#     4  11  20  39  70  95 132 168 220 284 327 393
#     4  10  23  42  60  97 137 172 215 269 341 392
#     4  10  18  36  62 100 124 170 216 260 332 394
#
# _framework density 23.596648999999999
#
# number of rings (size 3 to 8) (size 9 to 14) (size 15 to 20)
#    0.000    1.455    1.818    6.000    0.000    1.455 
#    8.182    1.818    0.000    0.000    0.000    0.000 
#    0.000    0.000    0.000    0.000    0.000    0.000 
#
# Total GULP energy -123087.057162 kJ/mol
# GULP energy per Si atom -5594.866235 kJ/mol
# Density = 2.354294 g / cm^3
# Si number density = 23.596649 Si / 1000 Ang^3
#
#
#
# Elastic Constant Matrix: (Units=GPa)
#
#
# Indices 1 2 3 4 5 6 
#
# 1 169.7651 73.1836 39.4745 0.0000 23.5945 0.0000
# 2 73.1836 131.7459 59.1700 0.0000 15.6914 0.0000
# 3 39.4745 59.1700 93.3137 0.0000 14.1657 0.0000
# 4 0.0000 0.0000 0.0000 63.4041 0.0000 3.3510
# 5 23.5945 15.6914 14.1657 0.0000 39.5637 0.0000
# 6 0.0000 0.0000 0.0000 3.3510 0.0000 29.0218
#
#
#
# Elastic Compliance Matrix: (Units=1/GPa)
#
#
# Indices 1 2 3 4 5 6 
#
# 1 0.008129 -0.003932 -0.000472 0.000000 -0.003119 0.000000
# 2 -0.003932 0.012652 -0.006296 0.000000 -0.000419 0.000000
# 3 -0.000472 -0.006296 0.015319 0.000000 -0.002707 0.000000
# 4 0.000000 0.000000 0.000000 0.015869 0.000000 -0.001832
# 5 -0.003119 -0.000419 -0.002707 0.000000 0.028271 0.000000
# 6 0.000000 0.000000 0.000000 -0.001832 0.000000 0.034668
#
#
# Mechanical properties :
#
#
# Convention : Reuss Voigt Hill
#
# Bulk Modulus (GPa) = 68.02378 82.05345 75.03861
# Shear Modulus (GPa) = 35.40891 41.26438 38.33664
#
# Velocity S-wave (km/s) = 3.87795 4.18633 4.03509
# Velocity P-wave (km/s) = 6.99583 7.62994 7.31975
#
# Compressibility (1/GPa) = 0.01470074
#
# Stress axis : x y z
#
# Youngs Moduli (GPa) = 123.01957 79.03922 65.27799
#
# Poissons Ratio (x) = 0.31078 0.03081
# Poissons Ratio (y) = 0.48371 0.41097
# Poissons Ratio (z) = 0.05805 0.49760
#
# Static dielectric constant tensor:
#      x y z
#    x 1.852430 0.000000 -0.009570 
#    y 0.000000 1.903540 0.000000 
#    z -0.009570 0.000000 2.035660 
# 
# From -- ./inp_files/31007.got.cif
#   From: 2010.05.17/outbox.cif.g08.bks.cpg/sg15_16_cif.got.tgz:31007.got - 2010.06.03 18:47:42.
