data_PCOD9260758
_publ_section_title
;
Structure prediction by ZEFSAII (Michael W. Deem and Ramdas Pophale) SiO2 
 PCOD9260758
Probable space group: C 2/C
;
_chemical_formula_sum "Si O2"
_cell_formula_units_Z 60
_cell_length_a 17.639539
_cell_length_b 7.591446
_cell_length_c 21.916953
_cell_angle_alpha 90.000000
_cell_angle_beta 80.474306
_cell_angle_gamma 90.000000
_cell_volume 2894.422805
_symmetry_space_group_name_H-M "C 2/C"
_symmetry_group_IT_number 15
_symmetry_cell_setting 'monoclinic'
loop_
_space_group_symop_operation_xyz
x,y,z
-x,y,1/2-z
-x,-y,-z
x,-y,1/2+z
1/2+x,1/2+y,z
1/2-x,1/2+y,1/2-z
1/2-x,1/2-y,-z
1/2+x,1/2-y,1/2+z
loop_
_atom_site_type_symbol
_atom_site_label
_atom_site_fract_x
_atom_site_fract_y
_atom_site_fract_z
Si Si1 0.228790 0.909804 0.818788
Si Si2 0.541907 0.091651 0.394780
Si Si3 0.000000 0.197938 0.250000
Si Si4 0.932918 0.974859 0.152314
Si Si5 0.742198 0.570685 0.461739
Si Si6 0.422617 0.397587 0.524153
Si Si7 0.901709 0.504337 0.982176
Si Si8 0.860673 0.415025 0.226233
O O1 0.245748 0.895731 0.888698
O O2 0.194309 0.731077 0.796387
O O3 0.157277 0.047173 0.817497
O O4 0.305565 0.962317 0.773199
O O5 0.530275 0.291847 0.373965
O O6 0.465306 0.978347 0.420482
O O7 0.581853 0.100214 0.456197
O O8 0.593543 0.005831 0.335369
O O9 0.924588 0.320546 0.260134
O O10 0.984357 0.069515 0.195400
O O11 0.924082 0.108342 0.096938
O O12 0.750000 0.750000 0.500000
O O13 0.655716 0.502596 0.484723
O O14 0.816077 0.459962 0.471236
O O15 0.500000 0.500000 0.500000
O O16 0.414267 0.203033 0.498096
#
# Coordination Sequence:
#
# PCOD9260758 Si02
#       8
#     8   8   4   8   8   8   8   8
#     4  10  22  42  66  88 135 167 214 268 340 382
#     4  11  22  38  66  90 133 167 218 262 332 389
#     4  10  24  42  64  90 126 162 224 266 322 384
#     4  10  21  42  62  92 125 171 209 266 319 396
#     4   9  19  37  61  90 124 162 211 261 317 380
#     4  10  18  38  63  87 126 166 207 262 322 375
#     4  10  21  38  61  96 124 169 213 267 322 388
#     4  11  23  42  63  95 126 174 213 278 325 398
#
# _framework density 20.729523
#
# number of rings (size 3 to 8) (size 9 to 14) (size 15 to 20)
#    0.000    1.867    1.333    4.000    1.867    0.533 
#    4.800    6.667    0.000    0.000    0.000    0.000 
#    0.000    0.000    0.000    0.000    0.000    0.000 
#
# Total GULP energy -167335.281847 kJ/mol
# GULP energy per Si atom -5577.842728 kJ/mol
# Density = 2.068234 g / cm^3
# Si number density = 20.729523 Si / 1000 Ang^3
#
#
#
# Elastic Constant Matrix: (Units=GPa)
#
#
# Indices 1 2 3 4 5 6 
#
# 1 165.9012 34.3805 72.8084 0.0000 1.1015 0.0000
# 2 34.3805 57.7197 29.5704 0.0000 -4.5771 0.0000
# 3 72.8084 29.5704 111.5473 0.0000 -11.0916 0.0000
# 4 0.0000 0.0000 0.0000 33.5998 0.0000 -6.9591
# 5 1.1015 -4.5771 -11.0916 0.0000 40.4538 0.0000
# 6 0.0000 0.0000 0.0000 -6.9591 0.0000 25.4542
#
#
#
# Elastic Compliance Matrix: (Units=1/GPa)
#
#
# Indices 1 2 3 4 5 6 
#
# 1 0.008942 -0.002769 -0.005302 0.000000 -0.002011 0.000000
# 2 -0.002769 0.020933 -0.003597 0.000000 0.001458 0.000000
# 3 -0.005302 -0.003597 0.013727 0.000000 0.003501 0.000000
# 4 0.000000 0.000000 0.000000 0.031549 0.000000 0.008625
# 5 -0.002011 0.001458 0.003501 0.000000 0.025899 0.000000
# 6 0.000000 0.000000 0.000000 0.008625 0.000000 0.041644
#
#
# Mechanical properties :
#
#
# Convention : Reuss Voigt Hill
#
# Bulk Modulus (GPa) = 49.34484 67.63186 58.48835
# Shear Modulus (GPa) = 28.93758 33.12883 31.03321
#
# Velocity S-wave (km/s) = 3.74031 4.00202 3.87338
# Velocity P-wave (km/s) = 6.51989 7.35198 6.94840
#
# Compressibility (1/GPa) = 0.02026554
#
# Stress axis : x y z
#
# Youngs Moduli (GPa) = 111.83280 47.77200 72.84757
#
# Poissons Ratio (x) = 0.13229 0.38626
# Poissons Ratio (y) = 0.30969 0.26201
# Poissons Ratio (z) = 0.59297 0.17182
#
# Static dielectric constant tensor:
#      x y z
#    x 1.815160 0.000000 -0.073160 
#    y 0.000000 1.772980 0.000000 
#    z -0.073160 0.000000 1.780160 
# 
# From -- ./inp_files/247443.got.cif
#   From: 2010.05.17/outbox.cif.g08.bks.cpg/sg15_124_cif.got.tgz:247443.got - 2010.06.03 18:47:42.
