data_PCOD9260125
_publ_section_title
;
Structure prediction by ZEFSAII (Michael W. Deem and Ramdas Pophale) SiO2 
 PCOD9260125
Probable space group: C 2/C
;
_chemical_formula_sum "Si O2"
_cell_formula_units_Z 40
_cell_length_a 9.752760
_cell_length_b 24.097890
_cell_length_c 8.614927
_cell_angle_alpha 90.000000
_cell_angle_beta 122.659026
_cell_angle_gamma 90.000000
_cell_volume 1704.578756
_symmetry_space_group_name_H-M "C 2/C"
_symmetry_group_IT_number 15
_symmetry_cell_setting 'monoclinic'
loop_
_space_group_symop_operation_xyz
x,y,z
-x,y,1/2-z
-x,-y,-z
x,-y,1/2+z
1/2+x,1/2+y,z
1/2-x,1/2+y,1/2-z
1/2-x,1/2-y,-z
1/2+x,1/2-y,1/2+z
loop_
_atom_site_type_symbol
_atom_site_label
_atom_site_fract_x
_atom_site_fract_y
_atom_site_fract_z
Si Si1 0.525324 0.561546 0.582334
Si Si2 0.000000 0.535655 0.250000
Si Si3 0.500000 0.849718 0.250000
Si Si4 0.271342 0.266426 0.333813
Si Si5 0.116675 0.565831 0.628952
Si Si6 0.926651 0.828841 0.881826
O O1 0.500000 0.558305 0.750000
O O2 0.500000 0.500000 0.500000
O O3 0.712924 0.582865 0.688536
O O4 0.417813 0.608228 0.432622
O O5 0.904737 0.495234 0.310109
O O6 0.115113 0.566633 0.442184
O O7 0.623888 0.810157 0.234172
O O8 0.532518 0.895240 0.405145
O O9 0.250000 0.250000 0.500000
O O10 0.443355 0.296666 0.428680
O O11 0.232133 0.210387 0.217156
O O12 0.000000 0.829475 0.750000
#
# Coordination Sequence:
#
# PCOD9260125 Si02
#       6
#     8   4   4   8   8   8
#     4  12  25  42  61  91 128 166 206 256 316 378
#     4   9  20  40  58  84 118 164 205 254 310 368
#     4  11  18  34  68  88 116 156 199 264 300 366
#     4  10  18  36  62  93 119 158 208 255 300 368
#     4  10  21  38  60  87 121 158 209 255 309 372
#     4  10  21  39  65  93 125 165 213 259 309 372
#
# _framework density 23.466208000000002
#
# number of rings (size 3 to 8) (size 9 to 14) (size 15 to 20)
#    0.000    1.600    5.000    1.800    0.000    0.000 
#   18.000    1.000    2.200    0.000    0.000    0.000 
#    0.000    0.000    0.000    0.000    0.000    0.000 
#
# Total GULP energy -111382.389547 kJ/mol
# GULP energy per Si atom -5569.119477 kJ/mol
# Density = 2.341280 g / cm^3
# Si number density = 23.466208 Si / 1000 Ang^3
#
#
#
# Elastic Constant Matrix: (Units=GPa)
#
#
# Indices 1 2 3 4 5 6 
#
# 1 38.1959 13.4299 15.6902 0.0000 -4.4842 0.0000
# 2 13.4299 167.2318 59.2969 0.0000 0.9862 0.0000
# 3 15.6902 59.2969 101.3884 0.0000 -6.8559 0.0000
# 4 0.0000 0.0000 0.0000 33.3426 0.0000 1.2991
# 5 -4.4842 0.9862 -6.8559 0.0000 25.9230 0.0000
# 6 0.0000 0.0000 0.0000 1.2991 0.0000 21.6922
#
#
#
# Elastic Compliance Matrix: (Units=1/GPa)
#
#
# Indices 1 2 3 4 5 6 
#
# 1 0.028471 -0.001066 -0.003510 0.000000 0.004037 0.000000
# 2 -0.001066 0.007640 -0.004415 0.000000 -0.001643 0.000000
# 3 -0.003510 -0.004415 0.013194 0.000000 0.003050 0.000000
# 4 0.000000 0.000000 0.000000 0.030062 0.000000 -0.001800
# 5 0.004037 -0.001643 0.003050 0.000000 0.040143 0.000000
# 6 0.000000 0.000000 0.000000 -0.001800 0.000000 0.046207
#
#
# Mechanical properties :
#
#
# Convention : Reuss Voigt Hill
#
# Bulk Modulus (GPa) = 31.92258 53.73889 42.83073
# Shear Modulus (GPa) = 25.75454 30.75149 28.25302
#
# Velocity S-wave (km/s) = 3.31647 3.62395 3.47362
# Velocity P-wave (km/s) = 5.31963 6.36089 5.86342
#
# Compressibility (1/GPa) = 0.03132579
#
# Stress axis : x y z
#
# Youngs Moduli (GPa) = 35.12312 130.88469 75.79017
#
# Poissons Ratio (x) = 0.13949 0.26600
# Poissons Ratio (y) = 0.03743 0.33458
# Poissons Ratio (z) = 0.12327 0.57780
#
# Static dielectric constant tensor:
#      x y z
#    x 2.044980 0.000000 0.085750 
#    y 0.000000 2.074760 0.000000 
#    z 0.085750 0.000000 1.936780 
# 
# From -- ./inp_files/32297.got.cif
#   From: 2010.05.17/outbox.cif.g08.bks.cpg/sg15_17_cif.got.tgz:32297.got - 2010.06.03 18:47:42.
