data_PCOD9260972
_publ_section_title
;
Structure prediction by ZEFSAII (Michael W. Deem and Ramdas Pophale) SiO2 
 PCOD9260972
Probable space group: C 2/C
;
_chemical_formula_sum "Si O2"
_cell_formula_units_Z 56
_cell_length_a 19.107321
_cell_length_b 8.964041
_cell_length_c 16.772457
_cell_angle_alpha 90.000000
_cell_angle_beta 67.065445
_cell_angle_gamma 90.000000
_cell_volume 2645.675871
_symmetry_space_group_name_H-M "C 2/C"
_symmetry_group_IT_number 15
_symmetry_cell_setting 'monoclinic'
loop_
_space_group_symop_operation_xyz
x,y,z
-x,y,1/2-z
-x,-y,-z
x,-y,1/2+z
1/2+x,1/2+y,z
1/2-x,1/2+y,1/2-z
1/2-x,1/2-y,-z
1/2+x,1/2-y,1/2+z
loop_
_atom_site_type_symbol
_atom_site_label
_atom_site_fract_x
_atom_site_fract_y
_atom_site_fract_z
Si Si1 0.858945 0.309025 0.287496
Si Si2 0.292023 0.693533 0.559972
Si Si3 0.425658 0.592499 0.392654
Si Si4 0.610589 0.275506 0.351449
Si Si5 0.087673 0.625747 0.207047
Si Si6 0.933989 0.766113 0.432484
Si Si7 0.404171 0.631876 0.122204
O O1 0.777977 0.366411 0.356776
O O2 0.896497 0.187242 0.330668
O O3 0.909155 0.456320 0.265698
O O4 0.854942 0.230816 0.204051
O O5 0.250000 0.750000 0.500000
O O6 0.362371 0.607906 0.489264
O O7 0.335284 0.796124 0.605526
O O8 0.432687 0.415810 0.378406
O O9 0.507616 0.645393 0.387978
O O10 0.630976 0.223628 0.253521
O O11 0.523057 0.230296 0.406324
O O12 0.615087 0.455866 0.358779
O O13 0.107874 0.645768 0.104825
O O14 0.000000 0.673978 0.250000
O O15 0.900614 0.807030 0.533605
#
# Coordination Sequence:
#
# PCOD9260972 Si02
#       7
#     8   8   8   8   8   8   8
#     4  11  24  37  56  89 129 160 187 230 305 372
#     4  10  21  38  60  86 122 158 195 238 297 354
#     4  10  18  39  64  85 113 155 205 249 283 336
#     4  10  19  39  64  87 116 152 203 249 289 339
#     4  10  22  39  57  89 126 153 187 243 306 355
#     4  10  19  37  66  92 110 147 206 260 285 326
#     4  11  19  36  66  93 109 146 211 258 279 331
#
# _framework density 21.166615
#
# number of rings (size 3 to 8) (size 9 to 14) (size 15 to 20)
#    0.000    1.714    2.857    3.000    0.000    3.429 
#    5.143    2.857    0.000    0.000    0.000    0.000 
#    0.000    0.000    0.000    0.000    0.000    0.000 
#
# Total GULP energy -155956.688789 kJ/mol
# GULP energy per Si atom -5569.881742 kJ/mol
# Density = 2.111844 g / cm^3
# Si number density = 21.166615 Si / 1000 Ang^3
#
#
#
# Elastic Constant Matrix: (Units=GPa)
#
#
# Indices 1 2 3 4 5 6 
#
# 1 67.1695 5.6431 23.2132 0.0000 18.0785 0.0000
# 2 5.6431 46.8737 37.3459 0.0000 18.7328 0.0000
# 3 23.2132 37.3459 123.3040 0.0000 26.7107 0.0000
# 4 0.0000 0.0000 0.0000 12.3407 0.0000 0.0107
# 5 18.0785 18.7328 26.7107 0.0000 47.7460 0.0000
# 6 0.0000 0.0000 0.0000 0.0107 0.0000 -1.3345
#
#
#
# Elastic Compliance Matrix: (Units=1/GPa)
#
#
# Indices 1 2 3 4 5 6 
#
# 1 0.017221 0.002462 -0.002692 0.000000 -0.005980 0.000000
# 2 0.002462 0.030781 -0.007929 0.000000 -0.008573 0.000000
# 3 -0.002692 -0.007929 0.011520 0.000000 -0.002314 0.000000
# 4 0.000000 0.000000 0.000000 0.081032 0.000000 0.000650
# 5 -0.005980 -0.008573 -0.002314 0.000000 0.027867 0.000000
# 6 0.000000 0.000000 0.000000 0.000650 0.000000 -0.749344
#
#
# Mechanical properties :
#
#
# Convention : Reuss Voigt Hill
#
# Bulk Modulus (GPa) = 23.14685 41.08351 32.11518
# Shear Modulus (GPa) = -9.08755 23.16011 7.03628
#
# Velocity S-wave (km/s) = -2.07429 3.31143 1.82523
# Velocity P-wave (km/s) = 2.28526 5.83716 4.43254
#
# Compressibility (1/GPa) = 0.04320242
#
# Stress axis : x y z
#
# Youngs Moduli (GPa) = 58.06924 32.48742 86.80756
#
# Poissons Ratio (x) = -0.07997 0.23369
# Poissons Ratio (y) = -0.14295 0.68831
# Poissons Ratio (z) = 0.15633 0.25760
#
# Static dielectric constant tensor:
#      x y z
#    x 1.827470 0.000000 0.014950 
#    y 0.000000 1.780280 0.000000 
#    z 0.014950 0.000000 1.826230 
# 
# From -- ./inp_files/209505.got.cif
#   From: 2010.05.17/outbox.cif.g08.bks.cpg/sg15_105_cif.got.tgz:209505.got - 2010.06.03 18:47:42.
