data_PCOD9260873
_publ_section_title
;
Structure prediction by ZEFSAII (Michael W. Deem and Ramdas Pophale) SiO2 
 PCOD9260873
Probable space group: C 2/C
;
_chemical_formula_sum "Si O2"
_cell_formula_units_Z 60
_cell_length_a 7.022912
_cell_length_b 12.198639
_cell_length_c 28.265138
_cell_angle_alpha 90.000000
_cell_angle_beta 108.721686
_cell_angle_gamma 90.000000
_cell_volume 2293.350553
_symmetry_space_group_name_H-M "C 2/C"
_symmetry_group_IT_number 15
_symmetry_cell_setting 'monoclinic'
loop_
_space_group_symop_operation_xyz
x,y,z
-x,y,1/2-z
-x,-y,-z
x,-y,1/2+z
1/2+x,1/2+y,z
1/2-x,1/2+y,1/2-z
1/2-x,1/2-y,-z
1/2+x,1/2-y,1/2+z
loop_
_atom_site_type_symbol
_atom_site_label
_atom_site_fract_x
_atom_site_fract_y
_atom_site_fract_z
Si Si1 0.204382 0.734276 0.940249
Si Si2 0.641108 0.925872 0.063476
Si Si3 0.147707 0.132091 0.829799
Si Si4 0.500000 0.508689 0.250000
Si Si5 0.170367 0.177470 0.340931
Si Si6 0.945773 0.422036 0.192554
Si Si7 0.357419 0.132558 0.135273
Si Si8 0.080995 0.344565 0.959048
O O1 0.107959 0.814576 0.891855
O O2 0.435177 0.739927 0.941663
O O3 0.055701 0.631286 0.928413
O O4 0.250000 0.750000 0.000000
O O5 0.819766 0.913005 0.114880
O O6 0.573382 0.050424 0.049954
O O7 0.680846 0.859859 0.018143
O O8 0.334001 0.084591 0.814661
O O9 0.176532 0.262011 0.835052
O O10 0.955297 0.086744 0.787000
O O11 0.561347 0.598121 0.295447
O O12 0.402259 0.141618 0.355370
O O13 0.145653 0.302144 0.321491
O O14 0.822066 0.517806 0.157125
O O15 0.000000 0.454666 0.250000
O O16 0.276856 0.142441 0.075085
#
# Coordination Sequence:
#
# PCOD9260873 Si02
#       8
#     8   8   8   4   8   8   8   8
#     4   9  17  33  64  97 127 171 221 268 337 408
#     4  10  18  38  66  98 136 174 224 275 339 404
#     4  12  26  44  66  99 137 176 228 289 336 409
#     4  12  26  42  68  96 138 178 240 282 344 408
#     4  11  22  43  69  94 135 179 224 282 340 407
#     4  12  26  45  68  93 128 180 228 278 343 403
#     4  11  25  44  67 103 137 172 230 280 344 411
#     4   9  18  36  68  99 134 178 216 278 339 411
#
# _framework density 26.162596000000001
#
# number of rings (size 3 to 8) (size 9 to 14) (size 15 to 20)
#    0.000    1.333    4.667    0.800    2.800    1.600 
#    0.000    0.000    0.000    0.000    0.000   16.800 
#    0.000    0.000    0.000    0.000    0.000    0.000 
#
# Total GULP energy -167274.460909 kJ/mol
# GULP energy per Si atom -5575.815364 kJ/mol
# Density = 2.610305 g / cm^3
# Si number density = 26.162596 Si / 1000 Ang^3
#
#
#
# Elastic Constant Matrix: (Units=GPa)
#
#
# Indices 1 2 3 4 5 6 
#
# 1 54.0384 25.4659 26.5848 0.0000 -11.9692 0.0000
# 2 25.4659 136.7607 58.8653 0.0000 -4.5132 0.0000
# 3 26.5848 58.8653 233.4056 0.0000 -12.1778 0.0000
# 4 0.0000 0.0000 0.0000 50.9761 0.0000 -0.8081
# 5 -11.9692 -4.5132 -12.1778 0.0000 41.3010 0.0000
# 6 0.0000 0.0000 0.0000 -0.8081 0.0000 28.9007
#
#
#
# Elastic Compliance Matrix: (Units=1/GPa)
#
#
# Indices 1 2 3 4 5 6 
#
# 1 0.021986 -0.003317 -0.001375 0.000000 0.005604 0.000000
# 2 -0.003317 0.008706 -0.001847 0.000000 -0.000554 0.000000
# 3 -0.001375 -0.001847 0.004952 0.000000 0.000860 0.000000
# 4 0.000000 0.000000 0.000000 0.019626 0.000000 0.000549
# 5 0.005604 -0.000554 0.000860 0.000000 0.026029 0.000000
# 6 0.000000 0.000000 0.000000 0.000549 0.000000 0.034617
#
#
# Mechanical properties :
#
#
# Convention : Reuss Voigt Hill
#
# Bulk Modulus (GPa) = 44.31485 71.78185 58.04835
# Shear Modulus (GPa) = 36.62559 45.12146 40.87353
#
# Velocity S-wave (km/s) = 3.74561 4.15740 3.95687
# Velocity P-wave (km/s) = 5.97337 7.10927 6.56593
#
# Compressibility (1/GPa) = 0.02256580
#
# Stress axis : x y z
#
# Youngs Moduli (GPa) = 45.48279 114.85858 201.95223
#
# Poissons Ratio (x) = 0.38100 0.27774
# Poissons Ratio (y) = 0.15087 0.37298
# Poissons Ratio (z) = 0.06255 0.21213
#
# Static dielectric constant tensor:
#      x y z
#    x 2.335130 0.000000 0.184360 
#    y 0.000000 2.041260 0.000000 
#    z 0.184360 0.000000 2.300740 
# 
# From -- ./inp_files/307507.got.cif
#   From: 2010.05.17/outbox.cif.g08.bks.cpg/sg15_154_cif.got.tgz:307507.got - 2010.06.03 18:47:42.
