data_PCOD9260981
_publ_section_title
;
Structure prediction by ZEFSAII (Michael W. Deem and Ramdas Pophale) SiO2 
 PCOD9260981
Probable space group: C 2/C
;
_chemical_formula_sum "Si O2"
_cell_formula_units_Z 44
_cell_length_a 23.034175
_cell_length_b 6.703095
_cell_length_c 17.457569
_cell_angle_alpha 90.000000
_cell_angle_beta 47.378393
_cell_angle_gamma 90.000000
_cell_volume 1983.427106
_symmetry_space_group_name_H-M "C 2/C"
_symmetry_group_IT_number 15
_symmetry_cell_setting 'monoclinic'
loop_
_space_group_symop_operation_xyz
x,y,z
-x,y,1/2-z
-x,-y,-z
x,-y,1/2+z
1/2+x,1/2+y,z
1/2-x,1/2+y,1/2-z
1/2-x,1/2-y,-z
1/2+x,1/2-y,1/2+z
loop_
_atom_site_type_symbol
_atom_site_label
_atom_site_fract_x
_atom_site_fract_y
_atom_site_fract_z
Si Si1 0.789134 0.465671 0.888192
Si Si2 0.366219 0.960232 0.110848
Si Si3 0.605739 0.720234 0.278758
Si Si4 0.500000 0.489810 0.750000
Si Si5 0.683655 0.667310 0.775679
Si Si6 0.131722 0.761915 0.046084
O O1 0.823735 0.677414 0.832883
O O2 0.817479 0.304536 0.799429
O O3 0.823955 0.394570 0.937884
O O4 0.695608 0.435706 0.971841
O O5 0.356541 0.198118 0.123167
O O6 0.418140 0.880210 0.135158
O O7 0.275132 0.886848 0.208802
O O8 0.390270 0.855959 0.010999
O O9 0.541149 0.647516 0.276920
O O10 0.637247 0.531346 0.297598
O O11 0.438695 0.634575 0.846839
#
# Coordination Sequence:
#
# PCOD9260981 Si02
#       6
#     8   8   8   4   8   8
#     4   9  21  42  70  97 131 177 239 278 332 404
#     4  10  21  37  69 100 133 168 233 287 344 387
#     4  11  23  42  69  98 138 180 219 284 351 411
#     4  12  26  44  66  96 150 190 224 276 352 418
#     4  10  18  39  65 102 130 170 226 293 329 401
#     4  10  22  44  68 103 137 181 234 286 331 412
#
# _framework density 22.183824000000001
#
# number of rings (size 3 to 8) (size 9 to 14) (size 15 to 20)
#    0.000    1.818    3.636    0.000    0.000    2.182 
#    3.273    0.909    0.000    0.000    0.000    0.000 
#    0.000    0.000    0.000    0.000    0.000    0.000 
#
# Total GULP energy -123019.677314 kJ/mol
# GULP energy per Si atom -5591.803514 kJ/mol
# Density = 2.213333 g / cm^3
# Si number density = 22.183824 Si / 1000 Ang^3
#
#
#
# Elastic Constant Matrix: (Units=GPa)
#
#
# Indices 1 2 3 4 5 6 
#
# 1 86.6566 39.3731 19.4360 0.0056 25.9424 -0.0250
# 2 39.3731 106.5971 20.2737 0.0312 1.0873 0.0212
# 3 19.4360 20.2737 62.3167 0.0059 8.8415 -0.0052
# 4 0.0056 0.0312 0.0059 27.2113 0.0036 12.2704
# 5 25.9424 1.0873 8.8415 0.0036 28.2069 0.0048
# 6 -0.0250 0.0212 -0.0052 12.2704 0.0048 18.2203
#
#
#
# Elastic Compliance Matrix: (Units=1/GPa)
#
#
# Indices 1 2 3 4 5 6 
#
# 1 0.020545 -0.007115 -0.001519 -0.000017 -0.018146 0.000052
# 2 -0.007115 0.012476 -0.002826 -0.000001 0.006948 -0.000026
# 3 -0.001519 -0.002826 0.018028 -0.000005 -0.004145 0.000010
# 4 -0.000017 -0.000001 -0.000005 0.052776 0.000016 -0.035542
# 5 -0.018146 0.006948 -0.004145 0.000016 0.053173 -0.000059
# 6 0.000052 -0.000026 0.000010 -0.035542 -0.000059 0.078819
#
#
# Mechanical properties :
#
#
# Convention : Reuss Voigt Hill
#
# Bulk Modulus (GPa) = 35.54794 45.97066 40.75930
# Shear Modulus (GPa) = 18.64887 26.49354 22.57120
#
# Velocity S-wave (km/s) = 2.90254 3.45957 3.19323
# Velocity P-wave (km/s) = 5.22418 6.06018 5.65764
#
# Compressibility (1/GPa) = 0.02813103
#
# Stress axis : x y z
#
# Youngs Moduli (GPa) = 48.67264 80.15649 55.46894
#
# Poissons Ratio (x) = 0.57030 0.08424
# Poissons Ratio (y) = 0.34630 0.15673
# Poissons Ratio (z) = 0.07392 0.22648
#
# Static dielectric constant tensor:
#      x y z
#    x 1.820320 -0.000010 0.010370 
#    y -0.000010 1.806940 0.000000 
#    z 0.010370 0.000000 1.827720 
# 
# From -- ./inp_files/221127.got.cif
#   From: 2010.05.17/outbox.cif.g08.bks.cpg/sg15_111_cif.got.tgz:221127.got - 2010.06.03 18:47:42.
