data_PCOD9260052
_publ_section_title
;
Structure prediction by ZEFSAII (Michael W. Deem and Ramdas Pophale) SiO2 
 PCOD9260052
Probable space group: C 2/C
;
_chemical_formula_sum "Si O2"
_cell_formula_units_Z 48
_cell_length_a 11.625225
_cell_length_b 16.532036
_cell_length_c 11.889925
_cell_angle_alpha 90.000000
_cell_angle_beta 86.482326
_cell_angle_gamma 90.000000
_cell_volume 2280.803165
_symmetry_space_group_name_H-M "C 2/C"
_symmetry_group_IT_number 15
_symmetry_cell_setting 'monoclinic'
loop_
_space_group_symop_operation_xyz
x,y,z
-x,y,1/2-z
-x,-y,-z
x,-y,1/2+z
1/2+x,1/2+y,z
1/2-x,1/2+y,1/2-z
1/2-x,1/2-y,-z
1/2+x,1/2-y,1/2+z
loop_
_atom_site_type_symbol
_atom_site_label
_atom_site_fract_x
_atom_site_fract_y
_atom_site_fract_z
Si Si1 0.645998 0.250471 0.417447
Si Si2 0.064510 0.907452 0.856933
Si Si3 0.811867 0.380147 0.778291
Si Si4 0.179475 0.506277 0.423907
Si Si5 0.028836 0.624172 0.019364
Si Si6 0.388055 0.573147 0.564305
O O1 0.750000 0.250000 0.500000
O O2 0.671737 0.190888 0.312704
O O3 0.530334 0.212564 0.482699
O O4 0.643477 0.342653 0.377396
O O5 0.191520 0.870652 0.850273
O O6 0.000000 0.876964 0.750000
O O7 0.077592 0.004688 0.850824
O O8 0.989007 0.899771 0.972927
O O9 0.804899 0.461659 0.703629
O O10 0.914462 0.382930 0.860701
O O11 0.128670 0.415465 0.435655
O O12 0.291561 0.529844 0.490484
O O13 0.080206 0.564141 0.482054
#
# Coordination Sequence:
#
# PCOD9260052 Si02
#       6
#     8   8   8   8   8   8
#     4  11  20  38  60  88 123 165 201 262 324 373
#     4  11  22  39  61  87 122 166 212 256 302 384
#     4  11  21  38  65  92 122 164 213 259 320 372
#     4  10  18  36  61  90 121 161 202 258 303 379
#     4  10  21  35  62  93 124 158 205 256 319 370
#     4  11  22  38  64  88 121 166 212 250 319 381
#
# _framework density 21.045216
#
# number of rings (size 3 to 8) (size 9 to 14) (size 15 to 20)
#    0.000    1.333    6.667    2.000    0.000    1.333 
#    0.000    2.500    0.000    4.000    0.000    0.000 
#    0.000    0.000    0.000    0.000    0.000    0.000 
#
# Total GULP energy -133792.219540 kJ/mol
# GULP energy per Si atom -5574.675814 kJ/mol
# Density = 2.099732 g / cm^3
# Si number density = 21.045216 Si / 1000 Ang^3
#
#
#
# Elastic Constant Matrix: (Units=GPa)
#
#
# Indices 1 2 3 4 5 6 
#
# 1 107.1501 17.8121 28.6677 0.0000 -0.1435 0.0000
# 2 17.8121 64.1621 11.7000 0.0000 5.7022 0.0000
# 3 28.6677 11.7000 41.0077 0.0000 9.9540 0.0000
# 4 0.0000 0.0000 0.0000 10.7613 0.0000 7.3445
# 5 -0.1435 5.7022 9.9540 0.0000 35.3708 0.0000
# 6 0.0000 0.0000 0.0000 7.3445 0.0000 25.5000
#
#
#
# Elastic Compliance Matrix: (Units=1/GPa)
#
#
# Indices 1 2 3 4 5 6 
#
# 1 0.011927 -0.002018 -0.008429 0.000000 0.002746 0.000000
# 2 -0.002018 0.016850 -0.002936 0.000000 -0.001898 0.000000
# 3 -0.008429 -0.002936 0.033282 0.000000 -0.008927 0.000000
# 4 0.000000 0.000000 0.000000 0.115661 0.000000 -0.033313
# 5 0.002746 -0.001898 -0.008927 0.000000 0.031101 0.000000
# 6 0.000000 0.000000 0.000000 -0.033313 0.000000 0.048810
#
#
# Mechanical properties :
#
#
# Convention : Reuss Voigt Hill
#
# Bulk Modulus (GPa) = 28.33324 36.51995 32.42659
# Shear Modulus (GPa) = 16.88268 24.60242 20.74255
#
# Velocity S-wave (km/s) = 2.83540 3.42281 3.14286
# Velocity P-wave (km/s) = 4.92053 5.74557 5.34898
#
# Compressibility (1/GPa) = 0.03529423
#
# Stress axis : x y z
#
# Youngs Moduli (GPa) = 83.84413 59.34771 30.04585
#
# Poissons Ratio (x) = 0.11977 0.25324
# Poissons Ratio (y) = 0.16921 0.08821
# Poissons Ratio (z) = 0.70668 0.17424
#
# Static dielectric constant tensor:
#      x y z
#    x 1.832860 0.000000 -0.039450 
#    y 0.000000 1.802800 0.000000 
#    z -0.039450 0.000000 1.742450 
# 
# From -- ./inp_files/87389.got.cif
#   From: 2010.05.17/outbox.cif.g08.bks.cpg/sg15_44_cif.got.tgz:87389.got - 2010.06.03 18:47:42.
