data_PCOD9260618
_publ_section_title
;
Structure prediction by ZEFSAII (Michael W. Deem and Ramdas Pophale) SiO2 
 PCOD9260618
Probable space group: C 2/C
;
_chemical_formula_sum "Si O2"
_cell_formula_units_Z 40
_cell_length_a 12.397314
_cell_length_b 7.026403
_cell_length_c 37.581589
_cell_angle_alpha 90.000000
_cell_angle_beta 31.806918
_cell_angle_gamma 90.000000
_cell_volume 1725.418865
_symmetry_space_group_name_H-M "C 2/C"
_symmetry_group_IT_number 15
_symmetry_cell_setting 'monoclinic'
loop_
_space_group_symop_operation_xyz
x,y,z
-x,y,1/2-z
-x,-y,-z
x,-y,1/2+z
1/2+x,1/2+y,z
1/2-x,1/2+y,1/2-z
1/2-x,1/2-y,-z
1/2+x,1/2-y,1/2+z
loop_
_atom_site_type_symbol
_atom_site_label
_atom_site_fract_x
_atom_site_fract_y
_atom_site_fract_z
Si Si1 0.073199 0.627911 0.066539
Si Si2 0.605138 0.661767 0.311313
Si Si3 0.052680 0.587450 0.156169
Si Si4 0.880492 0.246706 0.117616
Si Si5 0.640152 0.402415 0.682097
O O1 0.077266 0.645547 0.108065
O O2 0.938565 0.599139 0.941150
O O3 0.852201 0.700886 0.115114
O O4 0.250000 0.750000 0.000000
O O5 0.840762 0.657886 0.233621
O O6 0.572862 0.616857 0.361665
O O7 0.477470 0.533658 0.319880
O O8 0.495910 0.862129 0.332850
O O9 0.255537 0.645548 0.121402
O O10 0.720378 0.404619 0.178509
O O11 0.500000 0.297223 0.750000
#
# Coordination Sequence:
#
# PCOD9260618 Si02
#       5
#     8   8   8   8   8
#     4   9  21  39  60  81 118 160 191 229 287 346
#     4  11  20  35  55  90 115 143 186 245 288 336
#     4  11  20  35  60  84 121 147 189 240 292 334
#     4   9  21  36  56  83 116 144 191 235 290 332
#     4  10  18  38  58  82 117 149 190 239 282 334
#
# _framework density 23.182774999999999
#
# number of rings (size 3 to 8) (size 9 to 14) (size 15 to 20)
#    1.200    0.800    2.000    3.000    0.000    2.400 
#    3.600    4.000    0.000    2.400    0.000    0.000 
#    0.000    0.000    0.000    0.000    0.000    0.000 
#
# Total GULP energy -111415.246393 kJ/mol
# GULP energy per Si atom -5570.762320 kJ/mol
# Density = 2.313001 g / cm^3
# Si number density = 23.182775 Si / 1000 Ang^3
#
#
#
# Elastic Constant Matrix: (Units=GPa)
#
#
# Indices 1 2 3 4 5 6 
#
# 1 148.4632 18.9489 -2.7459 0.0223 20.2008 -0.0181
# 2 18.9489 53.0783 3.5286 0.0404 -0.2463 0.0245
# 3 -2.7459 3.5286 26.8472 0.0527 -6.3287 -0.0383
# 4 0.0223 0.0404 0.0527 12.5055 -0.0219 5.4018
# 5 20.2008 -0.2463 -6.3287 -0.0219 26.3547 0.0101
# 6 -0.0181 0.0245 -0.0383 5.4018 0.0101 28.8482
#
#
#
# Elastic Compliance Matrix: (Units=1/GPa)
#
#
# Indices 1 2 3 4 5 6 
#
# 1 0.007933 -0.002843 -0.000270 -0.000020 -0.006172 0.000013
# 2 -0.002843 0.020030 -0.002507 -0.000039 0.001764 -0.000015
# 3 -0.000270 -0.002507 0.039849 -0.000179 0.009752 0.000085
# 4 -0.000020 -0.000039 -0.000179 0.087003 0.000051 -0.016291
# 5 -0.006172 0.001764 0.009752 0.000051 0.045033 -0.000018
# 6 0.000013 -0.000015 0.000085 -0.016291 -0.000018 0.037715
#
#
# Mechanical properties :
#
#
# Convention : Reuss Voigt Hill
#
# Bulk Modulus (GPa) = 17.67656 29.76134 23.71895
# Shear Modulus (GPa) = 18.68032 27.45217 23.06625
#
# Velocity S-wave (km/s) = 2.84171 3.44490 3.15774
# Velocity P-wave (km/s) = 4.29052 5.35618 4.85269
#
# Compressibility (1/GPa) = 0.05657208
#
# Stress axis : x y z
#
# Youngs Moduli (GPa) = 126.04973 49.92535 25.09456
#
# Poissons Ratio (x) = 0.14193 0.00677
# Poissons Ratio (y) = 0.35835 0.06292
# Poissons Ratio (z) = 0.03402 0.12519
#
# Static dielectric constant tensor:
#      x y z
#    x 1.934860 -0.000010 -0.017110 
#    y -0.000010 2.004460 -0.000020 
#    z -0.017110 -0.000020 1.845810 
# 
# From -- ./inp_files/309816.got.cif
#   From: 2010.05.17/outbox.cif.g08.bks.cpg/sg15_155_cif.got.tgz:309816.got - 2010.06.03 18:47:42.
