data_PCOD9260882
_publ_section_title
;
Structure prediction by ZEFSAII (Michael W. Deem and Ramdas Pophale) SiO2 
 PCOD9260882
Probable space group: C 2/C
;
_chemical_formula_sum "Si O2"
_cell_formula_units_Z 64
_cell_length_a 15.006888
_cell_length_b 14.156429
_cell_length_c 18.215025
_cell_angle_alpha 90.000000
_cell_angle_beta 127.976420
_cell_angle_gamma 90.000000
_cell_volume 3050.323178
_symmetry_space_group_name_H-M "C 2/C"
_symmetry_group_IT_number 15
_symmetry_cell_setting 'monoclinic'
loop_
_space_group_symop_operation_xyz
x,y,z
-x,y,1/2-z
-x,-y,-z
x,-y,1/2+z
1/2+x,1/2+y,z
1/2-x,1/2+y,1/2-z
1/2-x,1/2-y,-z
1/2+x,1/2-y,1/2+z
loop_
_atom_site_type_symbol
_atom_site_label
_atom_site_fract_x
_atom_site_fract_y
_atom_site_fract_z
Si Si1 0.892006 0.307435 0.748445
Si Si2 0.962222 0.272205 0.423770
Si Si3 0.187733 0.015393 0.955850
Si Si4 0.974921 0.944861 0.912390
Si Si5 0.237897 0.486905 0.834075
Si Si6 0.709264 0.178408 0.041596
Si Si7 0.248729 0.793270 0.206517
Si Si8 0.221664 0.702303 0.561295
O O1 0.868713 0.420804 0.742994
O O2 0.865460 0.241965 0.806948
O O3 0.786586 0.270088 0.648896
O O4 0.000000 0.291223 0.750000
O O5 0.862077 0.285291 0.313700
O O6 0.905538 0.295731 0.473643
O O7 0.005596 0.164316 0.439500
O O8 0.073975 0.332538 0.469380
O O9 0.053139 0.998587 0.894205
O O10 0.236392 0.920839 0.947306
O O11 0.226391 0.099297 0.922654
O O12 0.235470 0.026395 0.064573
O O13 0.840882 0.947007 0.836918
O O14 0.000000 0.000000 0.000000
O O15 0.244557 0.598745 0.819783
O O16 0.749340 0.222980 0.138300
O O17 0.750000 0.250000 0.000000
O O18 0.250000 0.750000 0.500000
#
# Coordination Sequence:
#
# PCOD9260882 Si02
#       8
#     8   8   8   8   8   8   8   8
#     4  11  26  44  67 104 137 179 232 293 357 413
#     4  11  24  45  68 100 141 183 225 295 350 400
#     4  11  23  39  69 103 130 182 235 284 344 427
#     4  10  18  38  67  94 128 180 229 278 340 411
#     4  11  21  43  67  95 137 184 229 278 361 421
#     4  12  24  45  69 102 140 184 240 277 348 423
#     4  11  26  44  71 102 141 181 234 293 344 425
#     4  11  22  43  68  97 131 170 231 287 347 407
#
# _framework density 20.981382
#
# number of rings (size 3 to 8) (size 9 to 14) (size 15 to 20)
#    0.000    1.000    6.250    1.500    3.500    4.000 
#    0.000    0.000    0.000    0.000    0.000    0.000 
#    0.000    0.000    0.000    0.000    0.000    0.000 
#
# Total GULP energy -178351.180801 kJ/mol
# GULP energy per Si atom -5573.474400 kJ/mol
# Density = 2.093363 g / cm^3
# Si number density = 20.981382 Si / 1000 Ang^3
#
#
#
# Elastic Constant Matrix: (Units=GPa)
#
#
# Indices 1 2 3 4 5 6 
#
# 1 117.9102 8.4369 13.8200 0.0000 3.6435 0.0000
# 2 8.4369 110.8344 -7.7307 0.0000 -7.7973 0.0000
# 3 13.8200 -7.7307 35.6556 0.0000 -6.6354 0.0000
# 4 0.0000 0.0000 0.0000 12.1204 0.0000 -1.2999
# 5 3.6435 -7.7973 -6.6354 0.0000 27.8694 0.0000
# 6 0.0000 0.0000 0.0000 -1.2999 0.0000 38.1988
#
#
#
# Elastic Compliance Matrix: (Units=1/GPa)
#
#
# Indices 1 2 3 4 5 6 
#
# 1 0.009144 -0.001173 -0.004271 0.000000 -0.002540 0.000000
# 2 -0.001173 0.009588 0.003203 0.000000 0.003599 0.000000
# 3 -0.004271 0.003203 0.032089 0.000000 0.009095 0.000000
# 4 0.000000 0.000000 0.000000 0.082808 0.000000 0.002818
# 5 -0.002540 0.003599 0.009095 0.000000 0.039386 0.000000
# 6 0.000000 0.000000 0.000000 0.002818 0.000000 0.026275
#
#
# Mechanical properties :
#
#
# Convention : Reuss Voigt Hill
#
# Bulk Modulus (GPa) = 21.57996 32.60583 27.09290
# Shear Modulus (GPa) = 22.80838 32.29599 27.55219
#
# Velocity S-wave (km/s) = 3.30066 3.92761 3.62770
# Velocity P-wave (km/s) = 4.98332 6.01184 5.52158
#
# Compressibility (1/GPa) = 0.04633929
#
# Stress axis : x y z
#
# Youngs Moduli (GPa) = 109.36054 104.29361 31.16376
#
# Poissons Ratio (x) = 0.12231 0.13311
# Poissons Ratio (y) = 0.12825 -0.09982
# Poissons Ratio (z) = 0.46711 -0.33407
#
# Static dielectric constant tensor:
#      x y z
#    x 1.768210 0.000000 0.023220 
#    y 0.000000 1.564790 0.000000 
#    z 0.023220 0.000000 1.729940 
# 
# From -- ./inp_files/205444.got.cif
#   From: 2010.05.17/outbox.cif.g08.bks.cpg/sg15_103_cif.got.tgz:205444.got - 2010.06.03 18:47:42.
