data_PCOD9260571
_publ_section_title
;
Structure prediction by ZEFSAII (Michael W. Deem and Ramdas Pophale) SiO2 
 PCOD9260571
Probable space group: C 2/C
;
_chemical_formula_sum "Si O2"
_cell_formula_units_Z 44
_cell_length_a 18.135113
_cell_length_b 18.551388
_cell_length_c 13.864450
_cell_angle_alpha 90.000000
_cell_angle_beta 157.801357
_cell_angle_gamma 90.000000
_cell_volume 1762.312623
_symmetry_space_group_name_H-M "C 2/C"
_symmetry_group_IT_number 15
_symmetry_cell_setting 'monoclinic'
loop_
_space_group_symop_operation_xyz
x,y,z
-x,y,1/2-z
-x,-y,-z
x,-y,1/2+z
1/2+x,1/2+y,z
1/2-x,1/2+y,1/2-z
1/2-x,1/2-y,-z
1/2+x,1/2-y,1/2+z
loop_
_atom_site_type_symbol
_atom_site_label
_atom_site_fract_x
_atom_site_fract_y
_atom_site_fract_z
Si Si1 0.790560 0.877793 0.532514
Si Si2 0.954641 0.503867 0.304250
Si Si3 0.710254 0.589329 0.240878
Si Si4 0.454161 0.190314 0.909442
Si Si5 0.000000 0.641899 0.250000
Si Si6 0.348190 0.334920 0.293297
O O1 0.730278 0.952779 0.403411
O O2 0.801223 0.889931 0.659755
O O3 0.631766 0.820558 0.301959
O O4 0.000000 0.854231 0.750000
O O5 0.149414 0.481136 0.598050
O O6 0.934848 0.587947 0.258498
O O7 0.000000 0.477573 0.250000
O O8 0.844692 0.646725 0.348779
O O9 0.486129 0.596357 0.935983
O O10 0.286225 0.159115 0.775106
O O11 0.506461 0.269258 0.009531
O O12 0.191621 0.681049 0.519774
#
# Coordination Sequence:
#
# PCOD9260571 Si02
#       6
#     8   8   8   8   4   8
#     4  10  18  37  69  97 129 158 189 260 327 374
#     4   7  17  39  62  86 123 153 207 245 306 362
#     4  10  20  41  66  93 130 158 196 261 317 373
#     4  11  23  40  60  97 125 163 207 249 311 380
#     4  10  24  44  64  84 122 178 208 266 288 356
#     4  12  24  41  63  91 126 165 215 248 316 359
#
# _framework density 24.967193000000002
#
# number of rings (size 3 to 8) (size 9 to 14) (size 15 to 20)
#    0.545    1.455    3.636    1.636    0.000    2.182 
#    3.273    5.455    0.000    0.000    0.000    0.000 
#    0.000    0.000    0.000    0.000    0.000    0.000 
#
# Total GULP energy -122661.393127 kJ/mol
# GULP energy per Si atom -5575.517869 kJ/mol
# Density = 2.491037 g / cm^3
# Si number density = 24.967193 Si / 1000 Ang^3
#
#
#
# Elastic Constant Matrix: (Units=GPa)
#
#
# Indices 1 2 3 4 5 6 
#
# 1 78.5112 15.4949 27.8338 0.0000 20.2122 0.0000
# 2 15.4949 41.4539 9.4305 0.0000 -8.2090 0.0000
# 3 27.8338 9.4305 122.2084 0.0000 0.5065 0.0000
# 4 0.0000 0.0000 0.0000 -5.0769 0.0000 30.5247
# 5 20.2122 -8.2090 0.5065 0.0000 42.5653 0.0000
# 6 0.0000 0.0000 0.0000 30.5247 0.0000 -5.8214
#
#
#
# Elastic Compliance Matrix: (Units=1/GPa)
#
#
# Indices 1 2 3 4 5 6 
#
# 1 0.018154 -0.007999 -0.003475 0.000000 -0.010122 0.000000
# 2 -0.007999 0.029082 -0.000461 0.000000 0.009413 0.000000
# 3 -0.003475 -0.000461 0.009004 0.000000 0.001454 0.000000
# 4 0.000000 0.000000 0.000000 0.006452 0.000000 0.033833
# 5 -0.010122 0.009413 0.001454 0.000000 0.030098 0.000000
# 6 0.000000 0.000000 0.000000 0.033833 0.000000 0.005627
#
#
# Mechanical properties :
#
#
# Convention : Reuss Voigt Hill
#
# Bulk Modulus (GPa) = 30.89506 38.63243 34.76374
# Shear Modulus (GPa) = 37.57194 18.96102 28.26648
#
# Velocity S-wave (km/s) = 3.88345 2.75878 3.36839
# Velocity P-wave (km/s) = 5.70170 5.06504 5.39278
#
# Compressibility (1/GPa) = 0.03236764
#
# Stress axis : x y z
#
# Youngs Moduli (GPa) = 55.08541 34.38536 111.06353
#
# Poissons Ratio (x) = 0.27506 0.38599
# Poissons Ratio (y) = 0.44065 0.05123
# Poissons Ratio (z) = 0.19144 0.01586
#
# Static dielectric constant tensor:
#      x y z
#    x 2.006450 0.000000 -0.055790 
#    y 0.000000 2.101090 0.000000 
#    z -0.055790 0.000000 2.012490 
# 
# From -- ./inp_files/169648.got.cif
#   From: 2010.05.17/outbox.cif.g08.bks.cpg/sg15_85_cif.got.tgz:169648.got - 2010.06.03 18:47:42.
