data_PCOD9260748
_publ_section_title
;
Structure prediction by ZEFSAII (Michael W. Deem and Ramdas Pophale) SiO2 
 PCOD9260748
Probable space group: C 2/C
;
_chemical_formula_sum "Si O2"
_cell_formula_units_Z 56
_cell_length_a 12.782107
_cell_length_b 14.898417
_cell_length_c 15.183672
_cell_angle_alpha 90.000000
_cell_angle_beta 55.845987
_cell_angle_gamma 90.000000
_cell_volume 2392.786203
_symmetry_space_group_name_H-M "C 2/C"
_symmetry_group_IT_number 15
_symmetry_cell_setting 'monoclinic'
loop_
_space_group_symop_operation_xyz
x,y,z
-x,y,1/2-z
-x,-y,-z
x,-y,1/2+z
1/2+x,1/2+y,z
1/2-x,1/2+y,1/2-z
1/2-x,1/2-y,-z
1/2+x,1/2-y,1/2+z
loop_
_atom_site_type_symbol
_atom_site_label
_atom_site_fract_x
_atom_site_fract_y
_atom_site_fract_z
Si Si1 0.779059 0.973692 0.239146
Si Si2 0.628383 0.192462 0.730083
Si Si3 0.794734 0.599813 0.377487
Si Si4 0.250000 0.750000 0.500000
Si Si5 0.000287 0.270443 0.457481
Si Si6 0.883199 0.556258 0.518430
Si Si7 0.490878 0.621170 0.920398
Si Si8 0.000000 0.250092 0.750000
O O1 0.718031 0.885159 0.223475
O O2 0.735892 0.967926 0.361482
O O3 0.927657 0.965710 0.144337
O O4 0.719760 0.053139 0.210062
O O5 0.500000 0.151841 0.750000
O O6 0.688601 0.251762 0.626625
O O7 0.590590 0.249852 0.832959
O O8 0.863207 0.544821 0.423894
O O9 0.655697 0.611363 0.485826
O O10 0.876983 0.688379 0.322395
O O11 0.372308 0.810577 0.478345
O O12 0.075277 0.339487 0.483989
O O13 0.957241 0.177105 0.520752
O O14 0.000000 0.500000 0.500000
O O15 0.510226 0.686840 0.829261
#
# Coordination Sequence:
#
# PCOD9260748 Si02
#       8
#     8   8   8   4   8   8   8   4
#     4  11  25  44  69 100 143 188 230 294 382 424
#     4   9  20  35  62  91 133 171 227 279 341 406
#     4  12  27  45  71 105 142 187 243 302 361 443
#     4  10  18  38  62  96 126 176 218 280 338 420
#     4  10  22  38  64  98 131 178 230 284 348 415
#     4  11  25  44  67 101 137 181 241 302 352 431
#     4  12  25  45  70 100 146 183 235 299 366 431
#     4  12  26  44  78 104 136 194 248 300 352 442
#
# _framework density 23.403679
#
# number of rings (size 3 to 8) (size 9 to 14) (size 15 to 20)
#    0.000    1.143    2.857    2.571   11.000    0.000 
#    0.000    0.000    0.000    0.000    0.000    0.000 
#    0.000    0.000    0.000    0.000    0.000    0.000 
#
# Total GULP energy -155907.874632 kJ/mol
# GULP energy per Si atom -5568.138380 kJ/mol
# Density = 2.335041 g / cm^3
# Si number density = 23.403679 Si / 1000 Ang^3
#
#
#
# Elastic Constant Matrix: (Units=GPa)
#
#
# Indices 1 2 3 4 5 6 
#
# 1 44.5427 4.1256 -5.4828 0.0000 -13.7582 0.0000
# 2 4.1256 24.8923 7.4233 0.0000 9.4381 0.0000
# 3 -5.4828 7.4233 77.0255 0.0000 -1.5115 0.0000
# 4 0.0000 0.0000 0.0000 29.6433 0.0000 -4.1746
# 5 -13.7582 9.4381 -1.5115 0.0000 38.8492 0.0000
# 6 0.0000 0.0000 0.0000 -4.1746 0.0000 26.1647
#
#
#
# Elastic Compliance Matrix: (Units=1/GPa)
#
#
# Indices 1 2 3 4 5 6 
#
# 1 0.027618 -0.010228 0.003195 0.000000 0.012390 0.000000
# 2 -0.010228 0.049636 -0.005824 0.000000 -0.015907 0.000000
# 3 0.003195 -0.005824 0.013832 0.000000 0.003084 0.000000
# 4 0.000000 0.000000 0.000000 0.034510 0.000000 0.005506
# 5 0.012390 -0.015907 0.003084 0.000000 0.034113 0.000000
# 6 0.000000 0.000000 0.000000 0.005506 0.000000 0.039098
#
#
# Mechanical properties :
#
#
# Convention : Reuss Voigt Hill
#
# Bulk Modulus (GPa) = 15.29699 17.62143 16.45921
# Shear Modulus (GPa) = 20.29950 28.29107 24.29528
#
# Velocity S-wave (km/s) = 2.94830 3.48060 3.22545
# Velocity P-wave (km/s) = 4.25914 4.86810 4.57377
#
# Compressibility (1/GPa) = 0.06537233
#
# Stress axis : x y z
#
# Youngs Moduli (GPa) = 36.20848 20.14649 72.29658
#
# Poissons Ratio (x) = 0.20605 -0.23097
# Poissons Ratio (y) = 0.37033 0.42105
# Poissons Ratio (z) = -0.11568 0.11733
#
# Static dielectric constant tensor:
#      x y z
#    x 2.005680 0.000000 0.050080 
#    y 0.000000 1.919490 0.000000 
#    z 0.050080 0.000000 2.001680 
# 
# From -- ./inp_files/146007.got.cif
#   From: 2010.05.17/outbox.cif.g08.bks.cpg/sg15_74_cif.got.tgz:146007.got - 2010.06.03 18:47:42.
