data_PCOD9260690
_publ_section_title
;
Structure prediction by ZEFSAII (Michael W. Deem and Ramdas Pophale) SiO2 
 PCOD9260690
Probable space group: C 2/C
;
_chemical_formula_sum "Si O2"
_cell_formula_units_Z 52
_cell_length_a 8.465287
_cell_length_b 12.255348
_cell_length_c 21.017222
_cell_angle_alpha 90.000000
_cell_angle_beta 111.538284
_cell_angle_gamma 90.000000
_cell_volume 2028.178283
_symmetry_space_group_name_H-M "C 2/C"
_symmetry_group_IT_number 15
_symmetry_cell_setting 'monoclinic'
loop_
_space_group_symop_operation_xyz
x,y,z
-x,y,1/2-z
-x,-y,-z
x,-y,1/2+z
1/2+x,1/2+y,z
1/2-x,1/2+y,1/2-z
1/2-x,1/2-y,-z
1/2+x,1/2-y,1/2+z
loop_
_atom_site_type_symbol
_atom_site_label
_atom_site_fract_x
_atom_site_fract_y
_atom_site_fract_z
Si Si1 0.210697 0.677220 0.616735
Si Si2 0.500000 0.383463 0.250000
Si Si3 0.818460 0.082289 0.281997
Si Si4 0.665845 0.832991 0.627928
Si Si5 0.456008 0.192256 0.676257
Si Si6 0.714270 0.896968 0.905482
Si Si7 0.203891 0.488883 0.524952
O O1 0.358337 0.686251 0.692277
O O2 0.045874 0.634540 0.630602
O O3 0.165600 0.790534 0.576385
O O4 0.272066 0.591573 0.574650
O O5 0.414173 0.468713 0.285563
O O6 0.721885 0.105899 0.201463
O O7 0.945840 0.187766 0.307836
O O8 0.713826 0.071401 0.331498
O O9 0.464743 0.844886 0.598959
O O10 0.757657 0.716809 0.644358
O O11 0.740468 0.885448 0.574169
O O12 0.500000 0.139461 0.750000
O O13 0.760084 0.992080 0.961185
O O14 0.000000 0.500000 0.500000
#
# Coordination Sequence:
#
# PCOD9260690 Si02
#       7
#     8   4   8   8   8   8   8
#     4  11  23  39  60  93 124 164 210 256 317 368
#     4  12  22  38  64  92 130 162 210 274 312 366
#     4  10  18  38  61  87 116 162 207 252 305 369
#     4  10  18  39  63  86 124 165 203 255 311 367
#     4   9  19  36  61  87 125 154 201 259 311 359
#     4  10  23  36  65  89 123 160 209 254 318 374
#     4  10  21  42  60  89 128 167 202 258 309 378
#
# _framework density 25.638770999999998
#
# number of rings (size 3 to 8) (size 9 to 14) (size 15 to 20)
#    0.000    1.846    3.846    0.923    6.462    0.000 
#    5.538   11.538    0.000    0.000    0.000    0.000 
#    0.000    0.000    0.000    0.000    0.000    0.000 
#
# Total GULP energy -145342.607269 kJ/mol
# GULP energy per Si atom -5590.100280 kJ/mol
# Density = 2.558042 g / cm^3
# Si number density = 25.638771 Si / 1000 Ang^3
#
#
#
# Elastic Constant Matrix: (Units=GPa)
#
#
# Indices 1 2 3 4 5 6 
#
# 1 64.7741 -1.8792 33.9154 0.0000 -22.3351 0.0000
# 2 -1.8792 52.5834 20.8075 0.0000 -10.5463 0.0000
# 3 33.9154 20.8075 98.4407 0.0000 -17.2461 0.0000
# 4 0.0000 0.0000 0.0000 32.1207 0.0000 -6.5527
# 5 -22.3351 -10.5463 -17.2461 0.0000 40.0968 0.0000
# 6 0.0000 0.0000 0.0000 -6.5527 0.0000 24.5460
#
#
#
# Elastic Compliance Matrix: (Units=1/GPa)
#
#
# Indices 1 2 3 4 5 6 
#
# 1 0.023408 0.006039 -0.007331 0.000000 0.011474 0.000000
# 2 0.006039 0.022879 -0.005703 0.000000 0.006929 0.000000
# 3 -0.007331 -0.005703 0.013964 0.000000 0.000422 0.000000
# 4 0.000000 0.000000 0.000000 0.032926 0.000000 0.008790
# 5 0.011474 0.006929 0.000422 0.000000 0.033335 0.000000
# 6 0.000000 0.000000 0.000000 0.008790 0.000000 0.043086
#
#
# Mechanical properties :
#
#
# Convention : Reuss Voigt Hill
#
# Bulk Modulus (GPa) = 21.61622 35.72062 28.66842
# Shear Modulus (GPa) = 25.12449 30.21634 27.67041
#
# Velocity S-wave (km/s) = 3.13380 3.43671 3.28874
# Velocity P-wave (km/s) = 4.64151 5.45073 5.06232
#
# Compressibility (1/GPa) = 0.04626155
#
# Stress axis : x y z
#
# Youngs Moduli (GPa) = 42.71954 43.70736 71.61526
#
# Poissons Ratio (x) = -0.26394 0.52501
# Poissons Ratio (y) = -0.25797 0.40840
# Poissons Ratio (z) = 0.31318 0.24925
#
# Static dielectric constant tensor:
#      x y z
#    x 2.060930 0.000000 -0.008000 
#    y 0.000000 2.040800 0.000000 
#    z -0.008000 0.000000 2.044530 
# 
# From -- ./inp_files/190520.got.cif
#   From: 2010.05.17/outbox.cif.g08.bks.cpg/sg15_96_cif.got.tgz:190520.got - 2010.06.03 18:47:42.
