data_PCOD9260664
_publ_section_title
;
Structure prediction by ZEFSAII (Michael W. Deem and Ramdas Pophale) SiO2 
 PCOD9260664
Probable space group: C 2/C
;
_chemical_formula_sum "Si O2"
_cell_formula_units_Z 36
_cell_length_a 14.032364
_cell_length_b 12.045766
_cell_length_c 16.035578
_cell_angle_alpha 90.000000
_cell_angle_beta 139.347150
_cell_angle_gamma 90.000000
_cell_volume 1765.822998
_symmetry_space_group_name_H-M "C 2/C"
_symmetry_group_IT_number 15
_symmetry_cell_setting 'monoclinic'
loop_
_space_group_symop_operation_xyz
x,y,z
-x,y,1/2-z
-x,-y,-z
x,-y,1/2+z
1/2+x,1/2+y,z
1/2-x,1/2+y,1/2-z
1/2-x,1/2-y,-z
1/2+x,1/2-y,1/2+z
loop_
_atom_site_type_symbol
_atom_site_label
_atom_site_fract_x
_atom_site_fract_y
_atom_site_fract_z
Si Si1 0.504351 0.151835 0.521153
Si Si2 0.250224 0.503648 0.137868
Si Si3 0.413051 0.158685 0.271038
Si Si4 0.000000 0.876240 0.250000
Si Si5 0.408763 0.600798 0.400068
O O1 0.371593 0.087811 0.477300
O O2 0.468586 0.131745 0.399536
O O3 0.510103 0.280814 0.545978
O O4 0.659548 0.089202 0.630750
O O5 0.355147 0.447617 0.139423
O O6 0.357362 0.565288 0.273565
O O7 0.500000 0.109029 0.250000
O O8 0.450227 0.290184 0.287988
O O9 0.243414 0.127900 0.152763
O O10 0.500000 0.500000 0.500000
#
# Coordination Sequence:
#
# PCOD9260664 Si02
#       5
#     8   8   8   4   8
#     4  10  20  40  58  89 123 156 191 249 299 356
#     4  10  22  36  61  86 119 156 198 245 302 343
#     4   9  20  35  63  91 117 141 204 253 287 338
#     4  10  18  38  60  90 116 144 206 250 284 344
#     4  11  22  35  60  89 120 158 195 241 297 360
#
# _framework density 20.387094000000001
#
# number of rings (size 3 to 8) (size 9 to 14) (size 15 to 20)
#    0.667    1.333    2.222    1.333    3.111    5.333 
#    0.000    1.111    2.444    0.000    0.000    0.000 
#    0.000    0.000    0.000    0.000    0.000    0.000 
#
# Total GULP energy -100255.246747 kJ/mol
# GULP energy per Si atom -5569.735930 kJ/mol
# Density = 2.034069 g / cm^3
# Si number density = 20.387094 Si / 1000 Ang^3
#
#
#
# Elastic Constant Matrix: (Units=GPa)
#
#
# Indices 1 2 3 4 5 6 
#
# 1 64.1658 28.8615 24.6588 0.0000 32.0037 0.0000
# 2 28.8615 158.5818 53.8432 0.0000 25.6797 0.0000
# 3 24.6588 53.8432 72.3986 0.0000 19.0752 0.0000
# 4 0.0000 0.0000 0.0000 32.8729 0.0000 16.3856
# 5 32.0037 25.6797 19.0752 0.0000 31.2788 0.0000
# 6 0.0000 0.0000 0.0000 16.3856 0.0000 34.9443
#
#
#
# Elastic Compliance Matrix: (Units=1/GPa)
#
#
# Indices 1 2 3 4 5 6 
#
# 1 0.032277 0.000183 -0.002846 0.000000 -0.031440 0.000000
# 2 0.000183 0.008811 -0.005552 0.000000 -0.004035 0.000000
# 3 -0.002846 -0.005552 0.020186 0.000000 -0.004840 0.000000
# 4 0.000000 0.000000 0.000000 0.039699 0.000000 -0.018615
# 5 -0.031440 -0.004035 -0.004840 0.000000 0.070404 0.000000
# 6 0.000000 0.000000 0.000000 -0.018615 0.000000 0.037346
#
#
# Mechanical properties :
#
#
# Convention : Reuss Voigt Hill
#
# Bulk Modulus (GPa) = 22.29925 56.65257 39.47591
# Shear Modulus (GPa) = 20.82455 32.33804 26.58130
#
# Velocity S-wave (km/s) = 3.19949 3.98704 3.61478
# Velocity P-wave (km/s) = 4.96091 7.00315 6.06855
#
# Compressibility (1/GPa) = 0.04484455
#
# Stress axis : x y z
#
# Youngs Moduli (GPa) = 30.98158 113.49334 49.53902
#
# Poissons Ratio (x) = -0.02078 0.14099
# Poissons Ratio (y) = -0.00567 0.27504
# Poissons Ratio (z) = 0.08818 0.63012
#
# Static dielectric constant tensor:
#      x y z
#    x 1.749400 0.000000 0.030270 
#    y 0.000000 1.784460 0.000000 
#    z 0.030270 0.000000 1.756770 
# 
# From -- ./inp_files/94093.got.cif
#   From: 2010.05.17/outbox.cif.g08.bks.cpg/sg15_48_cif.got.tgz:94093.got - 2010.06.03 18:47:42.
