data_PCOD9260852
_publ_section_title
;
Structure prediction by ZEFSAII (Michael W. Deem and Ramdas Pophale) SiO2 
 PCOD9260852
Probable space group: C 2/C
;
_chemical_formula_sum "Si O2"
_cell_formula_units_Z 48
_cell_length_a 14.983432
_cell_length_b 8.620842
_cell_length_c 23.903620
_cell_angle_alpha 90.000000
_cell_angle_beta 140.911330
_cell_angle_gamma 90.000000
_cell_volume 1946.817037
_symmetry_space_group_name_H-M "C 2/C"
_symmetry_group_IT_number 15
_symmetry_cell_setting 'monoclinic'
loop_
_space_group_symop_operation_xyz
x,y,z
-x,y,1/2-z
-x,-y,-z
x,-y,1/2+z
1/2+x,1/2+y,z
1/2-x,1/2+y,1/2-z
1/2-x,1/2-y,-z
1/2+x,1/2-y,1/2+z
loop_
_atom_site_type_symbol
_atom_site_label
_atom_site_fract_x
_atom_site_fract_y
_atom_site_fract_z
Si Si1 0.949802 0.702343 0.620549
Si Si2 0.470502 0.863572 0.669548
Si Si3 0.788872 0.175505 0.303593
Si Si4 0.802780 0.689805 0.936103
Si Si5 0.561181 0.612258 0.578702
Si Si6 0.713192 0.172527 0.070085
O O1 0.875496 0.805063 0.631489
O O2 0.877367 0.741302 0.525889
O O3 0.915276 0.524453 0.617471
O O4 0.114935 0.730541 0.692719
O O5 0.500000 0.895118 0.750000
O O6 0.620699 0.827901 0.713695
O O7 0.348567 0.735186 0.611952
O O8 0.805860 0.251033 0.373474
O O9 0.860375 0.004543 0.341212
O O10 0.824970 0.506929 0.944547
O O11 0.926044 0.782362 0.028305
O O12 0.500000 0.500000 0.500000
O O13 0.670978 0.729105 0.603048
#
# Coordination Sequence:
#
# PCOD9260852 Si02
#       6
#     8   8   8   8   8   8
#     4  11  23  39  61  91 125 158 202 259 302 365
#     4  10  23  44  61  82 126 173 204 245 317 368
#     4  10  22  42  64  87 126 166 205 248 309 370
#     4  10  21  39  64  91 118 164 202 252 304 372
#     4  10  18  38  66  89 120 163 197 249 309 365
#     4  11  22  37  63  98 122 151 207 256 309 360
#
# _framework density 24.655629000000001
#
# number of rings (size 3 to 8) (size 9 to 14) (size 15 to 20)
#    0.000    1.667    3.333    3.500    2.333    2.000 
#    3.000    9.167    0.000    0.000    0.000    0.000 
#    0.000    0.000    0.000    0.000    0.000    0.000 
#
# Total GULP energy -134432.454246 kJ/mol
# GULP energy per Si atom -5601.352260 kJ/mol
# Density = 2.459951 g / cm^3
# Si number density = 24.655629 Si / 1000 Ang^3
#
#
#
# Elastic Constant Matrix: (Units=GPa)
#
#
# Indices 1 2 3 4 5 6 
#
# 1 82.2209 20.5690 28.3024 0.0000 28.0280 0.0000
# 2 20.5690 126.5906 7.1430 0.0000 15.7039 0.0000
# 3 28.3024 7.1430 91.6184 0.0000 15.8318 0.0000
# 4 0.0000 0.0000 0.0000 28.5278 0.0000 7.6428
# 5 28.0280 15.7039 15.8318 0.0000 44.4481 0.0000
# 6 0.0000 0.0000 0.0000 7.6428 0.0000 30.9787
#
#
#
# Elastic Compliance Matrix: (Units=1/GPa)
#
#
# Indices 1 2 3 4 5 6 
#
# 1 0.016733 -0.001429 -0.003540 0.000000 -0.008786 0.000000
# 2 -0.001429 0.008386 0.000153 0.000000 -0.002116 0.000000
# 3 -0.003540 0.000153 0.012382 0.000000 -0.002233 0.000000
# 4 0.000000 0.000000 0.000000 0.037534 0.000000 -0.009260
# 5 -0.008786 -0.002116 -0.002233 0.000000 0.029581 0.000000
# 6 0.000000 0.000000 0.000000 -0.009260 0.000000 0.034565
#
#
# Mechanical properties :
#
#
# Convention : Reuss Voigt Hill
#
# Bulk Modulus (GPa) = 35.88061 45.82876 40.85469
# Shear Modulus (GPa) = 31.62509 37.08528 34.35518
#
# Velocity S-wave (km/s) = 3.58533 3.88252 3.73688
# Velocity P-wave (km/s) = 5.63238 6.22306 5.93507
#
# Compressibility (1/GPa) = 0.02787020
#
# Stress axis : x y z
#
# Youngs Moduli (GPa) = 59.76099 119.25256 80.76177
#
# Poissons Ratio (x) = 0.17044 0.28586
# Poissons Ratio (y) = 0.08541 -0.01239
# Poissons Ratio (z) = 0.21153 -0.01829
#
# Static dielectric constant tensor:
#      x y z
#    x 1.938850 0.000000 0.000180 
#    y 0.000000 1.889780 0.000000 
#    z 0.000180 0.000000 1.972580 
# 
# From -- ./inp_files/312990.got.cif
#   From: 2010.05.17/outbox.cif.g08.bks.cpg/sg15_157_cif.got.tgz:312990.got - 2010.06.03 18:47:42.
