data_PCOD9260688
_publ_section_title
;
Structure prediction by ZEFSAII (Michael W. Deem and Ramdas Pophale) SiO2 
 PCOD9260688
Probable space group: C 2/C
;
_chemical_formula_sum "Si O2"
_cell_formula_units_Z 48
_cell_length_a 20.774091
_cell_length_b 17.594353
_cell_length_c 15.869778
_cell_angle_alpha 90.000000
_cell_angle_beta 26.464865
_cell_angle_gamma 90.000000
_cell_volume 2584.991126
_symmetry_space_group_name_H-M "C 2/C"
_symmetry_group_IT_number 15
_symmetry_cell_setting 'monoclinic'
loop_
_space_group_symop_operation_xyz
x,y,z
-x,y,1/2-z
-x,-y,-z
x,-y,1/2+z
1/2+x,1/2+y,z
1/2-x,1/2+y,1/2-z
1/2-x,1/2-y,-z
1/2+x,1/2-y,1/2+z
loop_
_atom_site_type_symbol
_atom_site_label
_atom_site_fract_x
_atom_site_fract_y
_atom_site_fract_z
Si Si1 0.200259 0.172489 0.789162
Si Si2 0.192294 0.454558 0.628534
Si Si3 0.677613 0.472457 0.205610
Si Si4 0.575296 0.568906 0.072488
Si Si5 0.448251 0.043681 0.975481
Si Si6 0.043689 0.674588 0.416093
O O1 0.149691 0.103897 0.788808
O O2 0.123786 0.247165 0.842392
O O3 0.375586 0.180526 0.584608
O O4 0.147641 0.141166 0.942131
O O5 0.259118 0.444928 0.458437
O O6 0.308544 0.501823 0.546863
O O7 0.132296 0.378705 0.745198
O O8 0.060403 0.513629 0.775995
O O9 0.546377 0.528634 0.341309
O O10 0.793996 0.517672 0.124772
O O11 0.500000 0.588495 0.250000
O O12 0.455638 0.129553 0.995871
O O13 0.500000 0.000000 0.000000
#
# Coordination Sequence:
#
# PCOD9260688 Si02
#       6
#     8   8   8   8   8   8
#     4  12  24  41  58  90 125 164 198 244 309 360
#     4  10  20  42  63  91 118 158 207 249 300 352
#     4  11  22  37  69  91 118 158 203 256 299 358
#     4  10  23  42  65  90 120 154 209 260 293 353
#     4  10  18  38  61  85 113 156 204 248 287 347
#     4  11  25  38  61  87 128 162 197 248 300 368
#
# _framework density 18.568729999999999
#
# number of rings (size 3 to 8) (size 9 to 14) (size 15 to 20)
#    0.000    1.333    5.000    2.000    4.667    0.667 
#    0.000    2.500    0.000    0.000    0.000    0.000 
#    0.000    0.000    0.000    0.000    0.000    0.000 
#
# Total GULP energy -133821.194914 kJ/mol
# GULP energy per Si atom -5575.883121 kJ/mol
# Density = 1.852647 g / cm^3
# Si number density = 18.568730 Si / 1000 Ang^3
#
#
#
# Elastic Constant Matrix: (Units=GPa)
#
#
# Indices 1 2 3 4 5 6 
#
# 1 83.5454 23.2604 29.2206 -0.0010 -6.5315 0.0002
# 2 23.2604 57.0080 25.5715 -0.0016 4.7653 0.0003
# 3 29.2206 25.5715 76.8586 -0.0014 14.5514 0.0004
# 4 -0.0010 -0.0016 -0.0014 28.3861 0.0008 -8.5323
# 5 -6.5315 4.7653 14.5514 0.0008 28.6027 0.0000
# 6 0.0002 0.0003 0.0004 -8.5323 0.0000 5.1422
#
#
#
# Elastic Compliance Matrix: (Units=1/GPa)
#
#
# Indices 1 2 3 4 5 6 
#
# 1 0.015861 -0.004416 -0.005960 0.000000 0.007390 0.000000
# 2 -0.004416 0.021848 -0.005212 0.000001 -0.001997 0.000001
# 3 -0.005960 -0.005212 0.018927 0.000001 -0.010122 0.000001
# 4 0.000000 0.000001 0.000001 0.070281 -0.000003 0.116615
# 5 0.007390 -0.001997 -0.010122 -0.000003 0.042131 -0.000004
# 6 0.000000 0.000001 0.000001 0.116615 -0.000004 0.387967
#
#
# Mechanical properties :
#
#
# Convention : Reuss Voigt Hill
#
# Bulk Modulus (GPa) = 39.27688 41.50188 40.38938
# Shear Modulus (GPa) = 8.37971 21.71681 15.04826
#
# Velocity S-wave (km/s) = 2.12664 3.42356 2.84986
# Velocity P-wave (km/s) = 5.21807 6.16657 5.71204
#
# Compressibility (1/GPa) = 0.02546027
#
# Stress axis : x y z
#
# Youngs Moduli (GPa) = 63.04629 45.77071 52.83372
#
# Poissons Ratio (x) = 0.20212 0.31490
# Poissons Ratio (y) = 0.27841 0.27537
# Poissons Ratio (z) = 0.37576 0.23856
#
# Static dielectric constant tensor:
#      x y z
#    x 1.650380 0.000000 0.025170 
#    y 0.000000 1.643960 0.000000 
#    z 0.025170 0.000000 1.696120 
# 
# From -- ./inp_files/70557.got.cif
#   From: 2010.05.17/outbox.cif.g08.bks.cpg/sg15_36_cif.got.tgz:70557.got - 2010.06.03 18:47:42.
