data_PCOD9260127
_publ_section_title
;
Structure prediction by ZEFSAII (Michael W. Deem and Ramdas Pophale) SiO2 
 PCOD9260127
Probable space group: C 2/C
;
_chemical_formula_sum "Si O2"
_cell_formula_units_Z 56
_cell_length_a 19.236295
_cell_length_b 19.210839
_cell_length_c 19.785525
_cell_angle_alpha 90.000000
_cell_angle_beta 157.837543
_cell_angle_gamma 90.000000
_cell_volume 2758.202849
_symmetry_space_group_name_H-M "C 2/C"
_symmetry_group_IT_number 15
_symmetry_cell_setting 'monoclinic'
loop_
_space_group_symop_operation_xyz
x,y,z
-x,y,1/2-z
-x,-y,-z
x,-y,1/2+z
1/2+x,1/2+y,z
1/2-x,1/2+y,1/2-z
1/2-x,1/2-y,-z
1/2+x,1/2-y,1/2+z
loop_
_atom_site_type_symbol
_atom_site_label
_atom_site_fract_x
_atom_site_fract_y
_atom_site_fract_z
Si Si1 0.885618 0.316323 0.713477
Si Si2 0.048770 0.156520 0.696135
Si Si3 0.890622 0.007313 0.715669
Si Si4 0.969678 0.829435 0.471515
Si Si5 0.876935 0.965024 0.448966
Si Si6 0.021232 0.455389 0.451678
Si Si7 0.096156 0.669032 0.116271
O O1 0.674503 0.340060 0.511199
O O2 0.966666 0.338619 0.860883
O O3 0.000000 0.336678 0.750000
O O4 0.885736 0.231547 0.718474
O O5 0.126536 0.090911 0.806281
O O6 0.107929 0.146868 0.671279
O O7 0.000000 0.978684 0.750000
O O8 0.700446 0.972564 0.568546
O O9 0.031560 0.995043 0.903089
O O10 0.886433 0.881320 0.451055
O O11 0.939416 0.747315 0.441017
O O12 0.186395 0.841478 0.676664
O O13 0.661051 0.978057 0.251954
O O14 0.000000 0.000000 0.500000
O O15 0.030363 0.379798 0.495753
O O16 0.000000 0.500000 0.500000
#
# Coordination Sequence:
#
# PCOD9260127 Si02
#       7
#     8   8   8   8   8   8   8
#     4  10  21  36  57  86 135 176 212 264 319 391
#     4  10  21  38  57  88 131 174 216 260 318 387
#     4  12  27  45  66  99 136 173 221 278 334 399
#     4  10  18  36  62  93 128 162 218 277 312 385
#     4  12  22  44  68  95 133 172 223 273 328 393
#     4  12  24  41  71  93 131 178 220 272 333 385
#     4  10  21  35  60  98 123 168 226 267 324 388
#
# _framework density 20.303076000000001
#
# number of rings (size 3 to 8) (size 9 to 14) (size 15 to 20)
#    0.000    1.143    4.286    1.714    2.000    6.286 
#    0.000    0.000    0.000    0.857    0.000    0.000 
#    0.000    0.000    0.000    0.000    0.000    0.000 
#
# Total GULP energy -156304.751225 kJ/mol
# GULP energy per Si atom -5582.312544 kJ/mol
# Density = 2.025686 g / cm^3
# Si number density = 20.303076 Si / 1000 Ang^3
#
#
#
# Elastic Constant Matrix: (Units=GPa)
#
#
# Indices 1 2 3 4 5 6 
#
# 1 116.9842 30.7212 45.0223 0.0158 12.8965 -0.0048
# 2 30.7212 76.8903 8.6009 0.0330 6.6856 -0.0418
# 3 45.0223 8.6009 107.5986 0.1208 16.0758 -0.0781
# 4 0.0158 0.0330 0.1208 27.2578 0.0257 2.3600
# 5 12.8965 6.6856 16.0758 0.0257 27.7742 -0.0112
# 6 -0.0048 -0.0418 -0.0781 2.3600 -0.0112 12.0023
#
#
#
# Elastic Compliance Matrix: (Units=1/GPa)
#
#
# Indices 1 2 3 4 5 6 
#
# 1 0.011393 -0.003918 -0.004165 0.000022 -0.001937 -0.000042
# 2 -0.003918 0.014671 0.000791 -0.000022 -0.002170 0.000057
# 3 -0.004165 0.000791 0.011727 -0.000053 -0.005044 0.000083
# 4 0.000022 -0.000022 -0.000053 0.037322 -0.000012 -0.007339
# 5 -0.001937 -0.002170 -0.005044 -0.000012 0.040346 -0.000001
# 6 -0.000042 0.000057 0.000083 -0.007339 -0.000001 0.084761
#
#
# Mechanical properties :
#
#
# Convention : Reuss Voigt Hill
#
# Bulk Modulus (GPa) = 43.08888 52.24020 47.66454
# Shear Modulus (GPa) = 22.46777 27.88210 25.17493
#
# Velocity S-wave (km/s) = 3.33020 3.70982 3.52512
# Velocity P-wave (km/s) = 6.00465 6.64352 6.33215
#
# Compressibility (1/GPa) = 0.02320784
#
# Stress axis : x y z
#
# Youngs Moduli (GPa) = 87.76987 68.16075 85.27330
#
# Poissons Ratio (x) = 0.26705 0.35515
# Poissons Ratio (y) = 0.34388 -0.06744
# Poissons Ratio (z) = 0.36555 -0.05391
#
# Static dielectric constant tensor:
#      x y z
#    x 1.712270 -0.000020 0.042490 
#    y -0.000020 1.793410 -0.000130 
#    z 0.042490 -0.000130 1.790370 
# 
# From -- ./inp_files/253395.got.cif
#   From: 2010.05.17/outbox.cif.g08.bks.cpg/sg15_127_cif.got.tgz:253395.got - 2010.06.03 18:47:42.
