data_PCOD9260902
_publ_section_title
;
Structure prediction by ZEFSAII (Michael W. Deem and Ramdas Pophale) SiO2 
 PCOD9260902
Probable space group: C 2/C
;
_chemical_formula_sum "Si O2"
_cell_formula_units_Z 44
_cell_length_a 17.891056
_cell_length_b 8.012252
_cell_length_c 10.895158
_cell_angle_alpha 90.000000
_cell_angle_beta 88.885792
_cell_angle_gamma 90.000000
_cell_volume 1561.499984
_symmetry_space_group_name_H-M "C 2/C"
_symmetry_group_IT_number 15
_symmetry_cell_setting 'monoclinic'
loop_
_space_group_symop_operation_xyz
x,y,z
-x,y,1/2-z
-x,-y,-z
x,-y,1/2+z
1/2+x,1/2+y,z
1/2-x,1/2+y,1/2-z
1/2-x,1/2-y,-z
1/2+x,1/2-y,1/2+z
loop_
_atom_site_type_symbol
_atom_site_label
_atom_site_fract_x
_atom_site_fract_y
_atom_site_fract_z
Si Si1 0.349170 0.941165 0.277467
Si Si2 0.618823 0.763291 0.561490
Si Si3 0.607914 0.445715 0.439805
Si Si4 0.500000 0.620867 0.750000
Si Si5 0.011557 0.338521 0.086083
Si Si6 0.772541 0.279600 0.638908
O O1 0.335161 0.079520 0.390199
O O2 0.316812 0.052730 0.168133
O O3 0.435055 0.893187 0.302438
O O4 0.300135 0.773702 0.283720
O O5 0.646949 0.576003 0.530866
O O6 0.556817 0.733172 0.670269
O O7 0.575083 0.786181 0.434087
O O8 0.540772 0.491701 0.348698
O O9 0.567249 0.296162 0.517478
O O10 0.668046 0.368906 0.345772
O O11 0.000000 0.500000 0.000000
O O12 0.750000 0.250000 0.500000
#
# Coordination Sequence:
#
# PCOD9260902 Si02
#       6
#     8   8   8   4   8   8
#     4  11  25  47  69  98 139 187 241 284 357 425
#     4  10  22  41  73 103 137 180 230 296 356 416
#     4  11  22  42  70 100 140 177 234 290 354 411
#     4  10  18  38  68  98 136 176 212 286 348 406
#     4   9  19  40  69  97 134 170 222 291 347 418
#     4  12  27  47  70  96 143 191 233 295 344 424
#
# _framework density 28.178032999999999
#
# number of rings (size 3 to 8) (size 9 to 14) (size 15 to 20)
#    0.000    1.455    3.636    2.182    2.545    0.727 
#    3.273    0.000    8.000    0.000    0.000    0.000 
#    0.000    0.000    0.000    0.000    0.000    0.000 
#
# Total GULP energy -122662.551342 kJ/mol
# GULP energy per Si atom -5575.570516 kJ/mol
# Density = 2.811390 g / cm^3
# Si number density = 28.178033 Si / 1000 Ang^3
#
#
#
# Elastic Constant Matrix: (Units=GPa)
#
#
# Indices 1 2 3 4 5 6 
#
# 1 128.2388 7.3326 25.7381 0.0000 12.9165 0.0000
# 2 7.3326 62.6421 23.2194 0.0000 15.3597 0.0000
# 3 25.7381 23.2194 150.8101 0.0000 47.3509 0.0000
# 4 0.0000 0.0000 0.0000 53.5541 0.0000 20.4270
# 5 12.9165 15.3597 47.3509 0.0000 53.5637 0.0000
# 6 0.0000 0.0000 0.0000 20.4270 0.0000 24.4284
#
#
#
# Elastic Compliance Matrix: (Units=1/GPa)
#
#
# Indices 1 2 3 4 5 6 
#
# 1 0.008121 -0.000334 -0.001038 0.000000 -0.000945 0.000000
# 2 -0.000334 0.017440 -0.001499 0.000000 -0.003595 0.000000
# 3 -0.001038 -0.001499 0.009447 0.000000 -0.007672 0.000000
# 4 0.000000 0.000000 0.000000 0.027418 0.000000 -0.022927
# 5 -0.000945 -0.003595 -0.007672 0.000000 0.026710 0.000000
# 6 0.000000 0.000000 0.000000 -0.022927 0.000000 0.060107
#
#
# Mechanical properties :
#
#
# Convention : Reuss Voigt Hill
#
# Bulk Modulus (GPa) = 34.16994 50.47458 42.32226
# Shear Modulus (GPa) = 30.35079 45.33594 37.84336
#
# Velocity S-wave (km/s) = 3.28549 4.01547 3.66869
# Velocity P-wave (km/s) = 5.15222 6.28095 5.74438
#
# Compressibility (1/GPa) = 0.02926549
#
# Stress axis : x y z
#
# Youngs Moduli (GPa) = 123.14479 57.33922 105.84825
#
# Poissons Ratio (x) = 0.01916 0.10984
# Poissons Ratio (y) = 0.04115 0.15871
# Poissons Ratio (z) = 0.12779 0.08597
#
# Static dielectric constant tensor:
#      x y z
#    x 2.358790 0.000000 0.072430 
#    y 0.000000 1.805660 0.000000 
#    z 0.072430 0.000000 2.367800 
# 
# From -- ./inp_files/110119.got.cif
#   From: 2010.05.17/outbox.cif.g08.bks.cpg/sg15_56_cif.got.tgz:110119.got - 2010.06.03 18:47:42.
