data_PCOD9260412
_publ_section_title
;
Structure prediction by ZEFSAII (Michael W. Deem and Ramdas Pophale) SiO2 
 PCOD9260412
Probable space group: C 2/C
;
_chemical_formula_sum "Si O2"
_cell_formula_units_Z 44
_cell_length_a 10.714628
_cell_length_b 16.013440
_cell_length_c 25.808643
_cell_angle_alpha 90.000000
_cell_angle_beta 29.784168
_cell_angle_gamma 90.000000
_cell_volume 2199.636574
_symmetry_space_group_name_H-M "C 2/C"
_symmetry_group_IT_number 15
_symmetry_cell_setting 'monoclinic'
loop_
_space_group_symop_operation_xyz
x,y,z
-x,y,1/2-z
-x,-y,-z
x,-y,1/2+z
1/2+x,1/2+y,z
1/2-x,1/2+y,1/2-z
1/2-x,1/2-y,-z
1/2+x,1/2-y,1/2+z
loop_
_atom_site_type_symbol
_atom_site_label
_atom_site_fract_x
_atom_site_fract_y
_atom_site_fract_z
Si Si1 0.798986 0.111257 0.276590
Si Si2 0.814648 0.239312 0.398166
Si Si3 0.935496 0.374880 0.438832
Si Si4 0.500000 0.151892 0.750000
Si Si5 0.819861 0.931269 0.225346
Si Si6 0.365198 0.048079 0.499892
O O1 0.538806 0.107661 0.402149
O O2 0.000000 0.095372 0.250000
O O3 0.917702 0.189767 0.203132
O O4 0.800020 0.030831 0.239474
O O5 0.611178 0.171825 0.489953
O O6 0.818268 0.312124 0.439286
O O7 0.797254 0.286911 0.350257
O O8 0.213519 0.392534 0.317213
O O9 0.807172 0.465511 0.485917
O O10 0.359576 0.099930 0.756310
O O11 0.108039 0.911128 0.110665
O O12 0.500000 0.000000 0.500000
#
# Coordination Sequence:
#
# PCOD9260412 Si02
#       6
#     8   8   8   4   8   8
#     4  11  19  34  64  90 112 155 210 249 294 358
#     4  10  18  37  61  87 117 166 203 234 311 372
#     4   9  20  34  59  88 116 157 204 244 298 361
#     4  10  22  38  62  88 130 166 196 242 310 380
#     4  10  21  38  58  94 120 156 203 253 301 358
#     4  11  20  35  63  93 116 152 208 263 294 350
#
# _framework density 20.003305000000001
#
# number of rings (size 3 to 8) (size 9 to 14) (size 15 to 20)
#    0.000    1.818    4.545    0.000    0.000    0.000 
#    0.000   11.818    4.000    0.000    0.000    0.000 
#    0.000    0.000    0.000    0.000    0.000    0.000 
#
# Total GULP energy -122491.780607 kJ/mol
# GULP energy per Si atom -5567.808209 kJ/mol
# Density = 1.995778 g / cm^3
# Si number density = 20.003305 Si / 1000 Ang^3
#
#
#
# Elastic Constant Matrix: (Units=GPa)
#
#
# Indices 1 2 3 4 5 6 
#
# 1 43.4917 12.5560 15.9434 0.0064 9.1257 0.0062
# 2 12.5560 64.7045 4.7431 -0.0206 8.6378 0.0079
# 3 15.9434 4.7431 151.1980 0.0018 1.5678 -0.0194
# 4 0.0064 -0.0206 0.0018 41.7809 -0.0122 11.7417
# 5 9.1257 8.6378 1.5678 -0.0122 28.7909 0.0073
# 6 0.0062 0.0079 -0.0194 11.7417 0.0073 29.3964
#
#
#
# Elastic Compliance Matrix: (Units=1/GPa)
#
#
# Indices 1 2 3 4 5 6 
#
# 1 0.026595 -0.004025 -0.002605 -0.000008 -0.007080 -0.000002
# 2 -0.004025 0.016740 -0.000062 0.000010 -0.003743 -0.000007
# 3 -0.002605 -0.000062 0.006886 -0.000001 0.000469 0.000006
# 4 -0.000008 0.000010 -0.000001 0.026961 0.000014 -0.010769
# 5 -0.007080 -0.003743 0.000469 0.000014 0.038075 -0.000012
# 6 -0.000002 -0.000007 0.000006 -0.010769 -0.000012 0.038319
#
#
# Mechanical properties :
#
#
# Convention : Reuss Voigt Hill
#
# Bulk Modulus (GPa) = 27.14565 36.20880 31.67722
# Shear Modulus (GPa) = 27.89585 35.07042 31.48314
#
# Velocity S-wave (km/s) = 3.73843 4.19170 3.97154
# Velocity P-wave (km/s) = 5.67755 6.44732 6.07464
#
# Compressibility (1/GPa) = 0.03683832
#
# Stress axis : x y z
#
# Youngs Moduli (GPa) = 37.60058 59.73665 145.23098
#
# Poissons Ratio (x) = 0.24042 0.37829
# Poissons Ratio (y) = 0.15133 0.00899
# Poissons Ratio (z) = 0.09794 0.00370
#
# Static dielectric constant tensor:
#      x y z
#    x 1.702290 0.000000 0.047850 
#    y 0.000000 1.755720 0.000010 
#    z 0.047850 0.000010 1.782750 
# 
# From -- ./inp_files/86199.got.cif
#   From: 2010.05.17/outbox.cif.g08.bks.cpg/sg15_44_cif.got.tgz:86199.got - 2010.06.03 18:47:42.
