data_PCOD9260468
_publ_section_title
;
Structure prediction by ZEFSAII (Michael W. Deem and Ramdas Pophale) SiO2 
 PCOD9260468
Probable space group: C 2/C
;
_chemical_formula_sum "Si O2"
_cell_formula_units_Z 56
_cell_length_a 17.938206
_cell_length_b 11.576732
_cell_length_c 11.499354
_cell_angle_alpha 90.000000
_cell_angle_beta 121.993386
_cell_angle_gamma 90.000000
_cell_volume 2025.304075
_symmetry_space_group_name_H-M "C 2/C"
_symmetry_group_IT_number 15
_symmetry_cell_setting 'monoclinic'
loop_
_space_group_symop_operation_xyz
x,y,z
-x,y,1/2-z
-x,-y,-z
x,-y,1/2+z
1/2+x,1/2+y,z
1/2-x,1/2+y,1/2-z
1/2-x,1/2-y,-z
1/2+x,1/2-y,1/2+z
loop_
_atom_site_type_symbol
_atom_site_label
_atom_site_fract_x
_atom_site_fract_y
_atom_site_fract_z
Si Si1 0.885700 0.428615 0.369183
Si Si2 0.726657 0.671771 0.634807
Si Si3 0.708236 0.622102 0.988361
Si Si4 0.398706 0.309264 0.675264
Si Si5 0.429186 0.661452 0.439106
Si Si6 0.892823 0.454328 0.637624
Si Si7 0.599143 0.285127 0.218782
O O1 0.780234 0.417590 0.262140
O O2 0.919872 0.299738 0.416243
O O3 0.909406 0.483108 0.514950
O O4 0.921813 0.476136 0.276156
O O5 0.646947 0.640786 0.479231
O O6 0.812329 0.731995 0.644137
O O7 0.671596 0.751002 0.681335
O O8 0.638929 0.615256 0.830061
O O9 0.750000 0.750000 0.000000
O O10 0.654896 0.620628 0.061329
O O11 0.787523 0.535255 0.050869
O O12 0.500000 0.256290 0.750000
O O13 0.422085 0.388299 0.804832
O O14 0.516818 0.659544 0.585961
O O15 0.913674 0.323929 0.703381
#
# Coordination Sequence:
#
# PCOD9260468 Si02
#       7
#     8   8   8   8   8   8   8
#     4  11  23  40  58  90 130 170 209 258 330 392
#     4  10  21  38  63  87 124 164 212 267 311 382
#     4  10  18  37  63  86 112 158 224 258 304 363
#     4  10  19  34  57  92 124 154 200 261 326 368
#     4  11  21  36  64  95 122 157 213 274 315 385
#     4  11  23  38  61  89 128 174 209 261 325 393
#     4  11  20  38  66  91 118 161 221 266 310 372
#
# _framework density 27.650167
#
# number of rings (size 3 to 8) (size 9 to 14) (size 15 to 20)
#    0.000    1.429    5.714    3.000    0.000    5.143 
#    0.000    0.000    0.000    2.571    0.000    0.000 
#    0.000    0.000    0.000    0.000    0.000    0.000 
#
# Total GULP energy -156011.263657 kJ/mol
# GULP energy per Si atom -5571.830845 kJ/mol
# Density = 2.758723 g / cm^3
# Si number density = 27.650167 Si / 1000 Ang^3
#
#
#
# Elastic Constant Matrix: (Units=GPa)
#
#
# Indices 1 2 3 4 5 6 
#
# 1 99.9304 6.9841 78.8744 0.0000 -2.4101 0.0000
# 2 6.9841 58.8437 38.1417 0.0000 -6.9798 0.0000
# 3 78.8744 38.1417 306.9459 0.0000 18.4867 0.0000
# 4 0.0000 0.0000 0.0000 37.4376 0.0000 0.7990
# 5 -2.4101 -6.9798 18.4867 0.0000 73.3613 0.0000
# 6 0.0000 0.0000 0.0000 0.7990 0.0000 -0.4796
#
#
#
# Elastic Compliance Matrix: (Units=1/GPa)
#
#
# Indices 1 2 3 4 5 6 
#
# 1 0.012708 0.000897 -0.003460 0.000000 0.001375 0.000000
# 2 0.000897 0.018962 -0.002739 0.000000 0.002524 0.000000
# 3 -0.003460 -0.002739 0.004579 0.000000 -0.001528 0.000000
# 4 0.000000 0.000000 0.000000 0.025794 0.000000 0.042970
# 5 0.001375 0.002524 -0.001528 0.000000 0.014302 0.000000
# 6 0.000000 0.000000 0.000000 0.042970 0.000000 -2.013296
#
#
# Mechanical properties :
#
#
# Convention : Reuss Voigt Hill
#
# Bulk Modulus (GPa) = 38.99066 79.30228 59.14647
# Shear Modulus (GPa) = -2.60716 44.84517 21.11901
#
# Velocity S-wave (km/s) = -0.97209 4.03162 2.76668
# Velocity P-wave (km/s) = 3.58777 7.10034 5.62525
#
# Compressibility (1/GPa) = 0.02564717
#
# Stress axis : x y z
#
# Youngs Moduli (GPa) = 78.68891 52.73606 218.37115
#
# Poissons Ratio (x) = -0.04732 0.75554
# Poissons Ratio (y) = -0.07061 0.59810
# Poissons Ratio (z) = 0.27226 0.14444
#
# Static dielectric constant tensor:
#      x y z
#    x 2.311400 0.000000 -0.048310 
#    y 0.000000 2.286970 0.000000 
#    z -0.048310 0.000000 2.267410 
# 
# From -- ./inp_files/106489.got.cif
#   From: 2010.05.17/outbox.cif.g08.bks.cpg/sg15_54_cif.got.tgz:106489.got - 2010.06.03 18:47:42.
