data_PCOD9260449
_publ_section_title
;
Structure prediction by ZEFSAII (Michael W. Deem and Ramdas Pophale) SiO2 
 PCOD9260449
Probable space group: C 2/C
;
_chemical_formula_sum "Si O2"
_cell_formula_units_Z 52
_cell_length_a 31.138017
_cell_length_b 16.543978
_cell_length_c 15.042236
_cell_angle_alpha 90.000000
_cell_angle_beta 18.414065
_cell_angle_gamma 90.000000
_cell_volume 2447.755949
_symmetry_space_group_name_H-M "C 2/C"
_symmetry_group_IT_number 15
_symmetry_cell_setting 'monoclinic'
loop_
_space_group_symop_operation_xyz
x,y,z
-x,y,1/2-z
-x,-y,-z
x,-y,1/2+z
1/2+x,1/2+y,z
1/2-x,1/2+y,1/2-z
1/2-x,1/2-y,-z
1/2+x,1/2-y,1/2+z
loop_
_atom_site_type_symbol
_atom_site_label
_atom_site_fract_x
_atom_site_fract_y
_atom_site_fract_z
Si Si1 0.245117 0.002873 0.321222
Si Si2 0.500000 0.379250 0.250000
Si Si3 0.889860 0.111893 0.139012
Si Si4 0.209074 0.942007 0.212320
Si Si5 0.055939 0.861712 0.765418
Si Si6 0.410462 0.079087 0.155361
Si Si7 0.136609 0.297426 0.162162
O O1 0.298220 0.969921 0.122005
O O2 0.172368 0.926453 0.512246
O O3 0.339451 0.053153 0.202225
O O4 0.125472 0.063729 0.528672
O O5 0.460175 0.339055 0.420893
O O6 0.953846 0.133484 0.107331
O O7 0.730237 0.130331 0.445001
O O8 0.888890 0.015769 0.127519
O O9 0.094075 0.881051 0.474920
O O10 0.299103 0.913554 0.952841
O O11 0.095738 0.769262 0.670685
O O12 0.505992 0.158537 0.961075
O O13 0.500000 0.000000 0.000000
O O14 0.250000 0.250000 0.000000
#
# Coordination Sequence:
#
# PCOD9260449 Si02
#       7
#     8   4   8   8   8   8   8
#     4  11  21  38  66  98 127 168 221 269 322 396
#     4  10  20  36  64  98 118 158 228 262 310 384
#     4  10  18  37  62  91 122 167 211 264 311 387
#     4  11  21  37  65  96 126 168 223 269 317 393
#     4  11  19  39  65  91 130 170 209 264 340 394
#     4  12  23  41  65  94 131 175 221 274 324 382
#     4  10  23  41  63  93 131 178 213 264 346 394
#
# _framework density 21.243949000000001
#
# number of rings (size 3 to 8) (size 9 to 14) (size 15 to 20)
#    0.000    1.231    6.154    2.308    0.000    1.231 
#    0.000    9.231    0.000    0.000    0.000    0.000 
#    0.000    0.000    0.000    0.000    0.000    0.000 
#
# Total GULP energy -144834.463781 kJ/mol
# GULP energy per Si atom -5570.556299 kJ/mol
# Density = 2.119560 g / cm^3
# Si number density = 21.243949 Si / 1000 Ang^3
#
#
#
# Elastic Constant Matrix: (Units=GPa)
#
#
# Indices 1 2 3 4 5 6 
#
# 1 110.4594 9.8746 15.1835 -0.0001 -4.6497 0.0000
# 2 9.8746 57.4734 15.9040 0.0002 -16.4225 0.0001
# 3 15.1835 15.9040 57.1841 0.0000 -4.2908 0.0000
# 4 -0.0001 0.0002 0.0000 33.3755 0.0001 -9.2447
# 5 -4.6497 -16.4225 -4.2908 0.0001 36.1761 0.0000
# 6 0.0000 0.0001 0.0000 -9.2447 0.0000 18.4964
#
#
#
# Elastic Compliance Matrix: (Units=1/GPa)
#
#
# Indices 1 2 3 4 5 6 
#
# 1 0.009460 -0.000845 -0.002234 0.000000 0.000567 0.000000
# 2 -0.000845 0.021543 -0.005087 0.000000 0.009068 0.000000
# 3 -0.002234 -0.005087 0.019474 0.000000 -0.000287 0.000000
# 4 0.000000 0.000000 0.000000 0.034777 0.000000 0.017382
# 5 0.000567 0.009068 -0.000287 0.000000 0.031798 0.000000
# 6 0.000000 0.000000 0.000000 0.017382 0.000000 0.062752
#
#
# Mechanical properties :
#
#
# Convention : Reuss Voigt Hill
#
# Bulk Modulus (GPa) = 29.28706 34.11569 31.70137
# Shear Modulus (GPa) = 24.09442 29.88657 26.99049
#
# Velocity S-wave (km/s) = 3.37141 3.75484 3.56828
# Velocity P-wave (km/s) = 5.38249 5.90697 5.65082
#
# Compressibility (1/GPa) = 0.03414478
#
# Stress axis : x y z
#
# Youngs Moduli (GPa) = 105.71247 46.41838 51.35096
#
# Poissons Ratio (x) = 0.03922 0.11473
# Poissons Ratio (y) = 0.08932 0.26121
# Poissons Ratio (z) = 0.23618 0.23612
#
# Static dielectric constant tensor:
#      x y z
#    x 1.893900 0.000000 0.042410 
#    y 0.000000 1.828770 0.000000 
#    z 0.042410 0.000000 1.817670 
# 
# From -- ./inp_files/182859.got.cif
#   From: 2010.05.17/outbox.cif.g08.bks.cpg/sg15_92_cif.got.tgz:182859.got - 2010.06.03 18:47:42.
