data_PCOD9260529
_publ_section_title
;
Structure prediction by ZEFSAII (Michael W. Deem and Ramdas Pophale) SiO2 
 PCOD9260529
Probable space group: C 2/C
;
_chemical_formula_sum "Si O2"
_cell_formula_units_Z 44
_cell_length_a 14.496840
_cell_length_b 12.878254
_cell_length_c 9.552747
_cell_angle_alpha 90.000000
_cell_angle_beta 107.292632
_cell_angle_gamma 90.000000
_cell_volume 1702.827199
_symmetry_space_group_name_H-M "C 2/C"
_symmetry_group_IT_number 15
_symmetry_cell_setting 'monoclinic'
loop_
_space_group_symop_operation_xyz
x,y,z
-x,y,1/2-z
-x,-y,-z
x,-y,1/2+z
1/2+x,1/2+y,z
1/2-x,1/2+y,1/2-z
1/2-x,1/2-y,-z
1/2+x,1/2-y,1/2+z
loop_
_atom_site_type_symbol
_atom_site_label
_atom_site_fract_x
_atom_site_fract_y
_atom_site_fract_z
Si Si1 0.000000 0.618844 0.250000
Si Si2 0.746524 0.632082 0.945761
Si Si3 0.000144 0.731619 0.532530
Si Si4 0.146506 0.567617 0.090669
Si Si5 0.081867 0.902494 0.176892
Si Si6 0.346294 0.376179 0.809059
O O1 0.036206 0.689405 0.396300
O O2 0.076259 0.359236 0.465089
O O3 0.683999 0.589626 0.046932
O O4 0.750000 0.750000 0.000000
O O5 0.828296 0.545809 0.954692
O O6 0.685391 0.636309 0.776412
O O7 0.943330 0.838706 0.473558
O O8 0.085579 0.440948 0.708719
O O9 0.092085 0.769824 0.662120
O O10 0.248484 0.622126 0.173957
O O11 0.000000 0.873495 0.250000
O O12 0.088594 0.025391 0.194885
#
# Coordination Sequence:
#
# PCOD9260529 Si02
#       6
#     4   8   8   8   8   8
#     4   8  18  38  64  90 140 170 224 290 332 406
#     4  11  23  39  66  95 131 188 227 272 358 415
#     4  10  18  37  65  94 133 173 224 285 343 395
#     4   9  22  40  62 103 135 172 236 290 326 423
#     4  11  20  38  65  97 129 168 241 286 329 420
#     4  11  22  35  68  98 127 183 230 278 344 407
#
# _framework density 25.839380999999999
#
# number of rings (size 3 to 8) (size 9 to 14) (size 15 to 20)
#    1.091    0.727    2.727    1.636    2.545    0.000 
#    0.000    4.545   10.000    0.000    0.000    0.000 
#    0.000    0.000    0.000    0.000    0.000    0.000 
#
# Total GULP energy -122704.183153 kJ/mol
# GULP energy per Si atom -5577.462871 kJ/mol
# Density = 2.578057 g / cm^3
# Si number density = 25.839381 Si / 1000 Ang^3
#
#
#
# Elastic Constant Matrix: (Units=GPa)
#
#
# Indices 1 2 3 4 5 6 
#
# 1 116.7423 100.9486 28.3402 0.0000 27.6180 0.0000
# 2 100.9486 174.3646 68.6293 0.0000 37.8179 0.0000
# 3 28.3402 68.6293 80.1166 0.0000 34.5668 0.0000
# 4 0.0000 0.0000 0.0000 48.0126 0.0000 11.2190
# 5 27.6180 37.8179 34.5668 0.0000 30.2762 0.0000
# 6 0.0000 0.0000 0.0000 11.2190 0.0000 38.6327
#
#
#
# Elastic Compliance Matrix: (Units=1/GPa)
#
#
# Indices 1 2 3 4 5 6 
#
# 1 0.020341 -0.012522 0.009437 0.000000 -0.013689 0.000000
# 2 -0.012522 0.016702 -0.011441 0.000000 0.003622 0.000000
# 3 0.009437 -0.011441 0.032504 0.000000 -0.031428 0.000000
# 4 0.000000 0.000000 0.000000 0.022344 0.000000 -0.006489
# 5 -0.013689 0.003622 -0.031428 0.000000 0.076874 0.000000
# 6 0.000000 0.000000 0.000000 -0.006489 0.000000 0.027769
#
#
# Mechanical properties :
#
#
# Convention : Reuss Voigt Hill
#
# Bulk Modulus (GPa) = 24.69355 85.22885 54.96120
# Shear Modulus (GPa) = 20.91309 34.93799 27.92554
#
# Velocity S-wave (km/s) = 2.84799 3.68111 3.29102
# Velocity P-wave (km/s) = 4.51576 7.15004 5.97977
#
# Compressibility (1/GPa) = 0.04049641
#
# Stress axis : x y z
#
# Youngs Moduli (GPa) = 49.16078 59.87198 30.76576
#
# Poissons Ratio (x) = 0.74973 -0.29035
# Poissons Ratio (y) = 0.61560 0.35198
# Poissons Ratio (z) = -0.46395 0.68497
#
# Static dielectric constant tensor:
#      x y z
#    x 1.573870 0.000000 0.072620 
#    y 0.000000 2.116620 0.000000 
#    z 0.072620 0.000000 2.148280 
# 
# From -- ./inp_files/111289.got.cif
#   From: 2010.05.17/outbox.cif.g08.bks.cpg/sg15_56_cif.got.tgz:111289.got - 2010.06.03 18:47:42.
