data_PCOD9260738
_publ_section_title
;
Structure prediction by ZEFSAII (Michael W. Deem and Ramdas Pophale) SiO2 
 PCOD9260738
Probable space group: C 2/C
;
_chemical_formula_sum "Si O2"
_cell_formula_units_Z 64
_cell_length_a 13.966559
_cell_length_b 18.015260
_cell_length_c 15.315146
_cell_angle_alpha 90.000000
_cell_angle_beta 58.720200
_cell_angle_gamma 90.000000
_cell_volume 3293.330344
_symmetry_space_group_name_H-M "C 2/C"
_symmetry_group_IT_number 15
_symmetry_cell_setting 'monoclinic'
loop_
_space_group_symop_operation_xyz
x,y,z
-x,y,1/2-z
-x,-y,-z
x,-y,1/2+z
1/2+x,1/2+y,z
1/2-x,1/2+y,1/2-z
1/2-x,1/2-y,-z
1/2+x,1/2-y,1/2+z
loop_
_atom_site_type_symbol
_atom_site_label
_atom_site_fract_x
_atom_site_fract_y
_atom_site_fract_z
Si Si1 0.617205 0.176818 0.667338
Si Si2 0.876564 0.284526 0.851893
Si Si3 0.298326 0.271809 0.215075
Si Si4 0.981002 0.176832 0.373138
Si Si5 0.271237 0.574793 0.481050
Si Si6 0.461699 0.311645 0.465788
Si Si7 0.777078 0.925572 0.586430
Si Si8 0.283262 0.609699 0.281136
O O1 0.500000 0.140452 0.750000
O O2 0.695678 0.189200 0.714577
O O3 0.584012 0.257119 0.644088
O O4 0.682330 0.131929 0.563260
O O5 0.805316 0.235441 0.816270
O O6 0.893956 0.242128 0.933964
O O7 0.815137 0.362732 0.890999
O O8 0.000000 0.293883 0.750000
O O9 0.412004 0.311192 0.129817
O O10 0.291381 0.184933 0.188792
O O11 0.891926 0.113422 0.438519
O O12 0.030446 0.213171 0.437809
O O13 0.088108 0.138759 0.277577
O O14 0.260738 0.499683 0.540106
O O15 0.258124 0.567599 0.382702
O O16 0.396317 0.389320 0.503037
O O17 0.772428 0.933296 0.694309
#
# Coordination Sequence:
#
# PCOD9260738 Si02
#       8
#     8   8   8   8   8   8   8   8
#     4  12  22  38  64  98 125 159 211 273 311 366
#     4   9  20  40  66  87 122 170 211 259 310 369
#     4  10  18  38  62  94 122 156 208 267 313 360
#     4  11  20  37  64  93 125 160 210 270 316 365
#     4  12  23  39  61  93 131 169 206 254 324 382
#     4  10  20  37  64  93 118 161 214 257 308 373
#     4  10  24  41  59  92 131 170 210 253 316 386
#     4  10  21  40  64  86 127 166 211 258 324 364
#
# _framework density 19.433216000000002
#
# number of rings (size 3 to 8) (size 9 to 14) (size 15 to 20)
#    0.000    1.500    3.750    1.875    0.000    2.500 
#    2.250    2.500    0.000    8.250    0.000    0.000 
#    0.000    0.000    0.000    0.000    0.000    0.000 
#
# Total GULP energy -178618.649508 kJ/mol
# GULP energy per Si atom -5581.832797 kJ/mol
# Density = 1.938899 g / cm^3
# Si number density = 19.433216 Si / 1000 Ang^3
#
#
#
# Elastic Constant Matrix: (Units=GPa)
#
#
# Indices 1 2 3 4 5 6 
#
# 1 107.8811 27.4407 48.8202 0.0000 23.9588 0.0000
# 2 27.4407 61.4562 60.2288 0.0000 15.0545 0.0000
# 3 48.8202 60.2288 129.3147 0.0000 20.4432 0.0000
# 4 0.0000 0.0000 0.0000 33.1559 0.0000 7.7444
# 5 23.9588 15.0545 20.4432 0.0000 35.6479 0.0000
# 6 0.0000 0.0000 0.0000 7.7444 0.0000 1.1596
#
#
#
# Elastic Compliance Matrix: (Units=1/GPa)
#
#
# Indices 1 2 3 4 5 6 
#
# 1 0.012316 -0.000732 -0.003353 0.000000 -0.006045 0.000000
# 2 -0.000732 0.030851 -0.013318 0.000000 -0.004899 0.000000
# 3 -0.003353 -0.013318 0.015348 0.000000 -0.000924 0.000000
# 4 0.000000 0.000000 0.000000 -0.053863 0.000000 0.359729
# 5 -0.006045 -0.004899 -0.000924 0.000000 0.034714 0.000000
# 6 0.000000 0.000000 0.000000 0.359729 0.000000 -1.540102
#
#
# Mechanical properties :
#
#
# Convention : Reuss Voigt Hill
#
# Bulk Modulus (GPa) = 42.17973 63.51461 52.84717
# Shear Modulus (GPa) = -3.42929 24.80349 10.68710
#
# Velocity S-wave (km/s) = -1.32984 3.57647 2.34762
# Velocity P-wave (km/s) = 4.40387 7.05757 5.88232
#
# Compressibility (1/GPa) = 0.02370807
#
# Stress axis : x y z
#
# Youngs Moduli (GPa) = 81.19836 32.41409 65.15618
#
# Poissons Ratio (x) = 0.02374 0.21845
# Poissons Ratio (y) = 0.05947 0.86774
# Poissons Ratio (z) = 0.27223 0.43169
#
# Static dielectric constant tensor:
#      x y z
#    x 1.728790 0.000000 0.010280 
#    y 0.000000 1.633610 0.000000 
#    z 0.010280 0.000000 1.739250 
# 
# From -- ./inp_files/155181.got.cif
#   From: 2010.05.17/outbox.cif.g08.bks.cpg/sg15_78_cif.got.tgz:155181.got - 2010.06.03 18:47:42.
