data_PCOD9260549
_publ_section_title
;
Structure prediction by ZEFSAII (Michael W. Deem and Ramdas Pophale) SiO2 
 PCOD9260549
Probable space group: C 2/C
;
_chemical_formula_sum "Si O2"
_cell_formula_units_Z 64
_cell_length_a 11.964973
_cell_length_b 14.219624
_cell_length_c 18.036967
_cell_angle_alpha 90.000000
_cell_angle_beta 100.519953
_cell_angle_gamma 90.000000
_cell_volume 3017.181325
_symmetry_space_group_name_H-M "C 2/C"
_symmetry_group_IT_number 15
_symmetry_cell_setting 'monoclinic'
loop_
_space_group_symop_operation_xyz
x,y,z
-x,y,1/2-z
-x,-y,-z
x,-y,1/2+z
1/2+x,1/2+y,z
1/2-x,1/2+y,1/2-z
1/2-x,1/2-y,-z
1/2+x,1/2-y,1/2+z
loop_
_atom_site_type_symbol
_atom_site_label
_atom_site_fract_x
_atom_site_fract_y
_atom_site_fract_z
Si Si1 0.078834 0.624122 0.869175
Si Si2 0.848968 0.541102 0.871487
Si Si3 0.731888 0.360745 0.490737
Si Si4 0.364721 0.845758 0.950917
Si Si5 0.208137 0.001476 0.121548
Si Si6 0.101705 0.833546 0.884415
Si Si7 0.025442 0.854298 0.036350
Si Si8 0.120393 0.998208 0.768646
O O1 0.181012 0.562329 0.850444
O O2 0.080151 0.732495 0.846588
O O3 0.955359 0.582234 0.841600
O O4 0.098606 0.626688 0.961481
O O5 0.821556 0.595909 0.944385
O O6 0.878970 0.433986 0.897995
O O7 0.731557 0.549298 0.812825
O O8 0.750000 0.250000 0.500000
O O9 0.741774 0.416904 0.568786
O O10 0.600622 0.375396 0.449899
O O11 0.229222 0.828668 0.933752
O O12 0.429448 0.749892 0.937021
O O13 0.114498 0.932757 0.072885
O O14 0.156165 0.036947 0.191944
O O15 0.098503 0.914220 0.823533
O O16 0.022827 0.853065 0.946022
O O17 0.000000 0.052234 0.750000
#
# Coordination Sequence:
#
# PCOD9260549 Si02
#       8
#     8   8   8   8   8   8   8   8
#     4  11  20  38  70  99 129 161 221 267 320 390
#     4  11  24  42  66  94 135 170 209 270 336 381
#     4  12  25  40  62 100 133 170 215 274 327 383
#     4  10  18  37  67 101 124 163 208 271 330 378
#     4  12  23  41  66  95 127 174 216 268 321 386
#     4  10  19  40  65  99 123 171 218 269 319 383
#     4  11  20  38  70  97 124 165 223 265 321 390
#     4  11  25  45  64  87 131 173 215 265 322 385
#
# _framework density 21.211849999999998
#
# number of rings (size 3 to 8) (size 9 to 14) (size 15 to 20)
#    0.000    1.000    3.750    5.250    1.750    0.500 
#    4.500    0.000    0.000    0.000    0.000    0.000 
#    0.000    0.000    0.000    0.000    0.000    0.000 
#
# Total GULP energy -179032.693303 kJ/mol
# GULP energy per Si atom -5594.771666 kJ/mol
# Density = 2.116357 g / cm^3
# Si number density = 21.211850 Si / 1000 Ang^3
#
#
#
# Elastic Constant Matrix: (Units=GPa)
#
#
# Indices 1 2 3 4 5 6 
#
# 1 114.6154 27.8773 15.9886 0.0000 -7.0806 0.0000
# 2 27.8773 95.1035 18.1075 0.0000 -2.4628 0.0000
# 3 15.9886 18.1075 61.2775 0.0000 -0.8203 0.0000
# 4 0.0000 0.0000 0.0000 1.0258 0.0000 4.1544
# 5 -7.0806 -2.4628 -0.8203 0.0000 24.8278 0.0000
# 6 0.0000 0.0000 0.0000 4.1544 0.0000 30.6497
#
#
#
# Elastic Compliance Matrix: (Units=1/GPa)
#
#
# Indices 1 2 3 4 5 6 
#
# 1 0.009721 -0.002446 -0.001780 0.000000 0.002471 0.000000
# 2 -0.002446 0.011782 -0.002838 0.000000 0.000377 0.000000
# 3 -0.001780 -0.002838 0.017620 0.000000 -0.000207 0.000000
# 4 0.000000 0.000000 0.000000 2.161300 0.000000 -0.292956
# 5 0.002471 0.000377 -0.000207 0.000000 0.041013 0.000000
# 6 0.000000 0.000000 0.000000 -0.292956 0.000000 0.072336
#
#
# Mechanical properties :
#
#
# Convention : Reuss Voigt Hill
#
# Bulk Modulus (GPa) = 40.01198 43.88258 41.94728
# Shear Modulus (GPa) = 2.14020 25.23552 13.68786
#
# Velocity S-wave (km/s) = 1.00556 3.45293 2.54302
# Velocity P-wave (km/s) = 4.50024 6.05224 5.33300
#
# Compressibility (1/GPa) = 0.02499251
#
# Stress axis : x y z
#
# Youngs Moduli (GPa) = 102.87143 84.87413 56.75475
#
# Poissons Ratio (x) = 0.20764 0.10104
# Poissons Ratio (y) = 0.25167 0.16108
# Poissons Ratio (z) = 0.18315 0.24089
#
# Static dielectric constant tensor:
#      x y z
#    x 1.784510 0.000000 0.030540 
#    y 0.000000 1.759860 0.000000 
#    z 0.030540 0.000000 1.784100 
# 
# From -- ./inp_files/198327.got.cif
#   From: 2010.05.17/outbox.cif.g08.bks.cpg/sg15_100_cif.got.tgz:198327.got - 2010.06.03 18:47:42.
