data_PCOD9260056
_publ_section_title
;
Structure prediction by ZEFSAII (Michael W. Deem and Ramdas Pophale) SiO2 
 PCOD9260056
Probable space group: C 2/C
;
_chemical_formula_sum "Si O2"
_cell_formula_units_Z 64
_cell_length_a 8.939928
_cell_length_b 19.918955
_cell_length_c 19.981306
_cell_angle_alpha 90.000000
_cell_angle_beta 57.969901
_cell_angle_gamma 90.000000
_cell_volume 3016.492715
_symmetry_space_group_name_H-M "C 2/C"
_symmetry_group_IT_number 15
_symmetry_cell_setting 'monoclinic'
loop_
_space_group_symop_operation_xyz
x,y,z
-x,y,1/2-z
-x,-y,-z
x,-y,1/2+z
1/2+x,1/2+y,z
1/2-x,1/2+y,1/2-z
1/2-x,1/2-y,-z
1/2+x,1/2-y,1/2+z
loop_
_atom_site_type_symbol
_atom_site_label
_atom_site_fract_x
_atom_site_fract_y
_atom_site_fract_z
Si Si1 0.357436 0.568852 0.193322
Si Si2 0.235887 0.122642 0.082210
Si Si3 0.262958 0.387860 0.569423
Si Si4 0.360724 0.976442 0.451747
Si Si5 0.898807 0.325879 0.674272
Si Si6 0.695773 0.799748 0.211614
Si Si7 0.642051 0.355711 0.460661
Si Si8 0.139736 0.552794 0.776407
O O1 0.555645 0.594688 0.157723
O O2 0.331452 0.575159 0.119928
O O3 0.210468 0.617126 0.260812
O O4 0.309226 0.494285 0.227981
O O5 0.342825 0.164242 0.110304
O O6 0.345354 0.059198 0.027182
O O7 0.187040 0.164479 0.026614
O O8 0.433787 0.352343 0.498916
O O9 0.187836 0.446060 0.539920
O O10 0.105530 0.339272 0.628888
O O11 0.212243 0.932961 0.445802
O O12 0.540008 0.962295 0.369198
O O13 0.827940 0.253548 0.711992
O O14 0.500000 0.769198 0.250000
O O15 0.758208 0.819478 0.122413
O O16 0.679055 0.868897 0.256563
O O17 0.000000 0.534104 0.750000
#
# Coordination Sequence:
#
# PCOD9260056 Si02
#       8
#     8   8   8   8   8   8   8   8
#     4  11  20  38  64  90 113 152 208 255 290 346
#     4   9  22  36  58  89 122 152 197 244 300 352
#     4  11  21  36  62  89 120 152 201 248 296 357
#     4  10  18  36  61  91 114 150 200 246 297 340
#     4  12  24  38  56  90 125 163 191 243 310 359
#     4  11  21  37  62  85 122 157 205 246 294 351
#     4   9  20  36  60  89 112 158 201 247 287 347
#     4  11  17  33  62  91 110 148 206 257 288 337
#
# _framework density 21.216692999999999
#
# number of rings (size 3 to 8) (size 9 to 14) (size 15 to 20)
#    0.750    0.750    5.000    1.875    1.750    1.500 
#    0.000    1.250    0.000    6.000    0.000    0.000 
#    0.000    0.000    0.000    0.000    0.000    0.000 
#
# Total GULP energy -178721.008263 kJ/mol
# GULP energy per Si atom -5585.031508 kJ/mol
# Density = 2.116840 g / cm^3
# Si number density = 21.216693 Si / 1000 Ang^3
#
#
#
# Elastic Constant Matrix: (Units=GPa)
#
#
# Indices 1 2 3 4 5 6 
#
# 1 43.3697 6.9202 13.3069 0.0000 -8.1574 0.0000
# 2 6.9202 45.2161 2.5887 0.0000 -1.3796 0.0000
# 3 13.3069 2.5887 104.9079 0.0000 -16.5277 0.0000
# 4 0.0000 0.0000 0.0000 17.0590 0.0000 -3.3981
# 5 -8.1574 -1.3796 -16.5277 0.0000 29.3726 0.0000
# 6 0.0000 0.0000 0.0000 -3.3981 0.0000 19.9715
#
#
#
# Elastic Compliance Matrix: (Units=1/GPa)
#
#
# Indices 1 2 3 4 5 6 
#
# 1 0.025375 -0.003584 -0.002246 0.000000 0.005615 0.000000
# 2 -0.003584 0.022671 -0.000103 0.000000 0.000012 0.000000
# 3 -0.002246 -0.000103 0.010666 0.000000 0.005373 0.000000
# 4 0.000000 0.000000 0.000000 0.060677 0.000000 0.010324
# 5 0.005615 0.000012 0.005373 0.000000 0.038629 0.000000
# 6 0.000000 0.000000 0.000000 0.010324 0.000000 0.051828
#
#
# Mechanical properties :
#
#
# Convention : Reuss Voigt Hill
#
# Bulk Modulus (GPa) = 21.34611 26.56949 23.95780
# Shear Modulus (GPa) = 21.06818 24.65915 22.86366
#
# Velocity S-wave (km/s) = 3.15461 3.41288 3.28628
# Velocity P-wave (km/s) = 4.83235 5.29910 5.07110
#
# Compressibility (1/GPa) = 0.04684695
#
# Stress axis : x y z
#
# Youngs Moduli (GPa) = 39.40955 44.10975 93.75525
#
# Poissons Ratio (x) = 0.15807 0.21053
# Poissons Ratio (y) = 0.14123 0.00966
# Poissons Ratio (z) = 0.08850 0.00455
#
# Static dielectric constant tensor:
#      x y z
#    x 1.797610 0.000000 0.009930 
#    y 0.000000 1.769400 0.000000 
#    z 0.009930 0.000000 1.769490 
# 
# From -- ./inp_files/266075.got.cif
#   From: 2010.05.17/outbox.cif.g08.bks.cpg/sg15_134_cif.got.tgz:266075.got - 2010.06.03 18:47:42.
