data_PCOD9260997
_publ_section_title
;
Structure prediction by ZEFSAII (Michael W. Deem and Ramdas Pophale) SiO2 
 PCOD9260997
Probable space group: C 2/C
;
_chemical_formula_sum "Si O2"
_cell_formula_units_Z 48
_cell_length_a 9.589744
_cell_length_b 15.534924
_cell_length_c 20.430317
_cell_angle_alpha 90.000000
_cell_angle_beta 49.146193
_cell_angle_gamma 90.000000
_cell_volume 2302.140970
_symmetry_space_group_name_H-M "C 2/C"
_symmetry_group_IT_number 15
_symmetry_cell_setting 'monoclinic'
loop_
_space_group_symop_operation_xyz
x,y,z
-x,y,1/2-z
-x,-y,-z
x,-y,1/2+z
1/2+x,1/2+y,z
1/2-x,1/2+y,1/2-z
1/2-x,1/2-y,-z
1/2+x,1/2-y,1/2+z
loop_
_atom_site_type_symbol
_atom_site_label
_atom_site_fract_x
_atom_site_fract_y
_atom_site_fract_z
Si Si1 0.782063 0.263297 0.809858
Si Si2 0.805321 0.734321 0.058624
Si Si3 0.860567 0.177117 0.007050
Si Si4 0.224250 0.000216 0.034834
Si Si5 0.974949 0.125134 0.188005
Si Si6 0.933845 0.601093 0.579133
O O1 0.709474 0.309404 0.897869
O O2 0.714961 0.328169 0.773338
O O3 0.677556 0.170140 0.843081
O O4 0.000000 0.251013 0.750000
O O5 0.622222 0.702779 0.148394
O O6 0.750000 0.750000 0.000000
O O7 0.919317 0.807872 0.058569
O O8 0.956498 0.658083 0.008713
O O9 0.750000 0.250000 0.000000
O O10 0.828466 0.083322 0.989019
O O11 0.304202 0.963736 0.079386
O O12 0.058727 0.064389 0.105158
O O13 0.392358 0.048707 0.946031
O O14 0.000000 0.079130 0.250000
#
# Coordination Sequence:
#
# PCOD9260997 Si02
#       6
#     8   8   8   8   8   8
#     4  11  24  41  64  93 130 170 216 268 319 387
#     4  10  18  39  66  91 121 165 220 256 308 385
#     4  11  21  40  70  98 122 169 223 262 317 390
#     4  10  21  38  67  97 125 168 214 265 317 389
#     4  11  25  41  62  94 132 172 208 268 329 377
#     4   9  19  38  62  91 123 166 213 249 315 381
#
# _framework density 20.850155999999998
#
# number of rings (size 3 to 8) (size 9 to 14) (size 15 to 20)
#    0.000    1.667    6.667    0.000    2.333    1.333 
#    0.000    0.000    0.000    1.000    0.000    0.000 
#    0.000    0.000    0.000    0.000    0.000    0.000 
#
# Total GULP energy -133760.070319 kJ/mol
# GULP energy per Si atom -5573.336263 kJ/mol
# Density = 2.080270 g / cm^3
# Si number density = 20.850156 Si / 1000 Ang^3
#
#
#
# Elastic Constant Matrix: (Units=GPa)
#
#
# Indices 1 2 3 4 5 6 
#
# 1 92.0918 56.1474 12.3728 0.0001 -14.9984 -0.0001
# 2 56.1474 124.1381 22.0459 0.0001 -16.7208 -0.0001
# 3 12.3728 22.0459 36.9004 0.0002 -11.5746 -0.0001
# 4 0.0001 0.0001 0.0002 17.9800 -0.0001 -4.6093
# 5 -14.9984 -16.7208 -11.5746 -0.0001 37.8127 0.0000
# 6 -0.0001 -0.0001 -0.0001 -4.6093 0.0000 51.9029
#
#
#
# Elastic Compliance Matrix: (Units=1/GPa)
#
#
# Indices 1 2 3 4 5 6 
#
# 1 0.015354 -0.006469 -0.000299 0.000000 0.003138 0.000000
# 2 -0.006469 0.011971 -0.004566 0.000000 0.001330 0.000000
# 3 -0.000299 -0.004566 0.032365 0.000000 0.007769 0.000000
# 4 0.000000 0.000000 0.000000 0.056913 0.000000 0.005054
# 5 0.003138 0.001330 0.007769 0.000000 0.030657 0.000000
# 6 0.000000 0.000000 0.000000 0.005054 0.000000 0.019716
#
#
# Mechanical properties :
#
#
# Convention : Reuss Voigt Hill
#
# Bulk Modulus (GPa) = 27.01043 48.25141 37.63092
# Shear Modulus (GPa) = 24.75429 32.37674 28.56551
#
# Velocity S-wave (km/s) = 3.44938 3.94487 3.70542
# Velocity P-wave (km/s) = 5.37094 6.62884 6.03277
#
# Compressibility (1/GPa) = 0.03702274
#
# Stress axis : x y z
#
# Youngs Moduli (GPa) = 65.12991 83.53239 30.89735
#
# Poissons Ratio (x) = 0.54035 0.00924
# Poissons Ratio (y) = 0.42131 0.14108
# Poissons Ratio (z) = 0.01949 0.38141
#
# Static dielectric constant tensor:
#      x y z
#    x 1.846930 0.000000 0.016300 
#    y 0.000000 1.816350 0.000000 
#    z 0.016300 0.000000 1.804520 
# 
# From -- ./inp_files/232488.got.cif
#   From: 2010.05.17/outbox.cif.g08.bks.cpg/sg15_117_cif.got.tgz:232488.got - 2010.06.03 18:47:42.
