data_PCOD9260296
_publ_section_title
;
Structure prediction by ZEFSAII (Michael W. Deem and Ramdas Pophale) SiO2 
 PCOD9260296
Probable space group: C 2/C
;
_chemical_formula_sum "Si O2"
_cell_formula_units_Z 36
_cell_length_a 10.203423
_cell_length_b 12.769001
_cell_length_c 9.822606
_cell_angle_alpha 90.000000
_cell_angle_beta 72.078848
_cell_angle_gamma 90.000000
_cell_volume 1217.669977
_symmetry_space_group_name_H-M "C 2/C"
_symmetry_group_IT_number 15
_symmetry_cell_setting 'monoclinic'
loop_
_space_group_symop_operation_xyz
x,y,z
-x,y,1/2-z
-x,-y,-z
x,-y,1/2+z
1/2+x,1/2+y,z
1/2-x,1/2+y,1/2-z
1/2-x,1/2-y,-z
1/2+x,1/2-y,1/2+z
loop_
_atom_site_type_symbol
_atom_site_label
_atom_site_fract_x
_atom_site_fract_y
_atom_site_fract_z
Si Si1 0.622926 0.575869 0.104601
Si Si2 0.326992 0.827371 0.875208
Si Si3 0.406246 0.802943 0.569137
Si Si4 0.278906 0.549019 0.704306
Si Si5 0.000000 0.679471 0.750000
O O1 0.500000 0.598423 0.250000
O O2 0.766197 0.640028 0.071845
O O3 0.671281 0.465073 0.157370
O O4 0.606737 0.580017 0.946134
O O5 0.360023 0.755754 0.729844
O O6 0.463605 0.866275 0.911443
O O7 0.254456 0.930007 0.839332
O O8 0.250000 0.750000 0.000000
O O9 0.464308 0.763894 0.405287
O O10 0.135133 0.610185 0.737309
#
# Coordination Sequence:
#
# PCOD9260296 Si02
#       5
#     8   8   8   8   4
#     4  10  19  33  55  87 122 151 193 255 320 356
#     4  10  20  37  59  84 121 163 207 241 294 373
#     4   9  20  37  63  86 116 154 201 257 299 357
#     4  10  19  32  57  90 118 153 194 258 307 359
#     4  10  18  36  68  98 116 142 206 268 322 338
#
# _framework density 29.564661000000001
#
# number of rings (size 3 to 8) (size 9 to 14) (size 15 to 20)
#    0.000    2.222    0.000    4.667    0.000    6.222 
#    4.000    1.111   29.333    0.000    0.000    0.000 
#    0.000    0.000    0.000    0.000    0.000    0.000 
#
# Total GULP energy -100528.505649 kJ/mol
# GULP energy per Si atom -5584.916981 kJ/mol
# Density = 2.949737 g / cm^3
# Si number density = 29.564661 Si / 1000 Ang^3
#
#
#
# Elastic Constant Matrix: (Units=GPa)
#
#
# Indices 1 2 3 4 5 6 
#
# 1 130.2273 7.9062 20.3232 0.0000 -17.6137 0.0000
# 2 7.9062 73.4529 67.9629 0.0000 -21.6770 0.0000
# 3 20.3232 67.9629 319.1894 0.0000 -9.8630 0.0000
# 4 0.0000 0.0000 0.0000 50.0195 0.0000 3.7110
# 5 -17.6137 -21.6770 -9.8630 0.0000 61.4735 0.0000
# 6 0.0000 0.0000 0.0000 3.7110 0.0000 12.2497
#
#
#
# Elastic Compliance Matrix: (Units=1/GPa)
#
#
# Indices 1 2 3 4 5 6 
#
# 1 0.008055 0.000284 -0.000501 0.000000 0.002327 0.000000
# 2 0.000284 0.018979 -0.003869 0.000000 0.006153 0.000000
# 3 -0.000501 -0.003869 0.003962 0.000000 -0.000872 0.000000
# 4 0.000000 0.000000 0.000000 0.020452 0.000000 -0.006196
# 5 0.002327 0.006153 -0.000872 0.000000 0.018964 0.000000
# 6 0.000000 0.000000 0.000000 -0.006196 0.000000 0.083512
#
#
# Mechanical properties :
#
#
# Convention : Reuss Voigt Hill
#
# Bulk Modulus (GPa) = 43.81646 79.47270 61.64458
# Shear Modulus (GPa) = 29.46308 53.19370 41.32839
#
# Velocity S-wave (km/s) = 3.16026 4.24634 3.74290
# Velocity P-wave (km/s) = 5.30746 7.14011 6.29088
#
# Compressibility (1/GPa) = 0.02282247
#
# Stress axis : x y z
#
# Youngs Moduli (GPa) = 124.15118 52.68872 252.41545
#
# Poissons Ratio (x) = -0.01495 0.12655
# Poissons Ratio (y) = -0.03523 0.97662
# Poissons Ratio (z) = 0.06224 0.20386
#
# Static dielectric constant tensor:
#      x y z
#    x 2.291710 0.000000 -0.029010 
#    y 0.000000 2.627080 0.000000 
#    z -0.029010 0.000000 2.320120 
# 
# From -- ./inp_files/30090.got.cif
#   From: 2010.05.17/outbox.cif.g08.bks.cpg/sg15_16_cif.got.tgz:30090.got - 2010.06.03 18:47:42.
