data_PCOD9260966
_publ_section_title
;
Structure prediction by ZEFSAII (Michael W. Deem and Ramdas Pophale) SiO2 
 PCOD9260966
Probable space group: C 2/C
;
_chemical_formula_sum "Si O2"
_cell_formula_units_Z 40
_cell_length_a 21.448709
_cell_length_b 14.164270
_cell_length_c 15.976230
_cell_angle_alpha 90.000000
_cell_angle_beta 157.285131
_cell_angle_gamma 90.000000
_cell_volume 1874.220002
_symmetry_space_group_name_H-M "C 2/C"
_symmetry_group_IT_number 15
_symmetry_cell_setting 'monoclinic'
loop_
_space_group_symop_operation_xyz
x,y,z
-x,y,1/2-z
-x,-y,-z
x,-y,1/2+z
1/2+x,1/2+y,z
1/2-x,1/2+y,1/2-z
1/2-x,1/2-y,-z
1/2+x,1/2-y,1/2+z
loop_
_atom_site_type_symbol
_atom_site_label
_atom_site_fract_x
_atom_site_fract_y
_atom_site_fract_z
Si Si1 0.658337 0.015465 0.359138
Si Si2 0.294569 0.915934 0.406493
Si Si3 0.800509 0.758927 0.328115
Si Si4 0.373089 0.203675 0.716621
Si Si5 0.682674 0.044276 0.212320
O O1 0.747731 0.044727 0.554679
O O2 0.754801 0.036508 0.394020
O O3 0.608628 0.904667 0.292357
O O4 0.490964 0.075664 0.148963
O O5 0.230709 0.815999 0.295752
O O6 0.236548 0.982770 0.259480
O O7 0.676694 0.792070 0.246732
O O8 0.807251 0.649669 0.309667
O O9 0.968147 0.767743 0.585369
O O10 0.250000 0.250000 0.500000
O O11 0.500000 0.000000 0.000000
#
# Coordination Sequence:
#
# PCOD9260966 Si02
#       5
#     8   8   8   8   8
#     4  10  20  41  67  91 137 190 217 271 363 416
#     4  10  20  36  68  98 129 178 235 272 335 424
#     4  12  23  41  69 104 129 179 237 284 343 419
#     4  12  24  40  71 101 130 180 245 287 337 410
#     4  10  18  39  63  90 132 177 215 271 342 410
#
# _framework density 21.342212
#
# number of rings (size 3 to 8) (size 9 to 14) (size 15 to 20)
#    0.000    1.200    6.000    3.000    2.800    0.800 
#    0.000    4.000    0.000    0.000    0.000    0.000 
#    0.000    0.000    0.000    0.000    0.000    0.000 
#
# Total GULP energy -111438.242839 kJ/mol
# GULP energy per Si atom -5571.912142 kJ/mol
# Density = 2.129364 g / cm^3
# Si number density = 21.342212 Si / 1000 Ang^3
#
#
#
# Elastic Constant Matrix: (Units=GPa)
#
#
# Indices 1 2 3 4 5 6 
#
# 1 110.5135 -0.6843 -16.6858 0.0000 -34.2836 0.0001
# 2 -0.6843 103.3339 8.7524 0.0000 -2.0229 0.0000
# 3 -16.6858 8.7524 8.4269 0.0000 2.7289 0.0002
# 4 0.0000 0.0000 0.0000 24.9659 -0.0001 -11.6594
# 5 -34.2836 -2.0229 2.7289 -0.0001 25.1982 0.0000
# 6 0.0001 0.0000 0.0002 -11.6594 0.0000 34.0573
#
#
#
# Elastic Compliance Matrix: (Units=1/GPa)
#
#
# Indices 1 2 3 4 5 6 
#
# 1 0.023865 -0.002783 0.041145 0.000000 0.027790 0.000000
# 2 -0.002783 0.011046 -0.016627 0.000000 -0.001099 0.000000
# 3 0.041145 -0.016627 0.206970 0.000000 0.032231 -0.000001
# 4 0.000000 0.000000 0.000000 0.047677 0.000000 0.016322
# 5 0.027790 -0.001099 0.032231 0.000000 0.073916 0.000000
# 6 0.000000 0.000000 -0.000001 0.016322 0.000000 0.034950
#
#
# Mechanical properties :
#
#
# Convention : Reuss Voigt Hill
#
# Bulk Modulus (GPa) = 3.50446 22.78209 13.14327
# Shear Modulus (GPa) = 11.10937 32.23710 21.67323
#
# Velocity S-wave (km/s) = 2.28400 3.89071 3.19016
# Velocity P-wave (km/s) = 2.93277 5.55710 4.44311
#
# Compressibility (1/GPa) = 0.28535091
#
# Stress axis : x y z
#
# Youngs Moduli (GPa) = 41.90285 90.53276 4.83162
#
# Poissons Ratio (x) = 0.25195 -0.19880
# Poissons Ratio (y) = 0.11661 0.08033
# Poissons Ratio (z) = -1.72410 1.50528
#
# Static dielectric constant tensor:
#      x y z
#    x 1.885220 0.000000 0.027970 
#    y 0.000000 1.785940 0.000000 
#    z 0.027970 0.000000 1.892150 
# 
# From -- ./inp_files/219637.got.cif
#   From: 2010.05.17/outbox.cif.g08.bks.cpg/sg15_110_cif.got.tgz:219637.got - 2010.06.03 18:47:42.
