data_PCOD9260963
_publ_section_title
;
Structure prediction by ZEFSAII (Michael W. Deem and Ramdas Pophale) SiO2 
 PCOD9260963
Probable space group: C 2/C
;
_chemical_formula_sum "Si O2"
_cell_formula_units_Z 56
_cell_length_a 22.575257
_cell_length_b 9.876091
_cell_length_c 14.237273
_cell_angle_alpha 90.000000
_cell_angle_beta 92.438128
_cell_angle_gamma 90.000000
_cell_volume 3171.401829
_symmetry_space_group_name_H-M "C 2/C"
_symmetry_group_IT_number 15
_symmetry_cell_setting 'monoclinic'
loop_
_space_group_symop_operation_xyz
x,y,z
-x,y,1/2-z
-x,-y,-z
x,-y,1/2+z
1/2+x,1/2+y,z
1/2-x,1/2+y,1/2-z
1/2-x,1/2-y,-z
1/2+x,1/2-y,1/2+z
loop_
_atom_site_type_symbol
_atom_site_label
_atom_site_fract_x
_atom_site_fract_y
_atom_site_fract_z
Si Si1 0.669197 0.163379 0.565011
Si Si2 0.564088 0.666023 0.970491
Si Si3 0.828506 0.425355 0.786630
Si Si4 0.928577 0.135478 0.947246
Si Si5 0.695931 0.708237 0.561678
Si Si6 0.251404 0.576254 0.398187
Si Si7 0.431652 0.264378 0.241513
O O1 0.608041 0.228333 0.523229
O O2 0.710439 0.286652 0.603546
O O3 0.705354 0.095313 0.481202
O O4 0.661256 0.053043 0.645634
O O5 0.493548 0.695686 0.974730
O O6 0.578906 0.666479 0.859985
O O7 0.572775 0.516669 0.013921
O O8 0.801654 0.304395 0.847982
O O9 0.784743 0.452723 0.698341
O O10 0.888983 0.363232 0.750141
O O11 0.871591 0.217910 0.981034
O O12 0.922335 0.141772 0.832992
O O13 0.750000 0.750000 0.500000
O O14 0.705886 0.550437 0.582587
O O15 0.500000 0.222309 0.250000
#
# Coordination Sequence:
#
# PCOD9260963 Si02
#       7
#     8   8   8   8   8   8   8
#     4  11  22  37  62  91 118 158 209 249 299 368
#     4  10  18  39  63  87 119 159 205 250 300 356
#     4  11  22  38  60  88 119 162 199 246 307 363
#     4   9  20  36  62  89 117 159 202 246 299 363
#     4  11  21  39  56  86 123 150 199 242 300 364
#     4  11  22  39  57  86 123 161 197 250 309 353
#     4   9  19  37  61  86 117 159 201 244 310 367
#
# _framework density 17.657806999999998
#
# number of rings (size 3 to 8) (size 9 to 14) (size 15 to 20)
#    0.000    1.714    4.286    0.857    0.000    0.000 
#    5.143    7.857    0.000    2.571    0.000    0.000 
#    0.000    0.000    0.000    0.000    0.000    0.000 
#
# Total GULP energy -156115.418743 kJ/mol
# GULP energy per Si atom -5575.550669 kJ/mol
# Density = 1.761762 g / cm^3
# Si number density = 17.657807 Si / 1000 Ang^3
#
#
#
# Elastic Constant Matrix: (Units=GPa)
#
#
# Indices 1 2 3 4 5 6 
#
# 1 122.3639 34.4128 62.7391 0.0000 -1.7010 0.0000
# 2 34.4128 70.2518 38.6168 0.0000 0.8362 0.0000
# 3 62.7391 38.6168 83.2964 0.0000 11.6661 0.0000
# 4 0.0000 0.0000 0.0000 23.4734 0.0000 -2.5640
# 5 -1.7010 0.8362 11.6661 0.0000 29.9324 0.0000
# 6 0.0000 0.0000 0.0000 -2.5640 0.0000 30.4474
#
#
#
# Elastic Compliance Matrix: (Units=1/GPa)
#
#
# Indices 1 2 3 4 5 6 
#
# 1 0.014091 -0.000992 -0.010863 0.000000 0.005062 0.000000
# 2 -0.000992 0.019446 -0.008657 0.000000 0.002774 0.000000
# 3 -0.010863 -0.008657 0.025653 0.000000 -0.010374 0.000000
# 4 0.000000 0.000000 0.000000 0.042997 0.000000 0.003621
# 5 0.005062 0.002774 -0.010374 0.000000 0.037662 0.000000
# 6 0.000000 0.000000 0.000000 0.003621 0.000000 0.033148
#
#
# Mechanical properties :
#
#
# Convention : Reuss Voigt Hill
#
# Bulk Modulus (GPa) = 55.04209 60.82770 57.93490
# Shear Modulus (GPa) = 22.71937 26.11355 24.41646
#
# Velocity S-wave (km/s) = 3.59088 3.84978 3.72258
# Velocity P-wave (km/s) = 6.95929 7.36776 7.16644
#
# Compressibility (1/GPa) = 0.01816791
#
# Stress axis : x y z
#
# Youngs Moduli (GPa) = 70.96609 51.42487 38.98104
#
# Poissons Ratio (x) = 0.05100 0.42344
# Poissons Ratio (y) = 0.07037 0.33745
# Poissons Ratio (z) = 0.77089 0.44518
#
# Static dielectric constant tensor:
#      x y z
#    x 1.631700 0.000000 -0.008010 
#    y 0.000000 1.571960 0.000000 
#    z -0.008010 0.000000 1.600800 
# 
# From -- ./inp_files/166647.got.cif
#   From: 2010.05.17/outbox.cif.g08.bks.cpg/sg15_84_cif.got.tgz:166647.got - 2010.06.03 18:47:42.
