data_PCOD9260328
_publ_section_title
;
Structure prediction by ZEFSAII (Michael W. Deem and Ramdas Pophale) SiO2 
 PCOD9260328
Probable space group: C 2/C
;
_chemical_formula_sum "Si O2"
_cell_formula_units_Z 60
_cell_length_a 17.825546
_cell_length_b 18.102247
_cell_length_c 14.355394
_cell_angle_alpha 90.000000
_cell_angle_beta 32.327478
_cell_angle_gamma 90.000000
_cell_volume 2477.122354
_symmetry_space_group_name_H-M "C 2/C"
_symmetry_group_IT_number 15
_symmetry_cell_setting 'monoclinic'
loop_
_space_group_symop_operation_xyz
x,y,z
-x,y,1/2-z
-x,-y,-z
x,-y,1/2+z
1/2+x,1/2+y,z
1/2-x,1/2+y,1/2-z
1/2-x,1/2-y,-z
1/2+x,1/2-y,1/2+z
loop_
_atom_site_type_symbol
_atom_site_label
_atom_site_fract_x
_atom_site_fract_y
_atom_site_fract_z
Si Si1 0.500000 0.650511 0.750000
Si Si2 0.819252 0.089314 0.287429
Si Si3 0.956693 0.986880 0.400507
Si Si4 0.501735 0.148501 0.352433
Si Si5 0.071018 0.796855 0.495452
Si Si6 0.785876 0.228708 0.845344
Si Si7 0.027366 0.621137 0.522834
Si Si8 0.240546 0.599882 0.586106
O O1 0.553285 0.599123 0.608277
O O2 0.366647 0.690566 0.846265
O O3 0.683152 0.090831 0.367889
O O4 0.761257 0.095445 0.453825
O O5 0.913386 0.015931 0.176430
O O6 0.928098 0.155978 0.153144
O O7 0.817033 0.032535 0.560061
O O8 0.000000 0.013533 0.250000
O O9 0.500000 0.115426 0.250000
O O10 0.378882 0.211181 0.480708
O O11 0.648900 0.189315 0.218933
O O12 0.472379 0.103172 0.476401
O O13 0.153505 0.807656 0.312272
O O14 0.037677 0.709986 0.529880
O O15 0.175980 0.827329 0.464833
O O16 0.918642 0.596362 0.714766
#
# Coordination Sequence:
#
# PCOD9260328 Si02
#       8
#     4   8   8   8   8   8   8   8
#     4  10  20  40  72  90 112 168 222 254 306 366
#     4  10  20  34  60  83 130 165 206 256 306 350
#     4   7  17  37  61  84 115 156 210 263 284 348
#     4  11  24  41  62  93 135 159 193 254 314 382
#     4  10  21  34  52  93 128 159 204 252 296 396
#     4  11  23  39  67  94 124 163 203 248 320 376
#     4  11  22  32  57  91 126 165 204 244 316 378
#     4  10  18  37  56  83 129 164 206 257 306 352
#
# _framework density 24.221653
#
# number of rings (size 3 to 8) (size 9 to 14) (size 15 to 20)
#    0.400    1.600    2.000    2.800    5.600    3.200 
#    0.000    2.667    2.933    0.800    0.000    0.000 
#    0.000    0.000    0.000    0.000    0.000    0.000 
#
# Total GULP energy -167556.468933 kJ/mol
# GULP energy per Si atom -5585.215631 kJ/mol
# Density = 2.416652 g / cm^3
# Si number density = 24.221653 Si / 1000 Ang^3
#
#
#
# Elastic Constant Matrix: (Units=GPa)
#
#
# Indices 1 2 3 4 5 6 
#
# 1 109.9886 3.7860 35.1456 -0.0004 7.6683 0.0000
# 2 3.7860 17.5448 3.2264 -0.0002 3.9053 0.0001
# 3 35.1456 3.2264 135.1499 -0.0003 -3.2734 0.0000
# 4 -0.0004 -0.0002 -0.0003 -2.6554 0.0004 -6.3630
# 5 7.6683 3.9053 -3.2734 0.0004 48.9683 0.0001
# 6 0.0000 0.0001 0.0000 -6.3630 0.0001 -15.3094
#
#
#
# Elastic Compliance Matrix: (Units=1/GPa)
#
#
# Indices 1 2 3 4 5 6 
#
# 1 0.010094 -0.001326 -0.002633 -0.000378 -0.001651 0.000157
# 2 -0.001326 0.058506 -0.001162 -0.001440 -0.004536 0.000599
# 3 -0.002633 -0.001162 0.008137 -0.000064 0.001049 0.000027
# 4 -0.000378 -0.001440 -0.000064-92.424060 0.000861 38.413655
# 5 -0.001651 -0.004536 0.001049 0.000861 0.021112 -0.000358
# 6 0.000157 0.000599 0.000027 38.413655 -0.000358-16.030955
#
#
# Mechanical properties :
#
#
# Convention : Reuss Voigt Hill
#
# Bulk Modulus (GPa) = 15.03879 38.55552 26.79715
# Shear Modulus (GPa) = -0.04616 20.90237 10.42811
#
# Velocity S-wave (km/s) = -0.13819 2.94081 2.07717
# Velocity P-wave (km/s) = 2.48934 5.24247 4.10368
#
# Compressibility (1/GPa) = 0.06649473
#
# Stress axis : x y z
#
# Youngs Moduli (GPa) = 99.06837 17.09215 122.89378
#
# Poissons Ratio (x) = 0.02267 0.32361
# Poissons Ratio (y) = 0.13141 0.14276
# Poissons Ratio (z) = 0.26087 0.01985
#
# Static dielectric constant tensor:
#      x y z
#    x 1.953460 0.000000 0.051190 
#    y 0.000000 1.988770 0.000000 
#    z 0.051190 0.000000 1.921710 
# 
# From -- ./inp_files/164091.got.cif
#   From: 2010.05.17/outbox.cif.g08.bks.cpg/sg15_83_cif.got.tgz:164091.got - 2010.06.03 18:47:42.
