data_PCOD9260168
_publ_section_title
;
Structure prediction by ZEFSAII (Michael W. Deem and Ramdas Pophale) SiO2 
 PCOD9260168
Probable space group: C 2/C
;
_chemical_formula_sum "Si O2"
_cell_formula_units_Z 48
_cell_length_a 14.450878
_cell_length_b 12.779254
_cell_length_c 12.350510
_cell_angle_alpha 90.000000
_cell_angle_beta 61.802922
_cell_angle_gamma 90.000000
_cell_volume 2010.119955
_symmetry_space_group_name_H-M "C 2/C"
_symmetry_group_IT_number 15
_symmetry_cell_setting 'monoclinic'
loop_
_space_group_symop_operation_xyz
x,y,z
-x,y,1/2-z
-x,-y,-z
x,-y,1/2+z
1/2+x,1/2+y,z
1/2-x,1/2+y,1/2-z
1/2-x,1/2-y,-z
1/2+x,1/2-y,1/2+z
loop_
_atom_site_type_symbol
_atom_site_label
_atom_site_fract_x
_atom_site_fract_y
_atom_site_fract_z
Si Si1 0.307534 0.026156 0.917161
Si Si2 0.605998 0.395905 0.402319
Si Si3 0.361826 0.202126 0.454016
Si Si4 0.070643 0.796463 0.872544
Si Si5 0.000000 0.348886 0.250000
Si Si6 0.768717 0.306924 0.605776
Si Si7 0.500000 0.366659 0.250000
O O1 0.195325 0.037169 0.917086
O O2 0.394688 0.085815 0.797879
O O3 0.354262 0.911567 0.907699
O O4 0.303245 0.080472 0.038887
O O5 0.497298 0.386111 0.531093
O O6 0.655651 0.276173 0.373750
O O7 0.574875 0.425097 0.295564
O O8 0.250000 0.250000 0.500000
O O9 0.387067 0.212027 0.565553
O O10 0.435777 0.286334 0.358014
O O11 0.984729 0.730218 0.855981
O O12 0.166062 0.823168 0.738577
O O13 0.750000 0.250000 0.500000
#
# Coordination Sequence:
#
# PCOD9260168 Si02
#       7
#     8   8   8   8   4   8   4
#     4  11  23  40  70 104 134 177 237 280 338 415
#     4  10  20  40  69 101 138 181 223 282 349 412
#     4  11  26  47  64  96 142 187 226 285 349 403
#     4  11  21  39  67 100 142 176 218 287 348 400
#     4  12  19  38  70 107 130 164 229 290 340 399
#     4  10  18  36  63  99 133 170 217 279 339 397
#     4  10  23  46  70  97 144 184 227 284 358 403
#
# _framework density 23.879172000000001
#
# number of rings (size 3 to 8) (size 9 to 14) (size 15 to 20)
#    0.000    1.333    5.000    2.500    0.000    0.667 
#    6.000    5.000    0.000    1.000    0.000    1.167 
#    0.000    0.000    0.000    0.000    0.000    0.000 
#
# Total GULP energy -133950.190255 kJ/mol
# GULP energy per Si atom -5581.257927 kJ/mol
# Density = 2.382482 g / cm^3
# Si number density = 23.879172 Si / 1000 Ang^3
#
#
#
# Elastic Constant Matrix: (Units=GPa)
#
#
# Indices 1 2 3 4 5 6 
#
# 1 122.4351 7.7768 38.5200 0.0000 16.3505 0.0000
# 2 7.7768 63.1798 12.1787 0.0000 9.6898 0.0000
# 3 38.5200 12.1787 111.5670 0.0000 -8.1331 0.0000
# 4 0.0000 0.0000 0.0000 25.3237 0.0000 -1.2220
# 5 16.3505 9.6898 -8.1331 0.0000 56.1131 0.0000
# 6 0.0000 0.0000 0.0000 -1.2220 0.0000 21.7769
#
#
#
# Elastic Compliance Matrix: (Units=1/GPa)
#
#
# Indices 1 2 3 4 5 6 
#
# 1 0.009754 0.000013 -0.003615 0.000000 -0.003368 0.000000
# 2 0.000013 0.016713 -0.002061 0.000000 -0.003188 0.000000
# 3 -0.003615 -0.002061 0.010651 0.000000 0.002953 0.000000
# 4 0.000000 0.000000 0.000000 0.039596 0.000000 0.002222
# 5 -0.003368 -0.003188 0.002953 0.000000 0.019781 0.000000
# 6 0.000000 0.000000 0.000000 0.002222 0.000000 0.046045
#
#
# Mechanical properties :
#
#
# Convention : Reuss Voigt Hill
#
# Bulk Modulus (GPa) = 38.77193 46.01475 42.39334
# Shear Modulus (GPa) = 30.77620 36.55650 33.66635
#
# Velocity S-wave (km/s) = 3.59392 3.91691 3.75889
# Velocity P-wave (km/s) = 5.78737 6.30618 6.05234
#
# Compressibility (1/GPa) = 0.02579186
#
# Stress axis : x y z
#
# Youngs Moduli (GPa) = 102.52435 59.83507 93.88374
#
# Poissons Ratio (x) = -0.00076 0.33935
# Poissons Ratio (y) = -0.00131 0.19351
# Poissons Ratio (z) = 0.37058 0.12333
#
# Static dielectric constant tensor:
#      x y z
#    x 1.905550 0.000000 0.022460 
#    y 0.000000 1.800660 0.000000 
#    z 0.022460 0.000000 1.961990 
# 
# From -- ./inp_files/96903.got.cif
#   From: 2010.05.17/outbox.cif.g08.bks.cpg/sg15_49_cif.got.tgz:96903.got - 2010.06.03 18:47:42.
