data_PCOD9260403
_publ_section_title
;
Structure prediction by ZEFSAII (Michael W. Deem and Ramdas Pophale) SiO2 
 PCOD9260403
Probable space group: C 2/C
;
_chemical_formula_sum "Si O2"
_cell_formula_units_Z 48
_cell_length_a 16.633848
_cell_length_b 14.136669
_cell_length_c 8.705953
_cell_angle_alpha 90.000000
_cell_angle_beta 103.860473
_cell_angle_gamma 90.000000
_cell_volume 1987.570654
_symmetry_space_group_name_H-M "C 2/C"
_symmetry_group_IT_number 15
_symmetry_cell_setting 'monoclinic'
loop_
_space_group_symop_operation_xyz
x,y,z
-x,y,1/2-z
-x,-y,-z
x,-y,1/2+z
1/2+x,1/2+y,z
1/2-x,1/2+y,1/2-z
1/2-x,1/2-y,-z
1/2+x,1/2-y,1/2+z
loop_
_atom_site_type_symbol
_atom_site_label
_atom_site_fract_x
_atom_site_fract_y
_atom_site_fract_z
Si Si1 0.195796 0.228458 0.278677
Si Si2 0.764318 0.039874 0.329438
Si Si3 0.176492 0.872568 0.318863
Si Si4 0.431017 0.173988 0.578645
Si Si5 0.570023 0.241734 0.454880
Si Si6 0.410077 0.029643 0.133019
O O1 0.230639 0.122916 0.294806
O O2 0.261722 0.295665 0.226020
O O3 0.153054 0.274416 0.407635
O O4 0.118776 0.222116 0.126001
O O5 0.786391 0.081384 0.507391
O O6 0.669567 0.005561 0.298875
O O7 0.825568 0.956942 0.304722
O O8 0.096104 0.815859 0.337729
O O9 0.500000 0.172362 0.750000
O O10 0.475695 0.226886 0.460650
O O11 0.416740 0.064325 0.532367
O O12 0.602857 0.134987 0.438081
O O13 0.500000 0.035855 0.250000
#
# Coordination Sequence:
#
# PCOD9260403 Si02
#       6
#     8   8   8   8   8   8
#     4  10  18  37  61  84 115 161 202 246 291 369
#     4  11  22  38  62  91 118 161 205 241 301 361
#     4  11  21  39  63  86 124 159 203 250 295 361
#     4   9  19  31  55  88 116 148 197 240 300 353
#     4  10  19  36  57  83 119 161 198 242 305 361
#     4  11  20  32  55  91 126 148 191 251 309 354
#
# _framework density 24.150082999999999
#
# number of rings (size 3 to 8) (size 9 to 14) (size 15 to 20)
#    0.000    1.667    5.000    1.500    0.000    1.333 
#    0.000    3.333    0.000    3.000    0.000    0.000 
#    0.000    0.000    0.000    0.000    0.000    0.000 
#
# Total GULP energy -134194.811762 kJ/mol
# GULP energy per Si atom -5591.450490 kJ/mol
# Density = 2.409512 g / cm^3
# Si number density = 24.150083 Si / 1000 Ang^3
#
#
#
# Elastic Constant Matrix: (Units=GPa)
#
#
# Indices 1 2 3 4 5 6 
#
# 1 108.9330 57.4749 55.5663 0.0000 -42.4370 0.0000
# 2 57.4749 125.7397 42.3872 0.0000 -39.5754 0.0000
# 3 55.5663 42.3872 77.9168 0.0000 -21.9145 0.0000
# 4 0.0000 0.0000 0.0000 39.7972 0.0000 -23.3950
# 5 -42.4370 -39.5754 -21.9145 0.0000 56.1306 0.0000
# 6 0.0000 0.0000 0.0000 -23.3950 0.0000 43.0457
#
#
#
# Elastic Compliance Matrix: (Units=1/GPa)
#
#
# Indices 1 2 3 4 5 6 
#
# 1 0.018811 -0.002672 -0.009539 0.000000 0.008614 0.000000
# 2 -0.002672 0.011824 -0.003090 0.000000 0.005111 0.000000
# 3 -0.009539 -0.003090 0.020981 0.000000 -0.001199 0.000000
# 4 0.000000 0.000000 0.000000 0.036925 0.000000 0.020068
# 5 0.008614 0.005111 -0.001199 0.000000 0.027463 0.000000
# 6 0.000000 0.000000 0.000000 0.020068 0.000000 0.034138
#
#
# Mechanical properties :
#
#
# Convention : Reuss Voigt Hill
#
# Bulk Modulus (GPa) = 47.58496 69.27182 58.42839
# Shear Modulus (GPa) = 26.63146 38.27210 32.45178
#
# Velocity S-wave (km/s) = 3.32437 3.98522 3.66970
# Velocity P-wave (km/s) = 5.87213 7.06556 6.49631
#
# Compressibility (1/GPa) = 0.02101504
#
# Stress axis : x y z
#
# Youngs Moduli (GPa) = 53.15986 84.57210 47.66323
#
# Poissons Ratio (x) = 0.22595 0.45466
# Poissons Ratio (y) = 0.14202 0.14727
# Poissons Ratio (z) = 0.50709 0.26131
#
# Static dielectric constant tensor:
#      x y z
#    x 1.901250 0.000000 0.013630 
#    y 0.000000 1.913380 0.000000 
#    z 0.013630 0.000000 2.007440 
# 
# From -- ./inp_files/103655.got.cif
#   From: 2010.05.17/outbox.cif.g08.bks.cpg/sg15_52_cif.got.tgz:103655.got - 2010.06.03 18:47:42.
