data_PCOD9260921
_publ_section_title
;
Structure prediction by ZEFSAII (Michael W. Deem and Ramdas Pophale) SiO2 
 PCOD9260921
Probable space group: C 2/C
;
_chemical_formula_sum "Si O2"
_cell_formula_units_Z 36
_cell_length_a 14.630881
_cell_length_b 11.870670
_cell_length_c 20.778576
_cell_angle_alpha 90.000000
_cell_angle_beta 26.135764
_cell_angle_gamma 90.000000
_cell_volume 1589.670231
_symmetry_space_group_name_H-M "C 2/C"
_symmetry_group_IT_number 15
_symmetry_cell_setting 'monoclinic'
loop_
_space_group_symop_operation_xyz
x,y,z
-x,y,1/2-z
-x,-y,-z
x,-y,1/2+z
1/2+x,1/2+y,z
1/2-x,1/2+y,1/2-z
1/2-x,1/2-y,-z
1/2+x,1/2-y,1/2+z
loop_
_atom_site_type_symbol
_atom_site_label
_atom_site_fract_x
_atom_site_fract_y
_atom_site_fract_z
Si Si1 0.867730 0.976020 0.436665
Si Si2 0.000000 0.587773 0.250000
Si Si3 0.810489 0.180138 0.723662
Si Si4 0.794098 0.301674 0.067500
Si Si5 0.519941 0.723378 0.164737
O O1 0.637560 0.987407 0.613893
O O2 0.828646 0.882955 0.404607
O O3 0.038895 0.927194 0.378309
O O4 0.977993 0.087806 0.341901
O O5 0.178175 0.681861 0.151471
O O6 0.699084 0.158920 0.862957
O O7 0.642426 0.212749 0.777524
O O8 0.984794 0.279179 0.606127
O O9 0.500000 0.758108 0.250000
O O10 0.750000 0.750000 0.000000
#
# Coordination Sequence:
#
# PCOD9260921 Si02
#       5
#     8   4   8   8   8
#     4  11  23  43  79 102 144 180 238 289 363 412
#     4  10  18  38  72 112 136 174 228 298 346 404
#     4  11  22  41  70 103 136 184 234 286 342 422
#     4  11  18  40  73 107 135 168 241 294 337 412
#     4  12  29  50  67 102 149 190 234 292 355 420
#
# _framework density 22.646205999999999
#
# number of rings (size 3 to 8) (size 9 to 14) (size 15 to 20)
#    0.000    0.889    4.444    4.000    1.556    1.778 
#    0.000    7.778    0.000    0.000    0.000    0.000 
#    0.000    0.000    0.000    0.000    0.000    0.000 
#
# Total GULP energy -100229.977068 kJ/mol
# GULP energy per Si atom -5568.332059 kJ/mol
# Density = 2.259466 g / cm^3
# Si number density = 22.646206 Si / 1000 Ang^3
#
#
#
# Elastic Constant Matrix: (Units=GPa)
#
#
# Indices 1 2 3 4 5 6 
#
# 1 159.9885 53.9957 74.6193 -0.0079 -10.5479 0.0110
# 2 53.9957 57.5106 16.9087 -0.0049 -5.2599 0.0019
# 3 74.6193 16.9087 148.3752 -0.0054 18.5863 0.0116
# 4 -0.0079 -0.0049 -0.0054 24.3673 0.0025 -3.6920
# 5 -10.5479 -5.2599 18.5863 0.0025 43.3567 -0.0065
# 6 0.0110 0.0019 0.0116 -3.6920 -0.0065 15.7706
#
#
#
# Elastic Compliance Matrix: (Units=1/GPa)
#
#
# Indices 1 2 3 4 5 6 
#
# 1 0.012432 -0.009604 -0.005697 0.000000 0.004301 -0.000002
# 2 -0.009604 0.025850 0.001885 0.000003 -0.000009 0.000003
# 3 -0.005697 0.001885 0.010076 0.000000 -0.005476 -0.000006
# 4 0.000000 0.000003 0.000000 0.042548 -0.000001 0.009961
# 5 0.004301 -0.000009 -0.005476 -0.000001 0.026458 0.000012
# 6 -0.000002 0.000003 -0.000006 0.009961 0.000012 0.065741
#
#
# Mechanical properties :
#
#
# Convention : Reuss Voigt Hill
#
# Bulk Modulus (GPa) = 46.45306 72.99128 59.72217
# Shear Modulus (GPa) = 23.02957 31.38896 27.20926
#
# Velocity S-wave (km/s) = 3.19239 3.72702 3.47002
# Velocity P-wave (km/s) = 5.84342 7.12895 6.51796
#
# Compressibility (1/GPa) = 0.02152711
#
# Stress axis : x y z
#
# Youngs Moduli (GPa) = 80.43476 38.68421 99.24798
#
# Poissons Ratio (x) = 0.37153 0.56539
# Poissons Ratio (y) = 0.77252 -0.18711
# Poissons Ratio (z) = 0.45821 -0.07293
#
# Static dielectric constant tensor:
#      x y z
#    x 1.840580 0.000000 0.040130 
#    y 0.000000 2.082130 0.000010 
#    z 0.040130 0.000010 1.891900 
# 
# From -- ./inp_files/152394.got.cif
#   From: 2010.05.17/outbox.cif.g08.bks.cpg/sg15_77_cif.got.tgz:152394.got - 2010.06.03 18:47:42.
