data_PCOD9260474
_publ_section_title
;
Structure prediction by ZEFSAII (Michael W. Deem and Ramdas Pophale) SiO2 
 PCOD9260474
Probable space group: C 2/C
;
_chemical_formula_sum "Si O2"
_cell_formula_units_Z 52
_cell_length_a 14.092627
_cell_length_b 7.340020
_cell_length_c 25.302378
_cell_angle_alpha 90.000000
_cell_angle_beta 51.347695
_cell_angle_gamma 90.000000
_cell_volume 2043.968078
_symmetry_space_group_name_H-M "C 2/C"
_symmetry_group_IT_number 15
_symmetry_cell_setting 'monoclinic'
loop_
_space_group_symop_operation_xyz
x,y,z
-x,y,1/2-z
-x,-y,-z
x,-y,1/2+z
1/2+x,1/2+y,z
1/2-x,1/2+y,1/2-z
1/2-x,1/2-y,-z
1/2+x,1/2-y,1/2+z
loop_
_atom_site_type_symbol
_atom_site_label
_atom_site_fract_x
_atom_site_fract_y
_atom_site_fract_z
Si Si1 0.000000 0.046764 0.750000
Si Si2 0.805044 0.216619 0.259269
Si Si3 0.590593 0.985018 0.016288
Si Si4 0.440072 0.016056 0.169804
Si Si5 0.103882 0.946589 0.504987
Si Si6 0.668151 0.881452 0.140430
Si Si7 0.645653 0.464324 0.104288
O O1 0.898287 0.932000 0.751634
O O2 0.922376 0.137050 0.824304
O O3 0.871367 0.320690 0.188858
O O4 0.788609 0.355537 0.314517
O O5 0.673322 0.150191 0.287356
O O6 0.522275 0.057338 0.090998
O O7 0.610690 0.768852 0.016019
O O8 0.714936 0.081906 0.956689
O O9 0.500000 0.000000 0.000000
O O10 0.537721 0.974317 0.180989
O O11 0.232521 0.978873 0.430888
O O12 0.084739 0.039921 0.568178
O O13 0.000000 0.000000 0.500000
O O14 0.651471 0.674945 0.123339
#
# Coordination Sequence:
#
# PCOD9260474 Si02
#       7
#     4   8   8   8   8   8   8
#     4  10  18  38  60  92 126 164 216 276 334 396
#     4  11  23  37  69  96 127 180 225 278 345 408
#     4  11  21  39  66  94 122 170 223 269 331 413
#     4  12  21  41  69  95 134 177 229 281 341 405
#     4  11  21  36  63  96 127 172 223 273 336 401
#     4  10  19  41  65  90 130 175 222 274 333 410
#     4  10  18  37  63  88 120 169 214 261 332 400
#
# _framework density 25.440708999999998
#
# number of rings (size 3 to 8) (size 9 to 14) (size 15 to 20)
#    0.000    1.231    6.154    3.692    0.000    2.462 
#    0.000    0.769   10.154    0.000    0.000    0.000 
#    0.000    0.000    0.000    0.000    0.000    0.000 
#
# Total GULP energy -145462.019316 kJ/mol
# GULP energy per Si atom -5594.693051 kJ/mol
# Density = 2.538280 g / cm^3
# Si number density = 25.440709 Si / 1000 Ang^3
#
#
#
# Elastic Constant Matrix: (Units=GPa)
#
#
# Indices 1 2 3 4 5 6 
#
# 1 105.5638 11.5596 33.0116 0.0000 -22.0054 0.0000
# 2 11.5596 81.6218 16.5730 0.0002 -20.3623 0.0004
# 3 33.0116 16.5730 166.3074 0.0000 -24.2573 -0.0002
# 4 0.0000 0.0002 0.0000 15.7070 0.0000 -4.5108
# 5 -22.0054 -20.3623 -24.2573 0.0000 49.9344 0.0000
# 6 0.0000 0.0004 -0.0002 -4.5108 0.0000 25.6801
#
#
#
# Elastic Compliance Matrix: (Units=1/GPa)
#
#
# Indices 1 2 3 4 5 6 
#
# 1 0.010798 -0.000240 -0.001550 0.000000 0.003908 0.000000
# 2 -0.000240 0.013698 -0.000558 0.000000 0.005209 0.000000
# 3 -0.001550 -0.000558 0.006719 0.000000 0.002354 0.000000
# 4 0.000000 0.000000 0.000000 0.067048 0.000000 0.011777
# 5 0.003908 0.005209 0.002354 0.000000 0.025016 0.000000
# 6 0.000000 0.000000 0.000000 0.011777 0.000000 0.041009
#
#
# Mechanical properties :
#
#
# Convention : Reuss Voigt Hill
#
# Bulk Modulus (GPa) = 37.70379 52.86458 45.28418
# Shear Modulus (GPa) = 28.11755 37.75422 32.93589
#
# Velocity S-wave (km/s) = 3.32809 3.85646 3.60198
# Velocity P-wave (km/s) = 5.44249 6.37608 5.92769
#
# Compressibility (1/GPa) = 0.02652254
#
# Stress axis : x y z
#
# Youngs Moduli (GPa) = 92.60585 73.00116 148.82166
#
# Poissons Ratio (x) = 0.01750 0.23060
# Poissons Ratio (y) = 0.02220 0.08299
# Poissons Ratio (z) = 0.14350 0.04071
#
# Static dielectric constant tensor:
#      x y z
#    x 1.952920 0.000000 -0.001610 
#    y 0.000000 2.076950 0.000000 
#    z -0.001610 0.000000 2.030380 
# 
# From -- ./inp_files/295035.got.cif
#   From: 2010.05.17/outbox.cif.g08.bks.cpg/sg15_148_cif.got.tgz:295035.got - 2010.06.03 18:47:42.
