data_PCOD9260973
_publ_section_title
;
Structure prediction by ZEFSAII (Michael W. Deem and Ramdas Pophale) SiO2 
 PCOD9260973
Probable space group: C 2/C
;
_chemical_formula_sum "Si O2"
_cell_formula_units_Z 36
_cell_length_a 14.502910
_cell_length_b 4.802699
_cell_length_c 19.514690
_cell_angle_alpha 90.000000
_cell_angle_beta 77.630234
_cell_angle_gamma 90.000000
_cell_volume 1327.704299
_symmetry_space_group_name_H-M "C 2/C"
_symmetry_group_IT_number 15
_symmetry_cell_setting 'monoclinic'
loop_
_space_group_symop_operation_xyz
x,y,z
-x,y,1/2-z
-x,-y,-z
x,-y,1/2+z
1/2+x,1/2+y,z
1/2-x,1/2+y,1/2-z
1/2-x,1/2-y,-z
1/2+x,1/2-y,1/2+z
loop_
_atom_site_type_symbol
_atom_site_label
_atom_site_fract_x
_atom_site_fract_y
_atom_site_fract_z
Si Si1 0.309894 0.790826 0.585947
Si Si2 0.374982 0.286471 0.506834
Si Si3 0.208642 0.461349 0.718184
Si Si4 0.500000 0.038482 0.750000
Si Si5 0.005883 0.455634 0.396479
O O1 0.340565 0.597662 0.517675
O O2 0.237753 0.630316 0.645429
O O3 0.404432 0.835003 0.616597
O O4 0.294773 0.094478 0.556181
O O5 0.416098 0.138016 0.433585
O O6 0.461971 0.249670 0.547841
O O7 0.229274 0.690868 0.774575
O O8 0.099272 0.378318 0.732821
O O9 0.501547 0.187908 0.675979
#
# Coordination Sequence:
#
# PCOD9260973 Si02
#       5
#     8   8   8   4   8
#     4  10  18  39  64  87 127 178 215 269 334 391
#     4   9  19  37  68  89 129 181 213 273 344 388
#     4  12  25  46  66  99 146 178 223 284 345 407
#     4  12  24  46  68 110 130 188 226 284 342 408
#     4   9  20  37  64  96 133 169 227 270 337 401
#
# _framework density 27.114469
#
# number of rings (size 3 to 8) (size 9 to 14) (size 15 to 20)
#    1.333    0.444    2.222    3.333    0.000    0.889 
#    4.000    2.222    0.000    0.000    0.000    0.000 
#    0.000    0.000    0.000    0.000    0.000    0.000 
#
# Total GULP energy -100548.491675 kJ/mol
# GULP energy per Si atom -5586.027315 kJ/mol
# Density = 2.705276 g / cm^3
# Si number density = 27.114469 Si / 1000 Ang^3
#
#
#
# Elastic Constant Matrix: (Units=GPa)
#
#
# Indices 1 2 3 4 5 6 
#
# 1 142.9620 19.5019 26.6377 0.0000 -15.4197 0.0000
# 2 19.5019 115.7267 7.2172 0.0000 -10.6109 0.0000
# 3 26.6377 7.2172 130.7914 0.0000 -2.9612 0.0000
# 4 0.0000 0.0000 0.0000 28.0204 0.0000 -13.0918
# 5 -15.4197 -10.6109 -2.9612 0.0000 42.9379 0.0000
# 6 0.0000 0.0000 0.0000 -13.0918 0.0000 10.3527
#
#
#
# Elastic Compliance Matrix: (Units=1/GPa)
#
#
# Indices 1 2 3 4 5 6 
#
# 1 0.007659 -0.000979 -0.001451 0.000000 0.002408 0.000000
# 2 -0.000979 0.008992 -0.000255 0.000000 0.001853 0.000000
# 3 -0.001451 -0.000255 0.007955 0.000000 -0.000036 0.000000
# 4 0.000000 0.000000 0.000000 0.087223 0.000000 0.110300
# 5 0.002408 0.001853 -0.000036 0.000000 0.024610 0.000000
# 6 0.000000 0.000000 0.000000 0.110300 0.000000 0.236075
#
#
# Mechanical properties :
#
#
# Convention : Reuss Voigt Hill
#
# Bulk Modulus (GPa) = 51.99010 55.13264 53.56137
# Shear Modulus (GPa) = 13.01082 38.67043 25.84062
#
# Velocity S-wave (km/s) = 2.19292 3.78059 3.09045
# Velocity P-wave (km/s) = 5.06239 6.27970 5.70361
#
# Compressibility (1/GPa) = 0.01923443
#
# Stress axis : x y z
#
# Youngs Moduli (GPa) = 130.57200 111.21181 125.71368
#
# Poissons Ratio (x) = 0.10891 0.18244
# Poissons Ratio (y) = 0.12787 0.03203
# Poissons Ratio (z) = 0.18949 0.02833
#
# Static dielectric constant tensor:
#      x y z
#    x 2.209920 0.000000 0.049970 
#    y 0.000000 2.020230 0.000000 
#    z 0.049970 0.000000 2.172600 
# 
# From -- ./inp_files/241464.got.cif
#   From: 2010.05.17/outbox.cif.g08.bks.cpg/sg15_121_cif.got.tgz:241464.got - 2010.06.03 18:47:42.
