data_PCOD9260331
_publ_section_title
;
Structure prediction by ZEFSAII (Michael W. Deem and Ramdas Pophale) SiO2 
 PCOD9260331
Probable space group: C 2/C
;
_chemical_formula_sum "Si O2"
_cell_formula_units_Z 60
_cell_length_a 20.567433
_cell_length_b 13.578765
_cell_length_c 11.608456
_cell_angle_alpha 90.000000
_cell_angle_beta 89.255342
_cell_angle_gamma 90.000000
_cell_volume 3241.739722
_symmetry_space_group_name_H-M "C 2/C"
_symmetry_group_IT_number 15
_symmetry_cell_setting 'monoclinic'
loop_
_space_group_symop_operation_xyz
x,y,z
-x,y,1/2-z
-x,-y,-z
x,-y,1/2+z
1/2+x,1/2+y,z
1/2-x,1/2+y,1/2-z
1/2-x,1/2-y,-z
1/2+x,1/2-y,1/2+z
loop_
_atom_site_type_symbol
_atom_site_label
_atom_site_fract_x
_atom_site_fract_y
_atom_site_fract_z
Si Si1 0.747484 0.634851 0.027149
Si Si2 0.153584 0.386725 0.404590
Si Si3 0.000000 0.300231 0.750000
Si Si4 0.709789 0.117735 0.211328
Si Si5 0.441756 0.933932 0.546079
Si Si6 0.379067 0.267348 0.399854
Si Si7 0.296210 0.435884 0.501365
Si Si8 0.143685 0.418594 0.153060
O O1 0.772477 0.620215 0.156133
O O2 0.690967 0.552670 0.014168
O O3 0.750000 0.750000 0.000000
O O4 0.794559 0.597701 0.926553
O O5 0.114001 0.488062 0.419685
O O6 0.122062 0.307424 0.490926
O O7 0.229088 0.405970 0.434524
O O8 0.146769 0.360027 0.271415
O O9 0.036334 0.366906 0.847213
O O10 0.055007 0.240728 0.676433
O O11 0.678662 0.221355 0.176697
O O12 0.654128 0.034983 0.183847
O O13 0.772980 0.093865 0.131195
O O14 0.414821 0.886139 0.428600
O O15 0.500000 0.000000 0.500000
O O16 0.354501 0.371086 0.449537
#
# Coordination Sequence:
#
# PCOD9260331 Si02
#       8
#     8   8   4   8   8   8   8   8
#     4  11  23  34  56  90 122 154 194 258 327 370
#     4  11  19  35  54  86 120 160 200 255 315 374
#     4  12  24  38  56  92 130 174 228 256 310 388
#     4  10  18  37  56  85 123 153 203 254 308 382
#     4  12  20  36  56  87 127 167 202 260 319 377
#     4  11  22  36  59  83 121 170 213 249 310 381
#     4  10  22  37  59  85 121 166 204 255 318 380
#     4  11  20  34  55  83 127 158 197 252 315 375
#
# _framework density 18.508579999999998
#
# number of rings (size 3 to 8) (size 9 to 14) (size 15 to 20)
#    0.000    1.067    6.667    4.000    3.733    0.000 
#    0.000    0.000    0.000    0.000    0.000   10.267 
#    0.000    0.000    0.267    0.000    0.000    0.533 
#
# Total GULP energy -167043.133620 kJ/mol
# GULP energy per Si atom -5568.104454 kJ/mol
# Density = 1.846645 g / cm^3
# Si number density = 18.508580 Si / 1000 Ang^3
#
#
#
# Elastic Constant Matrix: (Units=GPa)
#
#
# Indices 1 2 3 4 5 6 
#
# 1 59.9784 34.6670 37.0817 0.0000 -17.1588 0.0000
# 2 34.6670 112.2554 38.0580 0.0000 -15.3879 0.0000
# 3 37.0817 38.0580 163.6790 0.0000 -6.9162 0.0000
# 4 0.0000 0.0000 0.0000 13.1683 0.0000 -5.0130
# 5 -17.1588 -15.3879 -6.9162 0.0000 25.4852 0.0000
# 6 0.0000 0.0000 0.0000 -5.0130 0.0000 19.6182
#
#
#
# Elastic Compliance Matrix: (Units=1/GPa)
#
#
# Indices 1 2 3 4 5 6 
#
# 1 0.025822 -0.004718 -0.004187 0.000000 0.013400 0.000000
# 2 -0.004718 0.011293 -0.001419 0.000000 0.003257 0.000000
# 3 -0.004187 -0.001419 0.007317 0.000000 -0.001690 0.000000
# 4 0.000000 0.000000 0.000000 0.084123 0.000000 0.021496
# 5 0.013400 0.003257 -0.001690 0.000000 0.049769 0.000000
# 6 0.000000 0.000000 0.000000 0.021496 0.000000 0.056466
#
#
# Mechanical properties :
#
#
# Convention : Reuss Voigt Hill
#
# Bulk Modulus (GPa) = 42.04641 61.72514 51.88578
# Shear Modulus (GPa) = 18.98509 26.72807 22.85658
#
# Velocity S-wave (km/s) = 3.20620 3.80424 3.51795
# Velocity P-wave (km/s) = 6.03928 7.26073 6.67799
#
# Compressibility (1/GPa) = 0.02378324
#
# Stress axis : x y z
#
# Youngs Moduli (GPa) = 38.72718 88.55104 136.67529
#
# Poissons Ratio (x) = 0.41778 0.57222
# Poissons Ratio (y) = 0.18271 0.19398
# Poissons Ratio (z) = 0.16214 0.12568
#
# Static dielectric constant tensor:
#      x y z
#    x 1.343440 0.000000 -0.284130 
#    y 0.000000 1.865050 0.000000 
#    z -0.284130 0.000000 1.441550 
# 
# From -- ./inp_files/111632.got.cif
#   From: 2010.05.17/outbox.cif.g08.bks.cpg/sg15_56_cif.got.tgz:111632.got - 2010.06.03 18:47:42.
