data_PCOD9260043
_publ_section_title
;
Structure prediction by ZEFSAII (Michael W. Deem and Ramdas Pophale) SiO2 
 PCOD9260043
Probable space group: C 2/C
;
_chemical_formula_sum "Si O2"
_cell_formula_units_Z 64
_cell_length_a 11.869593
_cell_length_b 16.300052
_cell_length_c 27.164926
_cell_angle_alpha 90.000000
_cell_angle_beta 139.236359
_cell_angle_gamma 90.000000
_cell_volume 3431.679197
_symmetry_space_group_name_H-M "C 2/C"
_symmetry_group_IT_number 15
_symmetry_cell_setting 'monoclinic'
loop_
_space_group_symop_operation_xyz
x,y,z
-x,y,1/2-z
-x,-y,-z
x,-y,1/2+z
1/2+x,1/2+y,z
1/2-x,1/2+y,1/2-z
1/2-x,1/2-y,-z
1/2+x,1/2-y,1/2+z
loop_
_atom_site_type_symbol
_atom_site_label
_atom_site_fract_x
_atom_site_fract_y
_atom_site_fract_z
Si Si1 0.820634 0.636168 0.096320
Si Si2 0.317791 0.571736 0.162253
Si Si3 0.555246 0.605958 0.569965
Si Si4 0.536968 0.551379 0.859216
Si Si5 0.222372 0.305743 0.098202
Si Si6 0.038189 0.293697 0.575571
Si Si7 0.698485 0.919186 0.182000
Si Si8 0.421744 0.962158 0.169152
O O1 0.811579 0.716933 0.127370
O O2 0.911718 0.558113 0.150697
O O3 0.915028 0.667284 0.077239
O O4 0.623233 0.609230 0.019265
O O5 0.500000 0.581229 0.250000
O O6 0.368386 0.530965 0.127145
O O7 0.211097 0.654175 0.128408
O O8 0.201120 0.502143 0.150191
O O9 0.526342 0.546271 0.606487
O O10 0.574976 0.698307 0.597788
O O11 0.731100 0.577216 0.602942
O O12 0.664752 0.627268 0.893673
O O13 0.378209 0.572869 0.770762
O O14 0.194344 0.343786 0.142713
O O15 0.055264 0.297010 0.008355
O O16 0.546858 0.919565 0.171146
O O17 0.500000 0.953437 0.250000
#
# Coordination Sequence:
#
# PCOD9260043 Si02
#       8
#     8   8   8   8   8   8   8   8
#     4  11  22  41  61  89 121 156 202 247 290 361
#     4   9  20  35  57  87 120 146 196 251 297 341
#     4  11  22  40  61  86 122 158 197 244 303 352
#     4  10  18  36  61  87 117 154 196 246 295 345
#     4  10  20  37  63  91 116 155 202 246 291 350
#     4  11  20  38  63  90 118 154 201 246 296 354
#     4  10  21  38  59  87 124 154 195 249 295 356
#     4  12  25  40  60  86 123 159 200 244 303 359
#
# _framework density 18.649761999999999
#
# number of rings (size 3 to 8) (size 9 to 14) (size 15 to 20)
#    0.000    1.500    5.000    2.250    0.000    4.500 
#    0.000    3.750    0.000    0.000    0.000    0.000 
#    0.000    0.000    0.000    0.000    0.000    0.000 
#
# Total GULP energy -178538.084300 kJ/mol
# GULP energy per Si atom -5579.315134 kJ/mol
# Density = 1.860731 g / cm^3
# Si number density = 18.649762 Si / 1000 Ang^3
#
#
#
# Elastic Constant Matrix: (Units=GPa)
#
#
# Indices 1 2 3 4 5 6 
#
# 1 114.9175 29.0194 27.6399 0.0000 2.5842 0.0000
# 2 29.0194 61.9457 14.1232 0.0000 6.3414 0.0000
# 3 27.6399 14.1232 22.9952 0.0000 2.6361 0.0000
# 4 0.0000 0.0000 0.0000 9.8126 0.0000 1.5611
# 5 2.5842 6.3414 2.6361 0.0000 22.0589 0.0000
# 6 0.0000 0.0000 0.0000 1.5611 0.0000 26.8330
#
#
#
# Elastic Compliance Matrix: (Units=1/GPa)
#
#
# Indices 1 2 3 4 5 6 
#
# 1 0.012683 -0.002954 -0.013543 0.000000 0.000982 0.000000
# 2 -0.002954 0.019828 -0.008124 0.000000 -0.004383 0.000000
# 3 -0.013543 -0.008124 0.065200 0.000000 -0.003869 0.000000
# 4 0.000000 0.000000 0.000000 0.102862 0.000000 -0.005984
# 5 0.000982 -0.004383 -0.003869 0.000000 0.046941 0.000000
# 6 0.000000 0.000000 0.000000 -0.005984 0.000000 0.037616
#
#
# Mechanical properties :
#
#
# Convention : Reuss Voigt Hill
#
# Bulk Modulus (GPa) = 20.63258 37.93590 29.28424
# Shear Modulus (GPa) = 14.26417 20.34595 17.30506
#
# Velocity S-wave (km/s) = 2.76858 3.30654 3.04945
# Velocity P-wave (km/s) = 4.61598 5.91295 5.30425
#
# Compressibility (1/GPa) = 0.04846703
#
# Stress axis : x y z
#
# Youngs Moduli (GPa) = 78.84400 50.43312 15.33754
#
# Poissons Ratio (x) = 0.14900 0.20772
# Poissons Ratio (y) = 0.23294 0.12461
# Poissons Ratio (z) = 1.06779 0.40974
#
# Static dielectric constant tensor:
#      x y z
#    x 1.646910 0.000000 -0.008110 
#    y 0.000000 1.637680 0.000000 
#    z -0.008110 0.000000 1.654340 
# 
# From -- ./inp_files/238759.got.cif
#   From: 2010.05.17/outbox.cif.g08.bks.cpg/sg15_120_cif.got.tgz:238759.got - 2010.06.03 18:47:42.
