data_PCOD9260067
_publ_section_title
;
Structure prediction by ZEFSAII (Michael W. Deem and Ramdas Pophale) SiO2 
 PCOD9260067
Probable space group: C 2/C
;
_chemical_formula_sum "Si O2"
_cell_formula_units_Z 48
_cell_length_a 15.755148
_cell_length_b 11.548137
_cell_length_c 11.626908
_cell_angle_alpha 90.000000
_cell_angle_beta 95.329090
_cell_angle_gamma 90.000000
_cell_volume 2106.286377
_symmetry_space_group_name_H-M "C 2/C"
_symmetry_group_IT_number 15
_symmetry_cell_setting 'monoclinic'
loop_
_space_group_symop_operation_xyz
x,y,z
-x,y,1/2-z
-x,-y,-z
x,-y,1/2+z
1/2+x,1/2+y,z
1/2-x,1/2+y,1/2-z
1/2-x,1/2-y,-z
1/2+x,1/2-y,1/2+z
loop_
_atom_site_type_symbol
_atom_site_label
_atom_site_fract_x
_atom_site_fract_y
_atom_site_fract_z
Si Si1 0.500000 0.535071 0.250000
Si Si2 0.306886 0.113350 0.801407
Si Si3 0.628985 0.660209 0.849785
Si Si4 0.500000 0.003394 0.250000
Si Si5 0.126756 0.337593 0.410601
Si Si6 0.856060 0.366037 0.831233
Si Si7 0.951291 0.226025 0.419916
O O1 0.427707 0.450590 0.190058
O O2 0.448716 0.617119 0.333116
O O3 0.229081 0.134466 0.877200
O O4 0.303258 0.182631 0.679405
O O5 0.394356 0.166488 0.865509
O O6 0.303214 0.975554 0.775594
O O7 0.634107 0.754421 0.747513
O O8 0.585530 0.705292 0.959522
O O9 0.548466 0.081885 0.163976
O O10 0.568143 0.933704 0.337025
O O11 0.167882 0.360524 0.538266
O O12 0.052764 0.246894 0.430562
#
# Coordination Sequence:
#
# PCOD9260067 Si02
#       7
#     4   8   8   4   8   8   8
#     4  12  26  50  72 104 144 196 244 286 360 442
#     4  11  26  43  69 108 141 195 234 308 362 415
#     4  12  29  45  71 106 142 193 243 299 362 422
#     4  10  18  36  62 102 132 166 222 286 352 406
#     4  11  20  41  71 103 135 184 233 286 364 417
#     4  11  24  39  70 104 141 176 240 299 347 432
#     4  12  23  48  74  99 144 193 243 288 361 439
#
# _framework density 22.788924000000002
#
# number of rings (size 3 to 8) (size 9 to 14) (size 15 to 20)
#    0.000    0.667    5.000    4.000    7.000    2.000 
#    0.000    0.000    0.000    0.000    0.000    0.000 
#    0.000    0.000    0.000    0.000    0.000    0.000 
#
# Total GULP energy -133702.249027 kJ/mol
# GULP energy per Si atom -5570.927043 kJ/mol
# Density = 2.273706 g / cm^3
# Si number density = 22.788924 Si / 1000 Ang^3
#
#
#
# Elastic Constant Matrix: (Units=GPa)
#
#
# Indices 1 2 3 4 5 6 
#
# 1 71.4350 14.8101 22.5781 0.0000 -26.0652 0.0000
# 2 14.8101 56.8067 6.2621 0.0000 1.6814 0.0000
# 3 22.5781 6.2621 118.6415 0.0000 -32.4889 0.0000
# 4 0.0000 0.0000 0.0000 14.8886 0.0000 -23.4703
# 5 -26.0652 1.6814 -32.4889 0.0000 38.2837 0.0000
# 6 0.0000 0.0000 0.0000 -23.4703 0.0000 -58.3825
#
#
#
# Elastic Compliance Matrix: (Units=1/GPa)
#
#
# Indices 1 2 3 4 5 6 
#
# 1 0.020338 -0.005772 0.000385 0.000000 0.014427 0.000000
# 2 -0.005772 0.019468 -0.001615 0.000000 -0.006155 0.000000
# 3 0.000385 -0.001615 0.011115 0.000000 0.009766 0.000000
# 4 0.000000 0.000000 0.000000 0.041112 0.000000 -0.016527
# 5 0.014427 -0.006155 0.009766 0.000000 0.044501 0.000000
# 6 0.000000 0.000000 0.000000 -0.016527 0.000000 -0.010484
#
#
# Mechanical properties :
#
#
# Convention : Reuss Voigt Hill
#
# Bulk Modulus (GPa) = 27.08675 37.13151 32.10913
# Shear Modulus (GPa) = 32.81726 12.50683 22.66205
#
# Velocity S-wave (km/s) = 3.79892 2.34521 3.15688
# Velocity P-wave (km/s) = 5.58159 4.86440 5.23529
#
# Compressibility (1/GPa) = 0.03691842
#
# Stress axis : x y z
#
# Youngs Moduli (GPa) = 49.16944 51.36511 89.96906
#
# Poissons Ratio (x) = 0.29647 -0.03464
# Poissons Ratio (y) = 0.28379 0.14527
# Poissons Ratio (z) = -0.01893 0.08294
#
# Static dielectric constant tensor:
#      x y z
#    x 1.923240 0.000000 -0.007880 
#    y 0.000000 1.930640 0.000000 
#    z -0.007880 0.000000 1.888260 
# 
# From -- ./inp_files/103782.got.cif
#   From: 2010.05.17/outbox.cif.g08.bks.cpg/sg15_52_cif.got.tgz:103782.got - 2010.06.03 18:47:42.
