data_PCOD9260658
_publ_section_title
;
Structure prediction by ZEFSAII (Michael W. Deem and Ramdas Pophale) SiO2 
 PCOD9260658
Probable space group: C 2/C
;
_chemical_formula_sum "Si O2"
_cell_formula_units_Z 60
_cell_length_a 21.988044
_cell_length_b 8.145653
_cell_length_c 19.564697
_cell_angle_alpha 90.000000
_cell_angle_beta 67.256735
_cell_angle_gamma 90.000000
_cell_volume 3231.711683
_symmetry_space_group_name_H-M "C 2/C"
_symmetry_group_IT_number 15
_symmetry_cell_setting 'monoclinic'
loop_
_space_group_symop_operation_xyz
x,y,z
-x,y,1/2-z
-x,-y,-z
x,-y,1/2+z
1/2+x,1/2+y,z
1/2-x,1/2+y,1/2-z
1/2-x,1/2-y,-z
1/2+x,1/2-y,1/2+z
loop_
_atom_site_type_symbol
_atom_site_label
_atom_site_fract_x
_atom_site_fract_y
_atom_site_fract_z
Si Si1 0.500000 0.429546 0.750000
Si Si2 0.234672 0.805414 0.583736
Si Si3 0.720376 0.358291 0.806087
Si Si4 0.067982 0.218440 0.661135
Si Si5 0.718876 0.695391 0.584051
Si Si6 0.172483 0.767797 0.341319
Si Si7 0.622983 0.794092 0.240111
Si Si8 0.939821 0.638275 0.189072
O O1 0.532535 0.541233 0.675235
O O2 0.438404 0.324771 0.749366
O O3 0.250000 0.750000 0.500000
O O4 0.301814 0.773327 0.595492
O O5 0.175529 0.715529 0.653276
O O6 0.221169 0.999532 0.593803
O O7 0.744618 0.285862 0.868268
O O8 0.784428 0.341652 0.730059
O O9 0.692837 0.543165 0.820779
O O10 0.664824 0.258623 0.788622
O O11 0.142095 0.235201 0.607029
O O12 0.073078 0.245296 0.740399
O O13 0.018845 0.351666 0.649617
O O14 0.750000 0.750000 0.500000
O O15 0.098145 0.717232 0.357734
O O16 0.589919 0.967138 0.273013
#
# Coordination Sequence:
#
# PCOD9260658 Si02
#       8
#     4   8   8   8   8   8   8   8
#     4  10  18  38  60  88 118 150 200 252 298 346
#     4  11  24  39  58  90 123 159 200 242 300 358
#     4  11  21  35  59  90 115 153 205 245 295 344
#     4  10  21  36  58  90 120 154 199 245 295 352
#     4  12  24  40  62  85 126 160 197 243 300 361
#     4  11  20  36  61  86 120 152 198 254 289 347
#     4  11  21  37  65  90 119 154 200 251 295 351
#     4  10  20  35  61  90 118 149 195 249 295 342
#
# _framework density 18.566012000000001
#
# number of rings (size 3 to 8) (size 9 to 14) (size 15 to 20)
#    0.000    1.333    2.667    7.200    1.867    0.000 
#    0.000    0.000    2.933    4.000    0.000    0.000 
#    0.000    0.000    0.000    0.000    0.000    0.000 
#
# Total GULP energy -167209.684020 kJ/mol
# GULP energy per Si atom -5573.656134 kJ/mol
# Density = 1.852376 g / cm^3
# Si number density = 18.566012 Si / 1000 Ang^3
#
#
#
# Elastic Constant Matrix: (Units=GPa)
#
#
# Indices 1 2 3 4 5 6 
#
# 1 172.6375 49.1143 70.9377 -0.0004 -0.4227 -0.0009
# 2 49.1143 97.7675 30.7162 -0.0007 -2.4869 -0.0018
# 3 70.9377 30.7162 96.5819 0.0000 14.4598 -0.0003
# 4 -0.0004 -0.0007 0.0000 13.1294 0.0000 1.6128
# 5 -0.4227 -2.4869 14.4598 0.0000 29.5546 -0.0003
# 6 -0.0009 -0.0018 -0.0003 1.6128 -0.0003 37.8794
#
#
#
# Elastic Compliance Matrix: (Units=1/GPa)
#
#
# Indices 1 2 3 4 5 6 
#
# 1 0.009127 -0.002510 -0.006359 0.000000 0.003031 0.000000
# 2 -0.002510 0.012296 -0.002392 0.000001 0.002169 0.000000
# 3 -0.006359 -0.002392 0.017080 0.000000 -0.008649 0.000000
# 4 0.000000 0.000001 0.000000 0.076565 0.000000 -0.003260
# 5 0.003031 0.002169 -0.008649 0.000000 0.038293 0.000000
# 6 0.000000 0.000000 0.000000 -0.003260 0.000000 0.026538
#
#
# Mechanical properties :
#
#
# Convention : Reuss Voigt Hill
#
# Bulk Modulus (GPa) = 62.57279 74.28036 68.42658
# Shear Modulus (GPa) = 24.06762 30.52725 27.29743
#
# Velocity S-wave (km/s) = 3.60436 4.05934 3.83860
# Velocity P-wave (km/s) = 7.14828 7.87824 7.52212
#
# Compressibility (1/GPa) = 0.01598139
#
# Stress axis : x y z
#
# Youngs Moduli (GPa) = 109.56555 81.32825 58.54816
#
# Poissons Ratio (x) = 0.20414 0.37231
# Poissons Ratio (y) = 0.27502 0.14002
# Poissons Ratio (z) = 0.69673 0.19451
#
# Static dielectric constant tensor:
#      x y z
#    x 1.726770 0.000000 -0.027630 
#    y 0.000000 1.763130 0.000000 
#    z -0.027630 0.000000 1.622600 
# 
# From -- ./inp_files/213857.got.cif
#   From: 2010.05.17/outbox.cif.g08.bks.cpg/sg15_107_cif.got.tgz:213857.got - 2010.06.03 18:47:42.
