data_PCOD9260530
_publ_section_title
;
Structure prediction by ZEFSAII (Michael W. Deem and Ramdas Pophale) SiO2 
 PCOD9260530
Probable space group: C 2/C
;
_chemical_formula_sum "Si O2"
_cell_formula_units_Z 36
_cell_length_a 6.104896
_cell_length_b 17.249865
_cell_length_c 13.023242
_cell_angle_alpha 90.000000
_cell_angle_beta 70.756945
_cell_angle_gamma 90.000000
_cell_volume 1294.834934
_symmetry_space_group_name_H-M "C 2/C"
_symmetry_group_IT_number 15
_symmetry_cell_setting 'monoclinic'
loop_
_space_group_symop_operation_xyz
x,y,z
-x,y,1/2-z
-x,-y,-z
x,-y,1/2+z
1/2+x,1/2+y,z
1/2-x,1/2+y,1/2-z
1/2-x,1/2-y,-z
1/2+x,1/2-y,1/2+z
loop_
_atom_site_type_symbol
_atom_site_label
_atom_site_fract_x
_atom_site_fract_y
_atom_site_fract_z
Si Si1 0.325011 0.175800 0.052686
Si Si2 0.876665 0.889163 0.580067
Si Si3 0.825112 0.561926 0.578133
Si Si4 0.752864 0.257733 0.229362
Si Si5 0.500000 0.005078 0.250000
O O1 0.336518 0.199938 0.167485
O O2 0.136017 0.106943 0.081564
O O3 0.250000 0.250000 0.000000
O O4 0.550429 0.144142 0.962523
O O5 0.894188 0.921081 0.460325
O O6 0.816560 0.800346 0.624596
O O7 0.683108 0.941724 0.661722
O O8 0.000000 0.500000 0.500000
O O9 0.843551 0.543777 0.694519
O O10 0.500000 0.302246 0.250000
O O11 0.000000 0.285697 0.250000
#
# Coordination Sequence:
#
# PCOD9260530 Si02
#       5
#     8   8   8   8   4
#     4  11  24  41  64 101 135 182 232 291 355 420
#     4  10  20  41  68  94 132 184 228 281 349 435
#     4  10  21  41  65  96 136 173 237 288 347 423
#     4  10  18  37  65  96 128 182 234 274 347 430
#     4  10  20  38  68 100 136 172 232 294 348 412
#
# _framework density 27.802769000000001
#
# number of rings (size 3 to 8) (size 9 to 14) (size 15 to 20)
#    0.000    1.778    3.333    1.333    0.000    4.444 
#    6.000    5.556    0.000    0.000    0.000    0.000 
#    0.000    0.000    0.000    0.000    0.000    0.000 
#
# Total GULP energy -100349.216158 kJ/mol
# GULP energy per Si atom -5574.956453 kJ/mol
# Density = 2.773949 g / cm^3
# Si number density = 27.802769 Si / 1000 Ang^3
#
#
#
# Elastic Constant Matrix: (Units=GPa)
#
#
# Indices 1 2 3 4 5 6 
#
# 1 159.0161 8.9707 14.1365 0.0000 -0.9108 0.0000
# 2 8.9707 87.8393 32.4874 0.0000 12.2434 0.0000
# 3 14.1365 32.4874 103.2487 0.0000 27.1881 0.0000
# 4 0.0000 0.0000 0.0000 14.0454 0.0000 9.4142
# 5 -0.9108 12.2434 27.1881 0.0000 51.1706 0.0000
# 6 0.0000 0.0000 0.0000 9.4142 0.0000 42.6836
#
#
#
# Elastic Compliance Matrix: (Units=1/GPa)
#
#
# Indices 1 2 3 4 5 6 
#
# 1 0.006399 -0.000406 -0.000935 0.000000 0.000708 0.000000
# 2 -0.000406 0.012961 -0.003725 0.000000 -0.001129 0.000000
# 3 -0.000935 -0.003725 0.012505 0.000000 -0.005769 0.000000
# 4 0.000000 0.000000 0.000000 0.083549 0.000000 -0.018427
# 5 0.000708 -0.001129 -0.005769 0.000000 0.022891 0.000000
# 6 0.000000 0.000000 0.000000 -0.018427 0.000000 0.027493
#
#
# Mechanical properties :
#
#
# Convention : Reuss Voigt Hill
#
# Bulk Modulus (GPa) = 46.01524 51.25483 48.63503
# Shear Modulus (GPa) = 27.29658 41.21388 34.25523
#
# Velocity S-wave (km/s) = 3.13676 3.85433 3.51391
# Velocity P-wave (km/s) = 5.45028 6.18732 5.83046
#
# Compressibility (1/GPa) = 0.02173193
#
# Stress axis : x y z
#
# Youngs Moduli (GPa) = 156.28081 77.15388 79.96996
#
# Poissons Ratio (x) = 0.03136 0.07474
# Poissons Ratio (y) = 0.06353 0.29791
# Poissons Ratio (z) = 0.14605 0.28742
#
# Static dielectric constant tensor:
#      x y z
#    x 2.361380 0.000000 0.064410 
#    y 0.000000 2.134530 0.000000 
#    z 0.064410 0.000000 2.238580 
# 
# From -- ./inp_files/128654.got.cif
#   From: 2010.05.17/outbox.cif.g08.bks.cpg/sg15_65_cif.got.tgz:128654.got - 2010.06.03 18:47:42.
