data_PCOD9260774
_publ_section_title
;
Structure prediction by ZEFSAII (Michael W. Deem and Ramdas Pophale) SiO2 
 PCOD9260774
Probable space group: C 2/C
;
_chemical_formula_sum "Si O2"
_cell_formula_units_Z 36
_cell_length_a 16.945799
_cell_length_b 11.595092
_cell_length_c 14.796362
_cell_angle_alpha 90.000000
_cell_angle_beta 35.034570
_cell_angle_gamma 90.000000
_cell_volume 1669.000570
_symmetry_space_group_name_H-M "C 2/C"
_symmetry_group_IT_number 15
_symmetry_cell_setting 'monoclinic'
loop_
_space_group_symop_operation_xyz
x,y,z
-x,y,1/2-z
-x,-y,-z
x,-y,1/2+z
1/2+x,1/2+y,z
1/2-x,1/2+y,1/2-z
1/2-x,1/2-y,-z
1/2+x,1/2-y,1/2+z
loop_
_atom_site_type_symbol
_atom_site_label
_atom_site_fract_x
_atom_site_fract_y
_atom_site_fract_z
Si Si1 0.636692 0.293147 0.676595
Si Si2 0.080399 0.313518 0.412304
Si Si3 0.777615 0.480037 0.100409
Si Si4 0.337755 0.757964 0.762824
Si Si5 0.000000 0.582341 0.250000
O O1 0.500000 0.323457 0.750000
O O2 0.750000 0.250000 0.500000
O O3 0.600245 0.201127 0.788083
O O4 0.695944 0.402918 0.674186
O O5 0.136961 0.438256 0.391614
O O6 0.180857 0.228772 0.376893
O O7 0.930752 0.278969 0.587156
O O8 0.671094 0.372809 0.190717
O O9 0.892227 0.483533 0.914220
O O10 0.404299 0.839084 0.775254
#
# Coordination Sequence:
#
# PCOD9260774 Si02
#       5
#     8   8   8   8   4
#     4  12  27  47  69  99 139 176 228 279 335 402
#     4   9  21  43  62  98 132 178 219 278 322 405
#     4   9  23  39  67  97 133 177 221 270 346 385
#     4   9  19  37  67  93 138 167 229 267 333 390
#     4  10  18  38  64 104 134 176 218 286 320 414
#
# _framework density 21.569794999999999
#
# number of rings (size 3 to 8) (size 9 to 14) (size 15 to 20)
#    1.333    0.889    0.000    2.000    3.111    0.889 
#    4.000    3.333    0.000    0.000    0.000    0.000 
#    0.000    0.000    0.000    0.000    0.000    0.000 
#
# Total GULP energy -100394.699958 kJ/mol
# GULP energy per Si atom -5577.483331 kJ/mol
# Density = 2.152070 g / cm^3
# Si number density = 21.569795 Si / 1000 Ang^3
#
#
#
# Elastic Constant Matrix: (Units=GPa)
#
#
# Indices 1 2 3 4 5 6 
#
# 1 89.4053 36.9424 27.8901 0.0000 1.9566 0.0000
# 2 36.9424 64.1977 39.8071 0.0000 -1.6082 0.0000
# 3 27.8901 39.8071 94.3948 0.0000 6.3820 0.0000
# 4 0.0000 0.0000 0.0000 21.7044 0.0000 -12.2482
# 5 1.9566 -1.6082 6.3820 0.0000 48.9138 0.0000
# 6 0.0000 0.0000 0.0000 -12.2482 0.0000 17.8830
#
#
#
# Elastic Compliance Matrix: (Units=1/GPa)
#
#
# Indices 1 2 3 4 5 6 
#
# 1 0.014776 -0.007914 -0.000980 0.000000 -0.000723 0.000000
# 2 -0.007914 0.025502 -0.008570 0.000000 0.002273 0.000000
# 3 -0.000980 -0.008570 0.014643 0.000000 -0.002153 0.000000
# 4 0.000000 0.000000 0.000000 0.075100 0.000000 0.051437
# 5 -0.000723 0.002273 -0.002153 0.000000 0.020829 0.000000
# 6 0.000000 0.000000 0.000000 0.051437 0.000000 0.091148
#
#
# Mechanical properties :
#
#
# Convention : Reuss Voigt Hill
#
# Bulk Modulus (GPa) = 50.01368 50.80857 50.41113
# Shear Modulus (GPa) = 17.63112 27.25743 22.44428
#
# Velocity S-wave (km/s) = 2.86212 3.55869 3.22924
# Velocity P-wave (km/s) = 5.84462 6.36335 6.10949
#
# Compressibility (1/GPa) = 0.01999453
#
# Stress axis : x y z
#
# Youngs Moduli (GPa) = 67.67533 39.21327 68.29318
#
# Poissons Ratio (x) = 0.31032 0.06691
# Poissons Ratio (y) = 0.53556 0.58525
# Poissons Ratio (z) = 0.06630 0.33605
#
# Static dielectric constant tensor:
#      x y z
#    x 1.781470 0.000000 0.011040 
#    y 0.000000 1.789180 0.000000 
#    z 0.011040 0.000000 1.754680 
# 
# From -- ./inp_files/152392.got.cif
#   From: 2010.05.17/outbox.cif.g08.bks.cpg/sg15_77_cif.got.tgz:152392.got - 2010.06.03 18:47:42.
