data_PCOD9260645
_publ_section_title
;
Structure prediction by ZEFSAII (Michael W. Deem and Ramdas Pophale) SiO2 
 PCOD9260645
Probable space group: C 2/C
;
_chemical_formula_sum "Si O2"
_cell_formula_units_Z 44
_cell_length_a 18.937192
_cell_length_b 8.708617
_cell_length_c 15.948362
_cell_angle_alpha 90.000000
_cell_angle_beta 56.050960
_cell_angle_gamma 90.000000
_cell_volume 2181.802145
_symmetry_space_group_name_H-M "C 2/C"
_symmetry_group_IT_number 15
_symmetry_cell_setting 'monoclinic'
loop_
_space_group_symop_operation_xyz
x,y,z
-x,y,1/2-z
-x,-y,-z
x,-y,1/2+z
1/2+x,1/2+y,z
1/2-x,1/2+y,1/2-z
1/2-x,1/2-y,-z
1/2+x,1/2-y,1/2+z
loop_
_atom_site_type_symbol
_atom_site_label
_atom_site_fract_x
_atom_site_fract_y
_atom_site_fract_z
Si Si1 0.500000 0.641245 0.750000
Si Si2 0.211276 0.651946 0.601985
Si Si3 0.802454 0.611328 0.511207
Si Si4 0.116322 0.927719 0.419310
Si Si5 0.033018 0.775559 0.049055
Si Si6 0.847971 0.048772 0.291110
O O1 0.499171 0.738272 0.834659
O O2 0.581563 0.532387 0.698602
O O3 0.250000 0.750000 0.500000
O O4 0.173191 0.503362 0.581244
O O5 0.291896 0.608812 0.605113
O O6 0.152946 0.769205 0.692365
O O7 0.750000 0.750000 0.500000
O O8 0.885089 0.666902 0.507813
O O9 0.740112 0.524551 0.617449
O O10 0.051629 0.783005 0.452366
O O11 0.071458 0.054208 0.507366
O O12 0.130409 0.002794 0.318259
#
# Coordination Sequence:
#
# PCOD9260645 Si02
#       6
#     4   8   8   8   8   8
#     4  10  18  38  60  84 116 164 206 238 308 374
#     4  10  21  38  58  87 122 162 203 256 306 371
#     4  11  19  37  64  89 117 158 211 248 306 374
#     4  10  21  36  60  88 124 158 210 250 314 369
#     4  10  20  36  60  92 114 158 206 254 298 369
#     4  10  22  35  61  87 122 159 200 258 313 367
#
# _framework density 20.166815
#
# number of rings (size 3 to 8) (size 9 to 14) (size 15 to 20)
#    0.000    1.818    3.636    1.091    2.545    0.000 
#    0.000    4.545    0.000    0.000    0.000    0.000 
#    0.000    0.000    0.000    0.000    0.000    0.000 
#
# Total GULP energy -122607.143410 kJ/mol
# GULP energy per Si atom -5573.051973 kJ/mol
# Density = 2.012091 g / cm^3
# Si number density = 20.166815 Si / 1000 Ang^3
#
#
#
# Elastic Constant Matrix: (Units=GPa)
#
#
# Indices 1 2 3 4 5 6 
#
# 1 75.8968 10.2635 8.8766 0.0000 -4.8671 0.0000
# 2 10.2635 58.7346 8.4092 0.0000 -3.2922 0.0000
# 3 8.8766 8.4092 66.5038 0.0000 2.8591 0.0000
# 4 0.0000 0.0000 0.0000 19.9695 0.0000 9.5309
# 5 -4.8671 -3.2922 2.8591 0.0000 35.8830 0.0000
# 6 0.0000 0.0000 0.0000 9.5309 0.0000 11.6337
#
#
#
# Elastic Compliance Matrix: (Units=1/GPa)
#
#
# Indices 1 2 3 4 5 6 
#
# 1 0.013765 -0.002067 -0.001654 0.000000 0.001809 0.000000
# 2 -0.002067 0.017763 -0.002035 0.000000 0.001512 0.000000
# 3 -0.001654 -0.002035 0.015586 0.000000 -0.001653 0.000000
# 4 0.000000 0.000000 0.000000 0.082228 0.000000 -0.067365
# 5 0.001809 0.001512 -0.001653 0.000000 0.028384 0.000000
# 6 0.000000 0.000000 0.000000 -0.067365 0.000000 0.141146
#
#
# Mechanical properties :
#
#
# Convention : Reuss Voigt Hill
#
# Bulk Modulus (GPa) = 28.08849 28.47043 28.27946
# Shear Modulus (GPa) = 15.51586 25.06965 20.29276
#
# Velocity S-wave (km/s) = 2.77677 3.52961 3.17558
# Velocity P-wave (km/s) = 4.92330 5.54608 5.24394
#
# Compressibility (1/GPa) = 0.03560177
#
# Stress axis : x y z
#
# Youngs Moduli (GPa) = 72.64939 56.29662 64.16078
#
# Poissons Ratio (x) = 0.11637 0.10610
# Poissons Ratio (y) = 0.15018 0.13058
# Poissons Ratio (z) = 0.12014 0.11457
#
# Static dielectric constant tensor:
#      x y z
#    x 1.374690 0.000000 0.122440 
#    y 0.000000 1.738870 0.000000 
#    z 0.122440 0.000000 1.672180 
# 
# From -- ./inp_files/159649.got.cif
#   From: 2010.05.17/outbox.cif.g08.bks.cpg/sg15_80_cif.got.tgz:159649.got - 2010.06.03 18:47:42.
