data_PCOD9260666
_publ_section_title
;
Structure prediction by ZEFSAII (Michael W. Deem and Ramdas Pophale) SiO2 
 PCOD9260666
Probable space group: C 2/C
;
_chemical_formula_sum "Si O2"
_cell_formula_units_Z 52
_cell_length_a 7.993059
_cell_length_b 17.036847
_cell_length_c 19.517387
_cell_angle_alpha 90.000000
_cell_angle_beta 89.375347
_cell_angle_gamma 90.000000
_cell_volume 2657.651954
_symmetry_space_group_name_H-M "C 2/C"
_symmetry_group_IT_number 15
_symmetry_cell_setting 'monoclinic'
loop_
_space_group_symop_operation_xyz
x,y,z
-x,y,1/2-z
-x,-y,-z
x,-y,1/2+z
1/2+x,1/2+y,z
1/2-x,1/2+y,1/2-z
1/2-x,1/2-y,-z
1/2+x,1/2-y,1/2+z
loop_
_atom_site_type_symbol
_atom_site_label
_atom_site_fract_x
_atom_site_fract_y
_atom_site_fract_z
Si Si1 0.500000 0.140392 0.750000
Si Si2 0.383825 0.889649 0.464726
Si Si3 0.696773 0.305302 0.936687
Si Si4 0.532883 0.147198 0.381916
Si Si5 0.367684 0.030942 0.642062
Si Si6 0.346222 0.243265 0.871087
Si Si7 0.174435 0.033384 0.518212
O O1 0.375554 0.080434 0.711132
O O2 0.404184 0.196000 0.803707
O O3 0.443918 0.856061 0.536108
O O4 0.526281 0.915573 0.411557
O O5 0.282042 0.822231 0.426065
O O6 0.301227 0.970890 0.485857
O O7 0.516857 0.280831 0.904068
O O8 0.685858 0.387085 0.976549
O O9 0.846228 0.314993 0.878941
O O10 0.750000 0.250000 0.000000
O O11 0.693740 0.197423 0.356767
O O12 0.555568 0.057234 0.354595
O O13 0.196158 0.030447 0.600336
O O14 0.000000 0.000000 0.500000
#
# Coordination Sequence:
#
# PCOD9260666 Si02
#       7
#     4   8   8   8   8   8   8
#     4  10  24  48  62  76 126 182 216 248 304 374
#     4  10  18  38  60  91 128 159 196 249 328 377
#     4  12  21  35  61  99 130 155 196 264 324 370
#     4  11  20  37  65  98 120 156 210 263 319 368
#     4  10  19  41  65  83 123 174 207 246 311 381
#     4  11  24  40  62  89 129 166 201 262 313 371
#     4  11  21  34  63  99 126 155 204 264 320 375
#
# _framework density 19.566143
#
# number of rings (size 3 to 8) (size 9 to 14) (size 15 to 20)
#    0.000    1.231    4.615    4.154    2.154    0.000 
#    2.769    0.000    3.385    0.000    0.000    0.000 
#    0.000    0.000    0.000    0.000    0.000    0.000 
#
# Total GULP energy -144814.037201 kJ/mol
# GULP energy per Si atom -5569.770662 kJ/mol
# Density = 1.952161 g / cm^3
# Si number density = 19.566143 Si / 1000 Ang^3
#
#
#
# Elastic Constant Matrix: (Units=GPa)
#
#
# Indices 1 2 3 4 5 6 
#
# 1 84.3234 45.0788 28.2148 0.0000 12.7132 0.0000
# 2 45.0788 113.1016 39.6525 0.0000 -4.8991 0.0000
# 3 28.2148 39.6525 70.3200 0.0000 6.6266 0.0000
# 4 0.0000 0.0000 0.0000 32.0568 0.0000 10.1100
# 5 12.7132 -4.8991 6.6266 0.0000 18.1505 0.0000
# 6 0.0000 0.0000 0.0000 10.1100 0.0000 20.4430
#
#
#
# Elastic Compliance Matrix: (Units=1/GPa)
#
#
# Indices 1 2 3 4 5 6 
#
# 1 0.018597 -0.007337 -0.001978 0.000000 -0.014284 0.000000
# 2 -0.007337 0.014457 -0.006276 0.000000 0.011333 0.000000
# 3 -0.001978 -0.006276 0.019245 0.000000 -0.007335 0.000000
# 4 0.000000 0.000000 0.000000 0.036959 0.000000 -0.018278
# 5 -0.014284 0.011333 -0.007335 0.000000 0.070837 0.000000
# 6 0.000000 0.000000 0.000000 -0.018278 0.000000 0.057956
#
#
# Mechanical properties :
#
#
# Convention : Reuss Voigt Hill
#
# Bulk Modulus (GPa) = 47.35890 54.84857 51.10373
# Shear Modulus (GPa) = 19.51041 24.44999 21.98020
#
# Velocity S-wave (km/s) = 3.16120 3.53881 3.35532
# Velocity P-wave (km/s) = 6.13036 6.69260 6.41764
#
# Compressibility (1/GPa) = 0.02111536
#
# Stress axis : x y z
#
# Youngs Moduli (GPa) = 53.77164 69.16878 51.96229
#
# Poissons Ratio (x) = 0.50752 0.10280
# Poissons Ratio (y) = 0.39455 0.32613
# Poissons Ratio (z) = 0.10637 0.43412
#
# Static dielectric constant tensor:
#      x y z
#    x 1.791960 0.000000 0.013000 
#    y 0.000000 1.766310 0.000000 
#    z 0.013000 0.000000 1.717320 
# 
# From -- ./inp_files/231275.got.cif
#   From: 2010.05.17/outbox.cif.g08.bks.cpg/sg15_116_cif.got.tgz:231275.got - 2010.06.03 18:47:42.
