data_PCOD9260909
_publ_section_title
;
Structure prediction by ZEFSAII (Michael W. Deem and Ramdas Pophale) SiO2 
 PCOD9260909
Probable space group: C 2/C
;
_chemical_formula_sum "Si O2"
_cell_formula_units_Z 52
_cell_length_a 10.352864
_cell_length_b 31.835771
_cell_length_c 7.680127
_cell_angle_alpha 90.000000
_cell_angle_beta 129.312694
_cell_angle_gamma 90.000000
_cell_volume 1958.469458
_symmetry_space_group_name_H-M "C 2/C"
_symmetry_group_IT_number 15
_symmetry_cell_setting 'monoclinic'
loop_
_space_group_symop_operation_xyz
x,y,z
-x,y,1/2-z
-x,-y,-z
x,-y,1/2+z
1/2+x,1/2+y,z
1/2-x,1/2+y,1/2-z
1/2-x,1/2-y,-z
1/2+x,1/2-y,1/2+z
loop_
_atom_site_type_symbol
_atom_site_label
_atom_site_fract_x
_atom_site_fract_y
_atom_site_fract_z
Si Si1 0.886269 0.765504 0.828932
Si Si2 0.331872 0.033721 0.551434
Si Si3 0.166479 0.399636 0.752391
Si Si4 0.001787 0.151127 0.463518
Si Si5 0.464817 0.815495 0.019377
Si Si6 0.500000 0.521824 0.750000
Si Si7 0.768577 0.914829 0.216962
O O1 0.979524 0.801970 0.012167
O O2 0.708528 0.787960 0.640613
O O3 0.000000 0.761677 0.750000
O O4 0.895782 0.719032 0.916109
O O5 0.500000 0.009096 0.750000
O O6 0.337543 0.060129 0.378389
O O7 0.326073 0.068002 0.698734
O O8 0.163346 0.006543 0.419347
O O9 0.348588 0.377915 0.887524
O O10 0.055927 0.359022 0.600970
O O11 0.832858 0.415191 0.547960
O O12 0.000000 0.150670 0.250000
O O13 0.165929 0.130749 0.680197
O O14 0.500000 0.827030 0.250000
O O15 0.571961 0.553943 0.668240
#
# Coordination Sequence:
#
# PCOD9260909 Si02
#       7
#     8   8   8   8   8   4   8
#     4   9  18  31  60  98 139 185 250 298 357 438
#     4  12  29  51  77 110 151 196 251 314 385 459
#     4  11  23  42  72 108 145 195 251 302 381 450
#     4  10  18  38  70 105 140 196 253 299 372 453
#     4  10  19  36  62 102 142 193 247 303 363 439
#     4  12  28  50  86 112 144 202 254 310 394 458
#     4  12  25  46  78 110 149 194 249 315 376 455
#
# _framework density 26.551345000000001
#
# number of rings (size 3 to 8) (size 9 to 14) (size 15 to 20)
#    0.000    1.231    3.077    3.692    2.154    1.231 
#    2.769    0.769    0.000    0.000    0.000    0.000 
#    0.000    0.000    0.000    0.000    0.000    0.000 
#
# Total GULP energy -145523.435481 kJ/mol
# GULP energy per Si atom -5597.055211 kJ/mol
# Density = 2.649091 g / cm^3
# Si number density = 26.551345 Si / 1000 Ang^3
#
#
#
# Elastic Constant Matrix: (Units=GPa)
#
#
# Indices 1 2 3 4 5 6 
#
# 1 92.4471 45.8523 54.2477 0.0000 -18.5635 0.0000
# 2 45.8523 182.1422 98.9615 0.0000 -5.6980 0.0000
# 3 54.2477 98.9615 171.9356 0.0000 -0.3024 0.0000
# 4 0.0000 0.0000 0.0000 39.6433 0.0000 11.9948
# 5 -18.5635 -5.6980 -0.3024 0.0000 53.9526 0.0000
# 6 0.0000 0.0000 0.0000 11.9948 0.0000 25.8891
#
#
#
# Elastic Compliance Matrix: (Units=1/GPa)
#
#
# Indices 1 2 3 4 5 6 
#
# 1 0.014769 -0.001510 -0.003782 0.000000 0.004901 0.000000
# 2 -0.001510 0.008179 -0.004231 0.000000 0.000321 0.000000
# 3 -0.003782 -0.004231 0.009442 0.000000 -0.001695 0.000000
# 4 0.000000 0.000000 0.000000 0.029338 0.000000 -0.013593
# 5 0.004901 0.000321 -0.001695 0.000000 0.020245 0.000000
# 6 0.000000 0.000000 0.000000 -0.013593 0.000000 0.044924
#
#
# Mechanical properties :
#
#
# Convention : Reuss Voigt Hill
#
# Bulk Modulus (GPa) = 74.93746 93.84977 84.39361
# Shear Modulus (GPa) = 33.24678 40.39457 36.82067
#
# Velocity S-wave (km/s) = 3.54244 3.90471 3.72798
# Velocity P-wave (km/s) = 6.70945 7.46675 7.09820
#
# Compressibility (1/GPa) = 0.01334446
#
# Stress axis : x y z
#
# Youngs Moduli (GPa) = 67.70755 122.26584 105.91433
#
# Poissons Ratio (x) = 0.18458 0.40061
# Poissons Ratio (y) = 0.10222 0.44809
# Poissons Ratio (z) = 0.25610 0.51727
#
# Static dielectric constant tensor:
#      x y z
#    x 2.127570 0.000000 0.081440 
#    y 0.000000 2.067540 0.000000 
#    z 0.081440 0.000000 2.157050 
# 
# From -- ./inp_files/92648.got.cif
#   From: 2010.05.17/outbox.cif.g08.bks.cpg/sg15_47_cif.got.tgz:92648.got - 2010.06.03 18:47:42.
