data_PCOD9260106
_publ_section_title
;
Structure prediction by ZEFSAII (Michael W. Deem and Ramdas Pophale) SiO2 
 PCOD9260106
Probable space group: C 2/C
;
_chemical_formula_sum "Si O2"
_cell_formula_units_Z 60
_cell_length_a 27.482166
_cell_length_b 21.136644
_cell_length_c 13.979242
_cell_angle_alpha 90.000000
_cell_angle_beta 157.409777
_cell_angle_gamma 90.000000
_cell_volume 3119.303527
_symmetry_space_group_name_H-M "C 2/C"
_symmetry_group_IT_number 15
_symmetry_cell_setting 'monoclinic'
loop_
_space_group_symop_operation_xyz
x,y,z
-x,y,1/2-z
-x,-y,-z
x,-y,1/2+z
1/2+x,1/2+y,z
1/2-x,1/2+y,1/2-z
1/2-x,1/2-y,-z
1/2+x,1/2-y,1/2+z
loop_
_atom_site_type_symbol
_atom_site_label
_atom_site_fract_x
_atom_site_fract_y
_atom_site_fract_z
Si Si1 0.000000 0.971090 0.250000
Si Si2 0.888852 0.174233 0.207720
Si Si3 0.945154 0.738356 0.254841
Si Si4 0.531326 0.067909 0.515208
Si Si5 0.404924 0.806898 0.290854
Si Si6 0.202965 0.919687 0.112035
Si Si7 0.939774 0.878887 0.311659
Si Si8 0.291775 0.119420 0.982177
O O1 0.005240 0.927846 0.164764
O O2 0.121459 0.016768 0.470812
O O3 0.938639 0.246495 0.286311
O O4 0.969924 0.137301 0.434357
O O5 0.745233 0.182022 0.986267
O O6 0.876055 0.133036 0.089568
O O7 0.917938 0.811943 0.219418
O O8 0.000000 0.725614 0.250000
O O9 0.051275 0.718107 0.524912
O O10 0.823408 0.693967 0.048861
O O11 0.530797 0.124034 0.594617
O O12 0.668330 0.069549 0.714193
O O13 0.500000 0.000000 0.500000
O O14 0.424847 0.085892 0.244545
O O15 0.238712 0.895629 0.281858
O O16 0.808395 0.901209 0.119621
#
# Coordination Sequence:
#
# PCOD9260106 Si02
#       8
#     4   8   8   8   8   8   8   8
#     4  12  26  42  56  88 128 160 208 250 322 382
#     4   9  18  36  57  85 115 154 203 244 301 350
#     4  10  18  36  62  89 119 153 201 253 309 362
#     4  10  20  37  61  90 120 160 200 250 312 369
#     4   8  17  32  58  87 116 151 198 248 295 358
#     4  11  23  38  60  87 120 162 204 248 295 375
#     4  11  23  38  59  87 122 161 195 259 312 373
#     4  11  22  38  62  90 118 158 209 253 305 369
#
# _framework density 19.235063
#
# number of rings (size 3 to 8) (size 9 to 14) (size 15 to 20)
#    0.000    1.867    0.667    4.800    0.000    4.267 
#    0.000    0.000    0.000    0.000    6.933    0.000 
#    0.000    0.000    0.000    0.000    0.000    0.000 
#
# Total GULP energy -167420.631049 kJ/mol
# GULP energy per Si atom -5580.687702 kJ/mol
# Density = 1.919128 g / cm^3
# Si number density = 19.235063 Si / 1000 Ang^3
#
#
#
# Elastic Constant Matrix: (Units=GPa)
#
#
# Indices 1 2 3 4 5 6 
#
# 1 78.3191 52.3169 32.5768 0.0000 8.6620 0.0000
# 2 52.3169 157.2761 55.2237 0.0000 -10.6539 0.0000
# 3 32.5768 55.2237 87.6524 0.0000 -3.8971 0.0000
# 4 0.0000 0.0000 0.0000 22.9234 0.0000 10.2420
# 5 8.6620 -10.6539 -3.8971 0.0000 22.9398 0.0000
# 6 0.0000 0.0000 0.0000 10.2420 0.0000 25.4185
#
#
#
# Elastic Compliance Matrix: (Units=1/GPa)
#
#
# Indices 1 2 3 4 5 6 
#
# 1 0.019524 -0.005788 -0.004088 0.000000 -0.010755 0.000000
# 2 -0.005788 0.010082 -0.003925 0.000000 0.006201 0.000000
# 3 -0.004088 -0.003925 0.015506 0.000000 0.002355 0.000000
# 4 0.000000 0.000000 0.000000 0.053201 0.000000 -0.021437
# 5 -0.010755 0.006201 0.002355 0.000000 0.050933 0.000000
# 6 0.000000 0.000000 0.000000 -0.021437 0.000000 0.047979
#
#
# Mechanical properties :
#
#
# Convention : Reuss Voigt Hill
#
# Bulk Modulus (GPa) = 57.11026 67.05361 62.08194
# Shear Modulus (GPa) = 21.67655 26.46502 24.07078
#
# Velocity S-wave (km/s) = 3.36062 3.71330 3.54135
# Velocity P-wave (km/s) = 6.69429 7.30209 7.00479
#
# Compressibility (1/GPa) = 0.01750999
#
# Stress axis : x y z
#
# Youngs Moduli (GPa) = 51.21790 99.18916 64.49246
#
# Poissons Ratio (x) = 0.57408 0.26365
# Poissons Ratio (y) = 0.29644 0.25314
# Poissons Ratio (z) = 0.20939 0.38932
#
# Static dielectric constant tensor:
#      x y z
#    x 1.646420 0.000000 0.016750 
#    y 0.000000 1.705190 0.000000 
#    z 0.016750 0.000000 1.672930 
# 
# From -- ./inp_files/183093.got.cif
#   From: 2010.05.17/outbox.cif.g08.bks.cpg/sg15_92_cif.got.tgz:183093.got - 2010.06.03 18:47:42.
