data_PCOD9261041
_publ_section_title
;
Structure prediction by ZEFSAII (Michael W. Deem and Ramdas Pophale) SiO2 
 PCOD9261041
Probable space group: C 2/C
;
_chemical_formula_sum "Si O2"
_cell_formula_units_Z 48
_cell_length_a 8.747858
_cell_length_b 11.662308
_cell_length_c 22.789797
_cell_angle_alpha 90.000000
_cell_angle_beta 113.467906
_cell_angle_gamma 90.000000
_cell_volume 2132.701967
_symmetry_space_group_name_H-M "C 2/C"
_symmetry_group_IT_number 15
_symmetry_cell_setting 'monoclinic'
loop_
_space_group_symop_operation_xyz
x,y,z
-x,y,1/2-z
-x,-y,-z
x,-y,1/2+z
1/2+x,1/2+y,z
1/2-x,1/2+y,1/2-z
1/2-x,1/2-y,-z
1/2+x,1/2-y,1/2+z
loop_
_atom_site_type_symbol
_atom_site_label
_atom_site_fract_x
_atom_site_fract_y
_atom_site_fract_z
Si Si1 0.500000 0.514766 0.250000
Si Si2 0.021358 0.604003 0.457156
Si Si3 0.000000 0.590501 0.250000
Si Si4 0.817506 0.028085 0.948334
Si Si5 0.950783 0.290046 0.059547
Si Si6 0.348790 0.604191 0.343946
Si Si7 0.843200 0.480115 0.339216
O O1 0.422229 0.586896 0.290809
O O2 0.652845 0.448432 0.301537
O O3 0.193352 0.574442 0.451193
O O4 0.007904 0.707676 0.500097
O O5 0.000000 0.500000 0.500000
O O6 0.875942 0.589956 0.386898
O O7 0.160954 0.652646 0.303820
O O8 0.076470 0.512098 0.210345
O O9 0.229594 0.646034 0.958737
O O10 0.822107 0.012091 0.878464
O O11 0.000000 0.000000 0.000000
O O12 0.010939 0.173465 0.098619
O O13 0.062742 0.379066 0.114226
#
# Coordination Sequence:
#
# PCOD9261041 Si02
#       7
#     4   8   4   8   8   8   8
#     4  10  24  36  60  88 124 160 200 258 304 374
#     4   8  17  36  59  83 116 155 196 251 306 365
#     4  10  18  40  60  80 120 172 198 248 322 376
#     4  10  21  39  62  90 124 159 205 259 323 370
#     4  10  22  39  63  89 119 161 207 259 310 381
#     4  11  23  40  62  93 124 161 212 258 314 370
#     4   9  18  38  59  80 117 164 199 248 313 372
#
# _framework density 22.506661999999999
#
# number of rings (size 3 to 8) (size 9 to 14) (size 15 to 20)
#    0.000    2.667    3.333    0.000    7.000    2.667 
#    0.000    1.667    0.000    0.000    0.000    0.000 
#    0.000    0.000    0.000    0.000    0.000    0.000 
#
# Total GULP energy -133629.300080 kJ/mol
# GULP energy per Si atom -5567.887503 kJ/mol
# Density = 2.245544 g / cm^3
# Si number density = 22.506662 Si / 1000 Ang^3
#
#
#
# Elastic Constant Matrix: (Units=GPa)
#
#
# Indices 1 2 3 4 5 6 
#
# 1 136.6982 12.5797 43.7373 0.0000 20.2869 0.0000
# 2 12.5797 32.4573 -3.4625 0.0000 -7.0403 0.0000
# 3 43.7373 -3.4625 107.0712 0.0000 -6.0036 0.0000
# 4 0.0000 0.0000 0.0000 21.7344 0.0000 10.8443
# 5 20.2869 -7.0403 -6.0036 0.0000 60.5771 0.0000
# 6 0.0000 0.0000 0.0000 10.8443 0.0000 26.0907
#
#
#
# Elastic Compliance Matrix: (Units=1/GPa)
#
#
# Indices 1 2 3 4 5 6 
#
# 1 0.009866 -0.005242 -0.004444 0.000000 -0.004354 0.000000
# 2 -0.005242 0.034555 0.003602 0.000000 0.006129 0.000000
# 3 -0.004444 0.003602 0.011442 0.000000 0.003041 0.000000
# 4 0.000000 0.000000 0.000000 0.058048 0.000000 -0.024127
# 5 -0.004354 0.006129 0.003041 0.000000 0.018979 0.000000
# 6 0.000000 0.000000 0.000000 -0.024127 0.000000 0.048356
#
#
# Mechanical properties :
#
#
# Convention : Reuss Voigt Hill
#
# Bulk Modulus (GPa) = 22.88547 42.43729 32.66138
# Shear Modulus (GPa) = 24.04103 36.57194 30.30649
#
# Velocity S-wave (km/s) = 3.27184 4.03543 3.67353
# Velocity P-wave (km/s) = 4.94607 6.37254 5.70407
#
# Compressibility (1/GPa) = 0.04369585
#
# Stress axis : x y z
#
# Youngs Moduli (GPa) = 101.36183 28.93935 87.39929
#
# Poissons Ratio (x) = 0.15170 0.38837
# Poissons Ratio (y) = 0.53134 -0.31485
# Poissons Ratio (z) = 0.45041 -0.10425
#
# Static dielectric constant tensor:
#      x y z
#    x 1.877990 0.000000 0.043540 
#    y 0.000000 1.946450 0.000000 
#    z 0.043540 0.000000 1.891590 
# 
# From -- ./inp_files/263994.got.cif
#   From: 2010.05.17/outbox.cif.g08.bks.cpg/sg15_132_cif.got.tgz:263994.got - 2010.06.03 18:47:42.
