data_PCOD9261545
_publ_section_title
;
Structure prediction by ZEFSAII (Michael W. Deem and Ramdas Pophale) SiO2 
 PCOD9261545
Probable space group: C 2/C
;
_chemical_formula_sum "Si O2"
_cell_formula_units_Z 56
_cell_length_a 14.041733
_cell_length_b 26.914042
_cell_length_c 8.239767
_cell_angle_alpha 90.000000
_cell_angle_beta 138.156622
_cell_angle_gamma 90.000000
_cell_volume 2077.319706
_symmetry_space_group_name_H-M "C 2/C"
_symmetry_group_IT_number 15
_symmetry_cell_setting 'monoclinic'
loop_
_space_group_symop_operation_xyz
x,y,z
-x,y,1/2-z
-x,-y,-z
x,-y,1/2+z
1/2+x,1/2+y,z
1/2-x,1/2+y,1/2-z
1/2-x,1/2-y,-z
1/2+x,1/2-y,1/2+z
loop_
_atom_site_type_symbol
_atom_site_label
_atom_site_fract_x
_atom_site_fract_y
_atom_site_fract_z
Si Si1 0.572152 0.450983 0.666584
Si Si2 0.627645 0.211268 0.281376
Si Si3 0.338147 0.602184 0.709783
Si Si4 0.274987 0.308418 0.553324
Si Si5 0.093185 0.595023 0.202616
Si Si6 0.664184 0.910032 0.329227
Si Si7 0.448209 0.304792 0.453829
O O1 0.500000 0.444069 0.750000
O O2 0.500000 0.500000 0.500000
O O3 0.499986 0.412001 0.453339
O O4 0.738278 0.442344 0.922467
O O5 0.500000 0.213763 0.250000
O O6 0.750000 0.250000 0.500000
O O7 0.622475 0.154026 0.221535
O O8 0.569574 0.245688 0.063091
O O9 0.249682 0.575458 0.454692
O O10 0.356626 0.661746 0.712673
O O11 0.248155 0.590736 0.760706
O O12 0.250000 0.250000 0.500000
O O13 0.164138 0.353391 0.398004
O O14 0.374277 0.321797 0.525139
O O15 0.383009 0.313546 0.841287
O O16 0.995606 0.575571 0.931646
O O17 0.000000 0.589698 0.250000
#
# Coordination Sequence:
#
# PCOD9261545 Si02
#       7
#     8   8   8   8   8   8   8
#     4  10  20  37  62  86 111 143 194 253 313 373
#     4  11  22  33  51  80 120 163 208 255 300 357
#     4   9  16  32  53  78 109 145 190 243 290 358
#     4  10  19  30  52  75 108 149 197 246 286 350
#     4   9  17  30  52  79 112 151 195 240 286 353
#     4   9  17  31  54  82 109 146 192 244 294 357
#     4  10  19  32  48  75 108 150 202 240 287 344
#
# _framework density 26.957816000000001
#
# number of rings (size 3 to 8) (size 9 to 14) (size 15 to 20)
#    0.000    2.286    2.857    0.857    4.000    0.000 
#    0.000    1.429    3.143    0.000    0.000    0.000 
#    0.000    0.000    0.000    0.000    0.000    0.000 
#
# Total GULP energy -155926.648543 kJ/mol
# GULP energy per Si atom -5568.808877 kJ/mol
# Density = 2.689646 g / cm^3
# Si number density = 26.957816 Si / 1000 Ang^3
#
#
#
# Elastic Constant Matrix: (Units=GPa)
#
#
# Indices 1 2 3 4 5 6 
#
# 1 101.1115 -18.7164 20.9873 0.0000 9.3907 0.0000
# 2 -18.7164 72.4106 32.0631 0.0000 5.3037 0.0000
# 3 20.9873 32.0631 232.5984 0.0000 20.9418 0.0000
# 4 0.0000 0.0000 0.0000 29.0188 0.0000 -4.4536
# 5 9.3907 5.3037 20.9418 0.0000 32.1779 0.0000
# 6 0.0000 0.0000 0.0000 -4.4536 0.0000 8.2296
#
#
#
# Elastic Compliance Matrix: (Units=1/GPa)
#
#
# Indices 1 2 3 4 5 6 
#
# 1 0.011101 0.003636 -0.001229 0.000000 -0.003039 0.000000
# 2 0.003636 0.015941 -0.002330 0.000000 -0.002172 0.000000
# 3 -0.001229 -0.002330 0.004955 0.000000 -0.002482 0.000000
# 4 0.000000 0.000000 0.000000 0.037582 0.000000 0.020338
# 5 -0.003039 -0.002172 -0.002482 0.000000 0.033937 0.000000
# 6 0.000000 0.000000 0.000000 0.020338 0.000000 0.132519
#
#
# Mechanical properties :
#
#
# Convention : Reuss Voigt Hill
#
# Bulk Modulus (GPa) = 31.10419 52.75428 41.92924
# Shear Modulus (GPa) = 20.27601 38.67103 29.47352
#
# Velocity S-wave (km/s) = 2.74549 3.79159 3.31013
# Velocity P-wave (km/s) = 4.64902 6.22735 5.49515
#
# Compressibility (1/GPa) = 0.03215001
#
# Stress axis : x y z
#
# Youngs Moduli (GPa) = 90.08588 62.73228 201.82478
#
# Poissons Ratio (x) = -0.22810 0.24809
# Poissons Ratio (y) = -0.32756 0.47023
# Poissons Ratio (z) = 0.11074 0.14616
#
# Static dielectric constant tensor:
#      x y z
#    x 2.112620 0.000000 0.016910 
#    y 0.000000 2.339660 0.000000 
#    z 0.016910 0.000000 2.258060 
# 
# From -- ./inp_files/44613.got.cif
#   From: 2010.05.17/outbox.cif.g08.bks.cpg/sg15_23_cif.got.tgz:44613.got - 2010.06.03 18:47:42.
