data_PCOD9261088
_publ_section_title
;
Structure prediction by ZEFSAII (Michael W. Deem and Ramdas Pophale) SiO2 
 PCOD9261088
Probable space group: C 2/C
;
_chemical_formula_sum "Si O2"
_cell_formula_units_Z 60
_cell_length_a 12.533905
_cell_length_b 6.924370
_cell_length_c 28.097106
_cell_angle_alpha 90.000000
_cell_angle_beta 101.517289
_cell_angle_gamma 90.000000
_cell_volume 2389.429816
_symmetry_space_group_name_H-M "C 2/C"
_symmetry_group_IT_number 15
_symmetry_cell_setting 'monoclinic'
loop_
_space_group_symop_operation_xyz
x,y,z
-x,y,1/2-z
-x,-y,-z
x,-y,1/2+z
1/2+x,1/2+y,z
1/2-x,1/2+y,1/2-z
1/2-x,1/2-y,-z
1/2+x,1/2-y,1/2+z
loop_
_atom_site_type_symbol
_atom_site_label
_atom_site_fract_x
_atom_site_fract_y
_atom_site_fract_z
Si Si1 0.050697 0.240197 0.804737
Si Si2 0.274269 0.261512 0.628107
Si Si3 0.750000 0.250000 0.500000
Si Si4 0.994292 0.778575 0.694796
Si Si5 0.042597 0.240626 0.605195
Si Si6 0.207106 0.320050 0.153440
Si Si7 0.078680 0.370390 0.050378
Si Si8 0.386274 0.421197 0.546541
O O1 0.025131 0.009957 0.807309
O O2 0.992696 0.319835 0.846503
O O3 0.000000 0.299878 0.750000
O O4 0.179939 0.273799 0.820005
O O5 0.386767 0.191054 0.660552
O O6 0.162366 0.144222 0.618786
O O7 0.238188 0.452370 0.654563
O O8 0.305332 0.325443 0.577558
O O9 0.855202 0.374948 0.492046
O O10 0.677296 0.453558 0.497592
O O11 0.000000 0.720814 0.750000
O O12 0.105373 0.731246 0.677371
O O13 0.051551 0.422060 0.570587
O O14 0.953097 0.086284 0.581536
O O15 0.168946 0.284258 0.095676
O O16 0.973986 0.234690 0.038322
#
# Coordination Sequence:
#
# PCOD9261088 Si02
#       8
#     8   8   4   8   8   8   8   8
#     4  10  21  38  61 100 136 178 229 279 331 394
#     4  10  21  41  63  94 138 173 226 276 329 407
#     4  12  24  48  72 100 142 170 220 310 328 408
#     4  10  20  37  66  96 134 182 227 277 334 392
#     4  11  22  45  72  96 137 188 222 277 346 411
#     4  10  18  40  63  89 136 175 216 285 326 390
#     4  11  24  44  71  98 136 177 230 276 349 416
#     4  12  23  49  68 101 137 178 219 288 351 405
#
# _framework density 25.110592
#
# number of rings (size 3 to 8) (size 9 to 14) (size 15 to 20)
#    0.000    1.333    6.667    0.400    1.867    0.533 
#    7.200    4.000    0.000    0.000    0.000    0.000 
#    0.000    0.000    0.000    0.000    0.000    0.000 
#
# Total GULP energy -167461.257125 kJ/mol
# GULP energy per Si atom -5582.041904 kJ/mol
# Density = 2.505344 g / cm^3
# Si number density = 25.110592 Si / 1000 Ang^3
#
#
#
# Elastic Constant Matrix: (Units=GPa)
#
#
# Indices 1 2 3 4 5 6 
#
# 1 222.4478 34.8991 60.8763 0.0000 4.8180 0.0000
# 2 34.8991 95.3008 12.2482 0.0000 8.5471 0.0000
# 3 60.8763 12.2482 82.2736 0.0000 18.7875 0.0000
# 4 0.0000 0.0000 0.0000 -17.8293 0.0000 -14.2584
# 5 4.8180 8.5471 18.7875 0.0000 26.8881 0.0000
# 6 0.0000 0.0000 0.0000 -14.2584 0.0000 36.8912
#
#
#
# Elastic Compliance Matrix: (Units=1/GPa)
#
#
# Indices 1 2 3 4 5 6 
#
# 1 0.006055 -0.001852 -0.004868 0.000000 0.002905 0.000000
# 2 -0.001852 0.011435 0.000503 0.000000 -0.003654 0.000000
# 3 -0.004868 0.000503 0.018465 0.000000 -0.012190 0.000000
# 4 0.000000 0.000000 0.000000 -0.042845 0.000000 -0.016559
# 5 0.002905 -0.003654 -0.012190 0.000000 0.046349 0.000000
# 6 0.000000 0.000000 0.000000 -0.016559 0.000000 0.020707
#
#
# Mechanical properties :
#
#
# Convention : Reuss Voigt Hill
#
# Bulk Modulus (GPa) = 42.51744 68.45216 55.48480
# Shear Modulus (GPa) = 62.15627 28.65657 45.40642
#
# Velocity S-wave (km/s) = 4.98064 3.38185 4.25697
# Velocity P-wave (km/s) = 7.07421 6.52447 6.80489
#
# Compressibility (1/GPa) = 0.02351976
#
# Stress axis : x y z
#
# Youngs Moduli (GPa) = 165.14213 87.45428 54.15525
#
# Poissons Ratio (x) = 0.16200 0.26364
# Poissons Ratio (y) = 0.30591 -0.02723
# Poissons Ratio (z) = 0.80395 -0.04397
#
# Static dielectric constant tensor:
#      x y z
#    x 2.051040 0.000000 0.231910 
#    y 0.000000 2.114230 0.000000 
#    z 0.231910 0.000000 2.380980 
# 
# From -- ./inp_files/310015.got.cif
#   From: 2010.05.17/outbox.cif.g08.bks.cpg/sg15_156_cif.got.tgz:310015.got - 2010.06.03 18:47:42.
