data_PCOD9261756
_publ_section_title
;
Structure prediction by ZEFSAII (Michael W. Deem and Ramdas Pophale) SiO2 
 PCOD9261756
Probable space group: C 2/C
;
_chemical_formula_sum "Si O2"
_cell_formula_units_Z 48
_cell_length_a 20.126364
_cell_length_b 18.986358
_cell_length_c 9.144106
_cell_angle_alpha 90.000000
_cell_angle_beta 28.771173
_cell_angle_gamma 90.000000
_cell_volume 1681.804770
_symmetry_space_group_name_H-M "C 2/C"
_symmetry_group_IT_number 15
_symmetry_cell_setting 'monoclinic'
loop_
_space_group_symop_operation_xyz
x,y,z
-x,y,1/2-z
-x,-y,-z
x,-y,1/2+z
1/2+x,1/2+y,z
1/2-x,1/2+y,1/2-z
1/2-x,1/2-y,-z
1/2+x,1/2-y,1/2+z
loop_
_atom_site_type_symbol
_atom_site_label
_atom_site_fract_x
_atom_site_fract_y
_atom_site_fract_z
Si Si1 0.293884 0.888667 0.161449
Si Si2 0.495167 0.141953 0.510286
Si Si3 0.839877 0.235717 0.678281
Si Si4 0.460433 0.570309 0.651831
Si Si5 0.685540 0.053248 0.313611
Si Si6 0.358684 0.326319 0.620280
O O1 0.158546 0.845845 0.372449
O O2 0.296191 0.973437 0.171812
O O3 0.403884 0.865746 0.824864
O O4 0.349014 0.863510 0.214173
O O5 0.531013 0.213380 0.530646
O O6 0.539251 0.076290 0.528412
O O7 0.750000 0.250000 0.000000
O O8 0.744578 0.265844 0.729420
O O9 0.500000 0.562018 0.750000
O O10 0.500000 0.500000 0.500000
O O11 0.449861 0.637373 0.070417
O O12 0.296165 0.571295 0.971271
O O13 0.747564 0.109715 0.306271
O O14 0.500000 0.306863 0.250000
#
# Coordination Sequence:
#
# PCOD9261756 Si02
#       6
#     8   8   8   8   8   8
#     4  10  19  31  52  81 113 145 191 233 292 342
#     4   9  19  32  49  79 112 151 185 237 289 339
#     4   9  18  31  50  77 114 148 191 242 283 338
#     4   9  19  34  55  83 113 150 190 236 294 346
#     4   9  18  32  51  77 114 141 189 235 289 339
#     4   8  17  31  50  76 109 146 181 237 292 331
#
# _framework density 28.540766999999999
#
# number of rings (size 3 to 8) (size 9 to 14) (size 15 to 20)
#    0.000    3.333    0.000    0.500    9.333    0.000 
#    0.000    0.000    0.000    1.000    0.000    0.000 
#    0.000    0.000    0.000    0.000    0.000    0.000 
#
# Total GULP energy -133674.321066 kJ/mol
# GULP energy per Si atom -5569.763378 kJ/mol
# Density = 2.847581 g / cm^3
# Si number density = 28.540767 Si / 1000 Ang^3
#
#
#
# Elastic Constant Matrix: (Units=GPa)
#
#
# Indices 1 2 3 4 5 6 
#
# 1 171.7388 89.0439 42.2022 0.0001 -27.0706 -0.0001
# 2 89.0439 212.4174 7.6460 0.0001 -9.5546 -0.0001
# 3 42.2022 7.6460 98.8740 0.0001 -4.5876 0.0000
# 4 0.0001 0.0001 0.0001 5.7016 0.0000 4.3326
# 5 -27.0706 -9.5546 -4.5876 0.0000 46.9693 0.0001
# 6 -0.0001 -0.0001 0.0000 4.3326 0.0001 50.4359
#
#
#
# Elastic Compliance Matrix: (Units=1/GPa)
#
#
# Indices 1 2 3 4 5 6 
#
# 1 0.009164 -0.003527 -0.003443 0.000000 0.004228 0.000000
# 2 -0.003527 0.006119 0.001000 0.000000 -0.000691 0.000000
# 3 -0.003443 0.001000 0.011475 0.000000 -0.000660 0.000000
# 4 0.000000 0.000000 0.000000 0.187639 0.000000 -0.016119
# 5 0.004228 -0.000691 -0.000660 0.000000 0.023522 0.000000
# 6 0.000000 0.000000 0.000000 -0.016119 0.000000 0.021212
#
#
# Mechanical properties :
#
#
# Convention : Reuss Voigt Hill
#
# Bulk Modulus (GPa) = 67.47887 84.53494 76.00690
# Shear Modulus (GPa) = 18.11524 43.56389 30.83957
#
# Velocity S-wave (km/s) = 2.52209 3.91112 3.29073
# Velocity P-wave (km/s) = 5.67235 7.07666 6.41306
#
# Compressibility (1/GPa) = 0.01481945
#
# Stress axis : x y z
#
# Youngs Moduli (GPa) = 109.12143 163.41673 87.14375
#
# Poissons Ratio (x) = 0.57644 0.30000
# Poissons Ratio (y) = 0.38492 -0.08718
# Poissons Ratio (z) = 0.37566 -0.16348
#
# Static dielectric constant tensor:
#      x y z
#    x 2.314530 0.000000 0.109610 
#    y 0.000000 2.331030 0.000000 
#    z 0.109610 0.000000 2.844960 
# 
# From -- ./inp_files/119685.got.cif
#   From: 2010.05.17/outbox.cif.g08.bks.cpg/sg15_60_cif.got.tgz:119685.got - 2010.06.03 18:47:42.
