data_PCOD9261840
_publ_section_title
;
Structure prediction by ZEFSAII (Michael W. Deem and Ramdas Pophale) SiO2 
 PCOD9261840
Probable space group: C 2/C
;
_chemical_formula_sum "Si O2"
_cell_formula_units_Z 32
_cell_length_a 10.078812
_cell_length_b 28.909699
_cell_length_c 12.255382
_cell_angle_alpha 90.000000
_cell_angle_beta 155.112724
_cell_angle_gamma 90.000000
_cell_volume 1502.764647
_symmetry_space_group_name_H-M "C 2/C"
_symmetry_group_IT_number 15
_symmetry_cell_setting 'monoclinic'
loop_
_space_group_symop_operation_xyz
x,y,z
-x,y,1/2-z
-x,-y,-z
x,-y,1/2+z
1/2+x,1/2+y,z
1/2-x,1/2+y,1/2-z
1/2-x,1/2-y,-z
1/2+x,1/2-y,1/2+z
loop_
_atom_site_type_symbol
_atom_site_label
_atom_site_fract_x
_atom_site_fract_y
_atom_site_fract_z
Si Si1 0.217623 0.078300 0.103346
Si Si2 0.204518 0.779589 0.293888
Si Si3 0.910098 0.621178 0.936757
Si Si4 0.228250 0.964224 0.827571
O O1 0.500000 0.053016 0.250000
O O2 0.416150 0.118019 0.316255
O O3 0.076281 0.048677 0.097450
O O4 0.935584 0.098258 0.823043
O O5 0.467685 0.743751 0.531955
O O6 0.365394 0.826209 0.370281
O O7 0.000000 0.792144 0.250000
O O8 0.120335 0.585214 0.023634
O O9 0.000000 0.982089 0.750000
O O10 0.500000 0.000000 0.000000
#
# Coordination Sequence:
#
# PCOD9261840 Si02
#       4
#     8   8   8   8
#     4  10  21  38  65  91 127 169 213 258 318 376
#     4  10  19  31  56  92 129 163 209 263 317 371
#     4  10  22  39  62  91 136 167 215 258 327 373
#     4  10  26  44  67  97 129 171 216 266 320 388
#
# _framework density 21.294087000000001
#
# number of rings (size 3 to 8) (size 9 to 14) (size 15 to 20)
#    1.500    0.500    0.000    3.750    3.500    4.000 
#    0.000    0.000    0.000    1.500    0.000    0.000 
#    0.000    0.000    0.000    0.000    0.000    0.000 
#
# Total GULP energy -89158.788679 kJ/mol
# GULP energy per Si atom -5572.424292 kJ/mol
# Density = 2.124562 g / cm^3
# Si number density = 21.294087 Si / 1000 Ang^3
#
#
#
# Elastic Constant Matrix: (Units=GPa)
#
#
# Indices 1 2 3 4 5 6 
#
# 1 80.2150 13.8216 12.7387 0.0000 19.8310 0.0000
# 2 13.8216 105.9140 17.9804 0.0000 11.8482 0.0000
# 3 12.7387 17.9804 101.6120 0.0000 -5.8992 0.0000
# 4 0.0000 0.0000 0.0000 35.5279 0.0000 3.8243
# 5 19.8310 11.8482 -5.8992 0.0000 27.3222 0.0000
# 6 0.0000 0.0000 0.0000 3.8243 0.0000 16.8441
#
#
#
# Elastic Compliance Matrix: (Units=1/GPa)
#
#
# Indices 1 2 3 4 5 6 
#
# 1 0.015898 -0.000286 -0.002638 0.000000 -0.011984 0.000000
# 2 -0.000286 0.010360 -0.002072 0.000000 -0.004732 0.000000
# 3 -0.002638 -0.002072 0.010838 0.000000 0.005153 0.000000
# 4 0.000000 0.000000 0.000000 0.028852 0.000000 -0.006551
# 5 -0.011984 -0.004732 0.005153 0.000000 0.048464 0.000000
# 6 0.000000 0.000000 0.000000 -0.006551 0.000000 0.060855
#
#
# Mechanical properties :
#
#
# Convention : Reuss Voigt Hill
#
# Bulk Modulus (GPa) = 36.89646 41.86916 39.38281
# Shear Modulus (GPa) = 25.73429 32.15220 28.94324
#
# Velocity S-wave (km/s) = 3.48015 3.88997 3.69075
# Velocity P-wave (km/s) = 5.78906 6.31513 6.05781
#
# Compressibility (1/GPa) = 0.02710287
#
# Stress axis : x y z
#
# Youngs Moduli (GPa) = 62.90282 96.52389 92.26836
#
# Poissons Ratio (x) = 0.02762 0.24342
# Poissons Ratio (y) = 0.01800 0.19119
# Poissons Ratio (z) = 0.16595 0.20001
#
# Static dielectric constant tensor:
#      x y z
#    x 1.822510 0.000000 -0.003350 
#    y 0.000000 1.802440 0.000000 
#    z -0.003350 0.000000 1.777060 
# 
# From -- ./inp_files/148657.got.cif
#   From: 2010.05.17/outbox.cif.g08.bks.cpg/sg15_75_cif.got.tgz:148657.got - 2010.06.03 18:47:42.
