data_PCOD9261987
_publ_section_title
;
Structure prediction by ZEFSAII (Michael W. Deem and Ramdas Pophale) SiO2 
 PCOD9261987
Probable space group: C 2/C
;
_chemical_formula_sum "Si O2"
_cell_formula_units_Z 48
_cell_length_a 9.692512
_cell_length_b 12.676243
_cell_length_c 18.326047
_cell_angle_alpha 90.000000
_cell_angle_beta 53.791765
_cell_angle_gamma 90.000000
_cell_volume 1816.779344
_symmetry_space_group_name_H-M "C 2/C"
_symmetry_group_IT_number 15
_symmetry_cell_setting 'monoclinic'
loop_
_space_group_symop_operation_xyz
x,y,z
-x,y,1/2-z
-x,-y,-z
x,-y,1/2+z
1/2+x,1/2+y,z
1/2-x,1/2+y,1/2-z
1/2-x,1/2-y,-z
1/2+x,1/2-y,1/2+z
loop_
_atom_site_type_symbol
_atom_site_label
_atom_site_fract_x
_atom_site_fract_y
_atom_site_fract_z
Si Si1 0.768161 0.539189 0.299587
Si Si2 0.399969 0.160643 0.959543
Si Si3 0.680636 0.542241 0.475296
Si Si4 0.633018 0.121425 0.370333
Si Si5 0.922644 0.965524 0.344127
Si Si6 0.850772 0.304614 0.248590
O O1 0.755375 0.598341 0.380321
O O2 0.905160 0.564195 0.194322
O O3 0.577746 0.540697 0.323972
O O4 0.802618 0.415455 0.300047
O O5 0.304633 0.054046 0.961626
O O6 0.563982 0.182727 0.857154
O O7 0.250000 0.250000 0.000000
O O8 0.460818 0.149066 0.024808
O O9 0.500000 0.500000 0.500000
O O10 0.638274 0.596963 0.565487
O O11 0.695885 0.228972 0.313597
O O12 0.774656 0.041163 0.360231
O O13 0.000000 0.905267 0.250000
O O14 0.000000 0.254654 0.250000
#
# Coordination Sequence:
#
# PCOD9261987 Si02
#       6
#     8   8   8   8   8   8
#     4  10  19  32  51  78 111 142 180 222 273 328
#     4  11  21  32  54  83 112 138 179 228 278 317
#     4   9  17  28  47  76 104 139 173 215 265 323
#     4  10  21  37  57  80 110 148 178 230 275 319
#     4   8  16  30  51  74 101 137 179 218 265 314
#     4  12  21  34  54  83 113 140 182 229 271 323
#
# _framework density 26.420377999999999
#
# number of rings (size 3 to 8) (size 9 to 14) (size 15 to 20)
#    0.000    2.000    3.333    1.500    7.000    0.667 
#    0.000    0.000    0.000    3.000    0.000    5.833 
#    0.000    0.000    0.000    0.000    0.000    0.000 
#
# Total GULP energy -133799.318664 kJ/mol
# GULP energy per Si atom -5574.971611 kJ/mol
# Density = 2.636024 g / cm^3
# Si number density = 26.420378 Si / 1000 Ang^3
#
#
#
# Elastic Constant Matrix: (Units=GPa)
#
#
# Indices 1 2 3 4 5 6 
#
# 1 50.1272 -12.3024 67.5115 0.0000 -0.2303 0.0000
# 2 -12.3024 43.1969 4.9991 0.0000 0.0321 0.0000
# 3 67.5115 4.9991 257.4689 0.0000 72.4774 0.0000
# 4 0.0000 0.0000 0.0000 21.7982 0.0000 4.4694
# 5 -0.2303 0.0321 72.4774 0.0000 54.6506 0.0000
# 6 0.0000 0.0000 0.0000 4.4694 0.0000 9.5288
#
#
#
# Elastic Compliance Matrix: (Units=1/GPa)
#
#
# Indices 1 2 3 4 5 6 
#
# 1 0.059473 0.019876 -0.025608 0.000000 0.034200 0.000000
# 2 0.019876 0.029874 -0.009272 0.000000 0.012362 0.000000
# 3 -0.025608 -0.009272 0.017246 0.000000 -0.022974 0.000000
# 4 0.000000 0.000000 0.000000 0.050757 0.000000 -0.023807
# 5 0.034200 0.012362 -0.022974 0.000000 0.048902 0.000000
# 6 0.000000 0.000000 0.000000 -0.023807 0.000000 0.116111
#
#
# Mechanical properties :
#
#
# Convention : Reuss Voigt Hill
#
# Bulk Modulus (GPa) = 13.05723 52.35660 32.70691
# Shear Modulus (GPa) = 13.23107 36.56785 24.89946
#
# Velocity S-wave (km/s) = 2.24026 3.72436 3.07324
# Velocity P-wave (km/s) = 3.41241 6.19308 4.99994
#
# Compressibility (1/GPa) = 0.07658595
#
# Stress axis : x y z
#
# Youngs Moduli (GPa) = 16.81439 33.47359 57.98557
#
# Poissons Ratio (x) = -0.66532 1.48487
# Poissons Ratio (y) = -0.33420 0.53763
# Poissons Ratio (z) = 0.43058 0.31036
#
# Static dielectric constant tensor:
#      x y z
#    x 2.157450 0.000000 0.012230 
#    y 0.000000 2.106600 0.000000 
#    z 0.012230 0.000000 2.163900 
# 
# From -- ./inp_files/238251.got.cif
#   From: 2010.05.17/outbox.cif.g08.bks.cpg/sg15_120_cif.got.tgz:238251.got - 2010.06.03 18:47:42.
