data_PCOD9261315
_publ_section_title
;
Structure prediction by ZEFSAII (Michael W. Deem and Ramdas Pophale) SiO2 
 PCOD9261315
Probable space group: C 2/C
;
_chemical_formula_sum "Si O2"
_cell_formula_units_Z 40
_cell_length_a 20.898021
_cell_length_b 9.829342
_cell_length_c 7.781228
_cell_angle_alpha 90.000000
_cell_angle_beta 64.684699
_cell_angle_gamma 90.000000
_cell_volume 1444.877382
_symmetry_space_group_name_H-M "C 2/C"
_symmetry_group_IT_number 15
_symmetry_cell_setting 'monoclinic'
loop_
_space_group_symop_operation_xyz
x,y,z
-x,y,1/2-z
-x,-y,-z
x,-y,1/2+z
1/2+x,1/2+y,z
1/2-x,1/2+y,1/2-z
1/2-x,1/2-y,-z
1/2+x,1/2-y,1/2+z
loop_
_atom_site_type_symbol
_atom_site_label
_atom_site_fract_x
_atom_site_fract_y
_atom_site_fract_z
Si Si1 0.630230 0.694138 0.648212
Si Si2 0.045817 0.366980 0.468084
Si Si3 0.941705 0.141216 0.433711
Si Si4 0.827718 0.336596 0.390170
Si Si5 0.249253 0.652682 0.219719
O O1 0.576311 0.788498 0.601024
O O2 0.679908 0.607790 0.459649
O O3 0.687814 0.794564 0.667182
O O4 0.594946 0.605274 0.840357
O O5 0.113469 0.413749 0.281619
O O6 0.000000 0.500000 0.500000
O O7 0.996003 0.256573 0.435737
O O8 0.876009 0.211161 0.408152
O O9 0.000000 0.057985 0.250000
O O10 0.789447 0.425250 0.580100
O O11 0.774274 0.280301 0.309299
#
# Coordination Sequence:
#
# PCOD9261315 Si02
#       5
#     8   8   8   8   8
#     4   9  16  26  42  57  73 106 150 202 237 265
#     4  10  19  28  38  58  90 124 152 185 229 283
#     4   9  17  26  36  55  82 111 142 180 227 281
#     4   8  15  27  41  55  74 105 148 204 240 261
#     4   8  14  27  43  56  68  93 152 217 240 254
#
# _framework density 27.684009
#
# number of rings (size 3 to 8) (size 9 to 14) (size 15 to 20)
#    0.000    3.200    0.000    0.600    0.000    4.800 
#    0.000    5.000    0.000    0.000    0.000    0.000 
#    0.000    0.000    0.000    0.000    0.000    0.000 
#
# Total GULP energy -111536.496534 kJ/mol
# GULP energy per Si atom -5576.824827 kJ/mol
# Density = 2.762100 g / cm^3
# Si number density = 27.684009 Si / 1000 Ang^3
#
#
#
# Elastic Constant Matrix: (Units=GPa)
#
#
# Indices 1 2 3 4 5 6 
#
# 1 230.0338 58.1243 39.7263 0.0000 23.5060 0.0000
# 2 58.1243 58.6450 17.7295 0.0000 13.9580 0.0000
# 3 39.7263 17.7295 244.9357 0.0000 -40.5422 0.0000
# 4 0.0000 0.0000 0.0000 -13.9307 0.0000 10.7855
# 5 23.5060 13.9580 -40.5422 0.0000 53.9678 0.0000
# 6 0.0000 0.0000 0.0000 10.7855 0.0000 47.5423
#
#
#
# Elastic Compliance Matrix: (Units=1/GPa)
#
#
# Indices 1 2 3 4 5 6 
#
# 1 0.006029 -0.005227 -0.000925 0.000000 -0.001969 0.000000
# 2 -0.005227 0.024016 -0.001761 0.000000 -0.005258 0.000000
# 3 -0.000925 -0.001761 0.005142 0.000000 0.004721 0.000000
# 4 0.000000 0.000000 0.000000 -0.061059 0.000000 0.013852
# 5 -0.001969 -0.005258 0.004721 0.000000 0.024294 0.000000
# 6 0.000000 0.000000 0.000000 0.013852 0.000000 0.017891
#
#
# Mechanical properties :
#
#
# Convention : Reuss Voigt Hill
#
# Bulk Modulus (GPa) = 51.65252 84.97495 68.31374
# Shear Modulus (GPa) = 129.55945 45.38485 87.47215
#
# Velocity S-wave (km/s) = 6.84843 4.05333 5.62719
# Velocity P-wave (km/s) = 9.01294 7.25722 8.18231
#
# Compressibility (1/GPa) = 0.01936014
#
# Stress axis : x y z
#
# Youngs Moduli (GPa) = 165.86559 41.63893 194.48773
#
# Poissons Ratio (x) = 0.21764 0.17999
# Poissons Ratio (y) = 0.86697 0.34247
# Poissons Ratio (z) = 0.15350 0.07332
#
# Static dielectric constant tensor:
#      x y z
#    x 2.068800 0.000000 -0.001050 
#    y 0.000000 2.158330 0.000000 
#    z -0.001050 0.000000 2.379210 
# 
# From -- ./inp_files/60464.got.cif
#   From: 2010.05.17/outbox.cif.g08.bks.cpg/sg15_31_cif.got.tgz:60464.got - 2010.06.03 18:47:42.
