data_PCOD9261551
_publ_section_title
;
Structure prediction by ZEFSAII (Michael W. Deem and Ramdas Pophale) SiO2 
 PCOD9261551
Probable space group: C 2/C
;
_chemical_formula_sum "Si O2"
_cell_formula_units_Z 48
_cell_length_a 28.655711
_cell_length_b 12.108887
_cell_length_c 23.207540
_cell_angle_alpha 90.000000
_cell_angle_beta 17.175285
_cell_angle_gamma 90.000000
_cell_volume 2377.946181
_symmetry_space_group_name_H-M "C 2/C"
_symmetry_group_IT_number 15
_symmetry_cell_setting 'monoclinic'
loop_
_space_group_symop_operation_xyz
x,y,z
-x,y,1/2-z
-x,-y,-z
x,-y,1/2+z
1/2+x,1/2+y,z
1/2-x,1/2+y,1/2-z
1/2-x,1/2-y,-z
1/2+x,1/2-y,1/2+z
loop_
_atom_site_type_symbol
_atom_site_label
_atom_site_fract_x
_atom_site_fract_y
_atom_site_fract_z
Si Si1 0.684213 0.973412 0.268379
Si Si2 0.475363 0.149549 0.213826
Si Si3 0.946164 0.175473 0.595340
Si Si4 0.282088 0.661686 0.067917
Si Si5 0.779305 0.504806 0.142244
Si Si6 0.216709 0.742541 0.327428
O O1 0.744370 0.987117 0.262030
O O2 0.725606 0.847667 0.204403
O O3 0.500000 0.000000 0.500000
O O4 0.762249 0.052430 0.129448
O O5 0.500000 0.109179 0.250000
O O6 0.295510 0.144893 0.403604
O O7 0.553848 0.272324 0.121724
O O8 0.580540 0.070897 0.048079
O O9 0.843732 0.255296 0.755299
O O10 0.883953 0.053059 0.685741
O O11 0.906681 0.216330 0.575856
O O12 0.127562 0.203271 0.391227
O O13 0.819166 0.634605 0.091558
#
# Coordination Sequence:
#
# PCOD9261551 Si02
#       6
#     8   8   8   8   8   8
#     4  11  18  31  56  85 115 146 176 227 299 331
#     4  11  24  40  60  81 111 156 192 233 270 328
#     4  10  19  30  52  80 116 145 174 226 284 337
#     4  11  20  37  60  84 113 144 190 233 281 335
#     4  10  20  32  53  83 115 146 185 231 277 337
#     4  11  19  32  49  82 122 143 178 220 288 349
#
# _framework density 20.185486999999998
#
# number of rings (size 3 to 8) (size 9 to 14) (size 15 to 20)
#    0.000    1.333    5.000    3.000    0.000    0.000 
#    3.000    0.000    0.000    2.000    0.000    0.000 
#    0.000    0.000    0.000    0.000    0.000    0.000 
#
# Total GULP energy -133687.000919 kJ/mol
# GULP energy per Si atom -5570.291705 kJ/mol
# Density = 2.013954 g / cm^3
# Si number density = 20.185487 Si / 1000 Ang^3
#
#
#
# Elastic Constant Matrix: (Units=GPa)
#
#
# Indices 1 2 3 4 5 6 
#
# 1 78.7159 35.0930 3.8724 -0.0010 1.0466 0.0004
# 2 35.0930 154.2672 14.6061 -0.0009 3.5787 0.0002
# 3 3.8724 14.6061 36.3888 -0.0013 -3.9024 0.0002
# 4 -0.0010 -0.0009 -0.0013 23.7597 0.0005 1.3461
# 5 1.0466 3.5787 -3.9024 0.0005 18.6670 -0.0001
# 6 0.0004 0.0002 0.0002 1.3461 -0.0001 19.6875
#
#
#
# Elastic Compliance Matrix: (Units=1/GPa)
#
#
# Indices 1 2 3 4 5 6 
#
# 1 0.014140 -0.003188 -0.000250 0.000000 -0.000234 0.000000
# 2 -0.003188 0.007523 -0.002881 0.000000 -0.001866 0.000000
# 3 -0.000250 -0.002881 0.029383 0.000001 0.006709 0.000000
# 4 0.000000 0.000000 0.000001 0.042252 -0.000001 -0.002889
# 5 -0.000234 -0.001866 0.006709 -0.000001 0.055344 0.000000
# 6 0.000000 0.000000 0.000000 -0.002889 0.000000 0.050991
#
#
# Mechanical properties :
#
#
# Convention : Reuss Voigt Hill
#
# Bulk Modulus (GPa) = 26.03495 41.83497 33.93496
# Shear Modulus (GPa) = 22.21484 26.80953 24.51219
#
# Velocity S-wave (km/s) = 3.32103 3.64834 3.48853
# Velocity P-wave (km/s) = 5.25657 6.20625 5.75104
#
# Compressibility (1/GPa) = 0.03840991
#
# Stress axis : x y z
#
# Youngs Moduli (GPa) = 70.71928 132.91863 34.03276
#
# Poissons Ratio (x) = 0.42368 0.00852
# Poissons Ratio (y) = 0.22542 0.09804
# Poissons Ratio (z) = 0.01771 0.38290
#
# Static dielectric constant tensor:
#      x y z
#    x 1.863180 0.000000 -0.104670 
#    y 0.000000 1.861930 0.000000 
#    z -0.104670 0.000000 1.770570 
# 
# From -- ./inp_files/110636.got.cif
#   From: 2010.05.17/outbox.cif.g08.bks.cpg/sg15_56_cif.got.tgz:110636.got - 2010.06.03 18:47:42.
