data_PCOD9261137
_publ_section_title
;
Structure prediction by ZEFSAII (Michael W. Deem and Ramdas Pophale) SiO2 
 PCOD9261137
Probable space group: C 2/C
;
_chemical_formula_sum "Si O2"
_cell_formula_units_Z 60
_cell_length_a 5.215979
_cell_length_b 18.459938
_cell_length_c 32.294212
_cell_angle_alpha 90.000000
_cell_angle_beta 107.563733
_cell_angle_gamma 90.000000
_cell_volume 2964.542312
_symmetry_space_group_name_H-M "C 2/C"
_symmetry_group_IT_number 15
_symmetry_cell_setting 'monoclinic'
loop_
_space_group_symop_operation_xyz
x,y,z
-x,y,1/2-z
-x,-y,-z
x,-y,1/2+z
1/2+x,1/2+y,z
1/2-x,1/2+y,1/2-z
1/2-x,1/2-y,-z
1/2+x,1/2-y,1/2+z
loop_
_atom_site_type_symbol
_atom_site_label
_atom_site_fract_x
_atom_site_fract_y
_atom_site_fract_z
Si Si1 0.727520 0.544611 0.488784
Si Si2 0.037619 0.191879 0.901184
Si Si3 0.031696 0.552383 0.206424
Si Si4 0.888803 0.342623 0.633280
Si Si5 0.152693 0.693485 0.960475
Si Si6 0.181487 0.081762 0.392227
Si Si7 0.000000 0.941384 0.250000
Si Si8 0.042901 0.945857 0.160686
O O1 0.500000 0.500000 0.500000
O O2 0.770866 0.616300 0.517303
O O3 0.647045 0.560839 0.438010
O O4 0.000000 0.500000 0.500000
O O5 0.061166 0.258058 0.869905
O O6 0.332832 0.192559 0.936728
O O7 0.813477 0.205769 0.925428
O O8 0.969222 0.116909 0.874165
O O9 0.261360 0.495534 0.227474
O O10 0.000000 0.587146 0.250000
O O11 0.065658 0.618458 0.177112
O O12 0.798808 0.499597 0.177310
O O13 0.579287 0.365531 0.627532
O O14 0.030407 0.379535 0.600069
O O15 0.250000 0.750000 0.000000
O O16 0.172188 0.007882 0.364033
O O17 0.035276 0.907399 0.206000
#
# Coordination Sequence:
#
# PCOD9261137 Si02
#       8
#     8   8   8   8   8   8   4   8
#     4  12  24  40  63  96 125 162 218 273 316 364
#     4  12  26  42  66  96 135 172 218 266 330 384
#     4   9  20  38  66  92 123 166 215 263 316 387
#     4  11  22  41  62  92 119 167 212 255 307 375
#     4  12  26  46  65  92 135 180 215 267 330 394
#     4  11  22  40  64  89 123 166 215 261 309 376
#     4  10  18  40  66  92 124 164 212 252 336 382
#     4  10  22  38  65  94 129 167 210 266 326 388
#
# _framework density 20.239211000000001
#
# number of rings (size 3 to 8) (size 9 to 14) (size 15 to 20)
#    0.000    1.067    1.333    6.000    1.867    1.067 
#    1.200    0.000    4.400    0.000    0.000    0.000 
#    0.000    0.000    0.000    0.000    0.000    0.000 
#
# Total GULP energy -167203.367045 kJ/mol
# GULP energy per Si atom -5573.445568 kJ/mol
# Density = 2.019315 g / cm^3
# Si number density = 20.239211 Si / 1000 Ang^3
#
#
#
# Elastic Constant Matrix: (Units=GPa)
#
#
# Indices 1 2 3 4 5 6 
#
# 1 68.7851 6.7399 -1.9072 0.0000 -2.9705 0.0000
# 2 6.7399 105.9635 13.2272 0.0000 -2.8490 0.0000
# 3 -1.9072 13.2272 66.6704 0.0000 -7.2013 0.0000
# 4 0.0000 0.0000 0.0000 49.3282 0.0000 -6.3685
# 5 -2.9705 -2.8490 -7.2013 0.0000 33.0492 0.0000
# 6 0.0000 0.0000 0.0000 -6.3685 0.0000 20.1611
#
#
#
# Elastic Compliance Matrix: (Units=1/GPa)
#
#
# Indices 1 2 3 4 5 6 
#
# 1 0.014717 -0.000994 0.000770 0.000000 0.001405 0.000000
# 2 -0.000994 0.009750 -0.001927 0.000000 0.000331 0.000000
# 3 0.000770 -0.001927 0.015764 0.000000 0.003338 0.000000
# 4 0.000000 0.000000 0.000000 0.021134 0.000000 0.006676
# 5 0.001405 0.000331 0.003338 0.000000 0.031140 0.000000
# 6 0.000000 0.000000 0.000000 0.006676 0.000000 0.051709
#
#
# Mechanical properties :
#
#
# Convention : Reuss Voigt Hill
#
# Bulk Modulus (GPa) = 27.83299 30.83765 29.33532
# Shear Modulus (GPa) = 31.15380 35.39832 33.27606
#
# Velocity S-wave (km/s) = 3.92762 4.18664 4.05920
# Velocity P-wave (km/s) = 5.86090 6.21613 6.04113
#
# Compressibility (1/GPa) = 0.03592859
#
# Stress axis : x y z
#
# Youngs Moduli (GPa) = 67.94636 102.56497 63.43545
#
# Poissons Ratio (x) = 0.10200 -0.04885
# Poissons Ratio (y) = 0.06757 0.12224
# Poissons Ratio (z) = -0.05232 0.19765
#
# Static dielectric constant tensor:
#      x y z
#    x 1.810200 0.000000 -0.120760 
#    y 0.000000 1.712140 0.000000 
#    z -0.120760 0.000000 1.568870 
# 
# From -- ./inp_files/286092.got.cif
#   From: 2010.05.17/outbox.cif.g08.bks.cpg/sg15_144_cif.got.tgz:286092.got - 2010.06.03 18:47:42.
