data_PCOD9261001
_publ_section_title
;
Structure prediction by ZEFSAII (Michael W. Deem and Ramdas Pophale) SiO2 
 PCOD9261001
Probable space group: C 2/C
;
_chemical_formula_sum "Si O2"
_cell_formula_units_Z 56
_cell_length_a 13.618544
_cell_length_b 13.455278
_cell_length_c 26.387303
_cell_angle_alpha 90.000000
_cell_angle_beta 32.495003
_cell_angle_gamma 90.000000
_cell_volume 2597.618816
_symmetry_space_group_name_H-M "C 2/C"
_symmetry_group_IT_number 15
_symmetry_cell_setting 'monoclinic'
loop_
_space_group_symop_operation_xyz
x,y,z
-x,y,1/2-z
-x,-y,-z
x,-y,1/2+z
1/2+x,1/2+y,z
1/2-x,1/2+y,1/2-z
1/2-x,1/2-y,-z
1/2+x,1/2-y,1/2+z
loop_
_atom_site_type_symbol
_atom_site_label
_atom_site_fract_x
_atom_site_fract_y
_atom_site_fract_z
Si Si1 0.000000 0.722337 0.750000
Si Si2 0.909866 0.949998 0.490670
Si Si3 0.375489 0.266459 0.138716
Si Si4 0.631932 0.578325 0.317727
Si Si5 0.478272 0.871746 0.842013
Si Si6 0.742308 0.901460 0.292849
Si Si7 0.567415 0.211410 0.606534
Si Si8 0.500000 0.288712 0.250000
O O1 0.197705 0.764481 0.683259
O O2 0.069192 0.678817 0.665116
O O3 0.692151 0.943894 0.585213
O O4 0.989027 0.838055 0.451146
O O5 0.000000 0.000000 0.500000
O O6 0.981599 0.017086 0.413380
O O7 0.477430 0.176039 0.122313
O O8 0.311584 0.340376 0.212607
O O9 0.687923 0.512767 0.244893
O O10 0.559798 0.688910 0.340890
O O11 0.827733 0.583844 0.261198
O O12 0.434946 0.780996 0.823721
O O13 0.528455 0.876789 0.383396
O O14 0.835736 0.854057 0.300526
O O15 0.750000 0.250000 0.500000
#
# Coordination Sequence:
#
# PCOD9261001 Si02
#       8
#     4   8   8   8   8   8   8   4
#     4  10  20  41  69  90 136 178 226 275 359 404
#     4  11  25  35  63 100 127 168 227 285 347 422
#     4   9  20  40  60  92 124 175 214 274 346 408
#     4  11  23  43  60  96 136 177 230 286 355 414
#     4  11  21  41  67  89 135 177 225 289 351 411
#     4   9  21  39  63  92 131 175 219 283 348 407
#     4  11  24  42  70  99 137 185 234 293 353 433
#     4  10  18  39  67  90 120 178 224 273 345 422
#
# _framework density 21.558205000000001
#
# number of rings (size 3 to 8) (size 9 to 14) (size 15 to 20)
#    0.000    1.714    4.286    1.286    4.000    2.857 
#    0.000    0.714    0.000    2.571    0.000    0.000 
#    0.000    0.000    0.000    0.000    0.000    0.000 
#
# Total GULP energy -155990.888591 kJ/mol
# GULP energy per Si atom -5571.103164 kJ/mol
# Density = 2.150914 g / cm^3
# Si number density = 21.558205 Si / 1000 Ang^3
#
#
#
# Elastic Constant Matrix: (Units=GPa)
#
#
# Indices 1 2 3 4 5 6 
#
# 1 139.3269 27.7586 33.4912 -0.0001 -16.2068 0.0000
# 2 27.7586 78.5258 26.6609 0.0000 -9.5196 0.0000
# 3 33.4912 26.6609 87.9318 0.0003 -21.6965 -0.0002
# 4 -0.0001 0.0000 0.0003 27.9867 0.0000 4.6767
# 5 -16.2068 -9.5196 -21.6965 0.0000 29.5989 0.0001
# 6 0.0000 0.0000 -0.0002 4.6767 0.0001 25.7457
#
#
#
# Elastic Compliance Matrix: (Units=1/GPa)
#
#
# Indices 1 2 3 4 5 6 
#
# 1 0.008332 -0.001978 -0.001959 0.000000 0.002490 0.000000
# 2 -0.001978 0.014738 -0.003434 0.000000 0.001140 0.000000
# 3 -0.001959 -0.003434 0.015410 0.000000 0.009118 0.000000
# 4 0.000000 0.000000 0.000000 0.036850 0.000000 -0.006694
# 5 0.002490 0.001140 0.009118 0.000000 0.042199 0.000000
# 6 0.000000 0.000000 0.000000 -0.006694 0.000000 0.040057
#
#
# Mechanical properties :
#
#
# Convention : Reuss Voigt Hill
#
# Bulk Modulus (GPa) = 42.12859 53.51176 47.82018
# Shear Modulus (GPa) = 27.74059 31.19116 29.46587
#
# Velocity S-wave (km/s) = 3.59106 3.80785 3.70104
# Velocity P-wave (km/s) = 6.06453 6.64898 6.36346
#
# Compressibility (1/GPa) = 0.02373685
#
# Stress axis : x y z
#
# Youngs Moduli (GPa) = 120.01763 67.85173 64.89398
#
# Poissons Ratio (x) = 0.13423 0.12715
# Poissons Ratio (y) = 0.23743 0.22284
# Poissons Ratio (z) = 0.23516 0.23299
#
# Static dielectric constant tensor:
#      x y z
#    x 1.869400 0.000000 -0.011180 
#    y 0.000000 1.869080 0.000000 
#    z -0.011180 0.000000 1.848480 
# 
# From -- ./inp_files/270391.got.cif
#   From: 2010.05.17/outbox.cif.g08.bks.cpg/sg15_136_cif.got.tgz:270391.got - 2010.06.03 18:47:42.
