data_PCOD9261763
_publ_section_title
;
Structure prediction by ZEFSAII (Michael W. Deem and Ramdas Pophale) SiO2 
 PCOD9261763
Probable space group: C 2/C
;
_chemical_formula_sum "Si O2"
_cell_formula_units_Z 56
_cell_length_a 24.810260
_cell_length_b 12.116692
_cell_length_c 12.224682
_cell_angle_alpha 90.000000
_cell_angle_beta 45.782002
_cell_angle_gamma 90.000000
_cell_volume 2633.814925
_symmetry_space_group_name_H-M "C 2/C"
_symmetry_group_IT_number 15
_symmetry_cell_setting 'monoclinic'
loop_
_space_group_symop_operation_xyz
x,y,z
-x,y,1/2-z
-x,-y,-z
x,-y,1/2+z
1/2+x,1/2+y,z
1/2-x,1/2+y,1/2-z
1/2-x,1/2-y,-z
1/2+x,1/2-y,1/2+z
loop_
_atom_site_type_symbol
_atom_site_label
_atom_site_fract_x
_atom_site_fract_y
_atom_site_fract_z
Si Si1 0.820272 0.679633 0.103700
Si Si2 0.189018 0.930552 0.339201
Si Si3 0.678487 0.000306 0.226056
Si Si4 0.949285 0.943367 0.420768
Si Si5 0.700181 0.432572 0.628166
Si Si6 0.457593 0.341211 0.642267
Si Si7 0.940802 0.604070 0.754609
O O1 0.827860 0.620193 0.210533
O O2 0.831915 0.807901 0.103016
O O3 0.741006 0.648714 0.157769
O O4 0.877905 0.635655 0.932293
O O5 0.278655 0.938951 0.234419
O O6 0.137639 0.021588 0.475181
O O7 0.173837 0.962213 0.235391
O O8 0.600266 0.958880 0.286489
O O9 0.739827 0.973177 0.045065
O O10 0.000000 0.900452 0.250000
O O11 0.986965 0.062174 0.397017
O O12 0.953003 0.860824 0.518259
O O13 0.625866 0.370121 0.694420
O O14 0.475315 0.217998 0.656856
O O15 0.000000 0.543099 0.750000
#
# Coordination Sequence:
#
# PCOD9261763 Si02
#       7
#     8   8   8   8   8   8   8
#     4  10  20  34  55  79 103 140 183 221 265 322
#     4  10  19  33  54  80 110 143 178 214 266 324
#     4  10  21  36  54  78 108 138 180 230 267 311
#     4  10  19  31  52  84 117 144 176 217 266 325
#     4   9  19  33  51  79 109 140 175 218 267 316
#     4  10  19  32  54  81 111 146 177 216 268 323
#     4  11  22  37  57  77 101 139 184 224 271 325
#
# _framework density 21.261932999999999
#
# number of rings (size 3 to 8) (size 9 to 14) (size 15 to 20)
#    0.000    2.000    0.000    4.714    0.000    3.429 
#    0.000    0.000    0.000   16.286    0.000    4.000 
#    0.000    0.000    0.000    0.000    0.000    0.000 
#
# Total GULP energy -156080.623491 kJ/mol
# GULP energy per Si atom -5574.307982 kJ/mol
# Density = 2.121354 g / cm^3
# Si number density = 21.261933 Si / 1000 Ang^3
#
#
#
# Elastic Constant Matrix: (Units=GPa)
#
#
# Indices 1 2 3 4 5 6 
#
# 1 103.1276 21.9352 1.3391 0.0000 -12.5464 0.0000
# 2 21.9352 32.1211 13.1303 0.0000 6.9015 0.0000
# 3 1.3391 13.1303 48.7703 0.0000 8.5786 0.0000
# 4 0.0000 0.0000 0.0000 23.6661 0.0000 4.2809
# 5 -12.5464 6.9015 8.5786 0.0000 37.4988 0.0000
# 6 0.0000 0.0000 0.0000 4.2809 0.0000 21.9751
#
#
#
# Elastic Compliance Matrix: (Units=1/GPa)
#
#
# Indices 1 2 3 4 5 6 
#
# 1 0.012607 -0.010448 0.001445 0.000000 0.005811 0.000000
# 2 -0.010448 0.044373 -0.010011 0.000000 -0.009372 0.000000
# 3 0.001445 -0.010011 0.023705 0.000000 -0.003097 0.000000
# 4 0.000000 0.000000 0.000000 0.043798 0.000000 -0.008532
# 5 0.005811 -0.009372 -0.003097 0.000000 0.031045 0.000000
# 6 0.000000 0.000000 0.000000 -0.008532 0.000000 0.047168
#
#
# Mechanical properties :
#
#
# Convention : Reuss Voigt Hill
#
# Bulk Modulus (GPa) = 23.44349 28.53647 25.98998
# Shear Modulus (GPa) = 19.61212 26.46896 23.04054
#
# Velocity S-wave (km/s) = 3.04041 3.53214 3.29546
# Velocity P-wave (km/s) = 4.83481 5.48500 5.17014
#
# Compressibility (1/GPa) = 0.04265576
#
# Stress axis : x y z
#
# Youngs Moduli (GPa) = 79.31943 22.53606 42.18579
#
# Poissons Ratio (x) = 0.23547 -0.06095
# Poissons Ratio (y) = 0.82876 0.42233
# Poissons Ratio (z) = -0.11460 0.22561
#
# Static dielectric constant tensor:
#      x y z
#    x 1.880130 0.000000 -0.009670 
#    y 0.000000 1.748150 0.000000 
#    z -0.009670 0.000000 1.839690 
# 
# From -- ./inp_files/178010.got.cif
#   From: 2010.05.17/outbox.cif.g08.bks.cpg/sg15_90_cif.got.tgz:178010.got - 2010.06.03 18:47:42.
