data_PCOD9261066
_publ_section_title
;
Structure prediction by ZEFSAII (Michael W. Deem and Ramdas Pophale) SiO2 
 PCOD9261066
Probable space group: C 2/C
;
_chemical_formula_sum "Si O2"
_cell_formula_units_Z 60
_cell_length_a 13.521394
_cell_length_b 16.979258
_cell_length_c 11.556554
_cell_angle_alpha 90.000000
_cell_angle_beta 106.833251
_cell_angle_gamma 90.000000
_cell_volume 2539.506086
_symmetry_space_group_name_H-M "C 2/C"
_symmetry_group_IT_number 15
_symmetry_cell_setting 'monoclinic'
loop_
_space_group_symop_operation_xyz
x,y,z
-x,y,1/2-z
-x,-y,-z
x,-y,1/2+z
1/2+x,1/2+y,z
1/2-x,1/2+y,1/2-z
1/2-x,1/2-y,-z
1/2+x,1/2-y,1/2+z
loop_
_atom_site_type_symbol
_atom_site_label
_atom_site_fract_x
_atom_site_fract_y
_atom_site_fract_z
Si Si1 0.632601 0.465412 0.107428
Si Si2 0.000000 0.878567 0.250000
Si Si3 0.908992 0.592860 0.993380
Si Si4 0.975468 0.887501 0.876733
Si Si5 0.528526 0.258053 0.445659
Si Si6 0.365860 0.073948 0.492437
Si Si7 0.784589 0.720994 0.383980
Si Si8 0.165415 0.635966 0.783511
O O1 0.572862 0.432302 0.198982
O O2 0.621884 0.558621 0.118222
O O3 0.740227 0.421735 0.150630
O O4 0.569918 0.432276 0.975374
O O5 0.942490 0.821410 0.141265
O O6 0.882488 0.605049 0.849905
O O7 0.030242 0.571880 0.049145
O O8 0.843816 0.517348 0.011743
O O9 0.904628 0.679567 0.046017
O O10 0.000000 0.883675 0.750000
O O11 0.963673 0.801849 0.929004
O O12 0.404215 0.241114 0.394770
O O13 0.282590 0.126335 0.395038
O O14 0.396948 0.124260 0.617886
O O15 0.750000 0.750000 0.500000
O O16 0.710291 0.775916 0.283244
#
# Coordination Sequence:
#
# PCOD9261066 Si02
#       8
#     8   4   8   8   8   8   8   8
#     4  10  21  37  58  91 129 164 203 255 324 383
#     4  10  18  40  62  84 126 178 200 248 330 394
#     4  10  22  42  60  93 123 163 220 259 316 382
#     4  10  20  35  61  90 119 166 210 251 312 386
#     4  10  21  40  62  90 123 173 210 256 321 391
#     4   9  21  41  62  86 125 167 207 262 317 381
#     4   9  18  36  63  88 119 155 205 264 321 363
#     4  11  20  39  62  92 124 158 208 269 315 368
#
# _framework density 23.626643000000001
#
# number of rings (size 3 to 8) (size 9 to 14) (size 15 to 20)
#    0.000    2.133    3.333    0.400    0.000    4.267 
#    9.600    0.667    0.000    0.000    0.000    0.000 
#    0.000    0.000    0.000    0.000    0.000    0.000 
#
# Total GULP energy -167391.176161 kJ/mol
# GULP energy per Si atom -5579.705872 kJ/mol
# Density = 2.357287 g / cm^3
# Si number density = 23.626643 Si / 1000 Ang^3
#
#
#
# Elastic Constant Matrix: (Units=GPa)
#
#
# Indices 1 2 3 4 5 6 
#
# 1 36.8986 16.4898 16.1110 0.0000 5.0064 0.0000
# 2 16.4898 147.0183 10.9078 0.0000 3.3638 0.0000
# 3 16.1110 10.9078 77.7959 0.0000 -2.9486 0.0000
# 4 0.0000 0.0000 0.0000 20.5469 0.0000 -1.4286
# 5 5.0064 3.3638 -2.9486 0.0000 22.9322 0.0000
# 6 0.0000 0.0000 0.0000 -1.4286 0.0000 18.7514
#
#
#
# Elastic Compliance Matrix: (Units=1/GPa)
#
#
# Indices 1 2 3 4 5 6 
#
# 1 0.032302 -0.002966 -0.006556 0.000000 -0.007460 0.000000
# 2 -0.002966 0.007175 -0.000409 0.000000 -0.000458 0.000000
# 3 -0.006556 -0.000409 0.014396 0.000000 0.003342 0.000000
# 4 0.000000 0.000000 0.000000 0.048928 0.000000 0.003728
# 5 -0.007460 -0.000458 0.003342 0.000000 0.045732 0.000000
# 6 0.000000 0.000000 0.000000 0.003728 0.000000 0.053613
#
#
# Mechanical properties :
#
#
# Convention : Reuss Voigt Hill
#
# Bulk Modulus (GPa) = 29.40300 38.74776 34.07538
# Shear Modulus (GPa) = 21.42738 26.99305 24.21021
#
# Velocity S-wave (km/s) = 3.01477 3.38373 3.20457
# Velocity P-wave (km/s) = 4.95886 5.63044 5.30529
#
# Compressibility (1/GPa) = 0.03401013
#
# Stress axis : x y z
#
# Youngs Moduli (GPa) = 30.95824 139.36575 69.46392
#
# Poissons Ratio (x) = 0.41334 0.45543
# Poissons Ratio (y) = 0.09182 0.02842
# Poissons Ratio (z) = 0.20297 0.05703
#
# Static dielectric constant tensor:
#      x y z
#    x 1.969020 0.000000 -0.045010 
#    y 0.000000 1.990760 0.000000 
#    z -0.045010 0.000000 1.921870 
# 
# From -- ./inp_files/98352.got.cif
#   From: 2010.05.17/outbox.cif.g08.bks.cpg/sg15_50_cif.got.tgz:98352.got - 2010.06.03 18:47:42.
