data_PCOD9261096
_publ_section_title
;
Structure prediction by ZEFSAII (Michael W. Deem and Ramdas Pophale) SiO2 
 PCOD9261096
Probable space group: C 2/C
;
_chemical_formula_sum "Si O2"
_cell_formula_units_Z 40
_cell_length_a 10.002280
_cell_length_b 17.141554
_cell_length_c 11.172715
_cell_angle_alpha 90.000000
_cell_angle_beta 129.980159
_cell_angle_gamma 90.000000
_cell_volume 1467.871492
_symmetry_space_group_name_H-M "C 2/C"
_symmetry_group_IT_number 15
_symmetry_cell_setting 'monoclinic'
loop_
_space_group_symop_operation_xyz
x,y,z
-x,y,1/2-z
-x,-y,-z
x,-y,1/2+z
1/2+x,1/2+y,z
1/2-x,1/2+y,1/2-z
1/2-x,1/2-y,-z
1/2+x,1/2-y,1/2+z
loop_
_atom_site_type_symbol
_atom_site_label
_atom_site_fract_x
_atom_site_fract_y
_atom_site_fract_z
Si Si1 0.199311 0.597881 0.858123
Si Si2 0.632920 0.469732 0.421832
Si Si3 0.651231 0.767844 0.135397
Si Si4 0.500000 0.680254 0.750000
Si Si5 0.807203 0.342843 0.884513
Si Si6 0.500000 0.000000 0.500000
O O1 0.180526 0.655739 0.737335
O O2 0.000000 0.563705 0.750000
O O3 0.228907 0.647044 0.995344
O O4 0.327063 0.524731 0.941807
O O5 0.500000 0.509462 0.250000
O O6 0.550586 0.383246 0.383832
O O7 0.820399 0.464181 0.463247
O O8 0.827745 0.768977 0.162457
O O9 0.468241 0.781838 0.967947
O O10 0.652746 0.692277 0.219463
O O11 0.884422 0.425153 0.890104
#
# Coordination Sequence:
#
# PCOD9261096 Si02
#       6
#     8   8   8   4   8   4
#     4   9  20  37  62  92 123 157 210 260 312 365
#     4   9  19  37  62  89 125 164 200 260 307 370
#     4  11  22  39  59  89 124 161 206 259 309 370
#     4  10  22  40  60  86 134 160 208 254 306 388
#     4  10  21  39  65  89 122 163 203 260 310 368
#     4  10  18  40  64  82 124 162 198 248 314 362
#
# _framework density 27.250342
#
# number of rings (size 3 to 8) (size 9 to 14) (size 15 to 20)
#    0.600    1.600    2.000    0.600    0.000    4.800 
#    0.000    7.000    6.600    0.000    0.000    0.000 
#    0.000    0.000    0.000    0.000    0.000    0.000 
#
# Total GULP energy -111378.404001 kJ/mol
# GULP energy per Si atom -5568.920200 kJ/mol
# Density = 2.718832 g / cm^3
# Si number density = 27.250342 Si / 1000 Ang^3
#
#
#
# Elastic Constant Matrix: (Units=GPa)
#
#
# Indices 1 2 3 4 5 6 
#
# 1 78.0299 -4.6420 12.6949 0.0000 29.7080 0.0000
# 2 -4.6420 73.5167 46.3133 0.0000 -3.9589 0.0000
# 3 12.6949 46.3133 109.2872 0.0000 0.6455 0.0000
# 4 0.0000 0.0000 0.0000 790.1285 0.0000 1202.0063
# 5 29.7080 -3.9589 0.6455 0.0000 34.2491 0.0000
# 6 0.0000 0.0000 0.0000 1202.0063 0.0000 1979.1887
#
#
#
# Elastic Compliance Matrix: (Units=1/GPa)
#
#
# Indices 1 2 3 4 5 6 
#
# 1 0.019938 0.002376 -0.003223 0.000000 -0.016959 0.000000
# 2 0.002376 0.019021 -0.008338 0.000000 0.000295 0.000000
# 3 -0.003223 -0.008338 0.013049 0.000000 0.001586 0.000000
# 4 0.000000 0.000000 0.000000 0.016633 0.000000 -0.010101
# 5 -0.016959 0.000295 0.001586 0.000000 0.043913 0.000000
# 6 0.000000 0.000000 0.000000 -0.010101 0.000000 0.006640
#
#
# Mechanical properties :
#
#
# Convention : Reuss Voigt Hill
#
# Bulk Modulus (GPa) = 29.72870 41.06291 35.39580
# Shear Modulus (GPa) = 33.60749 574.47777 304.04263
#
# Velocity S-wave (km/s) = 3.51563 14.53522 10.57431
# Velocity P-wave (km/s) = 5.23571 17.22783 12.73206
#
# Compressibility (1/GPa) = 0.03363753
#
# Stress axis : x y z
#
# Youngs Moduli (GPa) = 50.15540 52.57288 76.63529
#
# Poissons Ratio (x) = -0.12491 0.24697
# Poissons Ratio (y) = -0.11916 0.63902
# Poissons Ratio (z) = 0.16164 0.43838
#
# Static dielectric constant tensor:
#      x y z
#    x 2.244950 0.000000 -0.050170 
#    y 0.000000 2.109140 0.000000 
#    z -0.050170 0.000000 2.066140 
# 
# From -- ./inp_files/145277.got.cif
#   From: 2010.05.17/outbox.cif.g08.bks.cpg/sg15_73_cif.got.tgz:145277.got - 2010.06.03 18:47:42.
