data_PCOD9261821
_publ_section_title
;
Structure prediction by ZEFSAII (Michael W. Deem and Ramdas Pophale) SiO2 
 PCOD9261821
Probable space group: C 2/C
;
_chemical_formula_sum "Si O2"
_cell_formula_units_Z 48
_cell_length_a 8.311717
_cell_length_b 30.015505
_cell_length_c 10.376749
_cell_angle_alpha 90.000000
_cell_angle_beta 107.474475
_cell_angle_gamma 90.000000
_cell_volume 2469.324533
_symmetry_space_group_name_H-M "C 2/C"
_symmetry_group_IT_number 15
_symmetry_cell_setting 'monoclinic'
loop_
_space_group_symop_operation_xyz
x,y,z
-x,y,1/2-z
-x,-y,-z
x,-y,1/2+z
1/2+x,1/2+y,z
1/2-x,1/2+y,1/2-z
1/2-x,1/2-y,-z
1/2+x,1/2-y,1/2+z
loop_
_atom_site_type_symbol
_atom_site_label
_atom_site_fract_x
_atom_site_fract_y
_atom_site_fract_z
Si Si1 0.284974 0.679567 0.981159
Si Si2 0.287939 0.912669 0.346437
Si Si3 0.509990 0.755487 0.096383
Si Si4 0.115846 0.998736 0.901753
Si Si5 0.691892 0.683980 0.811141
Si Si6 0.191199 0.415854 0.453988
O O1 0.245015 0.676075 0.819979
O O2 0.275012 0.629487 0.028040
O O3 0.135778 0.711798 0.995238
O O4 0.459360 0.706081 0.039699
O O5 0.208089 0.865606 0.372618
O O6 0.489506 0.910156 0.411545
O O7 0.258728 0.920261 0.185627
O O8 0.207974 0.954201 0.400874
O O9 0.500000 0.753469 0.250000
O O10 0.685918 0.778507 0.103683
O O11 0.000000 0.989903 0.750000
O O12 0.248651 0.959176 0.956188
O O13 0.000000 0.000000 0.000000
O O14 0.500000 0.698466 0.750000
#
# Coordination Sequence:
#
# PCOD9261821 Si02
#       6
#     8   8   8   8   8   8
#     4   9  18  33  55  83 110 150 196 240 294 359
#     4  10  20  38  59  87 117 159 208 254 303 368
#     4   9  17  33  54  81 114 149 194 241 293 358
#     4  12  24  40  60  91 124 156 200 255 312 369
#     4  10  19  31  55  84 114 150 200 246 297 357
#     4  10  20  37  62  86 118 158 207 253 308 365
#
# _framework density 19.438514999999999
#
# number of rings (size 3 to 8) (size 9 to 14) (size 15 to 20)
#    0.000    2.000    3.333    1.000    2.333    1.333 
#    0.000    0.000    0.000    0.000    0.000    0.000 
#    0.000    0.000    0.000    0.000    0.000    0.000 
#
# Total GULP energy -133851.520386 kJ/mol
# GULP energy per Si atom -5577.146683 kJ/mol
# Density = 1.939427 g / cm^3
# Si number density = 19.438515 Si / 1000 Ang^3
#
#
#
# Elastic Constant Matrix: (Units=GPa)
#
#
# Indices 1 2 3 4 5 6 
#
# 1 77.2671 54.5362 16.5353 0.0000 17.6907 0.0000
# 2 54.5362 174.5629 45.6298 0.0000 24.7556 0.0000
# 3 16.5353 45.6298 53.9738 0.0000 8.4453 0.0000
# 4 0.0000 0.0000 0.0000 32.1993 0.0000 6.6268
# 5 17.6907 24.7556 8.4453 0.0000 32.5568 0.0000
# 6 0.0000 0.0000 0.0000 6.6268 0.0000 33.1243
#
#
#
# Elastic Compliance Matrix: (Units=1/GPa)
#
#
# Indices 1 2 3 4 5 6 
#
# 1 0.017620 -0.004478 -0.000674 0.000000 -0.005994 0.000000
# 2 -0.004478 0.009072 -0.005835 0.000000 -0.002951 0.000000
# 3 -0.000674 -0.005835 0.023885 0.000000 -0.001393 0.000000
# 4 0.000000 0.000000 0.000000 0.032390 0.000000 -0.006480
# 5 -0.005994 -0.002951 -0.001393 0.000000 0.036577 0.000000
# 6 0.000000 0.000000 0.000000 -0.006480 0.000000 0.031486
#
#
# Mechanical properties :
#
#
# Convention : Reuss Voigt Hill
#
# Bulk Modulus (GPa) = 34.96414 59.91183 47.43798
# Shear Modulus (GPa) = 27.39142 32.18289 29.78716
#
# Velocity S-wave (km/s) = 3.75791 4.07335 3.91881
# Velocity P-wave (km/s) = 6.07086 7.28087 6.70322
#
# Compressibility (1/GPa) = 0.02860073
#
# Stress axis : x y z
#
# Youngs Moduli (GPa) = 56.75480 110.23512 41.86697
#
# Poissons Ratio (x) = 0.49368 0.02822
# Poissons Ratio (y) = 0.25417 0.24431
# Poissons Ratio (z) = 0.03825 0.64327
#
# Static dielectric constant tensor:
#      x y z
#    x 1.714120 0.000000 -0.009560 
#    y 0.000000 1.707180 0.000000 
#    z -0.009560 0.000000 1.681470 
# 
# From -- ./inp_files/80920.got.cif
#   From: 2010.05.17/outbox.cif.g08.bks.cpg/sg15_41_cif.got.tgz:80920.got - 2010.06.03 18:47:42.
