data_PCOD9261238
_publ_section_title
;
Structure prediction by ZEFSAII (Michael W. Deem and Ramdas Pophale) SiO2 
 PCOD9261238
Probable space group: C 2/C
;
_chemical_formula_sum "Si O2"
_cell_formula_units_Z 52
_cell_length_a 26.324341
_cell_length_b 11.180778
_cell_length_c 10.869040
_cell_angle_alpha 90.000000
_cell_angle_beta 138.232716
_cell_angle_gamma 90.000000
_cell_volume 2130.907103
_symmetry_space_group_name_H-M "C 2/C"
_symmetry_group_IT_number 15
_symmetry_cell_setting 'monoclinic'
loop_
_space_group_symop_operation_xyz
x,y,z
-x,y,1/2-z
-x,-y,-z
x,-y,1/2+z
1/2+x,1/2+y,z
1/2-x,1/2+y,1/2-z
1/2-x,1/2-y,-z
1/2+x,1/2-y,1/2+z
loop_
_atom_site_type_symbol
_atom_site_label
_atom_site_fract_x
_atom_site_fract_y
_atom_site_fract_z
Si Si1 0.500000 0.385334 0.750000
Si Si2 0.313703 0.929643 0.312448
Si Si3 0.656587 0.441496 0.153445
Si Si4 0.434489 0.059170 0.234463
Si Si5 0.710832 0.690598 0.313032
Si Si6 0.998652 0.684265 0.574152
Si Si7 0.162455 0.678727 0.172387
O O1 0.425618 0.450157 0.560552
O O2 0.528911 0.308574 0.681334
O O3 0.223367 0.930605 0.172446
O O4 0.355204 0.942711 0.518967
O O5 0.343545 0.800338 0.323969
O O6 0.328236 0.046092 0.253887
O O7 0.673572 0.561231 0.259893
O O8 0.665119 0.311556 0.235972
O O9 0.500000 0.068244 0.250000
O O10 0.454308 0.166625 0.364648
O O11 0.448442 0.930720 0.323264
O O12 0.750000 0.750000 0.500000
O O13 0.773986 0.677551 0.319094
O O14 0.924734 0.671195 0.531993
#
# Coordination Sequence:
#
# PCOD9261238 Si02
#       7
#     4   8   8   8   8   8   8
#     4  10  18  42  64  94 130 184 238 262 344 422
#     4  10  20  39  61  95 137 169 225 279 331 400
#     4   9  20  39  65  89 131 176 226 270 323 415
#     4  11  20  37  58 102 137 169 222 286 347 394
#     4  10  22  41  64  96 135 176 220 282 337 392
#     4  10  20  36  66  96 133 178 220 288 338 405
#     4   9  18  39  64  92 127 171 222 261 330 403
#
# _framework density 24.402752
#
# number of rings (size 3 to 8) (size 9 to 14) (size 15 to 20)
#    0.000    2.154    2.308    0.923    0.000    2.462 
#    9.692   20.000    0.000    9.231    0.000    0.000 
#    0.000    0.000    0.000    0.000    0.000    0.000 
#
# Total GULP energy -144802.938596 kJ/mol
# GULP energy per Si atom -5569.343792 kJ/mol
# Density = 2.434721 g / cm^3
# Si number density = 24.402752 Si / 1000 Ang^3
#
#
#
# Elastic Constant Matrix: (Units=GPa)
#
#
# Indices 1 2 3 4 5 6 
#
# 1 47.6554 29.7076 14.1228 0.0000 7.5843 0.0000
# 2 29.7076 223.1309 58.0014 0.0000 -6.3514 0.0000
# 3 14.1228 58.0014 111.0447 0.0000 4.3522 0.0000
# 4 0.0000 0.0000 0.0000 44.1590 0.0000 3.7362
# 5 7.5843 -6.3514 4.3522 0.0000 29.7119 0.0000
# 6 0.0000 0.0000 0.0000 3.7362 0.0000 33.7257
#
#
#
# Elastic Compliance Matrix: (Units=1/GPa)
#
#
# Indices 1 2 3 4 5 6 
#
# 1 0.024353 -0.003120 -0.001205 0.000000 -0.006707 0.000000
# 2 -0.003120 0.005654 -0.002650 0.000000 0.002393 0.000000
# 3 -0.001205 -0.002650 0.010614 0.000000 -0.001814 0.000000
# 4 0.000000 0.000000 0.000000 0.022860 0.000000 -0.002532
# 5 -0.006707 0.002393 -0.001814 0.000000 0.036146 0.000000
# 6 0.000000 0.000000 0.000000 -0.002532 0.000000 0.029932
#
#
# Mechanical properties :
#
#
# Convention : Reuss Voigt Hill
#
# Bulk Modulus (GPa) = 37.49343 65.05496 51.27420
# Shear Modulus (GPa) = 32.80852 40.18594 36.49723
#
# Velocity S-wave (km/s) = 3.67067 4.06246 3.87152
# Velocity P-wave (km/s) = 5.77606 6.98008 6.40641
#
# Compressibility (1/GPa) = 0.02667134
#
# Stress axis : x y z
#
# Youngs Moduli (GPa) = 41.06189 176.86148 94.21532
#
# Poissons Ratio (x) = 0.55184 0.11350
# Poissons Ratio (y) = 0.12812 0.24970
# Poissons Ratio (z) = 0.04947 0.46873
#
# Static dielectric constant tensor:
#      x y z
#    x 2.155170 0.000000 -0.079890 
#    y 0.000000 2.142450 0.000000 
#    z -0.079890 0.000000 1.992980 
# 
# From -- ./inp_files/126471.got.cif
#   From: 2010.05.17/outbox.cif.g08.bks.cpg/sg15_64_cif.got.tgz:126471.got - 2010.06.03 18:47:42.
