data_PCOD9261454
_publ_section_title
;
Structure prediction by ZEFSAII (Michael W. Deem and Ramdas Pophale) SiO2 
 PCOD9261454
Probable space group: C 2/C
;
_chemical_formula_sum "Si O2"
_cell_formula_units_Z 40
_cell_length_a 14.454543
_cell_length_b 33.983476
_cell_length_c 5.213650
_cell_angle_alpha 90.000000
_cell_angle_beta 91.864822
_cell_angle_gamma 90.000000
_cell_volume 2559.669931
_symmetry_space_group_name_H-M "C 2/C"
_symmetry_group_IT_number 15
_symmetry_cell_setting 'monoclinic'
loop_
_space_group_symop_operation_xyz
x,y,z
-x,y,1/2-z
-x,-y,-z
x,-y,1/2+z
1/2+x,1/2+y,z
1/2-x,1/2+y,1/2-z
1/2-x,1/2-y,-z
1/2+x,1/2-y,1/2+z
loop_
_atom_site_type_symbol
_atom_site_label
_atom_site_fract_x
_atom_site_fract_y
_atom_site_fract_z
Si Si1 0.890713 0.394237 0.720045
Si Si2 0.211070 0.226106 0.743296
Si Si3 0.000000 0.296070 0.250000
Si Si4 0.394937 0.015646 0.047119
Si Si5 0.672877 0.148970 0.794315
Si Si6 0.500000 0.744692 0.750000
O O1 0.892316 0.440705 0.659199
O O2 0.845076 0.373173 0.473007
O O3 0.000000 0.382771 0.750000
O O4 0.834705 0.381308 0.968750
O O5 0.250000 0.250000 0.500000
O O6 0.246299 0.181056 0.728427
O O7 0.099403 0.224351 0.719863
O O8 0.250000 0.250000 0.000000
O O9 0.914757 0.323008 0.170622
O O10 0.980506 0.270338 0.496203
O O11 0.351904 0.012142 0.761261
O O12 0.500000 0.000000 0.000000
#
# Coordination Sequence:
#
# PCOD9261454 Si02
#       6
#     8   8   4   8   8   4
#     4  12  21  31  48  71 102 138 169 207 251 300
#     4  12  23  37  56  74  99 135 180 228 270 320
#     4  12  20  32  54  72  94 133 170 221 268 310
#     4  10  19  30  47  67  96 135 183 192 231 306
#     4  12  23  32  47  75 102 129 173 221 263 299
#     4  12  22  38  54  72  94 133 178 223 270 310
#
# _framework density 15.627014000000001
#
# number of rings (size 3 to 8) (size 9 to 14) (size 15 to 20)
#    0.000    0.400    8.000    3.600    2.800    0.000 
#    0.000    0.000    0.000    0.000    0.000    0.000 
#    0.000    0.000    0.000   18.000    0.000    0.000 
#
# Total GULP energy -111439.482743 kJ/mol
# GULP energy per Si atom -5571.974137 kJ/mol
# Density = 1.559145 g / cm^3
# Si number density = 15.627014 Si / 1000 Ang^3
#
#
#
# Elastic Constant Matrix: (Units=GPa)
#
#
# Indices 1 2 3 4 5 6 
#
# 1 85.2463 39.3305 15.6307 0.0000 -3.2305 0.0000
# 2 39.3305 104.6458 49.5395 0.0000 -3.4905 0.0000
# 3 15.6307 49.5395 143.0967 0.0000 -17.4850 0.0000
# 4 0.0000 0.0000 0.0000 34.9150 0.0000 1.0628
# 5 -3.2305 -3.4905 -17.4850 0.0000 11.1274 0.0000
# 6 0.0000 0.0000 0.0000 1.0628 0.0000 33.6829
#
#
#
# Elastic Compliance Matrix: (Units=1/GPa)
#
#
# Indices 1 2 3 4 5 6 
#
# 1 0.014329 -0.005664 0.000850 0.000000 0.003719 0.000000
# 2 -0.005664 0.013764 -0.004727 0.000000 -0.004755 0.000000
# 3 0.000850 -0.004727 0.010373 0.000000 0.015063 0.000000
# 4 0.000000 0.000000 0.000000 0.028669 0.000000 -0.000905
# 5 0.003719 -0.004755 0.015063 0.000000 0.113125 0.000000
# 6 0.000000 0.000000 0.000000 -0.000905 0.000000 0.029717
#
#
# Mechanical properties :
#
#
# Convention : Reuss Voigt Hill
#
# Bulk Modulus (GPa) = 51.59114 60.22115 55.90614
# Shear Modulus (GPa) = 21.22963 31.17760 26.20362
#
# Velocity S-wave (km/s) = 3.68981 4.47151 4.09934
# Velocity P-wave (km/s) = 7.15812 8.07957 7.63276
#
# Compressibility (1/GPa) = 0.01938317
#
# Stress axis : x y z
#
# Youngs Moduli (GPa) = 69.78895 72.65267 96.40814
#
# Poissons Ratio (x) = 0.41149 -0.08195
# Poissons Ratio (y) = 0.39527 0.45576
# Poissons Ratio (z) = -0.05932 0.34346
#
# Static dielectric constant tensor:
#      x y z
#    x 1.541240 0.000000 0.018820 
#    y 0.000000 1.547130 0.000000 
#    z 0.018820 0.000000 1.614790 
# 
# From -- ./inp_files/7865.got.cif
#   From: 2010.05.17/outbox.cif.g08.bks.cpg/sg15_4_cif.got.tgz:7865.got - 2010.06.03 18:47:42.
