data_PCOD9261878
_publ_section_title
;
Structure prediction by ZEFSAII (Michael W. Deem and Ramdas Pophale) SiO2 
 PCOD9261878
Probable space group: C 2/C
;
_chemical_formula_sum "Si O2"
_cell_formula_units_Z 56
_cell_length_a 24.025690
_cell_length_b 13.982826
_cell_length_c 25.723418
_cell_angle_alpha 90.000000
_cell_angle_beta 155.783714
_cell_angle_gamma 90.000000
_cell_volume 3544.674775
_symmetry_space_group_name_H-M "C 2/C"
_symmetry_group_IT_number 15
_symmetry_cell_setting 'monoclinic'
loop_
_space_group_symop_operation_xyz
x,y,z
-x,y,1/2-z
-x,-y,-z
x,-y,1/2+z
1/2+x,1/2+y,z
1/2-x,1/2+y,1/2-z
1/2-x,1/2-y,-z
1/2+x,1/2-y,1/2+z
loop_
_atom_site_type_symbol
_atom_site_label
_atom_site_fract_x
_atom_site_fract_y
_atom_site_fract_z
Si Si1 0.446445 0.531116 0.397538
Si Si2 0.089654 0.236017 0.875258
Si Si3 0.037036 0.464448 0.610772
Si Si4 0.792575 0.820034 0.822867
Si Si5 0.684377 0.096353 0.656108
Si Si6 0.638403 0.596994 0.008191
Si Si7 0.952917 0.557470 0.264977
O O1 0.500000 0.500000 0.500000
O O2 0.386779 0.636053 0.357461
O O3 0.320900 0.464733 0.274601
O O4 0.563419 0.502735 0.456960
O O5 0.073463 0.162499 0.908666
O O6 0.971357 0.340412 0.664760
O O7 0.000000 0.201518 0.750000
O O8 0.250000 0.250000 0.000000
O O9 0.152525 0.381186 0.704069
O O10 0.090932 0.553590 0.622788
O O11 0.022774 0.492185 0.658943
O O12 0.900622 0.424335 0.468565
O O13 0.779999 0.707158 0.807210
O O14 0.858439 0.844158 0.935037
O O15 0.793122 0.577194 0.124792
O O16 0.000000 0.514345 0.250000
#
# Coordination Sequence:
#
# PCOD9261878 Si02
#       7
#     8   8   8   8   8   8   8
#     4   9  20  33  48  75 101 131 174 199 249 316
#     4  11  20  31  45  71 101 133 175 206 246 308
#     4   9  20  33  49  76 104 133 175 210 254 307
#     4   9  19  32  51  74 102 135 165 209 258 307
#     4  10  19  33  51  75 106 134 167 214 258 304
#     4  10  19  32  47  71 102 137 166 209 246 301
#     4  10  19  33  48  68 104 134 173 207 244 307
#
# _framework density 15.798346
#
# number of rings (size 3 to 8) (size 9 to 14) (size 15 to 20)
#    0.000    2.286    2.857    1.714    8.000    1.143 
#    0.000    0.000    0.000    0.000    0.000    2.000 
#    0.000    0.000    0.000    0.000    0.000    0.000 
#
# Total GULP energy -155941.552270 kJ/mol
# GULP energy per Si atom -5569.341152 kJ/mol
# Density = 1.576239 g / cm^3
# Si number density = 15.798346 Si / 1000 Ang^3
#
#
#
# Elastic Constant Matrix: (Units=GPa)
#
#
# Indices 1 2 3 4 5 6 
#
# 1 79.8405 16.4513 26.3172 0.0003 -3.3898 0.0003
# 2 16.4513 44.5927 12.0065 -0.0010 -5.4705 0.0000
# 3 26.3172 12.0065 95.9618 -0.0005 -9.0037 0.0001
# 4 0.0003 -0.0010 -0.0005 15.4570 -0.0001 -2.6646
# 5 -3.3898 -5.4705 -9.0037 -0.0001 33.0452 0.0001
# 6 0.0003 0.0000 0.0001 -2.6646 0.0001 18.0992
#
#
#
# Elastic Compliance Matrix: (Units=1/GPa)
#
#
# Indices 1 2 3 4 5 6 
#
# 1 0.014577 -0.004470 -0.003456 -0.000001 -0.000186 0.000000
# 2 -0.004470 0.024898 -0.001586 0.000002 0.003231 0.000000
# 3 -0.003456 -0.001586 0.011811 0.000000 0.002601 0.000000
# 4 -0.000001 0.000002 0.000000 0.066380 0.000001 0.009772
# 5 -0.000186 0.003231 0.002601 0.000001 0.031486 0.000000
# 6 0.000000 0.000000 0.000000 0.009772 0.000000 0.056690
#
#
# Mechanical properties :
#
#
# Convention : Reuss Voigt Hill
#
# Bulk Modulus (GPa) = 30.99655 36.66058 33.82856
# Shear Modulus (GPa) = 21.22056 24.36162 22.79109
#
# Velocity S-wave (km/s) = 3.66896 3.93114 3.80231
# Velocity P-wave (km/s) = 6.13279 6.62275 6.38247
#
# Compressibility (1/GPa) = 0.03226165
#
# Stress axis : x y z
#
# Youngs Moduli (GPa) = 68.59969 40.16421 84.66618
#
# Poissons Ratio (x) = 0.17954 0.29260
# Poissons Ratio (y) = 0.30666 0.13428
# Poissons Ratio (z) = 0.23708 0.06370
#
# Static dielectric constant tensor:
#      x y z
#    x 1.564030 0.000000 0.004940 
#    y 0.000000 1.508010 0.000000 
#    z 0.004940 0.000000 1.558310 
# 
# From -- ./inp_files/281905.got.cif
#   From: 2010.05.17/outbox.cif.g08.bks.cpg/sg15_141_cif.got.tgz:281905.got - 2010.06.03 18:47:42.
