data_PCOD9261960
_publ_section_title
;
Structure prediction by ZEFSAII (Michael W. Deem and Ramdas Pophale) SiO2 
 PCOD9261960
Probable space group: C 2/C
;
_chemical_formula_sum "Si O2"
_cell_formula_units_Z 60
_cell_length_a 5.755251
_cell_length_b 26.345332
_cell_length_c 27.353812
_cell_angle_alpha 90.000000
_cell_angle_beta 123.214120
_cell_angle_gamma 90.000000
_cell_volume 3469.915483
_symmetry_space_group_name_H-M "C 2/C"
_symmetry_group_IT_number 15
_symmetry_cell_setting 'monoclinic'
loop_
_space_group_symop_operation_xyz
x,y,z
-x,y,1/2-z
-x,-y,-z
x,-y,1/2+z
1/2+x,1/2+y,z
1/2-x,1/2+y,1/2-z
1/2-x,1/2-y,-z
1/2+x,1/2-y,1/2+z
loop_
_atom_site_type_symbol
_atom_site_label
_atom_site_fract_x
_atom_site_fract_y
_atom_site_fract_z
Si Si1 0.612856 0.298778 0.957419
Si Si2 0.171052 0.543858 0.492181
Si Si3 0.031355 0.587571 0.809896
Si Si4 0.000000 0.156697 0.750000
Si Si5 0.481512 0.121411 0.541553
Si Si6 0.983475 0.824965 0.357886
Si Si7 0.685613 0.026028 0.912814
Si Si8 0.951424 0.731443 0.068120
O O1 0.279468 0.293697 0.922172
O O2 0.790544 0.298486 0.927136
O O3 0.750000 0.250000 0.000000
O O4 0.703289 0.347759 0.999137
O O5 0.487217 0.535003 0.544190
O O6 0.130771 0.528267 0.431158
O O7 0.000000 0.500000 0.500000
O O8 0.084069 0.598429 0.501747
O O9 0.288020 0.626519 0.845968
O O10 0.079287 0.537633 0.846956
O O11 0.000000 0.574393 0.750000
O O12 0.759561 0.620123 0.791298
O O13 0.048502 0.185610 0.704091
O O14 0.705689 0.158345 0.591613
O O15 0.445505 0.072584 0.571468
O O16 0.920791 0.778345 0.386539
O O17 0.750000 0.750000 0.000000
#
# Coordination Sequence:
#
# PCOD9261960 Si02
#       8
#     8   8   8   4   8   8   8   8
#     4  10  21  31  47  78 103 140 179 210 267 319
#     4   9  20  32  46  75  94 140 173 210 272 321
#     4  10  21  31  49  73  99 143 177 212 261 319
#     4  10  22  34  46  76  98 146 184 204 264 316
#     4  11  19  30  52  68 106 141 168 216 260 315
#     4  11  20  32  50  69 108 143 176 214 253 319
#     4  10  19  32  51  67 105 137 174 217 263 323
#     4  10  21  32  48  74 106 137 181 217 261 312
#
# _framework density 17.291487
#
# number of rings (size 3 to 8) (size 9 to 14) (size 15 to 20)
#    0.000    1.867    5.333    0.000    7.467    0.000 
#    0.000    0.000    0.000    0.000    0.000    0.000 
#    2.000    6.400    0.000    0.000    0.000    0.000 
#
# Total GULP energy -167014.368599 kJ/mol
# GULP energy per Si atom -5567.145620 kJ/mol
# Density = 1.725213 g / cm^3
# Si number density = 17.291487 Si / 1000 Ang^3
#
#
#
# Elastic Constant Matrix: (Units=GPa)
#
#
# Indices 1 2 3 4 5 6 
#
# 1 71.5801 -4.9632 9.6423 0.0000 -1.5889 0.0000
# 2 -4.9632 21.4620 23.6644 0.0000 -7.9367 0.0000
# 3 9.6423 23.6644 81.2030 0.0000 -12.1797 0.0000
# 4 0.0000 0.0000 0.0000 31.0668 0.0000 -4.0574
# 5 -1.5889 -7.9367 -12.1797 0.0000 17.2222 0.0000
# 6 0.0000 0.0000 0.0000 -4.0574 0.0000 21.9604
#
#
#
# Elastic Compliance Matrix: (Units=1/GPa)
#
#
# Indices 1 2 3 4 5 6 
#
# 1 0.015186 0.008912 -0.003998 0.000000 0.002680 0.000000
# 2 0.008912 0.080331 -0.021022 0.000000 0.022975 0.000000
# 3 -0.003998 -0.021022 0.019473 0.000000 0.003715 0.000000
# 4 0.000000 0.000000 0.000000 0.032985 0.000000 0.006094
# 5 0.002680 0.022975 0.003715 0.000000 0.071526 0.000000
# 6 0.000000 0.000000 0.000000 0.006094 0.000000 0.046662
#
#
# Mechanical properties :
#
#
# Convention : Reuss Voigt Hill
#
# Bulk Modulus (GPa) = 12.08134 25.65913 18.87023
# Shear Modulus (GPa) = 15.33871 23.77665 19.55768
#
# Velocity S-wave (km/s) = 2.98160 3.71219 3.36677
# Velocity P-wave (km/s) = 4.34227 5.76586 5.10394
#
# Compressibility (1/GPa) = 0.08277225
#
# Stress axis : x y z
#
# Youngs Moduli (GPa) = 65.84842 12.44854 51.35264
#
# Poissons Ratio (x) = -0.11094 0.20533
# Poissons Ratio (y) = -0.58683 1.07956
# Poissons Ratio (z) = 0.26329 0.26170
#
# Static dielectric constant tensor:
#      x y z
#    x 1.701490 0.000000 -0.053550 
#    y 0.000000 1.589470 0.000000 
#    z -0.053550 0.000000 1.585590 
# 
# From -- ./inp_files/286682.got.cif
#   From: 2010.05.17/outbox.cif.g08.bks.cpg/sg15_144_cif.got.tgz:286682.got - 2010.06.03 18:47:42.
