data_PCOD9261977
_publ_section_title
;
Structure prediction by ZEFSAII (Michael W. Deem and Ramdas Pophale) SiO2 
 PCOD9261977
Probable space group: C 2/C
;
_chemical_formula_sum "Si O2"
_cell_formula_units_Z 60
_cell_length_a 17.076043
_cell_length_b 19.951036
_cell_length_c 10.145190
_cell_angle_alpha 90.000000
_cell_angle_beta 92.511141
_cell_angle_gamma 90.000000
_cell_volume 3452.992482
_symmetry_space_group_name_H-M "C 2/C"
_symmetry_group_IT_number 15
_symmetry_cell_setting 'monoclinic'
loop_
_space_group_symop_operation_xyz
x,y,z
-x,y,1/2-z
-x,-y,-z
x,-y,1/2+z
1/2+x,1/2+y,z
1/2-x,1/2+y,1/2-z
1/2-x,1/2-y,-z
1/2+x,1/2-y,1/2+z
loop_
_atom_site_type_symbol
_atom_site_label
_atom_site_fract_x
_atom_site_fract_y
_atom_site_fract_z
Si Si1 0.409655 0.056286 0.217225
Si Si2 0.710455 0.592037 0.481945
Si Si3 0.795158 0.128590 0.506426
Si Si4 0.784369 0.326628 0.758601
Si Si5 0.163568 0.478965 0.053302
Si Si6 0.500000 0.384580 0.250000
Si Si7 0.915751 0.021652 0.546642
Si Si8 0.848509 0.819115 0.288691
O O1 0.500000 0.069835 0.250000
O O2 0.354707 0.120371 0.241354
O O3 0.375995 0.998803 0.312229
O O4 0.398262 0.035897 0.065151
O O5 0.727913 0.644256 0.367326
O O6 0.784140 0.541976 0.490164
O O7 0.636839 0.544212 0.441714
O O8 0.696699 0.629978 0.618068
O O9 0.763250 0.172453 0.383197
O O10 0.724141 0.083122 0.558686
O O11 0.830158 0.168422 0.632522
O O12 0.861254 0.074693 0.462931
O O13 0.820270 0.256456 0.807006
O O14 0.560593 0.435443 0.323805
O O15 0.440338 0.335773 0.322603
O O16 0.000000 0.000000 0.500000
#
# Coordination Sequence:
#
# PCOD9261977 Si02
#       8
#     8   8   8   8   8   4   8   8
#     4  10  19  32  51  76 101 134 165 220 263 304
#     4  10  20  34  56  79 106 139 172 227 263 319
#     4   9  20  34  54  77 102 140 175 219 260 317
#     4  10  22  35  52  76 105 144 183 212 253 317
#     4   9  18  33  52  78 102 125 175 214 271 307
#     4  10  22  32  54  84 108 148 170 234 272 326
#     4  10  19  33  54  83 114 133 175 225 289 318
#     4  11  20  36  53  74 108 141 186 204 264 317
#
# _framework density 17.376232999999999
#
# number of rings (size 3 to 8) (size 9 to 14) (size 15 to 20)
#    0.000    2.133    1.333    2.000    2.800    3.200 
#    0.000    0.000    0.000    0.000    0.000    0.000 
#    0.000    0.000    0.000    0.000    0.000    0.000 
#
# Total GULP energy -167062.133757 kJ/mol
# GULP energy per Si atom -5568.737792 kJ/mol
# Density = 1.733668 g / cm^3
# Si number density = 17.376233 Si / 1000 Ang^3
#
#
#
# Elastic Constant Matrix: (Units=GPa)
#
#
# Indices 1 2 3 4 5 6 
#
# 1 72.0341 15.1050 10.6134 0.0000 5.7556 0.0000
# 2 15.1050 76.7052 11.4482 0.0000 3.0551 0.0000
# 3 10.6134 11.4482 32.2334 0.0000 7.8304 0.0000
# 4 0.0000 0.0000 0.0000 23.5617 0.0000 3.1770
# 5 5.7556 3.0551 7.8304 0.0000 24.5691 0.0000
# 6 0.0000 0.0000 0.0000 3.1770 0.0000 22.3125
#
#
#
# Elastic Compliance Matrix: (Units=1/GPa)
#
#
# Indices 1 2 3 4 5 6 
#
# 1 0.015075 -0.002345 -0.003624 0.000000 -0.002085 0.000000
# 2 -0.002345 0.014132 -0.004286 0.000000 0.000158 0.000000
# 3 -0.003624 -0.004286 0.036207 0.000000 -0.010157 0.000000
# 4 0.000000 0.000000 0.000000 0.043273 0.000000 -0.006161
# 5 -0.002085 0.000158 -0.010157 0.000000 0.044408 0.000000
# 6 0.000000 0.000000 0.000000 -0.006161 0.000000 0.045695
#
#
# Mechanical properties :
#
#
# Convention : Reuss Voigt Hill
#
# Bulk Modulus (GPa) = 22.26963 28.36732 25.31847
# Shear Modulus (GPa) = 21.34331 23.67574 22.50953
#
# Velocity S-wave (km/s) = 3.50852 3.69526 3.60310
# Velocity P-wave (km/s) = 5.40897 5.87940 5.64908
#
# Compressibility (1/GPa) = 0.04490420
#
# Stress axis : x y z
#
# Youngs Moduli (GPa) = 66.33708 70.76168 27.61920
#
# Poissons Ratio (x) = 0.16590 0.10010
# Poissons Ratio (y) = 0.15553 0.11836
# Poissons Ratio (z) = 0.24043 0.30325
#
# Static dielectric constant tensor:
#      x y z
#    x 1.595520 0.000000 0.006060 
#    y 0.000000 1.618390 0.000000 
#    z 0.006060 0.000000 1.627310 
# 
# From -- ./inp_files/98329.got.cif
#   From: 2010.05.17/outbox.cif.g08.bks.cpg/sg15_50_cif.got.tgz:98329.got - 2010.06.03 18:47:42.
