data_PCOD9261573
_publ_section_title
;
Structure prediction by ZEFSAII (Michael W. Deem and Ramdas Pophale) SiO2 
 PCOD9261573
Probable space group: C 2/C
;
_chemical_formula_sum "Si O2"
_cell_formula_units_Z 64
_cell_length_a 16.424460
_cell_length_b 29.438518
_cell_length_c 12.227752
_cell_angle_alpha 90.000000
_cell_angle_beta 141.293968
_cell_angle_gamma 90.000000
_cell_volume 3697.084084
_symmetry_space_group_name_H-M "C 2/C"
_symmetry_group_IT_number 15
_symmetry_cell_setting 'monoclinic'
loop_
_space_group_symop_operation_xyz
x,y,z
-x,y,1/2-z
-x,-y,-z
x,-y,1/2+z
1/2+x,1/2+y,z
1/2-x,1/2+y,1/2-z
1/2-x,1/2-y,-z
1/2+x,1/2-y,1/2+z
loop_
_atom_site_type_symbol
_atom_site_label
_atom_site_fract_x
_atom_site_fract_y
_atom_site_fract_z
Si Si1 0.366380 0.304069 0.540989
Si Si2 0.304522 0.932500 0.645052
Si Si3 0.245102 0.873957 0.768792
Si Si4 0.719619 0.531750 0.618030
Si Si5 0.370963 0.797933 0.039086
Si Si6 0.529482 0.607532 0.410265
Si Si7 0.103129 0.455965 0.988232
Si Si8 0.371563 0.057862 0.565190
O O1 0.500000 0.305535 0.750000
O O2 0.368891 0.253860 0.492412
O O3 0.246557 0.304545 0.498334
O O4 0.368331 0.350498 0.474148
O O5 0.250356 0.888042 0.647815
O O6 0.314192 0.933090 0.523382
O O7 0.225892 0.977381 0.604533
O O8 0.456690 0.937547 0.839059
O O9 0.097938 0.875064 0.659776
O O10 0.331878 0.831543 0.899746
O O11 0.311057 0.915250 0.903325
O O12 0.587823 0.559018 0.508475
O O13 0.822849 0.544087 0.820138
O O14 0.769345 0.552308 0.555583
O O15 0.500000 0.804803 0.250000
O O16 0.500000 0.601717 0.250000
O O17 0.089972 0.508310 0.937374
O O18 0.500000 0.080467 0.750000
#
# Coordination Sequence:
#
# PCOD9261573 Si02
#       8
#     8   8   8   8   8   8   8   8
#     4   9  17  35  51  73 115 145 161 208 282 335
#     4  10  21  34  52  74 106 137 182 227 270 305
#     4  12  21  33  50  79 106 143 177 216 262 326
#     4  11  19  32  52  72  99 143 183 210 260 320
#     4  10  19  30  54  82 106 138 177 216 264 334
#     4  11  21  35  50  72 111 148 172 214 271 320
#     4  10  19  36  50  70 105 142 170 235 275 291
#     4  11  18  29  52  75  99 133 177 222 266 308
#
# _framework density 17.310939999999999
#
# number of rings (size 3 to 8) (size 9 to 14) (size 15 to 20)
#    0.000    1.500    7.500    1.500    0.000    1.500 
#    0.000    0.625    0.000    0.000    0.000    0.875 
#    0.000    0.000    0.000    0.000    0.000    0.000 
#
# Total GULP energy -178263.161457 kJ/mol
# GULP energy per Si atom -5570.723796 kJ/mol
# Density = 1.727154 g / cm^3
# Si number density = 17.310940 Si / 1000 Ang^3
#
#
#
# Elastic Constant Matrix: (Units=GPa)
#
#
# Indices 1 2 3 4 5 6 
#
# 1 55.7684 24.9323 13.7102 0.0000 0.3604 0.0000
# 2 24.9323 75.8229 7.3836 0.0000 1.2560 0.0000
# 3 13.7102 7.3836 28.2058 0.0000 9.7259 0.0000
# 4 0.0000 0.0000 0.0000 23.3597 0.0000 2.8173
# 5 0.3604 1.2560 9.7259 0.0000 26.0845 0.0000
# 6 0.0000 0.0000 0.0000 2.8173 0.0000 18.6500
#
#
#
# Elastic Compliance Matrix: (Units=1/GPa)
#
#
# Indices 1 2 3 4 5 6 
#
# 1 0.023676 -0.006766 -0.011173 0.000000 0.004165 0.000000
# 2 -0.006766 0.015481 -0.000618 0.000000 -0.000421 0.000000
# 3 -0.011173 -0.000618 0.047030 0.000000 -0.017351 0.000000
# 4 0.000000 0.000000 0.000000 0.043603 0.000000 -0.006587
# 5 0.004165 -0.000421 -0.017351 0.000000 0.044769 0.000000
# 6 0.000000 0.000000 0.000000 -0.006587 0.000000 0.054614
#
#
# Mechanical properties :
#
#
# Convention : Reuss Voigt Hill
#
# Bulk Modulus (GPa) = 20.37860 27.98325 24.18092
# Shear Modulus (GPa) = 17.68998 21.20359 19.44678
#
# Velocity S-wave (km/s) = 3.20018 3.50361 3.35532
# Velocity P-wave (km/s) = 5.04505 5.70677 5.38608
#
# Compressibility (1/GPa) = 0.04907109
#
# Stress axis : x y z
#
# Youngs Moduli (GPa) = 42.23652 64.59662 21.26314
#
# Poissons Ratio (x) = 0.43707 0.23758
# Poissons Ratio (y) = 0.28578 0.01315
# Poissons Ratio (z) = 0.47192 0.03994
#
# Static dielectric constant tensor:
#      x y z
#    x 1.614710 0.000000 0.022140 
#    y 0.000000 1.650960 0.000000 
#    z 0.022140 0.000000 1.608660 
# 
# From -- ./inp_files/101666.got.cif
#   From: 2010.05.17/outbox.cif.g08.bks.cpg/sg15_51_cif.got.tgz:101666.got - 2010.06.03 18:47:42.
