data_PCOD9261969
_publ_section_title
;
Structure prediction by ZEFSAII (Michael W. Deem and Ramdas Pophale) SiO2 
 PCOD9261969
Probable space group: C 2/C
;
_chemical_formula_sum "Si O2"
_cell_formula_units_Z 56
_cell_length_a 11.276566
_cell_length_b 13.497375
_cell_length_c 16.235106
_cell_angle_alpha 90.000000
_cell_angle_beta 102.455587
_cell_angle_gamma 90.000000
_cell_volume 2412.888854
_symmetry_space_group_name_H-M "C 2/C"
_symmetry_group_IT_number 15
_symmetry_cell_setting 'monoclinic'
loop_
_space_group_symop_operation_xyz
x,y,z
-x,y,1/2-z
-x,-y,-z
x,-y,1/2+z
1/2+x,1/2+y,z
1/2-x,1/2+y,1/2-z
1/2-x,1/2-y,-z
1/2+x,1/2-y,1/2+z
loop_
_atom_site_type_symbol
_atom_site_label
_atom_site_fract_x
_atom_site_fract_y
_atom_site_fract_z
Si Si1 0.188950 0.290557 0.232746
Si Si2 0.786175 0.490839 0.741964
Si Si3 0.038192 0.614535 0.016129
Si Si4 0.545831 0.408057 0.670130
Si Si5 0.711125 0.452894 0.924255
Si Si6 0.715653 0.831620 0.059481
Si Si7 0.418125 0.194695 0.301632
O O1 0.154884 0.401019 0.255902
O O2 0.094224 0.202364 0.200727
O O3 0.258697 0.306369 0.156848
O O4 0.294084 0.250172 0.307928
O O5 0.665984 0.472412 0.669065
O O6 0.750921 0.470358 0.833564
O O7 0.874642 0.399532 0.740509
O O8 0.182503 0.615173 0.020928
O O9 0.021841 0.656024 0.106026
O O10 0.000000 0.500000 0.000000
O O11 0.931024 0.666193 0.950121
O O12 0.500000 0.451646 0.750000
O O13 0.426910 0.413931 0.594992
O O14 0.729680 0.563688 0.961357
O O15 0.750000 0.750000 0.000000
O O16 0.500000 0.254847 0.250000
#
# Coordination Sequence:
#
# PCOD9261969 Si02
#       7
#     8   8   8   8   8   8   8
#     4  10  20  33  51  79 106 131 173 220 258 311
#     4   8  17  31  48  72 102 131 163 208 260 307
#     4   9  18  34  53  72 101 140 176 208 256 321
#     4   9  17  32  52  73  99 131 168 213 261 306
#     4   8  16  32  51  68  95 138 174 203 253 319
#     4  10  19  32  51  74 102 137 173 215 263 312
#     4  10  19  32  53  80 103 130 174 223 259 296
#
# _framework density 23.208694999999999
#
# number of rings (size 3 to 8) (size 9 to 14) (size 15 to 20)
#    0.000    2.857    0.000    2.571    0.000    4.571 
#    0.000    1.429    0.000    3.429    0.000    0.000 
#    0.000    0.000    0.000    0.000    0.000    0.000 
#
# Total GULP energy -155884.573541 kJ/mol
# GULP energy per Si atom -5567.306198 kJ/mol
# Density = 2.315587 g / cm^3
# Si number density = 23.208695 Si / 1000 Ang^3
#
#
#
# Elastic Constant Matrix: (Units=GPa)
#
#
# Indices 1 2 3 4 5 6 
#
# 1 95.3624 30.2127 15.3048 0.0000 49.1158 0.0000
# 2 30.2127 71.7857 0.0559 0.0000 16.5981 0.0000
# 3 15.3048 0.0559 38.5796 0.0000 25.5827 0.0000
# 4 0.0000 0.0000 0.0000 27.0842 0.0000 4.7694
# 5 49.1158 16.5981 25.5827 0.0000 45.1096 0.0000
# 6 0.0000 0.0000 0.0000 4.7694 0.0000 15.2878
#
#
#
# Elastic Compliance Matrix: (Units=1/GPa)
#
#
# Indices 1 2 3 4 5 6 
#
# 1 0.028993 -0.003394 0.013797 0.000000 -0.038143 0.000000
# 2 -0.003394 0.016516 0.004651 0.000000 -0.005020 0.000000
# 3 0.013797 0.004651 0.050545 0.000000 -0.045399 0.000000
# 4 0.000000 0.000000 0.000000 0.039068 0.000000 -0.012188
# 5 -0.038143 -0.005020 -0.045399 0.000000 0.091293 0.000000
# 6 0.000000 0.000000 0.000000 -0.012188 0.000000 0.069214
#
#
# Mechanical properties :
#
#
# Convention : Reuss Voigt Hill
#
# Bulk Modulus (GPa) = 7.92635 32.98603 20.45619
# Shear Modulus (GPa) = 16.25625 28.17327 22.21476
#
# Velocity S-wave (km/s) = 2.64945 3.48790 3.09718
# Velocity P-wave (km/s) = 3.57521 5.51944 4.65007
#
# Compressibility (1/GPa) = 0.12616143
#
# Stress axis : x y z
#
# Youngs Moduli (GPa) = 34.49139 60.54873 19.78439
#
# Poissons Ratio (x) = 0.20548 -0.27296
# Poissons Ratio (y) = 0.11705 -0.09202
# Poissons Ratio (z) = -0.47587 -0.28161
#
# Static dielectric constant tensor:
#      x y z
#    x 1.953860 0.000000 0.059450 
#    y 0.000000 1.899390 0.000000 
#    z 0.059450 0.000000 1.892500 
# 
# From -- ./inp_files/197969.got.cif
#   From: 2010.05.17/outbox.cif.g08.bks.cpg/sg15_99_cif.got.tgz:197969.got - 2010.06.03 18:47:42.
