data_PCOD9261124
_publ_section_title
;
Structure prediction by ZEFSAII (Michael W. Deem and Ramdas Pophale) SiO2 
 PCOD9261124
Probable space group: C 2/C
;
_chemical_formula_sum "Si O2"
_cell_formula_units_Z 52
_cell_length_a 10.422578
_cell_length_b 15.094807
_cell_length_c 20.417324
_cell_angle_alpha 90.000000
_cell_angle_beta 138.311203
_cell_angle_gamma 90.000000
_cell_volume 2136.378847
_symmetry_space_group_name_H-M "C 2/C"
_symmetry_group_IT_number 15
_symmetry_cell_setting 'monoclinic'
loop_
_space_group_symop_operation_xyz
x,y,z
-x,y,1/2-z
-x,-y,-z
x,-y,1/2+z
1/2+x,1/2+y,z
1/2-x,1/2+y,1/2-z
1/2-x,1/2-y,-z
1/2+x,1/2-y,1/2+z
loop_
_atom_site_type_symbol
_atom_site_label
_atom_site_fract_x
_atom_site_fract_y
_atom_site_fract_z
Si Si1 0.467288 0.454542 0.384348
Si Si2 0.005704 0.640985 0.150520
Si Si3 0.658627 0.125454 0.077851
Si Si4 0.684619 0.646510 0.135331
Si Si5 0.000000 0.995106 0.250000
Si Si6 0.697007 0.316275 0.078466
Si Si7 0.387203 0.038627 0.573738
O O1 0.354897 0.541333 0.369275
O O2 0.459962 0.445052 0.303010
O O3 0.395011 0.367245 0.394244
O O4 0.686859 0.483912 0.486057
O O5 0.000603 0.655845 0.071202
O O6 0.199686 0.678623 0.256877
O O7 0.827725 0.664081 0.128924
O O8 0.022385 0.533963 0.157195
O O9 0.814938 0.056744 0.164645
O O10 0.769826 0.216987 0.109542
O O11 0.565388 0.081312 0.978407
O O12 0.478557 0.686957 0.041071
O O13 0.855107 0.381836 0.110617
#
# Coordination Sequence:
#
# PCOD9261124 Si02
#       7
#     8   8   8   8   4   8   8
#     4  10  18  40  66  82 121 163 207 236 309 367
#     4  11  20  38  63  91 117 164 206 249 288 375
#     4  11  24  38  62  91 133 152 203 258 319 339
#     4  10  20  37  64  88 120 159 209 240 300 368
#     4  10  22  42  60  88 120 170 198 258 294 370
#     4  11  21  41  63  92 120 168 194 260 308 361
#     4  10  20  39  65  90 116 164 208 242 298 375
#
# _framework density 24.340253000000001
#
# number of rings (size 3 to 8) (size 9 to 14) (size 15 to 20)
#    0.000    1.538    4.615    1.846    0.000    0.615 
#    2.769    1.538    0.000    0.000    0.000    0.000 
#    0.000    0.000    0.000    0.000    0.000    0.000 
#
# Total GULP energy -145299.053054 kJ/mol
# GULP energy per Si atom -5588.425117 kJ/mol
# Density = 2.428485 g / cm^3
# Si number density = 24.340253 Si / 1000 Ang^3
#
#
#
# Elastic Constant Matrix: (Units=GPa)
#
#
# Indices 1 2 3 4 5 6 
#
# 1 81.3608 0.0610 14.1035 0.0000 -32.0764 0.0000
# 2 0.0610 37.2463 2.1275 0.0000 -3.8989 0.0000
# 3 14.1035 2.1275 59.5574 0.0000 -15.4561 0.0000
# 4 0.0000 0.0000 0.0000 9.9596 0.0000 3.5037
# 5 -32.0764 -3.8989 -15.4561 0.0000 36.1415 0.0000
# 6 0.0000 0.0000 0.0000 3.5037 0.0000 13.6639
#
#
#
# Elastic Compliance Matrix: (Units=1/GPa)
#
#
# Indices 1 2 3 4 5 6 
#
# 1 0.019020 0.001758 -0.000154 0.000000 0.017005 0.000000
# 2 0.001758 0.027320 -0.000250 0.000000 0.004400 0.000000
# 3 -0.000154 -0.000250 0.018890 0.000000 0.007915 0.000000
# 4 0.000000 0.000000 0.000000 0.110360 0.000000 -0.028298
# 5 0.017005 0.004400 0.007915 0.000000 0.046621 0.000000
# 6 0.000000 0.000000 0.000000 -0.028298 0.000000 0.080442
#
#
# Mechanical properties :
#
#
# Convention : Reuss Voigt Hill
#
# Bulk Modulus (GPa) = 14.71935 23.41650 19.06793
# Shear Modulus (GPa) = 15.49946 22.74453 19.12199
#
# Velocity S-wave (km/s) = 2.52619 3.06018 2.80592
# Velocity P-wave (km/s) = 3.81698 4.70400 4.28351
#
# Compressibility (1/GPa) = 0.06793776
#
# Stress axis : x y z
#
# Youngs Moduli (GPa) = 52.57497 36.60283 52.93837
#
# Poissons Ratio (x) = -0.06434 0.00815
# Poissons Ratio (y) = -0.09241 0.01325
# Poissons Ratio (z) = 0.00809 0.00916
#
# Static dielectric constant tensor:
#      x y z
#    x 2.034330 0.000000 -0.031560 
#    y 0.000000 1.935300 0.000000 
#    z -0.031560 0.000000 1.948330 
# 
# From -- ./inp_files/238829.got.cif
#   From: 2010.05.17/outbox.cif.g08.bks.cpg/sg15_120_cif.got.tgz:238829.got - 2010.06.03 18:47:42.
