data_PCOD9261837
_publ_section_title
;
Structure prediction by ZEFSAII (Michael W. Deem and Ramdas Pophale) SiO2 
 PCOD9261837
Probable space group: C 2/C
;
_chemical_formula_sum "Si O2"
_cell_formula_units_Z 48
_cell_length_a 19.749316
_cell_length_b 9.976867
_cell_length_c 28.417187
_cell_angle_alpha 90.000000
_cell_angle_beta 152.189114
_cell_angle_gamma 90.000000
_cell_volume 2612.341170
_symmetry_space_group_name_H-M "C 2/C"
_symmetry_group_IT_number 15
_symmetry_cell_setting 'monoclinic'
loop_
_space_group_symop_operation_xyz
x,y,z
-x,y,1/2-z
-x,-y,-z
x,-y,1/2+z
1/2+x,1/2+y,z
1/2-x,1/2+y,1/2-z
1/2-x,1/2-y,-z
1/2+x,1/2-y,1/2+z
loop_
_atom_site_type_symbol
_atom_site_label
_atom_site_fract_x
_atom_site_fract_y
_atom_site_fract_z
Si Si1 0.205399 0.977645 0.217255
Si Si2 0.068012 0.620894 0.570936
Si Si3 0.927394 0.431796 0.274767
Si Si4 0.720014 0.970526 0.413533
Si Si5 0.960923 0.124846 0.511306
Si Si6 0.474099 0.289251 0.597411
O O1 0.285555 0.927468 0.313185
O O2 0.327854 0.003045 0.252749
O O3 0.103912 0.863167 0.131421
O O4 0.099969 0.103221 0.161687
O O5 0.079846 0.746804 0.543643
O O6 0.970705 0.678235 0.553996
O O7 0.000000 0.500000 0.500000
O O8 0.837775 0.412097 0.171757
O O9 0.978454 0.289899 0.327242
O O10 0.076160 0.508232 0.353561
O O11 0.822379 0.866917 0.504173
O O12 0.827984 0.086438 0.463148
O O13 0.000000 0.000000 0.500000
#
# Coordination Sequence:
#
# PCOD9261837 Si02
#       6
#     8   8   8   8   8   8
#     4  10  21  35  59  86 116 154 194 240 294 343
#     4  11  23  32  58  92 114 148 202 248 282 351
#     4  10  19  31  56  90 106 145 205 234 279 347
#     4  10  19  34  57  83 110 154 188 244 283 348
#     4  11  19  38  59  82 118 155 196 236 297 346
#     4  10  20  36  54  84 119 151 188 246 292 341
#
# _framework density 18.374321999999999
#
# number of rings (size 3 to 8) (size 9 to 14) (size 15 to 20)
#    0.000    1.667    5.000    0.500    7.000    0.000 
#    0.000    0.000    0.000    4.000   47.667    0.000 
#    0.000    0.000    0.000    0.000    0.000    0.000 
#
# Total GULP energy -133820.183298 kJ/mol
# GULP energy per Si atom -5575.840971 kJ/mol
# Density = 1.833250 g / cm^3
# Si number density = 18.374322 Si / 1000 Ang^3
#
#
#
# Elastic Constant Matrix: (Units=GPa)
#
#
# Indices 1 2 3 4 5 6 
#
# 1 70.4849 21.9225 47.4523 0.0000 14.5096 0.0000
# 2 21.9225 62.2081 33.7347 0.0000 -5.2409 0.0000
# 3 47.4523 33.7347 137.7632 -0.0001 -4.7306 0.0000
# 4 0.0000 0.0000 -0.0001 28.0190 0.0000 -9.6529
# 5 14.5096 -5.2409 -4.7306 0.0000 39.6354 0.0000
# 6 0.0000 0.0000 0.0000 -9.6529 0.0000 24.7490
#
#
#
# Elastic Compliance Matrix: (Units=1/GPa)
#
#
# Indices 1 2 3 4 5 6 
#
# 1 0.022290 -0.004985 -0.006787 0.000000 -0.009629 0.000000
# 2 -0.004985 0.019798 -0.002990 0.000000 0.004086 0.000000
# 3 -0.006787 -0.002990 0.010444 0.000000 0.003336 0.000000
# 4 0.000000 0.000000 0.000000 0.041230 0.000000 0.016081
# 5 -0.009629 0.004086 0.003336 0.000000 0.029693 0.000000
# 6 0.000000 0.000000 0.000000 0.016081 0.000000 0.046678
#
#
# Mechanical properties :
#
#
# Convention : Reuss Voigt Hill
#
# Bulk Modulus (GPa) = 43.46994 52.96389 48.21692
# Shear Modulus (GPa) = 24.11641 29.63712 26.87676
#
# Velocity S-wave (km/s) = 3.62678 4.02053 3.82872
# Velocity P-wave (km/s) = 6.42242 7.10214 6.77081
#
# Compressibility (1/GPa) = 0.02300440
#
# Stress axis : x y z
#
# Youngs Moduli (GPa) = 44.86367 50.51034 95.75237
#
# Poissons Ratio (x) = 0.25182 0.64992
# Poissons Ratio (y) = 0.22367 0.28634
# Poissons Ratio (z) = 0.30451 0.15105
#
# Static dielectric constant tensor:
#      x y z
#    x 1.655060 0.000000 -0.002400 
#    y 0.000000 1.630970 0.000000 
#    z -0.002400 0.000000 1.672370 
# 
# From -- ./inp_files/298801.got.cif
#   From: 2010.05.17/outbox.cif.g08.bks.cpg/sg15_150_cif.got.tgz:298801.got - 2010.06.03 18:47:42.
