data_PCOD9261592
_publ_section_title
;
Structure prediction by ZEFSAII (Michael W. Deem and Ramdas Pophale) SiO2 
 PCOD9261592
Probable space group: C 2/C
;
_chemical_formula_sum "Si O2"
_cell_formula_units_Z 56
_cell_length_a 14.793288
_cell_length_b 17.269258
_cell_length_c 13.185768
_cell_angle_alpha 90.000000
_cell_angle_beta 59.951544
_cell_angle_gamma 90.000000
_cell_volume 2915.829932
_symmetry_space_group_name_H-M "C 2/C"
_symmetry_group_IT_number 15
_symmetry_cell_setting 'monoclinic'
loop_
_space_group_symop_operation_xyz
x,y,z
-x,y,1/2-z
-x,-y,-z
x,-y,1/2+z
1/2+x,1/2+y,z
1/2-x,1/2+y,1/2-z
1/2-x,1/2-y,-z
1/2+x,1/2-y,1/2+z
loop_
_atom_site_type_symbol
_atom_site_label
_atom_site_fract_x
_atom_site_fract_y
_atom_site_fract_z
Si Si1 0.813132 0.130132 0.546317
Si Si2 0.477365 0.906660 0.011143
Si Si3 0.292259 0.530223 0.180037
Si Si4 0.389164 0.946437 0.865100
Si Si5 0.896441 0.687276 0.737672
Si Si6 0.192920 0.574903 0.438057
Si Si7 0.966306 0.147604 0.151637
O O1 0.714207 0.175919 0.646086
O O2 0.783096 0.120063 0.444355
O O3 0.929918 0.161737 0.473711
O O4 0.817026 0.050001 0.608997
O O5 0.412585 0.877433 0.142580
O O6 0.417540 0.888758 0.940901
O O7 0.595531 0.875113 0.952924
O O8 0.500000 0.000000 0.000000
O O9 0.203158 0.572044 0.160970
O O10 0.238445 0.524009 0.321122
O O11 0.395315 0.580566 0.142859
O O12 0.500000 0.961761 0.750000
O O13 0.350556 0.023160 0.944853
O O14 0.902432 0.772826 0.689130
O O15 0.000000 0.680070 0.750000
O O16 0.000000 0.130023 0.250000
#
# Coordination Sequence:
#
# PCOD9261592 Si02
#       7
#     8   8   8   8   8   8   8
#     4  11  22  39  64  88 124 164 205 258 309 362
#     4  10  19  33  55  92 126 152 201 255 302 370
#     4  11  22  39  61  89 123 169 212 255 298 369
#     4  10  20  30  54  91 121 157 196 257 313 340
#     4  11  24  39  65  94 130 161 201 258 327 370
#     4  10  19  30  57  89 126 149 202 255 303 356
#     4  11  25  43  60  91 128 167 208 250 312 381
#
# _framework density 19.20551
#
# number of rings (size 3 to 8) (size 9 to 14) (size 15 to 20)
#    0.000    1.429    4.286    2.143    6.000    3.429 
#    0.000    0.714    0.000    0.000    0.000    0.000 
#    0.000    0.000    0.000    0.000    0.000    0.000 
#
# Total GULP energy -156040.826442 kJ/mol
# GULP energy per Si atom -5572.886659 kJ/mol
# Density = 1.916180 g / cm^3
# Si number density = 19.205510 Si / 1000 Ang^3
#
#
#
# Elastic Constant Matrix: (Units=GPa)
#
#
# Indices 1 2 3 4 5 6 
#
# 1 96.2340 33.8750 35.8842 0.0000 -15.1066 0.0000
# 2 33.8750 57.8089 20.4355 0.0000 -6.0914 0.0000
# 3 35.8842 20.4355 98.4506 0.0000 -15.7486 0.0000
# 4 0.0000 0.0000 0.0000 18.6645 0.0000 -6.2200
# 5 -15.1066 -6.0914 -15.7486 0.0000 41.2972 0.0000
# 6 0.0000 0.0000 0.0000 -6.2200 0.0000 18.0793
#
#
#
# Elastic Compliance Matrix: (Units=1/GPa)
#
#
# Indices 1 2 3 4 5 6 
#
# 1 0.014605 -0.007046 -0.003378 0.000000 0.003015 0.000000
# 2 -0.007046 0.022139 -0.002042 0.000000 -0.000091 0.000000
# 3 -0.003378 -0.002042 0.012318 0.000000 0.003160 0.000000
# 4 0.000000 0.000000 0.000000 0.060516 0.000000 0.020820
# 5 0.003015 -0.000091 0.003160 0.000000 0.026509 0.000000
# 6 0.000000 0.000000 0.000000 0.020820 0.000000 0.062475
#
#
# Mechanical properties :
#
#
# Convention : Reuss Voigt Hill
#
# Bulk Modulus (GPa) = 41.44273 48.09811 44.77042
# Shear Modulus (GPa) = 21.59467 26.42811 24.01139
#
# Velocity S-wave (km/s) = 3.35684 3.71356 3.53970
# Velocity P-wave (km/s) = 6.05392 6.59437 6.32991
#
# Compressibility (1/GPa) = 0.02412969
#
# Stress axis : x y z
#
# Youngs Moduli (GPa) = 68.47146 45.16815 81.18098
#
# Poissons Ratio (x) = 0.31826 0.27426
# Poissons Ratio (y) = 0.48246 0.16575
# Poissons Ratio (z) = 0.23132 0.09222
#
# Static dielectric constant tensor:
#      x y z
#    x 1.826730 0.000000 -0.042420 
#    y 0.000000 1.699300 0.000000 
#    z -0.042420 0.000000 1.722130 
# 
# From -- ./inp_files/98682.got.cif
#   From: 2010.05.17/outbox.cif.g08.bks.cpg/sg15_50_cif.got.tgz:98682.got - 2010.06.03 18:47:42.
