data_PCOD9261474
_publ_section_title
;
Structure prediction by ZEFSAII (Michael W. Deem and Ramdas Pophale) SiO2 
 PCOD9261474
Probable space group: C 2/C
;
_chemical_formula_sum "Si O2"
_cell_formula_units_Z 56
_cell_length_a 21.831696
_cell_length_b 6.743858
_cell_length_c 22.183783
_cell_angle_alpha 90.000000
_cell_angle_beta 52.726850
_cell_angle_gamma 90.000000
_cell_volume 2599.035261
_symmetry_space_group_name_H-M "C 2/C"
_symmetry_group_IT_number 15
_symmetry_cell_setting 'monoclinic'
loop_
_space_group_symop_operation_xyz
x,y,z
-x,y,1/2-z
-x,-y,-z
x,-y,1/2+z
1/2+x,1/2+y,z
1/2-x,1/2+y,1/2-z
1/2-x,1/2-y,-z
1/2+x,1/2-y,1/2+z
loop_
_atom_site_type_symbol
_atom_site_label
_atom_site_fract_x
_atom_site_fract_y
_atom_site_fract_z
Si Si1 0.332678 0.665948 0.211803
Si Si2 0.170448 0.380269 0.744358
Si Si3 0.557291 0.735244 0.453654
Si Si4 0.832492 0.283067 0.004268
Si Si5 0.810350 0.478064 0.900882
Si Si6 0.101085 0.300986 0.904611
Si Si7 0.758662 0.128873 0.373630
O O1 0.257941 0.661634 0.213267
O O2 0.403228 0.622460 0.125515
O O3 0.311299 0.553256 0.286517
O O4 0.341165 0.887600 0.232337
O O5 0.163514 0.374308 0.676840
O O6 0.114486 0.272482 0.825200
O O7 0.600795 0.713270 0.491200
O O8 0.467561 0.699875 0.517896
O O9 0.576863 0.966720 0.426576
O O10 0.774966 0.098998 0.030048
O O11 0.779726 0.448668 0.068518
O O12 0.859630 0.394127 0.927316
O O13 0.801567 0.711096 0.890325
O O14 0.184530 0.267798 0.885393
#
# Coordination Sequence:
#
# PCOD9261474 Si02
#       7
#     8   8   8   8   8   8   8
#     4   9  16  26  48  68  93 118 154 203 242 283
#     4   9  16  28  44  69  92 121 159 199 240 282
#     4   9  15  29  47  72  97 124 160 192 248 296
#     4  10  19  31  48  69  96 130 154 198 242 277
#     4  10  19  30  48  71  95 123 167 196 227 292
#     4   8  16  28  49  70  97 126 151 203 250 284
#     4   9  18  32  49  72  96 121 160 203 243 281
#
# _framework density 21.546457
#
# number of rings (size 3 to 8) (size 9 to 14) (size 15 to 20)
#    0.000    2.857    1.429    1.286    0.000    0.000 
#    0.000    1.429    0.000    0.000    0.000    5.000 
#    0.000    0.000    0.000    0.000    0.000    0.000 
#
# Total GULP energy -156162.776777 kJ/mol
# GULP energy per Si atom -5577.242028 kJ/mol
# Density = 2.149742 g / cm^3
# Si number density = 21.546457 Si / 1000 Ang^3
#
#
#
# Elastic Constant Matrix: (Units=GPa)
#
#
# Indices 1 2 3 4 5 6 
#
# 1 36.6477 3.8497 43.3909 0.0018 9.0467 -0.0058
# 2 3.8497 55.2589 17.1648 0.0108 7.6811 -0.0033
# 3 43.3909 17.1648 164.4146 -0.0068 8.4912 0.0057
# 4 0.0018 0.0108 -0.0068 40.4293 -0.0035 0.7543
# 5 9.0467 7.6811 8.4912 -0.0035 36.7398 0.0053
# 6 -0.0058 -0.0033 0.0057 0.7543 0.0053 16.3219
#
#
#
# Elastic Compliance Matrix: (Units=1/GPa)
#
#
# Indices 1 2 3 4 5 6 
#
# 1 0.041934 0.001570 -0.010809 -0.000005 -0.008156 0.000022
# 2 0.001570 0.019218 -0.002220 -0.000006 -0.003891 0.000007
# 3 -0.010809 -0.002220 0.009114 0.000003 0.001019 -0.000008
# 4 -0.000005 -0.000006 0.000003 0.024756 0.000004 -0.001144
# 5 -0.008156 -0.003891 0.001019 0.000004 0.029805 -0.000014
# 6 0.000022 0.000007 -0.000008 -0.001144 -0.000014 0.061320
#
#
# Mechanical properties :
#
#
# Convention : Reuss Voigt Hill
#
# Bulk Modulus (GPa) = 21.12071 42.79244 31.95658
# Shear Modulus (GPa) = 22.23736 31.49257 26.86496
#
# Velocity S-wave (km/s) = 3.21606 3.82725 3.53489
# Velocity P-wave (km/s) = 4.85947 6.27966 5.61465
#
# Compressibility (1/GPa) = 0.04734688
#
# Stress axis : x y z
#
# Youngs Moduli (GPa) = 23.84721 52.03548 109.72112
#
# Poissons Ratio (x) = -0.08169 1.18603
# Poissons Ratio (y) = -0.03744 0.24354
# Poissons Ratio (z) = 0.25778 0.11550
#
# Static dielectric constant tensor:
#      x y z
#    x 1.757520 0.000000 0.027990 
#    y 0.000000 1.947820 0.000000 
#    z 0.027990 0.000000 1.825420 
# 
# From -- ./inp_files/218193.got.cif
#   From: 2010.05.17/outbox.cif.g08.bks.cpg/sg15_110_cif.got.tgz:218193.got - 2010.06.03 18:47:42.
