data_PCOD9261240
_publ_section_title
;
Structure prediction by ZEFSAII (Michael W. Deem and Ramdas Pophale) SiO2 
 PCOD9261240
Probable space group: C 2/C
;
_chemical_formula_sum "Si O2"
_cell_formula_units_Z 48
_cell_length_a 14.707869
_cell_length_b 8.888184
_cell_length_c 28.208444
_cell_angle_alpha 90.000000
_cell_angle_beta 142.388107
_cell_angle_gamma 90.000000
_cell_volume 2250.567937
_symmetry_space_group_name_H-M "C 2/C"
_symmetry_group_IT_number 15
_symmetry_cell_setting 'monoclinic'
loop_
_space_group_symop_operation_xyz
x,y,z
-x,y,1/2-z
-x,-y,-z
x,-y,1/2+z
1/2+x,1/2+y,z
1/2-x,1/2+y,1/2-z
1/2-x,1/2-y,-z
1/2+x,1/2-y,1/2+z
loop_
_atom_site_type_symbol
_atom_site_label
_atom_site_fract_x
_atom_site_fract_y
_atom_site_fract_z
Si Si1 0.524401 0.384389 0.157119
Si Si2 0.634270 0.628752 0.469658
Si Si3 0.500000 0.477295 0.750000
Si Si4 0.997338 0.182719 0.503502
Si Si5 0.192570 0.348701 0.913288
Si Si6 0.500000 0.014678 0.250000
Si Si7 0.237108 0.275178 0.313686
O O1 0.479037 0.538639 0.111304
O O2 0.492431 0.421128 0.199266
O O3 0.403342 0.258103 0.093094
O O4 0.681390 0.313674 0.203342
O O5 0.750000 0.750000 0.500000
O O6 0.538789 0.724021 0.467790
O O7 0.739124 0.498486 0.535411
O O8 0.363029 0.368146 0.710943
O O9 0.124978 0.222395 0.593022
O O10 0.836479 0.236231 0.452353
O O11 0.000000 0.000000 0.500000
O O12 0.085785 0.396619 0.826166
O O13 0.625084 0.912055 0.276991
#
# Coordination Sequence:
#
# PCOD9261240 Si02
#       7
#     8   8   4   8   8   4   8
#     4  12  25  46  67 101 144 183 236 298 360 428
#     4  11  22  41  69 101 134 182 236 290 354 433
#     4  11  29  48  66 110 150 184 250 306 354 434
#     4  10  18  42  65  96 130 178 232 279 343 432
#     4  11  23  41  68 101 137 178 236 288 356 424
#     4  11  21  40  68 100 130 188 234 282 354 430
#     4  11  23  44  72  93 145 187 230 298 360 419
#
# _framework density 21.327949
#
# number of rings (size 3 to 8) (size 9 to 14) (size 15 to 20)
#    0.000    1.000    6.667    2.000    4.667    0.000 
#    6.000    1.667    0.000    0.000    0.000    0.000 
#    0.000    0.000    0.000    0.000    0.000    0.000 
#
# Total GULP energy -133682.913498 kJ/mol
# GULP energy per Si atom -5570.121396 kJ/mol
# Density = 2.127941 g / cm^3
# Si number density = 21.327949 Si / 1000 Ang^3
#
#
#
# Elastic Constant Matrix: (Units=GPa)
#
#
# Indices 1 2 3 4 5 6 
#
# 1 184.6548 47.5332 34.7281 0.0000 17.6132 0.0000
# 2 47.5332 63.9767 17.0584 0.0000 9.4108 0.0000
# 3 34.7281 17.0584 89.5678 0.0000 1.3746 0.0000
# 4 0.0000 0.0000 0.0000 14.9468 0.0000 5.3446
# 5 17.6132 9.4108 1.3746 0.0000 46.4357 0.0000
# 6 0.0000 0.0000 0.0000 5.3446 0.0000 29.0161
#
#
#
# Elastic Compliance Matrix: (Units=1/GPa)
#
#
# Indices 1 2 3 4 5 6 
#
# 1 0.007094 -0.004521 -0.001863 0.000000 -0.001719 0.000000
# 2 -0.004521 0.019852 -0.001994 0.000000 -0.002250 0.000000
# 3 -0.001863 -0.001994 0.012255 0.000000 0.000748 0.000000
# 4 0.000000 0.000000 0.000000 0.071621 0.000000 -0.013192
# 5 -0.001719 -0.002250 0.000748 0.000000 0.022621 0.000000
# 6 0.000000 0.000000 0.000000 -0.013192 0.000000 0.036894
#
#
# Mechanical properties :
#
#
# Convention : Reuss Voigt Hill
#
# Bulk Modulus (GPa) = 44.55086 59.64875 52.09980
# Shear Modulus (GPa) = 25.69725 34.00504 29.85114
#
# Velocity S-wave (km/s) = 3.47488 3.99731 3.74522
# Velocity P-wave (km/s) = 6.08552 7.02373 6.57139
#
# Compressibility (1/GPa) = 0.02244626
#
# Stress axis : x y z
#
# Youngs Moduli (GPa) = 140.97234 50.37299 81.59760
#
# Poissons Ratio (x) = 0.22772 0.15202
# Poissons Ratio (y) = 0.63730 0.16267
# Poissons Ratio (z) = 0.26264 0.10042
#
# Static dielectric constant tensor:
#      x y z
#    x 1.705550 0.000000 -0.032940 
#    y 0.000000 1.772250 0.000000 
#    z -0.032940 0.000000 1.771920 
# 
# From -- ./inp_files/295489.got.cif
#   From: 2010.05.17/outbox.cif.g08.bks.cpg/sg15_148_cif.got.tgz:295489.got - 2010.06.03 18:47:42.
