data_PCOD9261636
_publ_section_title
;
Structure prediction by ZEFSAII (Michael W. Deem and Ramdas Pophale) SiO2 
 PCOD9261636
Probable space group: C 2/C
;
_chemical_formula_sum "Si O2"
_cell_formula_units_Z 48
_cell_length_a 5.292876
_cell_length_b 21.179814
_cell_length_c 16.968671
_cell_angle_alpha 90.000000
_cell_angle_beta 88.503135
_cell_angle_gamma 90.000000
_cell_volume 1901.575026
_symmetry_space_group_name_H-M "C 2/C"
_symmetry_group_IT_number 15
_symmetry_cell_setting 'monoclinic'
loop_
_space_group_symop_operation_xyz
x,y,z
-x,y,1/2-z
-x,-y,-z
x,-y,1/2+z
1/2+x,1/2+y,z
1/2-x,1/2+y,1/2-z
1/2-x,1/2-y,-z
1/2+x,1/2-y,1/2+z
loop_
_atom_site_type_symbol
_atom_site_label
_atom_site_fract_x
_atom_site_fract_y
_atom_site_fract_z
Si Si1 0.500000 0.508617 0.250000
Si Si2 0.715121 0.403002 0.131188
Si Si3 0.000000 0.409059 0.750000
Si Si4 0.257361 0.913034 0.536079
Si Si5 0.258955 0.543118 0.045946
Si Si6 0.266217 0.786208 0.702029
Si Si7 0.710060 0.829671 0.104538
O O1 0.622413 0.461176 0.184455
O O2 0.249140 0.548972 0.228590
O O3 0.761426 0.426884 0.041593
O O4 0.478451 0.356039 0.131146
O O5 0.975258 0.366053 0.148399
O O6 0.119536 0.356002 0.809850
O O7 0.488195 0.941487 0.581889
O O8 0.299907 0.849182 0.487806
O O9 0.992318 0.920382 0.581375
O O10 0.218207 0.968481 0.467854
O O11 0.500000 0.755615 0.750000
O O12 0.208132 0.743419 0.627042
O O13 0.000000 0.790518 0.750000
#
# Coordination Sequence:
#
# PCOD9261636 Si02
#       7
#     4   8   4   8   8   8   8
#     4  12  22  35  48  67  98 132 168 194 228 284
#     4  10  21  29  47  74 103 126 150 190 243 294
#     4  10  22  39  48  63  86 134 182 196 224 272
#     4   8  14  25  44  62  96 123 148 180 219 298
#     4   8  14  27  40  64  94 128 150 173 223 284
#     4  10  20  34  52  66  93 123 162 208 234 280
#     4  10  19  31  47  78  98 121 150 191 260 284
#
# _framework density 25.242232999999999
#
# number of rings (size 3 to 8) (size 9 to 14) (size 15 to 20)
#    0.500    2.000    0.833    2.000    3.500    0.000 
#    0.000    0.000    0.000    0.000    0.000    2.333 
#    0.000    0.167    0.000    0.000    0.000    0.000 
#
# Total GULP energy -133908.070181 kJ/mol
# GULP energy per Si atom -5579.502924 kJ/mol
# Density = 2.518478 g / cm^3
# Si number density = 25.242233 Si / 1000 Ang^3
#
#
#
# Elastic Constant Matrix: (Units=GPa)
#
#
# Indices 1 2 3 4 5 6 
#
# 1 199.9113 24.6308 20.5563 0.0000 -24.7216 0.0000
# 2 24.6308 105.1308 42.5393 0.0000 -17.4184 0.0000
# 3 20.5563 42.5393 49.6092 0.0000 -14.4917 0.0000
# 4 0.0000 0.0000 0.0000 32.0947 0.0000 8.3924
# 5 -24.7216 -17.4184 -14.4917 0.0000 28.4355 0.0000
# 6 0.0000 0.0000 0.0000 8.3924 0.0000 17.7576
#
#
#
# Elastic Compliance Matrix: (Units=1/GPa)
#
#
# Indices 1 2 3 4 5 6 
#
# 1 0.005657 -0.000263 -0.000856 0.000000 0.004321 0.000000
# 2 -0.000263 0.014800 -0.011749 0.000000 0.002849 0.000000
# 3 -0.000856 -0.011749 0.033212 0.000000 0.008984 0.000000
# 4 0.000000 0.000000 0.000000 0.035551 0.000000 -0.016802
# 5 0.004321 0.002849 0.008984 0.000000 0.045248 0.000000
# 6 0.000000 0.000000 0.000000 -0.016802 0.000000 0.064254
#
#
# Mechanical properties :
#
#
# Convention : Reuss Voigt Hill
#
# Bulk Modulus (GPa) = 35.80256 58.90045 47.35150
# Shear Modulus (GPa) = 21.38857 33.45257 27.42057
#
# Velocity S-wave (km/s) = 2.91406 3.64436 3.29948
# Velocity P-wave (km/s) = 5.05338 6.41040 5.77191
#
# Compressibility (1/GPa) = 0.02793096
#
# Stress axis : x y z
#
# Youngs Moduli (GPa) = 176.77278 67.56836 30.10983
#
# Poissons Ratio (x) = 0.01777 0.02579
# Poissons Ratio (y) = 0.04648 0.35377
# Poissons Ratio (z) = 0.15140 0.79389
#
# Static dielectric constant tensor:
#      x y z
#    x 2.083000 0.000000 0.039940 
#    y 0.000000 1.964250 0.000000 
#    z 0.039940 0.000000 2.110940 
# 
# From -- ./inp_files/261014.got.cif
#   From: 2010.05.17/outbox.cif.g08.bks.cpg/sg15_131_cif.got.tgz:261014.got - 2010.06.03 18:47:42.
