data_PCOD9261824
_publ_section_title
;
Structure prediction by ZEFSAII (Michael W. Deem and Ramdas Pophale) SiO2 
 PCOD9261824
Probable space group: C 2/C
;
_chemical_formula_sum "Si O2"
_cell_formula_units_Z 44
_cell_length_a 16.319163
_cell_length_b 16.625927
_cell_length_c 9.269185
_cell_angle_alpha 90.000000
_cell_angle_beta 101.537114
_cell_angle_gamma 90.000000
_cell_volume 2464.113321
_symmetry_space_group_name_H-M "C 2/C"
_symmetry_group_IT_number 15
_symmetry_cell_setting 'monoclinic'
loop_
_space_group_symop_operation_xyz
x,y,z
-x,y,1/2-z
-x,-y,-z
x,-y,1/2+z
1/2+x,1/2+y,z
1/2-x,1/2+y,1/2-z
1/2-x,1/2-y,-z
1/2+x,1/2-y,1/2+z
loop_
_atom_site_type_symbol
_atom_site_label
_atom_site_fract_x
_atom_site_fract_y
_atom_site_fract_z
Si Si1 0.136101 0.013189 0.109803
Si Si2 0.000000 0.504998 0.250000
Si Si3 0.290897 0.393533 0.590864
Si Si4 0.591294 0.101281 0.026948
Si Si5 0.512468 0.603236 0.902853
Si Si6 0.063026 0.774463 0.903249
O O1 0.178078 0.057920 0.257128
O O2 0.104879 0.074996 0.975645
O O3 0.050269 0.972452 0.135357
O O4 0.187312 0.944275 0.046094
O O5 0.054669 0.559246 0.158308
O O6 0.057377 0.449998 0.376617
O O7 0.191412 0.391491 0.564944
O O8 0.345129 0.310506 0.605362
O O9 0.563781 0.193252 0.995153
O O10 0.500000 0.649938 0.750000
O O11 0.478719 0.654116 0.022243
O O12 0.000000 0.759774 0.750000
#
# Coordination Sequence:
#
# PCOD9261824 Si02
#       6
#     8   4   8   8   8   8
#     4  10  19  31  55  86 121 153 189 224 278 342
#     4  10  24  44  68  80 104 156 200 258 288 338
#     4  11  21  36  59  90 121 155 188 242 279 344
#     4  11  23  43  63  85 111 149 206 243 296 335
#     4  10  19  32  54  84 121 158 185 218 281 350
#     4  11  22  37  60  86 122 158 186 230 294 355
#
# _framework density 17.856321999999999
#
# number of rings (size 3 to 8) (size 9 to 14) (size 15 to 20)
#    0.000    1.455    4.545    1.636    1.273    0.000 
#    0.000    0.000    0.000    2.182    0.000    0.000 
#    0.000    0.000    0.000    0.000    0.000    0.000 
#
# Total GULP energy -122583.713759 kJ/mol
# GULP energy per Si atom -5571.986989 kJ/mol
# Density = 1.781568 g / cm^3
# Si number density = 17.856322 Si / 1000 Ang^3
#
#
#
# Elastic Constant Matrix: (Units=GPa)
#
#
# Indices 1 2 3 4 5 6 
#
# 1 77.9483 20.2871 2.2732 0.0000 5.2963 0.0000
# 2 20.2871 79.8089 7.4097 0.0000 4.4341 0.0000
# 3 2.2732 7.4097 56.7877 0.0000 1.0388 0.0000
# 4 0.0000 0.0000 0.0000 29.1471 0.0000 3.4308
# 5 5.2963 4.4341 1.0388 0.0000 24.3476 0.0000
# 6 0.0000 0.0000 0.0000 3.4308 0.0000 11.9052
#
#
#
# Elastic Compliance Matrix: (Units=1/GPa)
#
#
# Indices 1 2 3 4 5 6 
#
# 1 0.013876 -0.003387 -0.000070 0.000000 -0.002398 0.000000
# 2 -0.003387 0.013634 -0.001613 0.000000 -0.001677 0.000000
# 3 -0.000070 -0.001613 0.017831 0.000000 -0.000452 0.000000
# 4 0.000000 0.000000 0.000000 0.035513 0.000000 -0.010234
# 5 -0.002398 -0.001677 -0.000452 0.000000 0.041918 0.000000
# 6 0.000000 0.000000 0.000000 -0.010234 0.000000 0.086946
#
#
# Mechanical properties :
#
#
# Convention : Reuss Voigt Hill
#
# Bulk Modulus (GPa) = 28.40816 30.49831 29.45323
# Shear Modulus (GPa) = 21.58975 25.38497 23.48736
#
# Velocity S-wave (km/s) = 3.48096 3.77453 3.63071
# Velocity P-wave (km/s) = 5.66568 6.00941 5.84008
#
# Compressibility (1/GPa) = 0.03520116
#
# Stress axis : x y z
#
# Youngs Moduli (GPa) = 72.06872 73.34654 56.08238
#
# Poissons Ratio (x) = 0.24846 0.00390
# Poissons Ratio (y) = 0.24413 0.09044
# Poissons Ratio (z) = 0.00501 0.11828
#
# Static dielectric constant tensor:
#      x y z
#    x 1.622350 0.000000 -0.003830 
#    y 0.000000 1.609610 0.000000 
#    z -0.003830 0.000000 1.676760 
# 
# From -- ./inp_files/39060.got.cif
#   From: 2010.05.17/outbox.cif.g08.bks.cpg/sg15_20_cif.got.tgz:39060.got - 2010.06.03 18:47:42.
