data_PCOD9261823
_publ_section_title
;
Structure prediction by ZEFSAII (Michael W. Deem and Ramdas Pophale) SiO2 
 PCOD9261823
Probable space group: C 2/C
;
_chemical_formula_sum "Si O2"
_cell_formula_units_Z 56
_cell_length_a 14.565225
_cell_length_b 17.166656
_cell_length_c 14.830862
_cell_angle_alpha 90.000000
_cell_angle_beta 125.031314
_cell_angle_gamma 90.000000
_cell_volume 3036.459693
_symmetry_space_group_name_H-M "C 2/C"
_symmetry_group_IT_number 15
_symmetry_cell_setting 'monoclinic'
loop_
_space_group_symop_operation_xyz
x,y,z
-x,y,1/2-z
-x,-y,-z
x,-y,1/2+z
1/2+x,1/2+y,z
1/2-x,1/2+y,1/2-z
1/2-x,1/2-y,-z
1/2+x,1/2-y,1/2+z
loop_
_atom_site_type_symbol
_atom_site_label
_atom_site_fract_x
_atom_site_fract_y
_atom_site_fract_z
Si Si1 0.299933 0.353804 0.269542
Si Si2 0.676334 0.640522 0.419979
Si Si3 0.864218 0.018677 0.666428
Si Si4 0.183052 0.867180 0.517012
Si Si5 0.012898 0.092270 0.486699
Si Si6 0.633091 0.184271 0.832443
Si Si7 0.128341 0.736138 0.340339
O O1 0.303617 0.428487 0.206515
O O2 0.407931 0.367995 0.393510
O O3 0.194772 0.342052 0.275446
O O4 0.316281 0.280603 0.212969
O O5 0.676979 0.569401 0.351039
O O6 0.574038 0.615012 0.428936
O O7 0.650511 0.723355 0.360573
O O8 0.791062 0.646547 0.543797
O O9 0.832483 0.056151 0.551958
O O10 0.000000 0.025381 0.750000
O O11 0.139739 0.795414 0.430904
O O12 0.309391 0.844189 0.606998
O O13 0.110077 0.873835 0.565683
O O14 0.000000 0.000000 0.500000
O O15 0.500000 0.167620 0.750000
O O16 0.000000 0.724395 0.250000
#
# Coordination Sequence:
#
# PCOD9261823 Si02
#       7
#     8   8   8   8   8   8   8
#     4  10  20  36  58  82 114 147 193 235 289 326
#     4  10  22  37  60  84 115 146 194 235 289 337
#     4  11  18  37  61  90 111 139 188 251 285 327
#     4  10  19  31  55  86 115 146 187 228 291 327
#     4  11  18  33  59  88 111 143 186 251 282 325
#     4  10  23  41  54  82 118 157 186 234 279 353
#     4  10  19  35  54  83 119 152 181 231 278 353
#
# _framework density 18.442530000000001
#
# number of rings (size 3 to 8) (size 9 to 14) (size 15 to 20)
#    0.000    1.714    4.286    1.286    2.000    0.000 
#    0.000    1.429    0.000    0.000    0.000    0.000 
#    0.000    0.000    0.000    0.000    0.000    0.000 
#
# Total GULP energy -156181.430269 kJ/mol
# GULP energy per Si atom -5577.908224 kJ/mol
# Density = 1.840055 g / cm^3
# Si number density = 18.442530 Si / 1000 Ang^3
#
#
#
# Elastic Constant Matrix: (Units=GPa)
#
#
# Indices 1 2 3 4 5 6 
#
# 1 116.1797 38.8615 36.7379 0.0000 11.5745 0.0000
# 2 38.8615 81.8874 17.2773 0.0000 2.6659 0.0000
# 3 36.7379 17.2773 43.6385 0.0000 8.2081 0.0000
# 4 0.0000 0.0000 0.0000 20.4315 0.0000 7.7062
# 5 11.5745 2.6659 8.2081 0.0000 30.0548 0.0000
# 6 0.0000 0.0000 0.0000 7.7062 0.0000 18.0183
#
#
#
# Elastic Compliance Matrix: (Units=1/GPa)
#
#
# Indices 1 2 3 4 5 6 
#
# 1 0.013064 -0.004250 -0.008897 0.000000 -0.002224 0.000000
# 2 -0.004250 0.014710 -0.002433 0.000000 0.000997 0.000000
# 3 -0.008897 -0.002433 0.032346 0.000000 -0.005192 0.000000
# 4 0.000000 0.000000 0.000000 0.058358 0.000000 -0.024959
# 5 -0.002224 0.000997 -0.005192 0.000000 0.035459 0.000000
# 6 0.000000 0.000000 0.000000 -0.024959 0.000000 0.066174
#
#
# Mechanical properties :
#
#
# Convention : Reuss Voigt Hill
#
# Bulk Modulus (GPa) = 34.53228 47.49543 41.01385
# Shear Modulus (GPa) = 19.16270 23.62284 21.39277
#
# Velocity S-wave (km/s) = 3.22693 3.58283 3.40953
# Velocity P-wave (km/s) = 5.71393 6.55170 6.14710
#
# Compressibility (1/GPa) = 0.02895841
#
# Stress axis : x y z
#
# Youngs Moduli (GPa) = 76.54612 67.98160 30.91616
#
# Poissons Ratio (x) = 0.28894 0.27506
# Poissons Ratio (y) = 0.32534 0.07523
# Poissons Ratio (z) = 0.68104 0.16541
#
# Static dielectric constant tensor:
#      x y z
#    x 1.631330 0.000000 -0.025900 
#    y 0.000000 1.641510 0.000000 
#    z -0.025900 0.000000 1.669410 
# 
# From -- ./inp_files/155242.got.cif
#   From: 2010.05.17/outbox.cif.g08.bks.cpg/sg15_78_cif.got.tgz:155242.got - 2010.06.03 18:47:42.
