data_PCOD9261724
_publ_section_title
;
Structure prediction by ZEFSAII (Michael W. Deem and Ramdas Pophale) SiO2 
 PCOD9261724
Probable space group: C 2/C
;
_chemical_formula_sum "Si O2"
_cell_formula_units_Z 40
_cell_length_a 11.021804
_cell_length_b 35.972071
_cell_length_c 5.118879
_cell_angle_alpha 90.000000
_cell_angle_beta 81.248496
_cell_angle_gamma 90.000000
_cell_volume 2005.889750
_symmetry_space_group_name_H-M "C 2/C"
_symmetry_group_IT_number 15
_symmetry_cell_setting 'monoclinic'
loop_
_space_group_symop_operation_xyz
x,y,z
-x,y,1/2-z
-x,-y,-z
x,-y,1/2+z
1/2+x,1/2+y,z
1/2-x,1/2+y,1/2-z
1/2-x,1/2-y,-z
1/2+x,1/2-y,1/2+z
loop_
_atom_site_type_symbol
_atom_site_label
_atom_site_fract_x
_atom_site_fract_y
_atom_site_fract_z
Si Si1 0.000000 0.076257 0.250000
Si Si2 0.500000 0.248798 0.250000
Si Si3 0.500000 0.624870 0.750000
Si Si4 0.500000 0.026742 0.250000
Si Si5 0.689568 0.312811 0.022500
Si Si6 0.183290 0.289880 0.025253
Si Si7 0.770784 0.974015 0.654821
O O1 0.961094 0.100611 0.513243
O O2 0.885076 0.052120 0.184440
O O3 0.601343 0.276548 0.091650
O O4 0.446400 0.221923 0.047262
O O5 0.391405 0.651684 0.883046
O O6 0.364749 0.045307 0.285363
O O7 0.500000 0.000000 0.500000
O O8 0.796037 0.307738 0.201572
O O9 0.744058 0.313528 0.716360
O O10 0.250000 0.250000 0.000000
O O11 0.777833 0.992953 0.367835
#
# Coordination Sequence:
#
# PCOD9261724 Si02
#       7
#     4   4   4   4   8   8   8
#     4  12  22  35  58  83 108 146 194 231 258 317
#     4   9  18  30  52  78  98 122 164 220 280 318
#     4  11  24  39  54  72 104 153 188 212 262 326
#     4   8  16  30  52  79 112 145 166 199 276 347
#     4  10  21  35  50  72 105 136 170 217 265 327
#     4  10  19  31  51  77 100 125 161 212 273 327
#     4  10  19  34  56  87 118 141 174 232 287 317
#
# _framework density 19.941275999999998
#
# number of rings (size 3 to 8) (size 9 to 14) (size 15 to 20)
#    0.000    2.000    0.000    5.400    0.000   10.400 
#    0.000    0.000    0.000    7.200    0.000    0.000 
#    0.000    0.000    0.000    0.000    0.000    0.000 
#
# Total GULP energy -111596.464270 kJ/mol
# GULP energy per Si atom -5579.823213 kJ/mol
# Density = 1.989589 g / cm^3
# Si number density = 19.941276 Si / 1000 Ang^3
#
#
#
# Elastic Constant Matrix: (Units=GPa)
#
#
# Indices 1 2 3 4 5 6 
#
# 1 132.4335 31.1893 4.7315 0.0000 8.8385 0.0000
# 2 31.1893 42.7754 2.3262 0.0000 -5.0903 0.0000
# 3 4.7315 2.3262 75.3019 0.0000 0.3229 0.0000
# 4 0.0000 0.0000 0.0000 21.6110 0.0000 -1.3671
# 5 8.8385 -5.0903 0.3229 0.0000 30.3801 0.0000
# 6 0.0000 0.0000 0.0000 -1.3671 0.0000 1.7213
#
#
#
# Elastic Compliance Matrix: (Units=1/GPa)
#
#
# Indices 1 2 3 4 5 6 
#
# 1 0.009588 -0.007452 -0.000355 0.000000 -0.004034 0.000000
# 2 -0.007452 0.029688 -0.000480 0.000000 0.007147 0.000000
# 3 -0.000355 -0.000480 0.013318 0.000000 -0.000119 0.000000
# 4 0.000000 0.000000 0.000000 0.048721 0.000000 0.038694
# 5 -0.004034 0.007147 -0.000119 0.000000 0.035289 0.000000
# 6 0.000000 0.000000 0.000000 0.038694 0.000000 0.611690
#
#
# Mechanical properties :
#
#
# Convention : Reuss Voigt Hill
#
# Bulk Modulus (GPa) = 27.76163 36.33386 32.04774
# Shear Modulus (GPa) = 6.43607 24.89339 15.66473
#
# Velocity S-wave (km/s) = 1.79848 3.53701 2.80579
# Velocity P-wave (km/s) = 4.27371 5.91106 5.15777
#
# Compressibility (1/GPa) = 0.03602094
#
# Stress axis : x y z
#
# Youngs Moduli (GPa) = 104.29918 33.68381 75.08917
#
# Poissons Ratio (x) = 0.25100 0.02665
# Poissons Ratio (y) = 0.77720 0.03601
# Poissons Ratio (z) = 0.03702 0.01615
#
# Static dielectric constant tensor:
#      x y z
#    x 1.808960 0.000000 0.006720 
#    y 0.000000 1.671780 0.000000 
#    z 0.006720 0.000000 1.774940 
# 
# From -- ./inp_files/4991.got.cif
#   From: 2010.05.17/outbox.cif.g08.bks.cpg/sg15_3_cif.got.tgz:4991.got - 2010.06.03 18:47:42.
