data_PCOD9261812
_publ_section_title
;
Structure prediction by ZEFSAII (Michael W. Deem and Ramdas Pophale) SiO2 
 PCOD9261812
Probable space group: C 2/C
;
_chemical_formula_sum "Si O2"
_cell_formula_units_Z 64
_cell_length_a 8.754853
_cell_length_b 29.760483
_cell_length_c 23.787049
_cell_angle_alpha 90.000000
_cell_angle_beta 38.058336
_cell_angle_gamma 90.000000
_cell_volume 3820.645557
_symmetry_space_group_name_H-M "C 2/C"
_symmetry_group_IT_number 15
_symmetry_cell_setting 'monoclinic'
loop_
_space_group_symop_operation_xyz
x,y,z
-x,y,1/2-z
-x,-y,-z
x,-y,1/2+z
1/2+x,1/2+y,z
1/2-x,1/2+y,1/2-z
1/2-x,1/2-y,-z
1/2+x,1/2-y,1/2+z
loop_
_atom_site_type_symbol
_atom_site_label
_atom_site_fract_x
_atom_site_fract_y
_atom_site_fract_z
Si Si1 0.272160 0.502644 0.144155
Si Si2 0.507084 0.353358 0.560488
Si Si3 0.623170 0.100607 0.371722
Si Si4 0.555454 0.577191 0.326475
Si Si5 0.395199 0.212087 0.992494
Si Si6 0.398832 0.569806 0.006448
Si Si7 0.852304 0.731887 0.350945
Si Si8 0.212291 0.706950 0.345392
O O1 0.427394 0.531242 0.144488
O O2 0.403967 0.456522 0.088512
O O3 0.000000 0.497662 0.250000
O O4 0.286832 0.534076 0.084189
O O5 0.395661 0.381453 0.645165
O O6 0.769459 0.333388 0.505783
O O7 0.518172 0.389193 0.506970
O O8 0.328397 0.311946 0.595710
O O9 0.742496 0.078965 0.281283
O O10 0.666608 0.153667 0.352550
O O11 0.789472 0.084298 0.375224
O O12 0.336414 0.088789 0.458909
O O13 0.682050 0.223640 0.900584
O O14 0.250000 0.250000 0.000000
O O15 0.343544 0.217711 0.073637
O O16 0.000000 0.729289 0.250000
O O17 0.034718 0.730303 0.351397
O O18 0.500000 0.716508 0.250000
#
# Coordination Sequence:
#
# PCOD9261812 Si02
#       8
#     8   8   8   8   8   8   8   8
#     4  10  20  36  55  80 114 148 183 230 283 342
#     4  10  19  34  55  78 112 144 185 232 283 331
#     4  11  18  31  53  86 110 139 184 230 288 337
#     4  10  19  31  54  83 114 143 172 238 286 335
#     4  10  21  37  53  81 115 148 186 234 290 340
#     4  10  21  33  57  84 108 149 191 227 284 346
#     4  11  22  34  58  84 112 151 188 237 291 341
#     4  12  20  34  56  87 115 142 187 237 291 347
#
# _framework density 16.751097000000001
#
# number of rings (size 3 to 8) (size 9 to 14) (size 15 to 20)
#    0.000    1.500    5.000    2.625    0.000    0.500 
#    0.000    0.000    2.750    3.000    0.000    0.000 
#    0.000    0.000    0.000    0.000    0.000    0.000 
#
# Total GULP energy -178445.917168 kJ/mol
# GULP energy per Si atom -5576.434911 kJ/mol
# Density = 1.671297 g / cm^3
# Si number density = 16.751097 Si / 1000 Ang^3
#
#
#
# Elastic Constant Matrix: (Units=GPa)
#
#
# Indices 1 2 3 4 5 6 
#
# 1 106.5723 29.5833 38.9638 -0.0001 -16.2339 0.0001
# 2 29.5833 52.3340 43.3100 -0.0001 -7.1068 0.0000
# 3 38.9638 43.3100 78.8506 0.0001 -9.5409 -0.0007
# 4 -0.0001 -0.0001 0.0001 30.3689 0.0000 -2.1666
# 5 -16.2339 -7.1068 -9.5409 0.0000 28.9953 0.0001
# 6 0.0001 0.0000 -0.0007 -2.1666 0.0001 17.7362
#
#
#
# Elastic Compliance Matrix: (Units=1/GPa)
#
#
# Indices 1 2 3 4 5 6 
#
# 1 0.012404 -0.003234 -0.003758 0.000000 0.004915 0.000000
# 2 -0.003234 0.036029 -0.018061 0.000000 0.001077 -0.000001
# 3 -0.003758 -0.018061 0.024651 0.000000 0.001580 0.000001
# 4 0.000000 0.000000 0.000000 0.033218 0.000000 0.004058
# 5 0.004915 0.001077 0.001580 0.000000 0.038024 0.000000
# 6 0.000000 -0.000001 0.000001 0.004058 0.000000 0.056878
#
#
# Mechanical properties :
#
#
# Convention : Reuss Voigt Hill
#
# Bulk Modulus (GPa) = 43.52144 51.27459 47.39801
# Shear Modulus (GPa) = 19.30723 23.81339 21.56031
#
# Velocity S-wave (km/s) = 3.39867 3.77450 3.59151
# Velocity P-wave (km/s) = 6.43731 7.04784 6.74948
#
# Compressibility (1/GPa) = 0.02297718
#
# Stress axis : x y z
#
# Youngs Moduli (GPa) = 80.62041 27.75515 40.56620
#
# Poissons Ratio (x) = 0.08976 0.15246
# Poissons Ratio (y) = 0.26072 0.73268
# Poissons Ratio (z) = 0.30299 0.50130
#
# Static dielectric constant tensor:
#      x y z
#    x 1.579130 0.000000 -0.007760 
#    y 0.000000 1.564760 0.000000 
#    z -0.007760 0.000000 1.551240 
# 
# From -- ./inp_files/139273.got.cif
#   From: 2010.05.17/outbox.cif.g08.bks.cpg/sg15_70_cif.got.tgz:139273.got - 2010.06.03 18:47:42.
