data_PCOD9261634
_publ_section_title
;
Structure prediction by ZEFSAII (Michael W. Deem and Ramdas Pophale) SiO2 
 PCOD9261634
Probable space group: C 2/C
;
_chemical_formula_sum "Si O2"
_cell_formula_units_Z 64
_cell_length_a 20.328886
_cell_length_b 18.784252
_cell_length_c 9.671420
_cell_angle_alpha 90.000000
_cell_angle_beta 100.928137
_cell_angle_gamma 90.000000
_cell_volume 3626.183968
_symmetry_space_group_name_H-M "C 2/C"
_symmetry_group_IT_number 15
_symmetry_cell_setting 'monoclinic'
loop_
_space_group_symop_operation_xyz
x,y,z
-x,y,1/2-z
-x,-y,-z
x,-y,1/2+z
1/2+x,1/2+y,z
1/2-x,1/2+y,1/2-z
1/2-x,1/2-y,-z
1/2+x,1/2-y,1/2+z
loop_
_atom_site_type_symbol
_atom_site_label
_atom_site_fract_x
_atom_site_fract_y
_atom_site_fract_z
Si Si1 0.546402 0.967387 0.901114
Si Si2 0.214302 0.574883 0.154898
Si Si3 0.357387 0.792589 0.233919
Si Si4 0.176757 0.548007 0.849854
Si Si5 0.777128 0.177857 0.380070
Si Si6 0.384398 0.791069 0.932357
Si Si7 0.957087 0.688197 0.005557
Si Si8 0.352813 0.265843 0.141280
O O1 0.500000 0.956836 0.750000
O O2 0.568402 0.890100 0.961796
O O3 0.607028 0.019520 0.887902
O O4 0.500000 0.000000 0.000000
O O5 0.192401 0.507323 0.235458
O O6 0.270370 0.613008 0.271337
O O7 0.156591 0.636189 0.117764
O O8 0.226890 0.552192 0.001383
O O9 0.331098 0.873230 0.213687
O O10 0.309127 0.742255 0.303505
O O11 0.427757 0.794844 0.342968
O O12 0.365185 0.768182 0.079107
O O13 0.703181 0.203164 0.397569
O O14 0.821318 0.171136 0.536603
O O15 0.463123 0.808110 0.956767
O O16 0.364459 0.732752 0.809498
O O17 0.921528 0.741579 0.097766
#
# Coordination Sequence:
#
# PCOD9261634 Si02
#       8
#     8   8   8   8   8   8   8   8
#     4  12  21  29  42  62  95 133 170 200 227 271
#     4  10  21  34  49  67  96 129 165 205 242 286
#     4  10  21  33  49  68  98 133 166 204 243 287
#     4  11  21  32  45  68  92 127 170 206 242 272
#     4   9  19  36  49  66  90 130 170 202 248 289
#     4  10  19  31  47  72  98 130 168 203 237 276
#     4  11  19  31  46  67  98 133 165 199 236 276
#     4   9  18  30  49  65  85 121 162 201 235 279
#
# _framework density 17.649407
#
# number of rings (size 3 to 8) (size 9 to 14) (size 15 to 20)
#    0.000    1.750    0.000    7.500    0.000    7.500 
#    0.000    0.000    0.000    0.000    0.000    0.000 
#    0.000    0.000    0.000  200.250    0.000    0.125 
#
# Total GULP energy -178507.689927 kJ/mol
# GULP energy per Si atom -5578.365310 kJ/mol
# Density = 1.760924 g / cm^3
# Si number density = 17.649407 Si / 1000 Ang^3
#
#
#
# Elastic Constant Matrix: (Units=GPa)
#
#
# Indices 1 2 3 4 5 6 
#
# 1 33.4568 11.9441 13.5704 0.0000 -2.1659 0.0000
# 2 11.9441 21.0124 19.5862 0.0000 3.3035 0.0000
# 3 13.5704 19.5862 153.3870 0.0000 8.4729 0.0000
# 4 0.0000 0.0000 0.0000 28.7286 0.0000 6.4781
# 5 -2.1659 3.3035 8.4729 0.0000 18.2950 0.0000
# 6 0.0000 0.0000 0.0000 6.4781 0.0000 13.8069
#
#
#
# Elastic Compliance Matrix: (Units=1/GPa)
#
#
# Indices 1 2 3 4 5 6 
#
# 1 0.038991 -0.022612 -0.001070 0.000000 0.009195 0.000000
# 2 -0.022612 0.067954 -0.006005 0.000000 -0.012166 0.000000
# 3 -0.001070 -0.006005 0.007520 0.000000 -0.002525 0.000000
# 4 0.000000 0.000000 0.000000 0.038927 0.000000 -0.018264
# 5 0.009195 -0.012166 -0.002525 0.000000 0.059115 0.000000
# 6 0.000000 0.000000 0.000000 -0.018264 0.000000 0.080997
#
#
# Mechanical properties :
#
#
# Convention : Reuss Voigt Hill
#
# Bulk Modulus (GPa) = 18.15132 33.11749 25.63441
# Shear Modulus (GPa) = 13.46835 23.01646 18.24241
#
# Velocity S-wave (km/s) = 2.76543 3.61514 3.21845
# Velocity P-wave (km/s) = 4.52808 6.01918 5.32607
#
# Compressibility (1/GPa) = 0.05509241
#
# Stress axis : x y z
#
# Youngs Moduli (GPa) = 25.64696 14.71587 132.97219
#
# Poissons Ratio (x) = 0.33275 0.14231
# Poissons Ratio (y) = 0.57992 0.79844
# Poissons Ratio (z) = 0.02745 0.08836
#
# Static dielectric constant tensor:
#      x y z
#    x 1.629290 0.000000 0.012130 
#    y 0.000000 1.591120 0.000000 
#    z 0.012130 0.000000 1.669280 
# 
# From -- ./inp_files/57558.got.cif
#   From: 2010.05.17/outbox.cif.g08.bks.cpg/sg15_29_cif.got.tgz:57558.got - 2010.06.03 18:47:42.
