data_PCOD9261390
_publ_section_title
;
Structure prediction by ZEFSAII (Michael W. Deem and Ramdas Pophale) SiO2 
 PCOD9261390
Probable space group: C 2/C
;
_chemical_formula_sum "Si O2"
_cell_formula_units_Z 36
_cell_length_a 16.320622
_cell_length_b 22.352022
_cell_length_c 14.037624
_cell_angle_alpha 90.000000
_cell_angle_beta 159.604249
_cell_angle_gamma 90.000000
_cell_volume 1784.650072
_symmetry_space_group_name_H-M "C 2/C"
_symmetry_group_IT_number 15
_symmetry_cell_setting 'monoclinic'
loop_
_space_group_symop_operation_xyz
x,y,z
-x,y,1/2-z
-x,-y,-z
x,-y,1/2+z
1/2+x,1/2+y,z
1/2-x,1/2+y,1/2-z
1/2-x,1/2-y,-z
1/2+x,1/2-y,1/2+z
loop_
_atom_site_type_symbol
_atom_site_label
_atom_site_fract_x
_atom_site_fract_y
_atom_site_fract_z
Si Si1 0.881389 0.233627 0.931068
Si Si2 0.831425 0.453884 0.869535
Si Si3 0.994271 0.009668 0.847337
Si Si4 0.746049 0.117299 0.878080
Si Si5 0.000000 0.690697 0.750000
O O1 0.607405 0.251168 0.611549
O O2 0.873306 0.163311 0.947122
O O3 0.931645 0.268873 0.085537
O O4 0.751831 0.486179 0.879903
O O5 0.610012 0.450442 0.556918
O O6 0.000000 0.500000 0.000000
O O7 0.979258 0.394883 0.050844
O O8 0.000000 0.038825 0.750000
O O9 0.137539 0.947343 0.991545
O O10 0.710140 0.148695 0.940930
#
# Coordination Sequence:
#
# PCOD9261390 Si02
#       5
#     8   8   8   8   4
#     4  10  21  31  44  71 107 136 177 213 248 319
#     4   9  20  36  45  73 100 133 179 226 264 320
#     4  10  20  31  54  72  97 137 182 222 268 317
#     4  10  19  29  48  64 102 140 169 213 260 306
#     4  10  20  32  46  76 108 140 180 210 256 324
#
# _framework density 20.172021999999998
#
# number of rings (size 3 to 8) (size 9 to 14) (size 15 to 20)
#    0.000    2.222    0.000    4.000   10.889    2.667 
#    0.000    0.000    0.000    0.000    0.000    0.000 
#    0.000    7.111    0.000   12.444    0.000    1.333 
#
# Total GULP energy -100381.970016 kJ/mol
# GULP energy per Si atom -5576.776112 kJ/mol
# Density = 2.012611 g / cm^3
# Si number density = 20.172022 Si / 1000 Ang^3
#
#
#
# Elastic Constant Matrix: (Units=GPa)
#
#
# Indices 1 2 3 4 5 6 
#
# 1 77.2006 -2.5584 21.2809 -0.0003 9.8217 -0.0002
# 2 -2.5584 47.3423 19.9219 0.0001 -5.9868 0.0000
# 3 21.2809 19.9219 66.4185 0.0000 18.7892 -0.0005
# 4 -0.0003 0.0001 0.0000 36.1132 -0.0003 8.9317
# 5 9.8217 -5.9868 18.7892 -0.0003 33.5692 -0.0003
# 6 -0.0002 0.0000 -0.0005 8.9317 -0.0003 18.2226
#
#
#
# Elastic Compliance Matrix: (Units=1/GPa)
#
#
# Indices 1 2 3 4 5 6 
#
# 1 0.014624 0.002949 -0.005357 0.000000 -0.000754 0.000000
# 2 0.002949 0.027928 -0.012459 0.000000 0.011092 0.000000
# 3 -0.005357 -0.012459 0.024588 0.000000 -0.014417 0.000001
# 4 0.000000 0.000000 0.000000 0.031511 0.000000 -0.015445
# 5 -0.000754 0.011092 -0.014417 0.000000 0.040057 0.000000
# 6 0.000000 0.000000 0.000001 -0.015445 0.000000 0.062447
#
#
# Mechanical properties :
#
#
# Convention : Reuss Voigt Hill
#
# Bulk Modulus (GPa) = 26.73424 29.80556 28.26990
# Shear Modulus (GPa) = 20.54598 27.73548 24.14073
#
# Velocity S-wave (km/s) = 3.19492 3.71205 3.46315
# Velocity P-wave (km/s) = 5.18574 5.76023 5.48052
#
# Compressibility (1/GPa) = 0.03740522
#
# Stress axis : x y z
#
# Youngs Moduli (GPa) = 68.38284 35.80677 40.67050
#
# Poissons Ratio (x) = -0.10559 0.21785
# Poissons Ratio (y) = -0.20166 0.50673
# Poissons Ratio (z) = 0.36630 0.44613
#
# Static dielectric constant tensor:
#      x y z
#    x 1.734780 0.000000 0.050140 
#    y 0.000000 1.711750 0.000000 
#    z 0.050140 0.000000 1.907770 
# 
# From -- ./inp_files/7221.got.cif
#   From: 2010.05.17/outbox.cif.g08.bks.cpg/sg15_4_cif.got.tgz:7221.got - 2010.06.03 18:47:42.
