data_PCOD9261996
_publ_section_title
;
Structure prediction by ZEFSAII (Michael W. Deem and Ramdas Pophale) SiO2 
 PCOD9261996
Probable space group: C 2/C
;
_chemical_formula_sum "Si O2"
_cell_formula_units_Z 56
_cell_length_a 13.581425
_cell_length_b 14.258154
_cell_length_c 24.161759
_cell_angle_alpha 90.000000
_cell_angle_beta 34.778653
_cell_angle_gamma 90.000000
_cell_volume 2668.839663
_symmetry_space_group_name_H-M "C 2/C"
_symmetry_group_IT_number 15
_symmetry_cell_setting 'monoclinic'
loop_
_space_group_symop_operation_xyz
x,y,z
-x,y,1/2-z
-x,-y,-z
x,-y,1/2+z
1/2+x,1/2+y,z
1/2-x,1/2+y,1/2-z
1/2-x,1/2-y,-z
1/2+x,1/2-y,1/2+z
loop_
_atom_site_type_symbol
_atom_site_label
_atom_site_fract_x
_atom_site_fract_y
_atom_site_fract_z
Si Si1 0.338397 0.496425 0.614809
Si Si2 0.853393 0.212883 0.866604
Si Si3 0.242887 0.471758 0.837167
Si Si4 0.748176 0.343781 0.763780
Si Si5 0.638436 0.083733 0.113721
Si Si6 0.347788 0.361473 0.209138
Si Si7 0.666356 0.034634 0.979957
O O1 0.500000 0.500000 0.500000
O O2 0.361958 0.405227 0.643151
O O3 0.177787 0.481962 0.647322
O O4 0.320292 0.584937 0.664291
O O5 0.780316 0.316372 0.906576
O O6 0.703575 0.136183 0.934754
O O7 0.000000 0.212896 0.750000
O O8 0.962214 0.181837 0.870337
O O9 0.283547 0.379445 0.783655
O O10 0.326461 0.558876 0.765972
O O11 0.275415 0.469706 0.887797
O O12 0.036184 0.487525 0.927797
O O13 0.734851 0.231827 0.772596
O O14 0.941842 0.382782 0.690944
O O15 0.710914 0.039067 0.023955
#
# Coordination Sequence:
#
# PCOD9261996 Si02
#       7
#     8   8   8   8   8   8   8
#     4  11  22  35  56  92 123 150 188 242 299 350
#     4  11  19  32  57  86 116 146 186 239 296 342
#     4   9  19  34  54  84 111 155 187 234 285 344
#     4   9  20  39  60  84 117 150 197 234 293 349
#     4  10  20  35  56  88 115 150 183 239 294 349
#     4  10  20  38  57  88 118 152 187 244 296 342
#     4  10  19  32  51  82 117 144 188 230 285 346
#
# _framework density 20.982900999999998
#
# number of rings (size 3 to 8) (size 9 to 14) (size 15 to 20)
#    0.000    2.000    1.429    3.429    0.000    2.286 
#    2.571    0.000    0.000    0.857   55.714    0.000 
#    0.000    0.000    0.000    0.000    0.000    0.000 
#
# Total GULP energy -156023.260087 kJ/mol
# GULP energy per Si atom -5572.259289 kJ/mol
# Density = 2.093514 g / cm^3
# Si number density = 20.982901 Si / 1000 Ang^3
#
#
#
# Elastic Constant Matrix: (Units=GPa)
#
#
# Indices 1 2 3 4 5 6 
#
# 1 76.8032 34.4005 31.3393 0.0000 30.5038 0.0000
# 2 34.4005 80.7115 15.8602 -0.0001 6.3622 0.0000
# 3 31.3393 15.8602 83.1095 -0.0006 22.2304 0.0000
# 4 0.0000 -0.0001 -0.0006 19.9044 0.0000 4.2619
# 5 30.5038 6.3622 22.2304 0.0000 33.8149 0.0000
# 6 0.0000 0.0000 0.0000 4.2619 0.0000 34.5854
#
#
#
# Elastic Compliance Matrix: (Units=1/GPa)
#
#
# Indices 1 2 3 4 5 6 
#
# 1 0.026174 -0.009027 -0.002774 0.000000 -0.020089 0.000000
# 2 -0.009027 0.016013 -0.001243 0.000000 0.005947 0.000000
# 3 -0.002774 -0.001243 0.015268 0.000000 -0.007302 0.000000
# 4 0.000000 0.000000 0.000000 0.051602 0.000000 -0.006359
# 5 -0.020089 0.005947 -0.007302 0.000000 0.051376 0.000000
# 6 0.000000 0.000000 0.000000 -0.006359 0.000000 0.029698
#
#
# Mechanical properties :
#
#
# Convention : Reuss Voigt Hill
#
# Bulk Modulus (GPa) = 31.87912 44.86936 38.37424
# Shear Modulus (GPa) = 22.05809 28.26255 25.16032
#
# Velocity S-wave (km/s) = 3.24580 3.67404 3.46654
# Velocity P-wave (km/s) = 5.41044 6.27919 5.86094
#
# Compressibility (1/GPa) = 0.03136849
#
# Stress axis : x y z
#
# Youngs Moduli (GPa) = 38.20547 62.45038 65.49445
#
# Poissons Ratio (x) = 0.56376 0.18166
# Poissons Ratio (y) = 0.34489 0.08138
# Poissons Ratio (z) = 0.10597 0.07760
#
# Static dielectric constant tensor:
#      x y z
#    x 1.869430 0.000000 -0.006140 
#    y 0.000000 1.789720 0.000000 
#    z -0.006140 0.000000 1.837550 
# 
# From -- ./inp_files/274164.got.cif
#   From: 2010.05.17/outbox.cif.g08.bks.cpg/sg15_138_cif.got.tgz:274164.got - 2010.06.03 18:47:42.
