data_PCOD9261424
_publ_section_title
;
Structure prediction by ZEFSAII (Michael W. Deem and Ramdas Pophale) SiO2 
 PCOD9261424
Probable space group: C 2/C
;
_chemical_formula_sum "Si O2"
_cell_formula_units_Z 56
_cell_length_a 27.752222
_cell_length_b 13.122834
_cell_length_c 8.949009
_cell_angle_alpha 90.000000
_cell_angle_beta 109.682360
_cell_angle_gamma 90.000000
_cell_volume 3068.703506
_symmetry_space_group_name_H-M "C 2/C"
_symmetry_group_IT_number 15
_symmetry_cell_setting 'monoclinic'
loop_
_space_group_symop_operation_xyz
x,y,z
-x,y,1/2-z
-x,-y,-z
x,-y,1/2+z
1/2+x,1/2+y,z
1/2-x,1/2+y,1/2-z
1/2-x,1/2-y,-z
1/2+x,1/2-y,1/2+z
loop_
_atom_site_type_symbol
_atom_site_label
_atom_site_fract_x
_atom_site_fract_y
_atom_site_fract_z
Si Si1 0.000000 0.839553 0.750000
Si Si2 0.500000 0.662161 0.750000
Si Si3 0.761997 0.031110 0.392063
Si Si4 0.426793 0.685093 0.924037
Si Si5 0.068092 0.939409 0.574882
Si Si6 0.828169 0.189494 0.291634
Si Si7 0.182078 0.825299 0.058906
Si Si8 0.723021 0.869307 0.156773
O O1 0.037564 0.907164 0.690053
O O2 0.963387 0.780582 0.597950
O O3 0.456639 0.717892 0.805327
O O4 0.466696 0.597211 0.598517
O O5 0.784772 0.111790 0.301240
O O6 0.742531 0.086273 0.520448
O O7 0.807879 0.947262 0.464912
O O8 0.718342 0.964747 0.264755
O O9 0.425498 0.560540 0.920478
O O10 0.368250 0.707179 0.903196
O O11 0.119842 0.873890 0.632956
O O12 0.823499 0.290862 0.387724
O O13 0.820256 0.219865 0.109842
O O14 0.230393 0.806271 0.216176
#
# Coordination Sequence:
#
# PCOD9261424 Si02
#       8
#     4   4   8   8   8   8   8   8
#     4  10  19  30  42  66  92 141 180 207 236 306
#     4  10  23  28  44  70 100 143 174 215 240 306
#     4  10  20  37  52  73 109 139 174 222 260 307
#     4  11  18  30  45  66  97 141 182 199 250 293
#     4  11  19  29  46  66 102 132 178 207 247 296
#     4  12  21  34  54  78 104 143 182 213 256 318
#     4  10  20  33  52  69 105 143 174 210 257 305
#     4  10  22  35  55  77 101 142 177 218 266 311
#
# _framework density 18.248749
#
# number of rings (size 3 to 8) (size 9 to 14) (size 15 to 20)
#    0.857    0.571    4.286    4.286    2.000    0.000 
#    0.000    0.000    0.000    0.000    0.000    0.000 
#    0.000    3.429    0.000    0.000    0.000    0.000 
#
# Total GULP energy -155895.407716 kJ/mol
# GULP energy per Si atom -5567.693133 kJ/mol
# Density = 1.820721 g / cm^3
# Si number density = 18.248749 Si / 1000 Ang^3
#
#
#
# Elastic Constant Matrix: (Units=GPa)
#
#
# Indices 1 2 3 4 5 6 
#
# 1 82.6659 30.4588 32.3307 0.0000 -15.3838 0.0000
# 2 30.4588 38.4834 2.4692 0.0000 -0.8083 0.0000
# 3 32.3307 2.4692 57.5814 0.0000 -20.4066 0.0000
# 4 0.0000 0.0000 0.0000 6.3103 0.0000 -1.3563
# 5 -15.3838 -0.8083 -20.4066 0.0000 27.7732 0.0000
# 6 0.0000 0.0000 0.0000 -1.3563 0.0000 12.7966
#
#
#
# Elastic Compliance Matrix: (Units=1/GPa)
#
#
# Indices 1 2 3 4 5 6 
#
# 1 0.023969 -0.018166 -0.011035 0.000000 0.004640 0.000000
# 2 -0.018166 0.039824 0.007216 0.000000 -0.003601 0.000000
# 3 -0.011035 0.007216 0.028612 0.000000 0.015120 0.000000
# 4 0.000000 0.000000 0.000000 0.162165 0.000000 0.017188
# 5 0.004640 -0.003601 0.015120 0.000000 0.049581 0.000000
# 6 0.000000 0.000000 0.000000 0.017188 0.000000 0.079968
#
#
# Mechanical properties :
#
#
# Convention : Reuss Voigt Hill
#
# Bulk Modulus (GPa) = 20.64598 34.36092 27.50345
# Shear Modulus (GPa) = 11.25531 16.94082 14.09807
#
# Velocity S-wave (km/s) = 2.48618 3.05015 2.78249
# Velocity P-wave (km/s) = 4.42489 5.59237 5.04254
#
# Compressibility (1/GPa) = 0.04843558
#
# Stress axis : x y z
#
# Youngs Moduli (GPa) = 41.71970 25.11021 34.95063
#
# Poissons Ratio (x) = 0.45615 0.38568
# Poissons Ratio (y) = 0.75787 -0.25219
# Poissons Ratio (z) = 0.46037 -0.18119
#
# Static dielectric constant tensor:
#      x y z
#    x 1.664080 0.000000 -0.003730 
#    y 0.000000 1.629740 0.000000 
#    z -0.003730 0.000000 1.684720 
# 
# From -- ./inp_files/69638.got.cif
#   From: 2010.05.17/outbox.cif.g08.bks.cpg/sg15_35_cif.got.tgz:69638.got - 2010.06.03 18:47:42.
