data_PCOD9261289
_publ_section_title
;
Structure prediction by ZEFSAII (Michael W. Deem and Ramdas Pophale) SiO2 
 PCOD9261289
Probable space group: C 2/C
;
_chemical_formula_sum "Si O2"
_cell_formula_units_Z 52
_cell_length_a 24.758622
_cell_length_b 9.123496
_cell_length_c 19.685785
_cell_angle_alpha 90.000000
_cell_angle_beta 151.865931
_cell_angle_gamma 90.000000
_cell_volume 2096.793430
_symmetry_space_group_name_H-M "C 2/C"
_symmetry_group_IT_number 15
_symmetry_cell_setting 'monoclinic'
loop_
_space_group_symop_operation_xyz
x,y,z
-x,y,1/2-z
-x,-y,-z
x,-y,1/2+z
1/2+x,1/2+y,z
1/2-x,1/2+y,1/2-z
1/2-x,1/2-y,-z
1/2+x,1/2-y,1/2+z
loop_
_atom_site_type_symbol
_atom_site_label
_atom_site_fract_x
_atom_site_fract_y
_atom_site_fract_z
Si Si1 0.349947 0.018534 0.227073
Si Si2 0.116613 0.447149 0.993016
Si Si3 0.219813 0.001130 0.710996
Si Si4 0.196230 0.822555 0.813405
Si Si5 0.036861 0.953275 0.188352
Si Si6 0.657827 0.336016 0.447229
Si Si7 0.500000 0.500000 0.000000
O O1 0.485016 0.031904 0.366545
O O2 0.292258 0.076322 0.233242
O O3 0.313239 0.848523 0.192826
O O4 0.283095 0.097192 0.092617
O O5 0.190437 0.413886 0.142813
O O6 0.181616 0.597422 0.042100
O O7 0.136228 0.317681 0.961046
O O8 0.154577 0.886161 0.691972
O O9 0.102750 0.085727 0.566364
O O10 0.106737 0.896241 0.764764
O O11 0.109578 0.848888 0.318413
O O12 0.915957 0.951151 0.090209
O O13 0.031309 0.900941 0.104667
#
# Coordination Sequence:
#
# PCOD9261289 Si02
#       7
#     8   8   8   8   8   8   4
#     4  12  24  44  76 109 162 207 258 332 403 471
#     4  10  26  44  68 117 155 206 270 323 397 484
#     4   9  22  41  70 113 155 202 264 330 389 468
#     4   9  25  44  72 108 147 203 266 321 384 469
#     4  10  23  47  76 106 151 198 265 321 390 475
#     4  11  26  46  74 113 156 209 251 330 407 475
#     4  10  18  44  78 108 136 206 254 322 388 466
#
# _framework density 24.799773999999999
#
# number of rings (size 3 to 8) (size 9 to 14) (size 15 to 20)
#    0.923    0.923    1.538    0.462    6.462    1.231 
#    2.769    0.000    0.000    0.000    0.000    0.000 
#    0.000    0.000    0.000    0.000    0.000    0.000 
#
# Total GULP energy -144740.748695 kJ/mol
# GULP energy per Si atom -5566.951873 kJ/mol
# Density = 2.474333 g / cm^3
# Si number density = 24.799774 Si / 1000 Ang^3
#
#
#
# Elastic Constant Matrix: (Units=GPa)
#
#
# Indices 1 2 3 4 5 6 
#
# 1 123.6131 22.2550 66.9204 0.0000 9.4674 0.0000
# 2 22.2550 82.4967 15.4095 0.0000 7.6627 0.0000
# 3 66.9204 15.4095 144.0909 0.0000 21.7941 0.0000
# 4 0.0000 0.0000 0.0000 -5.5611 0.0000 23.0611
# 5 9.4674 7.6627 21.7941 0.0000 69.6037 0.0000
# 6 0.0000 0.0000 0.0000 23.0611 0.0000 12.8003
#
#
#
# Elastic Compliance Matrix: (Units=1/GPa)
#
#
# Indices 1 2 3 4 5 6 
#
# 1 0.011152 -0.002101 -0.004997 0.000000 0.000279 0.000000
# 2 -0.002101 0.012831 -0.000237 0.000000 -0.001052 0.000000
# 3 -0.004997 -0.000237 0.009636 0.000000 -0.002311 0.000000
# 4 0.000000 0.000000 0.000000 -0.021228 0.000000 0.038244
# 5 0.000279 -0.001052 -0.002311 0.000000 0.015169 0.000000
# 6 0.000000 0.000000 0.000000 0.038244 0.000000 0.009222
#
#
# Mechanical properties :
#
#
# Convention : Reuss Voigt Hill
#
# Bulk Modulus (GPa) = 52.77562 62.15229 57.46395
# Shear Modulus (GPa) = 86.55460 31.74297 59.14879
#
# Velocity S-wave (km/s) = 5.91415 3.58155 4.88900
# Velocity P-wave (km/s) = 8.24397 6.49764 7.42235
#
# Compressibility (1/GPa) = 0.01894814
#
# Stress axis : x y z
#
# Youngs Moduli (GPa) = 89.67226 77.93913 103.78104
#
# Poissons Ratio (x) = 0.16375 0.51857
# Poissons Ratio (y) = 0.18840 0.02462
# Poissons Ratio (z) = 0.44807 0.01849
#
# Static dielectric constant tensor:
#      x y z
#    x 2.050270 0.000000 -0.098110 
#    y 0.000000 1.836540 0.000000 
#    z -0.098110 0.000000 1.469360 
# 
# From -- ./inp_files/255624.got.cif
#   From: 2010.05.17/outbox.cif.g08.bks.cpg/sg15_128_cif.got.tgz:255624.got - 2010.06.03 18:47:42.
