data_PCOD9261044
_publ_section_title
;
Structure prediction by ZEFSAII (Michael W. Deem and Ramdas Pophale) SiO2 
 PCOD9261044
Probable space group: C 2/C
;
_chemical_formula_sum "Si O2"
_cell_formula_units_Z 52
_cell_length_a 13.888509
_cell_length_b 9.933951
_cell_length_c 20.292847
_cell_angle_alpha 90.000000
_cell_angle_beta 126.558176
_cell_angle_gamma 90.000000
_cell_volume 2248.913218
_symmetry_space_group_name_H-M "C 2/C"
_symmetry_group_IT_number 15
_symmetry_cell_setting 'monoclinic'
loop_
_space_group_symop_operation_xyz
x,y,z
-x,y,1/2-z
-x,-y,-z
x,-y,1/2+z
1/2+x,1/2+y,z
1/2-x,1/2+y,1/2-z
1/2-x,1/2-y,-z
1/2+x,1/2-y,1/2+z
loop_
_atom_site_type_symbol
_atom_site_label
_atom_site_fract_x
_atom_site_fract_y
_atom_site_fract_z
Si Si1 0.553326 0.026937 0.910944
Si Si2 0.887134 0.770341 0.030885
Si Si3 0.301667 0.299099 0.734611
Si Si4 0.000230 0.985092 0.174403
Si Si5 0.825647 0.314478 0.375230
Si Si6 0.500000 0.892638 0.250000
Si Si7 0.246781 0.081596 0.411464
O O1 0.440286 0.108983 0.891895
O O2 0.555802 0.025453 0.833248
O O3 0.551218 0.874658 0.935544
O O4 0.669607 0.094514 0.991714
O O5 0.960242 0.878495 0.103270
O O6 0.750000 0.750000 0.000000
O O7 0.871600 0.795687 0.946354
O O8 0.375648 0.434739 0.783577
O O9 0.252801 0.242309 0.783262
O O10 0.397849 0.196879 0.742585
O O11 0.218844 0.331665 0.638488
O O12 0.000000 0.932115 0.250000
O O13 0.893172 0.097118 0.129523
O O14 0.758248 0.428019 0.389708
#
# Coordination Sequence:
#
# PCOD9261044 Si02
#       7
#     8   8   8   8   8   4   8
#     4  10  22  38  61  88 120 155 197 243 302 346
#     4  11  20  38  61  86 120 153 198 247 293 354
#     4  10  21  41  60  85 122 157 200 241 295 356
#     4  10  20  37  63  85 118 159 195 240 299 351
#     4  10  22  41  57  87 123 152 195 255 290 345
#     4  10  20  40  60  86 118 154 200 250 280 360
#     4  10  18  40  60  85 118 160 189 238 303 347
#
# _framework density 23.122278999999999
#
# number of rings (size 3 to 8) (size 9 to 14) (size 15 to 20)
#    0.000    1.846    5.385    1.846    1.077    1.231 
#   16.615    0.000    0.000    0.000    0.000    0.000 
#    0.000    0.000    0.000    0.000    0.000    0.000 
#
# Total GULP energy -145165.405589 kJ/mol
# GULP energy per Si atom -5583.284830 kJ/mol
# Density = 2.306965 g / cm^3
# Si number density = 23.122279 Si / 1000 Ang^3
#
#
#
# Elastic Constant Matrix: (Units=GPa)
#
#
# Indices 1 2 3 4 5 6 
#
# 1 46.2293 -2.4123 17.4094 0.0000 -7.6807 0.0000
# 2 -2.4123 11.6362 6.6416 0.0000 -9.4309 0.0000
# 3 17.4094 6.6416 148.6176 0.0000 -24.6835 0.0000
# 4 0.0000 0.0000 0.0000 47.1348 0.0000 -8.9633
# 5 -7.6807 -9.4309 -24.6835 0.0000 42.9453 0.0000
# 6 0.0000 0.0000 0.0000 -8.9633 0.0000 17.0422
#
#
#
# Elastic Compliance Matrix: (Units=1/GPa)
#
#
# Indices 1 2 3 4 5 6 
#
# 1 0.023959 0.010575 -0.002412 0.000000 0.005221 0.000000
# 2 0.010575 0.109336 -0.002015 0.000000 0.024744 0.000000
# 3 -0.002412 -0.002015 0.007690 0.000000 0.003546 0.000000
# 4 0.000000 0.000000 0.000000 0.023573 0.000000 0.012398
# 5 0.005221 0.024744 0.003546 0.000000 0.031691 0.000000
# 6 0.000000 0.000000 0.000000 0.012398 0.000000 0.065199
#
#
# Mechanical properties :
#
#
# Convention : Reuss Voigt Hill
#
# Bulk Modulus (GPa) = 6.52398 27.75116 17.13757
# Shear Modulus (GPa) = 16.65298 33.74742 25.20020
#
# Velocity S-wave (km/s) = 2.68659 3.82451 3.30489
# Velocity P-wave (km/s) = 3.52864 5.61520 4.68945
#
# Compressibility (1/GPa) = 0.15328073
#
# Stress axis : x y z
#
# Youngs Moduli (GPa) = 41.73810 9.14613 130.03461
#
# Poissons Ratio (x) = -0.09672 0.31365
# Poissons Ratio (y) = -0.44139 0.26207
# Poissons Ratio (z) = 0.10067 0.01843
#
# Static dielectric constant tensor:
#      x y z
#    x 1.893200 0.000000 0.000980 
#    y 0.000000 1.913960 0.000000 
#    z 0.000980 0.000000 1.952880 
# 
# From -- ./inp_files/243815.got.cif
#   From: 2010.05.17/outbox.cif.g08.bks.cpg/sg15_122_cif.got.tgz:243815.got - 2010.06.03 18:47:42.
