data_PCOD9261055
_publ_section_title
;
Structure prediction by ZEFSAII (Michael W. Deem and Ramdas Pophale) SiO2 
 PCOD9261055
Probable space group: C 2/C
;
_chemical_formula_sum "Si O2"
_cell_formula_units_Z 48
_cell_length_a 13.355009
_cell_length_b 12.042594
_cell_length_c 23.935212
_cell_angle_alpha 90.000000
_cell_angle_beta 147.149650
_cell_angle_gamma 90.000000
_cell_volume 2088.134913
_symmetry_space_group_name_H-M "C 2/C"
_symmetry_group_IT_number 15
_symmetry_cell_setting 'monoclinic'
loop_
_space_group_symop_operation_xyz
x,y,z
-x,y,1/2-z
-x,-y,-z
x,-y,1/2+z
1/2+x,1/2+y,z
1/2-x,1/2+y,1/2-z
1/2-x,1/2-y,-z
1/2+x,1/2-y,1/2+z
loop_
_atom_site_type_symbol
_atom_site_label
_atom_site_fract_x
_atom_site_fract_y
_atom_site_fract_z
Si Si1 0.126845 0.298807 0.678103
Si Si2 0.674730 0.768940 0.527709
Si Si3 0.671095 0.605734 0.122051
Si Si4 0.922948 0.486604 0.056290
Si Si5 0.915417 0.086581 0.542732
Si Si6 0.038157 0.339404 0.215056
O O1 0.183189 0.339815 0.766868
O O2 0.306492 0.244745 0.734030
O O3 0.046137 0.404942 0.607968
O O4 0.978701 0.200244 0.601266
O O5 0.750000 0.750000 0.500000
O O6 0.511246 0.683612 0.460606
O O7 0.856149 0.734376 0.645655
O O8 0.601505 0.892665 0.501812
O O9 0.596014 0.486497 0.109895
O O10 0.700131 0.601215 0.069025
O O11 0.008925 0.417751 0.148002
O O12 0.716937 0.521732 0.977452
O O13 0.000000 0.421786 0.250000
#
# Coordination Sequence:
#
# PCOD9261055 Si02
#       6
#     8   8   8   8   8   8
#     4  12  24  38  65 100 129 163 212 268 325 372
#     4  10  18  40  61  87 124 163 203 260 317 366
#     4  11  22  41  68  96 126 166 219 264 310 381
#     4  11  23  41  65  90 132 166 205 267 322 375
#     4  11  24  41  65  96 130 168 213 264 318 376
#     4  11  22  40  67  94 119 166 225 259 301 386
#
# _framework density 22.987022
#
# number of rings (size 3 to 8) (size 9 to 14) (size 15 to 20)
#    0.000    1.000    6.667    2.500    4.667    0.000 
#    0.000    3.333    0.000    0.000    0.000    0.000 
#    0.000    0.000    0.000    0.000    0.000    0.000 
#
# Total GULP energy -133896.749898 kJ/mol
# GULP energy per Si atom -5579.031246 kJ/mol
# Density = 2.293470 g / cm^3
# Si number density = 22.987022 Si / 1000 Ang^3
#
#
#
# Elastic Constant Matrix: (Units=GPa)
#
#
# Indices 1 2 3 4 5 6 
#
# 1 26.5367 6.9782 8.8004 0.0000 -20.7694 0.0000
# 2 6.9782 151.0923 23.8223 0.0000 9.1611 0.0000
# 3 8.8004 23.8223 50.8846 0.0001 -2.1010 0.0000
# 4 0.0000 0.0000 0.0001 -12.0145 0.0000 24.7499
# 5 -20.7694 9.1611 -2.1010 0.0000 31.4306 0.0000
# 6 0.0000 0.0000 0.0000 24.7499 0.0000 1.6466
#
#
#
# Elastic Compliance Matrix: (Units=1/GPa)
#
#
# Indices 1 2 3 4 5 6 
#
# 1 0.090299 -0.006253 -0.010179 0.000000 0.060812 0.000000
# 2 -0.006253 0.007751 -0.002819 0.000000 -0.006579 0.000000
# 3 -0.010179 -0.002819 0.022551 0.000000 -0.004397 0.000000
# 4 0.000000 0.000000 0.000000 -0.002604 0.000000 0.039140
# 5 0.060812 -0.006579 -0.004397 0.000000 0.073624 0.000000
# 6 0.000000 0.000000 0.000000 0.039140 0.000000 0.019000
#
#
# Mechanical properties :
#
#
# Convention : Reuss Voigt Hill
#
# Bulk Modulus (GPa) = 12.18034 34.19061 23.18548
# Shear Modulus (GPa) = 18.08401 16.80672 17.44537
#
# Velocity S-wave (km/s) = 2.80787 2.70689 2.75784
# Velocity P-wave (km/s) = 3.97775 4.96748 4.49991
#
# Compressibility (1/GPa) = 0.08209949
#
# Stress axis : x y z
#
# Youngs Moduli (GPa) = 11.07436 129.02198 44.34433
#
# Poissons Ratio (x) = 0.80675 0.45137
# Poissons Ratio (y) = 0.06925 0.12500
# Poissons Ratio (z) = 0.11272 0.36369
#
# Static dielectric constant tensor:
#      x y z
#    x 1.776530 0.000000 0.135000 
#    y 0.000000 1.818500 0.000000 
#    z 0.135000 0.000000 1.540490 
# 
# From -- ./inp_files/296216.got.cif
#   From: 2010.05.17/outbox.cif.g08.bks.cpg/sg15_149_cif.got.tgz:296216.got - 2010.06.03 18:47:42.
