data_PCOD9261010
_publ_section_title
;
Structure prediction by ZEFSAII (Michael W. Deem and Ramdas Pophale) SiO2 
 PCOD9261010
Probable space group: C 2/C
;
_chemical_formula_sum "Si O2"
_cell_formula_units_Z 48
_cell_length_a 11.570757
_cell_length_b 21.574142
_cell_length_c 10.441305
_cell_angle_alpha 90.000000
_cell_angle_beta 118.269605
_cell_angle_gamma 90.000000
_cell_volume 2295.579044
_symmetry_space_group_name_H-M "C 2/C"
_symmetry_group_IT_number 15
_symmetry_cell_setting 'monoclinic'
loop_
_space_group_symop_operation_xyz
x,y,z
-x,y,1/2-z
-x,-y,-z
x,-y,1/2+z
1/2+x,1/2+y,z
1/2-x,1/2+y,1/2-z
1/2-x,1/2-y,-z
1/2+x,1/2-y,1/2+z
loop_
_atom_site_type_symbol
_atom_site_label
_atom_site_fract_x
_atom_site_fract_y
_atom_site_fract_z
Si Si1 0.877842 0.499461 0.091019
Si Si2 0.997861 0.830315 0.953351
Si Si3 0.124478 0.036329 0.122966
Si Si4 0.758455 0.932906 0.167486
Si Si5 0.000000 0.153895 0.750000
Si Si6 0.000000 0.268903 0.250000
Si Si7 0.789749 0.629263 0.583029
O O1 0.748982 0.524830 0.097752
O O2 0.848054 0.428611 0.035741
O O3 0.000000 0.502312 0.250000
O O4 0.875022 0.547237 0.972335
O O5 0.911435 0.891971 0.886718
O O6 0.951223 0.773936 0.841335
O O7 0.008657 0.815435 0.112249
O O8 0.142608 0.849079 0.977676
O O9 0.164239 0.997648 0.269145
O O10 0.000000 0.000000 0.000000
O O11 0.720145 0.900814 0.280327
O O12 0.868251 0.887516 0.167898
O O13 0.885972 0.312978 0.137045
#
# Coordination Sequence:
#
# PCOD9261010 Si02
#       7
#     8   8   8   8   4   4   8
#     4  11  21  37  62  95 136 167 210 270 347 396
#     4  11  23  40  68  95 126 175 224 274 318 388
#     4  11  19  35  63 101 124 164 215 277 338 393
#     4  10  20  35  66  93 135 162 215 275 344 386
#     4  10  18  39  68  96 127 158 216 288 328 366
#     4  12  26  45  62  90 137 184 228 254 318 404
#     4  10  23  42  59  92 135 177 212 270 327 388
#
# _framework density 20.909756999999999
#
# number of rings (size 3 to 8) (size 9 to 14) (size 15 to 20)
#    0.000    1.333    7.500    0.500    2.333    2.667 
#    0.000    3.333    1.833    0.000    0.000    0.000 
#    0.000    0.000    0.000    0.000    0.000    0.000 
#
# Total GULP energy -133931.970702 kJ/mol
# GULP energy per Si atom -5580.498779 kJ/mol
# Density = 2.086217 g / cm^3
# Si number density = 20.909757 Si / 1000 Ang^3
#
#
#
# Elastic Constant Matrix: (Units=GPa)
#
#
# Indices 1 2 3 4 5 6 
#
# 1 59.2982 24.4970 5.2210 0.0000 6.2529 0.0000
# 2 24.4970 104.5893 18.7290 0.0000 1.8888 0.0000
# 3 5.2210 18.7290 66.5805 0.0000 1.3652 0.0000
# 4 0.0000 0.0000 0.0000 34.1865 0.0000 7.4060
# 5 6.2529 1.8888 1.3652 0.0000 28.5462 0.0000
# 6 0.0000 0.0000 0.0000 7.4060 0.0000 26.8977
#
#
#
# Elastic Compliance Matrix: (Units=1/GPa)
#
#
# Indices 1 2 3 4 5 6 
#
# 1 0.019095 -0.004368 -0.000189 0.000000 -0.003885 0.000000
# 2 -0.004368 0.011076 -0.002780 0.000000 0.000357 0.000000
# 3 -0.000189 -0.002780 0.015827 0.000000 -0.000532 0.000000
# 4 0.000000 0.000000 0.000000 0.031107 0.000000 -0.008565
# 5 -0.003885 0.000357 -0.000532 0.000000 0.035884 0.000000
# 6 0.000000 0.000000 0.000000 -0.008565 0.000000 0.039536
#
#
# Mechanical properties :
#
#
# Convention : Reuss Voigt Hill
#
# Bulk Modulus (GPa) = 31.92588 36.37356 34.14972
# Shear Modulus (GPa) = 28.14672 30.06082 29.10377
#
# Velocity S-wave (km/s) = 3.67291 3.79574 3.73483
# Velocity P-wave (km/s) = 5.76963 6.05339 5.91321
#
# Compressibility (1/GPa) = 0.03132255
#
# Stress axis : x y z
#
# Youngs Moduli (GPa) = 52.37016 90.28667 63.18218
#
# Poissons Ratio (x) = 0.39441 0.01193
# Poissons Ratio (y) = 0.22878 0.17567
# Poissons Ratio (z) = 0.00989 0.25103
#
# Static dielectric constant tensor:
#      x y z
#    x 1.893770 0.000000 -0.078370 
#    y 0.000000 1.742300 0.000000 
#    z -0.078370 0.000000 1.865080 
# 
# From -- ./inp_files/89836.got.cif
#   From: 2010.05.17/outbox.cif.g08.bks.cpg/sg15_45_cif.got.tgz:89836.got - 2010.06.03 18:47:42.
