data_PCOD9261942
_publ_section_title
;
Structure prediction by ZEFSAII (Michael W. Deem and Ramdas Pophale) SiO2 
 PCOD9261942
Probable space group: C 2/C
;
_chemical_formula_sum "Si O2"
_cell_formula_units_Z 36
_cell_length_a 16.119767
_cell_length_b 21.474054
_cell_length_c 5.132697
_cell_angle_alpha 90.000000
_cell_angle_beta 93.487061
_cell_angle_gamma 90.000000
_cell_volume 1773.428210
_symmetry_space_group_name_H-M "C 2/C"
_symmetry_group_IT_number 15
_symmetry_cell_setting 'monoclinic'
loop_
_space_group_symop_operation_xyz
x,y,z
-x,y,1/2-z
-x,-y,-z
x,-y,1/2+z
1/2+x,1/2+y,z
1/2-x,1/2+y,1/2-z
1/2-x,1/2-y,-z
1/2+x,1/2-y,1/2+z
loop_
_atom_site_type_symbol
_atom_site_label
_atom_site_fract_x
_atom_site_fract_y
_atom_site_fract_z
Si Si1 0.818896 0.457459 0.261607
Si Si2 0.087349 0.689386 0.210964
Si Si3 0.749591 0.153597 0.002936
Si Si4 0.141681 0.246326 0.231404
Si Si5 0.000000 0.455452 0.250000
O O1 0.815146 0.511845 0.043697
O O2 0.749102 0.408357 0.165813
O O3 0.909819 0.423323 0.248049
O O4 0.170183 0.648775 0.184220
O O5 0.106797 0.737643 0.445065
O O6 0.000000 0.655815 0.250000
O O7 0.080902 0.728090 0.943318
O O8 0.826980 0.178055 0.183357
O O9 0.722690 0.209034 0.798077
O O10 0.000000 0.500000 0.500000
#
# Coordination Sequence:
#
# PCOD9261942 Si02
#       5
#     8   8   8   8   4
#     4  10  21  32  47  68  95 131 169 202 229 277
#     4  10  19  32  50  76  99 125 165 200 241 298
#     4   9  21  33  53  67 105 131 165 198 250 286
#     4   9  20  33  51  72  96 137 155 202 254 291
#     4   8  16  32  40  58  90 124 160 192 222 250
#
# _framework density 20.299665999999998
#
# number of rings (size 3 to 8) (size 9 to 14) (size 15 to 20)
#    1.333    1.333    0.000    1.333    3.111    1.778 
#    8.000    0.000    0.000    0.000    0.000    0.000 
#    0.000   17.778    0.000    0.000    0.000    0.000 
#
# Total GULP energy -100296.527021 kJ/mol
# GULP energy per Si atom -5572.029279 kJ/mol
# Density = 2.025346 g / cm^3
# Si number density = 20.299666 Si / 1000 Ang^3
#
#
#
# Elastic Constant Matrix: (Units=GPa)
#
#
# Indices 1 2 3 4 5 6 
#
# 1 26.9317 4.5876 7.7736 0.0000 -6.9852 0.0000
# 2 4.5876 55.7029 11.4614 0.0000 10.8595 0.0000
# 3 7.7736 11.4614 118.0651 0.0000 0.5074 0.0000
# 4 0.0000 0.0000 0.0000 33.5926 0.0000 13.8044
# 5 -6.9852 10.8595 0.5074 0.0000 20.1798 0.0000
# 6 0.0000 0.0000 0.0000 13.8044 0.0000 16.1582
#
#
#
# Elastic Compliance Matrix: (Units=1/GPa)
#
#
# Indices 1 2 3 4 5 6 
#
# 1 0.043865 -0.006826 -0.002307 0.000000 0.018915 0.000000
# 2 -0.006826 0.021554 -0.001583 0.000000 -0.013922 0.000000
# 3 -0.002307 -0.001583 0.008776 0.000000 -0.000167 0.000000
# 4 0.000000 0.000000 0.000000 0.045873 0.000000 -0.039191
# 5 0.018915 -0.013922 -0.000167 0.000000 0.063598 0.000000
# 6 0.000000 0.000000 0.000000 -0.039191 0.000000 0.095370
#
#
# Mechanical properties :
#
#
# Convention : Reuss Voigt Hill
#
# Bulk Modulus (GPa) = 18.95202 27.59388 23.27295
# Shear Modulus (GPa) = 15.72046 25.77793 20.74920
#
# Velocity S-wave (km/s) = 2.78586 3.56739 3.20057
# Velocity P-wave (km/s) = 4.43896 5.53093 5.01476
#
# Compressibility (1/GPa) = 0.05276482
#
# Stress axis : x y z
#
# Youngs Moduli (GPa) = 22.79699 46.39411 113.94457
#
# Poissons Ratio (x) = 0.31667 0.26285
# Poissons Ratio (y) = 0.15560 0.18040
# Poissons Ratio (z) = 0.05259 0.07345
#
# Static dielectric constant tensor:
#      x y z
#    x 1.790850 0.000000 -0.006380 
#    y 0.000000 1.752400 0.000000 
#    z -0.006380 0.000000 1.769970 
# 
# From -- ./inp_files/10459.got.cif
#   From: 2010.05.17/outbox.cif.g08.bks.cpg/sg15_6_cif.got.tgz:10459.got - 2010.06.03 18:47:42.
