data_PCOD9261649
_publ_section_title
;
Structure prediction by ZEFSAII (Michael W. Deem and Ramdas Pophale) SiO2 
 PCOD9261649
Probable space group: C 2/C
;
_chemical_formula_sum "Si O2"
_cell_formula_units_Z 56
_cell_length_a 15.833881
_cell_length_b 25.129231
_cell_length_c 8.783932
_cell_angle_alpha 90.000000
_cell_angle_beta 57.542350
_cell_angle_gamma 90.000000
_cell_volume 2949.097084
_symmetry_space_group_name_H-M "C 2/C"
_symmetry_group_IT_number 15
_symmetry_cell_setting 'monoclinic'
loop_
_space_group_symop_operation_xyz
x,y,z
-x,y,1/2-z
-x,-y,-z
x,-y,1/2+z
1/2+x,1/2+y,z
1/2-x,1/2+y,1/2-z
1/2-x,1/2-y,-z
1/2+x,1/2-y,1/2+z
loop_
_atom_site_type_symbol
_atom_site_label
_atom_site_fract_x
_atom_site_fract_y
_atom_site_fract_z
Si Si1 0.948770 0.210318 0.945617
Si Si2 0.779826 0.173688 0.338145
Si Si3 0.154135 0.780683 0.408704
Si Si4 0.583288 0.990191 0.295764
Si Si5 0.351581 0.895558 0.733688
Si Si6 0.946495 0.377931 0.142297
Si Si7 0.326214 0.186332 0.536670
O O1 0.000000 0.182386 0.750000
O O2 0.038852 0.224433 0.974044
O O3 0.866364 0.180943 0.127810
O O4 0.890963 0.261832 0.933774
O O5 0.825581 0.181766 0.462973
O O6 0.701955 0.222912 0.396890
O O7 0.718587 0.121908 0.340066
O O8 0.215284 0.801318 0.201830
O O9 0.500000 0.983611 0.250000
O O10 0.623299 0.930780 0.279933
O O11 0.500000 0.000000 0.500000
O O12 0.653153 0.041716 0.218300
O O13 0.465290 0.886548 0.566540
O O14 0.331444 0.857134 0.897460
O O15 0.878853 0.332208 0.141858
O O16 0.000000 0.366445 0.250000
#
# Coordination Sequence:
#
# PCOD9261649 Si02
#       7
#     8   8   8   8   8   8   8
#     4  11  21  34  51  73 102 135 172 215 254 293
#     4  10  21  34  51  71  97 135 171 207 255 302
#     4  10  21  35  48  71 101 130 172 214 249 299
#     4   9  18  30  46  70 100 131 162 201 246 294
#     4  11  19  32  49  71 100 131 170 207 246 301
#     4  10  19  31  48  72 103 135 165 202 249 301
#     4  11  21  32  52  75 100 138 174 208 253 299
#
# _framework density 18.988862999999998
#
# number of rings (size 3 to 8) (size 9 to 14) (size 15 to 20)
#    0.000    1.714    0.000    6.857    0.000    4.571 
#    0.000    0.000    0.000    0.000    0.000    1.000 
#    0.000    4.571    0.000    1.429    0.000    0.000 
#
# Total GULP energy -156011.817274 kJ/mol
# GULP energy per Si atom -5571.850617 kJ/mol
# Density = 1.894564 g / cm^3
# Si number density = 18.988863 Si / 1000 Ang^3
#
#
#
# Elastic Constant Matrix: (Units=GPa)
#
#
# Indices 1 2 3 4 5 6 
#
# 1 65.5389 14.5616 3.3283 0.0000 -10.8564 0.0000
# 2 14.5616 51.0134 4.1714 0.0000 -8.9367 0.0000
# 3 3.3283 4.1714 55.0314 0.0000 -6.1979 0.0000
# 4 0.0000 0.0000 0.0000 15.8875 0.0000 7.3612
# 5 -10.8564 -8.9367 -6.1979 0.0000 29.1088 0.0000
# 6 0.0000 0.0000 0.0000 7.3612 0.0000 43.2263
#
#
#
# Elastic Compliance Matrix: (Units=1/GPa)
#
#
# Indices 1 2 3 4 5 6 
#
# 1 0.016986 -0.003944 -0.000155 0.000000 0.005091 0.000000
# 2 -0.003944 0.021674 -0.000841 0.000000 0.005004 0.000000
# 3 -0.000155 -0.000841 0.018656 0.000000 0.003656 0.000000
# 4 0.000000 0.000000 0.000000 0.068334 0.000000 -0.011637
# 5 0.005091 0.005004 0.003656 0.000000 0.038568 0.000000
# 6 0.000000 0.000000 0.000000 -0.011637 0.000000 0.025116
#
#
# Mechanical properties :
#
#
# Convention : Reuss Voigt Hill
#
# Bulk Modulus (GPa) = 21.08083 23.96737 22.52410
# Shear Modulus (GPa) = 23.25312 27.61267 25.43289
#
# Velocity S-wave (km/s) = 3.50318 3.81747 3.66370
# Velocity P-wave (km/s) = 5.24297 5.66392 5.45751
#
# Compressibility (1/GPa) = 0.04743646
#
# Stress axis : x y z
#
# Youngs Moduli (GPa) = 58.87350 46.13853 53.60111
#
# Poissons Ratio (x) = 0.18197 0.00831
# Poissons Ratio (y) = 0.23219 0.04507
# Poissons Ratio (z) = 0.00912 0.03879
#
# Static dielectric constant tensor:
#      x y z
#    x 1.657550 0.000000 0.022220 
#    y 0.000000 1.720070 0.000000 
#    z 0.022220 0.000000 1.707180 
# 
# From -- ./inp_files/42539.got.cif
#   From: 2010.05.17/outbox.cif.g08.bks.cpg/sg15_22_cif.got.tgz:42539.got - 2010.06.03 18:47:42.
