data_PCOD9261883
_publ_section_title
;
Structure prediction by ZEFSAII (Michael W. Deem and Ramdas Pophale) SiO2 
 PCOD9261883
Probable space group: C 2/C
;
_chemical_formula_sum "Si O2"
_cell_formula_units_Z 56
_cell_length_a 21.031458
_cell_length_b 20.100275
_cell_length_c 9.694054
_cell_angle_alpha 90.000000
_cell_angle_beta 141.300236
_cell_angle_gamma 90.000000
_cell_volume 2562.259910
_symmetry_space_group_name_H-M "C 2/C"
_symmetry_group_IT_number 15
_symmetry_cell_setting 'monoclinic'
loop_
_space_group_symop_operation_xyz
x,y,z
-x,y,1/2-z
-x,-y,-z
x,-y,1/2+z
1/2+x,1/2+y,z
1/2-x,1/2+y,1/2-z
1/2-x,1/2-y,-z
1/2+x,1/2-y,1/2+z
loop_
_atom_site_type_symbol
_atom_site_label
_atom_site_fract_x
_atom_site_fract_y
_atom_site_fract_z
Si Si1 0.413917 0.213897 0.480583
Si Si2 0.878930 0.511274 0.427567
Si Si3 0.795189 0.621282 0.467618
Si Si4 0.079548 0.923031 0.598668
Si Si5 0.085798 0.864142 0.016225
Si Si6 0.467671 0.887770 0.465241
Si Si7 0.159417 0.989793 0.993913
O O1 0.500000 0.211913 0.750000
O O2 0.324900 0.168950 0.392398
O O3 0.378155 0.289259 0.402693
O O4 0.461528 0.177934 0.425648
O O5 0.833194 0.547732 0.483966
O O6 0.926836 0.437513 0.514867
O O7 0.776213 0.507525 0.162099
O O8 0.965017 0.560770 0.514354
O O9 0.676346 0.624414 0.293681
O O10 0.864542 0.636008 0.715828
O O11 0.974747 0.886750 0.450026
O O12 0.106184 0.955408 0.498653
O O13 0.095046 0.976863 0.747663
O O14 0.000000 0.862002 0.750000
O O15 0.159343 0.922067 0.086267
#
# Coordination Sequence:
#
# PCOD9261883 Si02
#       7
#     8   8   8   8   8   8   8
#     4   8  15  28  43  64  96 129 150 191 251 285
#     4   9  16  25  43  67  91 121 152 191 239 283
#     4   9  16  28  45  69  98 124 155 198 246 292
#     4  10  19  32  50  73  99 126 164 200 243 285
#     4   9  18  32  45  67  97 127 157 200 239 285
#     4   9  15  27  44  67  96 120 155 196 241 290
#     4  10  19  32  48  72  99 125 162 203 239 284
#
# _framework density 21.855706999999999
#
# number of rings (size 3 to 8) (size 9 to 14) (size 15 to 20)
#    0.000    2.857    1.429    1.714    0.000    0.000 
#    2.571    2.857    0.000    0.000    0.000   21.000 
#    0.000    0.000    0.000    0.000    0.000    0.000 
#
# Total GULP energy -155963.502181 kJ/mol
# GULP energy per Si atom -5570.125078 kJ/mol
# Density = 2.180596 g / cm^3
# Si number density = 21.855707 Si / 1000 Ang^3
#
#
#
# Elastic Constant Matrix: (Units=GPa)
#
#
# Indices 1 2 3 4 5 6 
#
# 1 67.4613 15.3138 7.6768 0.0000 4.3153 0.0000
# 2 15.3138 94.2915 1.5256 0.0000 0.5062 0.0000
# 3 7.6768 1.5256 36.8992 0.0000 8.8799 0.0000
# 4 0.0000 0.0000 0.0000 12.4260 0.0000 -3.6469
# 5 4.3153 0.5062 8.8799 0.0000 21.7168 0.0000
# 6 0.0000 0.0000 0.0000 -3.6469 0.0000 17.9038
#
#
#
# Elastic Compliance Matrix: (Units=1/GPa)
#
#
# Indices 1 2 3 4 5 6 
#
# 1 0.015830 -0.002516 -0.002713 0.000000 -0.001977 0.000000
# 2 -0.002516 0.011013 0.000011 0.000000 0.000239 0.000000
# 3 -0.002713 0.000011 0.030540 0.000000 -0.011949 0.000000
# 4 0.000000 0.000000 0.000000 0.085593 0.000000 0.017435
# 5 -0.001977 0.000239 -0.011949 0.000000 0.051320 0.000000
# 6 0.000000 0.000000 0.000000 0.017435 0.000000 0.059406
#
#
# Mechanical properties :
#
#
# Convention : Reuss Voigt Hill
#
# Bulk Modulus (GPa) = 21.30172 27.52049 24.41110
# Shear Modulus (GPa) = 17.87063 22.01837 19.94450
#
# Velocity S-wave (km/s) = 2.86258 3.17747 3.02413
# Velocity P-wave (km/s) = 4.54901 5.10695 4.83604
#
# Compressibility (1/GPa) = 0.04694457
#
# Stress axis : x y z
#
# Youngs Moduli (GPa) = 63.17204 90.80474 32.74348
#
# Poissons Ratio (x) = 0.22850 0.08885
# Poissons Ratio (y) = 0.15897 -0.00035
# Poissons Ratio (z) = 0.17141 -0.00097
#
# Static dielectric constant tensor:
#      x y z
#    x 1.839800 0.000000 -0.009280 
#    y 0.000000 1.836970 0.000000 
#    z -0.009280 0.000000 1.856140 
# 
# From -- ./inp_files/119268.got.cif
#   From: 2010.05.17/outbox.cif.g08.bks.cpg/sg15_60_cif.got.tgz:119268.got - 2010.06.03 18:47:42.
