data_PCOD9261916
_publ_section_title
;
Structure prediction by ZEFSAII (Michael W. Deem and Ramdas Pophale) SiO2 
 PCOD9261916
Probable space group: C 2/C
;
_chemical_formula_sum "Si O2"
_cell_formula_units_Z 64
_cell_length_a 29.816156
_cell_length_b 23.710342
_cell_length_c 12.937325
_cell_angle_alpha 90.000000
_cell_angle_beta 23.973333
_cell_angle_gamma 90.000000
_cell_volume 3716.147789
_symmetry_space_group_name_H-M "C 2/C"
_symmetry_group_IT_number 15
_symmetry_cell_setting 'monoclinic'
loop_
_space_group_symop_operation_xyz
x,y,z
-x,y,1/2-z
-x,-y,-z
x,-y,1/2+z
1/2+x,1/2+y,z
1/2-x,1/2+y,1/2-z
1/2-x,1/2-y,-z
1/2+x,1/2-y,1/2+z
loop_
_atom_site_type_symbol
_atom_site_label
_atom_site_fract_x
_atom_site_fract_y
_atom_site_fract_z
Si Si1 0.414679 0.755449 0.211951
Si Si2 0.734715 0.684639 0.393768
Si Si3 0.799144 0.355030 0.111827
Si Si4 0.373328 0.296395 0.159817
Si Si5 0.673938 0.256081 0.819959
Si Si6 0.996513 0.623302 0.036547
Si Si7 0.117143 0.548922 0.942454
Si Si8 0.104659 0.579362 0.453127
O O1 0.402079 0.733998 0.119834
O O2 0.297568 0.758198 0.514301
O O3 0.497822 0.717050 0.102645
O O4 0.457560 0.819358 0.109727
O O5 0.663117 0.682786 0.649178
O O6 0.817654 0.736324 0.246765
O O7 0.668196 0.703289 0.431319
O O8 0.804837 0.628442 0.224500
O O9 0.684532 0.337687 0.300112
O O10 0.838931 0.306980 0.108138
O O11 0.797115 0.414432 0.173112
O O12 0.896443 0.358342 0.822262
O O13 0.943932 0.585851 0.058527
O O14 0.087125 0.585350 0.904208
O O15 0.150245 0.484084 0.864255
O O16 0.000000 0.548580 0.250000
O O17 0.000000 0.586788 0.750000
#
# Coordination Sequence:
#
# PCOD9261916 Si02
#       8
#     8   8   8   8   8   8   8   8
#     4  11  20  33  50  79 108 143 167 221 272 314
#     4  10  19  32  49  78 104 139 174 214 256 321
#     4  10  19  35  52  75 107 144 182 206 250 335
#     4  10  19  32  52  73 104 140 180 209 260 315
#     4  10  22  32  50  77 111 135 179 217 274 318
#     4  11  18  33  54  75 111 143 172 211 260 328
#     4   9  20  32  51  77 107 145 177 210 264 323
#     4  11  20  32  50  80 112 139 173 218 273 315
#
# _framework density 17.222135000000002
#
# number of rings (size 3 to 8) (size 9 to 14) (size 15 to 20)
#    0.000    1.750    3.750    2.625    0.000    3.000 
#    0.000    0.000    0.000    0.000    0.000    5.250 
#    0.000    0.000    0.000    0.000    0.000    0.000 
#
# Total GULP energy -178450.007747 kJ/mol
# GULP energy per Si atom -5576.562742 kJ/mol
# Density = 1.718294 g / cm^3
# Si number density = 17.222135 Si / 1000 Ang^3
#
#
#
# Elastic Constant Matrix: (Units=GPa)
#
#
# Indices 1 2 3 4 5 6 
#
# 1 59.9432 34.3792 -1.9137 -0.0001 -2.2477 0.0000
# 2 34.3792 127.7666 24.9138 0.0000 -3.1192 0.0000
# 3 -1.9137 24.9138 20.2232 -0.0002 -0.3927 0.0001
# 4 -0.0001 0.0000 -0.0002 -1.0805 0.0000 -9.1978
# 5 -2.2477 -3.1192 -0.3927 0.0000 24.1166 0.0000
# 6 0.0000 0.0000 0.0001 -9.1978 0.0000 19.2428
#
#
#
# Elastic Compliance Matrix: (Units=1/GPa)
#
#
# Indices 1 2 3 4 5 6 
#
# 1 0.021839 -0.008233 0.012232 0.000000 0.001170 0.000000
# 2 -0.008233 0.013436 -0.017318 0.000000 0.000688 0.000000
# 3 0.012232 -0.017318 0.071941 -0.000002 0.000072 -0.000001
# 4 0.000000 0.000000 -0.000002 -0.182583 0.000000 -0.087273
# 5 0.001170 0.000688 0.000072 0.000000 0.041664 0.000000
# 6 0.000000 0.000000 -0.000001 -0.087273 0.000000 0.010252
#
#
# Mechanical properties :
#
#
# Convention : Reuss Voigt Hill
#
# Bulk Modulus (GPa) = 12.41036 35.85463 24.13250
# Shear Modulus (GPa) = 166.41072 18.49269 92.45170
#
# Velocity S-wave (km/s) = 9.84052 3.28040 7.33474
# Velocity P-wave (km/s) = 11.67631 5.93399 9.26143
#
# Compressibility (1/GPa) = 0.08057784
#
# Stress axis : x y z
#
# Youngs Moduli (GPa) = 45.79051 74.42856 13.90021
#
# Poissons Ratio (x) = 0.61276 -0.17002
# Poissons Ratio (y) = 0.37699 0.24072
# Poissons Ratio (z) = -0.56009 1.28893
#
# Static dielectric constant tensor:
#      x y z
#    x 1.630410 0.000000 0.023540 
#    y 0.000000 1.582220 0.000000 
#    z 0.023540 0.000000 1.607910 
# 
# From -- ./inp_files/124444.got.cif
#   From: 2010.05.17/outbox.cif.g08.bks.cpg/sg15_63_cif.got.tgz:124444.got - 2010.06.03 18:47:42.
