data_PCOD9261063
_publ_section_title
;
Structure prediction by ZEFSAII (Michael W. Deem and Ramdas Pophale) SiO2 
 PCOD9261063
Probable space group: C 2/C
;
_chemical_formula_sum "Si O2"
_cell_formula_units_Z 44
_cell_length_a 16.541920
_cell_length_b 14.640885
_cell_length_c 15.162111
_cell_angle_alpha 90.000000
_cell_angle_beta 141.208622
_cell_angle_gamma 90.000000
_cell_volume 2300.512797
_symmetry_space_group_name_H-M "C 2/C"
_symmetry_group_IT_number 15
_symmetry_cell_setting 'monoclinic'
loop_
_space_group_symop_operation_xyz
x,y,z
-x,y,1/2-z
-x,-y,-z
x,-y,1/2+z
1/2+x,1/2+y,z
1/2-x,1/2+y,1/2-z
1/2-x,1/2-y,-z
1/2+x,1/2-y,1/2+z
loop_
_atom_site_type_symbol
_atom_site_label
_atom_site_fract_x
_atom_site_fract_y
_atom_site_fract_z
Si Si1 0.795054 0.457589 0.090593
Si Si2 0.000000 0.612666 0.250000
Si Si3 0.853471 0.707284 0.979373
Si Si4 0.862922 0.887328 0.088324
Si Si5 0.170428 0.303193 0.508739
Si Si6 0.630750 0.795987 0.213749
O O1 0.886181 0.544407 0.177868
O O2 0.822099 0.385611 0.191382
O O3 0.659594 0.508834 0.963480
O O4 0.828999 0.405832 0.028089
O O5 0.029359 0.673493 0.359707
O O6 0.736103 0.649214 0.920934
O O7 0.869026 0.689125 0.890183
O O8 0.841898 0.814453 0.991745
O O9 0.000000 0.879962 0.250000
O O10 0.250000 0.250000 0.500000
O O11 0.261725 0.280556 0.669451
O O12 0.019490 0.275127 0.387960
#
# Coordination Sequence:
#
# PCOD9261063 Si02
#       6
#     8   4   8   8   8   8
#     4  10  20  39  62  92 120 167 202 257 312 376
#     4  10  18  40  62  82 126 160 208 244 316 370
#     4  10  23  39  64  89 122 169 206 259 308 378
#     4  10  22  41  61  84 129 171 207 247 324 371
#     4  10  21  40  64  91 130 167 198 257 328 373
#     4  11  23  39  67  97 126 158 220 261 313 376
#
# _framework density 19.126170999999999
#
# number of rings (size 3 to 8) (size 9 to 14) (size 15 to 20)
#    0.000    1.818    2.727    1.636    2.545    3.636 
#    6.545    0.909    0.000    0.000    0.000    0.000 
#    0.000    0.000    0.000    0.000    0.000    0.000 
#
# Total GULP energy -122486.528679 kJ/mol
# GULP energy per Si atom -5567.569485 kJ/mol
# Density = 1.908264 g / cm^3
# Si number density = 19.126171 Si / 1000 Ang^3
#
#
#
# Elastic Constant Matrix: (Units=GPa)
#
#
# Indices 1 2 3 4 5 6 
#
# 1 70.1972 34.5050 59.1110 0.0000 -8.3509 0.0000
# 2 34.5050 73.0538 55.9550 0.0000 -2.7423 0.0000
# 3 59.1110 55.9550 142.8119 0.0000 -10.2721 0.0000
# 4 0.0000 0.0000 0.0000 29.1855 0.0000 7.0406
# 5 -8.3509 -2.7423 -10.2721 0.0000 41.9900 0.0000
# 6 0.0000 0.0000 0.0000 7.0406 0.0000 12.5481
#
#
#
# Elastic Compliance Matrix: (Units=1/GPa)
#
#
# Indices 1 2 3 4 5 6 
#
# 1 0.023393 -0.005253 -0.007446 0.000000 0.002488 0.000000
# 2 -0.005253 0.020753 -0.006041 0.000000 -0.001167 0.000000
# 3 -0.007446 -0.006041 0.012537 0.000000 0.001192 0.000000
# 4 0.000000 0.000000 0.000000 0.039627 0.000000 -0.022235
# 5 0.002488 -0.001167 0.001192 0.000000 0.024525 0.000000
# 6 0.000000 0.000000 0.000000 -0.022235 0.000000 0.092169
#
#
# Mechanical properties :
#
#
# Convention : Reuss Voigt Hill
#
# Bulk Modulus (GPa) = 52.07269 65.02279 58.54774
# Shear Modulus (GPa) = 19.46399 25.84417 22.65408
#
# Velocity S-wave (km/s) = 3.19354 3.67992 3.44532
# Velocity P-wave (km/s) = 6.39400 7.21985 6.81944
#
# Compressibility (1/GPa) = 0.01920392
#
# Stress axis : x y z
#
# Youngs Moduli (GPa) = 42.74725 48.18638 79.76653
#
# Poissons Ratio (x) = 0.25312 0.59391
# Poissons Ratio (y) = 0.22455 0.48186
# Poissons Ratio (z) = 0.31828 0.29109
#
# Static dielectric constant tensor:
#      x y z
#    x 1.693660 0.000000 0.068720 
#    y 0.000000 1.699650 0.000000 
#    z 0.068720 0.000000 1.769510 
# 
# From -- ./inp_files/162069.got.cif
#   From: 2010.05.17/outbox.cif.g08.bks.cpg/sg15_82_cif.got.tgz:162069.got - 2010.06.03 18:47:42.
