data_PCOD9261651
_publ_section_title
;
Structure prediction by ZEFSAII (Michael W. Deem and Ramdas Pophale) SiO2 
 PCOD9261651
Probable space group: C 2/C
;
_chemical_formula_sum "Si O2"
_cell_formula_units_Z 64
_cell_length_a 17.500682
_cell_length_b 22.190487
_cell_length_c 8.180658
_cell_angle_alpha 90.000000
_cell_angle_beta 91.445126
_cell_angle_gamma 90.000000
_cell_volume 3175.937073
_symmetry_space_group_name_H-M "C 2/C"
_symmetry_group_IT_number 15
_symmetry_cell_setting 'monoclinic'
loop_
_space_group_symop_operation_xyz
x,y,z
-x,y,1/2-z
-x,-y,-z
x,-y,1/2+z
1/2+x,1/2+y,z
1/2-x,1/2+y,1/2-z
1/2-x,1/2-y,-z
1/2+x,1/2-y,1/2+z
loop_
_atom_site_type_symbol
_atom_site_label
_atom_site_fract_x
_atom_site_fract_y
_atom_site_fract_z
Si Si1 0.575083 0.955324 0.150234
Si Si2 0.182215 0.707599 0.189866
Si Si3 0.447160 0.172164 0.907620
Si Si4 0.316851 0.028558 0.565323
Si Si5 0.150598 0.263385 0.334270
Si Si6 0.083232 0.144993 0.207495
Si Si7 0.753106 0.915500 0.746809
Si Si8 0.560129 0.281325 0.380770
O O1 0.500000 0.972080 0.250000
O O2 0.557123 0.896725 0.041012
O O3 0.642171 0.937983 0.282603
O O4 0.612526 0.006717 0.043887
O O5 0.265275 0.736745 0.176062
O O6 0.198335 0.642609 0.270620
O O7 0.132285 0.754038 0.290098
O O8 0.147314 0.701921 0.005617
O O9 0.500000 0.172751 0.750000
O O10 0.368820 0.197752 0.826584
O O11 0.474220 0.220582 0.039041
O O12 0.261993 0.065147 0.442333
O O13 0.273512 0.970502 0.639239
O O14 0.096192 0.204301 0.322689
O O15 0.158421 0.103625 0.226980
O O16 0.000000 0.118951 0.250000
O O17 0.080244 0.172319 0.024615
O O18 0.500000 0.307467 0.250000
#
# Coordination Sequence:
#
# PCOD9261651 Si02
#       8
#     8   8   8   8   8   8   8   8
#     4  10  20  34  54  79 109 148 186 225 275 329
#     4  10  19  32  53  81 109 141 179 214 267 339
#     4  10  19  31  48  72 105 141 172 207 260 324
#     4  10  21  38  56  78 110 144 195 246 280 321
#     4   9  18  32  52  78 111 144 169 209 270 342
#     4  10  21  39  59  81 115 150 184 232 294 349
#     4  10  22  39  59  81 108 150 193 240 290 331
#     4  11  21  33  53  83 115 142 177 222 270 337
#
# _framework density 20.151533000000001
#
# number of rings (size 3 to 8) (size 9 to 14) (size 15 to 20)
#    0.000    2.000    0.000    4.875    0.000    6.500 
#    0.000    8.750    0.000    0.000    0.000    0.000 
#    0.000    0.000    0.000    0.000    0.000    0.000 
#
# Total GULP energy -178571.169051 kJ/mol
# GULP energy per Si atom -5580.349033 kJ/mol
# Density = 2.010567 g / cm^3
# Si number density = 20.151533 Si / 1000 Ang^3
#
#
#
# Elastic Constant Matrix: (Units=GPa)
#
#
# Indices 1 2 3 4 5 6 
#
# 1 97.2161 25.2101 26.9080 0.0000 12.4536 0.0000
# 2 25.2101 48.8236 11.9528 0.0000 5.7765 0.0000
# 3 26.9080 11.9528 69.3465 0.0000 15.9016 0.0000
# 4 0.0000 0.0000 0.0000 17.7851 0.0000 3.2251
# 5 12.4536 5.7765 15.9016 0.0000 28.0976 0.0000
# 6 0.0000 0.0000 0.0000 3.2251 0.0000 17.2451
#
#
#
# Elastic Compliance Matrix: (Units=1/GPa)
#
#
# Indices 1 2 3 4 5 6 
#
# 1 0.013035 -0.005562 -0.003490 0.000000 -0.002659 0.000000
# 2 -0.005562 0.023931 -0.001613 0.000000 -0.001542 0.000000
# 3 -0.003490 -0.001613 0.017951 0.000000 -0.008281 0.000000
# 4 0.000000 0.000000 0.000000 0.058201 0.000000 -0.010884
# 5 -0.002659 -0.001542 -0.008281 0.000000 0.041772 0.000000
# 6 0.000000 0.000000 0.000000 -0.010884 0.000000 0.060023
#
#
# Mechanical properties :
#
#
# Convention : Reuss Voigt Hill
#
# Bulk Modulus (GPa) = 29.77205 38.16979 33.97092
# Shear Modulus (GPa) = 20.20702 22.71325 21.46013
#
# Velocity S-wave (km/s) = 3.17006 3.36091 3.26688
# Velocity P-wave (km/s) = 5.31086 5.83467 5.57892
#
# Compressibility (1/GPa) = 0.03358855
#
# Stress axis : x y z
#
# Youngs Moduli (GPa) = 76.71563 41.78663 55.70619
#
# Poissons Ratio (x) = 0.23241 0.19439
# Poissons Ratio (y) = 0.42668 0.08986
# Poissons Ratio (z) = 0.26770 0.06741
#
# Static dielectric constant tensor:
#      x y z
#    x 1.755360 0.000000 0.010980 
#    y 0.000000 1.717090 0.000000 
#    z 0.010980 0.000000 1.737250 
# 
# From -- ./inp_files/51244.got.cif
#   From: 2010.05.17/outbox.cif.g08.bks.cpg/sg15_26_cif.got.tgz:51244.got - 2010.06.03 18:47:42.
