data_PCOD9261774
_publ_section_title
;
Structure prediction by ZEFSAII (Michael W. Deem and Ramdas Pophale) SiO2 
 PCOD9261774
Probable space group: C 2/C
;
_chemical_formula_sum "Si O2"
_cell_formula_units_Z 60
_cell_length_a 19.904109
_cell_length_b 27.408122
_cell_length_c 5.204743
_cell_angle_alpha 90.000000
_cell_angle_beta 63.066896
_cell_angle_gamma 90.000000
_cell_volume 2531.396543
_symmetry_space_group_name_H-M "C 2/C"
_symmetry_group_IT_number 15
_symmetry_cell_setting 'monoclinic'
loop_
_space_group_symop_operation_xyz
x,y,z
-x,y,1/2-z
-x,-y,-z
x,-y,1/2+z
1/2+x,1/2+y,z
1/2-x,1/2+y,1/2-z
1/2-x,1/2-y,-z
1/2+x,1/2-y,1/2+z
loop_
_atom_site_type_symbol
_atom_site_label
_atom_site_fract_x
_atom_site_fract_y
_atom_site_fract_z
Si Si1 0.893064 0.800661 0.084897
Si Si2 0.104605 0.305072 0.112452
Si Si3 0.858821 0.113404 0.281121
Si Si4 0.246832 0.833508 0.876659
Si Si5 0.893566 0.359144 0.885113
Si Si6 0.000000 0.865864 0.250000
Si Si7 0.701756 0.471095 0.285039
Si Si8 0.116297 0.469619 0.494186
O O1 0.917015 0.747942 0.948519
O O2 0.819545 0.800219 0.396713
O O3 0.956580 0.830734 0.126036
O O4 0.869803 0.833073 0.882479
O O5 0.195870 0.307534 0.918383
O O6 0.077247 0.344053 0.946477
O O7 0.084342 0.321231 0.432122
O O8 0.838719 0.077068 0.542926
O O9 0.791092 0.120314 0.197601
O O10 0.936736 0.102770 0.002951
O O11 0.303118 0.852394 0.000652
O O12 0.911143 0.414198 0.931273
O O13 0.681656 0.488210 0.035075
O O14 0.792205 0.466003 0.151824
O O15 0.094068 0.503857 0.770445
#
# Coordination Sequence:
#
# PCOD9261774 Si02
#       8
#     8   8   8   8   8   4   8   8
#     4  11  22  39  59  80 108 148 187 235 291 354
#     4  10  22  34  57  83 119 146 182 231 283 341
#     4  11  23  40  60  79 113 146 197 249 291 347
#     4   9  21  32  56  82 116 141 186 226 281 339
#     4  10  21  35  48  87 118 151 186 226 270 329
#     4  10  26  42  60  80 102 146 202 244 304 344
#     4  10  23  36  57  83 106 144 194 245 298 338
#     4  10  19  31  53  78 117 160 193 223 269 337
#
# _framework density 23.702328999999999
#
# number of rings (size 3 to 8) (size 9 to 14) (size 15 to 20)
#    0.800    1.067    0.000    4.000   13.067    1.067 
#    0.000    0.667    0.000    0.000    0.000    0.000 
#    0.000    0.000    0.000   12.000    0.000    0.800 
#
# Total GULP energy -167863.771481 kJ/mol
# GULP energy per Si atom -5595.459049 kJ/mol
# Density = 2.364838 g / cm^3
# Si number density = 23.702329 Si / 1000 Ang^3
#
#
#
# Elastic Constant Matrix: (Units=GPa)
#
#
# Indices 1 2 3 4 5 6 
#
# 1 94.3124 -1.7232 25.9553 0.0000 -15.2290 0.0000
# 2 -1.7232 101.9890 17.6945 0.0000 7.5449 0.0000
# 3 25.9553 17.6945 87.3593 0.0000 20.4587 0.0000
# 4 0.0000 0.0000 0.0000 24.0056 0.0000 22.7844
# 5 -15.2290 7.5449 20.4587 0.0000 31.9939 0.0000
# 6 0.0000 0.0000 0.0000 22.7844 0.0000 -3.5640
#
#
#
# Elastic Compliance Matrix: (Units=1/GPa)
#
#
# Indices 1 2 3 4 5 6 
#
# 1 0.014343 0.000632 -0.007002 0.000000 0.011156 0.000000
# 2 0.000632 0.010234 -0.002077 0.000000 -0.000785 0.000000
# 3 -0.007002 -0.002077 0.017188 0.000000 -0.013834 0.000000
# 4 0.000000 0.000000 0.000000 0.005894 0.000000 0.037680
# 5 0.011156 -0.000785 -0.013834 0.000000 0.045597 0.000000
# 6 0.000000 0.000000 0.000000 0.037680 0.000000 -0.039699
#
#
# Mechanical properties :
#
#
# Convention : Reuss Voigt Hill
#
# Bulk Modulus (GPa) = 40.20778 40.83488 40.52133
# Shear Modulus (GPa) = 63.49944 26.60271 45.05107
#
# Velocity S-wave (km/s) = 5.18156 3.35381 4.36443
# Velocity P-wave (km/s) = 7.26626 5.68005 6.52156
#
# Compressibility (1/GPa) = 0.02487081
#
# Stress axis : x y z
#
# Youngs Moduli (GPa) = 69.72086 97.71332 58.18094
#
# Poissons Ratio (x) = -0.06174 0.40738
# Poissons Ratio (y) = -0.04405 0.12083
# Poissons Ratio (z) = 0.48818 0.20294
#
# Static dielectric constant tensor:
#      x y z
#    x 1.929720 0.000000 -0.031050 
#    y 0.000000 1.862600 0.000000 
#    z -0.031050 0.000000 1.909630 
# 
# From -- ./inp_files/17619.got.cif
#   From: 2010.05.17/outbox.cif.g08.bks.cpg/sg15_9_cif.got.tgz:17619.got - 2010.06.03 18:47:42.
