data_PCOD9261313
_publ_section_title
;
Structure prediction by ZEFSAII (Michael W. Deem and Ramdas Pophale) SiO2 
 PCOD9261313
Probable space group: C 2/C
;
_chemical_formula_sum "Si O2"
_cell_formula_units_Z 64
_cell_length_a 30.992699
_cell_length_b 16.461499
_cell_length_c 5.532718
_cell_angle_alpha 90.000000
_cell_angle_beta 83.979446
_cell_angle_gamma 90.000000
_cell_volume 2807.147670
_symmetry_space_group_name_H-M "C 2/C"
_symmetry_group_IT_number 15
_symmetry_cell_setting 'monoclinic'
loop_
_space_group_symop_operation_xyz
x,y,z
-x,y,1/2-z
-x,-y,-z
x,-y,1/2+z
1/2+x,1/2+y,z
1/2-x,1/2+y,1/2-z
1/2-x,1/2-y,-z
1/2+x,1/2-y,1/2+z
loop_
_atom_site_type_symbol
_atom_site_label
_atom_site_fract_x
_atom_site_fract_y
_atom_site_fract_z
Si Si1 0.134936 0.602300 0.065555
Si Si2 0.049047 0.968886 0.498249
Si Si3 0.088485 0.808928 0.599570
Si Si4 0.181518 0.036852 0.539073
Si Si5 0.139341 0.200657 0.569452
Si Si6 0.885393 0.360076 0.421204
Si Si7 0.281608 0.172650 0.980488
Si Si8 0.727359 0.079144 0.013799
O O1 0.146877 0.701630 0.057284
O O2 0.110892 0.593360 0.331215
O O3 0.178055 0.547677 0.040629
O O4 0.110724 0.592242 0.829122
O O5 0.051858 0.875183 0.574035
O O6 0.068615 0.016074 0.719127
O O7 0.000000 0.000000 0.500000
O O8 0.118606 0.818378 0.343136
O O9 0.080285 0.713149 0.600804
O O10 0.110289 0.821047 0.850358
O O11 0.177691 0.134814 0.530080
O O12 0.232738 0.018583 0.510452
O O13 0.163641 0.998039 0.302372
O O14 0.834972 0.323475 0.448244
O O15 0.271034 0.128878 0.238619
O O16 0.250000 0.250000 0.000000
O O17 0.270436 0.129365 0.735144
#
# Coordination Sequence:
#
# PCOD9261313 Si02
#       8
#     8   8   8   8   8   8   8   8
#     4   8  16  30  45  67  74  97 128 171 215 254
#     4  10  21  35  50  65  80 105 147 182 203 248
#     4  10  19  32  48  64  83 105 121 168 227 264
#     4  12  26  37  42  57  85 119 148 170 207 267
#     4  10  21  32  49  64  87 102 133 171 219 280
#     4   8  16  26  40  65  86  92 118 153 208 274
#     4  10  19  27  48  68  80  98 129 167 216 262
#     4  10  21  32  47  59  81 104 135 176 208 252
#
# _framework density 22.798943000000001
#
# number of rings (size 3 to 8) (size 9 to 14) (size 15 to 20)
#    0.000    2.250    0.000    2.625   10.500    3.000 
#    0.000    0.000    0.000    0.000    0.000    0.000 
#    0.000    0.000    0.000    0.000    0.000    0.000 
#
# Total GULP energy -178418.778539 kJ/mol
# GULP energy per Si atom -5575.586829 kJ/mol
# Density = 2.274705 g / cm^3
# Si number density = 22.798943 Si / 1000 Ang^3
#
#
#
# Elastic Constant Matrix: (Units=GPa)
#
#
# Indices 1 2 3 4 5 6 
#
# 1 47.0301 24.2543 19.1701 0.0000 15.4207 0.0000
# 2 24.2543 98.4529 28.8632 0.0000 9.7343 0.0000
# 3 19.1701 28.8632 245.1449 0.0000 21.6992 0.0000
# 4 0.0000 0.0000 0.0000 29.5178 0.0000 4.3010
# 5 15.4207 9.7343 21.6992 0.0000 16.7678 0.0000
# 6 0.0000 0.0000 0.0000 4.3010 0.0000 30.4587
#
#
#
# Elastic Compliance Matrix: (Units=1/GPa)
#
#
# Indices 1 2 3 4 5 6 
#
# 1 0.033037 -0.005541 0.000535 0.000000 -0.027858 0.000000
# 2 -0.005541 0.011848 -0.000908 0.000000 -0.000607 0.000000
# 3 0.000535 -0.000908 0.004677 0.000000 -0.006017 0.000000
# 4 0.000000 0.000000 0.000000 0.034590 0.000000 -0.004884
# 5 -0.027858 -0.000607 -0.006017 0.000000 0.093398 0.000000
# 6 0.000000 0.000000 0.000000 -0.004884 0.000000 0.033521
#
#
# Mechanical properties :
#
#
# Convention : Reuss Voigt Hill
#
# Bulk Modulus (GPa) = 26.50135 59.46703 42.98419
# Shear Modulus (GPa) = 21.23341 36.57152 28.90247
#
# Velocity S-wave (km/s) = 3.05509 4.00945 3.56436
# Velocity P-wave (km/s) = 4.90855 6.89740 5.98615
#
# Compressibility (1/GPa) = 0.03773393
#
# Stress axis : x y z
#
# Youngs Moduli (GPa) = 30.26893 84.39895 213.81625
#
# Poissons Ratio (x) = 0.46767 -0.11436
# Poissons Ratio (y) = 0.16773 0.19413
# Poissons Ratio (z) = -0.01619 0.07663
#
# Static dielectric constant tensor:
#      x y z
#    x 1.848560 0.000000 -0.019470 
#    y 0.000000 1.952230 0.000000 
#    z -0.019470 0.000000 1.904660 
# 
# From -- ./inp_files/18453.got.cif
#   From: 2010.05.17/outbox.cif.g08.bks.cpg/sg15_10_cif.got.tgz:18453.got - 2010.06.03 18:47:42.
