data_PCOD9261385
_publ_section_title
;
Structure prediction by ZEFSAII (Michael W. Deem and Ramdas Pophale) SiO2 
 PCOD9261385
Probable space group: C 2/C
;
_chemical_formula_sum "Si O2"
_cell_formula_units_Z 40
_cell_length_a 9.581833
_cell_length_b 23.752583
_cell_length_c 9.274478
_cell_angle_alpha 90.000000
_cell_angle_beta 99.714808
_cell_angle_gamma 90.000000
_cell_volume 2080.539671
_symmetry_space_group_name_H-M "C 2/C"
_symmetry_group_IT_number 15
_symmetry_cell_setting 'monoclinic'
loop_
_space_group_symop_operation_xyz
x,y,z
-x,y,1/2-z
-x,-y,-z
x,-y,1/2+z
1/2+x,1/2+y,z
1/2-x,1/2+y,1/2-z
1/2-x,1/2-y,-z
1/2+x,1/2-y,1/2+z
loop_
_atom_site_type_symbol
_atom_site_label
_atom_site_fract_x
_atom_site_fract_y
_atom_site_fract_z
Si Si1 0.143583 0.319036 0.872187
Si Si2 0.218542 0.830614 0.895275
Si Si3 0.476962 0.236943 0.579325
Si Si4 0.317953 0.953282 0.875333
Si Si5 0.353139 0.059852 0.043471
O O1 0.256811 0.309274 0.765742
O O2 0.186946 0.374806 0.967417
O O3 0.000000 0.332133 0.750000
O O4 0.098059 0.273496 0.981882
O O5 0.080573 0.800729 0.933001
O O6 0.226602 0.898057 0.896719
O O7 0.349934 0.804089 0.004837
O O8 0.500000 0.222105 0.750000
O O9 0.478192 0.941547 0.959274
O O10 0.329746 0.957193 0.705477
O O11 0.276932 0.013451 0.933190
#
# Coordination Sequence:
#
# PCOD9261385 Si02
#       5
#     8   8   8   8   8
#     4   9  15  31  44  64  99 128 147 190 246 276
#     4   9  18  33  45  63 101 130 151 192 243 279
#     4  10  19  29  47  69  88 128 170 190 222 283
#     4   9  15  25  41  63  90 123 143 178 238 285
#     4   9  14  24  40  64  87 121 144 177 235 288
#
# _framework density 19.225781000000001
#
# number of rings (size 3 to 8) (size 9 to 14) (size 15 to 20)
#    0.000    2.800    6.000    0.000    0.000    2.400 
#    0.000    0.000    0.000    0.000    0.000    5.600 
#    0.000    0.000    0.000    9.600    0.000    0.000 
#
# Total GULP energy -111365.064519 kJ/mol
# GULP energy per Si atom -5568.253226 kJ/mol
# Density = 1.918202 g / cm^3
# Si number density = 19.225781 Si / 1000 Ang^3
#
#
#
# Elastic Constant Matrix: (Units=GPa)
#
#
# Indices 1 2 3 4 5 6 
#
# 1 41.7512 41.7479 27.4192 0.0000 -12.0506 0.0000
# 2 41.7479 125.2597 55.0045 0.0000 -26.5093 0.0000
# 3 27.4192 55.0045 58.7451 0.0000 -9.1887 0.0000
# 4 0.0000 0.0000 0.0000 35.6993 0.0000 -7.3882
# 5 -12.0506 -26.5093 -9.1887 0.0000 17.4562 0.0000
# 6 0.0000 0.0000 0.0000 -7.3882 0.0000 17.0160
#
#
#
# Elastic Compliance Matrix: (Units=1/GPa)
#
#
# Indices 1 2 3 4 5 6 
#
# 1 0.041367 -0.005695 -0.011836 0.000000 0.013678 0.000000
# 2 -0.005695 0.019391 -0.012540 0.000000 0.018916 0.000000
# 3 -0.011836 -0.012540 0.032726 0.000000 -0.009987 0.000000
# 4 0.000000 0.000000 0.000000 0.030777 0.000000 0.013363
# 5 0.013678 0.018916 -0.009987 0.000000 0.090197 0.000000
# 6 0.000000 0.000000 0.000000 0.013363 0.000000 0.064570
#
#
# Mechanical properties :
#
#
# Convention : Reuss Voigt Hill
#
# Bulk Modulus (GPa) = 29.99144 52.67768 41.33456
# Shear Modulus (GPa) = 14.27411 20.80661 17.54036
#
# Velocity S-wave (km/s) = 2.72774 3.29329 3.02377
# Velocity P-wave (km/s) = 5.05512 6.47456 5.80836
#
# Compressibility (1/GPa) = 0.03334284
#
# Stress axis : x y z
#
# Youngs Moduli (GPa) = 24.17391 51.57019 30.55653
#
# Poissons Ratio (x) = 0.29368 0.36168
# Poissons Ratio (y) = 0.13767 0.38317
# Poissons Ratio (z) = 0.28613 0.64667
#
# Static dielectric constant tensor:
#      x y z
#    x 1.713430 0.000000 0.019850 
#    y 0.000000 1.697040 0.000000 
#    z 0.019850 0.000000 1.676470 
# 
# From -- ./inp_files/30305.got.cif
#   From: 2010.05.17/outbox.cif.g08.bks.cpg/sg15_16_cif.got.tgz:30305.got - 2010.06.03 18:47:42.
