data_PCOD9261678
_publ_section_title
;
Structure prediction by ZEFSAII (Michael W. Deem and Ramdas Pophale) SiO2 
 PCOD9261678
Probable space group: C 2/C
;
_chemical_formula_sum "Si O2"
_cell_formula_units_Z 44
_cell_length_a 21.586085
_cell_length_b 24.661129
_cell_length_c 5.709961
_cell_angle_alpha 90.000000
_cell_angle_beta 37.924198
_cell_angle_gamma 90.000000
_cell_volume 1868.209342
_symmetry_space_group_name_H-M "C 2/C"
_symmetry_group_IT_number 15
_symmetry_cell_setting 'monoclinic'
loop_
_space_group_symop_operation_xyz
x,y,z
-x,y,1/2-z
-x,-y,-z
x,-y,1/2+z
1/2+x,1/2+y,z
1/2-x,1/2+y,1/2-z
1/2-x,1/2-y,-z
1/2+x,1/2-y,1/2+z
loop_
_atom_site_type_symbol
_atom_site_label
_atom_site_fract_x
_atom_site_fract_y
_atom_site_fract_z
Si Si1 0.705968 0.934473 0.003120
Si Si2 0.373012 0.520626 0.503976
Si Si3 0.381383 0.856669 0.575987
Si Si4 0.000000 0.469481 0.750000
Si Si5 0.808537 0.864474 0.049052
Si Si6 0.309502 0.750417 0.571868
O O1 0.604221 0.936985 0.454989
O O2 0.786333 0.891281 0.863813
O O3 0.664321 0.911979 0.887323
O O4 0.762838 0.991171 0.825741
O O5 0.414163 0.497973 0.133206
O O6 0.360972 0.585514 0.527467
O O7 0.368470 0.806864 0.429789
O O8 0.303450 0.848221 0.022195
O O9 0.500000 0.862788 0.250000
O O10 0.000000 0.500000 0.500000
O O11 0.866792 0.807629 0.889512
O O12 0.250000 0.750000 0.500000
O O13 0.250000 0.750000 0.000000
#
# Coordination Sequence:
#
# PCOD9261678 Si02
#       6
#     8   8   8   4   8   8
#     4  11  21  33  49  70 106 136 179 211 255 309
#     4  10  19  31  49  72  99 133 173 209 242 307
#     4  11  22  35  53  79 105 141 182 223 264 310
#     4  12  26  34  44  68 108 148 176 204 254 298
#     4  10  20  36  53  71 105 143 177 220 263 311
#     4  10  21  39  56  73  99 141 182 222 267 311
#
# _framework density 23.551964999999999
#
# number of rings (size 3 to 8) (size 9 to 14) (size 15 to 20)
#    0.000    1.455    3.636    3.273    3.818    0.000 
#    0.000    0.000    0.000    0.000    0.000    0.000 
#    0.000    5.818    0.000    0.000    0.000    6.182 
#
# Total GULP energy -122553.266503 kJ/mol
# GULP energy per Si atom -5570.603023 kJ/mol
# Density = 2.349836 g / cm^3
# Si number density = 23.551965 Si / 1000 Ang^3
#
#
#
# Elastic Constant Matrix: (Units=GPa)
#
#
# Indices 1 2 3 4 5 6 
#
# 1 143.8501 44.3017 25.4856 0.0000 22.6288 0.0000
# 2 44.3017 163.7744 -3.3044 0.0000 14.3511 0.0000
# 3 25.4856 -3.3044 66.7089 0.0000 24.7582 0.0000
# 4 0.0000 0.0000 0.0000 12.7770 0.0000 20.9561
# 5 22.6288 14.3511 24.7582 0.0000 27.9269 0.0000
# 6 0.0000 0.0000 0.0000 20.9561 0.0000 28.0601
#
#
#
# Elastic Compliance Matrix: (Units=1/GPa)
#
#
# Indices 1 2 3 4 5 6 
#
# 1 0.008554 -0.001965 -0.001740 0.000000 -0.004378 0.000000
# 2 -0.001965 0.007089 0.002777 0.000000 -0.004512 0.000000
# 3 -0.001740 0.002777 0.023547 0.000000 -0.020891 0.000000
# 4 0.000000 0.000000 0.000000 -0.347999 0.000000 0.259896
# 5 -0.004378 -0.004512 -0.020891 0.000000 0.060195 0.000000
# 6 0.000000 0.000000 0.000000 0.259896 0.000000 -0.158460
#
#
# Mechanical properties :
#
#
# Convention : Reuss Voigt Hill
#
# Bulk Modulus (GPa) = 26.78736 56.36660 41.57698
# Shear Modulus (GPa) = -12.73003 34.27619 10.77308
#
# Velocity S-wave (km/s) = -2.32741 3.81903 2.14105
# Velocity P-wave (km/s) = 2.04353 6.59026 4.87891
#
# Compressibility (1/GPa) = 0.03733105
#
# Stress axis : x y z
#
# Youngs Moduli (GPa) = 116.90371 141.06412 42.46913
#
# Poissons Ratio (x) = 0.27724 0.07391
# Poissons Ratio (y) = 0.22976 -0.11792
# Poissons Ratio (z) = 0.20346 -0.39167
#
# Static dielectric constant tensor:
#      x y z
#    x 1.968110 0.000000 -0.024510 
#    y 0.000000 1.970330 0.000000 
#    z -0.024510 0.000000 2.112800 
# 
# From -- ./inp_files/8012.got.cif
#   From: 2010.05.17/outbox.cif.g08.bks.cpg/sg15_5_cif.got.tgz:8012.got - 2010.06.03 18:47:42.
