data_PCOD9261156
_publ_section_title
;
Structure prediction by ZEFSAII (Michael W. Deem and Ramdas Pophale) SiO2 
 PCOD9261156
Probable space group: C 2/C
;
_chemical_formula_sum "Si O2"
_cell_formula_units_Z 56
_cell_length_a 12.208752
_cell_length_b 7.621750
_cell_length_c 27.221088
_cell_angle_alpha 90.000000
_cell_angle_beta 59.475000
_cell_angle_gamma 90.000000
_cell_volume 2181.926724
_symmetry_space_group_name_H-M "C 2/C"
_symmetry_group_IT_number 15
_symmetry_cell_setting 'monoclinic'
loop_
_space_group_symop_operation_xyz
x,y,z
-x,y,1/2-z
-x,-y,-z
x,-y,1/2+z
1/2+x,1/2+y,z
1/2-x,1/2+y,1/2-z
1/2-x,1/2-y,-z
1/2+x,1/2-y,1/2+z
loop_
_atom_site_type_symbol
_atom_site_label
_atom_site_fract_x
_atom_site_fract_y
_atom_site_fract_z
Si Si1 0.606361 0.105597 0.436634
Si Si2 0.988922 0.159931 0.040122
Si Si3 0.989075 0.626341 0.362161
Si Si4 0.202627 0.152184 0.765506
Si Si5 0.130646 0.995399 0.594163
Si Si6 0.743095 0.465973 0.367861
Si Si7 0.444816 0.329998 0.714428
O O1 0.514831 0.170851 0.501308
O O2 0.542409 0.043129 0.400315
O O3 0.722065 0.989980 0.429258
O O4 0.683883 0.287256 0.403878
O O5 0.854800 0.123059 0.096971
O O6 0.099512 0.121932 0.054063
O O7 0.000000 0.000000 0.000000
O O8 0.880261 0.516588 0.359057
O O9 0.103049 0.691564 0.300370
O O10 0.928509 0.810543 0.395325
O O11 0.336318 0.214750 0.714060
O O12 0.235355 0.068862 0.811409
O O13 0.131790 0.004420 0.750613
O O14 0.054247 0.898951 0.654872
O O15 0.500000 0.240939 0.750000
#
# Coordination Sequence:
#
# PCOD9261156 Si02
#       7
#     8   8   8   8   8   8   8
#     4  10  21  39  63  95 128 165 206 254 312 371
#     4  10  18  40  68  89 130 174 200 255 324 372
#     4  10  21  41  62  91 132 163 205 260 311 375
#     4  10  23  42  60  91 125 162 212 261 319 371
#     4  11  21  42  64  91 131 165 210 264 313 378
#     4  10  20  41  65  88 129 170 204 258 314 375
#     4  11  23  40  64  89 125 165 210 264 316 369
#
# _framework density 25.665391
#
# number of rings (size 3 to 8) (size 9 to 14) (size 15 to 20)
#    0.000    1.714    5.714    2.143    0.000    5.143 
#    2.571    0.714    0.000    0.000    0.000    0.000 
#    0.000    0.000    0.000    0.000    0.000    0.000 
#
# Total GULP energy -156872.023760 kJ/mol
# GULP energy per Si atom -5602.572277 kJ/mol
# Density = 2.560698 g / cm^3
# Si number density = 25.665391 Si / 1000 Ang^3
#
#
#
# Elastic Constant Matrix: (Units=GPa)
#
#
# Indices 1 2 3 4 5 6 
#
# 1 190.7099 19.6996 47.6059 0.0000 -13.3238 0.0000
# 2 19.6996 49.4821 8.7554 0.0000 3.4403 0.0000
# 3 47.6059 8.7554 79.7001 0.0000 -3.2707 0.0000
# 4 0.0000 0.0000 0.0000 31.1023 0.0000 -1.6120
# 5 -13.3238 3.4403 -3.2707 0.0000 40.9006 0.0000
# 6 0.0000 0.0000 0.0000 -1.6120 0.0000 57.6599
#
#
#
# Elastic Compliance Matrix: (Units=1/GPa)
#
#
# Indices 1 2 3 4 5 6 
#
# 1 0.006489 -0.002092 -0.003564 0.000000 0.002005 0.000000
# 2 -0.002092 0.021436 -0.001211 0.000000 -0.002581 0.000000
# 3 -0.003564 -0.001211 0.014814 0.000000 0.000125 0.000000
# 4 0.000000 0.000000 0.000000 0.032199 0.000000 0.000900
# 5 0.002005 -0.002581 0.000125 0.000000 0.025330 0.000000
# 6 0.000000 0.000000 0.000000 0.000900 0.000000 0.017368
#
#
# Mechanical properties :
#
#
# Convention : Reuss Voigt Hill
#
# Bulk Modulus (GPa) = 34.47713 52.44600 43.46157
# Shear Modulus (GPa) = 35.45106 42.18796 38.81951
#
# Velocity S-wave (km/s) = 3.72059 4.05874 3.89334
# Velocity P-wave (km/s) = 5.64974 6.51486 6.09766
#
# Compressibility (1/GPa) = 0.02900473
#
# Stress axis : x y z
#
# Youngs Moduli (GPa) = 154.09604 46.65039 67.50319
#
# Poissons Ratio (x) = 0.09761 0.24059
# Poissons Ratio (y) = 0.32242 0.08175
# Poissons Ratio (z) = 0.54922 0.05649
#
# Static dielectric constant tensor:
#      x y z
#    x 1.936470 0.000000 -0.087540 
#    y 0.000000 2.255520 0.000000 
#    z -0.087540 0.000000 1.927690 
# 
# From -- ./inp_files/309920.got.cif
#   From: 2010.05.17/outbox.cif.g08.bks.cpg/sg15_155_cif.got.tgz:309920.got - 2010.06.03 18:47:42.
