data_PCOD9261458
_publ_section_title
;
Structure prediction by ZEFSAII (Michael W. Deem and Ramdas Pophale) SiO2 
 PCOD9261458
Probable space group: C 2/C
;
_chemical_formula_sum "Si O2"
_cell_formula_units_Z 64
_cell_length_a 11.347734
_cell_length_b 18.056810
_cell_length_c 26.150813
_cell_angle_alpha 90.000000
_cell_angle_beta 49.390330
_cell_angle_gamma 90.000000
_cell_volume 4067.893035
_symmetry_space_group_name_H-M "C 2/C"
_symmetry_group_IT_number 15
_symmetry_cell_setting 'monoclinic'
loop_
_space_group_symop_operation_xyz
x,y,z
-x,y,1/2-z
-x,-y,-z
x,-y,1/2+z
1/2+x,1/2+y,z
1/2-x,1/2+y,1/2-z
1/2-x,1/2-y,-z
1/2+x,1/2-y,1/2+z
loop_
_atom_site_type_symbol
_atom_site_label
_atom_site_fract_x
_atom_site_fract_y
_atom_site_fract_z
Si Si1 0.665245 0.901197 0.558541
Si Si2 0.156941 0.471056 0.673754
Si Si3 0.050219 0.806059 0.991451
Si Si4 0.717671 0.125000 0.604886
Si Si5 0.428204 0.721055 0.326246
Si Si6 0.558745 0.625000 0.377503
Si Si7 0.409134 0.848803 0.558540
Si Si8 0.274573 0.056059 0.008549
O O1 0.646058 0.931225 0.621529
O O2 0.797539 0.837813 0.523354
O O3 0.503417 0.875000 0.581056
O O4 0.716007 0.969924 0.508306
O O5 0.194440 0.556095 0.649196
O O6 0.295692 0.429916 0.664295
O O7 0.000000 0.465801 0.750000
O O8 0.067700 0.827549 0.927105
O O9 0.896995 0.848707 0.055186
O O10 0.009077 0.719924 0.008305
O O11 0.607971 0.193905 0.649196
O O12 0.687447 0.098707 0.555186
O O13 0.500000 0.715801 0.250000
O O14 0.538578 0.679915 0.335705
O O15 0.260644 0.681225 0.378471
O O16 0.400986 0.577549 0.427105
O O17 0.382398 0.912187 0.523354
#
# Coordination Sequence:
#
# PCOD9261458 Si02
#       8
#     8   8   8   8   8   8   8   8
#     4  10  19  30  47  71  98 124 155 191 239 282
#     4  10  20  31  48  68  97 127 159 194 230 283
#     4   9  17  31  50  71  94 119 154 202 240 280
#     4   9  17  32  51  72  90 118 162 202 238 268
#     4  10  20  31  48  68  97 127 159 194 230 283
#     4   9  18  32  49  70  93 124 156 194 248 274
#     4  10  19  30  47  71  98 124 155 191 239 282
#     4   9  17  31  50  71  94 119 154 202 240 280
#
# _framework density 15.73296
#
# number of rings (size 3 to 8) (size 9 to 14) (size 15 to 20)
#    0.000    2.500    0.000    2.625    1.750    6.000 
#    0.000    0.000    0.000    0.000    0.000    0.000 
#    0.000    0.000    0.000    0.000    0.000    0.000 
#
# Total GULP energy -178325.885199 kJ/mol
# GULP energy per Si atom -5572.683912 kJ/mol
# Density = 1.569715 g / cm^3
# Si number density = 15.732960 Si / 1000 Ang^3
#
#
#
# Elastic Constant Matrix: (Units=GPa)
#
#
# Indices 1 2 3 4 5 6 
#
# 1 109.5653 47.8644 29.1747 0.0000 4.1854 0.0000
# 2 47.8644 72.7616 38.5726 0.0000 0.6099 0.0000
# 3 29.1747 38.5726 81.2648 0.0001 -2.3279 0.0000
# 4 0.0000 0.0000 0.0001 3.5319 0.0000 1.1016
# 5 4.1854 0.6099 -2.3279 0.0000 8.7340 0.0000
# 6 0.0000 0.0000 0.0000 1.1016 0.0000 20.3178
#
#
#
# Elastic Compliance Matrix: (Units=1/GPa)
#
#
# Indices 1 2 3 4 5 6 
#
# 1 0.013153 -0.008026 -0.001085 0.000000 -0.006032 0.000000
# 2 -0.008026 0.023378 -0.008214 0.000000 0.000025 0.000000
# 3 -0.001085 -0.008214 0.016753 0.000000 0.005559 0.000000
# 4 0.000000 0.000000 0.000000 0.288007 0.000001 -0.015615
# 5 -0.006032 0.000025 0.005559 0.000001 0.118866 0.000000
# 6 0.000000 0.000000 0.000000 -0.015615 0.000000 0.050065
#
#
# Mechanical properties :
#
#
# Convention : Reuss Voigt Hill
#
# Bulk Modulus (GPa) = 53.66942 54.97945 54.32443
# Shear Modulus (GPa) = 9.07305 16.38206 12.72756
#
# Velocity S-wave (km/s) = 2.40404 3.23035 2.84733
# Velocity P-wave (km/s) = 6.47246 6.99534 6.73897
#
# Compressibility (1/GPa) = 0.01863259
#
# Stress axis : x y z
#
# Youngs Moduli (GPa) = 76.03006 42.77560 59.69078
#
# Poissons Ratio (x) = 0.34334 0.06476
# Poissons Ratio (y) = 0.61025 0.49031
# Poissons Ratio (z) = 0.08248 0.35136
#
# Static dielectric constant tensor:
#      x y z
#    x 1.518230 0.000000 0.001970 
#    y 0.000000 1.532310 0.000000 
#    z 0.001970 0.000000 1.488280 
# 
# From -- ./inp_files/199191.got.cif
#   From: 2010.05.17/outbox.cif.g08.bks.cpg/sg15_100_cif.got.tgz:199191.got - 2010.06.03 18:47:42.
