data_PCOD9261688
_publ_section_title
;
Structure prediction by ZEFSAII (Michael W. Deem and Ramdas Pophale) SiO2 
 PCOD9261688
Probable space group: C 2/C
;
_chemical_formula_sum "Si O2"
_cell_formula_units_Z 56
_cell_length_a 17.754635
_cell_length_b 23.374916
_cell_length_c 9.219610
_cell_angle_alpha 90.000000
_cell_angle_beta 44.521351
_cell_angle_gamma 90.000000
_cell_volume 2682.877133
_symmetry_space_group_name_H-M "C 2/C"
_symmetry_group_IT_number 15
_symmetry_cell_setting 'monoclinic'
loop_
_space_group_symop_operation_xyz
x,y,z
-x,y,1/2-z
-x,-y,-z
x,-y,1/2+z
1/2+x,1/2+y,z
1/2-x,1/2+y,1/2-z
1/2-x,1/2-y,-z
1/2+x,1/2-y,1/2+z
loop_
_atom_site_type_symbol
_atom_site_label
_atom_site_fract_x
_atom_site_fract_y
_atom_site_fract_z
Si Si1 0.327494 0.069838 0.364201
Si Si2 0.421845 0.703364 0.579008
Si Si3 0.207710 0.683834 0.697618
Si Si4 0.519413 0.821466 0.883321
Si Si5 0.884760 0.123373 0.889653
Si Si6 0.923510 0.517791 0.969281
Si Si7 0.340947 0.680545 0.251034
O O1 0.399314 0.126828 0.252155
O O2 0.205213 0.085725 0.563089
O O3 0.376177 0.030748 0.426473
O O4 0.331124 0.044957 0.194667
O O5 0.315379 0.682897 0.644844
O O6 0.433916 0.772097 0.576207
O O7 0.409234 0.678081 0.756651
O O8 0.535135 0.678917 0.364934
O O9 0.248840 0.660928 0.487249
O O10 0.179120 0.751457 0.736250
O O11 0.096794 0.656410 0.902673
O O12 0.500000 0.795559 0.750000
O O13 0.000000 0.093560 0.750000
O O14 0.839785 0.147095 0.102700
O O15 0.000000 0.552178 0.750000
O O16 0.000000 0.500000 0.000000
#
# Coordination Sequence:
#
# PCOD9261688 Si02
#       7
#     8   8   8   8   8   8   8
#     4  11  22  39  62  84 111 146 191 243 299 352
#     4  10  19  33  54  80 119 159 191 228 275 335
#     4  10  19  31  49  77 114 154 194 232 270 325
#     4  11  21  32  54  87 114 150 197 233 275 348
#     4  10  21  38  59  84 115 154 192 230 281 345
#     4   9  20  39  60  83 112 142 178 237 303 347
#     4   9  19  33  48  75 117 155 188 232 278 322
#
# _framework density 20.873114000000001
#
# number of rings (size 3 to 8) (size 9 to 14) (size 15 to 20)
#    0.000    2.000    0.000    5.571    0.000    2.857 
#    0.000    5.000    0.000    1.714    0.000    0.000 
#    0.000    0.000    0.000    0.286    0.000    0.000 
#
# Total GULP energy -156051.589284 kJ/mol
# GULP energy per Si atom -5573.271046 kJ/mol
# Density = 2.082561 g / cm^3
# Si number density = 20.873114 Si / 1000 Ang^3
#
#
#
# Elastic Constant Matrix: (Units=GPa)
#
#
# Indices 1 2 3 4 5 6 
#
# 1 87.3669 13.2379 45.0232 0.0000 -14.2449 0.0000
# 2 13.2379 35.5612 14.7015 0.0000 -5.3483 0.0000
# 3 45.0232 14.7015 123.0692 0.0000 -6.0562 0.0000
# 4 0.0000 0.0000 0.0000 2.5527 0.0000 -10.0948
# 5 -14.2449 -5.3483 -6.0562 0.0000 44.5183 0.0000
# 6 0.0000 0.0000 0.0000 -10.0948 0.0000 17.5013
#
#
#
# Elastic Compliance Matrix: (Units=1/GPa)
#
#
# Indices 1 2 3 4 5 6 
#
# 1 0.015079 -0.002987 -0.004973 0.000000 0.003790 0.000000
# 2 -0.002987 0.030603 -0.002445 0.000000 0.002388 0.000000
# 3 -0.004973 -0.002445 0.010213 0.000000 -0.000496 0.000000
# 4 0.000000 0.000000 0.000000 -0.305812 0.000000 -0.176393
# 5 0.003790 0.002388 -0.000496 0.000000 0.023895 0.000000
# 6 0.000000 0.000000 0.000000 -0.176393 0.000000 -0.044605
#
#
# Mechanical properties :
#
#
# Convention : Reuss Voigt Hill
#
# Bulk Modulus (GPa) = 28.50400 43.54694 36.02547
# Shear Modulus (GPa) = -20.99762 24.45013 1.72625
#
# Velocity S-wave (km/s) = -3.17514 3.42624 0.91039
# Velocity P-wave (km/s) = 0.49347 6.04650 4.28974
#
# Compressibility (1/GPa) = 0.03508279
#
# Stress axis : x y z
#
# Youngs Moduli (GPa) = 66.31554 32.67684 97.91815
#
# Poissons Ratio (x) = 0.09762 0.48697
# Poissons Ratio (y) = 0.19811 0.23944
# Poissons Ratio (z) = 0.32980 0.07990
#
# Static dielectric constant tensor:
#      x y z
#    x 1.809750 0.000000 -0.019410 
#    y 0.000000 1.752400 0.000000 
#    z -0.019410 0.000000 1.852900 
# 
# From -- ./inp_files/52613.got.cif
#   From: 2010.05.17/outbox.cif.g08.bks.cpg/sg15_27_cif.got.tgz:52613.got - 2010.06.03 18:47:42.
