data_PCOD9261145
_publ_section_title
;
Structure prediction by ZEFSAII (Michael W. Deem and Ramdas Pophale) SiO2 
 PCOD9261145
Probable space group: C 2/C
;
_chemical_formula_sum "Si O2"
_cell_formula_units_Z 48
_cell_length_a 11.142061
_cell_length_b 9.391086
_cell_length_c 17.614936
_cell_angle_alpha 90.000000
_cell_angle_beta 102.990981
_cell_angle_gamma 90.000000
_cell_volume 1795.982618
_symmetry_space_group_name_H-M "C 2/C"
_symmetry_group_IT_number 15
_symmetry_cell_setting 'monoclinic'
loop_
_space_group_symop_operation_xyz
x,y,z
-x,y,1/2-z
-x,-y,-z
x,-y,1/2+z
1/2+x,1/2+y,z
1/2-x,1/2+y,1/2-z
1/2-x,1/2-y,-z
1/2+x,1/2-y,1/2+z
loop_
_atom_site_type_symbol
_atom_site_label
_atom_site_fract_x
_atom_site_fract_y
_atom_site_fract_z
Si Si1 0.454985 0.117652 0.067883
Si Si2 0.750000 0.250000 0.500000
Si Si3 0.362072 0.550643 0.986911
Si Si4 0.311717 0.062981 0.309259
Si Si5 0.860235 0.798016 0.198779
Si Si6 0.349891 0.816024 0.095246
Si Si7 0.000000 0.644795 0.750000
O O1 0.597961 0.122978 0.111044
O O2 0.371492 0.212852 0.118862
O O3 0.420151 0.952585 0.070015
O O4 0.394090 0.197752 0.988948
O O5 0.710545 0.414379 0.496069
O O6 0.347304 0.679776 0.042636
O O7 0.500000 0.500000 0.000000
O O8 0.283006 0.612175 0.904724
O O9 0.288573 0.192284 0.246569
O O10 0.204020 0.952272 0.316177
O O11 0.405091 0.961550 0.276328
O O12 0.000000 0.810032 0.250000
O O13 0.424776 0.768345 0.178792
#
# Coordination Sequence:
#
# PCOD9261145 Si02
#       7
#     8   4   8   8   8   8   4
#     4   9  19  41  64  91 135 170 214 275 333 392
#     4  10  22  42  66  92 128 166 224 282 316 392
#     4  10  22  43  69  95 129 183 230 279 335 403
#     4  10  19  40  65  88 131 177 213 267 341 400
#     4  10  20  41  60  91 129 172 214 269 326 403
#     4   9  19  40  68  95 134 177 226 276 340 413
#     4  10  18  40  66  96 134 176 216 284 344 406
#
# _framework density 26.726315
#
# number of rings (size 3 to 8) (size 9 to 14) (size 15 to 20)
#    0.000    2.333    4.167    0.000    0.000    5.333 
#   10.500   11.667    0.000    0.000    0.000    0.000 
#    0.000    0.000    0.000    0.000    0.000    0.000 
#
# Total GULP energy -133748.336121 kJ/mol
# GULP energy per Si atom -5572.847338 kJ/mol
# Density = 2.666548 g / cm^3
# Si number density = 26.726315 Si / 1000 Ang^3
#
#
#
# Elastic Constant Matrix: (Units=GPa)
#
#
# Indices 1 2 3 4 5 6 
#
# 1 96.5752 77.8584 25.1900 0.0000 16.9044 0.0000
# 2 77.8584 222.3361 52.6151 0.0000 18.6823 0.0000
# 3 25.1900 52.6151 80.6564 0.0000 24.8361 0.0000
# 4 0.0000 0.0000 0.0000 10.8499 0.0000 -1.4924
# 5 16.9044 18.6823 24.8361 0.0000 27.8720 0.0000
# 6 0.0000 0.0000 0.0000 -1.4924 0.0000 66.2059
#
#
#
# Elastic Compliance Matrix: (Units=1/GPa)
#
#
# Indices 1 2 3 4 5 6 
#
# 1 0.015338 -0.004928 0.000374 0.000000 -0.006333 0.000000
# 2 -0.004928 0.006910 -0.003394 0.000000 0.001381 0.000000
# 3 0.000374 -0.003394 0.019108 0.000000 -0.014978 0.000000
# 4 0.000000 0.000000 0.000000 0.092453 0.000000 0.002084
# 5 -0.006333 0.001381 -0.014978 0.000000 0.052141 0.000000
# 6 0.000000 0.000000 0.000000 0.002084 0.000000 0.015151
#
#
# Mechanical properties :
#
#
# Convention : Reuss Voigt Hill
#
# Bulk Modulus (GPa) = 39.27526 78.98829 59.13178
# Shear Modulus (GPa) = 22.17454 37.24584 29.71019
#
# Velocity S-wave (km/s) = 2.88356 3.73715 3.33775
# Velocity P-wave (km/s) = 5.08073 6.94553 6.08499
#
# Compressibility (1/GPa) = 0.02546132
#
# Stress axis : x y z
#
# Youngs Moduli (GPa) = 65.19692 144.70861 52.33455
#
# Poissons Ratio (x) = 0.71306 -0.01959
# Poissons Ratio (y) = 0.32126 0.17764
# Poissons Ratio (z) = -0.02440 0.49118
#
# Static dielectric constant tensor:
#      x y z
#    x 2.063530 0.000000 0.006690 
#    y 0.000000 1.910500 0.000000 
#    z 0.006690 0.000000 1.753250 
# 
# From -- ./inp_files/291316.got.cif
#   From: 2010.05.17/outbox.cif.g08.bks.cpg/sg15_146_cif.got.tgz:291316.got - 2010.06.03 18:47:42.
