data_PCOD9261803
_publ_section_title
;
Structure prediction by ZEFSAII (Michael W. Deem and Ramdas Pophale) SiO2 
 PCOD9261803
Probable space group: C 2/C
;
_chemical_formula_sum "Si O2"
_cell_formula_units_Z 64
_cell_length_a 12.904297
_cell_length_b 29.785000
_cell_length_c 9.003576
_cell_angle_alpha 90.000000
_cell_angle_beta 88.068950
_cell_angle_gamma 90.000000
_cell_volume 3458.599578
_symmetry_space_group_name_H-M "C 2/C"
_symmetry_group_IT_number 15
_symmetry_cell_setting 'monoclinic'
loop_
_space_group_symop_operation_xyz
x,y,z
-x,y,1/2-z
-x,-y,-z
x,-y,1/2+z
1/2+x,1/2+y,z
1/2-x,1/2+y,1/2-z
1/2-x,1/2-y,-z
1/2+x,1/2-y,1/2+z
loop_
_atom_site_type_symbol
_atom_site_label
_atom_site_fract_x
_atom_site_fract_y
_atom_site_fract_z
Si Si1 0.106841 0.679397 0.678695
Si Si2 0.682359 0.630961 0.771071
Si Si3 0.104351 0.848705 0.599959
Si Si4 0.612390 0.553275 0.168810
Si Si5 0.066112 0.728412 0.375035
Si Si6 0.210154 0.768824 0.766326
Si Si7 0.586138 0.690057 0.515434
Si Si8 0.385088 0.533856 0.682891
O O1 0.200602 0.646119 0.705109
O O2 0.092139 0.695955 0.510235
O O3 0.138357 0.725389 0.759898
O O4 0.000000 0.662146 0.750000
O O5 0.626834 0.657992 0.642266
O O6 0.673059 0.577660 0.754000
O O7 0.622931 0.643959 0.923982
O O8 0.147351 0.894933 0.668020
O O9 0.166971 0.805823 0.653387
O O10 0.980918 0.838126 0.602030
O O11 0.500000 0.556522 0.250000
O O12 0.664076 0.513120 0.259915
O O13 0.607182 0.538019 0.996269
O O14 0.174418 0.743202 0.292935
O O15 0.000000 0.704511 0.250000
O O16 0.992926 0.770155 0.430035
O O17 0.186875 0.789767 0.927993
O O18 0.500000 0.536189 0.750000
#
# Coordination Sequence:
#
# PCOD9261803 Si02
#       8
#     8   8   8   8   8   8   8   8
#     4  12  23  41  59  79 114 151 198 241 282 332
#     4  11  24  38  58  83 113 153 191 234 287 340
#     4  11  20  37  55  84 115 158 184 235 279 340
#     4  10  19  31  54  80 114 149 185 224 283 340
#     4  12  25  39  57  79 115 154 195 244 281 328
#     4  12  23  37  57  82 116 155 196 233 285 333
#     4  12  23  37  56  82 118 154 200 229 282 342
#     4  10  20  35  55  83 118 150 184 228 285 344
#
# _framework density 18.504598999999999
#
# number of rings (size 3 to 8) (size 9 to 14) (size 15 to 20)
#    0.000    0.750    3.750    7.125    1.750    2.000 
#    0.000    0.000    0.000    0.000    0.000    4.375 
#    0.000    0.000    0.000    0.000    0.000    0.000 
#
# Total GULP energy -178685.261594 kJ/mol
# GULP energy per Si atom -5583.914425 kJ/mol
# Density = 1.846248 g / cm^3
# Si number density = 18.504599 Si / 1000 Ang^3
#
#
#
# Elastic Constant Matrix: (Units=GPa)
#
#
# Indices 1 2 3 4 5 6 
#
# 1 77.8497 17.1588 24.3496 0.0000 3.8142 0.0000
# 2 17.1588 85.0212 26.8089 0.0000 12.7520 0.0000
# 3 24.3496 26.8089 67.1756 0.0000 -7.1954 0.0000
# 4 0.0000 0.0000 0.0000 27.6637 0.0000 3.6995
# 5 3.8142 12.7520 -7.1954 0.0000 23.9143 0.0000
# 6 0.0000 0.0000 0.0000 3.6995 0.0000 22.8224
#
#
#
# Elastic Compliance Matrix: (Units=1/GPa)
#
#
# Indices 1 2 3 4 5 6 
#
# 1 0.014905 -0.000726 -0.005504 0.000000 -0.003646 0.000000
# 2 -0.000726 0.015715 -0.007124 0.000000 -0.010408 0.000000
# 3 -0.005504 -0.007124 0.020899 0.000000 0.010964 0.000000
# 4 0.000000 0.000000 0.000000 0.036950 0.000000 -0.005990
# 5 -0.003646 -0.010408 0.010964 0.000000 0.051246 0.000000
# 6 0.000000 0.000000 0.000000 -0.005990 0.000000 0.044788
#
#
# Mechanical properties :
#
#
# Convention : Reuss Voigt Hill
#
# Bulk Modulus (GPa) = 40.30102 40.74234 40.52168
# Shear Modulus (GPa) = 22.78110 25.66202 24.22156
#
# Velocity S-wave (km/s) = 3.51252 3.72800 3.62186
# Velocity P-wave (km/s) = 6.18681 6.37149 6.27983
#
# Compressibility (1/GPa) = 0.02481327
#
# Stress axis : x y z
#
# Youngs Moduli (GPa) = 67.09011 63.63159 47.84995
#
# Poissons Ratio (x) = 0.04619 0.26335
# Poissons Ratio (y) = 0.04870 0.34086
# Poissons Ratio (z) = 0.36924 0.45328
#
# Static dielectric constant tensor:
#      x y z
#    x 1.657850 0.000000 -0.017280 
#    y 0.000000 1.674000 0.000000 
#    z -0.017280 0.000000 1.719030 
# 
# From -- ./inp_files/35661.got.cif
#   From: 2010.05.17/outbox.cif.g08.bks.cpg/sg15_18_cif.got.tgz:35661.got - 2010.06.03 18:47:42.
