data_PCOD9261050
_publ_section_title
;
Structure prediction by ZEFSAII (Michael W. Deem and Ramdas Pophale) SiO2 
 PCOD9261050
Probable space group: C 2/C
;
_chemical_formula_sum "Si O2"
_cell_formula_units_Z 44
_cell_length_a 27.597307
_cell_length_b 7.926220
_cell_length_c 22.084061
_cell_angle_alpha 90.000000
_cell_angle_beta 21.021248
_cell_angle_gamma 90.000000
_cell_volume 1732.847175
_symmetry_space_group_name_H-M "C 2/C"
_symmetry_group_IT_number 15
_symmetry_cell_setting 'monoclinic'
loop_
_space_group_symop_operation_xyz
x,y,z
-x,y,1/2-z
-x,-y,-z
x,-y,1/2+z
1/2+x,1/2+y,z
1/2-x,1/2+y,1/2-z
1/2-x,1/2-y,-z
1/2+x,1/2-y,1/2+z
loop_
_atom_site_type_symbol
_atom_site_label
_atom_site_fract_x
_atom_site_fract_y
_atom_site_fract_z
Si Si1 0.500000 0.134177 0.250000
Si Si2 0.822246 0.582790 0.667844
Si Si3 0.651727 0.216460 0.170468
Si Si4 0.402552 0.248288 0.135541
Si Si5 0.663263 0.188731 0.658878
Si Si6 0.868717 0.618610 0.989664
O O1 0.515693 0.249002 0.290992
O O2 0.607815 0.002218 0.096127
O O3 0.670778 0.645790 0.831369
O O4 0.843660 0.439111 0.692384
O O5 0.863266 0.490886 0.556929
O O6 0.935947 0.725543 0.548570
O O7 0.649033 0.303283 0.237915
O O8 0.661831 0.014320 0.166813
O O9 0.750000 0.250000 0.000000
O O10 0.750000 0.250000 0.500000
O O11 0.736575 0.272766 0.630573
O O12 0.505170 0.230665 0.835125
#
# Coordination Sequence:
#
# PCOD9261050 Si02
#       6
#     4   8   8   8   8   8
#     4  10  18  40  60  90 138 178 214 294 342 406
#     4  11  26  49  72  99 143 184 244 291 355 423
#     4  11  23  41  67 100 141 183 228 293 361 417
#     4  11  26  47  73 104 138 194 232 299 355 421
#     4  11  21  40  66  98 136 186 227 285 352 416
#     4  11  21  41  66  96 139 180 230 290 344 418
#
# _framework density 25.391735000000001
#
# number of rings (size 3 to 8) (size 9 to 14) (size 15 to 20)
#    0.000    1.091    7.273    1.091    2.545    0.727 
#    6.545    0.000    0.000    0.000    0.000    0.000 
#    0.000    0.000    0.000    0.000    0.000    0.000 
#
# Total GULP energy -122765.619561 kJ/mol
# GULP energy per Si atom -5580.255435 kJ/mol
# Density = 2.533394 g / cm^3
# Si number density = 25.391735 Si / 1000 Ang^3
#
#
#
# Elastic Constant Matrix: (Units=GPa)
#
#
# Indices 1 2 3 4 5 6 
#
# 1 152.1957 16.6937 52.5786 -0.0008 -15.8064 0.0002
# 2 16.6937 24.4640 7.0720 -0.0021 -4.9056 0.0016
# 3 52.5786 7.0720 54.4913 0.0011 -2.9313 0.0001
# 4 -0.0008 -0.0021 0.0011 36.0191 -0.0001 -1.9368
# 5 -15.8064 -4.9056 -2.9313 -0.0001 50.8730 -0.0001
# 6 0.0002 0.0016 0.0001 -1.9368 -0.0001 49.4852
#
#
#
# Elastic Compliance Matrix: (Units=1/GPa)
#
#
# Indices 1 2 3 4 5 6 
#
# 1 0.010542 -0.003968 -0.009531 0.000000 0.002344 0.000000
# 2 -0.003968 0.044705 -0.001813 0.000003 0.002973 -0.000001
# 3 -0.009531 -0.001813 0.027700 -0.000001 -0.001540 0.000000
# 4 0.000000 0.000003 -0.000001 0.027822 0.000000 0.001089
# 5 0.002344 0.002973 -0.001540 0.000000 0.020583 0.000000
# 6 0.000000 -0.000001 0.000000 0.001089 0.000000 0.020251
#
#
# Mechanical properties :
#
#
# Convention : Reuss Voigt Hill
#
# Bulk Modulus (GPa) = 19.11217 42.64887 30.88052
# Shear Modulus (GPa) = 25.04186 37.59592 31.31889
#
# Velocity S-wave (km/s) = 3.14382 3.85208 3.51583
# Velocity P-wave (km/s) = 4.55208 6.05124 5.35439
#
# Compressibility (1/GPa) = 0.05232267
#
# Stress axis : x y z
#
# Youngs Moduli (GPa) = 94.86198 22.36910 36.10113
#
# Poissons Ratio (x) = 0.08877 0.34406
# Poissons Ratio (y) = 0.37645 0.06544
# Poissons Ratio (z) = 0.90408 0.04055
#
# Static dielectric constant tensor:
#      x y z
#    x 2.388530 0.000000 -0.336540 
#    y 0.000000 2.182040 0.000020 
#    z -0.336540 0.000020 2.122010 
# 
# From -- ./inp_files/125482.got.cif
#   From: 2010.05.17/outbox.cif.g08.bks.cpg/sg15_63_cif.got.tgz:125482.got - 2010.06.03 18:47:42.
