data_PCOD9261984
_publ_section_title
;
Structure prediction by ZEFSAII (Michael W. Deem and Ramdas Pophale) SiO2 
 PCOD9261984
Probable space group: C 2/C
;
_chemical_formula_sum "Si O2"
_cell_formula_units_Z 56
_cell_length_a 13.077656
_cell_length_b 17.849371
_cell_length_c 19.393596
_cell_angle_alpha 90.000000
_cell_angle_beta 135.973306
_cell_angle_gamma 90.000000
_cell_volume 3146.240171
_symmetry_space_group_name_H-M "C 2/C"
_symmetry_group_IT_number 15
_symmetry_cell_setting 'monoclinic'
loop_
_space_group_symop_operation_xyz
x,y,z
-x,y,1/2-z
-x,-y,-z
x,-y,1/2+z
1/2+x,1/2+y,z
1/2-x,1/2+y,1/2-z
1/2-x,1/2-y,-z
1/2+x,1/2-y,1/2+z
loop_
_atom_site_type_symbol
_atom_site_label
_atom_site_fract_x
_atom_site_fract_y
_atom_site_fract_z
Si Si1 0.235517 0.247135 0.377991
Si Si2 0.432903 0.684071 0.082525
Si Si3 0.299856 0.529501 0.988487
Si Si4 0.985798 0.531637 0.320910
Si Si5 0.723344 0.387779 0.769674
Si Si6 0.239027 0.405313 0.311234
Si Si7 0.945043 0.959964 0.297502
O O1 0.380363 0.266065 0.493412
O O2 0.102422 0.230520 0.366109
O O3 0.255614 0.173979 0.342182
O O4 0.210093 0.321785 0.321793
O O5 0.596806 0.650501 0.160280
O O6 0.321294 0.612837 0.029776
O O7 0.308889 0.547173 0.910101
O O8 0.146900 0.486984 0.927250
O O9 0.425071 0.481778 0.086606
O O10 0.872357 0.584268 0.306195
O O11 0.907528 0.450785 0.276893
O O12 0.000000 0.561570 0.250000
O O13 0.643880 0.462503 0.759896
O O14 0.339768 0.408064 0.292354
O O15 0.000000 0.931555 0.250000
#
# Coordination Sequence:
#
# PCOD9261984 Si02
#       7
#     8   8   8   8   8   8   8
#     4  10  19  32  51  77 104 134 172 214 264 317
#     4   9  19  32  53  80 104 133 171 217 266 316
#     4   9  17  33  55  76 100 135 180 223 262 312
#     4   9  19  34  54  78 103 137 179 222 260 309
#     4  10  19  34  53  76 108 139 171 215 268 312
#     4   9  19  33  53  78 104 136 176 219 267 318
#     4  10  19  34  53  76 106 142 179 218 264 315
#
# _framework density 17.799022999999998
#
# number of rings (size 3 to 8) (size 9 to 14) (size 15 to 20)
#    0.000    2.571    0.000    2.571    0.000   10.286 
#    0.000    8.571    0.000    1.714    0.000    0.000 
#    0.000    0.000    0.000    0.000    0.000    0.000 
#
# Total GULP energy -156009.496789 kJ/mol
# GULP energy per Si atom -5571.767742 kJ/mol
# Density = 1.775851 g / cm^3
# Si number density = 17.799023 Si / 1000 Ang^3
#
#
#
# Elastic Constant Matrix: (Units=GPa)
#
#
# Indices 1 2 3 4 5 6 
#
# 1 99.8091 36.4990 31.3065 0.0000 5.2768 0.0000
# 2 36.4990 72.0139 33.1735 0.0000 2.6872 0.0000
# 3 31.3065 33.1735 57.8157 0.0000 11.3106 0.0000
# 4 0.0000 0.0000 0.0000 26.3429 0.0000 0.8815
# 5 5.2768 2.6872 11.3106 0.0000 17.1604 0.0000
# 6 0.0000 0.0000 0.0000 0.8815 0.0000 9.0647
#
#
#
# Elastic Compliance Matrix: (Units=1/GPa)
#
#
# Indices 1 2 3 4 5 6 
#
# 1 0.013097 -0.004613 -0.004360 0.000000 -0.000431 0.000000
# 2 -0.004613 0.020851 -0.010453 0.000000 0.005043 0.000000
# 3 -0.004360 -0.010453 0.028784 0.000000 -0.015994 0.000000
# 4 0.000000 0.000000 0.000000 0.038085 0.000000 -0.003703
# 5 -0.000431 0.005043 -0.015994 0.000000 0.068158 0.000000
# 6 0.000000 0.000000 0.000000 -0.003703 0.000000 0.110679
#
#
# Mechanical properties :
#
#
# Convention : Reuss Voigt Hill
#
# Bulk Modulus (GPa) = 41.87709 47.95520 44.91615
# Shear Modulus (GPa) = 15.31557 19.09091 17.20324
#
# Velocity S-wave (km/s) = 2.93656 3.27858 3.11227
# Velocity P-wave (km/s) = 5.92256 6.42909 6.18102
#
# Compressibility (1/GPa) = 0.02387941
#
# Stress axis : x y z
#
# Youngs Moduli (GPa) = 76.35600 47.95918 34.74166
#
# Poissons Ratio (x) = 0.22124 0.15149
# Poissons Ratio (y) = 0.35223 0.36314
# Poissons Ratio (z) = 0.33295 0.50130
#
# Static dielectric constant tensor:
#      x y z
#    x 1.613240 0.000000 -0.007250 
#    y 0.000000 1.593560 0.000000 
#    z -0.007250 0.000000 1.658120 
# 
# From -- ./inp_files/200222.got.cif
#   From: 2010.05.17/outbox.cif.g08.bks.cpg/sg15_101_cif.got.tgz:200222.got - 2010.06.03 18:47:42.
