data_PCOD9261955
_publ_section_title
;
Structure prediction by ZEFSAII (Michael W. Deem and Ramdas Pophale) SiO2 
 PCOD9261955
Probable space group: C 2/C
;
_chemical_formula_sum "Si O2"
_cell_formula_units_Z 56
_cell_length_a 20.024742
_cell_length_b 12.802016
_cell_length_c 12.461971
_cell_angle_alpha 90.000000
_cell_angle_beta 104.747898
_cell_angle_gamma 90.000000
_cell_volume 3089.465367
_symmetry_space_group_name_H-M "C 2/C"
_symmetry_group_IT_number 15
_symmetry_cell_setting 'monoclinic'
loop_
_space_group_symop_operation_xyz
x,y,z
-x,y,1/2-z
-x,-y,-z
x,-y,1/2+z
1/2+x,1/2+y,z
1/2-x,1/2+y,1/2-z
1/2-x,1/2-y,-z
1/2+x,1/2-y,1/2+z
loop_
_atom_site_type_symbol
_atom_site_label
_atom_site_fract_x
_atom_site_fract_y
_atom_site_fract_z
Si Si1 0.285424 0.192411 0.675026
Si Si2 0.879941 0.570622 0.316515
Si Si3 0.231236 0.408280 0.557690
Si Si4 0.775277 0.122072 0.621752
Si Si5 0.516311 0.116907 0.458662
Si Si6 0.934734 0.339385 0.298815
Si Si7 0.344797 0.824940 0.597927
O O1 0.250734 0.298305 0.619026
O O2 0.280855 0.112237 0.573003
O O3 0.249659 0.146542 0.767217
O O4 0.365109 0.217487 0.735294
O O5 0.838067 0.555635 0.409173
O O6 0.909648 0.460439 0.288533
O O7 0.831275 0.619250 0.206069
O O8 0.945405 0.643718 0.369861
O O9 0.285967 0.499435 0.605482
O O10 0.711454 0.148860 0.515521
O O11 0.836624 0.201199 0.615851
O O12 0.538562 0.183437 0.570838
O O13 0.581191 0.129780 0.407198
O O14 0.500000 0.000000 0.500000
O O15 0.000000 0.325934 0.250000
#
# Coordination Sequence:
#
# PCOD9261955 Si02
#       7
#     8   8   8   8   8   8   8
#     4  11  22  40  56  85 120 155 201 241 297 355
#     4  11  19  33  56  86 120 146 188 244 298 354
#     4  11  23  37  60  86 117 161 193 243 300 349
#     4  11  22  38  58  85 118 156 200 246 287 356
#     4  10  19  32  50  83 120 149 185 233 300 348
#     4  11  20  34  56  83 118 152 188 235 301 358
#     4  11  21  34  56  85 119 155 191 234 299 356
#
# _framework density 18.126114000000001
#
# number of rings (size 3 to 8) (size 9 to 14) (size 15 to 20)
#    0.000    1.143    4.286    4.714    0.000    0.000 
#    0.000    0.000    0.000    1.714    0.000    4.000 
#    0.000    0.000    0.000    0.000    0.000    0.000 
#
# Total GULP energy -156147.983049 kJ/mol
# GULP energy per Si atom -5576.713680 kJ/mol
# Density = 1.808486 g / cm^3
# Si number density = 18.126114 Si / 1000 Ang^3
#
#
#
# Elastic Constant Matrix: (Units=GPa)
#
#
# Indices 1 2 3 4 5 6 
#
# 1 67.0924 9.3059 12.9240 0.0000 -9.7999 0.0000
# 2 9.3059 52.7665 18.0289 0.0000 -7.5735 0.0000
# 3 12.9240 18.0289 118.7013 0.0000 -10.1138 0.0000
# 4 0.0000 0.0000 0.0000 16.7107 0.0000 -2.2142
# 5 -9.7999 -7.5735 -10.1138 0.0000 31.0924 0.0000
# 6 0.0000 0.0000 0.0000 -2.2142 0.0000 20.7132
#
#
#
# Elastic Compliance Matrix: (Units=1/GPa)
#
#
# Indices 1 2 3 4 5 6 
#
# 1 0.015990 -0.001836 -0.001101 0.000000 0.004234 0.000000
# 2 -0.001836 0.020693 -0.002636 0.000000 0.003604 0.000000
# 3 -0.001101 -0.002636 0.009113 0.000000 0.001975 0.000000
# 4 0.000000 0.000000 0.000000 0.060702 0.000000 0.006489
# 5 0.004234 0.003604 0.001975 0.000000 0.035017 0.000000
# 6 0.000000 0.000000 0.000000 0.006489 0.000000 0.048972
#
#
# Mechanical properties :
#
#
# Convention : Reuss Voigt Hill
#
# Bulk Modulus (GPa) = 28.86017 35.45309 32.15663
# Shear Modulus (GPa) = 23.45396 26.92337 25.18866
#
# Velocity S-wave (km/s) = 3.60103 3.85819 3.73182
# Velocity P-wave (km/s) = 5.76596 6.28085 6.02890
#
# Compressibility (1/GPa) = 0.03464984
#
# Stress axis : x y z
#
# Youngs Moduli (GPa) = 62.53860 48.32508 109.73248
#
# Poissons Ratio (x) = 0.08872 0.12085
# Poissons Ratio (y) = 0.11482 0.28925
# Poissons Ratio (z) = 0.06888 0.12738
#
# Static dielectric constant tensor:
#      x y z
#    x 1.685080 0.000000 0.001650 
#    y 0.000000 1.603540 0.000000 
#    z 0.001650 0.000000 1.696590 
# 
# From -- ./inp_files/111692.got.cif
#   From: 2010.05.17/outbox.cif.g08.bks.cpg/sg15_56_cif.got.tgz:111692.got - 2010.06.03 18:47:42.
