data_PCOD9261132
_publ_section_title
;
Structure prediction by ZEFSAII (Michael W. Deem and Ramdas Pophale) SiO2 
 PCOD9261132
Probable space group: C 2/C
;
_chemical_formula_sum "Si O2"
_cell_formula_units_Z 60
_cell_length_a 7.643712
_cell_length_b 17.244634
_cell_length_c 22.230382
_cell_angle_alpha 90.000000
_cell_angle_beta 66.000815
_cell_angle_gamma 90.000000
_cell_volume 2676.936906
_symmetry_space_group_name_H-M "C 2/C"
_symmetry_group_IT_number 15
_symmetry_cell_setting 'monoclinic'
loop_
_space_group_symop_operation_xyz
x,y,z
-x,y,1/2-z
-x,-y,-z
x,-y,1/2+z
1/2+x,1/2+y,z
1/2-x,1/2+y,1/2-z
1/2-x,1/2-y,-z
1/2+x,1/2-y,1/2+z
loop_
_atom_site_type_symbol
_atom_site_label
_atom_site_fract_x
_atom_site_fract_y
_atom_site_fract_z
Si Si1 0.000000 0.219233 0.250000
Si Si2 0.133054 0.426917 0.322069
Si Si3 0.085032 0.690644 0.038636
Si Si4 0.992543 0.712194 0.585735
Si Si5 0.092027 0.546459 0.432478
Si Si6 0.819025 0.802109 0.135236
Si Si7 0.005262 0.122592 0.372189
Si Si8 0.709298 0.460429 0.326490
O O1 0.824717 0.276259 0.291504
O O2 0.021998 0.163715 0.304370
O O3 0.154820 0.487645 0.372221
O O4 0.272329 0.446927 0.247609
O O5 0.138637 0.342003 0.352512
O O6 0.919046 0.442440 0.325348
O O7 0.081525 0.603371 0.062648
O O8 0.971022 0.735842 0.105731
O O9 0.250000 0.750000 0.000000
O O10 0.999323 0.681393 0.982809
O O11 0.196522 0.702537 0.590644
O O12 0.942863 0.803756 0.593024
O O13 0.286518 0.596148 0.415414
O O14 0.000000 0.500000 0.500000
O O15 0.907842 0.886662 0.131954
O O16 0.130652 0.044474 0.354425
#
# Coordination Sequence:
#
# PCOD9261132 Si02
#       8
#     4   8   8   8   8   8   8   8
#     4  10  18  40  66  90 116 170 212 264 312 390
#     4  10  22  43  65  91 134 165 206 265 334 369
#     4  12  26  41  63  91 132 165 212 262 326 375
#     4  10  21  43  64  89 122 176 209 258 311 392
#     4  12  25  43  64  91 129 173 208 267 327 378
#     4  10  21  40  67  90 123 168 218 253 319 381
#     4  11  23  38  66  94 123 163 224 254 319 386
#     4  10  22  38  65  98 124 162 213 269 310 382
#
# _framework density 22.413675999999999
#
# number of rings (size 3 to 8) (size 9 to 14) (size 15 to 20)
#    0.000    1.333    4.000    3.600    3.733    0.000 
#    0.000    1.333    0.000    5.600    0.000    0.000 
#    0.000    0.000    0.000    0.000    0.000    0.000 
#
# Total GULP energy -167351.025296 kJ/mol
# GULP energy per Si atom -5578.367510 kJ/mol
# Density = 2.236266 g / cm^3
# Si number density = 22.413676 Si / 1000 Ang^3
#
#
#
# Elastic Constant Matrix: (Units=GPa)
#
#
# Indices 1 2 3 4 5 6 
#
# 1 25.0266 21.2180 13.9678 0.0000 -4.9820 0.0000
# 2 21.2180 193.3293 27.4791 0.0000 -4.6745 0.0000
# 3 13.9678 27.4791 80.1586 0.0000 -2.0300 0.0000
# 4 0.0000 0.0000 0.0000 45.5652 0.0000 -4.8786
# 5 -4.9820 -4.6745 -2.0300 0.0000 21.3368 0.0000
# 6 0.0000 0.0000 0.0000 -4.8786 0.0000 28.6751
#
#
#
# Elastic Compliance Matrix: (Units=1/GPa)
#
#
# Indices 1 2 3 4 5 6 
#
# 1 0.049349 -0.004193 -0.006910 0.000000 0.009947 0.000000
# 2 -0.004193 0.005816 -0.001259 0.000000 0.000175 0.000000
# 3 -0.006910 -0.001259 0.014097 0.000000 -0.000548 0.000000
# 4 0.000000 0.000000 0.000000 0.022354 0.000000 0.003803
# 5 0.009947 0.000175 -0.000548 0.000000 0.049176 0.000000
# 6 0.000000 0.000000 0.000000 0.003803 0.000000 0.035520
#
#
# Mechanical properties :
#
#
# Convention : Reuss Voigt Hill
#
# Bulk Modulus (GPa) = 22.45253 47.09383 34.77318
# Shear Modulus (GPa) = 23.16078 34.83872 28.99975
#
# Velocity S-wave (km/s) = 3.21804 3.94680 3.60090
# Velocity P-wave (km/s) = 4.88331 6.46734 5.73032
#
# Compressibility (1/GPa) = 0.04453841
#
# Stress axis : x y z
#
# Youngs Moduli (GPa) = 20.26373 171.94280 70.93771
#
# Poissons Ratio (x) = 0.72104 0.49016
# Poissons Ratio (y) = 0.08498 0.08928
# Poissons Ratio (z) = 0.14002 0.21640
#
# Static dielectric constant tensor:
#      x y z
#    x 1.950960 0.000000 -0.022620 
#    y 0.000000 1.853860 0.000000 
#    z -0.022620 0.000000 1.794730 
# 
# From -- ./inp_files/265531.got.cif
#   From: 2010.05.17/outbox.cif.g08.bks.cpg/sg15_133_cif.got.tgz:265531.got - 2010.06.03 18:47:42.
