data_PCOD9261595
_publ_section_title
;
Structure prediction by ZEFSAII (Michael W. Deem and Ramdas Pophale) SiO2 
 PCOD9261595
Probable space group: C 2/C
;
_chemical_formula_sum "Si O2"
_cell_formula_units_Z 40
_cell_length_a 18.200794
_cell_length_b 5.159391
_cell_length_c 16.887546
_cell_angle_alpha 90.000000
_cell_angle_beta 83.536429
_cell_angle_gamma 90.000000
_cell_volume 1575.745131
_symmetry_space_group_name_H-M "C 2/C"
_symmetry_group_IT_number 15
_symmetry_cell_setting 'monoclinic'
loop_
_space_group_symop_operation_xyz
x,y,z
-x,y,1/2-z
-x,-y,-z
x,-y,1/2+z
1/2+x,1/2+y,z
1/2-x,1/2+y,1/2-z
1/2-x,1/2-y,-z
1/2+x,1/2-y,1/2+z
loop_
_atom_site_type_symbol
_atom_site_label
_atom_site_fract_x
_atom_site_fract_y
_atom_site_fract_z
Si Si1 0.766320 0.081961 0.798828
Si Si2 0.936063 0.995688 0.440375
Si Si3 0.921282 0.116350 0.732218
Si Si4 0.009588 0.487801 0.372464
Si Si5 0.638187 0.296399 0.914831
O O1 0.755212 0.299942 0.731514
O O2 0.853958 0.082692 0.800731
O O3 0.714697 0.174832 0.876480
O O4 0.951694 0.255641 0.389977
O O5 0.863463 0.951467 0.502697
O O6 0.000000 0.000000 0.500000
O O7 0.960734 0.740090 0.391373
O O8 0.938825 0.417398 0.707966
O O9 0.892942 0.972187 0.655159
O O10 0.075343 0.428283 0.427376
O O11 0.000000 0.996170 0.250000
#
# Coordination Sequence:
#
# PCOD9261595 Si02
#       5
#     8   8   8   8   8
#     4  10  21  37  56  80 113 150 189 232 273 329
#     4  10  19  30  58  84 105 139 190 245 270 309
#     4  11  23  37  57  86 121 153 181 227 289 345
#     4  11  19  35  54  87 110 141 186 240 274 323
#     4  10  20  36  60  84 111 142 195 235 276 326
#
# _framework density 25.384815
#
# number of rings (size 3 to 8) (size 9 to 14) (size 15 to 20)
#    0.000    1.600    6.000    2.400    0.000    0.800 
#    0.000    0.000    0.000    2.400    0.000    1.400 
#    0.000    0.000    0.000    0.000    0.000    0.000 
#
# Total GULP energy -111614.556830 kJ/mol
# GULP energy per Si atom -5580.727842 kJ/mol
# Density = 2.532704 g / cm^3
# Si number density = 25.384815 Si / 1000 Ang^3
#
#
#
# Elastic Constant Matrix: (Units=GPa)
#
#
# Indices 1 2 3 4 5 6 
#
# 1 139.2391 36.5901 33.5932 0.0000 -31.1704 0.0000
# 2 36.5901 140.3533 16.0416 0.0000 -1.0635 0.0000
# 3 33.5932 16.0416 81.8234 0.0000 -38.7628 0.0000
# 4 0.0000 0.0000 0.0000 36.1831 0.0000 -6.6882
# 5 -31.1704 -1.0635 -38.7628 0.0000 39.4373 0.0000
# 6 0.0000 0.0000 0.0000 -6.6882 0.0000 26.7754
#
#
#
# Elastic Compliance Matrix: (Units=1/GPa)
#
#
# Indices 1 2 3 4 5 6 
#
# 1 0.009481 -0.002436 0.000195 0.000000 0.007619 0.000000
# 2 -0.002436 0.008023 -0.002587 0.000000 -0.004252 0.000000
# 3 0.000195 -0.002587 0.023745 0.000000 0.023423 0.000000
# 4 0.000000 0.000000 0.000000 0.028975 0.000000 0.007238
# 5 0.007619 -0.004252 0.023423 0.000000 0.054286 0.000000
# 6 0.000000 0.000000 0.000000 0.007238 0.000000 0.039156
#
#
# Mechanical properties :
#
#
# Convention : Reuss Voigt Hill
#
# Bulk Modulus (GPa) = 31.65367 59.31840 45.48603
# Shear Modulus (GPa) = 27.19542 38.82522 33.01032
#
# Velocity S-wave (km/s) = 3.27666 3.91508 3.61001
# Velocity P-wave (km/s) = 5.17803 6.62235 5.94422
#
# Compressibility (1/GPa) = 0.03159192
#
# Stress axis : x y z
#
# Youngs Moduli (GPa) = 105.47721 124.63451 42.11385
#
# Poissons Ratio (x) = 0.30363 -0.00820
# Poissons Ratio (y) = 0.25696 0.10896
# Poissons Ratio (z) = -0.02053 0.32245
#
# Static dielectric constant tensor:
#      x y z
#    x 2.030090 0.000000 0.016440 
#    y 0.000000 2.072130 0.000000 
#    z 0.016440 0.000000 2.272570 
# 
# From -- ./inp_files/246252.got.cif
#   From: 2010.05.17/outbox.cif.g08.bks.cpg/sg15_124_cif.got.tgz:246252.got - 2010.06.03 18:47:42.
