data_PCOD9261771
_publ_section_title
;
Structure prediction by ZEFSAII (Michael W. Deem and Ramdas Pophale) SiO2 
 PCOD9261771
Probable space group: C 2/C
;
_chemical_formula_sum "Si O2"
_cell_formula_units_Z 56
_cell_length_a 17.747654
_cell_length_b 7.204985
_cell_length_c 22.282953
_cell_angle_alpha 90.000000
_cell_angle_beta 127.016400
_cell_angle_gamma 90.000000
_cell_volume 2275.106300
_symmetry_space_group_name_H-M "C 2/C"
_symmetry_group_IT_number 15
_symmetry_cell_setting 'monoclinic'
loop_
_space_group_symop_operation_xyz
x,y,z
-x,y,1/2-z
-x,-y,-z
x,-y,1/2+z
1/2+x,1/2+y,z
1/2-x,1/2+y,1/2-z
1/2-x,1/2-y,-z
1/2+x,1/2-y,1/2+z
loop_
_atom_site_type_symbol
_atom_site_label
_atom_site_fract_x
_atom_site_fract_y
_atom_site_fract_z
Si Si1 0.506209 0.776050 0.559010
Si Si2 0.496591 0.039764 0.654974
Si Si3 0.783276 0.286211 0.316937
Si Si4 0.711899 0.982083 0.932352
Si Si5 0.000409 0.143305 0.427456
Si Si6 0.312797 0.081436 0.701046
Si Si7 0.300423 0.917255 0.444991
O O1 0.550090 0.910802 0.630348
O O2 0.544024 0.708416 0.512234
O O3 0.484770 0.573644 0.576480
O O4 0.413394 0.896138 0.499402
O O5 0.400788 0.936791 0.626485
O O6 0.461396 0.227560 0.606351
O O7 0.574995 0.101917 0.739567
O O8 0.887516 0.190913 0.374548
O O9 0.770521 0.331120 0.241107
O O10 0.773302 0.447698 0.362536
O O11 0.707911 0.135119 0.299801
O O12 0.767749 0.793693 0.944964
O O13 0.727127 0.122615 0.884204
O O14 0.730771 0.029866 0.011017
#
# Coordination Sequence:
#
# PCOD9261771 Si02
#       7
#     8   8   8   8   8   8   8
#     4   9  17  31  54  76 106 140 177 217 267 312
#     4  10  19  31  53  78 106 139 177 216 266 321
#     4   9  19  33  53  77 107 137 178 223 267 310
#     4   9  17  33  57  74 107 142 173 216 270 317
#     4   9  18  32  50  79 107 138 177 223 260 310
#     4  10  20  33  54  78 105 141 176 217 270 320
#     4   8  16  33  56  78 101 141 180 221 261 317
#
# _framework density 24.614234
#
# number of rings (size 3 to 8) (size 9 to 14) (size 15 to 20)
#    0.000    2.857    0.000    0.857    2.000    1.143 
#    0.000    0.714   15.714    3.429    0.000    0.000 
#    0.000    0.000    0.000    0.000    0.000    0.000 
#
# Total GULP energy -156029.708793 kJ/mol
# GULP energy per Si atom -5572.489600 kJ/mol
# Density = 2.455821 g / cm^3
# Si number density = 24.614234 Si / 1000 Ang^3
#
#
#
# Elastic Constant Matrix: (Units=GPa)
#
#
# Indices 1 2 3 4 5 6 
#
# 1 55.4708 -5.2898 17.9089 0.0000 -13.7374 0.0000
# 2 -5.2898 91.3914 29.6639 0.0000 -12.2254 0.0000
# 3 17.9089 29.6639 116.3805 0.0000 -45.0787 0.0000
# 4 0.0000 0.0000 0.0000 28.9630 0.0000 -9.6918
# 5 -13.7374 -12.2254 -45.0787 0.0000 42.4351 0.0000
# 6 0.0000 0.0000 0.0000 -9.6918 0.0000 18.3643
#
#
#
# Elastic Compliance Matrix: (Units=1/GPa)
#
#
# Indices 1 2 3 4 5 6 
#
# 1 0.020138 0.002416 -0.001563 0.000000 0.005555 0.000000
# 2 0.002416 0.012222 -0.003093 0.000000 0.001018 0.000000
# 3 -0.001563 -0.003093 0.015429 0.000000 0.014993 0.000000
# 4 0.000000 0.000000 0.000000 0.041932 0.000000 0.022130
# 5 0.005555 0.001018 0.014993 0.000000 0.041584 0.000000
# 6 0.000000 0.000000 0.000000 0.022130 0.000000 0.066132
#
#
# Mechanical properties :
#
#
# Convention : Reuss Voigt Hill
#
# Bulk Modulus (GPa) = 23.08990 38.64542 30.86766
# Shear Modulus (GPa) = 23.11045 32.68314 27.89680
#
# Velocity S-wave (km/s) = 3.06748 3.64787 3.37019
# Velocity P-wave (km/s) = 4.68476 5.78594 5.26423
#
# Compressibility (1/GPa) = 0.04330898
#
# Stress axis : x y z
#
# Youngs Moduli (GPa) = 49.65687 81.82112 64.81460
#
# Poissons Ratio (x) = -0.19768 0.10131
# Poissons Ratio (y) = -0.11997 0.20045
# Poissons Ratio (z) = 0.07762 0.25305
#
# Static dielectric constant tensor:
#      x y z
#    x 2.035500 0.000000 -0.077720 
#    y 0.000000 2.030550 0.000000 
#    z -0.077720 0.000000 2.082560 
# 
# From -- ./inp_files/251642.got.cif
#   From: 2010.05.17/outbox.cif.g08.bks.cpg/sg15_126_cif.got.tgz:251642.got - 2010.06.03 18:47:42.
