data_PCOD9261375
_publ_section_title
;
Structure prediction by ZEFSAII (Michael W. Deem and Ramdas Pophale) SiO2 
 PCOD9261375
Probable space group: C 2/C
;
_chemical_formula_sum "Si O2"
_cell_formula_units_Z 44
_cell_length_a 24.334774
_cell_length_b 22.353670
_cell_length_c 4.819666
_cell_angle_alpha 90.000000
_cell_angle_beta 84.256408
_cell_angle_gamma 90.000000
_cell_volume 2608.598998
_symmetry_space_group_name_H-M "C 2/C"
_symmetry_group_IT_number 15
_symmetry_cell_setting 'monoclinic'
loop_
_space_group_symop_operation_xyz
x,y,z
-x,y,1/2-z
-x,-y,-z
x,-y,1/2+z
1/2+x,1/2+y,z
1/2-x,1/2+y,1/2-z
1/2-x,1/2-y,-z
1/2+x,1/2-y,1/2+z
loop_
_atom_site_type_symbol
_atom_site_label
_atom_site_fract_x
_atom_site_fract_y
_atom_site_fract_z
Si Si1 0.886037 0.039390 0.611780
Si Si2 0.757960 0.329717 0.293502
Si Si3 0.000000 0.175791 0.750000
Si Si4 0.311314 0.709400 0.164821
Si Si5 0.573103 0.340310 0.679344
Si Si6 0.754025 0.039452 0.629270
O O1 0.916963 0.097039 0.482950
O O2 0.820214 0.050552 0.617816
O O3 0.898288 0.981512 0.415343
O O4 0.803413 0.280841 0.185916
O O5 0.736949 0.316981 0.614098
O O6 0.773584 0.398842 0.267492
O O7 0.704862 0.314793 0.128303
O O8 0.130473 0.186740 0.256510
O O9 0.962548 0.148906 0.021248
O O10 0.454461 0.701217 0.550661
O O11 0.741637 0.017163 0.328698
#
# Coordination Sequence:
#
# PCOD9261375 Si02
#       6
#     8   8   4   8   8   8
#     4  10  20  30  47  66  85 122 160 196 237 277
#     4  10  19  32  46  81  91 125 156 185 232 293
#     4  10  24  34  52  64  84 116 168 196 262 272
#     4  10  20  31  54  66 101 118 153 201 235 276
#     4  11  20  38  48  66  87 123 153 210 237 286
#     4  10  19  29  46  69  99 128 154 189 220 279
#
# _framework density 16.867291000000002
#
# number of rings (size 3 to 8) (size 9 to 14) (size 15 to 20)
#    0.000    1.818    1.818    3.273    5.091    0.000 
#    0.000    9.091    0.000    0.000    0.000    0.000 
#    0.000    0.000    0.000   16.364    0.000    0.000 
#
# Total GULP energy -122470.158848 kJ/mol
# GULP energy per Si atom -5566.825402 kJ/mol
# Density = 1.682890 g / cm^3
# Si number density = 16.867291 Si / 1000 Ang^3
#
#
#
# Elastic Constant Matrix: (Units=GPa)
#
#
# Indices 1 2 3 4 5 6 
#
# 1 39.8167 18.0628 3.2577 0.0000 5.1194 0.0000
# 2 18.0628 76.9882 7.3734 0.0000 -9.7671 0.0000
# 3 3.2577 7.3734 74.2070 0.0000 1.3566 0.0000
# 4 0.0000 0.0000 0.0000 12.5853 0.0000 1.0691
# 5 5.1194 -9.7671 1.3566 0.0000 16.8224 0.0000
# 6 0.0000 0.0000 0.0000 1.0691 0.0000 3.6146
#
#
#
# Elastic Compliance Matrix: (Units=1/GPa)
#
#
# Indices 1 2 3 4 5 6 
#
# 1 0.031200 -0.009181 -0.000187 0.000000 -0.014810 0.000000
# 2 -0.009181 0.016902 -0.001509 0.000000 0.012729 0.000000
# 3 -0.000187 -0.001509 0.013669 0.000000 -0.001922 0.000000
# 4 0.000000 0.000000 0.000000 0.081505 0.000000 -0.024107
# 5 -0.014810 0.012729 -0.001922 0.000000 0.071497 0.000000
# 6 0.000000 0.000000 0.000000 -0.024107 0.000000 0.283787
#
#
# Mechanical properties :
#
#
# Convention : Reuss Voigt Hill
#
# Bulk Modulus (GPa) = 24.98905 27.59997 26.29451
# Shear Modulus (GPa) = 9.36939 17.42566 13.39753
#
# Velocity S-wave (km/s) = 2.35941 3.21768 2.82137
# Velocity P-wave (km/s) = 4.71908 5.49574 5.12215
#
# Compressibility (1/GPa) = 0.04001752
#
# Stress axis : x y z
#
# Youngs Moduli (GPa) = 32.05179 59.16297 73.15768
#
# Poissons Ratio (x) = 0.54317 0.01366
# Poissons Ratio (y) = 0.29427 0.11041
# Poissons Ratio (z) = 0.00598 0.08929
#
# Static dielectric constant tensor:
#      x y z
#    x 1.600460 0.000000 0.007480 
#    y 0.000000 1.588600 0.000000 
#    z 0.007480 0.000000 1.591010 
# 
# From -- ./inp_files/10550.got.cif
#   From: 2010.05.17/outbox.cif.g08.bks.cpg/sg15_6_cif.got.tgz:10550.got - 2010.06.03 18:47:42.
