data_PCOD9261825
_publ_section_title
;
Structure prediction by ZEFSAII (Michael W. Deem and Ramdas Pophale) SiO2 
 PCOD9261825
Probable space group: C 2/C
;
_chemical_formula_sum "Si O2"
_cell_formula_units_Z 64
_cell_length_a 23.210262
_cell_length_b 18.992948
_cell_length_c 19.533436
_cell_angle_alpha 90.000000
_cell_angle_beta 158.899413
_cell_angle_gamma 90.000000
_cell_volume 3099.996809
_symmetry_space_group_name_H-M "C 2/C"
_symmetry_group_IT_number 15
_symmetry_cell_setting 'monoclinic'
loop_
_space_group_symop_operation_xyz
x,y,z
-x,y,1/2-z
-x,-y,-z
x,-y,1/2+z
1/2+x,1/2+y,z
1/2-x,1/2+y,1/2-z
1/2-x,1/2-y,-z
1/2+x,1/2-y,1/2+z
loop_
_atom_site_type_symbol
_atom_site_label
_atom_site_fract_x
_atom_site_fract_y
_atom_site_fract_z
Si Si1 0.794553 0.218301 0.940294
Si Si2 0.947614 0.037486 0.611711
Si Si3 0.542795 0.605198 0.166211
Si Si4 0.723733 0.115512 0.555634
Si Si5 0.598493 0.698069 0.111175
Si Si6 0.884441 0.391608 0.721635
Si Si7 0.198575 0.740741 0.285717
Si Si8 0.333060 0.858441 0.072677
O O1 0.688417 0.246751 0.760644
O O2 0.702705 0.166777 0.890580
O O3 0.842904 0.287165 0.037608
O O4 0.947086 0.174631 0.084494
O O5 0.766763 0.067771 0.412357
O O6 0.000000 0.028679 0.750000
O O7 0.098292 0.080717 0.745341
O O8 0.940985 0.963853 0.564254
O O9 0.599805 0.624501 0.153312
O O10 0.690520 0.597903 0.381945
O O11 0.671472 0.116787 0.418693
O O12 0.569643 0.081388 0.424573
O O13 0.736686 0.195094 0.597649
O O14 0.675156 0.699846 0.121388
O O15 0.420990 0.724466 0.901177
O O16 0.886872 0.316183 0.761537
O O17 0.500000 0.897233 0.250000
#
# Coordination Sequence:
#
# PCOD9261825 Si02
#       8
#     8   8   8   8   8   8   8   8
#     4  10  19  34  54  81 121 160 211 260 311 360
#     4  10  22  42  65  95 131 169 211 264 326 387
#     4  11  22  40  58  88 128 170 207 258 318 380
#     4  10  22  41  67  97 127 157 215 272 324 391
#     4  11  23  35  62  89 127 168 211 260 312 378
#     4  10  22  41  67  97 125 164 210 270 330 384
#     4  12  21  41  63  94 125 163 207 270 328 372
#     4  10  19  31  55  87 112 156 214 267 309 360
#
# _framework density 20.645181000000001
#
# number of rings (size 3 to 8) (size 9 to 14) (size 15 to 20)
#    0.000    1.500    2.500    4.500    1.750    0.000 
#    6.750    2.500    0.000    2.250    0.000    0.000 
#    0.000    0.000    0.000    0.000    0.000    0.000 
#
# Total GULP energy -178521.813207 kJ/mol
# GULP energy per Si atom -5578.806663 kJ/mol
# Density = 2.059819 g / cm^3
# Si number density = 20.645181 Si / 1000 Ang^3
#
#
#
# Elastic Constant Matrix: (Units=GPa)
#
#
# Indices 1 2 3 4 5 6 
#
# 1 63.7407 34.9658 31.7498 0.0006 37.9182 0.0003
# 2 34.9658 57.8298 21.9973 0.0076 14.4726 -0.0014
# 3 31.7498 21.9973 89.6361 0.0078 26.6142 -0.0017
# 4 0.0006 0.0076 0.0078 -109.3460 0.0022 23.0340
# 5 37.9182 14.4726 26.6142 0.0022 32.2811 0.0002
# 6 0.0003 -0.0014 -0.0017 23.0340 0.0002 24.9231
#
#
#
# Elastic Compliance Matrix: (Units=1/GPa)
#
#
# Indices 1 2 3 4 5 6 
#
# 1 0.078283 -0.028102 0.003614 -0.000003 -0.082334 0.000001
# 2 -0.028102 0.030151 -0.004280 0.000002 0.023021 0.000000
# 3 0.003614 -0.004280 0.015383 0.000001 -0.015008 0.000000
# 4 -0.000003 0.000002 0.000001 -0.007655 0.000002 0.007075
# 5 -0.082334 0.023021 -0.015008 0.000002 0.129742 -0.000002
# 6 0.000001 0.000000 0.000000 0.007075 -0.000002 0.033585
#
#
# Mechanical properties :
#
#
# Convention : Reuss Voigt Hill
#
# Bulk Modulus (GPa) = 15.08776 43.18141 29.13459
# Shear Modulus (GPa) = 13.92300 -2.26211 5.83045
#
# Velocity S-wave (km/s) = 2.59973 -1.04790 1.68233
# Velocity P-wave (km/s) = 4.04171 4.41557 4.23277
#
# Compressibility (1/GPa) = 0.06627889
#
# Stress axis : x y z
#
# Youngs Moduli (GPa) = 12.77419 33.16687 65.00782
#
# Poissons Ratio (x) = 0.93206 -0.23494
# Poissons Ratio (y) = 0.35898 0.27826
# Poissons Ratio (z) = -0.04617 0.14197
#
# Static dielectric constant tensor:
#      x y z
#    x 1.776380 0.000000 0.064250 
#    y 0.000000 1.724090 0.000000 
#    z 0.064250 0.000000 1.775340 
# 
# From -- ./inp_files/256049.got.cif
#   From: 2010.05.17/outbox.cif.g08.bks.cpg/sg15_129_cif.got.tgz:256049.got - 2010.06.03 18:47:42.
