data_PCOD9261281
_publ_section_title
;
Structure prediction by ZEFSAII (Michael W. Deem and Ramdas Pophale) SiO2 
 PCOD9261281
Probable space group: C 2/C
;
_chemical_formula_sum "Si O2"
_cell_formula_units_Z 60
_cell_length_a 26.923949
_cell_length_b 8.786903
_cell_length_c 12.045450
_cell_angle_alpha 90.000000
_cell_angle_beta 70.505577
_cell_angle_gamma 90.000000
_cell_volume 2686.328623
_symmetry_space_group_name_H-M "C 2/C"
_symmetry_group_IT_number 15
_symmetry_cell_setting 'monoclinic'
loop_
_space_group_symop_operation_xyz
x,y,z
-x,y,1/2-z
-x,-y,-z
x,-y,1/2+z
1/2+x,1/2+y,z
1/2-x,1/2+y,1/2-z
1/2-x,1/2-y,-z
1/2+x,1/2-y,1/2+z
loop_
_atom_site_type_symbol
_atom_site_label
_atom_site_fract_x
_atom_site_fract_y
_atom_site_fract_z
Si Si1 0.098025 0.599604 0.628105
Si Si2 0.632752 0.678751 0.936216
Si Si3 0.145181 0.029516 0.639308
Si Si4 0.404237 0.217267 0.460647
Si Si5 0.175041 0.346072 0.282013
Si Si6 0.221700 0.003888 0.239289
Si Si7 0.500000 0.678893 0.250000
Si Si8 0.437632 0.538929 0.113426
O O1 0.128091 0.658066 0.494494
O O2 0.074555 0.435102 0.612783
O O3 0.138658 0.611914 0.702015
O O4 0.049664 0.712870 0.689743
O O5 0.682124 0.619150 0.828170
O O6 0.577713 0.627375 0.920427
O O7 0.637720 0.571836 0.038681
O O8 0.120442 0.188446 0.622893
O O9 0.206577 0.035605 0.623741
O O10 0.111599 0.949217 0.762633
O O11 0.360324 0.166452 0.581970
O O12 0.436467 0.335920 0.515686
O O13 0.220407 0.471220 0.262832
O O14 0.205180 0.181334 0.258768
O O15 0.486796 0.571753 0.154958
#
# Coordination Sequence:
#
# PCOD9261281 Si02
#       8
#     8   8   8   8   8   8   4   8
#     4  12  26  43  70  96 143 179 222 282 344 393
#     4  10  19  43  66  95 129 176 221 277 324 401
#     4  10  18  44  67  89 130 176 220 280 320 390
#     4  11  24  43  70  95 140 180 217 274 345 399
#     4  12  25  45  59 104 138 174 230 279 329 405
#     4  11  24  38  68  94 140 174 223 280 330 397
#     4  12  22  46  72  94 136 176 216 298 334 392
#     4  10  21  43  70  95 129 168 231 281 325 390
#
# _framework density 22.335315999999999
#
# number of rings (size 3 to 8) (size 9 to 14) (size 15 to 20)
#    0.000    1.067    8.000    0.000    3.733    4.267 
#    0.000    0.667    0.000    0.000    0.000    0.000 
#    0.000    0.000    0.000    0.000    0.000    0.000 
#
# Total GULP energy -167079.298135 kJ/mol
# GULP energy per Si atom -5569.309938 kJ/mol
# Density = 2.228448 g / cm^3
# Si number density = 22.335316 Si / 1000 Ang^3
#
#
#
# Elastic Constant Matrix: (Units=GPa)
#
#
# Indices 1 2 3 4 5 6 
#
# 1 117.6608 17.9150 44.7627 0.0000 30.3252 0.0000
# 2 17.9150 78.9789 32.6593 0.0000 12.4167 0.0000
# 3 44.7627 32.6593 54.7676 0.0000 21.9204 0.0000
# 4 0.0000 0.0000 0.0000 90.6654 0.0000 75.6754
# 5 30.3252 12.4167 21.9204 0.0000 34.0462 0.0000
# 6 0.0000 0.0000 0.0000 75.6754 0.0000 95.6555
#
#
#
# Elastic Compliance Matrix: (Units=1/GPa)
#
#
# Indices 1 2 3 4 5 6 
#
# 1 0.013554 0.001927 -0.009583 0.000000 -0.006605 0.000000
# 2 0.001927 0.017084 -0.011561 0.000000 -0.000503 0.000000
# 3 -0.009583 -0.011561 0.037561 0.000000 -0.011431 0.000000
# 4 0.000000 0.000000 0.000000 0.032471 0.000000 -0.025689
# 5 -0.006605 -0.000503 -0.011431 0.000000 0.042799 0.000000
# 6 0.000000 0.000000 0.000000 -0.025689 0.000000 0.030777
#
#
# Mechanical properties :
#
#
# Convention : Reuss Voigt Hill
#
# Bulk Modulus (GPa) = 33.59755 49.12014 41.35885
# Shear Modulus (GPa) = 22.46160 54.47813 38.46986
#
# Velocity S-wave (km/s) = 3.17465 4.94408 4.15466
# Velocity P-wave (km/s) = 5.33974 7.39134 6.44766
#
# Compressibility (1/GPa) = 0.02976407
#
# Stress axis : x y z
#
# Youngs Moduli (GPa) = 73.78024 58.53269 26.62341
#
# Poissons Ratio (x) = -0.11278 0.25513
# Poissons Ratio (y) = -0.14216 0.30780
# Poissons Ratio (z) = 0.70704 0.67671
#
# Static dielectric constant tensor:
#      x y z
#    x 1.904530 0.000000 0.001090 
#    y 0.000000 2.110820 0.000000 
#    z 0.001090 0.000000 1.866340 
# 
# From -- ./inp_files/121972.got.cif
#   From: 2010.05.17/outbox.cif.g08.bks.cpg/sg15_61_cif.got.tgz:121972.got - 2010.06.03 18:47:42.
