data_PCOD9261136
_publ_section_title
;
Structure prediction by ZEFSAII (Michael W. Deem and Ramdas Pophale) SiO2 
 PCOD9261136
Probable space group: C 2/C
;
_chemical_formula_sum "Si O2"
_cell_formula_units_Z 60
_cell_length_a 17.119659
_cell_length_b 8.066774
_cell_length_c 21.063213
_cell_angle_alpha 90.000000
_cell_angle_beta 102.308333
_cell_angle_gamma 90.000000
_cell_volume 2841.977692
_symmetry_space_group_name_H-M "C 2/C"
_symmetry_group_IT_number 15
_symmetry_cell_setting 'monoclinic'
loop_
_space_group_symop_operation_xyz
x,y,z
-x,y,1/2-z
-x,-y,-z
x,-y,1/2+z
1/2+x,1/2+y,z
1/2-x,1/2+y,1/2-z
1/2-x,1/2-y,-z
1/2+x,1/2-y,1/2+z
loop_
_atom_site_type_symbol
_atom_site_label
_atom_site_fract_x
_atom_site_fract_y
_atom_site_fract_z
Si Si1 0.811918 0.247611 0.069230
Si Si2 0.089502 0.316577 0.148313
Si Si3 0.500000 0.931803 0.250000
Si Si4 0.531815 0.639262 0.457486
Si Si5 0.392131 0.095625 0.123923
Si Si6 0.740450 0.171597 0.310853
Si Si7 0.455583 0.832066 0.919705
Si Si8 0.700967 0.706533 0.666448
O O1 0.884091 0.122147 0.064664
O O2 0.853864 0.428304 0.087381
O O3 0.760767 0.214572 0.124230
O O4 0.750000 0.250000 0.000000
O O5 0.057969 0.328948 0.214688
O O6 0.182290 0.282528 0.165386
O O7 0.070439 0.486541 0.108202
O O8 0.037623 0.178859 0.103908
O O9 0.446228 0.037475 0.192934
O O10 0.500000 0.500000 0.500000
O O11 0.546587 0.797139 0.506320
O O12 0.321951 0.200083 0.143373
O O13 0.453365 0.187750 0.088221
O O14 0.704844 0.205137 0.235159
O O15 0.769112 0.981162 0.319697
O O16 0.388953 0.715035 0.876036
#
# Coordination Sequence:
#
# PCOD9261136 Si02
#       8
#     8   8   4   8   8   8   8   8
#     4  11  22  42  68  90 128 177 217 259 330 394
#     4  11  23  39  69  93 127 170 220 264 325 390
#     4  10  18  40  66  92 122 178 212 258 330 402
#     4  12  25  43  64  95 131 170 218 272 322 394
#     4  10  22  40  67  95 129 170 217 267 328 385
#     4  11  23  42  64 101 133 168 215 268 324 391
#     4  11  22  44  67  93 127 175 215 268 329 384
#     4  11  23  41  70  95 131 169 214 268 326 387
#
# _framework density 21.112058000000001
#
# number of rings (size 3 to 8) (size 9 to 14) (size 15 to 20)
#    0.000    1.067    4.000    5.200    1.867    0.000 
#    4.800    2.000    0.000    0.000    0.000    0.000 
#    0.000    0.000    0.000    0.000    0.000    0.000 
#
# Total GULP energy -167691.680614 kJ/mol
# GULP energy per Si atom -5589.722687 kJ/mol
# Density = 2.106401 g / cm^3
# Si number density = 21.112058 Si / 1000 Ang^3
#
#
#
# Elastic Constant Matrix: (Units=GPa)
#
#
# Indices 1 2 3 4 5 6 
#
# 1 145.1636 19.7582 11.7457 0.0000 -11.6416 0.0000
# 2 19.7582 34.3331 2.8975 0.0000 -15.9458 0.0000
# 3 11.7457 2.8975 63.4856 0.0000 5.2100 0.0000
# 4 0.0000 0.0000 0.0000 30.1381 0.0000 -12.6155
# 5 -11.6416 -15.9458 5.2100 0.0000 41.1164 0.0000
# 6 0.0000 0.0000 0.0000 -12.6155 0.0000 17.8445
#
#
#
# Elastic Compliance Matrix: (Units=1/GPa)
#
#
# Indices 1 2 3 4 5 6 
#
# 1 0.007586 -0.003882 -0.001293 0.000000 0.000806 0.000000
# 2 -0.003882 0.038005 -0.002158 0.000000 0.013913 0.000000
# 3 -0.001293 -0.002158 0.016358 0.000000 -0.003276 0.000000
# 4 0.000000 0.000000 0.000000 0.047127 0.000000 0.033317
# 5 0.000806 0.013913 -0.003276 0.000000 0.030360 0.000000
# 6 0.000000 0.000000 0.000000 0.033317 0.000000 0.079593
#
#
# Mechanical properties :
#
#
# Convention : Reuss Voigt Hill
#
# Bulk Modulus (GPa) = 21.14918 34.64278 27.89598
# Shear Modulus (GPa) = 20.04355 31.72520 25.88437
#
# Velocity S-wave (km/s) = 3.08456 3.88068 3.50529
# Velocity P-wave (km/s) = 4.76711 6.04352 5.44286
#
# Compressibility (1/GPa) = 0.04728316
#
# Stress axis : x y z
#
# Youngs Moduli (GPa) = 131.81403 26.31255 61.13189
#
# Poissons Ratio (x) = 0.10216 0.07902
# Poissons Ratio (y) = 0.51175 0.13193
# Poissons Ratio (z) = 0.17038 0.05678
#
# Static dielectric constant tensor:
#      x y z
#    x 1.800700 0.000000 -0.027610 
#    y 0.000000 1.790710 0.000000 
#    z -0.027610 0.000000 1.716500 
# 
# From -- ./inp_files/247555.got.cif
#   From: 2010.05.17/outbox.cif.g08.bks.cpg/sg15_124_cif.got.tgz:247555.got - 2010.06.03 18:47:42.
