data_PCOD9261174
_publ_section_title
;
Structure prediction by ZEFSAII (Michael W. Deem and Ramdas Pophale) SiO2 
 PCOD9261174
Probable space group: C 2/C
;
_chemical_formula_sum "Si O2"
_cell_formula_units_Z 40
_cell_length_a 14.904728
_cell_length_b 8.923572
_cell_length_c 28.647226
_cell_angle_alpha 90.000000
_cell_angle_beta 28.950801
_cell_angle_gamma 90.000000
_cell_volume 1844.349148
_symmetry_space_group_name_H-M "C 2/C"
_symmetry_group_IT_number 15
_symmetry_cell_setting 'monoclinic'
loop_
_space_group_symop_operation_xyz
x,y,z
-x,y,1/2-z
-x,-y,-z
x,-y,1/2+z
1/2+x,1/2+y,z
1/2-x,1/2+y,1/2-z
1/2-x,1/2-y,-z
1/2+x,1/2-y,1/2+z
loop_
_atom_site_type_symbol
_atom_site_label
_atom_site_fract_x
_atom_site_fract_y
_atom_site_fract_z
Si Si1 0.000000 0.037533 0.250000
Si Si2 0.306467 0.210143 0.599435
Si Si3 0.102144 0.696025 0.767572
Si Si4 0.048417 0.219529 0.071166
Si Si5 0.996336 0.910233 0.051296
Si Si6 0.000000 0.549757 0.250000
O O1 0.032183 0.148165 0.278503
O O2 0.179825 0.935504 0.158952
O O3 0.487979 0.205054 0.549653
O O4 0.365956 0.272163 0.521712
O O5 0.172330 0.341656 0.680656
O O6 0.299895 0.658226 0.655187
O O7 0.973854 0.561277 0.805865
O O8 0.095508 0.713916 0.825678
O O9 0.250000 0.250000 0.000000
O O10 0.038925 0.040512 0.068562
O O11 0.000000 0.000000 0.000000
#
# Coordination Sequence:
#
# PCOD9261174 Si02
#       6
#     4   8   8   8   8   4
#     4  10  26  40  66  98 132 168 224 280 338 376
#     4  10  22  43  67  92 130 180 224 267 330 406
#     4  11  23  40  67 100 133 171 224 278 335 387
#     4  11  24  40  66  99 134 168 227 275 327 391
#     4  10  21  44  68  96 130 184 223 260 337 417
#     4  10  18  40  70  88 128 182 228 248 332 416
#
# _framework density 21.687868000000002
#
# number of rings (size 3 to 8) (size 9 to 14) (size 15 to 20)
#    0.000    1.600    4.000    1.200   11.200    0.800 
#    0.000    1.000    0.000    0.000    0.000    0.000 
#    0.000    0.000    0.000    0.000    0.000    0.000 
#
# Total GULP energy -111633.563048 kJ/mol
# GULP energy per Si atom -5581.678152 kJ/mol
# Density = 2.163850 g / cm^3
# Si number density = 21.687868 Si / 1000 Ang^3
#
#
#
# Elastic Constant Matrix: (Units=GPa)
#
#
# Indices 1 2 3 4 5 6 
#
# 1 65.9742 40.3592 30.0736 0.0000 -9.0689 -0.0001
# 2 40.3592 114.5171 30.2301 0.0000 -13.2004 -0.0001
# 3 30.0736 30.2301 85.6899 0.0004 -8.6243 0.0000
# 4 0.0000 0.0000 0.0004 37.0529 0.0000 -9.7498
# 5 -9.0689 -13.2004 -8.6243 0.0000 42.9797 0.0000
# 6 -0.0001 -0.0001 0.0000 -9.7498 0.0000 32.7121
#
#
#
# Elastic Compliance Matrix: (Units=1/GPa)
#
#
# Indices 1 2 3 4 5 6 
#
# 1 0.021432 -0.005980 -0.005248 0.000000 0.001633 0.000000
# 2 -0.005980 0.011530 -0.001775 0.000000 0.001923 0.000000
# 3 -0.005248 -0.001775 0.014260 0.000000 0.001209 0.000000
# 4 0.000000 0.000000 0.000000 0.029285 0.000000 0.008728
# 5 0.001633 0.001923 0.001209 0.000000 0.024445 0.000000
# 6 0.000000 0.000000 0.000000 0.008728 0.000000 0.033171
#
#
# Mechanical properties :
#
#
# Convention : Reuss Voigt Hill
#
# Bulk Modulus (GPa) = 47.13461 51.94521 49.53991
# Shear Modulus (GPa) = 29.90410 33.58351 31.74380
#
# Velocity S-wave (km/s) = 3.71730 3.93936 3.82994
# Velocity P-wave (km/s) = 6.34072 6.68541 6.51535
#
# Compressibility (1/GPa) = 0.02121583
#
# Stress axis : x y z
#
# Youngs Moduli (GPa) = 46.65886 86.72921 70.12731
#
# Poissons Ratio (x) = 0.51862 0.36802
# Poissons Ratio (y) = 0.27901 0.12451
# Poissons Ratio (z) = 0.24486 0.15398
#
# Static dielectric constant tensor:
#      x y z
#    x 1.823760 0.000000 -0.030930 
#    y 0.000000 1.811670 0.000000 
#    z -0.030930 0.000000 1.841980 
# 
# From -- ./inp_files/150637.got.cif
#   From: 2010.05.17/outbox.cif.g08.bks.cpg/sg15_76_cif.got.tgz:150637.got - 2010.06.03 18:47:42.
