data_PCOD9261689
_publ_section_title
;
Structure prediction by ZEFSAII (Michael W. Deem and Ramdas Pophale) SiO2 
 PCOD9261689
Probable space group: C 2/C
;
_chemical_formula_sum "Si O2"
_cell_formula_units_Z 40
_cell_length_a 14.556813
_cell_length_b 20.894999
_cell_length_c 9.525033
_cell_angle_alpha 90.000000
_cell_angle_beta 47.407222
_cell_angle_gamma 90.000000
_cell_volume 2132.851296
_symmetry_space_group_name_H-M "C 2/C"
_symmetry_group_IT_number 15
_symmetry_cell_setting 'monoclinic'
loop_
_space_group_symop_operation_xyz
x,y,z
-x,y,1/2-z
-x,-y,-z
x,-y,1/2+z
1/2+x,1/2+y,z
1/2-x,1/2+y,1/2-z
1/2-x,1/2-y,-z
1/2+x,1/2-y,1/2+z
loop_
_atom_site_type_symbol
_atom_site_label
_atom_site_fract_x
_atom_site_fract_y
_atom_site_fract_z
Si Si1 0.009542 0.801809 0.567576
Si Si2 0.552238 0.443282 0.853629
Si Si3 0.718789 0.219567 0.685767
Si Si4 0.160256 0.531427 0.471708
Si Si5 0.601647 0.078001 0.829722
O O1 0.893293 0.760849 0.635178
O O2 0.000000 0.799357 0.750000
O O3 0.146149 0.778641 0.382216
O O4 0.995182 0.875309 0.543054
O O5 0.500000 0.450493 0.750000
O O6 0.701785 0.444000 0.701304
O O7 0.500000 0.500000 0.000000
O O8 0.750000 0.250000 0.500000
O O9 0.666288 0.146621 0.737795
O O10 0.143295 0.533560 0.656283
O O11 0.140915 0.460944 0.427020
O O12 0.049321 0.576840 0.525749
#
# Coordination Sequence:
#
# PCOD9261689 Si02
#       5
#     8   8   8   8   8
#     4   9  19  29  48  75 104 134 178 220 271 316
#     4  11  21  35  54  81 111 143 182 229 276 333
#     4  10  19  31  49  78 107 142 179 230 271 324
#     4  10  20  34  54  80 115 143 185 223 286 330
#     4  10  21  34  56  83 113 143 184 233 278 337
#
# _framework density 18.754237
#
# number of rings (size 3 to 8) (size 9 to 14) (size 15 to 20)
#    0.000    2.000    0.000    6.000   11.200    0.000 
#    0.000    0.000    0.000    0.000   10.400    8.400 
#    0.000    0.000    0.000    0.000    0.000    0.000 
#
# Total GULP energy -111501.354454 kJ/mol
# GULP energy per Si atom -5575.067723 kJ/mol
# Density = 1.871155 g / cm^3
# Si number density = 18.754237 Si / 1000 Ang^3
#
#
#
# Elastic Constant Matrix: (Units=GPa)
#
#
# Indices 1 2 3 4 5 6 
#
# 1 57.1467 47.3171 49.3211 0.0000 -29.8790 0.0000
# 2 47.3171 122.8676 55.0847 0.0000 -8.3751 0.0000
# 3 49.3211 55.0847 95.6801 0.0000 -47.1396 0.0000
# 4 0.0000 0.0000 0.0000 36.2979 0.0000 -2.4060
# 5 -29.8790 -8.3751 -47.1396 0.0000 47.2004 0.0000
# 6 0.0000 0.0000 0.0000 -2.4060 0.0000 20.6392
#
#
#
# Elastic Compliance Matrix: (Units=1/GPa)
#
#
# Indices 1 2 3 4 5 6 
#
# 1 0.042860 -0.013053 -0.004632 0.000000 0.020190 0.000000
# 2 -0.013053 0.017052 -0.011161 0.000000 -0.016383 0.000000
# 3 -0.004632 -0.011161 0.033161 0.000000 0.028206 0.000000
# 4 0.000000 0.000000 0.000000 0.027764 0.000000 0.003237
# 5 0.020190 -0.016383 0.028206 0.000000 0.059229 0.000000
# 6 0.000000 0.000000 0.000000 0.003237 0.000000 0.048829
#
#
# Mechanical properties :
#
#
# Convention : Reuss Voigt Hill
#
# Bulk Modulus (GPa) = 28.26216 64.34893 46.30555
# Shear Modulus (GPa) = 16.75714 29.09226 22.92470
#
# Velocity S-wave (km/s) = 2.99241 3.94285 3.50004
# Velocity P-wave (km/s) = 5.20017 7.42390 6.40921
#
# Compressibility (1/GPa) = 0.03538300
#
# Stress axis : x y z
#
# Youngs Moduli (GPa) = 23.33171 58.64258 30.15623
#
# Poissons Ratio (x) = 0.76546 0.13967
# Poissons Ratio (y) = 0.30455 0.33656
# Poissons Ratio (z) = 0.10806 0.65448
#
# Static dielectric constant tensor:
#      x y z
#    x 1.650420 0.000000 -0.021970 
#    y 0.000000 1.649530 0.000000 
#    z -0.021970 0.000000 1.689460 
# 
# From -- ./inp_files/40555.got.cif
#   From: 2010.05.17/outbox.cif.g08.bks.cpg/sg15_21_cif.got.tgz:40555.got - 2010.06.03 18:47:42.
