data_PCOD9261453
_publ_section_title
;
Structure prediction by ZEFSAII (Michael W. Deem and Ramdas Pophale) SiO2 
 PCOD9261453
Probable space group: C 2/C
;
_chemical_formula_sum "Si O2"
_cell_formula_units_Z 40
_cell_length_a 9.538637
_cell_length_b 28.181440
_cell_length_c 15.779261
_cell_angle_alpha 90.000000
_cell_angle_beta 156.041595
_cell_angle_gamma 90.000000
_cell_volume 1722.426223
_symmetry_space_group_name_H-M "C 2/C"
_symmetry_group_IT_number 15
_symmetry_cell_setting 'monoclinic'
loop_
_space_group_symop_operation_xyz
x,y,z
-x,y,1/2-z
-x,-y,-z
x,-y,1/2+z
1/2+x,1/2+y,z
1/2-x,1/2+y,1/2-z
1/2-x,1/2-y,-z
1/2+x,1/2-y,1/2+z
loop_
_atom_site_type_symbol
_atom_site_label
_atom_site_fract_x
_atom_site_fract_y
_atom_site_fract_z
Si Si1 0.443583 0.192561 0.403301
Si Si2 0.540447 0.543717 0.584993
Si Si3 0.704279 0.022055 0.035439
Si Si4 0.138598 0.856656 0.590454
Si Si5 0.802568 0.798148 0.270329
O O1 0.206326 0.153276 0.226434
O O2 0.507286 0.189555 0.539067
O O3 0.289302 0.243254 0.289679
O O4 0.832715 0.192752 0.577927
O O5 0.500000 0.500000 0.500000
O O6 0.342249 0.523151 0.557655
O O7 0.398320 0.589495 0.459939
O O8 0.938998 0.550789 0.831328
O O9 0.000000 0.049574 0.250000
O O10 0.500000 0.000000 0.000000
O O11 0.500000 0.838184 0.750000
O O12 0.839029 0.828395 0.376213
#
# Coordination Sequence:
#
# PCOD9261453 Si02
#       5
#     8   8   8   8   8
#     4   9  15  26  43  66 103 151 187 228 287 360
#     4  11  21  38  60  84 118 158 198 245 296 350
#     4   9  20  40  60  81 113 151 195 247 297 344
#     4  10  19  30  46  77 112 150 196 234 288 358
#     4   9  15  26  43  65 104 151 187 226 290 356
#
# _framework density 23.223054999999999
#
# number of rings (size 3 to 8) (size 9 to 14) (size 15 to 20)
#    0.000    2.400    2.000    1.800    0.000    0.000 
#   32.400    0.000    0.000    0.000    0.000    0.000 
#    0.000   11.200    0.000    8.800    0.000    9.800 
#
# Total GULP energy -111562.637512 kJ/mol
# GULP energy per Si atom -5578.131876 kJ/mol
# Density = 2.317020 g / cm^3
# Si number density = 23.223055 Si / 1000 Ang^3
#
#
#
# Elastic Constant Matrix: (Units=GPa)
#
#
# Indices 1 2 3 4 5 6 
#
# 1 68.6636 35.0931 52.6592 -0.0001 -21.1553 0.0000
# 2 35.0931 76.0188 62.7477 0.0000 -30.8487 0.0000
# 3 52.6592 62.7477 206.4898 -0.0002 -70.3249 0.0000
# 4 -0.0001 0.0000 -0.0002 40.0782 -0.0001 -12.1869
# 5 -21.1553 -30.8487 -70.3249 -0.0001 40.7706 0.0000
# 6 0.0000 0.0000 0.0000 -12.1869 0.0000 7.6784
#
#
#
# Elastic Compliance Matrix: (Units=1/GPa)
#
#
# Indices 1 2 3 4 5 6 
#
# 1 0.020477 -0.006855 -0.003119 0.000000 0.000059 0.000000
# 2 -0.006855 0.021671 -0.001125 0.000000 0.010900 0.000000
# 3 -0.003119 -0.001125 0.012457 0.000000 0.019017 0.000001
# 4 0.000000 0.000000 0.000000 0.048226 0.000001 0.076543
# 5 0.000059 0.010900 0.019017 0.000001 0.065607 0.000002
# 6 0.000000 0.000000 0.000001 0.076543 0.000002 0.251723
#
#
# Mechanical properties :
#
#
# Convention : Reuss Voigt Hill
#
# Bulk Modulus (GPa) = 30.85751 72.46356 51.66054
# Shear Modulus (GPa) = 11.03360 31.08359 21.05859
#
# Velocity S-wave (km/s) = 2.18208 3.66249 3.01457
# Velocity P-wave (km/s) = 4.43451 7.01115 5.86605
#
# Compressibility (1/GPa) = 0.03240702
#
# Stress axis : x y z
#
# Youngs Moduli (GPa) = 48.83454 46.14518 80.27711
#
# Poissons Ratio (x) = 0.31631 0.25040
# Poissons Ratio (y) = 0.33474 0.09032
# Poissons Ratio (z) = 0.15232 0.05192
#
# Static dielectric constant tensor:
#      x y z
#    x 1.896610 0.000000 0.137850 
#    y 0.000000 1.853130 0.000000 
#    z 0.137850 0.000000 1.837810 
# 
# From -- ./inp_files/201431.got.cif
#   From: 2010.05.17/outbox.cif.g08.bks.cpg/sg15_101_cif.got.tgz:201431.got - 2010.06.03 18:47:42.
