data_PCOD9261213
_publ_section_title
;
Structure prediction by ZEFSAII (Michael W. Deem and Ramdas Pophale) SiO2 
 PCOD9261213
Probable space group: C 2/C
;
_chemical_formula_sum "Si O2"
_cell_formula_units_Z 48
_cell_length_a 25.962057
_cell_length_b 9.149621
_cell_length_c 15.905093
_cell_angle_alpha 90.000000
_cell_angle_beta 145.817628
_cell_angle_gamma 90.000000
_cell_volume 2122.669997
_symmetry_space_group_name_H-M "C 2/C"
_symmetry_group_IT_number 15
_symmetry_cell_setting 'monoclinic'
loop_
_space_group_symop_operation_xyz
x,y,z
-x,y,1/2-z
-x,-y,-z
x,-y,1/2+z
1/2+x,1/2+y,z
1/2-x,1/2+y,1/2-z
1/2-x,1/2-y,-z
1/2+x,1/2-y,1/2+z
loop_
_atom_site_type_symbol
_atom_site_label
_atom_site_fract_x
_atom_site_fract_y
_atom_site_fract_z
Si Si1 0.658450 0.644731 0.638708
Si Si2 0.029304 0.841049 0.691382
Si Si3 0.809368 0.441141 0.895377
Si Si4 0.269510 0.419915 0.533673
Si Si5 0.814389 0.668574 0.155968
Si Si6 0.989543 0.498941 0.835704
O O1 0.553606 0.605718 0.478790
O O2 0.724093 0.506807 0.731104
O O3 0.676201 0.734923 0.748537
O O4 0.682517 0.766963 0.601648
O O5 0.042067 0.666885 0.690358
O O6 0.000000 0.851907 0.750000
O O7 0.122320 0.929913 0.803403
O O8 0.790345 0.473269 0.967558
O O9 0.904959 0.507778 0.990883
O O10 0.250000 0.250000 0.500000
O O11 0.238762 0.513666 0.412345
O O12 0.917663 0.619569 0.270876
O O13 0.750000 0.750000 0.000000
O O14 0.000000 0.483946 0.750000
#
# Coordination Sequence:
#
# PCOD9261213 Si02
#       6
#     8   8   8   8   8   8
#     4  11  26  44  66 102 138 180 233 284 348 407
#     4  10  23  42  68  99 134 183 233 281 337 419
#     4  11  25  43  69  97 137 179 228 283 336 419
#     4  12  22  43  73  97 134 183 227 279 346 411
#     4  12  24  43  67 102 138 173 228 292 341 405
#     4  10  18  41  67  92 130 180 226 265 341 411
#
# _framework density 22.613030999999999
#
# number of rings (size 3 to 8) (size 9 to 14) (size 15 to 20)
#    0.000    1.000    5.000    2.000    4.667    4.667 
#    3.000    0.833    0.000    0.000    0.000    0.000 
#    0.000    0.000    0.000    0.000    0.000    0.000 
#
# Total GULP energy -134120.446662 kJ/mol
# GULP energy per Si atom -5588.351944 kJ/mol
# Density = 2.256156 g / cm^3
# Si number density = 22.613031 Si / 1000 Ang^3
#
#
#
# Elastic Constant Matrix: (Units=GPa)
#
#
# Indices 1 2 3 4 5 6 
#
# 1 68.6008 8.8221 33.4018 0.0000 14.1676 0.0000
# 2 8.8221 38.6179 16.6052 0.0000 19.7172 0.0000
# 3 33.4018 16.6052 155.6322 0.0000 29.3792 0.0000
# 4 0.0000 0.0000 0.0000 50.7143 0.0000 4.0026
# 5 14.1676 19.7172 29.3792 0.0000 44.2207 0.0000
# 6 0.0000 0.0000 0.0000 4.0026 0.0000 18.8312
#
#
#
# Elastic Compliance Matrix: (Units=1/GPa)
#
#
# Indices 1 2 3 4 5 6 
#
# 1 0.016746 -0.001063 -0.002924 0.000000 -0.002949 0.000000
# 2 -0.001063 0.033697 -0.000681 0.000000 -0.014232 0.000000
# 3 -0.002924 -0.000681 0.007880 0.000000 -0.003995 0.000000
# 4 0.000000 0.000000 0.000000 0.020055 0.000000 -0.004263
# 5 -0.002949 -0.014232 -0.003995 0.000000 0.032558 0.000000
# 6 0.000000 0.000000 0.000000 -0.004263 0.000000 0.054009
#
#
# Mechanical properties :
#
#
# Convention : Reuss Voigt Hill
#
# Bulk Modulus (GPa) = 20.41322 42.27878 31.34600
# Shear Modulus (GPa) = 26.23163 36.35469 31.29316
#
# Velocity S-wave (km/s) = 3.40961 4.01395 3.72406
# Velocity P-wave (km/s) = 4.95453 6.34189 5.69065
#
# Compressibility (1/GPa) = 0.04898787
#
# Stress axis : x y z
#
# Youngs Moduli (GPa) = 59.71401 29.67659 126.90845
#
# Poissons Ratio (x) = 0.03154 0.37109
# Poissons Ratio (y) = 0.06347 0.08636
# Poissons Ratio (z) = 0.17461 0.02020
#
# Static dielectric constant tensor:
#      x y z
#    x 1.848260 0.000000 -0.010340 
#    y 0.000000 1.845660 0.000000 
#    z -0.010340 0.000000 1.889410 
# 
# From -- ./inp_files/224680.got.cif
#   From: 2010.05.17/outbox.cif.g08.bks.cpg/sg15_113_cif.got.tgz:224680.got - 2010.06.03 18:47:42.
