data_PCOD9261249
_publ_section_title
;
Structure prediction by ZEFSAII (Michael W. Deem and Ramdas Pophale) SiO2 
 PCOD9261249
Probable space group: C 2/C
;
_chemical_formula_sum "Si O2"
_cell_formula_units_Z 36
_cell_length_a 22.263464
_cell_length_b 8.680885
_cell_length_c 14.934161
_cell_angle_alpha 90.000000
_cell_angle_beta 146.351932
_cell_angle_gamma 90.000000
_cell_volume 1599.255980
_symmetry_space_group_name_H-M "C 2/C"
_symmetry_group_IT_number 15
_symmetry_cell_setting 'monoclinic'
loop_
_space_group_symop_operation_xyz
x,y,z
-x,y,1/2-z
-x,-y,-z
x,-y,1/2+z
1/2+x,1/2+y,z
1/2-x,1/2+y,1/2-z
1/2-x,1/2-y,-z
1/2+x,1/2-y,1/2+z
loop_
_atom_site_type_symbol
_atom_site_label
_atom_site_fract_x
_atom_site_fract_y
_atom_site_fract_z
Si Si1 0.571095 0.052087 0.264324
Si Si2 0.000000 0.745290 0.750000
Si Si3 0.285606 0.836791 0.703087
Si Si4 0.627442 0.126258 0.600187
Si Si5 0.512040 0.341897 0.961672
O O1 0.500000 0.141742 0.250000
O O2 0.675815 0.125421 0.349746
O O3 0.590350 0.884563 0.333592
O O4 0.479582 0.042676 0.072490
O O5 0.020255 0.842866 0.864216
O O6 0.180812 0.735991 0.591997
O O7 0.289396 0.999048 0.760358
O O8 0.381913 0.738887 0.867191
O O9 0.589196 0.236622 0.632805
O O10 0.500000 0.500000 0.000000
#
# Coordination Sequence:
#
# PCOD9261249 Si02
#       5
#     8   4   8   8   8
#     4   9  18  38  62  86 123 167 203 246 308 363
#     4  10  18  42  68  82 128 166 204 250 328 358
#     4  11  20  37  63  91 125 167 205 252 307 368
#     4  11  20  37  63  91 125 167 205 252 307 368
#     4  11  22  41  63  90 123 168 210 257 308 365
#
# _framework density 22.510469000000001
#
# number of rings (size 3 to 8) (size 9 to 14) (size 15 to 20)
#    0.667    0.889    4.444    2.667    0.000    0.889 
#    8.000    1.111    9.778    0.000    0.000    0.000 
#    0.000    0.000    0.000    0.000    0.000    0.000 
#
# Total GULP energy -100317.047628 kJ/mol
# GULP energy per Si atom -5573.169313 kJ/mol
# Density = 2.245923 g / cm^3
# Si number density = 22.510469 Si / 1000 Ang^3
#
#
#
# Elastic Constant Matrix: (Units=GPa)
#
#
# Indices 1 2 3 4 5 6 
#
# 1 170.9549 63.6601 23.8947 0.0000 -29.1303 0.0000
# 2 63.6601 136.8014 30.5037 0.0000 -6.0248 0.0000
# 3 23.8947 30.5037 36.8074 0.0000 -10.7253 0.0000
# 4 0.0000 0.0000 0.0000 -0.1928 0.0000 -10.8782
# 5 -29.1303 -6.0248 -10.7253 0.0000 37.4260 0.0000
# 6 0.0000 0.0000 0.0000 -10.8782 0.0000 51.2012
#
#
#
# Elastic Compliance Matrix: (Units=1/GPa)
#
#
# Indices 1 2 3 4 5 6 
#
# 1 0.008174 -0.003357 -0.000903 0.000000 0.005563 0.000000
# 2 -0.003357 0.010365 -0.007295 0.000000 -0.003035 0.000000
# 3 -0.000903 -0.007295 0.036283 0.000000 0.008521 0.000000
# 4 0.000000 0.000000 0.000000 -0.399372 0.000000 -0.084850
# 5 0.005563 -0.003035 0.008521 0.000000 0.033002 0.000000
# 6 0.000000 0.000000 0.000000 -0.084850 0.000000 0.001504
#
#
# Mechanical properties :
#
#
# Convention : Reuss Voigt Hill
#
# Bulk Modulus (GPa) = 31.53425 64.52009 48.02717
# Shear Modulus (GPa) = -18.09217 32.78723 7.34753
#
# Velocity S-wave (km/s) = -2.83808 3.82059 1.80863
# Velocity P-wave (km/s) = 1.81647 6.94169 5.07379
#
# Compressibility (1/GPa) = 0.03171155
#
# Stress axis : x y z
#
# Youngs Moduli (GPa) = 122.34230 96.47753 27.56111
#
# Poissons Ratio (x) = 0.32390 0.02489
# Poissons Ratio (y) = 0.41074 0.20105
# Poissons Ratio (z) = 0.11048 0.70379
#
# Static dielectric constant tensor:
#      x y z
#    x 1.936220 0.000000 -0.038480 
#    y 0.000000 1.894270 0.000000 
#    z -0.038480 0.000000 1.824790 
# 
# From -- ./inp_files/166741.got.cif
#   From: 2010.05.17/outbox.cif.g08.bks.cpg/sg15_84_cif.got.tgz:166741.got - 2010.06.03 18:47:42.
