data_PCOD9261438
_publ_section_title
;
Structure prediction by ZEFSAII (Michael W. Deem and Ramdas Pophale) SiO2 
 PCOD9261438
Probable space group: C 2/C
;
_chemical_formula_sum "Si O2"
_cell_formula_units_Z 52
_cell_length_a 18.547776
_cell_length_b 15.432158
_cell_length_c 13.794482
_cell_angle_alpha 90.000000
_cell_angle_beta 41.950166
_cell_angle_gamma 90.000000
_cell_volume 2639.458943
_symmetry_space_group_name_H-M "C 2/C"
_symmetry_group_IT_number 15
_symmetry_cell_setting 'monoclinic'
loop_
_space_group_symop_operation_xyz
x,y,z
-x,y,1/2-z
-x,-y,-z
x,-y,1/2+z
1/2+x,1/2+y,z
1/2-x,1/2+y,1/2-z
1/2-x,1/2-y,-z
1/2+x,1/2-y,1/2+z
loop_
_atom_site_type_symbol
_atom_site_label
_atom_site_fract_x
_atom_site_fract_y
_atom_site_fract_z
Si Si1 0.448457 0.359894 0.162298
Si Si2 0.694005 0.689950 0.195558
Si Si3 0.884066 0.313930 0.845040
Si Si4 0.000000 1.000000 0.250000
Si Si5 0.115934 0.686070 0.613172
Si Si6 0.948457 0.859894 0.940788
Si Si7 0.805996 0.810050 0.583567
O O1 0.412545 0.271366 0.250719
O O2 0.426714 0.439849 0.254262
O O3 0.410351 0.366889 0.089649
O O4 0.579239 0.357450 0.029308
O O5 0.667602 0.777095 0.160565
O O6 0.579239 0.642550 0.312215
O O7 0.725670 0.707345 0.274330
O O8 0.789697 0.641814 0.042628
O O9 0.789696 0.358187 0.877980
O O10 0.000000 0.356532 0.750000
O O11 0.832399 0.277095 0.995769
O O12 0.073285 0.060151 0.107691
O O13 0.087455 0.771366 0.575809
O O14 0.000000 0.643468 0.750000
#
# Coordination Sequence:
#
# PCOD9261438 Si02
#       7
#     8   8   8   4   8   8   8
#     4  10  19  30  45  67  94 123 150 181 221 265
#     4   9  16  27  44  63  88 116 145 183 227 268
#     4   9  16  29  43  65  91 113 145 188 227 270
#     4  12  18  32  40  66  94 132 154 178 204 266
#     4   9  16  29  43  65  91 113 145 188 227 270
#     4  10  19  30  45  67  94 123 150 181 221 265
#     4   9  16  27  44  63  88 116 145 183 227 268
#
# _framework density 19.701008000000002
#
# number of rings (size 3 to 8) (size 9 to 14) (size 15 to 20)
#    0.000    2.462    4.615    1.385    0.000    1.231 
#    0.000    0.000    0.000    0.000    0.000    1.077 
#    0.000    4.923    0.000    0.000    0.000    0.000 
#
# Total GULP energy -144761.527894 kJ/mol
# GULP energy per Si atom -5567.751073 kJ/mol
# Density = 1.965617 g / cm^3
# Si number density = 19.701008 Si / 1000 Ang^3
#
#
#
# Elastic Constant Matrix: (Units=GPa)
#
#
# Indices 1 2 3 4 5 6 
#
# 1 109.4284 -3.7168 35.8310 0.0000 12.5203 0.0000
# 2 -3.7168 24.2946 -5.5795 0.0000 9.8778 0.0000
# 3 35.8310 -5.5795 105.5040 0.0000 8.2939 0.0000
# 4 0.0000 0.0000 0.0000 8.4801 0.0000 3.8589
# 5 12.5203 9.8778 8.2939 0.0000 58.0327 0.0000
# 6 0.0000 0.0000 0.0000 3.8589 0.0000 9.2076
#
#
#
# Elastic Compliance Matrix: (Units=1/GPa)
#
#
# Indices 1 2 3 4 5 6 
#
# 1 0.010521 0.001695 -0.003320 0.000000 -0.002084 0.000000
# 2 0.001695 0.045430 0.002492 0.000000 -0.008454 0.000000
# 3 -0.003320 0.002492 0.010836 0.000000 -0.001257 0.000000
# 4 0.000000 0.000000 0.000000 0.145712 0.000000 -0.061068
# 5 -0.002084 -0.008454 -0.001257 0.000000 0.019300 0.000000
# 6 0.000000 0.000000 0.000000 -0.061068 0.000000 0.134199
#
#
# Mechanical properties :
#
#
# Convention : Reuss Voigt Hill
#
# Bulk Modulus (GPa) = 14.59408 32.47737 23.53573
# Shear Modulus (GPa) = 12.91635 29.32357 21.11996
#
# Velocity S-wave (km/s) = 2.56328 3.86220 3.27773
# Velocity P-wave (km/s) = 4.02299 6.03405 5.12807
#
# Compressibility (1/GPa) = 0.06852091
#
# Stress axis : x y z
#
# Youngs Moduli (GPa) = 95.04416 22.01170 92.28210
#
# Poissons Ratio (x) = -0.03730 0.30636
# Poissons Ratio (y) = -0.16105 -0.22994
# Poissons Ratio (z) = 0.31553 -0.05485
#
# Static dielectric constant tensor:
#      x y z
#    x 1.761390 0.000000 -0.024900 
#    y 0.000000 1.702660 0.000000 
#    z -0.024900 0.000000 1.766080 
# 
# From -- ./inp_files/168734.got.cif
#   From: 2010.05.17/outbox.cif.g08.bks.cpg/sg15_85_cif.got.tgz:168734.got - 2010.06.03 18:47:42.
