data_PCOD9261358
_publ_section_title
;
Structure prediction by ZEFSAII (Michael W. Deem and Ramdas Pophale) SiO2 
 PCOD9261358
Probable space group: C 2/C
;
_chemical_formula_sum "Si O2"
_cell_formula_units_Z 36
_cell_length_a 12.542186
_cell_length_b 32.620677
_cell_length_c 5.196140
_cell_angle_alpha 90.000000
_cell_angle_beta 57.869508
_cell_angle_gamma 90.000000
_cell_volume 1800.312516
_symmetry_space_group_name_H-M "C 2/C"
_symmetry_group_IT_number 15
_symmetry_cell_setting 'monoclinic'
loop_
_space_group_symop_operation_xyz
x,y,z
-x,y,1/2-z
-x,-y,-z
x,-y,1/2+z
1/2+x,1/2+y,z
1/2-x,1/2+y,1/2-z
1/2-x,1/2-y,-z
1/2+x,1/2-y,1/2+z
loop_
_atom_site_type_symbol
_atom_site_label
_atom_site_fract_x
_atom_site_fract_y
_atom_site_fract_z
Si Si1 0.353532 0.388281 0.489052
Si Si2 0.000000 0.213691 0.250000
Si Si3 0.670558 0.235479 0.851156
Si Si4 0.730569 0.654174 0.885882
Si Si5 0.856878 0.982473 0.653598
O O1 0.500000 0.376206 0.250000
O O2 0.284874 0.362769 0.804605
O O3 0.358117 0.435344 0.573083
O O4 0.283663 0.380923 0.308912
O O5 0.042345 0.241685 0.435764
O O6 0.109065 0.183567 0.015241
O O7 0.750000 0.250000 0.500000
O O8 0.660511 0.186280 0.833209
O O9 0.750000 0.250000 0.000000
O O10 0.796277 0.009084 0.505793
O O11 0.000000 0.000000 0.500000
#
# Coordination Sequence:
#
# PCOD9261358 Si02
#       5
#     8   4   8   8   8
#     4  12  20  31  47  67  98 133 162 199 239 280
#     4  10  20  36  54  66  98 134 164 214 262 284
#     4  10  22  36  50  73  96 125 171 217 254 302
#     4  11  22  32  49  72  94 127 175 203 240 298
#     4  10  19  29  42  63  92 125 167 184 221 293
#
# _framework density 19.996528999999999
#
# number of rings (size 3 to 8) (size 9 to 14) (size 15 to 20)
#    0.000    1.333    4.444    4.000    3.111    2.667 
#    0.000    0.000    0.000    0.000    0.000    0.000 
#    0.000    0.000    0.000   20.000    0.000    2.222 
#
# Total GULP energy -100254.383068 kJ/mol
# GULP energy per Si atom -5569.687948 kJ/mol
# Density = 1.995102 g / cm^3
# Si number density = 19.996529 Si / 1000 Ang^3
#
#
#
# Elastic Constant Matrix: (Units=GPa)
#
#
# Indices 1 2 3 4 5 6 
#
# 1 37.5818 15.5134 25.3969 0.0000 22.2038 0.0000
# 2 15.5134 99.7981 18.9512 0.0000 10.1474 0.0000
# 3 25.3969 18.9512 111.9833 0.0000 48.7148 0.0000
# 4 0.0000 0.0000 0.0000 26.2355 0.0000 13.6719
# 5 22.2038 10.1474 48.7148 0.0000 33.3694 0.0000
# 6 0.0000 0.0000 0.0000 13.6719 0.0000 28.4937
#
#
#
# Elastic Compliance Matrix: (Units=1/GPa)
#
#
# Indices 1 2 3 4 5 6 
#
# 1 0.048378 -0.004759 0.008789 0.000000 -0.043575 0.000000
# 2 -0.004759 0.010853 -0.001916 0.000000 0.002663 0.000000
# 3 0.008789 -0.001916 0.026174 0.000000 -0.043476 0.000000
# 4 0.000000 0.000000 0.000000 0.050825 0.000000 -0.024387
# 5 -0.043575 0.002663 -0.043476 0.000000 0.121621 0.000000
# 6 0.000000 0.000000 0.000000 -0.024387 0.000000 0.046797
#
#
# Mechanical properties :
#
#
# Convention : Reuss Voigt Hill
#
# Bulk Modulus (GPa) = 11.15647 41.00956 26.08302
# Shear Modulus (GPa) = 15.13798 30.25316 22.69557
#
# Velocity S-wave (km/s) = 2.75440 3.89385 3.37259
# Velocity P-wave (km/s) = 3.96320 6.38505 5.31394
#
# Compressibility (1/GPa) = 0.08963409
#
# Stress axis : x y z
#
# Youngs Moduli (GPa) = 20.67064 92.14047 38.20657
#
# Poissons Ratio (x) = 0.43846 -0.33582
# Poissons Ratio (y) = 0.09836 0.07320
# Poissons Ratio (z) = -0.18168 0.17654
#
# Static dielectric constant tensor:
#      x y z
#    x 1.827540 0.000000 0.073570 
#    y 0.000000 1.765680 0.000000 
#    z 0.073570 0.000000 1.422290 
# 
# From -- ./inp_files/8371.got.cif
#   From: 2010.05.17/outbox.cif.g08.bks.cpg/sg15_5_cif.got.tgz:8371.got - 2010.06.03 18:47:42.
