data_PCOD9261881
_publ_section_title
;
Structure prediction by ZEFSAII (Michael W. Deem and Ramdas Pophale) SiO2 
 PCOD9261881
Probable space group: C 2/C
;
_chemical_formula_sum "Si O2"
_cell_formula_units_Z 56
_cell_length_a 5.555364
_cell_length_b 21.651411
_cell_length_c 26.293999
_cell_angle_alpha 90.000000
_cell_angle_beta 70.938094
_cell_angle_gamma 90.000000
_cell_volume 2989.259211
_symmetry_space_group_name_H-M "C 2/C"
_symmetry_group_IT_number 15
_symmetry_cell_setting 'monoclinic'
loop_
_space_group_symop_operation_xyz
x,y,z
-x,y,1/2-z
-x,-y,-z
x,-y,1/2+z
1/2+x,1/2+y,z
1/2-x,1/2+y,1/2-z
1/2-x,1/2-y,-z
1/2+x,1/2-y,1/2+z
loop_
_atom_site_type_symbol
_atom_site_label
_atom_site_fract_x
_atom_site_fract_y
_atom_site_fract_z
Si Si1 0.755053 0.971189 0.960376
Si Si2 0.797973 0.023840 0.615253
Si Si3 0.479352 0.899065 0.900043
Si Si4 0.270535 0.467317 0.235635
Si Si5 0.756513 0.677387 0.510310
Si Si6 0.712652 0.123070 0.548971
Si Si7 0.706355 0.108353 0.277516
O O1 0.712201 0.929775 0.914122
O O2 0.827160 0.924578 0.999441
O O3 0.931457 0.026530 0.931210
O O4 0.500000 0.000000 0.000000
O O5 0.838389 0.021704 0.672369
O O6 0.637345 0.080264 0.602665
O O7 0.690997 0.957914 0.604288
O O8 0.340934 0.856300 0.951276
O O9 0.592774 0.873204 0.839943
O O10 0.500000 0.436490 0.250000
O O11 0.219502 0.532745 0.268970
O O12 0.000000 0.433822 0.250000
O O13 0.750000 0.750000 0.500000
O O14 0.462685 0.662609 0.545433
O O15 0.973251 0.656673 0.537246
O O16 0.500000 0.129150 0.250000
O O17 0.000000 0.128615 0.250000
#
# Coordination Sequence:
#
# PCOD9261881 Si02
#       7
#     8   8   8   8   8   8   8
#     4  11  20  31  49  82 124 148 185 227 287 365
#     4  12  20  33  55  87 122 148 190 233 307 362
#     4  11  21  33  57  82 119 160 186 242 300 358
#     4  10  20  31  48  75 121 150 176 219 278 369
#     4  11  25  43  58  81 116 161 212 251 290 342
#     4  11  23  36  59  84 115 155 193 242 289 361
#     4  10  19  32  47  78 117 146 184 222 284 362
#
# _framework density 18.733737000000001
#
# number of rings (size 3 to 8) (size 9 to 14) (size 15 to 20)
#    0.000    1.143    5.714    4.286    0.000    0.000 
#    0.000    0.000    0.000    0.000    0.000    4.000 
#    0.000    0.000    0.000    0.000    0.000    0.000 
#
# Total GULP energy -155925.293742 kJ/mol
# GULP energy per Si atom -5568.760491 kJ/mol
# Density = 1.869110 g / cm^3
# Si number density = 18.733737 Si / 1000 Ang^3
#
#
#
# Elastic Constant Matrix: (Units=GPa)
#
#
# Indices 1 2 3 4 5 6 
#
# 1 127.2062 26.9274 46.9154 0.0000 3.1885 0.0000
# 2 26.9274 66.7869 11.7742 0.0000 6.5663 0.0000
# 3 46.9154 11.7742 65.6620 0.0000 22.5941 0.0000
# 4 0.0000 0.0000 0.0000 9.0656 0.0000 -2.7005
# 5 3.1885 6.5663 22.5941 0.0000 34.2489 0.0000
# 6 0.0000 0.0000 0.0000 -2.7005 0.0000 10.3075
#
#
#
# Elastic Compliance Matrix: (Units=1/GPa)
#
#
# Indices 1 2 3 4 5 6 
#
# 1 0.012301 -0.003769 -0.010307 0.000000 0.006377 0.000000
# 2 -0.003769 0.016674 0.000883 0.000000 -0.003428 0.000000
# 3 -0.010307 0.000883 0.028673 0.000000 -0.018125 0.000000
# 4 0.000000 0.000000 0.000000 0.119645 0.000000 0.031346
# 5 0.006377 -0.003428 -0.018125 0.000000 0.041219 0.000000
# 6 0.000000 0.000000 0.000000 0.031346 0.000000 0.105229
#
#
# Mechanical properties :
#
#
# Convention : Reuss Voigt Hill
#
# Bulk Modulus (GPa) = 31.98981 47.87657 39.93319
# Shear Modulus (GPa) = 13.86777 22.32691 18.09734
#
# Velocity S-wave (km/s) = 2.72372 3.45599 3.11147
# Velocity P-wave (km/s) = 5.19660 6.44492 5.85413
#
# Compressibility (1/GPa) = 0.03125996
#
# Stress axis : x y z
#
# Youngs Moduli (GPa) = 81.29514 59.97301 34.87648
#
# Poissons Ratio (x) = 0.22606 0.35949
# Poissons Ratio (y) = 0.30643 -0.03080
# Poissons Ratio (z) = 0.83795 -0.05296
#
# Static dielectric constant tensor:
#      x y z
#    x 1.882740 0.000000 -0.084800 
#    y 0.000000 1.666210 0.000000 
#    z -0.084800 0.000000 1.762690 
# 
# From -- ./inp_files/261336.got.cif
#   From: 2010.05.17/outbox.cif.g08.bks.cpg/sg15_131_cif.got.tgz:261336.got - 2010.06.03 18:47:42.
