data_PCOD9261619
_publ_section_title
;
Structure prediction by ZEFSAII (Michael W. Deem and Ramdas Pophale) SiO2 
 PCOD9261619
Probable space group: C 2/C
;
_chemical_formula_sum "Si O2"
_cell_formula_units_Z 64
_cell_length_a 14.836068
_cell_length_b 31.700733
_cell_length_c 7.415628
_cell_angle_alpha 90.000000
_cell_angle_beta 94.141476
_cell_angle_gamma 90.000000
_cell_volume 3478.568236
_symmetry_space_group_name_H-M "C 2/C"
_symmetry_group_IT_number 15
_symmetry_cell_setting 'monoclinic'
loop_
_space_group_symop_operation_xyz
x,y,z
-x,y,1/2-z
-x,-y,-z
x,-y,1/2+z
1/2+x,1/2+y,z
1/2-x,1/2+y,1/2-z
1/2-x,1/2-y,-z
1/2+x,1/2-y,1/2+z
loop_
_atom_site_type_symbol
_atom_site_label
_atom_site_fract_x
_atom_site_fract_y
_atom_site_fract_z
Si Si1 0.811188 0.708498 0.476560
Si Si2 0.318682 0.372935 0.932325
Si Si3 0.600107 0.449459 0.990921
Si Si4 0.796872 0.704761 0.042305
Si Si5 0.689414 0.634863 0.482963
Si Si6 0.011177 0.730019 0.470630
Si Si7 0.998618 0.173454 0.532682
Si Si8 0.893431 0.955358 0.939355
O O1 0.750000 0.750000 0.500000
O O2 0.807425 0.702737 0.259941
O O3 0.766093 0.667248 0.559609
O O4 0.916070 0.715408 0.538434
O O5 0.263014 0.335690 0.019781
O O6 0.286505 0.374887 0.721157
O O7 0.324894 0.420471 0.005516
O O8 0.422364 0.357310 0.947854
O O9 0.659410 0.409787 0.064731
O O10 0.494494 0.448868 0.033946
O O11 0.598948 0.447050 0.773332
O O12 0.634072 0.496145 0.042401
O O13 0.897108 0.705313 0.974107
O O14 0.750000 0.750000 0.000000
O O15 0.596925 0.661679 0.476072
O O16 0.000000 0.729109 0.250000
O O17 0.025490 0.778876 0.521573
O O18 0.000000 0.170216 0.750000
#
# Coordination Sequence:
#
# PCOD9261619 Si02
#       8
#     8   8   8   8   8   8   8   8
#     4  10  19  31  47  65  90 120 151 184 220 259
#     4  10  19  31  46  65  90 122 154 183 219 267
#     4   9  17  29  43  62  88 114 145 183 221 265
#     4  10  19  31  47  65  90 120 151 184 220 259
#     4  10  19  31  46  65  90 122 154 183 219 267
#     4   9  18  31  43  64  93 118 148 189 218 249
#     4  11  19  27  44  66  93 122 151 187 220 254
#     4   9  17  29  43  62  88 114 145 183 221 265
#
# _framework density 18.398374
#
# number of rings (size 3 to 8) (size 9 to 14) (size 15 to 20)
#    0.000    2.250    3.750    0.375    0.000    1.000 
#    0.000    0.625    0.000    0.000    0.000    0.875 
#    0.000    0.000    0.000    0.000    0.000    0.000 
#
# Total GULP energy -178460.999713 kJ/mol
# GULP energy per Si atom -5576.906241 kJ/mol
# Density = 1.835650 g / cm^3
# Si number density = 18.398374 Si / 1000 Ang^3
#
#
#
# Elastic Constant Matrix: (Units=GPa)
#
#
# Indices 1 2 3 4 5 6 
#
# 1 92.4802 48.4638 -14.8390 0.0000 -11.5320 0.0000
# 2 48.4638 145.4195 -11.8086 0.0000 -10.0391 0.0000
# 3 -14.8390 -11.8086 48.6624 0.0000 -8.8946 0.0000
# 4 0.0000 0.0000 0.0000 12.8087 0.0000 -4.3217
# 5 -11.5320 -10.0391 -8.8946 0.0000 9.1298 0.0000
# 6 0.0000 0.0000 0.0000 -4.3217 0.0000 29.0334
#
#
#
# Elastic Compliance Matrix: (Units=1/GPa)
#
#
# Indices 1 2 3 4 5 6 
#
# 1 0.017520 -0.003099 0.009749 0.000000 0.028220 0.000000
# 2 -0.003099 0.008696 0.002674 0.000000 0.008253 0.000000
# 3 0.009749 0.002674 0.032800 0.000000 0.047209 0.000000
# 4 0.000000 0.000000 0.000000 0.082201 0.000000 0.012236
# 5 0.028220 0.008253 0.047209 0.000000 0.200244 0.000000
# 6 0.000000 0.000000 0.000000 0.012236 0.000000 0.036264
#
#
# Mechanical properties :
#
#
# Convention : Reuss Voigt Hill
#
# Bulk Modulus (GPa) = 12.87608 36.68830 24.78219
# Shear Modulus (GPa) = 12.98809 27.84409 20.41609
#
# Velocity S-wave (km/s) = 2.65983 3.89446 3.33478
# Velocity P-wave (km/s) = 4.05544 6.34088 5.32228
#
# Compressibility (1/GPa) = 0.07766341
#
# Stress axis : x y z
#
# Youngs Moduli (GPa) = 57.07607 114.99078 30.48754
#
# Poissons Ratio (x) = 0.35638 -0.29722
# Poissons Ratio (y) = 0.17689 -0.08151
# Poissons Ratio (z) = -0.55642 -0.30744
#
# Static dielectric constant tensor:
#      x y z
#    x 1.623760 0.000000 -0.012150 
#    y 0.000000 1.665260 0.000000 
#    z -0.012150 0.000000 1.705010 
# 
# From -- ./inp_files/44285.got.cif
#   From: 2010.05.17/outbox.cif.g08.bks.cpg/sg15_23_cif.got.tgz:44285.got - 2010.06.03 18:47:42.
