data_PCOD9261600
_publ_section_title
;
Structure prediction by ZEFSAII (Michael W. Deem and Ramdas Pophale) SiO2 
 PCOD9261600
Probable space group: C 2/C
;
_chemical_formula_sum "Si O2"
_cell_formula_units_Z 64
_cell_length_a 7.810157
_cell_length_b 30.496881
_cell_length_c 14.837694
_cell_angle_alpha 90.000000
_cell_angle_beta 54.660369
_cell_angle_gamma 90.000000
_cell_volume 2882.916949
_symmetry_space_group_name_H-M "C 2/C"
_symmetry_group_IT_number 15
_symmetry_cell_setting 'monoclinic'
loop_
_space_group_symop_operation_xyz
x,y,z
-x,y,1/2-z
-x,-y,-z
x,-y,1/2+z
1/2+x,1/2+y,z
1/2-x,1/2+y,1/2-z
1/2-x,1/2-y,-z
1/2+x,1/2-y,1/2+z
loop_
_atom_site_type_symbol
_atom_site_label
_atom_site_fract_x
_atom_site_fract_y
_atom_site_fract_z
Si Si1 0.023313 0.873272 0.052868
Si Si2 0.818131 0.583007 0.233890
Si Si3 0.957452 0.551574 0.997520
Si Si4 0.358841 0.180750 0.919680
Si Si5 0.094656 0.219916 0.131135
Si Si6 0.231343 0.674589 0.153226
Si Si7 0.160237 0.606260 0.785289
Si Si8 0.493532 0.544282 0.446728
O O1 0.830083 0.848835 0.060400
O O2 0.899550 0.886566 0.180901
O O3 0.075152 0.918809 0.989616
O O4 0.221781 0.843178 0.962831
O O5 0.909352 0.576037 0.106585
O O6 0.742391 0.631903 0.287617
O O7 0.632635 0.549036 0.314480
O O8 0.000000 0.572628 0.250000
O O9 0.742736 0.555014 0.007194
O O10 0.000000 0.500000 0.000000
O O11 0.127707 0.574522 0.880585
O O12 0.357443 0.228770 0.875771
O O13 0.567886 0.153745 0.841284
O O14 0.296847 0.192763 0.040054
O O15 0.906727 0.211150 0.118151
O O16 0.000000 0.202215 0.250000
O O17 0.000000 0.690504 0.250000
O O18 0.000000 0.592486 0.750000
O O19 0.500000 0.500000 0.500000
#
# Coordination Sequence:
#
# PCOD9261600 Si02
#       8
#     8   8   8   8   8   8   8   8
#     4   9  18  36  62  85 119 173 208 248 315 379
#     4  10  23  42  60  84 125 168 216 269 316 384
#     4  12  25  37  61  97 122 168 219 269 326 392
#     4   9  18  34  56  92 125 156 209 256 311 368
#     4  10  19  30  60  98 122 151 209 267 305 376
#     4   9  20  37  61  91 124 167 202 259 330 381
#     4  10  19  37  61  86 126 165 208 258 317 377
#     4  11  22  38  62  88 124 162 208 270 329 381
#
# _framework density 22.199738
#
# number of rings (size 3 to 8) (size 9 to 14) (size 15 to 20)
#    0.000    2.000    2.500    2.250    3.500    0.500 
#    0.000    0.000    0.000   12.000    0.000    0.000 
#    0.000    0.000    0.000    0.000    0.000    0.000 
#
# Total GULP energy -178352.117348 kJ/mol
# GULP energy per Si atom -5573.503667 kJ/mol
# Density = 2.214921 g / cm^3
# Si number density = 22.199738 Si / 1000 Ang^3
#
#
#
# Elastic Constant Matrix: (Units=GPa)
#
#
# Indices 1 2 3 4 5 6 
#
# 1 25.1131 8.7026 12.5449 0.0000 -9.7942 0.0000
# 2 8.7026 74.7039 23.4492 0.0000 2.9577 0.0000
# 3 12.5449 23.4492 183.8214 0.0000 -3.9483 0.0000
# 4 0.0000 0.0000 0.0000 -5.2082 0.0000 -24.2662
# 5 -9.7942 2.9577 -3.9483 0.0000 33.2516 0.0000
# 6 0.0000 0.0000 0.0000 -24.2662 0.0000 -0.6773
#
#
#
# Elastic Compliance Matrix: (Units=1/GPa)
#
#
# Indices 1 2 3 4 5 6 
#
# 1 0.048537 -0.005508 -0.002298 0.000000 0.014513 0.000000
# 2 -0.005508 0.014640 -0.001558 0.000000 -0.003110 0.000000
# 3 -0.002298 -0.001558 0.005799 0.000000 0.000150 0.000000
# 4 0.000000 0.000000 0.000000 0.001157 0.000000 -0.041458
# 5 0.014513 -0.003110 0.000150 0.000000 0.034643 0.000000
# 6 0.000000 0.000000 0.000000 -0.041458 0.000000 0.008898
#
#
# Mechanical properties :
#
#
# Convention : Reuss Voigt Hill
#
# Bulk Modulus (GPa) = 19.90153 41.44800 30.67476
# Shear Modulus (GPa) = 33.52303 21.40267 27.46285
#
# Velocity S-wave (km/s) = 3.89017 3.10836 3.52103
# Velocity P-wave (km/s) = 5.40020 5.62081 5.51161
#
# Compressibility (1/GPa) = 0.05024740
#
# Stress axis : x y z
#
# Youngs Moduli (GPa) = 20.60301 68.30560 172.44547
#
# Poissons Ratio (x) = 0.37619 0.39629
# Poissons Ratio (y) = 0.11347 0.26875
# Poissons Ratio (z) = 0.04735 0.10645
#
# Static dielectric constant tensor:
#      x y z
#    x 1.890840 0.000000 -0.005570 
#    y 0.000000 1.887640 0.000000 
#    z -0.005570 0.000000 1.933310 
# 
# From -- ./inp_files/139801.got.cif
#   From: 2010.05.17/outbox.cif.g08.bks.cpg/sg15_70_cif.got.tgz:139801.got - 2010.06.03 18:47:42.
