data_PCOD9261893
_publ_section_title
;
Structure prediction by ZEFSAII (Michael W. Deem and Ramdas Pophale) SiO2 
 PCOD9261893
Probable space group: C 2/C
;
_chemical_formula_sum "Si O2"
_cell_formula_units_Z 60
_cell_length_a 27.869325
_cell_length_b 22.942330
_cell_length_c 5.182131
_cell_angle_alpha 90.000000
_cell_angle_beta 89.700060
_cell_angle_gamma 90.000000
_cell_volume 3313.343094
_symmetry_space_group_name_H-M "C 2/C"
_symmetry_group_IT_number 15
_symmetry_cell_setting 'monoclinic'
loop_
_space_group_symop_operation_xyz
x,y,z
-x,y,1/2-z
-x,-y,-z
x,-y,1/2+z
1/2+x,1/2+y,z
1/2-x,1/2+y,1/2-z
1/2-x,1/2-y,-z
1/2+x,1/2-y,1/2+z
loop_
_atom_site_type_symbol
_atom_site_label
_atom_site_fract_x
_atom_site_fract_y
_atom_site_fract_z
Si Si1 0.000000 0.774861 0.250000
Si Si2 0.300888 0.539634 0.775404
Si Si3 0.967680 0.884996 0.963992
Si Si4 0.413159 0.461477 0.295984
Si Si5 0.777537 0.848107 0.984777
Si Si6 0.107141 0.240728 0.741114
Si Si7 0.709741 0.771679 0.706183
Si Si8 0.376182 0.332960 0.751878
O O1 0.949076 0.741782 0.287585
O O2 0.011266 0.820674 0.479512
O O3 0.291515 0.508188 0.048969
O O4 0.357373 0.556472 0.781040
O O5 0.274476 0.598892 0.685363
O O6 0.951920 0.912085 0.236914
O O7 0.915844 0.878964 0.829395
O O8 0.000000 0.915574 0.750000
O O9 0.420455 0.504501 0.056362
O O10 0.730157 0.830660 0.830289
O O11 0.822944 0.857913 0.794841
O O12 0.789806 0.785986 0.115206
O O13 0.152954 0.279935 0.654227
O O14 0.114522 0.188137 0.537000
O O15 0.114795 0.218638 0.035857
O O16 0.750000 0.750000 0.500000
#
# Coordination Sequence:
#
# PCOD9261893 Si02
#       8
#     4   8   8   8   8   8   8   8
#     4  10  22  34  50  70  94 130 172 202 256 306
#     4  10  22  37  54  74  98 138 174 212 262 313
#     4  11  21  33  49  64  85 124 167 215 261 297
#     4  10  23  37  48  64  89 120 167 219 266 296
#     4  10  20  35  53  79 103 133 169 218 263 320
#     4  10  20  33  48  72 100 126 167 203 251 311
#     4  10  20  32  55  80 106 132 168 217 273 305
#     4  10  19  32  49  69  93 123 162 214 251 303
#
# _framework density 18.108598000000001
#
# number of rings (size 3 to 8) (size 9 to 14) (size 15 to 20)
#    0.000    1.867    4.000    0.000    3.733    0.533 
#    0.000    0.000    0.000    0.000    0.000    0.000 
#    0.000    0.000    0.000    1.200    0.000    0.533 
#
# Total GULP energy -167250.590895 kJ/mol
# GULP energy per Si atom -5575.019696 kJ/mol
# Density = 1.806738 g / cm^3
# Si number density = 18.108598 Si / 1000 Ang^3
#
#
#
# Elastic Constant Matrix: (Units=GPa)
#
#
# Indices 1 2 3 4 5 6 
#
# 1 132.7086 26.8227 12.9574 0.0000 0.8888 0.0000
# 2 26.8227 34.1427 6.3678 0.0000 5.5006 0.0000
# 3 12.9574 6.3678 67.9445 0.0000 -5.0241 0.0000
# 4 0.0000 0.0000 0.0000 19.4145 0.0000 8.2409
# 5 0.8888 5.5006 -5.0241 0.0000 21.0973 0.0000
# 6 0.0000 0.0000 0.0000 8.2409 0.0000 27.2175
#
#
#
# Elastic Compliance Matrix: (Units=1/GPa)
#
#
# Indices 1 2 3 4 5 6 
#
# 1 0.009065 -0.007143 -0.000967 0.000000 0.001250 0.000000
# 2 -0.007143 0.037049 -0.002852 0.000000 -0.010038 0.000000
# 3 -0.000967 -0.002852 0.015501 0.000000 0.004476 0.000000
# 4 0.000000 0.000000 0.000000 0.059104 0.000000 -0.017896
# 5 0.001250 -0.010038 0.004476 0.000000 0.051030 0.000000
# 6 0.000000 0.000000 0.000000 -0.017896 0.000000 0.042160
#
#
# Mechanical properties :
#
#
# Convention : Reuss Voigt Hill
#
# Bulk Modulus (GPa) = 25.19459 36.34351 30.76905
# Shear Modulus (GPa) = 20.07530 26.12237 23.09884
#
# Velocity S-wave (km/s) = 3.33319 3.80220 3.57539
# Velocity P-wave (km/s) = 5.36253 6.27606 5.83720
#
# Compressibility (1/GPa) = 0.03969106
#
# Stress axis : x y z
#
# Youngs Moduli (GPa) = 110.31472 26.99109 64.51368
#
# Poissons Ratio (x) = 0.19279 0.06238
# Poissons Ratio (y) = 0.78793 0.18402
# Poissons Ratio (z) = 0.10666 0.07699
#
# Static dielectric constant tensor:
#      x y z
#    x 1.737570 0.000000 0.020390 
#    y 0.000000 1.639650 0.000000 
#    z 0.020390 0.000000 1.740540 
# 
# From -- ./inp_files/17448.got.cif
#   From: 2010.05.17/outbox.cif.g08.bks.cpg/sg15_9_cif.got.tgz:17448.got - 2010.06.03 18:47:42.
