data_PCOD9261661
_publ_section_title
;
Structure prediction by ZEFSAII (Michael W. Deem and Ramdas Pophale) SiO2 
 PCOD9261661
Probable space group: C 2/C
;
_chemical_formula_sum "Si O2"
_cell_formula_units_Z 40
_cell_length_a 12.797765
_cell_length_b 27.536455
_cell_length_c 5.517861
_cell_angle_alpha 90.000000
_cell_angle_beta 64.965323
_cell_angle_gamma 90.000000
_cell_volume 1761.837961
_symmetry_space_group_name_H-M "C 2/C"
_symmetry_group_IT_number 15
_symmetry_cell_setting 'monoclinic'
loop_
_space_group_symop_operation_xyz
x,y,z
-x,y,1/2-z
-x,-y,-z
x,-y,1/2+z
1/2+x,1/2+y,z
1/2-x,1/2+y,1/2-z
1/2-x,1/2-y,-z
1/2+x,1/2-y,1/2+z
loop_
_atom_site_type_symbol
_atom_site_label
_atom_site_fract_x
_atom_site_fract_y
_atom_site_fract_z
Si Si1 0.203467 0.194904 0.041706
Si Si2 0.372411 0.719878 0.881577
Si Si3 0.159153 0.984168 0.489091
Si Si4 0.616142 0.947084 0.721035
Si Si5 0.177458 0.400041 0.157022
O O1 0.138683 0.189127 0.360502
O O2 0.250000 0.250000 0.000000
O O3 0.131575 0.190445 0.865258
O O4 0.305099 0.156312 0.913225
O O5 0.500000 0.745170 0.750000
O O6 0.250000 0.750000 0.000000
O O7 0.279280 0.015412 0.366696
O O8 0.104351 0.002741 0.788360
O O9 0.199072 0.928479 0.470684
O O10 0.500000 0.973342 0.750000
O O11 0.635544 0.910845 0.472201
O O12 0.611189 0.921264 0.986792
#
# Coordination Sequence:
#
# PCOD9261661 Si02
#       5
#     8   8   8   8   8
#     4  10  21  38  57  81 117 157 201 247 294 345
#     4  10  21  40  65  89 117 155 201 251 304 356
#     4   8  16  27  44  66  98 138 187 237 293 354
#     4  10  19  31  48  74 112 153 196 247 306 368
#     4  10  19  32  47  70 104 147 197 240 292 355
#
# _framework density 22.703562999999999
#
# number of rings (size 3 to 8) (size 9 to 14) (size 15 to 20)
#    0.000    2.400    0.000    2.400    0.000    7.200 
#    0.000   24.000    0.000    0.000    0.000    0.000 
#    0.000  144.000    0.000    0.000    0.000    0.000 
#
# Total GULP energy -111378.467697 kJ/mol
# GULP energy per Si atom -5568.923385 kJ/mol
# Density = 2.265189 g / cm^3
# Si number density = 22.703563 Si / 1000 Ang^3
#
#
#
# Elastic Constant Matrix: (Units=GPa)
#
#
# Indices 1 2 3 4 5 6 
#
# 1 110.8935 10.3019 53.9220 0.0000 6.3284 0.0000
# 2 10.3019 94.5550 22.7295 0.0000 6.4197 0.0000
# 3 53.9220 22.7295 206.6833 0.0000 50.7080 0.0000
# 4 0.0000 0.0000 0.0000 18.5743 0.0000 -2.3684
# 5 6.3284 6.4197 50.7080 0.0000 47.5171 0.0000
# 6 0.0000 0.0000 0.0000 -2.3684 0.0000 27.9033
#
#
#
# Elastic Compliance Matrix: (Units=1/GPa)
#
#
# Indices 1 2 3 4 5 6 
#
# 1 0.010499 -0.000518 -0.003192 0.000000 0.002078 0.000000
# 2 -0.000518 0.010891 -0.000973 0.000000 -0.000364 0.000000
# 3 -0.003192 -0.000973 0.007643 0.000000 -0.007599 0.000000
# 4 0.000000 0.000000 0.000000 0.054427 0.000000 0.004620
# 5 0.002078 -0.000364 -0.007599 0.000000 0.028927 0.000000
# 6 0.000000 0.000000 0.000000 0.004620 0.000000 0.036230
#
#
# Mechanical properties :
#
#
# Convention : Reuss Voigt Hill
#
# Bulk Modulus (GPa) = 50.84814 65.11540 57.98177
# Shear Modulus (GPa) = 30.38804 40.47751 35.43277
#
# Velocity S-wave (km/s) = 3.66248 4.22699 3.95482
# Velocity P-wave (km/s) = 6.35060 7.25025 6.81529
#
# Compressibility (1/GPa) = 0.01966640
#
# Stress axis : x y z
#
# Youngs Moduli (GPa) = 95.24433 91.81937 130.84662
#
# Poissons Ratio (x) = 0.04753 0.41767
# Poissons Ratio (y) = 0.04931 0.12737
# Poissons Ratio (z) = 0.30403 0.08938
#
# Static dielectric constant tensor:
#      x y z
#    x 1.914170 0.000000 -0.035910 
#    y 0.000000 1.813730 0.000000 
#    z -0.035910 0.000000 1.969380 
# 
# From -- ./inp_files/4913.got.cif
#   From: 2010.05.17/outbox.cif.g08.bks.cpg/sg15_3_cif.got.tgz:4913.got - 2010.06.03 18:47:42.
