data_PCOD9261740
_publ_section_title
;
Structure prediction by ZEFSAII (Michael W. Deem and Ramdas Pophale) SiO2 
 PCOD9261740
Probable space group: C 2/C
;
_chemical_formula_sum "Si O2"
_cell_formula_units_Z 60
_cell_length_a 19.772750
_cell_length_b 21.773152
_cell_length_c 5.425835
_cell_angle_alpha 90.000000
_cell_angle_beta 97.228052
_cell_angle_gamma 90.000000
_cell_volume 2317.340934
_symmetry_space_group_name_H-M "C 2/C"
_symmetry_group_IT_number 15
_symmetry_cell_setting 'monoclinic'
loop_
_space_group_symop_operation_xyz
x,y,z
-x,y,1/2-z
-x,-y,-z
x,-y,1/2+z
1/2+x,1/2+y,z
1/2-x,1/2+y,1/2-z
1/2-x,1/2-y,-z
1/2+x,1/2-y,1/2+z
loop_
_atom_site_type_symbol
_atom_site_label
_atom_site_fract_x
_atom_site_fract_y
_atom_site_fract_z
Si Si1 0.557794 0.194111 0.576925
Si Si2 0.203939 0.461713 0.508845
Si Si3 0.221022 0.815188 0.588097
Si Si4 0.348458 0.256655 0.536172
Si Si5 0.647487 0.861987 0.775460
Si Si6 0.358650 0.462269 0.574014
Si Si7 0.000000 0.958668 0.750000
Si Si8 0.429674 0.319717 0.203007
O O1 0.500000 0.180866 0.750000
O O2 0.628205 0.211277 0.739837
O O3 0.578802 0.140053 0.401231
O O4 0.546162 0.259516 0.439728
O O5 0.195131 0.491627 0.236967
O O6 0.150676 0.408746 0.552682
O O7 0.282144 0.437604 0.562249
O O8 0.250000 0.750000 0.500000
O O9 0.208696 0.799497 0.872866
O O10 0.278242 0.866527 0.559644
O O11 0.146159 0.834384 0.446321
O O12 0.346061 0.207486 0.318413
O O13 0.407720 0.300810 0.467630
O O14 0.362063 0.484644 0.290096
O O15 0.426804 0.425654 0.685824
O O16 0.000000 0.000000 0.500000
O O17 0.500000 0.359159 0.250000
#
# Coordination Sequence:
#
# PCOD9261740 Si02
#       8
#     8   8   8   8   8   8   4   8
#     4  10  19  32  56  85 117 150 202 242 290 367
#     4  10  23  41  60  84 116 154 207 262 319 366
#     4  11  20  32  52  90 120 151 200 238 294 367
#     4  10  19  32  55  83 121 151 193 237 295 355
#     4  11  23  35  58  87 115 158 198 256 309 358
#     4   8  14  27  47  73  97 127 167 226 285 339
#     4   8  12  20  42  72  94 116 160 214 278 332
#     4  10  19  31  51  81 122 168 192 230 292 356
#
# _framework density 25.891745
#
# number of rings (size 3 to 8) (size 9 to 14) (size 15 to 20)
#    0.000    2.133    5.333    0.400    1.867    0.000 
#    0.000    0.000    0.000    2.400   15.600    0.000 
#    0.000    0.000    0.000    0.000    0.000    0.000 
#
# Total GULP energy -167057.201213 kJ/mol
# GULP energy per Si atom -5568.573374 kJ/mol
# Density = 2.583281 g / cm^3
# Si number density = 25.891745 Si / 1000 Ang^3
#
#
#
# Elastic Constant Matrix: (Units=GPa)
#
#
# Indices 1 2 3 4 5 6 
#
# 1 115.9963 23.3756 33.5250 0.0000 -41.8202 0.0000
# 2 23.3756 78.6758 30.0131 0.0000 -15.0057 0.0000
# 3 33.5250 30.0131 107.9022 0.0000 -20.6322 0.0000
# 4 0.0000 0.0000 0.0000 23.4368 0.0000 -14.9103
# 5 -41.8202 -15.0057 -20.6322 0.0000 62.4142 0.0000
# 6 0.0000 0.0000 0.0000 -14.9103 0.0000 16.8142
#
#
#
# Elastic Compliance Matrix: (Units=1/GPa)
#
#
# Indices 1 2 3 4 5 6 
#
# 1 0.012034 -0.001475 -0.001980 0.000000 0.007054 0.000000
# 2 -0.001475 0.014703 -0.003357 0.000000 0.001437 0.000000
# 3 -0.001980 -0.003357 0.011111 0.000000 0.001539 0.000000
# 4 0.000000 0.000000 0.000000 0.097897 0.000000 0.086812
# 5 0.007054 0.001437 0.001539 0.000000 0.021603 0.000000
# 6 0.000000 0.000000 0.000000 0.086812 0.000000 0.136455
#
#
# Mechanical properties :
#
#
# Convention : Reuss Voigt Hill
#
# Bulk Modulus (GPa) = 41.27950 52.93352 47.10651
# Shear Modulus (GPa) = 15.84784 34.91042 25.37913
#
# Velocity S-wave (km/s) = 2.47671 3.67593 3.13421
# Velocity P-wave (km/s) = 4.91493 6.20526 5.59740
#
# Compressibility (1/GPa) = 0.02422510
#
# Stress axis : x y z
#
# Youngs Moduli (GPa) = 83.10131 68.01254 90.00269
#
# Poissons Ratio (x) = 0.10030 0.17819
# Poissons Ratio (y) = 0.12255 0.30211
# Poissons Ratio (z) = 0.16452 0.22830
#
# Static dielectric constant tensor:
#      x y z
#    x 2.189630 0.000000 0.062890 
#    y 0.000000 2.031790 0.000000 
#    z 0.062890 0.000000 2.220220 
# 
# From -- ./inp_files/13915.got.cif
#   From: 2010.05.17/outbox.cif.g08.bks.cpg/sg15_7_cif.got.tgz:13915.got - 2010.06.03 18:47:42.
