data_PCOD9261668
_publ_section_title
;
Structure prediction by ZEFSAII (Michael W. Deem and Ramdas Pophale) SiO2 
 PCOD9261668
Probable space group: C 2/C
;
_chemical_formula_sum "Si O2"
_cell_formula_units_Z 40
_cell_length_a 15.839474
_cell_length_b 17.996337
_cell_length_c 9.086499
_cell_angle_alpha 90.000000
_cell_angle_beta 55.987592
_cell_angle_gamma 90.000000
_cell_volume 2147.000849
_symmetry_space_group_name_H-M "C 2/C"
_symmetry_group_IT_number 15
_symmetry_cell_setting 'monoclinic'
loop_
_space_group_symop_operation_xyz
x,y,z
-x,y,1/2-z
-x,-y,-z
x,-y,1/2+z
1/2+x,1/2+y,z
1/2-x,1/2+y,1/2-z
1/2-x,1/2-y,-z
1/2+x,1/2-y,1/2+z
loop_
_atom_site_type_symbol
_atom_site_label
_atom_site_fract_x
_atom_site_fract_y
_atom_site_fract_z
Si Si1 0.114696 0.522039 0.436319
Si Si2 0.751848 0.736129 0.756259
Si Si3 0.117815 0.776240 0.125286
Si Si4 0.378060 0.902257 0.863504
Si Si5 0.382440 0.169813 0.883581
O O1 0.163353 0.448327 0.457735
O O2 0.162063 0.560524 0.246662
O O3 0.114052 0.585021 0.563511
O O4 0.000000 0.500000 0.500000
O O5 0.827911 0.788147 0.584673
O O6 0.681381 0.695561 0.703280
O O7 0.821461 0.684888 0.792574
O O8 0.676531 0.782695 0.934736
O O9 0.127423 0.686220 0.130579
O O10 0.000000 0.796841 0.250000
O O11 0.500000 0.915336 0.750000
O O12 0.500000 0.193737 0.750000
#
# Coordination Sequence:
#
# PCOD9261668 Si02
#       5
#     8   8   8   8   8
#     4  10  19  31  48  79 103 150 173 208 279 351
#     4  10  22  32  51  78 104 156 189 214 271 337
#     4  10  19  36  53  74 111 143 184 233 270 320
#     4   9  18  28  48  72 102 139 174 209 275 334
#     4  11  21  35  51  75 119 147 179 226 271 331
#
# _framework density 18.63064
#
# number of rings (size 3 to 8) (size 9 to 14) (size 15 to 20)
#    0.000    2.000    2.000    3.000    8.400    0.000 
#    0.000    0.000    0.000    0.000    0.000    0.000 
#    0.000  112.000    0.000    0.000    0.000    0.000 
#
# Total GULP energy -111424.171272 kJ/mol
# GULP energy per Si atom -5571.208564 kJ/mol
# Density = 1.858824 g / cm^3
# Si number density = 18.630640 Si / 1000 Ang^3
#
#
#
# Elastic Constant Matrix: (Units=GPa)
#
#
# Indices 1 2 3 4 5 6 
#
# 1 133.3732 29.6860 55.1383 0.0000 6.4626 0.0000
# 2 29.6860 61.1326 19.7335 0.0000 10.7669 0.0000
# 3 55.1383 19.7335 108.5961 0.0000 2.4015 0.0000
# 4 0.0000 0.0000 0.0000 28.5185 0.0000 8.1064
# 5 6.4626 10.7669 2.4015 0.0000 37.6599 0.0000
# 6 0.0000 0.0000 0.0000 8.1064 0.0000 24.8951
#
#
#
# Elastic Compliance Matrix: (Units=1/GPa)
#
#
# Indices 1 2 3 4 5 6 
#
# 1 0.010145 -0.003380 -0.004526 0.000000 -0.000486 0.000000
# 2 -0.003380 0.019404 -0.001703 0.000000 -0.004859 0.000000
# 3 -0.004526 -0.001703 0.011805 0.000000 0.000511 0.000000
# 4 0.000000 0.000000 0.000000 0.038642 0.000000 -0.012583
# 5 -0.000486 -0.004859 0.000511 0.000000 0.027994 0.000000
# 6 0.000000 0.000000 0.000000 -0.012583 0.000000 0.044266
#
#
# Mechanical properties :
#
#
# Convention : Reuss Voigt Hill
#
# Bulk Modulus (GPa) = 45.17291 56.91304 51.04298
# Shear Modulus (GPa) = 27.95641 31.45098 29.70369
#
# Velocity S-wave (km/s) = 3.87791 4.11315 3.99726
# Velocity P-wave (km/s) = 6.65959 7.29189 6.98290
#
# Compressibility (1/GPa) = 0.02213716
#
# Stress axis : x y z
#
# Youngs Moduli (GPa) = 98.57432 51.53453 84.71335
#
# Poissons Ratio (x) = 0.17417 0.38341
# Poissons Ratio (y) = 0.33315 0.14424
# Poissons Ratio (z) = 0.44614 0.08774
#
# Static dielectric constant tensor:
#      x y z
#    x 1.672900 0.000000 0.018440 
#    y 0.000000 1.671230 0.000000 
#    z 0.018440 0.000000 1.737460 
# 
# From -- ./inp_files/39909.got.cif
#   From: 2010.05.17/outbox.cif.g08.bks.cpg/sg15_20_cif.got.tgz:39909.got - 2010.06.03 18:47:42.
