data_PCOD9261818
_publ_section_title
;
Structure prediction by ZEFSAII (Michael W. Deem and Ramdas Pophale) SiO2 
 PCOD9261818
Probable space group: C 2/C
;
_chemical_formula_sum "Si O2"
_cell_formula_units_Z 44
_cell_length_a 7.827017
_cell_length_b 22.025615
_cell_length_c 11.334486
_cell_angle_alpha 90.000000
_cell_angle_beta 54.124781
_cell_angle_gamma 90.000000
_cell_volume 1583.322578
_symmetry_space_group_name_H-M "C 2/C"
_symmetry_group_IT_number 15
_symmetry_cell_setting 'monoclinic'
loop_
_space_group_symop_operation_xyz
x,y,z
-x,y,1/2-z
-x,-y,-z
x,-y,1/2+z
1/2+x,1/2+y,z
1/2-x,1/2+y,1/2-z
1/2-x,1/2-y,-z
1/2+x,1/2-y,1/2+z
loop_
_atom_site_type_symbol
_atom_site_label
_atom_site_fract_x
_atom_site_fract_y
_atom_site_fract_z
Si Si1 0.327203 0.448405 0.014931
Si Si2 0.274347 0.617494 0.213373
Si Si3 0.610171 0.939037 0.532324
Si Si4 0.000000 0.104114 0.750000
Si Si5 0.227874 0.827906 0.332473
Si Si6 0.380218 0.255575 0.572860
O O1 0.494529 0.410988 0.870275
O O2 0.500000 0.500000 0.000000
O O3 0.133211 0.489850 0.051046
O O4 0.221121 0.391827 0.127311
O O5 0.195287 0.591855 0.118957
O O6 0.281073 0.689284 0.189873
O O7 0.115413 0.593407 0.377432
O O8 0.785451 0.931342 0.359235
O O9 0.018895 0.148169 0.850855
O O10 0.369117 0.801331 0.168856
O O11 0.121689 0.775048 0.451507
O O12 0.250000 0.250000 0.500000
#
# Coordination Sequence:
#
# PCOD9261818 Si02
#       6
#     8   8   8   4   8   8
#     4   9  17  37  50  69 106 152 174 221 257 310
#     4   9  19  32  50  74 102 147 169 212 264 317
#     4  10  19  31  55  68 109 142 184 212 264 314
#     4  12  18  28  46  78  98 146 170 210 256 320
#     4  11  21  29  49  74 111 147 168 207 266 322
#     4  11  19  28  45  76 110 140 171 202 260 338
#
# _framework density 27.789660999999999
#
# number of rings (size 3 to 8) (size 9 to 14) (size 15 to 20)
#    0.000    1.818    7.273    0.000    7.636    0.000 
#    0.000    0.909    0.000    3.273    0.000    0.000 
#    0.000  146.909    0.000    0.000    0.000    0.000 
#
# Total GULP energy -122620.355430 kJ/mol
# GULP energy per Si atom -5573.652520 kJ/mol
# Density = 2.772641 g / cm^3
# Si number density = 27.789661 Si / 1000 Ang^3
#
#
#
# Elastic Constant Matrix: (Units=GPa)
#
#
# Indices 1 2 3 4 5 6 
#
# 1 91.3137 43.0032 52.1278 0.0000 -27.7191 0.0000
# 2 43.0032 210.7853 96.7821 0.0000 3.6483 0.0000
# 3 52.1278 96.7821 209.3522 0.0000 -24.9776 0.0000
# 4 0.0000 0.0000 0.0000 53.3174 0.0000 8.2631
# 5 -27.7191 3.6483 -24.9776 0.0000 43.1131 0.0000
# 6 0.0000 0.0000 0.0000 8.2631 0.0000 25.1784
#
#
#
# Elastic Compliance Matrix: (Units=1/GPa)
#
#
# Indices 1 2 3 4 5 6 
#
# 1 0.016063 -0.002710 -0.001598 0.000000 0.009632 0.000000
# 2 -0.002710 0.006696 -0.002896 0.000000 -0.003987 0.000000
# 3 -0.001598 -0.002896 0.006897 0.000000 0.003214 0.000000
# 4 0.000000 0.000000 0.000000 0.019761 0.000000 -0.006485
# 5 0.009632 -0.003987 0.003214 0.000000 0.031587 0.000000
# 6 0.000000 0.000000 0.000000 -0.006485 0.000000 0.041845
#
#
# Mechanical properties :
#
#
# Convention : Reuss Voigt Hill
#
# Bulk Modulus (GPa) = 65.58395 99.47525 82.52960
# Shear Modulus (GPa) = 35.12727 45.62431 40.37579
#
# Velocity S-wave (km/s) = 3.55919 4.05628 3.81584
# Velocity P-wave (km/s) = 6.36725 7.60338 7.01260
#
# Compressibility (1/GPa) = 0.01524763
#
# Stress axis : x y z
#
# Youngs Moduli (GPa) = 62.25313 149.34332 144.99440
#
# Poissons Ratio (x) = 0.40477 0.23165
# Poissons Ratio (y) = 0.16873 0.41996
# Poissons Ratio (z) = 0.09946 0.43255
#
# Static dielectric constant tensor:
#      x y z
#    x 2.423420 0.000000 0.063040 
#    y 0.000000 2.189850 0.000000 
#    z 0.063040 0.000000 2.224140 
# 
# From -- ./inp_files/147018.got.cif
#   From: 2010.05.17/outbox.cif.g08.bks.cpg/sg15_74_cif.got.tgz:147018.got - 2010.06.03 18:47:42.
