data_PCOD9261599
_publ_section_title
;
Structure prediction by ZEFSAII (Michael W. Deem and Ramdas Pophale) SiO2 
 PCOD9261599
Probable space group: C 2/C
;
_chemical_formula_sum "Si O2"
_cell_formula_units_Z 56
_cell_length_a 11.605936
_cell_length_b 20.863051
_cell_length_c 17.813836
_cell_angle_alpha 90.000000
_cell_angle_beta 50.104783
_cell_angle_gamma 90.000000
_cell_volume 3309.288413
_symmetry_space_group_name_H-M "C 2/C"
_symmetry_group_IT_number 15
_symmetry_cell_setting 'monoclinic'
loop_
_space_group_symop_operation_xyz
x,y,z
-x,y,1/2-z
-x,-y,-z
x,-y,1/2+z
1/2+x,1/2+y,z
1/2-x,1/2+y,1/2-z
1/2-x,1/2-y,-z
1/2+x,1/2-y,1/2+z
loop_
_atom_site_type_symbol
_atom_site_label
_atom_site_fract_x
_atom_site_fract_y
_atom_site_fract_z
Si Si1 0.329225 0.445146 0.810734
Si Si2 0.000000 0.841490 0.250000
Si Si3 0.038602 0.100335 0.516192
Si Si4 0.427850 0.732160 0.932535
Si Si5 0.763664 0.930837 0.420639
Si Si6 0.311540 0.496912 0.653905
Si Si7 0.535576 0.126114 0.396783
Si Si8 0.500000 0.940626 0.750000
O O1 0.500000 0.422739 0.750000
O O2 0.285541 0.494897 0.893869
O O3 0.318449 0.487505 0.739617
O O4 0.201325 0.392574 0.853941
O O5 0.990473 0.797928 0.328411
O O6 0.855829 0.887949 0.321622
O O7 0.042316 0.177170 0.517523
O O8 0.154693 0.083185 0.534569
O O9 0.094359 0.062885 0.419759
O O10 0.884403 0.064461 0.601453
O O11 0.507982 0.798772 0.914310
O O12 0.250000 0.750000 0.000000
O O13 0.591987 0.909824 0.501077
O O14 0.146228 0.485194 0.691262
O O15 0.510335 0.102430 0.321032
#
# Coordination Sequence:
#
# PCOD9261599 Si02
#       8
#     8   4   8   8   8   8   8   4
#     4  11  21  35  55  80 114 148 188 225 276 326
#     4  10  19  30  60  76 115 144 172 230 282 329
#     4  10  19  32  57  80 107 144 179 226 278 327
#     4  11  19  34  53  82 114 141 183 225 278 333
#     4  11  18  37  53  86 111 143 187 227 279 330
#     4  10  19  34  55  81 108 139 185 228 276 318
#     4  11  22  34  56  85 115 145 182 231 274 336
#     4  10  19  34  54  86 111 138 180 236 276 311
#
# _framework density 16.922066999999998
#
# number of rings (size 3 to 8) (size 9 to 14) (size 15 to 20)
#    0.000    1.429    6.429    1.714    0.000    1.143 
#    0.000    0.000    1.571    0.857    0.000    0.000 
#    0.000    0.000    0.000    0.000    0.000    0.000 
#
# Total GULP energy -156086.910828 kJ/mol
# GULP energy per Si atom -5574.532530 kJ/mol
# Density = 1.688355 g / cm^3
# Si number density = 16.922067 Si / 1000 Ang^3
#
#
#
# Elastic Constant Matrix: (Units=GPa)
#
#
# Indices 1 2 3 4 5 6 
#
# 1 70.8061 42.6740 16.8413 0.0000 -30.1718 0.0000
# 2 42.6740 111.7684 28.8020 0.0000 -31.8815 0.0000
# 3 16.8413 28.8020 65.9867 0.0000 -21.7083 0.0000
# 4 0.0000 0.0000 0.0000 22.9497 0.0000 -4.7383
# 5 -30.1718 -31.8815 -21.7083 0.0000 29.2760 0.0000
# 6 0.0000 0.0000 0.0000 -4.7383 0.0000 25.6366
#
#
#
# Elastic Compliance Matrix: (Units=1/GPa)
#
#
# Indices 1 2 3 4 5 6 
#
# 1 0.026534 -0.003603 0.003315 0.000000 0.025881 0.000000
# 2 -0.003603 0.013558 -0.001802 0.000000 0.009716 0.000000
# 3 0.003315 -0.001802 0.020598 0.000000 0.016727 0.000000
# 4 0.000000 0.000000 0.000000 0.045302 0.000000 0.008373
# 5 0.025881 0.009716 0.016727 0.000000 0.083814 0.000000
# 6 0.000000 0.000000 0.000000 0.008373 0.000000 0.040554
#
#
# Mechanical properties :
#
#
# Convention : Reuss Voigt Hill
#
# Bulk Modulus (GPa) = 17.69600 47.24398 32.46999
# Shear Modulus (GPa) = 19.73331 26.25538 22.99435
#
# Velocity S-wave (km/s) = 3.41857 3.94324 3.69024
# Velocity P-wave (km/s) = 5.10511 6.97935 6.11447
#
# Compressibility (1/GPa) = 0.05650996
#
# Stress axis : x y z
#
# Youngs Moduli (GPa) = 37.68712 73.75475 48.54827
#
# Poissons Ratio (x) = 0.26572 -0.16092
# Poissons Ratio (y) = 0.13578 0.08749
# Poissons Ratio (z) = -0.12492 0.13292
#
# Static dielectric constant tensor:
#      x y z
#    x 1.556720 0.000000 -0.000760 
#    y 0.000000 1.573240 0.000000 
#    z -0.000760 0.000000 1.627120 
# 
# From -- ./inp_files/199932.got.cif
#   From: 2010.05.17/outbox.cif.g08.bks.cpg/sg15_100_cif.got.tgz:199932.got - 2010.06.03 18:47:42.
