data_PCOD9261911
_publ_section_title
;
Structure prediction by ZEFSAII (Michael W. Deem and Ramdas Pophale) SiO2 
 PCOD9261911
Probable space group: C 2/C
;
_chemical_formula_sum "Si O2"
_cell_formula_units_Z 56
_cell_length_a 24.668572
_cell_length_b 22.297320
_cell_length_c 5.255330
_cell_angle_alpha 90.000000
_cell_angle_beta 107.624558
_cell_angle_gamma 90.000000
_cell_volume 2754.973067
_symmetry_space_group_name_H-M "C 2/C"
_symmetry_group_IT_number 15
_symmetry_cell_setting 'monoclinic'
loop_
_space_group_symop_operation_xyz
x,y,z
-x,y,1/2-z
-x,-y,-z
x,-y,1/2+z
1/2+x,1/2+y,z
1/2-x,1/2+y,1/2-z
1/2-x,1/2-y,-z
1/2+x,1/2-y,1/2+z
loop_
_atom_site_type_symbol
_atom_site_label
_atom_site_fract_x
_atom_site_fract_y
_atom_site_fract_z
Si Si1 0.793411 0.685719 0.722407
Si Si2 0.664551 0.121331 0.238043
Si Si3 0.831663 0.855205 0.291396
Si Si4 0.862469 0.205189 0.325922
Si Si5 0.031092 0.616901 0.041476
Si Si6 0.269411 0.536210 0.457315
Si Si7 0.517923 0.252412 0.528495
O O1 0.810968 0.651167 0.487457
O O2 0.731217 0.669747 0.735125
O O3 0.805682 0.755816 0.710958
O O4 0.832221 0.665687 0.017100
O O5 0.598130 0.106016 0.116978
O O6 0.707108 0.067448 0.377259
O O7 0.862944 0.845524 0.606511
O O8 0.862322 0.818335 0.112413
O O9 0.816448 0.917918 0.133243
O O10 0.914530 0.251223 0.361545
O O11 0.000000 0.594046 0.250000
O O12 0.000000 0.592211 0.750000
O O13 0.016819 0.689350 0.021282
O O14 0.274162 0.482504 0.668784
O O15 0.500000 0.287620 0.750000
O O16 0.500000 0.285222 0.250000
#
# Coordination Sequence:
#
# PCOD9261911 Si02
#       7
#     8   8   8   8   8   8   8
#     4  11  20  34  53  81 120 155 181 220 281 356
#     4  11  21  36  59  85 111 152 203 237 282 343
#     4  11  23  36  54  85 114 148 190 234 290 350
#     4  12  21  34  54  82 125 156 185 225 275 346
#     4  10  19  32  51  78 109 146 194 232 264 321
#     4  11  23  42  63  81 109 147 196 254 301 339
#     4  10  19  32  49  75 111 157 191 214 256 317
#
# _framework density 20.326879000000002
#
# number of rings (size 3 to 8) (size 9 to 14) (size 15 to 20)
#    0.000    1.143    0.000   11.143    0.000    0.000 
#    0.000    0.000    0.000    2.571    0.000    0.000 
#    0.000   40.000    0.000    0.000    0.000    0.000 
#
# Total GULP energy -156095.861624 kJ/mol
# GULP energy per Si atom -5574.852201 kJ/mol
# Density = 2.028061 g / cm^3
# Si number density = 20.326879 Si / 1000 Ang^3
#
#
#
# Elastic Constant Matrix: (Units=GPa)
#
#
# Indices 1 2 3 4 5 6 
#
# 1 55.0983 -13.1731 7.0836 0.0000 -17.2962 0.0000
# 2 -13.1731 13.8648 -12.3255 0.0000 -5.4376 0.0000
# 3 7.0836 -12.3255 137.3841 0.0000 -34.4129 0.0000
# 4 0.0000 0.0000 0.0000 37.0164 0.0000 -6.0852
# 5 -17.2962 -5.4376 -34.4129 0.0000 38.3270 0.0000
# 6 0.0000 0.0000 0.0000 -6.0852 0.0000 17.3639
#
#
#
# Elastic Compliance Matrix: (Units=1/GPa)
#
#
# Indices 1 2 3 4 5 6 
#
# 1 0.053689 0.088463 0.018554 0.000000 0.053439 0.000000
# 2 0.088463 0.242729 0.046241 0.000000 0.115877 0.000000
# 3 0.018554 0.046241 0.018335 0.000000 0.031396 0.000000
# 4 0.000000 0.000000 0.000000 0.028667 0.000000 0.010046
# 5 0.053439 0.115877 0.031396 0.000000 0.094837 0.000000
# 6 0.000000 0.000000 0.000000 0.010046 0.000000 0.061111
#
#
# Mechanical properties :
#
#
# Convention : Reuss Voigt Hill
#
# Bulk Modulus (GPa) = 1.60961 18.83524 10.22242
# Shear Modulus (GPa) = 12.50184 33.52561 23.01372
#
# Velocity S-wave (km/s) = 2.48269 4.06559 3.36844
# Velocity P-wave (km/s) = 3.00199 5.59688 4.49093
#
# Compressibility (1/GPa) = 0.62126929
#
# Stress axis : x y z
#
# Youngs Moduli (GPa) = 18.62569 4.11983 54.54032
#
# Poissons Ratio (x) = -0.36445 -1.01194
# Poissons Ratio (y) = -1.64769 -2.52200
# Poissons Ratio (z) = -0.34558 -0.19051
#
# Static dielectric constant tensor:
#      x y z
#    x 1.787340 0.000000 0.024930 
#    y 0.000000 1.792520 0.000000 
#    z 0.024930 0.000000 1.974980 
# 
# From -- ./inp_files/15856.got.cif
#   From: 2010.05.17/outbox.cif.g08.bks.cpg/sg15_8_cif.got.tgz:15856.got - 2010.06.03 18:47:42.
