data_PCOD9261765
_publ_section_title
;
Structure prediction by ZEFSAII (Michael W. Deem and Ramdas Pophale) SiO2 
 PCOD9261765
Probable space group: C 2/C
;
_chemical_formula_sum "Si O2"
_cell_formula_units_Z 64
_cell_length_a 22.808397
_cell_length_b 18.283159
_cell_length_c 19.839605
_cell_angle_alpha 90.000000
_cell_angle_beta 20.971066
_cell_angle_gamma 90.000000
_cell_volume 2960.986408
_symmetry_space_group_name_H-M "C 2/C"
_symmetry_group_IT_number 15
_symmetry_cell_setting 'monoclinic'
loop_
_space_group_symop_operation_xyz
x,y,z
-x,y,1/2-z
-x,-y,-z
x,-y,1/2+z
1/2+x,1/2+y,z
1/2-x,1/2+y,1/2-z
1/2-x,1/2-y,-z
1/2+x,1/2-y,1/2+z
loop_
_atom_site_type_symbol
_atom_site_label
_atom_site_fract_x
_atom_site_fract_y
_atom_site_fract_z
Si Si1 0.067149 0.226128 0.407744
Si Si2 0.215362 0.921940 0.759743
Si Si3 0.980732 0.223796 0.883115
Si Si4 0.161476 0.638924 0.175583
Si Si5 0.243179 0.138243 0.813110
Si Si6 0.405116 0.049758 0.517495
Si Si7 0.446666 0.490765 0.946984
Si Si8 0.192096 0.085784 0.616829
O O1 0.211430 0.164891 0.257403
O O2 0.021940 0.239667 0.534280
O O3 0.123178 0.300860 0.312778
O O4 0.915502 0.186261 0.535792
O O5 0.089323 0.952820 0.838584
O O6 0.383020 0.966306 0.566401
O O7 0.129640 0.948414 0.920956
O O8 0.024314 0.301143 0.803312
O O9 0.118264 0.164592 0.716499
O O10 0.810769 0.187810 0.043012
O O11 0.081252 0.585217 0.316725
O O12 0.224305 0.593541 0.044737
O O13 0.302711 0.096815 0.681522
O O14 0.185191 0.073065 0.924446
O O15 0.318247 0.059510 0.538433
O O16 0.537498 0.530950 0.788977
#
# Coordination Sequence:
#
# PCOD9261765 Si02
#       8
#     8   8   8   8   8   8   8   8
#     4  11  18  33  52  74 100 138 164 204 252 293
#     4   8  15  30  53  69  95 126 165 210 248 296
#     4  12  22  36  46  71 105 142 173 199 234 291
#     4  12  25  34  48  71 105 140 172 204 237 285
#     4  10  19  31  53  74 101 128 168 205 249 302
#     4  10  19  35  51  74  95 131 174 207 245 290
#     4   8  15  31  51  71  88 130 174 202 244 294
#     4  11  20  36  52  66  95 136 177 208 238 286
#
# _framework density 21.614419000000002
#
# number of rings (size 3 to 8) (size 9 to 14) (size 15 to 20)
#    0.000    1.750    3.750    4.125    0.000    1.000 
#    0.000    1.875    0.000    0.000    0.000    0.875 
#    0.000    2.000    0.000    0.500    0.000    0.000 
#
# Total GULP energy -178981.590995 kJ/mol
# GULP energy per Si atom -5593.174719 kJ/mol
# Density = 2.156522 g / cm^3
# Si number density = 21.614419 Si / 1000 Ang^3
#
#
#
# Elastic Constant Matrix: (Units=GPa)
#
#
# Indices 1 2 3 4 5 6 
#
# 1 31.6308 3.3247 16.9505 -0.0007 -7.1445 0.0011
# 2 3.3247 114.0551 50.3519 -0.0049 13.1612 0.0063
# 3 16.9505 50.3519 110.0035 0.0028 8.5738 -0.0040
# 4 -0.0007 -0.0049 0.0028 56.0101 0.0004 -9.7787
# 5 -7.1445 13.1612 8.5738 0.0004 19.5712 0.0002
# 6 0.0011 0.0063 -0.0040 -9.7787 0.0002 17.6797
#
#
#
# Elastic Compliance Matrix: (Units=1/GPa)
#
#
# Indices 1 2 3 4 5 6 
#
# 1 0.039641 0.000136 -0.007549 0.000000 0.017686 -0.000005
# 2 0.000136 0.011562 -0.004878 0.000000 -0.005589 -0.000005
# 3 -0.007549 -0.004878 0.012886 0.000000 -0.005121 0.000005
# 4 0.000000 0.000000 0.000000 0.019762 -0.000001 0.010931
# 5 0.017686 -0.005589 -0.005121 -0.000001 0.063553 -0.000002
# 6 -0.000005 -0.000005 0.000005 0.010931 -0.000002 0.062608
#
#
# Mechanical properties :
#
#
# Convention : Reuss Voigt Hill
#
# Bulk Modulus (GPa) = 25.31173 44.10482 34.70828
# Shear Modulus (GPa) = 20.18065 30.98969 25.58517
#
# Velocity S-wave (km/s) = 3.05891 3.79060 3.44424
# Velocity P-wave (km/s) = 4.92056 6.29347 5.64888
#
# Compressibility (1/GPa) = 0.03950737
#
# Stress axis : x y z
#
# Youngs Moduli (GPa) = 25.22651 86.49061 77.60573
#
# Poissons Ratio (x) = -0.01179 0.58586
# Poissons Ratio (y) = -0.00344 0.37854
# Poissons Ratio (z) = 0.19044 0.42187
#
# Static dielectric constant tensor:
#      x y z
#    x 1.807320 -0.000010 -0.088080 
#    y -0.000010 1.820180 0.000010 
#    z -0.088080 0.000010 1.846650 
# 
# From -- ./inp_files/258056.got.cif
#   From: 2010.05.17/outbox.cif.g08.bks.cpg/sg15_130_cif.got.tgz:258056.got - 2010.06.03 18:47:42.
