data_PCOD9261184
_publ_section_title
;
Structure prediction by ZEFSAII (Michael W. Deem and Ramdas Pophale) SiO2 
 PCOD9261184
Probable space group: C 2/C
;
_chemical_formula_sum "Si O2"
_cell_formula_units_Z 44
_cell_length_a 6.750872
_cell_length_b 17.450765
_cell_length_c 14.600413
_cell_angle_alpha 90.000000
_cell_angle_beta 113.523639
_cell_angle_gamma 90.000000
_cell_volume 1577.100309
_symmetry_space_group_name_H-M "C 2/C"
_symmetry_group_IT_number 15
_symmetry_cell_setting 'monoclinic'
loop_
_space_group_symop_operation_xyz
x,y,z
-x,y,1/2-z
-x,-y,-z
x,-y,1/2+z
1/2+x,1/2+y,z
1/2-x,1/2+y,1/2-z
1/2-x,1/2-y,-z
1/2+x,1/2-y,1/2+z
loop_
_atom_site_type_symbol
_atom_site_label
_atom_site_fract_x
_atom_site_fract_y
_atom_site_fract_z
Si Si1 0.240904 0.660304 0.743493
Si Si2 0.754032 0.483349 0.528203
Si Si3 0.266631 0.829238 0.742214
Si Si4 0.592422 0.678322 0.960331
Si Si5 0.500000 0.958059 0.250000
Si Si6 0.158859 0.873146 0.915226
O O1 0.265824 0.826263 0.852168
O O2 0.459741 0.672023 0.841308
O O3 0.000000 0.649892 0.750000
O O4 0.218107 0.570931 0.723089
O O5 0.500000 0.500000 0.500000
O O6 0.876822 0.501056 0.644071
O O7 0.746406 0.395745 0.495962
O O8 0.796924 0.551905 0.463841
O O9 0.500000 0.848068 0.750000
O O10 0.205213 0.743808 0.694632
O O11 0.081423 0.884404 0.671148
O O12 0.750000 0.750000 0.000000
O O13 0.402032 0.670416 0.001725
#
# Coordination Sequence:
#
# PCOD9261184 Si02
#       6
#     8   8   8   8   4   8
#     4  10  19  41  69 110 155 195 257 333 391 461
#     4  10  20  43  75 115 156 211 260 324 403 478
#     4  11  23  42  73 119 153 212 271 325 397 471
#     4  11  23  43  74 117 159 202 263 331 401 488
#     4  10  18  40  76 108 156 210 260 328 388 480
#     4  10  20  44  75 108 161 203 266 328 387 475
#
# _framework density 27.899301999999999
#
# number of rings (size 3 to 8) (size 9 to 14) (size 15 to 20)
#    0.545    1.091    5.455    1.091    0.000    0.727 
#   16.364    0.000   12.000   19.636    0.000    0.000 
#    0.000    0.000    0.000    0.000    0.000    0.000 
#
# Total GULP energy -122749.088905 kJ/mol
# GULP energy per Si atom -5579.504041 kJ/mol
# Density = 2.783580 g / cm^3
# Si number density = 27.899302 Si / 1000 Ang^3
#
#
#
# Elastic Constant Matrix: (Units=GPa)
#
#
# Indices 1 2 3 4 5 6 
#
# 1 101.7402 35.2140 21.4238 0.0000 5.9044 0.0000
# 2 35.2140 188.9208 77.7558 0.0000 21.7060 0.0000
# 3 21.4238 77.7558 164.1655 0.0000 11.6247 0.0000
# 4 0.0000 0.0000 0.0000 40.9636 0.0000 15.2346
# 5 5.9044 21.7060 11.6247 0.0000 66.9625 0.0000
# 6 0.0000 0.0000 0.0000 15.2346 0.0000 53.8557
#
#
#
# Elastic Compliance Matrix: (Units=1/GPa)
#
#
# Indices 1 2 3 4 5 6 
#
# 1 0.010552 -0.001709 -0.000548 0.000000 -0.000281 0.000000
# 2 -0.001709 0.007028 -0.002992 0.000000 -0.001608 0.000000
# 3 -0.000548 -0.002992 0.007601 0.000000 -0.000302 0.000000
# 4 0.000000 0.000000 0.000000 0.027282 0.000000 -0.007718
# 5 -0.000281 -0.001608 -0.000302 0.000000 0.015532 0.000000
# 6 0.000000 0.000000 0.000000 -0.007718 0.000000 0.020751
#
#
# Mechanical properties :
#
#
# Convention : Reuss Voigt Hill
#
# Bulk Modulus (GPa) = 68.10044 80.40151 74.25098
# Shear Modulus (GPa) = 48.01285 53.71853 50.86569
#
# Velocity S-wave (km/s) = 4.15291 4.39275 4.27451
# Velocity P-wave (km/s) = 6.88897 7.38981 7.14378
#
# Compressibility (1/GPa) = 0.01468419
#
# Stress axis : x y z
#
# Youngs Moduli (GPa) = 94.76724 142.28957 131.55683
#
# Poissons Ratio (x) = 0.24320 0.07204
# Poissons Ratio (y) = 0.16197 0.39359
# Poissons Ratio (z) = 0.05190 0.42570
#
# Static dielectric constant tensor:
#      x y z
#    x 2.653870 0.000000 -0.468210 
#    y 0.000000 2.276870 0.000000 
#    z -0.468210 0.000000 2.453050 
# 
# From -- ./inp_files/135426.got.cif
#   From: 2010.05.17/outbox.cif.g08.bks.cpg/sg15_68_cif.got.tgz:135426.got - 2010.06.03 18:47:42.
