data_PCOD9261051
_publ_section_title
;
Structure prediction by ZEFSAII (Michael W. Deem and Ramdas Pophale) SiO2 
 PCOD9261051
Probable space group: C 2/C
;
_chemical_formula_sum "Si O2"
_cell_formula_units_Z 56
_cell_length_a 15.749454
_cell_length_b 22.531895
_cell_length_c 8.683599
_cell_angle_alpha 90.000000
_cell_angle_beta 56.675168
_cell_angle_gamma 90.000000
_cell_volume 2574.811706
_symmetry_space_group_name_H-M "C 2/C"
_symmetry_group_IT_number 15
_symmetry_cell_setting 'monoclinic'
loop_
_space_group_symop_operation_xyz
x,y,z
-x,y,1/2-z
-x,-y,-z
x,-y,1/2+z
1/2+x,1/2+y,z
1/2-x,1/2+y,1/2-z
1/2-x,1/2-y,-z
1/2+x,1/2-y,1/2+z
loop_
_atom_site_type_symbol
_atom_site_label
_atom_site_fract_x
_atom_site_fract_y
_atom_site_fract_z
Si Si1 0.983787 0.309587 0.594507
Si Si2 0.794695 0.766287 0.286996
Si Si3 0.147343 0.468599 0.231098
Si Si4 0.077142 0.571839 0.466857
Si Si5 0.000000 0.135222 0.250000
Si Si6 0.000000 0.127299 0.750000
Si Si7 0.115479 0.208623 0.385014
Si Si8 0.843251 0.099460 0.655521
O O1 0.910590 0.253287 0.676505
O O2 0.931846 0.358301 0.541970
O O3 0.000000 0.334364 0.750000
O O4 0.084801 0.277980 0.435566
O O5 0.750000 0.750000 0.500000
O O6 0.734953 0.717618 0.245901
O O7 0.796968 0.834365 0.231819
O O8 0.136544 0.539157 0.269696
O O9 0.131146 0.449420 0.070271
O O10 0.248302 0.442878 0.210298
O O11 0.042893 0.445473 0.414481
O O12 0.933956 0.178199 0.210212
O O13 0.920657 0.099734 0.434040
O O14 0.920103 0.090599 0.724201
O O15 0.073080 0.168135 0.568085
#
# Coordination Sequence:
#
# PCOD9261051 Si02
#       8
#     8   8   8   8   4   4   8   8
#     4  12  22  36  61  97 134 174 211 263 321 396
#     4  12  21  34  62  95 129 178 219 256 321 404
#     4  10  24  47  67  94 126 170 220 281 335 392
#     4  10  25  43  67  95 130 164 222 277 336 395
#     4  10  24  38  58  91 142 175 212 272 322 398
#     4  10  18  40  60  93 132 175 222 264 312 406
#     4  11  20  38  55  90 140 170 216 257 317 398
#     4  11  22  41  66  96 136 175 221 273 337 391
#
# _framework density 21.749162999999999
#
# number of rings (size 3 to 8) (size 9 to 14) (size 15 to 20)
#    0.000    1.143    6.429    0.857    6.000    2.857 
#    0.000    0.000    0.000    2.571    0.000    0.000 
#    0.000    0.000    0.000    0.000    0.000    0.000 
#
# Total GULP energy -156111.822322 kJ/mol
# GULP energy per Si atom -5575.422226 kJ/mol
# Density = 2.169966 g / cm^3
# Si number density = 21.749163 Si / 1000 Ang^3
#
#
#
# Elastic Constant Matrix: (Units=GPa)
#
#
# Indices 1 2 3 4 5 6 
#
# 1 144.8814 13.6203 33.8421 0.0000 2.9296 0.0000
# 2 13.6203 41.4769 12.6152 0.0000 2.4404 0.0000
# 3 33.8421 12.6152 53.3443 0.0000 7.5323 0.0000
# 4 0.0000 0.0000 0.0000 13.5315 0.0000 -3.0077
# 5 2.9296 2.4404 7.5323 0.0000 34.1954 0.0000
# 6 0.0000 0.0000 0.0000 -3.0077 0.0000 35.8193
#
#
#
# Elastic Compliance Matrix: (Units=1/GPa)
#
#
# Indices 1 2 3 4 5 6 
#
# 1 0.008165 -0.001200 -0.004964 0.000000 0.000480 0.000000
# 2 -0.001200 0.026163 -0.005343 0.000000 -0.000587 0.000000
# 3 -0.004964 -0.005343 0.023785 0.000000 -0.004433 0.000000
# 4 0.000000 0.000000 0.000000 0.075307 0.000000 0.006323
# 5 0.000480 -0.000587 -0.004433 0.000000 0.030221 0.000000
# 6 0.000000 0.000000 0.000000 0.006323 0.000000 0.028449
#
#
# Mechanical properties :
#
#
# Convention : Reuss Voigt Hill
#
# Bulk Modulus (GPa) = 28.49044 39.98419 34.23732
# Shear Modulus (GPa) = 22.04558 28.68425 25.36491
#
# Velocity S-wave (km/s) = 3.18721 3.63556 3.41874
# Velocity P-wave (km/s) = 5.16453 6.00393 5.59998
#
# Compressibility (1/GPa) = 0.03509949
#
# Stress axis : x y z
#
# Youngs Moduli (GPa) = 122.47786 38.22121 42.04387
#
# Poissons Ratio (x) = 0.04585 0.20870
# Poissons Ratio (y) = 0.14693 0.22465
# Poissons Ratio (z) = 0.60795 0.20423
#
# Static dielectric constant tensor:
#      x y z
#    x 1.954680 0.000000 -0.047130 
#    y 0.000000 1.824100 0.000000 
#    z -0.047130 0.000000 1.936050 
# 
# From -- ./inp_files/50144.got.cif
#   From: 2010.05.17/outbox.cif.g08.bks.cpg/sg15_26_cif.got.tgz:50144.got - 2010.06.03 18:47:42.
