data_PCOD9261838
_publ_section_title
;
Structure prediction by ZEFSAII (Michael W. Deem and Ramdas Pophale) SiO2 
 PCOD9261838
Probable space group: C 2/C
;
_chemical_formula_sum "Si O2"
_cell_formula_units_Z 48
_cell_length_a 22.310866
_cell_length_b 11.021805
_cell_length_c 12.850912
_cell_angle_alpha 90.000000
_cell_angle_beta 131.014672
_cell_angle_gamma 90.000000
_cell_volume 2384.439258
_symmetry_space_group_name_H-M "C 2/C"
_symmetry_group_IT_number 15
_symmetry_cell_setting 'monoclinic'
loop_
_space_group_symop_operation_xyz
x,y,z
-x,y,1/2-z
-x,-y,-z
x,-y,1/2+z
1/2+x,1/2+y,z
1/2-x,1/2+y,1/2-z
1/2-x,1/2-y,-z
1/2+x,1/2-y,1/2+z
loop_
_atom_site_type_symbol
_atom_site_label
_atom_site_fract_x
_atom_site_fract_y
_atom_site_fract_z
Si Si1 0.362495 0.203578 0.381288
Si Si2 0.239334 0.370844 0.923946
Si Si3 0.022830 0.369338 0.976548
Si Si4 0.105059 0.510108 0.901104
Si Si5 0.366929 0.204961 0.719878
Si Si6 0.816321 0.111582 0.994701
O O1 0.291480 0.168431 0.224166
O O2 0.441805 0.203539 0.401585
O O3 0.354760 0.327518 0.436857
O O4 0.365048 0.096470 0.470805
O O5 0.172675 0.441433 0.914522
O O6 0.310849 0.466937 0.994503
O O7 0.250000 0.250000 0.000000
O O8 0.051900 0.408598 0.896200
O O9 0.092470 0.303527 0.121465
O O10 0.000000 0.500000 0.000000
O O11 0.079107 0.611154 0.786708
O O12 0.275975 0.157177 0.618479
O O13 0.357862 0.328574 0.643565
#
# Coordination Sequence:
#
# PCOD9261838 Si02
#       6
#     8   8   8   8   8   8
#     4  10  22  35  59  89 118 155 197 250 312 355
#     4  11  24  37  58  87 112 158 201 250 301 349
#     4  10  19  31  56  92 121 154 198 254 301 355
#     4   9  18  34  54  84 119 150 189 247 289 350
#     4   9  18  33  58  83 117 163 195 241 306 345
#     4   9  19  38  56  84 118 153 202 246 294 374
#
# _framework density 20.130519
#
# number of rings (size 3 to 8) (size 9 to 14) (size 15 to 20)
#    0.000    2.333    0.000    5.000    4.667    9.333 
#    0.000    0.000    0.000    6.000    0.000    0.000 
#    0.000    0.000    0.000    0.000    0.000    0.000 
#
# Total GULP energy -133695.778817 kJ/mol
# GULP energy per Si atom -5570.657451 kJ/mol
# Density = 2.008470 g / cm^3
# Si number density = 20.130519 Si / 1000 Ang^3
#
#
#
# Elastic Constant Matrix: (Units=GPa)
#
#
# Indices 1 2 3 4 5 6 
#
# 1 61.4519 20.9827 -8.1852 0.0000 -12.6674 0.0000
# 2 20.9827 117.0316 40.0866 0.0000 -5.3085 0.0000
# 3 -8.1852 40.0866 112.5179 0.0000 -13.0066 0.0000
# 4 0.0000 0.0000 0.0000 16.5048 0.0000 -0.4152
# 5 -12.6674 -5.3085 -13.0066 0.0000 25.9408 0.0000
# 6 0.0000 0.0000 0.0000 -0.4152 0.0000 31.3474
#
#
#
# Elastic Compliance Matrix: (Units=1/GPa)
#
#
# Indices 1 2 3 4 5 6 
#
# 1 0.020883 -0.004782 0.004552 0.000000 0.011501 0.000000
# 2 -0.004782 0.010829 -0.004479 0.000000 -0.002365 0.000000
# 3 0.004552 -0.004479 0.011640 0.000000 0.007143 0.000000
# 4 0.000000 0.000000 0.000000 0.060609 0.000000 0.000803
# 5 0.011501 -0.002365 0.007143 0.000000 0.047263 0.000000
# 6 0.000000 0.000000 0.000000 0.000803 0.000000 0.031911
#
#
# Mechanical properties :
#
#
# Convention : Reuss Voigt Hill
#
# Bulk Modulus (GPa) = 29.46857 44.08553 36.77705
# Shear Modulus (GPa) = 24.52620 30.63309 27.57964
#
# Velocity S-wave (km/s) = 3.49429 3.90516 3.70542
# Velocity P-wave (km/s) = 5.56333 6.50239 6.05110
#
# Compressibility (1/GPa) = 0.03393446
#
# Stress axis : x y z
#
# Youngs Moduli (GPa) = 47.88641 92.34461 85.90995
#
# Poissons Ratio (x) = 0.44156 -0.39108
# Poissons Ratio (y) = 0.22898 0.38481
# Poissons Ratio (z) = -0.21799 0.41363
#
# Static dielectric constant tensor:
#      x y z
#    x 1.793270 0.000000 0.025240 
#    y 0.000000 1.747760 0.000000 
#    z 0.025240 0.000000 1.731940 
# 
# From -- ./inp_files/110858.got.cif
#   From: 2010.05.17/outbox.cif.g08.bks.cpg/sg15_56_cif.got.tgz:110858.got - 2010.06.03 18:47:42.
