data_PCOD9261463
_publ_section_title
;
Structure prediction by ZEFSAII (Michael W. Deem and Ramdas Pophale) SiO2 
 PCOD9261463
Probable space group: C 2/C
;
_chemical_formula_sum "Si O2"
_cell_formula_units_Z 64
_cell_length_a 27.718325
_cell_length_b 23.785939
_cell_length_c 18.285497
_cell_angle_alpha 90.000000
_cell_angle_beta 19.260417
_cell_angle_gamma 90.000000
_cell_volume 3976.735591
_symmetry_space_group_name_H-M "C 2/C"
_symmetry_group_IT_number 15
_symmetry_cell_setting 'monoclinic'
loop_
_space_group_symop_operation_xyz
x,y,z
-x,y,1/2-z
-x,-y,-z
x,-y,1/2+z
1/2+x,1/2+y,z
1/2-x,1/2+y,1/2-z
1/2-x,1/2-y,-z
1/2+x,1/2-y,1/2+z
loop_
_atom_site_type_symbol
_atom_site_label
_atom_site_fract_x
_atom_site_fract_y
_atom_site_fract_z
Si Si1 0.257136 0.913454 0.697375
Si Si2 0.828729 0.437548 0.205730
Si Si3 0.691339 0.676335 0.912634
Si Si4 0.126488 0.153621 0.175160
Si Si5 0.541345 0.020726 0.827000
Si Si6 0.823242 0.299721 0.518860
Si Si7 0.818316 0.969998 0.840513
Si Si8 0.066020 0.024853 0.574102
O O1 0.421160 0.934436 0.475142
O O2 0.273460 0.851965 0.640145
O O3 0.187096 0.955251 0.736951
O O4 0.163625 0.923430 0.904534
O O5 0.804886 0.371631 0.226044
O O6 0.878920 0.453754 0.215840
O O7 0.676004 0.471240 0.414646
O O8 0.951277 0.465636 0.979224
O O9 0.723711 0.742139 0.874415
O O10 0.660865 0.659084 0.040541
O O11 0.543560 0.670409 0.076568
O O12 0.235126 0.190690 0.069281
O O13 0.147915 0.089655 0.169127
O O14 0.659019 0.011471 0.595884
O O15 0.000000 0.298854 0.250000
O O16 0.935465 0.013042 0.704438
O O17 0.000000 0.031008 0.750000
#
# Coordination Sequence:
#
# PCOD9261463 Si02
#       8
#     8   8   8   8   8   8   8   8
#     4  10  23  33  46  76 105 136 163 210 260 305
#     4  10  20  31  49  79  99 133 171 214 246 307
#     4  11  19  31  50  70 102 142 170 206 246 305
#     4  10  19  30  47  73  99 135 173 196 252 302
#     4  10  19  32  50  72 109 129 168 206 260 299
#     4  11  22  32  47  72 108 139 169 206 255 309
#     4  11  18  33  53  73 105 132 165 208 256 309
#     4  11  19  34  54  73  99 130 174 212 254 307
#
# _framework density 16.093602000000001
#
# number of rings (size 3 to 8) (size 9 to 14) (size 15 to 20)
#    0.000    1.500    5.000    2.625    0.000    0.000 
#    0.000    0.000    0.000    0.000    0.000    4.375 
#    0.000    0.000    0.000    0.000    0.000    0.000 
#
# Total GULP energy -178393.272215 kJ/mol
# GULP energy per Si atom -5574.789757 kJ/mol
# Density = 1.605697 g / cm^3
# Si number density = 16.093602 Si / 1000 Ang^3
#
#
#
# Elastic Constant Matrix: (Units=GPa)
#
#
# Indices 1 2 3 4 5 6 
#
# 1 42.6924 14.3571 27.0278 0.0021 -4.2888 -0.0072
# 2 14.3571 77.5489 36.7098 0.0026 2.7863 -0.0052
# 3 27.0278 36.7098 85.5030 0.0008 -0.8759 -0.0060
# 4 0.0021 0.0026 0.0008 13.4904 0.0007 0.4821
# 5 -4.2888 2.7863 -0.8759 0.0007 26.9670 0.0051
# 6 -0.0072 -0.0052 -0.0060 0.4821 0.0051 15.2936
#
#
#
# Elastic Compliance Matrix: (Units=1/GPa)
#
#
# Indices 1 2 3 4 5 6 
#
# 1 0.029956 -0.001572 -0.008747 -0.000004 0.004643 0.000009
# 2 -0.001572 0.016365 -0.006551 -0.000003 -0.002154 0.000003
# 3 -0.008747 -0.006551 0.017271 0.000002 -0.000153 0.000000
# 4 -0.000004 -0.000003 0.000002 0.074210 -0.000002 -0.002340
# 5 0.004643 -0.002154 -0.000153 -0.000002 0.038038 -0.000011
# 6 0.000009 0.000003 0.000000 -0.002340 -0.000011 0.065461
#
#
# Mechanical properties :
#
#
# Convention : Reuss Voigt Hill
#
# Bulk Modulus (GPa) = 33.49853 40.21486 36.85669
# Shear Modulus (GPa) = 17.54440 19.66018 18.60229
#
# Velocity S-wave (km/s) = 3.30532 3.49895 3.40351
# Velocity P-wave (km/s) = 5.95205 6.43163 6.19648
#
# Compressibility (1/GPa) = 0.02985205
#
# Stress axis : x y z
#
# Youngs Moduli (GPa) = 33.38261 61.10720 57.89931
#
# Poissons Ratio (x) = 0.09608 0.50642
# Poissons Ratio (y) = 0.05249 0.37930
# Poissons Ratio (z) = 0.29198 0.40032
#
# Static dielectric constant tensor:
#      x y z
#    x 1.558730 0.000000 -0.018900 
#    y 0.000000 1.544860 0.000000 
#    z -0.018900 0.000000 1.548050 
# 
# From -- ./inp_files/223222.got.cif
#   From: 2010.05.17/outbox.cif.g08.bks.cpg/sg15_112_cif.got.tgz:223222.got - 2010.06.03 18:47:42.
