data_PCOD9261029
_publ_section_title
;
Structure prediction by ZEFSAII (Michael W. Deem and Ramdas Pophale) SiO2 
 PCOD9261029
Probable space group: C 2/C
;
_chemical_formula_sum "Si O2"
_cell_formula_units_Z 56
_cell_length_a 6.354080
_cell_length_b 22.724017
_cell_length_c 18.613129
_cell_angle_alpha 90.000000
_cell_angle_beta 113.217091
_cell_angle_gamma 90.000000
_cell_volume 2469.909773
_symmetry_space_group_name_H-M "C 2/C"
_symmetry_group_IT_number 15
_symmetry_cell_setting 'monoclinic'
loop_
_space_group_symop_operation_xyz
x,y,z
-x,y,1/2-z
-x,-y,-z
x,-y,1/2+z
1/2+x,1/2+y,z
1/2-x,1/2+y,1/2-z
1/2-x,1/2-y,-z
1/2+x,1/2-y,1/2+z
loop_
_atom_site_type_symbol
_atom_site_label
_atom_site_fract_x
_atom_site_fract_y
_atom_site_fract_z
Si Si1 0.203820 0.221172 0.328071
Si Si2 0.525020 0.428054 0.169980
Si Si3 0.918481 0.171158 0.939437
Si Si4 0.900780 0.516932 0.388370
Si Si5 0.000000 0.653354 0.250000
Si Si6 0.300148 0.080066 0.503892
Si Si7 0.416918 0.360514 0.898300
Si Si8 0.500000 0.006211 0.750000
O O1 0.334689 0.270200 0.391018
O O2 0.374381 0.191414 0.294609
O O3 0.000000 0.246560 0.250000
O O4 0.087182 0.174698 0.367379
O O5 0.500000 0.408270 0.250000
O O6 0.498574 0.375569 0.109198
O O7 0.329902 0.477786 0.130978
O O8 0.781140 0.454167 0.199109
O O9 0.699356 0.139720 0.950308
O O10 0.097147 0.177332 0.029844
O O11 0.919197 0.572668 0.442845
O O12 0.911070 0.529407 0.306331
O O13 0.104855 0.473596 0.438659
O O14 0.796893 0.624254 0.178083
O O15 0.033915 0.080639 0.445399
#
# Coordination Sequence:
#
# PCOD9261029 Si02
#       8
#     8   8   8   8   4   8   8   4
#     4  10  22  39  62  90 126 163 207 266 317 379
#     4  10  22  35  61  93 127 160 205 258 314 376
#     4  10  21  39  63  93 123 169 203 263 322 376
#     4  10  20  40  61  91 126 164 213 260 313 373
#     4  10  22  42  63  88 130 168 212 267 314 380
#     4   9  21  40  63  88 124 165 209 259 311 374
#     4   9  21  43  61  91 125 168 212 262 315 377
#     4  10  18  40  57  86 128 164 204 261 306 370
#
# _framework density 22.672892999999998
#
# number of rings (size 3 to 8) (size 9 to 14) (size 15 to 20)
#    0.857    1.429    1.429    0.429    2.000    2.286 
#    2.571    7.857    0.000    0.000    0.000    0.000 
#    0.000    0.000    0.000    0.000    0.000    0.000 
#
# Total GULP energy -156063.694773 kJ/mol
# GULP energy per Si atom -5573.703385 kJ/mol
# Density = 2.262129 g / cm^3
# Si number density = 22.672893 Si / 1000 Ang^3
#
#
#
# Elastic Constant Matrix: (Units=GPa)
#
#
# Indices 1 2 3 4 5 6 
#
# 1 86.1372 33.3433 51.5683 0.0000 2.8419 0.0000
# 2 33.3433 43.1673 32.0913 0.0000 23.6154 0.0000
# 3 51.5683 32.0913 167.1456 0.0000 3.0537 0.0000
# 4 0.0000 0.0000 0.0000 -10.3775 0.0000 11.3787
# 5 2.8419 23.6154 3.0537 0.0000 43.1966 0.0000
# 6 0.0000 0.0000 0.0000 11.3787 0.0000 22.4522
#
#
#
# Elastic Compliance Matrix: (Units=1/GPa)
#
#
# Indices 1 2 3 4 5 6 
#
# 1 0.020085 -0.018228 -0.002859 0.000000 0.008846 0.000000
# 2 -0.018228 0.057009 -0.004780 0.000000 -0.029629 0.000000
# 3 -0.002859 -0.004780 0.007741 0.000000 0.002254 0.000000
# 4 0.000000 0.000000 0.000000 -0.061942 0.000000 0.031392
# 5 0.008846 -0.029629 0.002254 0.000000 0.038607 0.000000
# 6 0.000000 0.000000 0.000000 0.031392 0.000000 0.028630
#
#
# Mechanical properties :
#
#
# Convention : Reuss Voigt Hill
#
# Bulk Modulus (GPa) = 30.21092 58.93954 44.57523
# Shear Modulus (GPa) = 32.70161 23.01739 27.85950
#
# Velocity S-wave (km/s) = 3.80191 3.18967 3.50917
# Velocity P-wave (km/s) = 5.71195 6.29423 6.01014
#
# Compressibility (1/GPa) = 0.03310062
#
# Stress axis : x y z
#
# Youngs Moduli (GPa) = 49.78836 17.54120 129.17685
#
# Poissons Ratio (x) = 0.31975 0.36926
# Poissons Ratio (y) = 0.90757 0.61749
# Poissons Ratio (z) = 0.14232 0.08385
#
# Static dielectric constant tensor:
#      x y z
#    x 1.893610 0.000000 -0.016850 
#    y 0.000000 1.833170 0.000000 
#    z -0.016850 0.000000 1.866410 
# 
# From -- ./inp_files/228195.got.cif
#   From: 2010.05.17/outbox.cif.g08.bks.cpg/sg15_115_cif.got.tgz:228195.got - 2010.06.03 18:47:42.
