data_PCOD9261430
_publ_section_title
;
Structure prediction by ZEFSAII (Michael W. Deem and Ramdas Pophale) SiO2 
 PCOD9261430
Probable space group: C 2/C
;
_chemical_formula_sum "Si O2"
_cell_formula_units_Z 64
_cell_length_a 26.706556
_cell_length_b 18.878760
_cell_length_c 8.711871
_cell_angle_alpha 90.000000
_cell_angle_beta 89.996380
_cell_angle_gamma 90.000000
_cell_volume 4392.409143
_symmetry_space_group_name_H-M "C 2/C"
_symmetry_group_IT_number 15
_symmetry_cell_setting 'monoclinic'
loop_
_space_group_symop_operation_xyz
x,y,z
-x,y,1/2-z
-x,-y,-z
x,-y,1/2+z
1/2+x,1/2+y,z
1/2-x,1/2+y,1/2-z
1/2-x,1/2-y,-z
1/2+x,1/2-y,1/2+z
loop_
_atom_site_type_symbol
_atom_site_label
_atom_site_fract_x
_atom_site_fract_y
_atom_site_fract_z
Si Si1 0.352649 0.841213 0.818214
Si Si2 0.195925 0.210736 0.176566
Si Si3 0.695949 0.289312 0.323375
Si Si4 0.755685 0.421717 0.685304
Si Si5 0.554691 0.922217 0.183505
Si Si6 0.255696 0.921770 0.314776
Si Si7 0.445306 0.077894 0.183598
Si Si8 0.352667 0.158718 0.681836
O O1 0.339711 0.759911 0.776854
O O2 0.306730 0.888206 0.752366
O O3 0.403148 0.867997 0.739076
O O4 0.355653 0.850884 0.000014
O O5 0.249985 0.250031 0.176719
O O6 0.210196 0.131567 0.227340
O O7 0.160246 0.259982 0.276696
O O8 0.178262 0.210047 0.999963
O O9 0.710213 0.368492 0.272672
O O10 0.759375 0.422011 0.500040
O O11 0.748840 0.499967 0.750085
O O12 0.500000 0.904149 0.250000
O O13 0.596838 0.868122 0.239112
O O14 0.567595 0.000072 0.249853
O O15 0.552680 0.925845 0.999949
O O16 0.306744 0.888281 0.247666
O O17 0.500000 0.096004 0.250000
#
# Coordination Sequence:
#
# PCOD9261430 Si02
#       8
#     8   8   8   8   8   8   8   8
#     4  11  20  30  45  64  86 115 149 180 215 257
#     4   8  16  30  44  60  84 113 143 178 217 254
#     4   8  16  30  44  60  84 113 143 178 217 254
#     4  10  19  30  44  63  88 116 147 181 217 256
#     4  11  21  34  48  64  87 113 145 182 219 255
#     4  10  19  30  44  63  88 116 147 181 217 256
#     4  11  21  34  48  64  87 113 145 182 219 255
#     4  11  20  30  45  64  86 115 149 180 215 257
#
# _framework density 14.570591
#
# number of rings (size 3 to 8) (size 9 to 14) (size 15 to 20)
#    0.000    2.000    0.000    8.250    0.000    5.500 
#    0.000    0.000    0.000    0.000    0.000    0.000 
#    0.000    1.000    0.000   10.500    0.000    5.750 
#
# Total GULP energy -178494.429875 kJ/mol
# GULP energy per Si atom -5577.950934 kJ/mol
# Density = 1.453743 g / cm^3
# Si number density = 14.570591 Si / 1000 Ang^3
#
#
#
# Elastic Constant Matrix: (Units=GPa)
#
#
# Indices 1 2 3 4 5 6 
#
# 1 65.5709 43.1043 44.9291 0.0000 0.1569 0.0000
# 2 43.1043 107.1179 44.9966 0.0000 0.1489 0.0000
# 3 44.9291 44.9966 118.2367 0.0000 0.2887 0.0000
# 4 0.0000 0.0000 0.0000 45.5295 0.0000 -0.0509
# 5 0.1569 0.1489 0.2887 0.0000 13.7961 0.0000
# 6 0.0000 0.0000 0.0000 -0.0509 0.0000 21.4537
#
#
#
# Elastic Compliance Matrix: (Units=1/GPa)
#
#
# Indices 1 2 3 4 5 6 
#
# 1 0.024400 -0.007051 -0.006588 0.000000 -0.000064 0.000000
# 2 -0.007051 0.013149 -0.002325 0.000000 -0.000013 0.000000
# 3 -0.006588 -0.002325 0.011846 0.000000 -0.000148 0.000000
# 4 0.000000 0.000000 0.000000 0.021964 0.000000 0.000052
# 5 -0.000064 -0.000013 -0.000148 0.000000 0.072488 0.000000
# 6 0.000000 0.000000 0.000000 0.000052 0.000000 0.046612
#
#
# Mechanical properties :
#
#
# Convention : Reuss Voigt Hill
#
# Bulk Modulus (GPa) = 57.24928 61.88728 59.56828
# Shear Modulus (GPa) = 21.90951 26.68223 24.29587
#
# Velocity S-wave (km/s) = 3.88194 4.28394 4.08788
# Velocity P-wave (km/s) = 7.71161 8.18754 7.95313
#
# Compressibility (1/GPa) = 0.01746747
#
# Stress axis : x y z
#
# Youngs Moduli (GPa) = 40.98296 76.04878 84.41463
#
# Poissons Ratio (x) = 0.53622 0.55616
# Poissons Ratio (y) = 0.28897 0.19625
# Poissons Ratio (z) = 0.27001 0.17680
#
# Static dielectric constant tensor:
#      x y z
#    x 1.458460 0.000000 -0.000010 
#    y 0.000000 1.498340 0.000000 
#    z -0.000010 0.000000 1.486130 
# 
# From -- ./inp_files/66720.got.cif
#   From: 2010.05.17/outbox.cif.g08.bks.cpg/sg15_34_cif.got.tgz:66720.got - 2010.06.03 18:47:42.
