data_PCOD9261565
_publ_section_title
;
Structure prediction by ZEFSAII (Michael W. Deem and Ramdas Pophale) SiO2 
 PCOD9261565
Probable space group: C 2/C
;
_chemical_formula_sum "Si O2"
_cell_formula_units_Z 64
_cell_length_a 8.968291
_cell_length_b 20.629977
_cell_length_c 22.276397
_cell_angle_alpha 90.000000
_cell_angle_beta 66.259445
_cell_angle_gamma 90.000000
_cell_volume 3772.713166
_symmetry_space_group_name_H-M "C 2/C"
_symmetry_group_IT_number 15
_symmetry_cell_setting 'monoclinic'
loop_
_space_group_symop_operation_xyz
x,y,z
-x,y,1/2-z
-x,-y,-z
x,-y,1/2+z
1/2+x,1/2+y,z
1/2-x,1/2+y,1/2-z
1/2-x,1/2-y,-z
1/2+x,1/2-y,1/2+z
loop_
_atom_site_type_symbol
_atom_site_label
_atom_site_fract_x
_atom_site_fract_y
_atom_site_fract_z
Si Si1 0.858476 0.582134 0.320827
Si Si2 0.500127 0.582133 0.179174
Si Si3 0.735762 0.803874 0.585132
Si Si4 0.124071 0.660452 0.553815
Si Si5 0.251997 0.974238 0.427685
Si Si6 0.392639 0.474237 0.427684
Si Si7 0.268299 0.160452 0.553814
Si Si8 0.406031 0.696125 0.414870
O O1 0.684854 0.580509 0.315147
O O2 0.866856 0.650692 0.354258
O O3 0.850749 0.525945 0.372258
O O4 0.000000 0.573643 0.250000
O O5 0.500000 0.573646 0.250000
O O6 0.595259 0.525942 0.127744
O O7 0.575372 0.650691 0.145739
O O8 0.722595 0.829622 0.519466
O O9 0.695008 0.727687 0.591240
O O10 0.924614 0.810136 0.575382
O O11 0.167112 0.596083 0.582980
O O12 0.261532 0.670378 0.480536
O O13 0.122506 0.727688 0.591241
O O14 0.948830 0.653760 0.551170
O O15 0.072202 0.968925 0.427800
O O16 0.224057 0.000000 0.500001
O O17 0.333076 0.403916 0.417021
#
# Coordination Sequence:
#
# PCOD9261565 Si02
#       8
#     8   8   8   8   8   8   8   8
#     4  10  21  37  56  76 104 144 181 218 265 323
#     4  10  21  37  56  76 104 144 181 218 265 323
#     4   9  18  35  53  74 107 143 173 210 269 324
#     4  10  19  30  53  84 108 131 173 229 263 301
#     4  10  19  35  56  76 106 146 178 213 269 327
#     4  10  19  35  56  76 106 146 178 213 269 327
#     4  10  19  30  53  84 108 131 173 229 263 301
#     4   9  18  35  53  74 107 143 173 210 269 324
#
# _framework density 16.963919000000001
#
# number of rings (size 3 to 8) (size 9 to 14) (size 15 to 20)
#    0.000    2.250    2.500    0.750    0.000    3.500 
#    0.000    1.250    0.000    6.000    0.000    0.000 
#    0.000    0.000    0.000    0.000    0.000    0.000 
#
# Total GULP energy -178491.744275 kJ/mol
# GULP energy per Si atom -5577.867009 kJ/mol
# Density = 1.692531 g / cm^3
# Si number density = 16.963919 Si / 1000 Ang^3
#
#
#
# Elastic Constant Matrix: (Units=GPa)
#
#
# Indices 1 2 3 4 5 6 
#
# 1 16.1193 44.4898 33.7202 0.0000 2.8981 0.0000
# 2 44.4898 163.7683 89.5364 0.0000 1.7531 0.0000
# 3 33.7202 89.5364 130.7968 0.0000 1.5625 0.0000
# 4 0.0000 0.0000 0.0000 23.6563 0.0000 -0.3244
# 5 2.8981 1.7531 1.5625 0.0000 28.4142 0.0000
# 6 0.0000 0.0000 0.0000 -0.3244 0.0000 32.0005
#
#
#
# Elastic Compliance Matrix: (Units=1/GPa)
#
#
# Indices 1 2 3 4 5 6 
#
# 1 0.362409 -0.075505 -0.041386 0.000000 -0.030030 0.000000
# 2 -0.075505 0.025491 0.001944 0.000000 0.006021 0.000000
# 3 -0.041386 0.001944 0.016946 0.000000 0.003169 0.000000
# 4 0.000000 0.000000 0.000000 0.042278 0.000000 0.000429
# 5 -0.030030 0.006021 0.003169 0.000000 0.037711 0.000000
# 6 0.000000 0.000000 0.000000 0.000429 0.000000 0.031254
#
#
# Mechanical properties :
#
#
# Convention : Reuss Voigt Hill
#
# Bulk Modulus (GPa) = 5.71584 71.79745 38.75664
# Shear Modulus (GPa) = 6.21659 26.34338 16.27999
#
# Velocity S-wave (km/s) = 1.91639 3.94497 3.10124
# Velocity P-wave (km/s) = 2.87636 7.94770 5.97659
#
# Compressibility (1/GPa) = 0.17495255
#
# Stress axis : x y z
#
# Youngs Moduli (GPa) = 2.75931 39.22987 59.01011
#
# Poissons Ratio (x) = 2.96205 2.44218
# Poissons Ratio (y) = 0.20834 -0.11472
# Poissons Ratio (z) = 0.11420 -0.07627
#
# Static dielectric constant tensor:
#      x y z
#    x 1.569150 0.000000 -0.001180 
#    y 0.000000 1.591990 0.000000 
#    z -0.001180 0.000000 1.538690 
# 
# From -- ./inp_files/233827.got.cif
#   From: 2010.05.17/outbox.cif.g08.bks.cpg/sg15_117_cif.got.tgz:233827.got - 2010.06.03 18:47:42.
