data_PCOD9261549
_publ_section_title
;
Structure prediction by ZEFSAII (Michael W. Deem and Ramdas Pophale) SiO2 
 PCOD9261549
Probable space group: C 2/C
;
_chemical_formula_sum "Si O2"
_cell_formula_units_Z 48
_cell_length_a 8.706588
_cell_length_b 12.674190
_cell_length_c 20.884694
_cell_angle_alpha 90.000000
_cell_angle_beta 130.118442
_cell_angle_gamma 90.000000
_cell_volume 1762.363074
_symmetry_space_group_name_H-M "C 2/C"
_symmetry_group_IT_number 15
_symmetry_cell_setting 'monoclinic'
loop_
_space_group_symop_operation_xyz
x,y,z
-x,y,1/2-z
-x,-y,-z
x,-y,1/2+z
1/2+x,1/2+y,z
1/2-x,1/2+y,1/2-z
1/2-x,1/2-y,-z
1/2+x,1/2-y,1/2+z
loop_
_atom_site_type_symbol
_atom_site_label
_atom_site_fract_x
_atom_site_fract_y
_atom_site_fract_z
Si Si1 0.811382 0.139478 0.965202
Si Si2 0.165971 0.150415 0.892748
Si Si3 0.500000 0.016941 0.250000
Si Si4 0.000000 0.165937 0.250000
Si Si5 0.387330 0.159709 0.824032
Si Si6 0.549486 0.170491 0.084094
Si Si7 0.405182 0.473214 0.878465
O O1 0.582900 0.145841 0.920339
O O2 0.880032 0.240694 0.946151
O O3 0.846717 0.046072 0.923553
O O4 0.937353 0.112985 0.060174
O O5 0.220228 0.159598 0.832992
O O6 0.060939 0.258684 0.890266
O O7 0.006200 0.055410 0.857813
O O8 0.355444 0.120754 0.992745
O O9 0.583937 0.938730 0.217274
O O10 0.303814 0.084137 0.188219
O O11 0.924557 0.241558 0.287236
O O12 0.770356 0.120378 0.166550
#
# Coordination Sequence:
#
# PCOD9261549 Si02
#       7
#     8   8   4   4   8   8   8
#     4   8  16  31  50  69  97 135 171 205 260 325
#     4  10  19  30  52  79 104 133 179 226 267 319
#     4   9  18  32  52  76 102 136 180 221 260 319
#     4   9  18  32  50  72 100 136 176 213 266 329
#     4   9  17  30  51  74  98 133 174 217 264 318
#     4   9  19  34  51  76 105 139 180 222 267 321
#     4   9  17  31  51  73  99 134 174 215 259 314
#
# _framework density 27.236156999999999
#
# number of rings (size 3 to 8) (size 9 to 14) (size 15 to 20)
#    0.000    3.000    0.000    3.000    0.000    6.000 
#    0.000    0.000    0.000   22.000    0.000    7.000 
#    0.000    0.000    0.000    0.000    0.000    0.000 
#
# Total GULP energy -133869.147611 kJ/mol
# GULP energy per Si atom -5577.881150 kJ/mol
# Density = 2.717417 g / cm^3
# Si number density = 27.236157 Si / 1000 Ang^3
#
#
#
# Elastic Constant Matrix: (Units=GPa)
#
#
# Indices 1 2 3 4 5 6 
#
# 1 197.0127 32.9955 91.7543 0.0000 -9.5794 0.0000
# 2 32.9955 34.8882 23.9626 0.0000 -3.4744 0.0000
# 3 91.7543 23.9626 133.5541 0.0000 38.4373 0.0000
# 4 0.0000 0.0000 0.0000 21.9281 0.0000 -13.8979
# 5 -9.5794 -3.4744 38.4373 0.0000 78.6139 0.0000
# 6 0.0000 0.0000 0.0000 -13.8979 0.0000 23.9316
#
#
#
# Elastic Compliance Matrix: (Units=1/GPa)
#
#
# Indices 1 2 3 4 5 6 
#
# 1 0.009039 -0.003432 -0.006829 0.000000 0.004289 0.000000
# 2 -0.003432 0.035790 -0.005119 0.000000 0.003666 0.000000
# 3 -0.006829 -0.005119 0.015597 0.000000 -0.008684 0.000000
# 4 0.000000 0.000000 0.000000 0.072165 0.000000 0.041909
# 5 0.004289 0.003666 -0.008684 0.000000 0.017651 0.000000
# 6 0.000000 0.000000 0.000000 0.041909 0.000000 0.066123
#
#
# Mechanical properties :
#
#
# Convention : Reuss Voigt Hill
#
# Bulk Modulus (GPa) = 33.70767 73.65333 53.68050
# Shear Modulus (GPa) = 19.45420 39.34423 29.39922
#
# Velocity S-wave (km/s) = 2.67550 3.80486 3.28902
# Velocity P-wave (km/s) = 4.68480 6.81203 5.84599
#
# Compressibility (1/GPa) = 0.02966684
#
# Stress axis : x y z
#
# Youngs Moduli (GPa) = 110.62575 27.94114 64.11470
#
# Poissons Ratio (x) = 0.09588 0.43783
# Poissons Ratio (y) = 0.37963 0.32821
# Poissons Ratio (z) = 0.75545 0.14303
#
# Static dielectric constant tensor:
#      x y z
#    x 2.063720 0.000000 0.007660 
#    y 0.000000 2.140520 0.000000 
#    z 0.007660 0.000000 2.493750 
# 
# From -- ./inp_files/232904.got.cif
#   From: 2010.05.17/outbox.cif.g08.bks.cpg/sg15_117_cif.got.tgz:232904.got - 2010.06.03 18:47:42.
