data_PCOD9261970
_publ_section_title
;
Structure prediction by ZEFSAII (Michael W. Deem and Ramdas Pophale) SiO2 
 PCOD9261970
Probable space group: C 2/C
;
_chemical_formula_sum "Si O2"
_cell_formula_units_Z 40
_cell_length_a 8.958745
_cell_length_b 24.756441
_cell_length_c 19.676616
_cell_angle_alpha 90.000000
_cell_angle_beta 31.102681
_cell_angle_gamma 90.000000
_cell_volume 2254.331766
_symmetry_space_group_name_H-M "C 2/C"
_symmetry_group_IT_number 15
_symmetry_cell_setting 'monoclinic'
loop_
_space_group_symop_operation_xyz
x,y,z
-x,y,1/2-z
-x,-y,-z
x,-y,1/2+z
1/2+x,1/2+y,z
1/2-x,1/2+y,1/2-z
1/2-x,1/2-y,-z
1/2+x,1/2-y,1/2+z
loop_
_atom_site_type_symbol
_atom_site_label
_atom_site_fract_x
_atom_site_fract_y
_atom_site_fract_z
Si Si1 0.638618 0.117995 0.769803
Si Si2 0.816845 0.723650 0.658218
Si Si3 0.716242 0.928118 0.966747
Si Si4 0.103158 0.187088 0.134464
Si Si5 0.637995 0.546487 0.620759
O O1 0.500000 0.119413 0.750000
O O2 0.675316 0.177474 0.786993
O O3 0.945460 0.087609 0.653008
O O4 0.434080 0.086100 0.902982
O O5 0.500000 0.725661 0.750000
O O6 0.916873 0.779612 0.652564
O O7 0.064457 0.705165 0.508412
O O8 0.911936 0.877077 0.871946
O O9 0.860781 0.986692 0.910776
O O10 0.462642 0.933247 0.008706
O O11 0.000000 0.200328 0.250000
O O12 0.500000 0.543443 0.750000
#
# Coordination Sequence:
#
# PCOD9261970 Si02
#       5
#     8   8   8   8   8
#     4  10  19  32  51  74 102 137 177 219 262 312
#     4  10  21  38  56  77 106 143 182 215 263 327
#     4   9  18  33  52  76 104 135 174 217 262 313
#     4  10  20  35  56  81 108 136 174 226 268 306
#     4   9  17  32  54  75 100 138 177 211 258 321
#
# _framework density 17.743617
#
# number of rings (size 3 to 8) (size 9 to 14) (size 15 to 20)
#    0.000    2.400    0.000    4.200    0.000    1.600 
#    0.000    7.000    0.000    0.000    0.000    0.000 
#    0.000    0.000    0.000    0.000    0.000    0.000 
#
# Total GULP energy -111573.103309 kJ/mol
# GULP energy per Si atom -5578.655165 kJ/mol
# Density = 1.770323 g / cm^3
# Si number density = 17.743617 Si / 1000 Ang^3
#
#
#
# Elastic Constant Matrix: (Units=GPa)
#
#
# Indices 1 2 3 4 5 6 
#
# 1 97.9387 46.4921 49.4226 -0.0038 -7.4293 -0.0008
# 2 46.4921 134.1519 32.7834 -0.0077 -10.2655 -0.0018
# 3 49.4226 32.7834 53.4559 0.0466 -8.7112 0.0244
# 4 -0.0038 -0.0077 0.0466 17.8695 0.0136 -6.0745
# 5 -7.4293 -10.2655 -8.7112 0.0136 20.3067 0.0113
# 6 -0.0008 -0.0018 0.0244 -6.0745 0.0113 14.6167
#
#
#
# Elastic Compliance Matrix: (Units=1/GPa)
#
#
# Indices 1 2 3 4 5 6 
#
# 1 0.020058 -0.002907 -0.016993 0.000068 -0.001421 0.000059
# 2 -0.002907 0.009290 -0.002599 0.000011 0.002518 0.000008
# 3 -0.016993 -0.002599 0.037400 -0.000154 0.008513 -0.000134
# 4 0.000068 0.000011 -0.000154 0.065169 -0.000094 0.027083
# 5 -0.001421 0.002518 0.008513 -0.000094 0.053649 -0.000095
# 6 0.000059 0.000008 -0.000134 0.027083 -0.000095 0.079671
#
#
# Mechanical properties :
#
#
# Convention : Reuss Voigt Hill
#
# Bulk Modulus (GPa) = 45.98128 60.32696 53.15412
# Shear Modulus (GPa) = 15.74880 21.01513 18.38197
#
# Velocity S-wave (km/s) = 2.98245 3.44521 3.22215
# Velocity P-wave (km/s) = 6.15065 7.06392 6.62305
#
# Compressibility (1/GPa) = 0.02174798
#
# Stress axis : x y z
#
# Youngs Moduli (GPa) = 49.85493 107.64761 26.73832
#
# Poissons Ratio (x) = 0.31298 0.45438
# Poissons Ratio (y) = 0.14495 0.06949
# Poissons Ratio (z) = 0.84721 0.27976
#
# Static dielectric constant tensor:
#      x y z
#    x 1.564590 0.000000 -0.004740 
#    y 0.000000 1.612820 0.000000 
#    z -0.004740 0.000000 1.630930 
# 
# From -- ./inp_files/23595.got.cif
#   From: 2010.05.17/outbox.cif.g08.bks.cpg/sg15_12_cif.got.tgz:23595.got - 2010.06.03 18:47:42.
