data_PCOD9261423
_publ_section_title
;
Structure prediction by ZEFSAII (Michael W. Deem and Ramdas Pophale) SiO2 
 PCOD9261423
Probable space group: C 2/C
;
_chemical_formula_sum "Si O2"
_cell_formula_units_Z 64
_cell_length_a 20.733726
_cell_length_b 22.123899
_cell_length_c 5.792350
_cell_angle_alpha 90.000000
_cell_angle_beta 77.954936
_cell_angle_gamma 90.000000
_cell_volume 2598.516428
_symmetry_space_group_name_H-M "C 2/C"
_symmetry_group_IT_number 15
_symmetry_cell_setting 'monoclinic'
loop_
_space_group_symop_operation_xyz
x,y,z
-x,y,1/2-z
-x,-y,-z
x,-y,1/2+z
1/2+x,1/2+y,z
1/2-x,1/2+y,1/2-z
1/2-x,1/2-y,-z
1/2+x,1/2-y,1/2+z
loop_
_atom_site_type_symbol
_atom_site_label
_atom_site_fract_x
_atom_site_fract_y
_atom_site_fract_z
Si Si1 0.646804 0.644631 0.269436
Si Si2 0.214580 0.512696 0.923399
Si Si3 0.472539 0.583014 0.016548
Si Si4 0.219729 0.690048 0.395103
Si Si5 0.869201 0.737955 0.409756
Si Si6 0.956476 0.207123 0.473086
Si Si7 0.606243 0.907798 0.015858
Si Si8 0.102663 0.391845 0.504111
O O1 0.606457 0.588090 0.401485
O O2 0.722758 0.640129 0.151953
O O3 0.643773 0.700790 0.446572
O O4 0.606133 0.670326 0.081652
O O5 0.248780 0.498955 0.147085
O O6 0.153717 0.465794 0.965961
O O7 0.176830 0.577669 0.955012
O O8 0.500000 0.559066 0.750000
O O9 0.500000 0.563034 0.250000
O O10 0.494929 0.653232 0.992953
O O11 0.250000 0.750000 0.500000
O O12 0.196293 0.717293 0.171373
O O13 0.154409 0.651308 0.506200
O O14 0.892115 0.679889 0.528451
O O15 0.927486 0.751684 0.187921
O O16 0.000000 0.241189 0.250000
O O17 0.570648 0.914610 0.289907
O O18 0.574858 0.903000 0.783740
#
# Coordination Sequence:
#
# PCOD9261423 Si02
#       8
#     8   8   8   8   8   8   8   8
#     4  10  19  30  42  60  90 122 156 189 220 266
#     4   8  14  28  45  59  80 111 149 184 214 256
#     4   9  17  31  46  59  75 113 159 192 218 250
#     4  11  20  29  41  65  95 126 148 179 226 275
#     4  11  19  29  45  63  93 123 152 191 228 274
#     4   9  19  31  45  60  82 121 161 197 224 260
#     4   9  18  31  42  61  88 120 150 178 214 268
#     4   9  18  28  45  64  85 113 149 185 223 262
#
# _framework density 24.629436999999999
#
# number of rings (size 3 to 8) (size 9 to 14) (size 15 to 20)
#    0.000    2.750    2.500    1.125    1.750    1.000 
#    0.000    0.000    0.000    0.000    0.000    0.000 
#    0.000   16.000    1.250   10.250    0.000  423.000 
#
# Total GULP energy -178249.046042 kJ/mol
# GULP energy per Si atom -5570.282689 kJ/mol
# Density = 2.457338 g / cm^3
# Si number density = 24.629437 Si / 1000 Ang^3
#
#
#
# Elastic Constant Matrix: (Units=GPa)
#
#
# Indices 1 2 3 4 5 6 
#
# 1 67.0715 6.1692 24.8850 0.0000 4.9746 0.0000
# 2 6.1692 81.6083 14.6145 0.0000 -8.0627 0.0000
# 3 24.8850 14.6145 189.9410 0.0000 -3.4073 0.0000
# 4 0.0000 0.0000 0.0000 121.3096 0.0000 15.4794
# 5 4.9746 -8.0627 -3.4073 0.0000 23.0869 0.0000
# 6 0.0000 0.0000 0.0000 15.4794 0.0000 -25.6352
#
#
#
# Elastic Compliance Matrix: (Units=1/GPa)
#
#
# Indices 1 2 3 4 5 6 
#
# 1 0.016114 -0.001261 -0.002090 0.000000 -0.004221 0.000000
# 2 -0.001261 0.012945 -0.000747 0.000000 0.004682 0.000000
# 3 -0.002090 -0.000747 0.005614 0.000000 0.001018 0.000000
# 4 0.000000 0.000000 0.000000 0.007654 0.000000 0.004622
# 5 -0.004221 0.004682 0.001018 0.000000 0.046010 0.000000
# 6 0.000000 0.000000 0.000000 0.004622 0.000000 -0.036218
#
#
# Mechanical properties :
#
#
# Convention : Reuss Voigt Hill
#
# Bulk Modulus (GPa) = 37.76669 47.77312 42.76991
# Shear Modulus (GPa) = 72.31708 43.28237 57.79973
#
# Velocity S-wave (km/s) = 5.42455 4.19662 4.84961
# Velocity P-wave (km/s) = 7.38929 6.55141 6.98293
#
# Compressibility (1/GPa) = 0.02647836
#
# Stress axis : x y z
#
# Youngs Moduli (GPa) = 62.05828 77.24791 178.11593
#
# Poissons Ratio (x) = 0.09740 0.37224
# Poissons Ratio (y) = 0.07825 0.13303
# Poissons Ratio (z) = 0.12969 0.05769
#
# Static dielectric constant tensor:
#      x y z
#    x 1.754060 0.000000 -0.038900 
#    y 0.000000 1.950410 0.000000 
#    z -0.038900 0.000000 2.131580 
# 
# From -- ./inp_files/16154.got.cif
#   From: 2010.05.17/outbox.cif.g08.bks.cpg/sg15_9_cif.got.tgz:16154.got - 2010.06.03 18:47:42.
