data_PCOD9261712
_publ_section_title
;
Structure prediction by ZEFSAII (Michael W. Deem and Ramdas Pophale) SiO2 
 PCOD9261712
Probable space group: C 2/C
;
_chemical_formula_sum "Si O2"
_cell_formula_units_Z 56
_cell_length_a 19.785280
_cell_length_b 11.769690
_cell_length_c 14.633601
_cell_angle_alpha 90.000000
_cell_angle_beta 56.378442
_cell_angle_gamma 90.000000
_cell_volume 2837.616888
_symmetry_space_group_name_H-M "C 2/C"
_symmetry_group_IT_number 15
_symmetry_cell_setting 'monoclinic'
loop_
_space_group_symop_operation_xyz
x,y,z
-x,y,1/2-z
-x,-y,-z
x,-y,1/2+z
1/2+x,1/2+y,z
1/2-x,1/2+y,1/2-z
1/2-x,1/2-y,-z
1/2+x,1/2-y,1/2+z
loop_
_atom_site_type_symbol
_atom_site_label
_atom_site_fract_x
_atom_site_fract_y
_atom_site_fract_z
Si Si1 0.111261 0.046055 0.112695
Si Si2 0.344119 0.219440 0.411578
Si Si3 0.787599 0.498192 0.894527
Si Si4 0.887803 0.118815 0.722316
Si Si5 0.697115 0.584144 0.288506
Si Si6 0.945133 0.871904 0.477980
Si Si7 0.814251 0.752329 0.869661
O O1 0.110616 0.176048 0.144553
O O2 0.085720 0.970212 0.218049
O O3 0.066117 0.997241 0.058814
O O4 0.205783 0.017594 0.016273
O O5 0.250000 0.250000 0.500000
O O6 0.365814 0.271830 0.297152
O O7 0.400738 0.282288 0.443127
O O8 0.347592 0.083602 0.405199
O O9 0.756818 0.426741 0.829539
O O10 0.824063 0.619850 0.839418
O O11 0.959232 0.147286 0.598513
O O12 0.815156 0.047139 0.732662
O O13 0.608660 0.625124 0.391297
O O14 0.717344 0.670332 0.191461
O O15 0.750000 0.750000 0.000000
#
# Coordination Sequence:
#
# PCOD9261712 Si02
#       7
#     8   8   8   8   8   8   8
#     4   8  15  31  50  71 104 136 173 217 257 316
#     4  11  18  32  53  76 110 140 176 224 267 316
#     4  10  19  31  50  81 110 137 175 223 273 318
#     4  10  19  31  53  79 108 142 178 216 272 320
#     4  10  20  32  53  77 110 142 175 229 267 317
#     4  10  19  33  54  81 107 142 180 224 267 317
#     4   9  19  34  49  74 109 140 176 215 273 323
#
# _framework density 19.734869
#
# number of rings (size 3 to 8) (size 9 to 14) (size 15 to 20)
#    0.000    2.286    4.286    2.143    2.000    0.000 
#    0.000    0.000    0.000    7.714    0.000    0.000 
#    0.000    0.000    0.000    0.000    0.000    0.000 
#
# Total GULP energy -155885.657802 kJ/mol
# GULP energy per Si atom -5567.344922 kJ/mol
# Density = 1.968995 g / cm^3
# Si number density = 19.734869 Si / 1000 Ang^3
#
#
#
# Elastic Constant Matrix: (Units=GPa)
#
#
# Indices 1 2 3 4 5 6 
#
# 1 28.7632 20.1912 9.3949 0.0000 6.8607 0.0000
# 2 20.1912 117.8531 21.2868 0.0000 -1.6255 0.0000
# 3 9.3949 21.2868 84.4868 0.0000 12.4033 0.0000
# 4 0.0000 0.0000 0.0000 21.4548 0.0000 4.9480
# 5 6.8607 -1.6255 12.4033 0.0000 22.6197 0.0000
# 6 0.0000 0.0000 0.0000 4.9480 0.0000 22.0849
#
#
#
# Elastic Compliance Matrix: (Units=1/GPa)
#
#
# Indices 1 2 3 4 5 6 
#
# 1 0.043464 -0.007443 -0.001027 0.000000 -0.013155 0.000000
# 2 -0.007443 0.010251 -0.002387 0.000000 0.004303 0.000000
# 3 -0.001027 -0.002387 0.013628 0.000000 -0.007333 0.000000
# 4 0.000000 0.000000 0.000000 0.049149 0.000000 -0.011012
# 5 -0.013155 0.004303 -0.007333 0.000000 0.052530 0.000000
# 6 0.000000 0.000000 0.000000 -0.011012 0.000000 0.047747
#
#
# Mechanical properties :
#
#
# Convention : Reuss Voigt Hill
#
# Bulk Modulus (GPa) = 21.91488 36.98321 29.44905
# Shear Modulus (GPa) = 19.70898 25.24721 22.47810
#
# Velocity S-wave (km/s) = 3.16363 3.58064 3.37857
# Velocity P-wave (km/s) = 4.94707 5.98960 5.49313
#
# Compressibility (1/GPa) = 0.04563109
#
# Stress axis : x y z
#
# Youngs Moduli (GPa) = 23.00734 97.55443 73.37702
#
# Poissons Ratio (x) = 0.72605 0.07534
# Poissons Ratio (y) = 0.17123 0.17513
# Poissons Ratio (z) = 0.02362 0.23284
#
# Static dielectric constant tensor:
#      x y z
#    x 1.771520 0.000000 0.007130 
#    y 0.000000 1.755460 0.000000 
#    z 0.007130 0.000000 1.727990 
# 
# From -- ./inp_files/214769.got.cif
#   From: 2010.05.17/outbox.cif.g08.bks.cpg/sg15_108_cif.got.tgz:214769.got - 2010.06.03 18:47:42.
