data_PCOD9261210
_publ_section_title
;
Structure prediction by ZEFSAII (Michael W. Deem and Ramdas Pophale) SiO2 
 PCOD9261210
Probable space group: C 2/C
;
_chemical_formula_sum "Si O2"
_cell_formula_units_Z 52
_cell_length_a 23.898004
_cell_length_b 9.202519
_cell_length_c 18.182911
_cell_angle_alpha 90.000000
_cell_angle_beta 144.541102
_cell_angle_gamma 90.000000
_cell_volume 2319.790130
_symmetry_space_group_name_H-M "C 2/C"
_symmetry_group_IT_number 15
_symmetry_cell_setting 'monoclinic'
loop_
_space_group_symop_operation_xyz
x,y,z
-x,y,1/2-z
-x,-y,-z
x,-y,1/2+z
1/2+x,1/2+y,z
1/2-x,1/2+y,1/2-z
1/2-x,1/2-y,-z
1/2+x,1/2-y,1/2+z
loop_
_atom_site_type_symbol
_atom_site_label
_atom_site_fract_x
_atom_site_fract_y
_atom_site_fract_z
Si Si1 0.592958 0.489287 0.309226
Si Si2 0.635369 0.020366 0.465917
Si Si3 0.282745 0.704295 0.378352
Si Si4 0.716566 0.059027 0.902644
Si Si5 0.960735 0.998166 0.538694
Si Si6 0.699349 0.248500 0.125099
Si Si7 0.000000 0.704509 0.250000
O O1 0.500000 0.556994 0.250000
O O2 0.685172 0.558377 0.443782
O O3 0.585144 0.317216 0.320241
O O4 0.559216 0.505848 0.190685
O O5 0.711003 0.148284 0.567607
O O6 0.534534 0.105235 0.353953
O O7 0.643421 0.954363 0.392083
O O8 0.654691 0.899431 0.546576
O O9 0.220936 0.584754 0.356492
O O10 0.390139 0.632687 0.484314
O O11 0.242467 0.732581 0.253100
O O12 0.722623 0.191244 0.851318
O O13 0.887603 0.864119 0.469058
O O14 0.000000 0.000000 0.500000
#
# Coordination Sequence:
#
# PCOD9261210 Si02
#       7
#     8   8   8   8   8   8   4
#     4  10  18  41  67  85 121 158 226 256 288 382
#     4  12  23  40  66  93 125 161 207 270 317 360
#     4  11  22  43  64  91 129 166 210 257 308 388
#     4  11  23  41  68  93 117 176 218 247 315 386
#     4  11  24  43  67  91 122 176 214 248 317 387
#     4  11  25  42  59  98 133 157 204 274 320 362
#     4  10  20  38  60  90 124 154 202 266 302 360
#
# _framework density 22.41582
#
# number of rings (size 3 to 8) (size 9 to 14) (size 15 to 20)
#    0.462    0.615    6.154    2.769    4.308    1.231 
#    2.769    0.769    0.000    0.000    0.000    0.000 
#    0.000    0.000    0.000    0.000    0.000    0.000 
#
# Total GULP energy -145075.828749 kJ/mol
# GULP energy per Si atom -5579.839567 kJ/mol
# Density = 2.236480 g / cm^3
# Si number density = 22.415820 Si / 1000 Ang^3
#
#
#
# Elastic Constant Matrix: (Units=GPa)
#
#
# Indices 1 2 3 4 5 6 
#
# 1 55.3839 -7.2377 6.0134 0.0000 -22.5541 0.0000
# 2 -7.2377 70.6052 17.5599 0.0000 -8.3524 0.0000
# 3 6.0134 17.5599 131.2587 0.0000 -35.5707 0.0000
# 4 0.0000 0.0000 0.0000 38.2064 0.0000 -13.3542
# 5 -22.5541 -8.3524 -35.5707 0.0000 48.2217 0.0000
# 6 0.0000 0.0000 0.0000 -13.3542 0.0000 16.2812
#
#
#
# Elastic Compliance Matrix: (Units=1/GPa)
#
#
# Indices 1 2 3 4 5 6 
#
# 1 0.023646 0.003478 0.002014 0.000000 0.013148 0.000000
# 2 0.003478 0.015235 -0.001302 0.000000 0.003305 0.000000
# 3 0.002014 -0.001302 0.009867 0.000000 0.007995 0.000000
# 4 0.000000 0.000000 0.000000 0.036693 0.000000 0.030097
# 5 0.013148 0.003305 0.007995 0.000000 0.033357 0.000000
# 6 0.000000 0.000000 0.000000 0.030097 0.000000 0.086106
#
#
# Mechanical properties :
#
#
# Convention : Reuss Voigt Hill
#
# Bulk Modulus (GPa) = 17.50407 32.21322 24.85864
# Shear Modulus (GPa) = 23.19480 36.60267 29.89874
#
# Velocity S-wave (km/s) = 3.22024 4.04529 3.65612
# Velocity P-wave (km/s) = 4.65321 6.01840 5.37929
#
# Compressibility (1/GPa) = 0.05712958
#
# Stress axis : x y z
#
# Youngs Moduli (GPa) = 42.29065 65.64019 101.34739
#
# Poissons Ratio (x) = -0.22832 -0.20416
# Poissons Ratio (y) = -0.14710 0.13192
# Poissons Ratio (z) = -0.08519 0.08544
#
# Static dielectric constant tensor:
#      x y z
#    x 1.885500 0.000000 0.013390 
#    y 0.000000 1.879190 0.000000 
#    z 0.013390 0.000000 1.433810 
# 
# From -- ./inp_files/221941.got.cif
#   From: 2010.05.17/outbox.cif.g08.bks.cpg/sg15_111_cif.got.tgz:221941.got - 2010.06.03 18:47:42.
