data_PCOD9261376
_publ_section_title
;
Structure prediction by ZEFSAII (Michael W. Deem and Ramdas Pophale) SiO2 
 PCOD9261376
Probable space group: C 2/C
;
_chemical_formula_sum "Si O2"
_cell_formula_units_Z 40
_cell_length_a 20.790227
_cell_length_b 6.798674
_cell_length_c 11.712479
_cell_angle_alpha 90.000000
_cell_angle_beta 111.809458
_cell_angle_gamma 90.000000
_cell_volume 1537.017709
_symmetry_space_group_name_H-M "C 2/C"
_symmetry_group_IT_number 15
_symmetry_cell_setting 'monoclinic'
loop_
_space_group_symop_operation_xyz
x,y,z
-x,y,1/2-z
-x,-y,-z
x,-y,1/2+z
1/2+x,1/2+y,z
1/2-x,1/2+y,1/2-z
1/2-x,1/2-y,-z
1/2+x,1/2-y,1/2+z
loop_
_atom_site_type_symbol
_atom_site_label
_atom_site_fract_x
_atom_site_fract_y
_atom_site_fract_z
Si Si1 0.271381 0.637332 0.128208
Si Si2 0.379702 0.667976 0.627617
Si Si3 0.625251 0.320603 0.621069
Si Si4 0.132059 0.277962 0.636584
Si Si5 0.525798 0.290697 0.880871
O O1 0.307441 0.436379 0.112844
O O2 0.330234 0.749089 0.241670
O O3 0.204028 0.615786 0.161703
O O4 0.250000 0.750000 0.000000
O O5 0.369416 0.772677 0.500092
O O6 0.397246 0.787021 0.754002
O O7 0.434055 0.488564 0.637456
O O8 0.649604 0.547085 0.625933
O O9 0.544872 0.336254 0.599843
O O10 0.075222 0.319041 0.502279
O O11 0.500000 0.182021 0.750000
#
# Coordination Sequence:
#
# PCOD9261376 Si02
#       5
#     8   8   8   8   8
#     4  11  18  31  47  67 100 131 162 188 238 294
#     4  10  20  31  48  71 104 126 158 200 240 287
#     4  10  20  29  48  74  99 125 158 195 244 288
#     4  10  19  29  46  70 100 129 158 194 238 283
#     4  11  17  28  48  74  99 126 150 194 251 295
#
# _framework density 26.024424
#
# number of rings (size 3 to 8) (size 9 to 14) (size 15 to 20)
#    0.000    1.600    8.000    2.400    0.000    0.800 
#    0.000    0.000    0.000    0.000    0.000    5.600 
#    0.000    0.000    0.000    0.800    0.000    0.000 
#
# Total GULP energy -111857.828500 kJ/mol
# GULP energy per Si atom -5592.891425 kJ/mol
# Density = 2.596519 g / cm^3
# Si number density = 26.024424 Si / 1000 Ang^3
#
#
#
# Elastic Constant Matrix: (Units=GPa)
#
#
# Indices 1 2 3 4 5 6 
#
# 1 189.5720 28.8746 80.8598 0.0000 0.3913 0.0000
# 2 28.8746 73.9034 15.1112 0.0000 -0.2046 0.0000
# 3 80.8598 15.1112 245.0955 0.0000 -10.7881 0.0000
# 4 0.0000 0.0000 0.0000 -2.1491 0.0000 -0.8066
# 5 0.3913 -0.2046 -10.7881 0.0000 55.7696 0.0000
# 6 0.0000 0.0000 0.0000 -0.8066 0.0000 12.9696
#
#
#
# Elastic Compliance Matrix: (Units=1/GPa)
#
#
# Indices 1 2 3 4 5 6 
#
# 1 0.006459 -0.002112 -0.002020 0.000000 -0.000444 0.000000
# 2 -0.002112 0.014395 -0.000189 0.000000 0.000031 0.000000
# 3 -0.002020 -0.000189 0.004800 0.000000 0.000942 0.000000
# 4 0.000000 0.000000 0.000000 -0.454700 0.000000 -0.028277
# 5 -0.000444 0.000031 0.000942 0.000000 0.018116 0.000000
# 6 0.000000 0.000000 0.000000 -0.028277 0.000000 0.075345
#
#
# Mechanical properties :
#
#
# Convention : Reuss Voigt Hill
#
# Bulk Modulus (GPa) = 58.78572 84.25135 71.51854
# Shear Modulus (GPa) = -15.56320 38.89970 11.66825
#
# Velocity S-wave (km/s) = -2.44810 3.87038 2.11974
# Velocity P-wave (km/s) = 3.82711 7.23998 5.79069
#
# Compressibility (1/GPa) = 0.01701093
#
# Stress axis : x y z
#
# Youngs Moduli (GPa) = 154.81350 69.46798 208.34550
#
# Poissons Ratio (x) = 0.14671 0.42093
# Poissons Ratio (y) = 0.32694 0.03947
# Poissons Ratio (z) = 0.31278 0.01316
#
# Static dielectric constant tensor:
#      x y z
#    x 1.997270 0.000000 0.000590 
#    y 0.000000 2.092310 0.000000 
#    z 0.000590 0.000000 2.137310 
# 
# From -- ./inp_files/103353.got.cif
#   From: 2010.05.17/outbox.cif.g08.bks.cpg/sg15_52_cif.got.tgz:103353.got - 2010.06.03 18:47:42.
