data_PCOD9261832
_publ_section_title
;
Structure prediction by ZEFSAII (Michael W. Deem and Ramdas Pophale) SiO2 
 PCOD9261832
Probable space group: C 2/C
;
_chemical_formula_sum "Si O2"
_cell_formula_units_Z 56
_cell_length_a 5.287893
_cell_length_b 23.175616
_cell_length_c 25.063792
_cell_angle_alpha 90.000000
_cell_angle_beta 97.327534
_cell_angle_gamma 90.000000
_cell_volume 3046.487449
_symmetry_space_group_name_H-M "C 2/C"
_symmetry_group_IT_number 15
_symmetry_cell_setting 'monoclinic'
loop_
_space_group_symop_operation_xyz
x,y,z
-x,y,1/2-z
-x,-y,-z
x,-y,1/2+z
1/2+x,1/2+y,z
1/2-x,1/2+y,1/2-z
1/2-x,1/2-y,-z
1/2+x,1/2-y,1/2+z
loop_
_atom_site_type_symbol
_atom_site_label
_atom_site_fract_x
_atom_site_fract_y
_atom_site_fract_z
Si Si1 0.734503 0.475363 0.972139
Si Si2 0.065895 0.159254 0.889809
Si Si3 0.912045 0.742799 0.950429
Si Si4 0.341170 0.654137 0.999628
Si Si5 0.734560 0.533139 0.858383
Si Si6 0.701349 0.971549 0.296328
Si Si7 0.737169 0.663698 0.719297
O O1 0.739519 0.406639 0.979279
O O2 0.707064 0.497534 0.911516
O O3 0.500000 0.500000 0.000000
O O4 0.000000 0.500000 0.000000
O O5 0.244209 0.215439 0.899344
O O6 0.188609 0.101623 0.867864
O O7 0.830583 0.174570 0.844568
O O8 0.004206 0.143762 0.949803
O O9 0.033431 0.806205 0.950753
O O10 0.750000 0.750000 0.000000
O O11 0.119046 0.694507 0.970376
O O12 0.494699 0.511421 0.815520
O O13 0.022448 0.528491 0.844049
O O14 0.500000 0.000810 0.250000
O O15 0.738258 0.905884 0.277137
O O16 0.500000 0.681165 0.750000
O O17 0.000000 0.687702 0.750000
#
# Coordination Sequence:
#
# PCOD9261832 Si02
#       7
#     8   8   8   8   8   8   8
#     4  12  24  37  54  83 120 155 182 226 279 340
#     4  10  19  31  56  74 114 147 181 221 283 332
#     4   9  20  36  54  80 101 149 191 226 270 322
#     4  10  21  36  55  78 115 147 192 232 266 335
#     4  11  21  32  53  83 112 148 182 216 285 340
#     4  10  19  34  51  75 111 146 183 228 271 332
#     4  10  20  31  48  79 112 144 178 223 279 338
#
# _framework density 18.381824000000002
#
# number of rings (size 3 to 8) (size 9 to 14) (size 15 to 20)
#    0.000    1.714    1.429    5.571   10.000    0.000 
#    0.000    0.000    0.000    0.000    0.000    1.000 
#    8.571    0.000    0.000    0.000    0.000    0.000 
#
# Total GULP energy -155955.307545 kJ/mol
# GULP energy per Si atom -5569.832412 kJ/mol
# Density = 1.833999 g / cm^3
# Si number density = 18.381824 Si / 1000 Ang^3
#
#
#
# Elastic Constant Matrix: (Units=GPa)
#
#
# Indices 1 2 3 4 5 6 
#
# 1 91.7704 24.3302 16.8163 0.0000 7.6507 0.0000
# 2 24.3302 96.6784 22.3758 0.0000 10.7166 0.0000
# 3 16.8163 22.3758 67.8555 0.0000 18.8978 0.0000
# 4 0.0000 0.0000 0.0000 17.4381 0.0000 2.4358
# 5 7.6507 10.7166 18.8978 0.0000 44.5232 0.0000
# 6 0.0000 0.0000 0.0000 2.4358 0.0000 10.9836
#
#
#
# Elastic Compliance Matrix: (Units=1/GPa)
#
#
# Indices 1 2 3 4 5 6 
#
# 1 0.011969 -0.002487 -0.001973 0.000000 -0.000621 0.000000
# 2 -0.002487 0.011779 -0.002946 0.000000 -0.001158 0.000000
# 3 -0.001973 -0.002946 0.018038 0.000000 -0.006608 0.000000
# 4 0.000000 0.000000 0.000000 0.059179 0.000000 -0.013124
# 5 -0.000621 -0.001158 -0.006608 0.000000 0.025650 0.000000
# 6 0.000000 0.000000 0.000000 -0.013124 0.000000 0.093955
#
#
# Mechanical properties :
#
#
# Convention : Reuss Voigt Hill
#
# Bulk Modulus (GPa) = 37.07115 42.59432 39.83273
# Shear Modulus (GPa) = 20.46039 27.44112 23.95075
#
# Velocity S-wave (km/s) = 3.33990 3.86792 3.61357
# Velocity P-wave (km/s) = 5.92320 6.57039 6.25517
#
# Compressibility (1/GPa) = 0.02697516
#
# Stress axis : x y z
#
# Youngs Moduli (GPa) = 83.54642 84.89353 55.43860
#
# Poissons Ratio (x) = 0.21110 0.10941
# Poissons Ratio (y) = 0.20775 0.16330
# Poissons Ratio (z) = 0.16488 0.25007
#
# Static dielectric constant tensor:
#      x y z
#    x 1.635290 0.000000 0.148830 
#    y 0.000000 1.521400 0.000000 
#    z 0.148830 0.000000 1.456870 
# 
# From -- ./inp_files/261566.got.cif
#   From: 2010.05.17/outbox.cif.g08.bks.cpg/sg15_131_cif.got.tgz:261566.got - 2010.06.03 18:47:42.
