data_PCOD9261666
_publ_section_title
;
Structure prediction by ZEFSAII (Michael W. Deem and Ramdas Pophale) SiO2 
 PCOD9261666
Probable space group: C 2/C
;
_chemical_formula_sum "Si O2"
_cell_formula_units_Z 64
_cell_length_a 10.234866
_cell_length_b 16.799445
_cell_length_c 15.760132
_cell_angle_alpha 90.000000
_cell_angle_beta 61.272082
_cell_angle_gamma 90.000000
_cell_volume 2376.254714
_symmetry_space_group_name_H-M "C 2/C"
_symmetry_group_IT_number 15
_symmetry_cell_setting 'monoclinic'
loop_
_space_group_symop_operation_xyz
x,y,z
-x,y,1/2-z
-x,-y,-z
x,-y,1/2+z
1/2+x,1/2+y,z
1/2-x,1/2+y,1/2-z
1/2-x,1/2-y,-z
1/2+x,1/2-y,1/2+z
loop_
_atom_site_type_symbol
_atom_site_label
_atom_site_fract_x
_atom_site_fract_y
_atom_site_fract_z
Si Si1 0.928447 0.165718 0.180081
Si Si2 0.110770 0.707690 0.089135
Si Si3 0.057416 0.132530 0.816645
Si Si4 0.324118 0.878731 0.634392
Si Si5 0.309124 0.424562 0.505867
Si Si6 0.671575 0.934067 0.357325
Si Si7 0.658202 0.603485 0.005815
Si Si8 0.432963 0.169012 0.864240
O O1 0.759807 0.167037 0.262707
O O2 0.000000 0.146570 0.250000
O O3 0.986839 0.105474 0.091161
O O4 0.997823 0.248122 0.125055
O O5 0.020877 0.780406 0.160161
O O6 0.981017 0.664623 0.077722
O O7 0.250000 0.750000 0.000000
O O8 0.206277 0.633007 0.095475
O O9 0.229576 0.117020 0.741375
O O10 0.000000 0.086326 0.750000
O O11 0.980265 0.098002 0.925318
O O12 0.237663 0.877012 0.572440
O O13 0.328012 0.971607 0.658664
O O14 0.232128 0.421000 0.434316
O O15 0.301991 0.515248 0.535122
O O16 0.505309 0.902186 0.395013
O O17 0.753131 0.665337 0.919389
O O18 0.500000 0.163114 0.750000
#
# Coordination Sequence:
#
# PCOD9261666 Si02
#       8
#     8   8   8   8   8   8   8   8
#     4   9  19  34  54  80 105 136 180 231 280 322
#     4  10  19  31  48  76 115 145 169 211 270 338
#     4   9  18  33  54  80 109 140 177 224 279 330
#     4  10  19  34  58  83 104 136 187 237 278 319
#     4   9  18  33  56  84 105 134 181 232 280 323
#     4  10  19  34  57  80 104 138 185 236 276 320
#     4  10  19  35  58  80 106 137 181 239 284 320
#     4  11  22  34  50  75 111 148 177 213 272 343
#
# _framework density 26.933138
#
# number of rings (size 3 to 8) (size 9 to 14) (size 15 to 20)
#    0.000    2.250    0.000    3.375    0.000    5.000 
#    0.000    3.750    0.000    7.500    0.000    0.000 
#    0.000    0.000    0.000    0.000    0.000    0.000 
#
# Total GULP energy -178602.712595 kJ/mol
# GULP energy per Si atom -5581.334769 kJ/mol
# Density = 2.687184 g / cm^3
# Si number density = 26.933138 Si / 1000 Ang^3
#
#
#
# Elastic Constant Matrix: (Units=GPa)
#
#
# Indices 1 2 3 4 5 6 
#
# 1 37.7732 -11.7463 14.8080 0.0000 -15.3212 0.0000
# 2 -11.7463 109.7605 35.3071 0.0000 -5.1056 0.0000
# 3 14.8080 35.3071 143.4561 0.0000 -13.1835 0.0000
# 4 0.0000 0.0000 0.0000 25.9926 0.0000 -14.0792
# 5 -15.3212 -5.1056 -13.1835 0.0000 43.8126 0.0000
# 6 0.0000 0.0000 0.0000 -14.0792 0.0000 33.4591
#
#
#
# Elastic Compliance Matrix: (Units=1/GPa)
#
#
# Indices 1 2 3 4 5 6 
#
# 1 0.034323 0.005438 -0.003826 0.000000 0.011485 0.000000
# 2 0.005438 0.010764 -0.003003 0.000000 0.002252 0.000000
# 3 -0.003826 -0.003003 0.008176 0.000000 0.000772 0.000000
# 4 0.000000 0.000000 0.000000 0.049830 0.000000 0.020968
# 5 0.011485 0.002252 0.000772 0.000000 0.027336 0.000000
# 6 0.000000 0.000000 0.000000 0.020968 0.000000 0.038710
#
#
# Mechanical properties :
#
#
# Convention : Reuss Voigt Hill
#
# Bulk Modulus (GPa) = 19.80969 40.85860 30.33415
# Shear Modulus (GPa) = 26.49036 37.49427 31.99231
#
# Velocity S-wave (km/s) = 3.13958 3.73517 3.45025
# Velocity P-wave (km/s) = 4.52921 5.81423 5.21148
#
# Compressibility (1/GPa) = 0.05048034
#
# Stress axis : x y z
#
# Youngs Moduli (GPa) = 29.13473 92.90545 122.31113
#
# Poissons Ratio (x) = -0.50523 0.46795
# Poissons Ratio (y) = -0.15844 0.36736
# Poissons Ratio (z) = 0.11147 0.27904
#
# Static dielectric constant tensor:
#      x y z
#    x 2.362890 0.000000 -0.106140 
#    y 0.000000 2.088470 0.000000 
#    z -0.106140 0.000000 2.183350 
# 
# From -- ./inp_files/274304.got.cif
#   From: 2010.05.17/outbox.cif.g08.bks.cpg/sg15_138_cif.got.tgz:274304.got - 2010.06.03 18:47:42.
