data_PCOD9261589
_publ_section_title
;
Structure prediction by ZEFSAII (Michael W. Deem and Ramdas Pophale) SiO2 
 PCOD9261589
Probable space group: C 2/C
;
_chemical_formula_sum "Si O2"
_cell_formula_units_Z 56
_cell_length_a 11.899458
_cell_length_b 11.857336
_cell_length_c 15.827659
_cell_angle_alpha 90.000000
_cell_angle_beta 67.065738
_cell_angle_gamma 90.000000
_cell_volume 2056.687209
_symmetry_space_group_name_H-M "C 2/C"
_symmetry_group_IT_number 15
_symmetry_cell_setting 'monoclinic'
loop_
_space_group_symop_operation_xyz
x,y,z
-x,y,1/2-z
-x,-y,-z
x,-y,1/2+z
1/2+x,1/2+y,z
1/2-x,1/2+y,1/2-z
1/2-x,1/2-y,-z
1/2+x,1/2-y,1/2+z
loop_
_atom_site_type_symbol
_atom_site_label
_atom_site_fract_x
_atom_site_fract_y
_atom_site_fract_z
Si Si1 0.066519 0.202619 0.109770
Si Si2 0.058121 0.062466 0.574509
Si Si3 0.304932 0.500479 0.123977
Si Si4 0.920818 0.373661 0.074319
Si Si5 0.842545 0.231023 0.826621
Si Si6 0.929519 0.536807 0.385566
Si Si7 0.801625 0.815130 0.766534
O O1 0.063554 0.071421 0.086974
O O2 0.041965 0.294063 0.043576
O O3 0.181382 0.201295 0.139149
O O4 0.936245 0.224656 0.195496
O O5 0.917234 0.083700 0.595573
O O6 0.147808 0.081548 0.468487
O O7 0.090270 0.127670 0.649770
O O8 0.173582 0.461600 0.130238
O O9 0.295681 0.565378 0.216509
O O10 0.945411 0.466011 0.141871
O O11 0.797775 0.300603 0.110741
O O12 0.905463 0.438523 0.990589
O O13 0.905827 0.343228 0.846397
O O14 0.817242 0.253741 0.735748
#
# Coordination Sequence:
#
# PCOD9261589 Si02
#       7
#     8   8   8   8   8   8   8
#     4   9  18  34  52  79 112 144 189 237 278 348
#     4  10  19  30  56  90 112 144 185 238 300 338
#     4   9  18  32  53  84 113 143 186 234 282 341
#     4  10  20  34  56  81 110 145 190 236 276 347
#     4  10  19  34  58  80 108 146 185 238 289 344
#     4  10  20  34  54  84 109 146 189 233 281 342
#     4   8  17  33  54  76 102 151 196 223 276 341
#
# _framework density 27.228252999999999
#
# number of rings (size 3 to 8) (size 9 to 14) (size 15 to 20)
#    0.000    2.571    1.429    1.286    8.000    0.000 
#    5.143    2.143    0.000    0.000    0.000    0.000 
#    0.000    0.000    0.000    0.000    0.000    0.000 
#
# Total GULP energy -155988.635548 kJ/mol
# GULP energy per Si atom -5571.022698 kJ/mol
# Density = 2.716628 g / cm^3
# Si number density = 27.228253 Si / 1000 Ang^3
#
#
#
# Elastic Constant Matrix: (Units=GPa)
#
#
# Indices 1 2 3 4 5 6 
#
# 1 150.1220 51.8425 86.5579 0.0000 47.0380 0.0000
# 2 51.8425 128.7386 50.4255 0.0000 15.2821 0.0000
# 3 86.5579 50.4255 70.2952 0.0000 39.3581 0.0000
# 4 0.0000 0.0000 0.0000 7.8356 0.0000 10.0163
# 5 47.0380 15.2821 39.3581 0.0000 64.4923 0.0000
# 6 0.0000 0.0000 0.0000 10.0163 0.0000 35.1605
#
#
#
# Elastic Compliance Matrix: (Units=1/GPa)
#
#
# Indices 1 2 3 4 5 6 
#
# 1 0.023695 0.002857 -0.032160 0.000000 0.001667 0.000000
# 2 0.002857 0.011629 -0.013900 0.000000 0.003643 0.000000
# 3 -0.032160 -0.013900 0.074159 0.000000 -0.018508 0.000000
# 4 0.000000 0.000000 0.000000 0.200711 0.000000 -0.057177
# 5 0.001667 0.003643 -0.018508 0.000000 0.024721 0.000000
# 6 0.000000 0.000000 0.000000 -0.057177 0.000000 0.044729
#
#
# Mechanical properties :
#
#
# Convention : Reuss Voigt Hill
#
# Bulk Modulus (GPa) = 43.33151 80.75641 62.04396
# Shear Modulus (GPa) = 10.55427 32.18634 21.37031
#
# Velocity S-wave (km/s) = 1.97095 3.44189 2.80457
# Velocity P-wave (km/s) = 4.59655 6.74677 5.77266
#
# Compressibility (1/GPa) = 0.02307790
#
# Stress axis : x y z
#
# Youngs Moduli (GPa) = 42.20294 85.99111 13.48462
#
# Poissons Ratio (x) = -0.24566 0.43366
# Poissons Ratio (y) = -0.12056 0.18743
# Poissons Ratio (z) = 1.35723 1.19524
#
# Static dielectric constant tensor:
#      x y z
#    x 2.162800 0.000000 -0.000270 
#    y 0.000000 2.270230 0.000000 
#    z -0.000270 0.000000 2.285210 
# 
# From -- ./inp_files/268504.got.cif
#   From: 2010.05.17/outbox.cif.g08.bks.cpg/sg15_135_cif.got.tgz:268504.got - 2010.06.03 18:47:42.
