data_PCOD9261963
_publ_section_title
;
Structure prediction by ZEFSAII (Michael W. Deem and Ramdas Pophale) SiO2 
 PCOD9261963
Probable space group: C 2/C
;
_chemical_formula_sum "Si O2"
_cell_formula_units_Z 40
_cell_length_a 12.309292
_cell_length_b 6.880910
_cell_length_c 24.218064
_cell_angle_alpha 90.000000
_cell_angle_beta 137.540217
_cell_angle_gamma 90.000000
_cell_volume 1384.741830
_symmetry_space_group_name_H-M "C 2/C"
_symmetry_group_IT_number 15
_symmetry_cell_setting 'monoclinic'
loop_
_space_group_symop_operation_xyz
x,y,z
-x,y,1/2-z
-x,-y,-z
x,-y,1/2+z
1/2+x,1/2+y,z
1/2-x,1/2+y,1/2-z
1/2-x,1/2-y,-z
1/2+x,1/2-y,1/2+z
loop_
_atom_site_type_symbol
_atom_site_label
_atom_site_fract_x
_atom_site_fract_y
_atom_site_fract_z
Si Si1 0.100637 0.270664 0.371433
Si Si2 0.751556 0.195427 0.819027
Si Si3 0.603747 0.872681 0.109598
Si Si4 0.271598 0.325659 0.068725
Si Si5 0.076996 0.839711 0.223064
O O1 0.159441 0.046128 0.400819
O O2 0.225879 0.357757 0.373639
O O3 0.924824 0.289110 0.275738
O O4 0.058841 0.338698 0.418045
O O5 0.830905 0.411064 0.852999
O O6 0.863109 0.092291 0.815165
O O7 0.615274 0.824357 0.049101
O O8 0.758012 0.753248 0.191270
O O9 0.425564 0.207145 0.150310
O O10 0.250000 0.250000 0.000000
O O11 0.000000 0.936909 0.250000
#
# Coordination Sequence:
#
# PCOD9261963 Si02
#       5
#     8   8   8   8   8
#     4   9  17  31  50  73  98 133 166 204 260 299
#     4   9  16  31  51  73  97 125 167 215 252 295
#     4   9  17  32  52  71  98 128 170 210 245 306
#     4  10  19  32  51  72 100 134 168 205 251 307
#     4   9  17  32  50  72  97 126 166 209 247 295
#
# _framework density 28.886251000000001
#
# number of rings (size 3 to 8) (size 9 to 14) (size 15 to 20)
#    0.000    2.800    2.000    0.000    0.000    0.800 
#    7.200    4.000    0.000    2.400    0.000    0.000 
#    0.000    0.000    0.000    0.000    0.000    0.000 
#
# Total GULP energy -111529.278733 kJ/mol
# GULP energy per Si atom -5576.463937 kJ/mol
# Density = 2.882050 g / cm^3
# Si number density = 28.886251 Si / 1000 Ang^3
#
#
#
# Elastic Constant Matrix: (Units=GPa)
#
#
# Indices 1 2 3 4 5 6 
#
# 1 306.6509 66.3253 72.1187 0.0000 -95.0035 0.0000
# 2 66.3253 85.7004 17.1172 0.0000 -17.3092 0.0000
# 3 72.1187 17.1172 135.3325 0.0000 -19.5011 0.0000
# 4 0.0000 0.0000 0.0000 12.9331 0.0000 -6.9987
# 5 -95.0035 -17.3092 -19.5011 0.0000 68.3695 0.0000
# 6 0.0000 0.0000 0.0000 -6.9987 0.0000 55.6471
#
#
#
# Elastic Compliance Matrix: (Units=1/GPa)
#
#
# Indices 1 2 3 4 5 6 
#
# 1 0.007094 -0.003367 -0.002145 0.000000 0.008393 0.000000
# 2 -0.003367 0.014070 -0.000153 0.000000 -0.001159 0.000000
# 3 -0.002145 -0.000153 0.008464 0.000000 -0.000605 0.000000
# 4 0.000000 0.000000 0.000000 0.082968 0.000000 0.010435
# 5 0.008393 -0.001159 -0.000605 0.000000 0.025823 0.000000
# 6 0.000000 0.000000 0.000000 0.010435 0.000000 0.019283
#
#
# Mechanical properties :
#
#
# Convention : Reuss Voigt Hill
#
# Bulk Modulus (GPa) = 54.64439 93.20070 73.92254
# Shear Modulus (GPa) = 28.54998 52.19813 40.37405
#
# Velocity S-wave (km/s) = 3.14723 4.25552 3.74263
# Velocity P-wave (km/s) = 5.67141 7.51537 6.65754
#
# Compressibility (1/GPa) = 0.01830014
#
# Stress axis : x y z
#
# Youngs Moduli (GPa) = 140.96327 71.07156 118.14094
#
# Poissons Ratio (x) = 0.23926 0.25343
# Poissons Ratio (y) = 0.47456 0.01804
# Poissons Ratio (z) = 0.30239 0.01085
#
# Static dielectric constant tensor:
#      x y z
#    x 2.207250 0.000000 0.054940 
#    y 0.000000 2.450320 0.000000 
#    z 0.054940 0.000000 2.418070 
# 
# From -- ./inp_files/235933.got.cif
#   From: 2010.05.17/outbox.cif.g08.bks.cpg/sg15_118_cif.got.tgz:235933.got - 2010.06.03 18:47:42.
