data_PCOD9261179
_publ_section_title
;
Structure prediction by ZEFSAII (Michael W. Deem and Ramdas Pophale) SiO2 
 PCOD9261179
Probable space group: C 2/C
;
_chemical_formula_sum "Si O2"
_cell_formula_units_Z 48
_cell_length_a 12.644893
_cell_length_b 9.320011
_cell_length_c 16.400348
_cell_angle_alpha 90.000000
_cell_angle_beta 75.748388
_cell_angle_gamma 90.000000
_cell_volume 1873.306325
_symmetry_space_group_name_H-M "C 2/C"
_symmetry_group_IT_number 15
_symmetry_cell_setting 'monoclinic'
loop_
_space_group_symop_operation_xyz
x,y,z
-x,y,1/2-z
-x,-y,-z
x,-y,1/2+z
1/2+x,1/2+y,z
1/2-x,1/2+y,1/2-z
1/2-x,1/2-y,-z
1/2+x,1/2-y,1/2+z
loop_
_atom_site_type_symbol
_atom_site_label
_atom_site_fract_x
_atom_site_fract_y
_atom_site_fract_z
Si Si1 0.149406 0.408084 0.440530
Si Si2 0.215320 0.839660 0.815004
Si Si3 0.932093 0.714046 0.065954
Si Si4 0.608001 0.295616 0.677559
Si Si5 0.226253 0.567961 0.581725
Si Si6 0.001582 0.984468 0.098718
O O1 0.113454 0.557415 0.405855
O O2 0.216092 0.461814 0.507428
O O3 0.284908 0.198447 0.629843
O O4 0.039415 0.324602 0.490691
O O5 0.207810 0.797616 0.722369
O O6 0.100515 0.921419 0.853406
O O7 0.874249 0.675849 0.893679
O O8 0.289858 0.964984 0.836579
O O9 0.830327 0.821892 0.059144
O O10 0.985056 0.818678 0.123137
O O11 0.500000 0.263673 0.750000
O O12 0.597347 0.444384 0.631942
O O13 0.000000 0.000000 0.000000
#
# Coordination Sequence:
#
# PCOD9261179 Si02
#       6
#     8   8   8   8   8   8
#     4  11  22  42  72 107 135 180 238 302 350 423
#     4  10  23  43  68 100 144 177 232 294 358 426
#     4  10  23  39  70 102 139 174 245 291 349 422
#     4  10  24  44  70  95 146 186 224 299 366 413
#     4  11  24  44  67 105 135 195 237 284 363 439
#     4  10  18  40  70  95 128 184 225 279 346 421
#
# _framework density 25.623142999999999
#
# number of rings (size 3 to 8) (size 9 to 14) (size 15 to 20)
#    0.000    1.667    1.667    2.000    7.000    2.667 
#    6.000    0.000   11.000    0.000    0.000    0.000 
#    0.000    0.000    0.000    0.000    0.000    0.000 
#
# Total GULP energy -133950.109635 kJ/mol
# GULP energy per Si atom -5581.254568 kJ/mol
# Density = 2.556482 g / cm^3
# Si number density = 25.623143 Si / 1000 Ang^3
#
#
#
# Elastic Constant Matrix: (Units=GPa)
#
#
# Indices 1 2 3 4 5 6 
#
# 1 65.1014 31.3922 20.8411 0.0000 -1.3050 0.0000
# 2 31.3922 176.2549 17.0338 0.0000 26.2764 0.0000
# 3 20.8411 17.0338 70.0953 0.0000 10.1299 0.0000
# 4 0.0000 0.0000 0.0000 33.4473 0.0000 11.7898
# 5 -1.3050 26.2764 10.1299 0.0000 36.2564 0.0000
# 6 0.0000 0.0000 0.0000 11.7898 0.0000 42.5762
#
#
#
# Elastic Compliance Matrix: (Units=1/GPa)
#
#
# Indices 1 2 3 4 5 6 
#
# 1 0.018916 -0.003555 -0.005451 0.000000 0.004780 0.000000
# 2 -0.003555 0.007086 0.000100 0.000000 -0.005291 0.000000
# 3 -0.005451 0.000100 0.016571 0.000000 -0.004898 0.000000
# 4 0.000000 0.000000 0.000000 0.033132 0.000000 -0.009175
# 5 0.004780 -0.005291 -0.004898 0.000000 0.032957 0.000000
# 6 0.000000 0.000000 0.000000 -0.009175 0.000000 0.026028
#
#
# Mechanical properties :
#
#
# Convention : Reuss Voigt Hill
#
# Bulk Modulus (GPa) = 40.38800 49.99841 45.19320
# Shear Modulus (GPa) = 31.10337 38.60162 34.85250
#
# Velocity S-wave (km/s) = 3.48786 3.88559 3.69208
# Velocity P-wave (km/s) = 5.65833 6.29967 5.98759
#
# Compressibility (1/GPa) = 0.02475983
#
# Stress axis : x y z
#
# Youngs Moduli (GPa) = 52.86608 141.12454 60.34756
#
# Poissons Ratio (x) = 0.50168 0.32896
# Poissons Ratio (y) = 0.18793 -0.00601
# Poissons Ratio (z) = 0.28818 -0.01407
#
# Static dielectric constant tensor:
#      x y z
#    x 2.247860 0.000000 0.136670 
#    y 0.000000 2.017920 0.000000 
#    z 0.136670 0.000000 2.197110 
# 
# From -- ./inp_files/267723.got.cif
#   From: 2010.05.17/outbox.cif.g08.bks.cpg/sg15_134_cif.got.tgz:267723.got - 2010.06.03 18:47:42.
