data_PCOD9261277
_publ_section_title
;
Structure prediction by ZEFSAII (Michael W. Deem and Ramdas Pophale) SiO2 
 PCOD9261277
Probable space group: C 2/C
;
_chemical_formula_sum "Si O2"
_cell_formula_units_Z 52
_cell_length_a 9.808945
_cell_length_b 16.282253
_cell_length_c 16.962862
_cell_angle_alpha 90.000000
_cell_angle_beta 110.353100
_cell_angle_gamma 90.000000
_cell_volume 2540.026461
_symmetry_space_group_name_H-M "C 2/C"
_symmetry_group_IT_number 15
_symmetry_cell_setting 'monoclinic'
loop_
_space_group_symop_operation_xyz
x,y,z
-x,y,1/2-z
-x,-y,-z
x,-y,1/2+z
1/2+x,1/2+y,z
1/2-x,1/2+y,1/2-z
1/2-x,1/2-y,-z
1/2+x,1/2-y,1/2+z
loop_
_atom_site_type_symbol
_atom_site_label
_atom_site_fract_x
_atom_site_fract_y
_atom_site_fract_z
Si Si1 0.500000 0.053050 0.750000
Si Si2 0.948628 0.721633 0.386431
Si Si3 0.711838 0.079213 0.920958
Si Si4 0.987946 0.100630 0.607521
Si Si5 0.000000 0.978256 0.750000
Si Si6 0.750000 0.250000 0.000000
Si Si7 0.291010 0.894300 0.557199
Si Si8 0.711722 0.906011 0.757637
O O1 0.586989 0.103810 0.832786
O O2 0.618583 0.990546 0.736991
O O3 0.844500 0.748451 0.436777
O O4 0.870897 0.661910 0.309211
O O5 0.988214 0.808151 0.354254
O O6 0.089149 0.671381 0.445745
O O7 0.864698 0.068702 0.905264
O O8 0.664713 0.989999 0.943347
O O9 0.730743 0.149362 0.988292
O O10 0.860723 0.111844 0.518314
O O11 0.950554 0.036407 0.668071
O O12 0.131976 0.923414 0.746797
O O13 0.275881 0.881786 0.648253
#
# Coordination Sequence:
#
# PCOD9261277 Si02
#       8
#     4   8   8   8   4   4   8   8
#     4  10  18  43  71  94 128 184 242 278 349 413
#     4  11  24  46  68 100 139 185 237 290 351 429
#     4  10  21  43  67  96 138 180 230 292 343 423
#     4  11  25  42  64 104 144 175 226 296 357 413
#     4  12  26  39  67 106 134 182 226 296 361 415
#     4  10  26  40  62 102 142 174 220 302 364 392
#     4  11  22  43  74  95 132 193 240 281 348 437
#     4  11  23  43  72 103 131 184 247 284 346 425
#
# _framework density 20.472227
#
# number of rings (size 3 to 8) (size 9 to 14) (size 15 to 20)
#    0.000    1.231    6.154    0.923    4.308    3.077 
#    0.000    7.692    0.000    0.000    0.000    0.000 
#    0.000    0.000    0.000    0.000    0.000    0.000 
#
# Total GULP energy -144745.698480 kJ/mol
# GULP energy per Si atom -5567.142249 kJ/mol
# Density = 2.042563 g / cm^3
# Si number density = 20.472227 Si / 1000 Ang^3
#
#
#
# Elastic Constant Matrix: (Units=GPa)
#
#
# Indices 1 2 3 4 5 6 
#
# 1 63.8942 -6.6160 31.4330 0.0000 11.0065 0.0000
# 2 -6.6160 59.9113 -8.2851 0.0000 2.3085 0.0000
# 3 31.4330 -8.2851 64.3176 0.0000 17.5597 0.0000
# 4 0.0000 0.0000 0.0000 5.5612 0.0000 25.8544
# 5 11.0065 2.3085 17.5597 0.0000 29.0709 0.0000
# 6 0.0000 0.0000 0.0000 25.8544 0.0000 -115.4779
#
#
#
# Elastic Compliance Matrix: (Units=1/GPa)
#
#
# Indices 1 2 3 4 5 6 
#
# 1 0.020776 0.001083 -0.009392 0.000000 -0.002279 0.000000
# 2 0.001083 0.017303 0.002618 0.000000 -0.003366 0.000000
# 3 -0.009392 0.002618 0.023424 0.000000 -0.010801 0.000000
# 4 0.000000 0.000000 0.000000 0.088108 0.000000 0.019727
# 5 -0.002279 -0.003366 -0.010801 0.000000 0.042053 0.000000
# 6 0.000000 0.000000 0.000000 0.019727 0.000000 -0.004243
#
#
# Mechanical properties :
#
#
# Convention : Reuss Voigt Hill
#
# Bulk Modulus (GPa) = 19.95122 24.57634 22.26378
# Shear Modulus (GPa) = 23.20101 -4.72977 9.23562
#
# Velocity S-wave (km/s) = 3.37009 -1.52163 2.12628
# Velocity P-wave (km/s) = 4.99099 2.99059 4.11422
#
# Compressibility (1/GPa) = 0.05012224
#
# Stress axis : x y z
#
# Youngs Moduli (GPa) = 48.13252 57.79433 42.69157
#
# Poissons Ratio (x) = -0.06261 0.40095
# Poissons Ratio (y) = -0.05214 -0.11178
# Poissons Ratio (z) = 0.45205 -0.15132
#
# Static dielectric constant tensor:
#      x y z
#    x 1.724110 0.000000 0.027950 
#    y 0.000000 1.731120 0.000000 
#    z 0.027950 0.000000 1.735320 
# 
# From -- ./inp_files/190593.got.cif
#   From: 2010.05.17/outbox.cif.g08.bks.cpg/sg15_96_cif.got.tgz:190593.got - 2010.06.03 18:47:42.
