data_PCOD9261737
_publ_section_title
;
Structure prediction by ZEFSAII (Michael W. Deem and Ramdas Pophale) SiO2 
 PCOD9261737
Probable space group: C 2/C
;
_chemical_formula_sum "Si O2"
_cell_formula_units_Z 56
_cell_length_a 14.358645
_cell_length_b 20.845335
_cell_length_c 12.170338
_cell_angle_alpha 90.000000
_cell_angle_beta 116.665314
_cell_angle_gamma 90.000000
_cell_volume 3255.285992
_symmetry_space_group_name_H-M "C 2/C"
_symmetry_group_IT_number 15
_symmetry_cell_setting 'monoclinic'
loop_
_space_group_symop_operation_xyz
x,y,z
-x,y,1/2-z
-x,-y,-z
x,-y,1/2+z
1/2+x,1/2+y,z
1/2-x,1/2+y,1/2-z
1/2-x,1/2-y,-z
1/2+x,1/2-y,1/2+z
loop_
_atom_site_type_symbol
_atom_site_label
_atom_site_fract_x
_atom_site_fract_y
_atom_site_fract_z
Si Si1 0.234381 0.377813 0.980979
Si Si2 0.552794 0.319694 0.397257
Si Si3 0.936217 0.066715 0.949416
Si Si4 0.110642 0.892266 0.836460
Si Si5 0.697606 0.894477 0.700853
Si Si6 0.487827 0.822107 0.610907
Si Si7 0.702720 0.517390 0.812226
O O1 0.224761 0.389075 0.844722
O O2 0.122406 0.356115 0.966932
O O3 0.322818 0.324352 0.047249
O O4 0.271211 0.439980 0.068765
O O5 0.500000 0.326367 0.250000
O O6 0.516923 0.380359 0.448827
O O7 0.517804 0.251825 0.428432
O O8 0.844746 0.057617 0.812131
O O9 0.885127 0.095233 0.032347
O O10 0.000000 0.000000 0.000000
O O11 0.210738 0.863772 0.826531
O O12 0.000000 0.861254 0.750000
O O13 0.113715 0.964784 0.790020
O O14 0.587414 0.861074 0.621582
O O15 0.702977 0.970062 0.672533
O O16 0.500000 0.819671 0.750000
#
# Coordination Sequence:
#
# PCOD9261737 Si02
#       7
#     8   8   8   8   8   8   8
#     4  11  19  35  57  85 111 146 188 236 279 327
#     4  11  21  34  56  87 110 141 184 239 287 326
#     4  12  20  32  53  85 116 136 178 235 293 330
#     4  10  19  31  51  80 109 142 171 224 279 337
#     4   9  21  36  55  81 115 149 184 224 283 339
#     4   9  21  39  55  76 113 152 193 229 270 333
#     4  10  20  30  55  82 115 137 182 227 290 322
#
# _framework density 17.20279
#
# number of rings (size 3 to 8) (size 9 to 14) (size 15 to 20)
#    0.857    0.857    2.857    3.857    0.000    0.571 
#    0.000    0.714    0.000    0.000    0.000    0.000 
#    0.000    0.000    0.000    0.000    0.000    0.000 
#
# Total GULP energy -155881.117321 kJ/mol
# GULP energy per Si atom -5567.182761 kJ/mol
# Density = 1.716364 g / cm^3
# Si number density = 17.202790 Si / 1000 Ang^3
#
#
#
# Elastic Constant Matrix: (Units=GPa)
#
#
# Indices 1 2 3 4 5 6 
#
# 1 144.2099 47.1174 39.9324 0.0000 10.1554 0.0000
# 2 47.1174 61.4085 5.4805 0.0000 9.2854 0.0000
# 3 39.9324 5.4805 53.7288 0.0000 -1.9840 0.0000
# 4 0.0000 0.0000 0.0000 14.0801 0.0000 1.7668
# 5 10.1554 9.2854 -1.9840 0.0000 26.4953 0.0000
# 6 0.0000 0.0000 0.0000 1.7668 0.0000 24.6912
#
#
#
# Elastic Compliance Matrix: (Units=1/GPa)
#
#
# Indices 1 2 3 4 5 6 
#
# 1 0.012032 -0.008141 -0.008200 0.000000 -0.002373 0.000000
# 2 -0.008141 0.022917 0.003542 0.000000 -0.004646 0.000000
# 3 -0.008200 0.003542 0.024483 0.000000 0.003735 0.000000
# 4 0.000000 0.000000 0.000000 0.071666 0.000000 -0.005128
# 5 -0.002373 -0.004646 0.003735 0.000000 0.040560 0.000000
# 6 0.000000 0.000000 0.000000 -0.005128 0.000000 0.040867
#
#
# Mechanical properties :
#
#
# Convention : Reuss Voigt Hill
#
# Bulk Modulus (GPa) = 29.55645 49.37865 39.46755
# Shear Modulus (GPa) = 20.04802 24.17444 22.11123
#
# Velocity S-wave (km/s) = 3.41749 3.75275 3.58904
# Velocity P-wave (km/s) = 5.72633 6.89519 6.33776
#
# Compressibility (1/GPa) = 0.03383356
#
# Stress axis : x y z
#
# Youngs Moduli (GPa) = 83.11249 43.63495 40.84514
#
# Poissons Ratio (x) = 0.35524 0.33491
# Poissons Ratio (y) = 0.67664 -0.14466
# Poissons Ratio (z) = 0.68148 -0.15454
#
# Static dielectric constant tensor:
#      x y z
#    x 1.614310 0.000000 -0.009290 
#    y 0.000000 1.585260 0.000000 
#    z -0.009290 0.000000 1.590830 
# 
# From -- ./inp_files/89638.got.cif
#   From: 2010.05.17/outbox.cif.g08.bks.cpg/sg15_45_cif.got.tgz:89638.got - 2010.06.03 18:47:42.
