data_PCOD9261308
_publ_section_title
;
Structure prediction by ZEFSAII (Michael W. Deem and Ramdas Pophale) SiO2 
 PCOD9261308
Probable space group: C 2/C
;
_chemical_formula_sum "Si O2"
_cell_formula_units_Z 40
_cell_length_a 22.437691
_cell_length_b 9.746830
_cell_length_c 7.502956
_cell_angle_alpha 90.000000
_cell_angle_beta 117.530865
_cell_angle_gamma 90.000000
_cell_volume 1455.060361
_symmetry_space_group_name_H-M "C 2/C"
_symmetry_group_IT_number 15
_symmetry_cell_setting 'monoclinic'
loop_
_space_group_symop_operation_xyz
x,y,z
-x,y,1/2-z
-x,-y,-z
x,-y,1/2+z
1/2+x,1/2+y,z
1/2-x,1/2+y,1/2-z
1/2-x,1/2-y,-z
1/2+x,1/2-y,1/2+z
loop_
_atom_site_type_symbol
_atom_site_label
_atom_site_fract_x
_atom_site_fract_y
_atom_site_fract_z
Si Si1 0.435429 0.716923 0.958199
Si Si2 0.568140 0.965207 0.944461
Si Si3 0.418095 0.319668 0.842719
Si Si4 0.727693 0.690280 0.276378
Si Si5 0.678576 0.849133 0.883135
O O1 0.372029 0.722911 0.739685
O O2 0.505119 0.649895 0.989894
O O3 0.418865 0.660716 0.131070
O O4 0.445013 0.880333 0.011298
O O5 0.500000 0.923469 0.750000
O O6 0.628653 0.962956 0.888245
O O7 0.585366 0.839562 0.099421
O O8 0.346274 0.376794 0.808024
O O9 0.750000 0.750000 0.500000
O O10 0.782574 0.604016 0.240488
O O11 0.722114 0.806375 0.113579
#
# Coordination Sequence:
#
# PCOD9261308 Si02
#       5
#     8   8   8   8   8
#     4  11  18  29  47  76  99 129 171 200 250 297
#     4  11  18  28  45  74 106 130 167 207 245 297
#     4  10  19  27  45  66 100 135 168 209 240 289
#     4  10  20  35  46  60  91 141 181 206 240 286
#     4  10  21  32  48  67  95 137 177 203 245 298
#
# _framework density 27.490268
#
# number of rings (size 3 to 8) (size 9 to 14) (size 15 to 20)
#    0.000    1.600    6.000    1.800    0.000    0.000 
#    0.000    0.000    0.000    0.000    0.000    0.000 
#    0.000    0.000    0.000  104.400    0.000    2.400 
#
# Total GULP energy -111641.742718 kJ/mol
# GULP energy per Si atom -5582.087136 kJ/mol
# Density = 2.742770 g / cm^3
# Si number density = 27.490268 Si / 1000 Ang^3
#
#
#
# Elastic Constant Matrix: (Units=GPa)
#
#
# Indices 1 2 3 4 5 6 
#
# 1 273.8595 15.6411 49.3373 0.0000 -7.6683 0.0000
# 2 15.6411 73.3343 19.8125 0.0000 -1.3742 0.0000
# 3 49.3373 19.8125 178.6401 0.0000 -1.3068 0.0000
# 4 0.0000 0.0000 0.0000 13.0166 0.0000 0.8567
# 5 -7.6683 -1.3742 -1.3068 0.0000 48.3696 0.0000
# 6 0.0000 0.0000 0.0000 0.8567 0.0000 5.8231
#
#
#
# Elastic Compliance Matrix: (Units=1/GPa)
#
#
# Indices 1 2 3 4 5 6 
#
# 1 0.003880 -0.000545 -0.001007 0.000000 0.000572 0.000000
# 2 -0.000545 0.014140 -0.001416 0.000000 0.000277 0.000000
# 3 -0.001007 -0.001416 0.006033 0.000000 -0.000037 0.000000
# 4 0.000000 0.000000 0.000000 0.077576 0.000000 -0.011414
# 5 0.000572 0.000277 -0.000037 0.000000 0.020772 0.000000
# 6 0.000000 0.000000 0.000000 -0.011414 0.000000 0.173410
#
#
# Mechanical properties :
#
#
# Convention : Reuss Voigt Hill
#
# Bulk Modulus (GPa) = 55.19439 77.26841 66.23140
# Shear Modulus (GPa) = 16.24512 42.84473 29.54493
#
# Velocity S-wave (km/s) = 2.43356 3.95212 3.28188
# Velocity P-wave (km/s) = 5.29317 6.99959 6.20532
#
# Compressibility (1/GPa) = 0.01811778
#
# Stress axis : x y z
#
# Youngs Moduli (GPa) = 257.72743 70.72110 165.76293
#
# Poissons Ratio (x) = 0.03853 0.16692
# Poissons Ratio (y) = 0.14040 0.23468
# Poissons Ratio (z) = 0.25953 0.10012
#
# Static dielectric constant tensor:
#      x y z
#    x 2.327510 0.000000 0.060530 
#    y 0.000000 2.146980 0.000000 
#    z 0.060530 0.000000 2.232060 
# 
# From -- ./inp_files/61096.got.cif
#   From: 2010.05.17/outbox.cif.g08.bks.cpg/sg15_31_cif.got.tgz:61096.got - 2010.06.03 18:47:42.
