data_PCOD9261926
_publ_section_title
;
Structure prediction by ZEFSAII (Michael W. Deem and Ramdas Pophale) SiO2 
 PCOD9261926
Probable space group: C 2/C
;
_chemical_formula_sum "Si O2"
_cell_formula_units_Z 52
_cell_length_a 25.272268
_cell_length_b 22.287436
_cell_length_c 5.722069
_cell_angle_alpha 90.000000
_cell_angle_beta 69.369422
_cell_angle_gamma 90.000000
_cell_volume 3016.294206
_symmetry_space_group_name_H-M "C 2/C"
_symmetry_group_IT_number 15
_symmetry_cell_setting 'monoclinic'
loop_
_space_group_symop_operation_xyz
x,y,z
-x,y,1/2-z
-x,-y,-z
x,-y,1/2+z
1/2+x,1/2+y,z
1/2-x,1/2+y,1/2-z
1/2-x,1/2-y,-z
1/2+x,1/2-y,1/2+z
loop_
_atom_site_type_symbol
_atom_site_label
_atom_site_fract_x
_atom_site_fract_y
_atom_site_fract_z
Si Si1 0.706777 0.164674 0.995660
Si Si2 0.210731 0.521296 0.012364
Si Si3 0.946583 0.636299 0.960107
Si Si4 0.581858 0.018194 0.255575
Si Si5 0.390214 0.776441 0.180585
Si Si6 0.000000 0.274089 0.750000
Si Si7 0.297748 0.738890 0.615598
O O1 0.707229 0.093318 0.002678
O O2 0.696334 0.198945 0.253807
O O3 0.656756 0.192424 0.912248
O O4 0.769079 0.188247 0.819354
O O5 0.235951 0.502536 0.226483
O O6 0.146331 0.495309 0.122626
O O7 0.912392 0.670212 0.813220
O O8 0.000000 0.605901 0.750000
O O9 0.916304 0.586803 0.161966
O O10 0.971716 0.685490 0.094048
O O11 0.557811 0.985550 0.527756
O O12 0.356685 0.728950 0.393460
O O13 0.443951 0.747642 0.962837
O O14 0.250000 0.750000 0.500000
#
# Coordination Sequence:
#
# PCOD9261926 Si02
#       7
#     8   8   8   8   8   4   8
#     4  10  20  34  52  73  98 126 171 210 253 306
#     4  10  22  33  50  72  98 132 165 206 257 305
#     4  10  22  33  46  61  86 123 162 208 254 296
#     4  10  22  33  46  63  85 121 166 213 257 291
#     4  10  19  32  50  69  94 124 165 206 255 303
#     4  10  20  32  46  66  90 124 160 202 254 304
#     4   9  19  32  53  74  94 125 162 212 255 298
#
# _framework density 17.239695999999999
#
# number of rings (size 3 to 8) (size 9 to 14) (size 15 to 20)
#    0.000    2.154    0.000    2.769   15.077    0.615 
#    0.000    0.000    0.000    0.000    0.000    0.000 
#    0.000    0.000    0.000    1.385    0.000    6.308 
#
# Total GULP energy -144760.655431 kJ/mol
# GULP energy per Si atom -5567.717517 kJ/mol
# Density = 1.720046 g / cm^3
# Si number density = 17.239696 Si / 1000 Ang^3
#
#
#
# Elastic Constant Matrix: (Units=GPa)
#
#
# Indices 1 2 3 4 5 6 
#
# 1 51.2041 12.1320 33.2332 0.0000 -2.5642 0.0000
# 2 12.1320 34.0985 21.2815 0.0000 -5.0391 0.0000
# 3 33.2332 21.2815 115.6945 0.0000 -10.7558 0.0000
# 4 0.0000 0.0000 0.0000 6.1192 0.0000 -8.0439
# 5 -2.5642 -5.0391 -10.7558 0.0000 52.9384 0.0000
# 6 0.0000 0.0000 0.0000 -8.0439 0.0000 7.6817
#
#
#
# Elastic Compliance Matrix: (Units=1/GPa)
#
#
# Indices 1 2 3 4 5 6 
#
# 1 0.024732 -0.004987 -0.006238 0.000000 -0.000544 0.000000
# 2 -0.004987 0.034335 -0.004690 0.000000 0.002074 0.000000
# 3 -0.006238 -0.004690 0.011445 0.000000 0.001577 0.000000
# 4 0.000000 0.000000 0.000000 -0.434029 0.000000 -0.454495
# 5 -0.000544 0.002074 0.001577 0.000000 0.019381 0.000000
# 6 0.000000 0.000000 0.000000 -0.454495 0.000000 -0.345747
#
#
# Mechanical properties :
#
#
# Convention : Reuss Voigt Hill
#
# Bulk Modulus (GPa) = 25.85190 37.14338 31.49764
# Shear Modulus (GPa) = -7.75004 22.30457 7.27726
#
# Velocity S-wave (km/s) = -2.12255 3.60083 2.05679
# Velocity P-wave (km/s) = 3.00352 6.23539 4.89393
#
# Compressibility (1/GPa) = 0.03868187
#
# Stress axis : x y z
#
# Youngs Moduli (GPa) = 40.43272 29.12477 87.37761
#
# Poissons Ratio (x) = 0.14524 0.54503
# Poissons Ratio (y) = 0.20164 0.40984
# Poissons Ratio (z) = 0.25220 0.13661
#
# Static dielectric constant tensor:
#      x y z
#    x 1.652100 0.000000 -0.000110 
#    y 0.000000 1.561210 0.000000 
#    z -0.000110 0.000000 1.742120 
# 
# From -- ./inp_files/16074.got.cif
#   From: 2010.05.17/outbox.cif.g08.bks.cpg/sg15_9_cif.got.tgz:16074.got - 2010.06.03 18:47:42.
