data_PCOD9261516
_publ_section_title
;
Structure prediction by ZEFSAII (Michael W. Deem and Ramdas Pophale) SiO2 
 PCOD9261516
Probable space group: C 2/C
;
_chemical_formula_sum "Si O2"
_cell_formula_units_Z 60
_cell_length_a 29.616086
_cell_length_b 19.325252
_cell_length_c 5.196809
_cell_angle_alpha 90.000000
_cell_angle_beta 86.799989
_cell_angle_gamma 90.000000
_cell_volume 2969.695241
_symmetry_space_group_name_H-M "C 2/C"
_symmetry_group_IT_number 15
_symmetry_cell_setting 'monoclinic'
loop_
_space_group_symop_operation_xyz
x,y,z
-x,y,1/2-z
-x,-y,-z
x,-y,1/2+z
1/2+x,1/2+y,z
1/2-x,1/2+y,1/2-z
1/2-x,1/2-y,-z
1/2+x,1/2-y,1/2+z
loop_
_atom_site_type_symbol
_atom_site_label
_atom_site_fract_x
_atom_site_fract_y
_atom_site_fract_z
Si Si1 0.147749 0.462817 0.865297
Si Si2 0.500000 0.210834 0.250000
Si Si3 0.050627 0.026929 0.558366
Si Si4 0.460836 0.333800 0.585926
Si Si5 0.243730 0.044974 0.213266
Si Si6 0.272175 0.711836 0.244426
Si Si7 0.401305 0.825340 0.781749
Si Si8 0.622965 0.743985 0.207028
O O1 0.135354 0.522136 0.663545
O O2 0.201595 0.455218 0.822334
O O3 0.124039 0.394975 0.771671
O O4 0.483194 0.264132 0.472782
O O5 0.545152 0.168956 0.293863
O O6 0.049100 0.107927 0.622788
O O7 0.073590 0.984520 0.776144
O O8 0.000000 0.000000 0.500000
O O9 0.500000 0.364998 0.750000
O O10 0.414395 0.315393 0.739038
O O11 0.233011 0.127457 0.244495
O O12 0.229072 0.997200 0.460878
O O13 0.250000 0.750000 0.500000
O O14 0.325865 0.725223 0.242630
O O15 0.250000 0.750000 0.000000
O O16 0.382203 0.769710 0.583301
O O17 0.391898 0.801186 0.075675
#
# Coordination Sequence:
#
# PCOD9261516 Si02
#       8
#     8   4   8   8   8   8   8   8
#     4  10  20  36  58  85 112 151 194 241 286 361
#     4  10  22  36  58  84 114 166 186 246 300 348
#     4  10  19  30  50  74 105 144 195 231 278 327
#     4  11  20  36  57  81 116 149 194 239 285 347
#     4  10  21  38  62  87 122 163 202 249 318 378
#     4  12  24  42  67  94 127 164 209 266 317 368
#     4  11  22  39  60  88 125 150 204 244 297 355
#     4  11  24  38  61  92 119 157 200 248 302 355
#
# _framework density 20.204091999999999
#
# number of rings (size 3 to 8) (size 9 to 14) (size 15 to 20)
#    0.000    1.333    2.667    4.800    0.000    2.133 
#    0.000    2.000    0.000    0.000    0.000    0.000 
#    0.000    0.000    0.000    0.000    0.000    0.000 
#
# Total GULP energy -167233.095393 kJ/mol
# GULP energy per Si atom -5574.436513 kJ/mol
# Density = 2.015811 g / cm^3
# Si number density = 20.204092 Si / 1000 Ang^3
#
#
#
# Elastic Constant Matrix: (Units=GPa)
#
#
# Indices 1 2 3 4 5 6 
#
# 1 75.1890 12.5654 18.0186 0.0000 -4.7401 0.0000
# 2 12.5654 71.0821 7.7156 0.0000 -10.8145 0.0000
# 3 18.0186 7.7156 92.1932 0.0000 1.9051 0.0000
# 4 0.0000 0.0000 0.0000 31.2367 0.0000 0.5722
# 5 -4.7401 -10.8145 1.9051 0.0000 19.5393 0.0000
# 6 0.0000 0.0000 0.0000 0.5722 0.0000 44.1432
#
#
#
# Elastic Compliance Matrix: (Units=1/GPa)
#
#
# Indices 1 2 3 4 5 6 
#
# 1 0.014433 -0.001837 -0.002724 0.000000 0.002750 0.000000
# 2 -0.001837 0.015796 -0.001137 0.000000 0.008408 0.000000
# 3 -0.002724 -0.001137 0.011524 0.000000 -0.002413 0.000000
# 4 0.000000 0.000000 0.000000 0.032021 0.000000 -0.000415
# 5 0.002750 0.008408 -0.002413 0.000000 0.056735 0.000000
# 6 0.000000 0.000000 0.000000 -0.000415 0.000000 0.022659
#
#
# Mechanical properties :
#
#
# Convention : Reuss Voigt Hill
#
# Bulk Modulus (GPa) = 32.94122 35.00707 33.97414
# Shear Modulus (GPa) = 28.62344 32.32816 30.47580
#
# Velocity S-wave (km/s) = 3.76801 4.00444 3.88802
# Velocity P-wave (km/s) = 5.93887 6.22455 6.08339
#
# Compressibility (1/GPa) = 0.03035710
#
# Stress axis : x y z
#
# Youngs Moduli (GPa) = 69.28566 63.30909 86.77437
#
# Poissons Ratio (x) = 0.11632 0.23636
# Poissons Ratio (y) = 0.12730 0.09862
# Poissons Ratio (z) = 0.18873 0.07195
#
# Static dielectric constant tensor:
#      x y z
#    x 1.688800 0.000000 0.014020 
#    y 0.000000 1.768090 0.000000 
#    z 0.014020 0.000000 1.857900 
# 
# From -- ./inp_files/18365.got.cif
#   From: 2010.05.17/outbox.cif.g08.bks.cpg/sg15_10_cif.got.tgz:18365.got - 2010.06.03 18:47:42.
