data_PCOD9261197
_publ_section_title
;
Structure prediction by ZEFSAII (Michael W. Deem and Ramdas Pophale) SiO2 
 PCOD9261197
Probable space group: C 2/C
;
_chemical_formula_sum "Si O2"
_cell_formula_units_Z 64
_cell_length_a 13.653776
_cell_length_b 30.955390
_cell_length_c 11.996929
_cell_angle_alpha 90.000000
_cell_angle_beta 137.346177
_cell_angle_gamma 90.000000
_cell_volume 3435.670341
_symmetry_space_group_name_H-M "C 2/C"
_symmetry_group_IT_number 15
_symmetry_cell_setting 'monoclinic'
loop_
_space_group_symop_operation_xyz
x,y,z
-x,y,1/2-z
-x,-y,-z
x,-y,1/2+z
1/2+x,1/2+y,z
1/2-x,1/2+y,1/2-z
1/2-x,1/2-y,-z
1/2+x,1/2-y,1/2+z
loop_
_atom_site_type_symbol
_atom_site_label
_atom_site_fract_x
_atom_site_fract_y
_atom_site_fract_z
Si Si1 0.223913 0.300534 0.474639
Si Si2 0.340832 0.514684 0.821961
Si Si3 0.158936 0.920904 0.383394
Si Si4 0.229553 0.573871 0.274819
Si Si5 0.151346 0.883010 0.831597
Si Si6 0.934246 0.663628 0.846797
Si Si7 0.049707 0.629264 0.412815
Si Si8 0.642479 0.071524 0.820030
O O1 0.250000 0.250000 0.500000
O O2 0.336801 0.332517 0.627416
O O3 0.200903 0.314151 0.326642
O O4 0.076077 0.314786 0.412863
O O5 0.352344 0.540106 0.714884
O O6 0.245085 0.471776 0.727177
O O7 0.252747 0.544173 0.836972
O O8 0.500000 0.500000 0.000000
O O9 0.200811 0.932964 0.545013
O O10 0.290893 0.890758 0.457127
O O11 0.000000 0.899983 0.250000
O O12 0.318416 0.607284 0.272046
O O13 0.069058 0.592537 0.155540
O O14 0.000000 0.899986 0.750000
O O15 0.271494 0.907729 0.004743
O O16 0.917440 0.613037 0.799130
O O17 0.949161 0.664899 0.990788
O O18 0.000000 0.644958 0.250000
O O19 0.500000 0.047909 0.750000
#
# Coordination Sequence:
#
# PCOD9261197 Si02
#       8
#     8   8   8   8   8   8   8   8
#     4  10  21  36  64  99 130 160 200 259 328 402
#     4  12  25  39  59  86 127 167 228 287 333 367
#     4  11  24  40  59  84 121 166 223 272 329 372
#     4  11  24  41  58  88 123 168 222 273 321 389
#     4  11  23  37  62  92 129 160 209 263 337 392
#     4  10  18  41  64  90 131 167 209 252 319 405
#     4  10  21  40  64  91 119 175 223 260 307 390
#     4  11  21  41  64  87 120 179 216 260 329 395
#
# _framework density 18.628097
#
# number of rings (size 3 to 8) (size 9 to 14) (size 15 to 20)
#    0.000    1.250    6.250    0.750    3.500    2.500 
#    0.000    0.000    0.000    0.750    0.000    0.000 
#    0.000    0.000    0.000    0.000    0.000    0.000 
#
# Total GULP energy -178497.214708 kJ/mol
# GULP energy per Si atom -5578.037960 kJ/mol
# Density = 1.858570 g / cm^3
# Si number density = 18.628097 Si / 1000 Ang^3
#
#
#
# Elastic Constant Matrix: (Units=GPa)
#
#
# Indices 1 2 3 4 5 6 
#
# 1 124.1364 40.3916 63.2633 0.0000 3.8756 0.0000
# 2 40.3916 84.7511 39.1648 0.0000 -7.1600 0.0000
# 3 63.2633 39.1648 97.4873 0.0000 -16.9172 0.0000
# 4 0.0000 0.0000 0.0000 14.6521 0.0000 -0.9791
# 5 3.8756 -7.1600 -16.9172 0.0000 41.1127 0.0000
# 6 0.0000 0.0000 0.0000 -0.9791 0.0000 15.5287
#
#
#
# Elastic Compliance Matrix: (Units=1/GPa)
#
#
# Indices 1 2 3 4 5 6 
#
# 1 0.013515 -0.002960 -0.008498 0.000000 -0.005287 0.000000
# 2 -0.002960 0.015138 -0.003936 0.000000 0.001296 0.000000
# 3 -0.008498 -0.003936 0.018710 0.000000 0.007815 0.000000
# 4 0.000000 0.000000 0.000000 0.068538 0.000000 0.004321
# 5 -0.005287 0.001296 0.007815 0.000000 0.028263 0.000000
# 6 0.000000 0.000000 0.000000 0.004321 0.000000 0.064670
#
#
# Mechanical properties :
#
#
# Convention : Reuss Voigt Hill
#
# Bulk Modulus (GPa) = 60.33494 65.77936 63.05715
# Shear Modulus (GPa) = 20.39583 25.16237 22.77910
#
# Velocity S-wave (km/s) = 3.31251 3.67928 3.50070
# Velocity P-wave (km/s) = 6.86220 7.31013 7.08970
#
# Compressibility (1/GPa) = 0.01657414
#
# Stress axis : x y z
#
# Youngs Moduli (GPa) = 73.99163 66.05702 53.44753
#
# Poissons Ratio (x) = 0.19556 0.45422
# Poissons Ratio (y) = 0.21905 0.21035
# Poissons Ratio (z) = 0.62882 0.25998
#
# Static dielectric constant tensor:
#      x y z
#    x 1.790200 0.000000 0.035230 
#    y 0.000000 1.631820 0.000000 
#    z 0.035230 0.000000 1.712460 
# 
# From -- ./inp_files/101349.got.cif
#   From: 2010.05.17/outbox.cif.g08.bks.cpg/sg15_51_cif.got.tgz:101349.got - 2010.06.03 18:47:42.
