data_PCOD9261971
_publ_section_title
;
Structure prediction by ZEFSAII (Michael W. Deem and Ramdas Pophale) SiO2 
 PCOD9261971
Probable space group: C 2/C
;
_chemical_formula_sum "Si O2"
_cell_formula_units_Z 40
_cell_length_a 17.539519
_cell_length_b 19.264926
_cell_length_c 7.321086
_cell_angle_alpha 90.000000
_cell_angle_beta 139.666561
_cell_angle_gamma 90.000000
_cell_volume 1601.114455
_symmetry_space_group_name_H-M "C 2/C"
_symmetry_group_IT_number 15
_symmetry_cell_setting 'monoclinic'
loop_
_space_group_symop_operation_xyz
x,y,z
-x,y,1/2-z
-x,-y,-z
x,-y,1/2+z
1/2+x,1/2+y,z
1/2-x,1/2+y,1/2-z
1/2-x,1/2-y,-z
1/2+x,1/2-y,1/2+z
loop_
_atom_site_type_symbol
_atom_site_label
_atom_site_fract_x
_atom_site_fract_y
_atom_site_fract_z
Si Si1 0.402888 0.820293 0.854222
Si Si2 0.071314 0.934822 0.205705
Si Si3 0.837904 0.538826 0.191040
Si Si4 0.316109 0.316174 0.327460
Si Si5 0.133508 0.609537 0.657889
O O1 0.362909 0.927937 0.537061
O O2 0.380669 0.757064 0.950314
O O3 0.303152 0.806047 0.515222
O O4 0.532816 0.833726 0.011684
O O5 0.199771 0.966285 0.483415
O O6 0.100249 0.872106 0.120089
O O7 0.000000 0.907823 0.250000
O O8 0.000000 0.000000 0.000000
O O9 0.886820 0.461781 0.272146
O O10 0.875253 0.603804 0.385257
O O11 0.259927 0.352366 0.402810
#
# Coordination Sequence:
#
# PCOD9261971 Si02
#       5
#     8   8   8   8   8
#     4   9  18  32  53  79 107 134 173 224 264 302
#     4  10  19  32  51  74 103 139 174 216 260 307
#     4  10  20  33  55  81 105 137 180 218 263 319
#     4   9  19  32  51  80 105 134 179 219 260 311
#     4  10  19  35  56  81 108 138 173 222 269 312
#
# _framework density 24.982599
#
# number of rings (size 3 to 8) (size 9 to 14) (size 15 to 20)
#    0.000    2.800    0.000    5.400    0.000    6.400 
#    0.000    0.000    0.000    9.600    0.000    0.000 
#    0.000    0.000    0.000    0.000    0.000    0.000 
#
# Total GULP energy -111467.921494 kJ/mol
# GULP energy per Si atom -5573.396075 kJ/mol
# Density = 2.492574 g / cm^3
# Si number density = 24.982599 Si / 1000 Ang^3
#
#
#
# Elastic Constant Matrix: (Units=GPa)
#
#
# Indices 1 2 3 4 5 6 
#
# 1 127.1258 79.0494 43.1179 0.0000 51.1278 0.0000
# 2 79.0494 209.4192 42.7541 0.0000 33.1494 0.0000
# 3 43.1179 42.7541 54.8235 0.0000 30.9601 0.0000
# 4 0.0000 0.0000 0.0000 23.7146 0.0000 12.0053
# 5 51.1278 33.1494 30.9601 0.0000 42.4518 0.0000
# 6 0.0000 0.0000 0.0000 12.0053 0.0000 33.7703
#
#
#
# Elastic Compliance Matrix: (Units=1/GPa)
#
#
# Indices 1 2 3 4 5 6 
#
# 1 0.017515 -0.003625 -0.001079 0.000000 -0.017478 0.000000
# 2 -0.003625 0.006536 -0.003111 0.000000 0.001530 0.000000
# 3 -0.001079 -0.003111 0.033000 0.000000 -0.020339 0.000000
# 4 0.000000 0.000000 0.000000 0.051422 0.000000 -0.018281
# 5 -0.017478 0.001530 -0.020339 0.000000 0.058245 0.000000
# 6 0.000000 0.000000 0.000000 -0.018281 0.000000 0.036111
#
#
# Mechanical properties :
#
#
# Convention : Reuss Voigt Hill
#
# Bulk Modulus (GPa) = 24.14057 80.13460 52.13758
# Shear Modulus (GPa) = 21.52712 35.08380 28.30546
#
# Velocity S-wave (km/s) = 2.93863 3.75150 3.36967
# Velocity P-wave (km/s) = 4.60413 7.13518 6.00453
#
# Compressibility (1/GPa) = 0.04142405
#
# Stress axis : x y z
#
# Youngs Moduli (GPa) = 57.09306 152.99539 30.30268
#
# Poissons Ratio (x) = 0.55456 0.03269
# Poissons Ratio (y) = 0.20694 0.09426
# Poissons Ratio (z) = 0.06159 0.47589
#
# Static dielectric constant tensor:
#      x y z
#    x 2.138270 0.000000 -0.115610 
#    y 0.000000 2.149180 0.000000 
#    z -0.115610 0.000000 2.190270 
# 
# From -- ./inp_files/50470.got.cif
#   From: 2010.05.17/outbox.cif.g08.bks.cpg/sg15_26_cif.got.tgz:50470.got - 2010.06.03 18:47:42.
