data_PCOD9261231
_publ_section_title
;
Structure prediction by ZEFSAII (Michael W. Deem and Ramdas Pophale) SiO2 
 PCOD9261231
Probable space group: C 2/C
;
_chemical_formula_sum "Si O2"
_cell_formula_units_Z 44
_cell_length_a 25.291793
_cell_length_b 11.024704
_cell_length_c 12.826118
_cell_angle_alpha 90.000000
_cell_angle_beta 144.674210
_cell_angle_gamma 90.000000
_cell_volume 2067.943158
_symmetry_space_group_name_H-M "C 2/C"
_symmetry_group_IT_number 15
_symmetry_cell_setting 'monoclinic'
loop_
_space_group_symop_operation_xyz
x,y,z
-x,y,1/2-z
-x,-y,-z
x,-y,1/2+z
1/2+x,1/2+y,z
1/2-x,1/2+y,1/2-z
1/2-x,1/2-y,-z
1/2+x,1/2-y,1/2+z
loop_
_atom_site_type_symbol
_atom_site_label
_atom_site_fract_x
_atom_site_fract_y
_atom_site_fract_z
Si Si1 0.799294 0.069073 0.044790
Si Si2 0.968834 0.805980 0.503867
Si Si3 0.500605 0.549619 0.866696
Si Si4 0.000000 0.659821 0.750000
Si Si5 0.706662 0.817083 0.594355
Si Si6 0.786730 0.673740 0.158405
O O1 0.802860 0.181681 0.970104
O O2 0.897529 0.003313 0.212926
O O3 0.766230 0.113472 0.104634
O O4 0.729655 0.966356 0.893249
O O5 0.021014 0.851989 0.486432
O O6 0.889113 0.721952 0.334274
O O7 0.018868 0.734296 0.674479
O O8 0.938018 0.930813 0.512431
O O9 0.500000 0.597963 0.750000
O O10 0.105507 0.616896 0.940145
O O11 0.748431 0.808379 0.778358
O O12 0.750000 0.750000 0.000000
#
# Coordination Sequence:
#
# PCOD9261231 Si02
#       6
#     8   8   8   4   8   8
#     4  11  23  42  65  99 125 176 223 272 333 401
#     4  10  20  36  59  92 121 167 210 266 327 384
#     4  11  20  36  64  92 131 169 219 272 327 384
#     4  10  18  42  62  84 124 172 210 272 320 392
#     4  10  24  41  67  92 130 174 225 266 335 414
#     4  11  23  40  64  94 134 164 214 282 339 381
#
# _framework density 21.277180999999999
#
# number of rings (size 3 to 8) (size 9 to 14) (size 15 to 20)
#    0.000    1.455    4.545    1.091    2.545    2.909 
#    0.000    3.636    2.000    0.000    0.000    0.000 
#    0.000    0.000    0.000    0.000    0.000    0.000 
#
# Total GULP energy -122500.653866 kJ/mol
# GULP energy per Si atom -5568.211539 kJ/mol
# Density = 2.122875 g / cm^3
# Si number density = 21.277181 Si / 1000 Ang^3
#
#
#
# Elastic Constant Matrix: (Units=GPa)
#
#
# Indices 1 2 3 4 5 6 
#
# 1 118.8579 25.5508 43.5694 0.0000 -38.3402 0.0000
# 2 25.5508 56.1767 33.8063 0.0000 5.2381 0.0000
# 3 43.5694 33.8063 132.4712 0.0000 -33.6965 0.0000
# 4 0.0000 0.0000 0.0000 19.5031 0.0000 -1.3466
# 5 -38.3402 5.2381 -33.6965 0.0000 50.5999 0.0000
# 6 0.0000 0.0000 0.0000 -1.3466 0.0000 17.4096
#
#
#
# Elastic Compliance Matrix: (Units=1/GPa)
#
#
# Indices 1 2 3 4 5 6 
#
# 1 0.013494 -0.007346 0.000278 0.000000 0.011170 0.000000
# 2 -0.007346 0.027259 -0.008035 0.000000 -0.013739 0.000000
# 3 0.000278 -0.008035 0.011766 0.000000 0.008878 0.000000
# 4 0.000000 0.000000 0.000000 0.051549 0.000000 0.003987
# 5 0.011170 -0.013739 0.008878 0.000000 0.035561 0.000000
# 6 0.000000 0.000000 0.000000 0.003987 0.000000 0.057748
#
#
# Mechanical properties :
#
#
# Convention : Reuss Voigt Hill
#
# Bulk Modulus (GPa) = 44.81838 57.03985 50.92912
# Shear Modulus (GPa) = 21.27471 31.14114 26.20792
#
# Velocity S-wave (km/s) = 3.16552 3.82984 3.51342
# Velocity P-wave (km/s) = 5.87116 6.81345 6.35978
#
# Compressibility (1/GPa) = 0.02231227
#
# Stress axis : x y z
#
# Youngs Moduli (GPa) = 74.10753 36.68557 84.98946
#
# Poissons Ratio (x) = 0.26950 -0.02362
# Poissons Ratio (y) = 0.54441 0.68289
# Poissons Ratio (z) = -0.02060 0.29477
#
# Static dielectric constant tensor:
#      x y z
#    x 1.737180 0.000000 0.095030 
#    y 0.000000 1.768110 0.000000 
#    z 0.095030 0.000000 1.779720 
# 
# From -- ./inp_files/122743.got.cif
#   From: 2010.05.17/outbox.cif.g08.bks.cpg/sg15_62_cif.got.tgz:122743.got - 2010.06.03 18:47:42.
