data_PCOD9261665
_publ_section_title
;
Structure prediction by ZEFSAII (Michael W. Deem and Ramdas Pophale) SiO2 
 PCOD9261665
Probable space group: C 2/C
;
_chemical_formula_sum "Si O2"
_cell_formula_units_Z 56
_cell_length_a 5.180578
_cell_length_b 22.916430
_cell_length_c 27.073528
_cell_angle_alpha 90.000000
_cell_angle_beta 77.944846
_cell_angle_gamma 90.000000
_cell_volume 3143.296544
_symmetry_space_group_name_H-M "C 2/C"
_symmetry_group_IT_number 15
_symmetry_cell_setting 'monoclinic'
loop_
_space_group_symop_operation_xyz
x,y,z
-x,y,1/2-z
-x,-y,-z
x,-y,1/2+z
1/2+x,1/2+y,z
1/2-x,1/2+y,1/2-z
1/2-x,1/2-y,-z
1/2+x,1/2-y,1/2+z
loop_
_atom_site_type_symbol
_atom_site_label
_atom_site_fract_x
_atom_site_fract_y
_atom_site_fract_z
Si Si1 0.629705 0.063107 0.877805
Si Si2 0.559372 0.574067 0.445774
Si Si3 0.097593 0.171965 0.189107
Si Si4 0.215599 0.356862 0.284610
Si Si5 0.937618 0.932641 0.060082
Si Si6 0.097811 0.735122 0.189464
Si Si7 0.370805 0.922962 0.616586
O O1 0.627103 0.092014 0.824343
O O2 0.364541 0.081633 0.916756
O O3 0.877938 0.082488 0.901006
O O4 0.638021 0.992629 0.873886
O O5 0.556259 0.503226 0.444770
O O6 0.539031 0.591588 0.503816
O O7 0.306042 0.591604 0.424246
O O8 0.828782 0.592552 0.408405
O O9 0.327480 0.220646 0.172199
O O10 0.236260 0.112655 0.166203
O O11 0.000000 0.169131 0.250000
O O12 0.834011 0.190001 0.170488
O O13 0.500000 0.371804 0.250000
O O14 0.274874 0.299179 0.315004
O O15 0.000000 0.345183 0.250000
O O16 0.000000 0.727951 0.250000
#
# Coordination Sequence:
#
# PCOD9261665 Si02
#       7
#     8   8   8   8   8   8   8
#     4  10  20  32  49  76 104 130 161 196 246 304
#     4   9  17  30  49  71  99 131 164 204 240 280
#     4  10  19  32  50  72  99 129 162 201 240 284
#     4  11  21  35  53  73 100 131 165 204 241 284
#     4   9  17  31  49  71  99 130 166 204 239 281
#     4   9  18  33  51  69  89 124 173 211 232 265
#     4  10  19  31  48  76 105 129 160 195 246 305
#
# _framework density 17.815691999999999
#
# number of rings (size 3 to 8) (size 9 to 14) (size 15 to 20)
#    0.000    2.286    0.000    4.714    0.000    4.000 
#    0.000    2.143    0.000    0.000    0.000   20.000 
#    0.000    0.000    0.000    0.000    0.000    0.000 
#
# Total GULP energy -155959.422489 kJ/mol
# GULP energy per Si atom -5569.979375 kJ/mol
# Density = 1.777514 g / cm^3
# Si number density = 17.815692 Si / 1000 Ang^3
#
#
#
# Elastic Constant Matrix: (Units=GPa)
#
#
# Indices 1 2 3 4 5 6 
#
# 1 88.5881 18.0954 14.8129 0.0000 -6.5165 0.0000
# 2 18.0954 44.3527 28.3443 0.0000 -4.1540 0.0000
# 3 14.8129 28.3443 55.0112 0.0000 -6.0808 0.0000
# 4 0.0000 0.0000 0.0000 -2.2386 0.0000 -0.6152
# 5 -6.5165 -4.1540 -6.0808 0.0000 24.7789 0.0000
# 6 0.0000 0.0000 0.0000 -0.6152 0.0000 15.5644
#
#
#
# Elastic Compliance Matrix: (Units=1/GPa)
#
#
# Indices 1 2 3 4 5 6 
#
# 1 0.012489 -0.004312 -0.000882 0.000000 0.002345 0.000000
# 2 -0.004312 0.035153 -0.016883 0.000000 0.000616 0.000000
# 3 -0.000882 -0.016883 0.027523 0.000000 0.003692 0.000000
# 4 0.000000 0.000000 0.000000 -0.441912 0.000000 -0.017466
# 5 0.002345 0.000616 0.003692 0.000000 0.041983 0.000000
# 6 0.000000 0.000000 0.000000 -0.017466 0.000000 0.063559
#
#
# Mechanical properties :
#
#
# Convention : Reuss Voigt Hill
#
# Bulk Modulus (GPa) = 32.24749 34.49525 33.37137
# Shear Modulus (GPa) = -24.18799 16.06758 -4.06021
#
# Velocity S-wave (km/s) = -3.68867 3.00639 -1.51128
# Velocity P-wave (km/s) = 0.04216 5.60852 3.96571
#
# Compressibility (1/GPa) = 0.03101016
#
# Stress axis : x y z
#
# Youngs Moduli (GPa) = 80.07063 28.44697 36.33363
#
# Poissons Ratio (x) = 0.12267 0.03204
# Poissons Ratio (y) = 0.34528 0.61343
# Poissons Ratio (z) = 0.07061 0.48028
#
# Static dielectric constant tensor:
#      x y z
#    x 1.626950 0.000000 0.006210 
#    y 0.000000 1.628520 0.000000 
#    z 0.006210 0.000000 1.595280 
# 
# From -- ./inp_files/261645.got.cif
#   From: 2010.05.17/outbox.cif.g08.bks.cpg/sg15_131_cif.got.tgz:261645.got - 2010.06.03 18:47:42.
