data_PCOD9261416
_publ_section_title
;
Structure prediction by ZEFSAII (Michael W. Deem and Ramdas Pophale) SiO2 
 PCOD9261416
Probable space group: C 2/C
;
_chemical_formula_sum "Si O2"
_cell_formula_units_Z 44
_cell_length_a 21.268246
_cell_length_b 15.257452
_cell_length_c 10.914201
_cell_angle_alpha 90.000000
_cell_angle_beta 32.786913
_cell_angle_gamma 90.000000
_cell_volume 1917.860831
_symmetry_space_group_name_H-M "C 2/C"
_symmetry_group_IT_number 15
_symmetry_cell_setting 'monoclinic'
loop_
_space_group_symop_operation_xyz
x,y,z
-x,y,1/2-z
-x,-y,-z
x,-y,1/2+z
1/2+x,1/2+y,z
1/2-x,1/2+y,1/2-z
1/2-x,1/2-y,-z
1/2+x,1/2-y,1/2+z
loop_
_atom_site_type_symbol
_atom_site_label
_atom_site_fract_x
_atom_site_fract_y
_atom_site_fract_z
Si Si1 0.500000 0.742732 0.750000
Si Si2 0.918723 0.267513 0.130861
Si Si3 0.303400 0.509897 0.846663
Si Si4 0.316295 0.169539 0.035944
Si Si5 0.755678 0.830424 0.584678
Si Si6 0.514394 0.600557 0.091564
O O1 0.523762 0.800929 0.589227
O O2 0.613076 0.680896 0.578147
O O3 0.784788 0.242480 0.320509
O O4 0.910618 0.315008 0.275073
O O5 0.985184 0.176095 0.043972
O O6 0.233863 0.426629 0.913115
O O7 0.359546 0.562342 0.641230
O O8 0.416121 0.473138 0.734727
O O9 0.241059 0.579161 0.036011
O O10 0.331301 0.175442 0.157792
O O11 0.750000 0.750000 0.500000
O O12 0.500000 0.637396 0.250000
#
# Coordination Sequence:
#
# PCOD9261416 Si02
#       6
#     4   8   8   8   8   8
#     4  10  20  40  60  86 126 156 210 260 312 372
#     4   9  18  34  56  82 118 167 191 248 310 376
#     4  10  20  35  54  90 123 161 196 260 320 371
#     4   9  20  36  54  87 128 157 203 248 311 382
#     4  11  23  38  61  93 126 165 210 257 320 381
#     4  10  19  29  56  88 120 150 199 248 323 376
#
# _framework density 22.942228
#
# number of rings (size 3 to 8) (size 9 to 14) (size 15 to 20)
#    0.000    2.182    1.818    1.091    6.364    0.000 
#    6.545    0.000    0.000    1.091    2.364    0.000 
#    0.000    0.000    0.000    0.000    0.000    0.000 
#
# Total GULP energy -122842.351108 kJ/mol
# GULP energy per Si atom -5583.743232 kJ/mol
# Density = 2.289001 g / cm^3
# Si number density = 22.942228 Si / 1000 Ang^3
#
#
#
# Elastic Constant Matrix: (Units=GPa)
#
#
# Indices 1 2 3 4 5 6 
#
# 1 56.9107 21.8885 52.2827 0.0000 32.4362 0.0000
# 2 21.8885 58.3363 38.7017 0.0000 17.4385 0.0000
# 3 52.2827 38.7017 189.5041 0.0000 52.4355 0.0000
# 4 0.0000 0.0000 0.0000 33.0776 0.0000 8.3049
# 5 32.4362 17.4385 52.4355 0.0000 60.7987 0.0000
# 6 0.0000 0.0000 0.0000 8.3049 0.0000 19.6144
#
#
#
# Elastic Compliance Matrix: (Units=1/GPa)
#
#
# Indices 1 2 3 4 5 6 
#
# 1 0.029398 -0.005111 -0.004115 0.000000 -0.010669 0.000000
# 2 -0.005111 0.021110 -0.002601 0.000000 -0.001085 0.000000
# 3 -0.004115 -0.002601 0.008051 0.000000 -0.004002 0.000000
# 4 0.000000 0.000000 0.000000 0.033828 0.000000 -0.014323
# 5 -0.010669 -0.001085 -0.004002 0.000000 0.025903 0.000000
# 6 0.000000 0.000000 0.000000 -0.014323 0.000000 0.057047
#
#
# Mechanical properties :
#
#
# Convention : Reuss Voigt Hill
#
# Bulk Modulus (GPa) = 28.64941 58.94408 43.79675
# Shear Modulus (GPa) = 23.73885 35.49004 29.61444
#
# Velocity S-wave (km/s) = 3.22020 3.93737 3.59671
# Velocity P-wave (km/s) = 5.13235 6.81313 6.03157
#
# Compressibility (1/GPa) = 0.03490473
#
# Stress axis : x y z
#
# Youngs Moduli (GPa) = 34.01554 47.37200 124.21356
#
# Poissons Ratio (x) = 0.24214 0.51110
# Poissons Ratio (y) = 0.17387 0.32305
# Poissons Ratio (z) = 0.13996 0.12320
#
# Static dielectric constant tensor:
#      x y z
#    x 1.928910 0.000000 0.015970 
#    y 0.000000 1.827410 0.000000 
#    z 0.015970 0.000000 1.909070 
# 
# From -- ./inp_files/123260.got.cif
#   From: 2010.05.17/outbox.cif.g08.bks.cpg/sg15_62_cif.got.tgz:123260.got - 2010.06.03 18:47:42.
