data_PCOD9261189
_publ_section_title
;
Structure prediction by ZEFSAII (Michael W. Deem and Ramdas Pophale) SiO2 
 PCOD9261189
Probable space group: C 2/C
;
_chemical_formula_sum "Si O2"
_cell_formula_units_Z 40
_cell_length_a 14.963075
_cell_length_b 14.122838
_cell_length_c 15.280051
_cell_angle_alpha 90.000000
_cell_angle_beta 141.931255
_cell_angle_gamma 90.000000
_cell_volume 1991.020531
_symmetry_space_group_name_H-M "C 2/C"
_symmetry_group_IT_number 15
_symmetry_cell_setting 'monoclinic'
loop_
_space_group_symop_operation_xyz
x,y,z
-x,y,1/2-z
-x,-y,-z
x,-y,1/2+z
1/2+x,1/2+y,z
1/2-x,1/2+y,1/2-z
1/2-x,1/2-y,-z
1/2+x,1/2-y,1/2+z
loop_
_atom_site_type_symbol
_atom_site_label
_atom_site_fract_x
_atom_site_fract_y
_atom_site_fract_z
Si Si1 0.570038 0.416449 0.612670
Si Si2 0.500000 0.939288 0.750000
Si Si3 0.292458 0.368481 0.063345
Si Si4 0.079326 0.747742 0.486384
Si Si5 0.000000 0.037532 0.250000
Si Si6 0.593244 0.055689 0.141742
O O1 0.500000 0.500000 0.500000
O O2 0.559478 0.318432 0.551301
O O3 0.505761 0.410477 0.661074
O O4 0.738779 0.443171 0.748700
O O5 0.354810 0.883933 0.607095
O O6 0.444379 0.990876 0.793494
O O7 0.233432 0.308832 0.100014
O O8 0.361392 0.467661 0.140906
O O9 0.405648 0.313226 0.088875
O O10 0.961137 0.664760 0.394120
O O11 0.500000 0.000000 0.000000
#
# Coordination Sequence:
#
# PCOD9261189 Si02
#       6
#     8   4   8   8   4   8
#     4  12  24  43  63  99 138 173 217 280 337 395
#     4  10  18  41  61  94 128 162 206 277 325 378
#     4  10  21  37  68  97 128 163 222 273 329 378
#     4  10  22  38  64  95 129 167 217 274 326 385
#     4  12  24  41  67 100 134 182 216 273 337 400
#     4  11  24  40  64  96 132 172 225 271 335 395
#
# _framework density 20.090198999999998
#
# number of rings (size 3 to 8) (size 9 to 14) (size 15 to 20)
#    0.000    1.200    4.000    2.400    2.800    3.200 
#    0.000    2.000    0.000    0.000    0.000    0.000 
#    0.000    0.000    0.000    0.000    0.000    0.000 
#
# Total GULP energy -111602.745748 kJ/mol
# GULP energy per Si atom -5580.137287 kJ/mol
# Density = 2.004447 g / cm^3
# Si number density = 20.090199 Si / 1000 Ang^3
#
#
#
# Elastic Constant Matrix: (Units=GPa)
#
#
# Indices 1 2 3 4 5 6 
#
# 1 149.4913 50.3631 41.4797 0.0000 -26.4775 0.0000
# 2 50.3631 61.2017 41.2537 0.0000 -5.4422 0.0000
# 3 41.4797 41.2537 96.5721 0.0000 3.1912 0.0000
# 4 0.0000 0.0000 0.0000 29.7003 0.0000 2.5930
# 5 -26.4775 -5.4422 3.1912 0.0000 43.8312 0.0000
# 6 0.0000 0.0000 0.0000 2.5930 0.0000 33.4745
#
#
#
# Elastic Compliance Matrix: (Units=1/GPa)
#
#
# Indices 1 2 3 4 5 6 
#
# 1 0.010516 -0.007002 -0.001711 0.000000 0.005608 0.000000
# 2 -0.007002 0.028180 -0.009028 0.000000 -0.000073 0.000000
# 3 -0.001711 -0.009028 0.015054 0.000000 -0.003251 0.000000
# 4 0.000000 0.000000 0.000000 0.033899 0.000000 -0.002626
# 5 0.005608 -0.000073 -0.003251 0.000000 0.026430 0.000000
# 6 0.000000 0.000000 0.000000 -0.002626 0.000000 0.030077
#
#
# Mechanical properties :
#
#
# Convention : Reuss Voigt Hill
#
# Bulk Modulus (GPa) = 54.74008 63.71755 59.22882
# Shear Modulus (GPa) = 26.92103 33.01242 29.96672
#
# Velocity S-wave (km/s) = 3.66458 4.05805 3.86633
# Velocity P-wave (km/s) = 6.72398 7.33087 7.03397
#
# Compressibility (1/GPa) = 0.01826815
#
# Stress axis : x y z
#
# Youngs Moduli (GPa) = 95.09043 35.48585 66.42711
#
# Poissons Ratio (x) = 0.24846 0.11368
# Poissons Ratio (y) = 0.66580 0.59972
# Poissons Ratio (z) = 0.16273 0.32037
#
# Static dielectric constant tensor:
#      x y z
#    x 1.755650 0.000000 -0.013750 
#    y 0.000000 1.728530 0.000000 
#    z -0.013750 0.000000 1.773410 
# 
# From -- ./inp_files/154172.got.cif
#   From: 2010.05.17/outbox.cif.g08.bks.cpg/sg15_78_cif.got.tgz:154172.got - 2010.06.03 18:47:42.
