data_PCOD9261091
_publ_section_title
;
Structure prediction by ZEFSAII (Michael W. Deem and Ramdas Pophale) SiO2 
 PCOD9261091
Probable space group: C 2/C
;
_chemical_formula_sum "Si O2"
_cell_formula_units_Z 52
_cell_length_a 13.695385
_cell_length_b 19.678039
_cell_length_c 14.669313
_cell_angle_alpha 90.000000
_cell_angle_beta 141.672771
_cell_angle_gamma 90.000000
_cell_volume 2451.680807
_symmetry_space_group_name_H-M "C 2/C"
_symmetry_group_IT_number 15
_symmetry_cell_setting 'monoclinic'
loop_
_space_group_symop_operation_xyz
x,y,z
-x,y,1/2-z
-x,-y,-z
x,-y,1/2+z
1/2+x,1/2+y,z
1/2-x,1/2+y,1/2-z
1/2-x,1/2-y,-z
1/2+x,1/2-y,1/2+z
loop_
_atom_site_type_symbol
_atom_site_label
_atom_site_fract_x
_atom_site_fract_y
_atom_site_fract_z
Si Si1 0.387849 0.309530 0.306720
Si Si2 0.514753 0.914589 0.426147
Si Si3 0.792002 0.686644 0.654873
Si Si4 0.000000 0.080289 0.750000
Si Si5 0.148513 0.551431 0.500789
Si Si6 0.136634 0.299690 0.973092
Si Si7 0.323724 0.341195 0.633450
O O1 0.358436 0.323400 0.390124
O O2 0.484029 0.368002 0.324343
O O3 0.221559 0.304053 0.133274
O O4 0.473141 0.238158 0.357617
O O5 0.424242 0.861244 0.296074
O O6 0.409921 0.933959 0.437843
O O7 0.685010 0.883829 0.580660
O O8 0.555248 0.984674 0.404185
O O9 0.745485 0.668490 0.518761
O O10 0.838581 0.766280 0.689458
O O11 0.163361 0.040097 0.868429
O O12 0.122847 0.622936 0.430794
O O13 0.250000 0.250000 0.000000
O O14 0.500000 0.369882 0.750000
#
# Coordination Sequence:
#
# PCOD9261091 Si02
#       7
#     8   8   8   4   8   8   8
#     4  11  21  35  65  95 134 175 220 282 335 406
#     4  11  22  43  67  97 133 177 228 277 348 411
#     4  11  22  42  66  93 132 173 228 283 343 396
#     4  10  18  40  64 102 134 178 220 272 346 408
#     4  10  22  38  69  96 134 185 219 271 347 419
#     4  11  19  37  59 100 134 174 222 271 337 406
#     4  11  25  41  65  97 127 175 229 289 336 399
#
# _framework density 21.209938999999999
#
# number of rings (size 3 to 8) (size 9 to 14) (size 15 to 20)
#    0.000    1.231    6.154    3.231    3.231    0.000 
#    0.000    3.077    0.000    4.615    0.000    0.000 
#    0.000    0.000    0.000    0.000    0.000    0.000 
#
# Total GULP energy -145117.615255 kJ/mol
# GULP energy per Si atom -5581.446741 kJ/mol
# Density = 2.116166 g / cm^3
# Si number density = 21.209939 Si / 1000 Ang^3
#
#
#
# Elastic Constant Matrix: (Units=GPa)
#
#
# Indices 1 2 3 4 5 6 
#
# 1 113.3501 26.4125 17.5298 0.0000 6.3956 0.0000
# 2 26.4125 126.2270 33.0367 0.0000 11.5902 0.0000
# 3 17.5298 33.0367 58.3582 0.0000 17.3978 0.0000
# 4 0.0000 0.0000 0.0000 34.4542 0.0000 8.9564
# 5 6.3956 11.5902 17.3978 0.0000 34.8009 0.0000
# 6 0.0000 0.0000 0.0000 8.9564 0.0000 30.1815
#
#
#
# Elastic Compliance Matrix: (Units=1/GPa)
#
#
# Indices 1 2 3 4 5 6 
#
# 1 0.009476 -0.001448 -0.001940 0.000000 -0.000289 0.000000
# 2 -0.001448 0.009530 -0.004810 0.000000 -0.000503 0.000000
# 3 -0.001940 -0.004810 0.023335 0.000000 -0.009707 0.000000
# 4 0.000000 0.000000 0.000000 0.031450 0.000000 -0.009333
# 5 -0.000289 -0.000503 -0.009707 0.000000 0.033809 0.000000
# 6 0.000000 0.000000 0.000000 -0.009333 0.000000 0.035902
#
#
# Mechanical properties :
#
#
# Convention : Reuss Voigt Hill
#
# Bulk Modulus (GPa) = 38.54429 50.21037 44.37733
# Shear Modulus (GPa) = 29.66498 34.61773 32.14135
#
# Velocity S-wave (km/s) = 3.74389 4.04437 3.89703
# Velocity P-wave (km/s) = 6.07463 6.74786 6.42008
#
# Compressibility (1/GPa) = 0.02594418
#
# Stress axis : x y z
#
# Youngs Moduli (GPa) = 105.52834 104.92691 42.85338
#
# Poissons Ratio (x) = 0.15198 0.08315
# Poissons Ratio (y) = 0.15285 0.20613
# Poissons Ratio (z) = 0.20476 0.50471
#
# Static dielectric constant tensor:
#      x y z
#    x 1.838560 0.000000 -0.000650 
#    y 0.000000 1.806310 0.000000 
#    z -0.000650 0.000000 1.759010 
# 
# From -- ./inp_files/155563.got.cif
#   From: 2010.05.17/outbox.cif.g08.bks.cpg/sg15_78_cif.got.tgz:155563.got - 2010.06.03 18:47:42.
