data_PCOD9261556
_publ_section_title
;
Structure prediction by ZEFSAII (Michael W. Deem and Ramdas Pophale) SiO2 
 PCOD9261556
Probable space group: C 2/C
;
_chemical_formula_sum "Si O2"
_cell_formula_units_Z 64
_cell_length_a 19.045945
_cell_length_b 14.859407
_cell_length_c 15.879751
_cell_angle_alpha 90.000000
_cell_angle_beta 132.066508
_cell_angle_gamma 90.000000
_cell_volume 3336.312379
_symmetry_space_group_name_H-M "C 2/C"
_symmetry_group_IT_number 15
_symmetry_cell_setting 'monoclinic'
loop_
_space_group_symop_operation_xyz
x,y,z
-x,y,1/2-z
-x,-y,-z
x,-y,1/2+z
1/2+x,1/2+y,z
1/2-x,1/2+y,1/2-z
1/2-x,1/2-y,-z
1/2+x,1/2-y,1/2+z
loop_
_atom_site_type_symbol
_atom_site_label
_atom_site_fract_x
_atom_site_fract_y
_atom_site_fract_z
Si Si1 0.557271 0.070552 0.213026
Si Si2 0.491030 0.721915 0.837939
Si Si3 0.822694 0.198631 0.805897
Si Si4 0.329203 0.082321 0.744668
Si Si5 0.695933 0.215356 0.538496
Si Si6 0.622467 0.965184 0.027857
Si Si7 0.702567 0.836841 0.569827
Si Si8 0.608752 0.758823 0.325137
O O1 0.500000 0.043865 0.250000
O O2 0.557518 0.178397 0.210193
O O3 0.653465 0.014740 0.283328
O O4 0.487344 0.036222 0.083858
O O5 0.500000 0.686109 0.750000
O O6 0.421001 0.670154 0.843071
O O7 0.594309 0.736242 0.959515
O O8 0.775474 0.121488 0.825732
O O9 0.754771 0.222698 0.672043
O O10 0.830490 0.283883 0.873409
O O11 0.365020 0.072161 0.868503
O O12 0.384556 0.157834 0.735542
O O13 0.750000 0.250000 0.500000
O O14 0.671239 0.109912 0.507901
O O15 0.673207 0.059995 0.056817
O O16 0.648546 0.796345 0.445595
O O17 0.814136 0.814685 0.644852
O O18 0.500000 0.729955 0.250000
#
# Coordination Sequence:
#
# PCOD9261556 Si02
#       8
#     8   8   8   8   8   8   8   8
#     4  10  19  30  52  84 112 142 182 241 292 336
#     4  10  19  33  56  84 115 147 191 232 284 346
#     4  10  21  34  53  82 114 153 185 230 285 342
#     4  10  19  32  51  78 111 146 181 229 286 331
#     4  10  20  36  57  83 118 150 186 236 290 344
#     4  10  20  33  54  82 117 143 191 236 289 343
#     4  10  21  37  56  85 114 153 194 238 288 343
#     4  10  21  37  59  81 116 153 195 239 288 345
#
# _framework density 19.182855
#
# number of rings (size 3 to 8) (size 9 to 14) (size 15 to 20)
#    0.000    2.000    1.250    3.000    0.000    6.000 
#    2.250    0.000    5.500    0.000    0.000   13.125 
#    0.000    0.000    0.000    0.000    0.000    0.000 
#
# Total GULP energy -178493.253032 kJ/mol
# GULP energy per Si atom -5577.914157 kJ/mol
# Density = 1.913919 g / cm^3
# Si number density = 19.182855 Si / 1000 Ang^3
#
#
#
# Elastic Constant Matrix: (Units=GPa)
#
#
# Indices 1 2 3 4 5 6 
#
# 1 111.0490 16.0516 16.1070 0.0000 2.9859 0.0000
# 2 16.0516 39.9575 4.1986 0.0000 -1.7157 0.0000
# 3 16.1070 4.1986 56.8203 0.0000 -0.7717 0.0000
# 4 0.0000 0.0000 0.0000 17.1260 0.0000 0.1817
# 5 2.9859 -1.7157 -0.7717 0.0000 33.7559 0.0000
# 6 0.0000 0.0000 0.0000 0.1817 0.0000 23.1264
#
#
#
# Elastic Compliance Matrix: (Units=1/GPa)
#
#
# Indices 1 2 3 4 5 6 
#
# 1 0.009952 -0.003778 -0.002557 0.000000 -0.001131 0.000000
# 2 -0.003778 0.026709 -0.000880 0.000000 0.001672 0.000000
# 3 -0.002557 -0.000880 0.018398 0.000000 0.000602 0.000000
# 4 0.000000 0.000000 0.000000 0.058395 0.000000 -0.000459
# 5 -0.001131 0.001672 0.000602 0.000000 0.029823 0.000000
# 6 0.000000 0.000000 0.000000 -0.000459 0.000000 0.043244
#
#
# Mechanical properties :
#
#
# Convention : Reuss Voigt Hill
#
# Bulk Modulus (GPa) = 24.61365 31.17126 27.89246
# Shear Modulus (GPa) = 23.31062 26.23297 24.77179
#
# Velocity S-wave (km/s) = 3.48972 3.70201 3.59744
# Velocity P-wave (km/s) = 5.39412 5.87861 5.64157
#
# Compressibility (1/GPa) = 0.04062787
#
# Stress axis : x y z
#
# Youngs Moduli (GPa) = 100.47763 37.44125 54.35520
#
# Poissons Ratio (x) = 0.14145 0.13901
# Poissons Ratio (y) = 0.37960 0.04783
# Poissons Ratio (z) = 0.25697 0.03295
#
# Static dielectric constant tensor:
#      x y z
#    x 1.668720 0.000000 0.097000 
#    y 0.000000 1.711560 0.000000 
#    z 0.097000 0.000000 1.532790 
# 
# From -- ./inp_files/162577.got.cif
#   From: 2010.05.17/outbox.cif.g08.bks.cpg/sg15_82_cif.got.tgz:162577.got - 2010.06.03 18:47:42.
