data_PCOD9261961
_publ_section_title
;
Structure prediction by ZEFSAII (Michael W. Deem and Ramdas Pophale) SiO2 
 PCOD9261961
Probable space group: C 2/C
;
_chemical_formula_sum "Si O2"
_cell_formula_units_Z 60
_cell_length_a 23.526047
_cell_length_b 18.394469
_cell_length_c 22.867324
_cell_angle_alpha 90.000000
_cell_angle_beta 18.528982
_cell_angle_gamma 90.000000
_cell_volume 3144.734669
_symmetry_space_group_name_H-M "C 2/C"
_symmetry_group_IT_number 15
_symmetry_cell_setting 'monoclinic'
loop_
_space_group_symop_operation_xyz
x,y,z
-x,y,1/2-z
-x,-y,-z
x,-y,1/2+z
1/2+x,1/2+y,z
1/2-x,1/2+y,1/2-z
1/2-x,1/2-y,-z
1/2+x,1/2-y,1/2+z
loop_
_atom_site_type_symbol
_atom_site_label
_atom_site_fract_x
_atom_site_fract_y
_atom_site_fract_z
Si Si1 0.980675 0.430438 0.061489
Si Si2 0.991499 0.293293 0.878564
Si Si3 0.291121 0.492105 0.447188
Si Si4 0.147349 0.851977 0.950426
Si Si5 0.286615 0.480691 0.079802
Si Si6 0.000000 0.629046 0.250000
Si Si7 0.224877 0.120832 0.718752
Si Si8 0.815278 0.958030 0.794247
O O1 0.872360 0.457040 0.223657
O O2 0.854238 0.376959 0.148380
O O3 0.000000 0.500000 0.000000
O O4 0.177568 0.409176 0.891871
O O5 0.161959 0.317211 0.752077
O O6 0.039554 0.323924 0.768342
O O7 0.940508 0.209078 0.922299
O O8 0.821904 0.331970 0.074117
O O9 0.500000 0.471309 0.250000
O O10 0.247807 0.533623 0.549715
O O11 0.163590 0.422690 0.572103
O O12 0.271242 0.535678 0.406205
O O13 0.184466 0.931906 0.940206
O O14 0.982310 0.859942 0.066222
O O15 0.473554 0.443885 0.916130
O O16 0.213755 0.039242 0.703468
#
# Coordination Sequence:
#
# PCOD9261961 Si02
#       8
#     8   8   8   8   8   4   8   8
#     4  10  20  33  52  73  94 123 169 216 251 301
#     4  12  23  36  49  70  97 136 175 219 255 288
#     4  10  19  32  51  71  99 132 166 208 250 302
#     4  11  22  36  49  66  97 132 172 213 254 290
#     4  10  20  34  51  73  98 133 166 207 256 298
#     4  12  22  32  52  66  94 138 178 214 258 282
#     4  10  21  36  51  70  95 126 174 210 252 299
#     4   9  18  32  50  71  97 125 164 203 251 297
#
# _framework density 19.079512000000001
#
# number of rings (size 3 to 8) (size 9 to 14) (size 15 to 20)
#    0.000    1.600    4.000    2.400    0.000    6.400 
#    6.000    0.000    0.000    0.000    0.000    0.000 
#    0.000    0.000    0.000    4.800    2.133    0.533 
#
# Total GULP energy -167182.696659 kJ/mol
# GULP energy per Si atom -5572.756555 kJ/mol
# Density = 1.903609 g / cm^3
# Si number density = 19.079512 Si / 1000 Ang^3
#
#
#
# Elastic Constant Matrix: (Units=GPa)
#
#
# Indices 1 2 3 4 5 6 
#
# 1 51.0877 -3.1887 15.9051 0.0136 -16.7589 0.0005
# 2 -3.1887 6.9931 -2.8018 0.0773 -3.7462 -0.0138
# 3 15.9051 -2.8018 78.9861 0.0266 -5.8076 0.0034
# 4 0.0136 0.0773 0.0266 14.3725 0.0102 -8.1936
# 5 -16.7589 -3.7462 -5.8076 0.0102 31.9695 0.0025
# 6 0.0005 -0.0138 0.0034 -8.1936 0.0025 6.5299
#
#
#
# Elastic Compliance Matrix: (Units=1/GPa)
#
#
# Indices 1 2 3 4 5 6 
#
# 1 0.027097 0.019391 -0.003605 -0.000403 0.015822 -0.000472
# 2 0.019391 0.170188 0.004406 -0.002698 0.030910 -0.003042
# 3 -0.003605 0.004406 0.013624 -0.000158 0.001101 -0.000197
# 4 -0.000403 -0.002698 -0.000158 0.244464 -0.000659 0.306744
# 5 0.015822 0.030910 0.001101 -0.000659 0.043396 -0.000780
# 6 -0.000472 -0.003042 -0.000197 0.306744 -0.000780 0.538034
#
#
# Mechanical properties :
#
#
# Convention : Reuss Voigt Hill
#
# Bulk Modulus (GPa) = 3.97941 17.43287 10.70614
# Shear Modulus (GPa) = 4.62884 19.05121 11.84003
#
# Velocity S-wave (km/s) = 1.55928 3.16336 2.49381
# Velocity P-wave (km/s) = 2.30912 4.74334 3.73037
#
# Compressibility (1/GPa) = 0.25129357
#
# Stress axis : x y z
#
# Youngs Moduli (GPa) = 36.90390 5.87585 73.40134
#
# Poissons Ratio (x) = -0.11394 0.26462
# Poissons Ratio (y) = -0.71561 -0.32340
# Poissons Ratio (z) = 0.13304 -0.02589
#
# Static dielectric constant tensor:
#      x y z
#    x 1.727920 -0.000020 -0.055280 
#    y -0.000020 1.661170 0.000050 
#    z -0.055280 0.000050 1.722060 
# 
# From -- ./inp_files/253630.got.cif
#   From: 2010.05.17/outbox.cif.g08.bks.cpg/sg15_127_cif.got.tgz:253630.got - 2010.06.03 18:47:42.
