data_PCOD9261683
_publ_section_title
;
Structure prediction by ZEFSAII (Michael W. Deem and Ramdas Pophale) SiO2 
 PCOD9261683
Probable space group: C 2/C
;
_chemical_formula_sum "Si O2"
_cell_formula_units_Z 64
_cell_length_a 23.472757
_cell_length_b 7.731227
_cell_length_c 14.528573
_cell_angle_alpha 90.000000
_cell_angle_beta 67.045874
_cell_angle_gamma 90.000000
_cell_volume 2427.778181
_symmetry_space_group_name_H-M "C 2/C"
_symmetry_group_IT_number 15
_symmetry_cell_setting 'monoclinic'
loop_
_space_group_symop_operation_xyz
x,y,z
-x,y,1/2-z
-x,-y,-z
x,-y,1/2+z
1/2+x,1/2+y,z
1/2-x,1/2+y,1/2-z
1/2-x,1/2-y,-z
1/2+x,1/2-y,1/2+z
loop_
_atom_site_type_symbol
_atom_site_label
_atom_site_fract_x
_atom_site_fract_y
_atom_site_fract_z
Si Si1 0.861998 0.861601 0.608647
Si Si2 0.284516 0.999541 0.122684
Si Si3 0.902232 0.371647 0.462044
Si Si4 0.334075 0.671574 0.843565
Si Si5 0.443825 0.267619 0.406155
Si Si6 0.261091 0.007180 0.350206
Si Si7 0.423398 0.174880 0.157510
Si Si8 0.380228 0.806830 0.277957
O O1 0.823103 0.681788 0.612127
O O2 0.925309 0.857334 0.513068
O O3 0.812723 0.997689 0.598851
O O4 0.881060 0.844053 0.702769
O O5 0.218275 0.970023 0.119815
O O6 0.270360 0.056157 0.235935
O O7 0.330192 0.114848 0.035213
O O8 0.926937 0.564023 0.424122
O O9 0.931875 0.326693 0.542166
O O10 0.909238 0.275574 0.360049
O O11 0.392662 0.655616 0.870813
O O12 0.293717 0.844409 0.890279
O O13 0.364414 0.714506 0.725784
O O14 0.515735 0.263620 0.340484
O O15 0.307263 0.849889 0.336377
O O16 0.410558 0.981771 0.209863
#
# Coordination Sequence:
#
# PCOD9261683 Si02
#       8
#     8   8   8   8   8   8   8   8
#     4   9  19  31  48  74 102 134 172 206 260 305
#     4   9  18  32  51  74 101 134 168 212 264 293
#     4  11  19  31  50  73 105 137 165 206 261 312
#     4  10  19  31  53  75 102 137 170 211 255 305
#     4  11  20  30  51  76 104 136 172 210 249 312
#     4   9  16  33  51  68 106 132 165 217 254 299
#     4  11  20  35  45  74 112 132 165 210 258 300
#     4  10  19  31  49  74 103 138 164 205 261 311
#
# _framework density 26.361550000000001
#
# number of rings (size 3 to 8) (size 9 to 14) (size 15 to 20)
#    0.000    2.000    7.500    0.750    1.750    1.500 
#    0.000    0.625    0.000    0.750    0.000    1.750 
#    0.000    0.000    0.000    0.000    0.000    0.000 
#
# Total GULP energy -178860.670205 kJ/mol
# GULP energy per Si atom -5589.395944 kJ/mol
# Density = 2.630155 g / cm^3
# Si number density = 26.361550 Si / 1000 Ang^3
#
#
#
# Elastic Constant Matrix: (Units=GPa)
#
#
# Indices 1 2 3 4 5 6 
#
# 1 135.1248 9.6715 38.1682 0.0000 1.0741 0.0000
# 2 9.6715 72.6607 8.9416 0.0000 -2.2873 0.0000
# 3 38.1682 8.9416 87.7494 0.0000 25.7674 0.0000
# 4 0.0000 0.0000 0.0000 6.8564 0.0000 1.5490
# 5 1.0741 -2.2873 25.7674 0.0000 61.7628 0.0000
# 6 0.0000 0.0000 0.0000 1.5490 0.0000 16.1879
#
#
#
# Elastic Compliance Matrix: (Units=1/GPa)
#
#
# Indices 1 2 3 4 5 6 
#
# 1 0.008599 -0.000587 -0.004137 0.000000 0.001555 0.000000
# 2 -0.000587 0.014064 -0.001520 0.000000 0.001165 0.000000
# 3 -0.004137 -0.001520 0.015209 0.000000 -0.006330 0.000000
# 4 0.000000 0.000000 0.000000 0.149073 0.000000 -0.014264
# 5 0.001555 0.001165 -0.006330 0.000000 0.018848 0.000000
# 6 0.000000 0.000000 0.000000 -0.014264 0.000000 0.063139
#
#
# Mechanical properties :
#
#
# Convention : Reuss Voigt Hill
#
# Bulk Modulus (GPa) = 39.39348 45.45528 42.42438
# Shear Modulus (GPa) = 17.24847 32.87832 25.06340
#
# Velocity S-wave (km/s) = 2.56071 3.53541 3.08678
# Velocity P-wave (km/s) = 4.87021 5.82632 5.36959
#
# Compressibility (1/GPa) = 0.02538491
#
# Stress axis : x y z
#
# Youngs Moduli (GPa) = 116.29625 71.10141 65.75014
#
# Poissons Ratio (x) = 0.04170 0.27200
# Poissons Ratio (y) = 0.06821 0.09996
# Poissons Ratio (z) = 0.48111 0.10809
#
# Static dielectric constant tensor:
#      x y z
#    x 2.022720 0.000000 0.047550 
#    y 0.000000 2.184370 0.000000 
#    z 0.047550 0.000000 2.136270 
# 
# From -- ./inp_files/168125.got.cif
#   From: 2010.05.17/outbox.cif.g08.bks.cpg/sg15_85_cif.got.tgz:168125.got - 2010.06.03 18:47:42.
