data_PCOD9261078
_publ_section_title
;
Structure prediction by ZEFSAII (Michael W. Deem and Ramdas Pophale) SiO2 
 PCOD9261078
Probable space group: C 2/C
;
_chemical_formula_sum "Si O2"
_cell_formula_units_Z 56
_cell_length_a 9.282084
_cell_length_b 16.458331
_cell_length_c 21.563799
_cell_angle_alpha 90.000000
_cell_angle_beta 60.216387
_cell_angle_gamma 90.000000
_cell_volume 2859.104513
_symmetry_space_group_name_H-M "C 2/C"
_symmetry_group_IT_number 15
_symmetry_cell_setting 'monoclinic'
loop_
_space_group_symop_operation_xyz
x,y,z
-x,y,1/2-z
-x,-y,-z
x,-y,1/2+z
1/2+x,1/2+y,z
1/2-x,1/2+y,1/2-z
1/2-x,1/2-y,-z
1/2+x,1/2-y,1/2+z
loop_
_atom_site_type_symbol
_atom_site_label
_atom_site_fract_x
_atom_site_fract_y
_atom_site_fract_z
Si Si1 0.241475 0.794533 0.436091
Si Si2 0.530356 0.464701 0.848383
Si Si3 0.936381 0.092469 0.026224
Si Si4 0.372835 0.950493 0.719492
Si Si5 0.979208 0.567394 0.918141
Si Si6 0.168248 0.168997 0.186147
Si Si7 0.761671 0.559793 0.536221
O O1 0.250000 0.750000 0.500000
O O2 0.392040 0.858725 0.402159
O O3 0.251003 0.729435 0.379799
O O4 0.075068 0.846628 0.473485
O O5 0.583162 0.408731 0.895816
O O6 0.700601 0.491327 0.779980
O O7 0.410014 0.409759 0.831943
O O8 0.414878 0.537864 0.895796
O O9 0.774597 0.107807 0.019222
O O10 0.000000 0.000000 0.000000
O O11 0.500000 0.943077 0.750000
O O12 0.301002 0.865861 0.706791
O O13 0.452436 0.002770 0.646503
O O14 0.121151 0.594669 0.935897
O O15 0.845365 0.523117 0.991949
O O16 0.000000 0.208032 0.250000
#
# Coordination Sequence:
#
# PCOD9261078 Si02
#       7
#     8   8   8   8   8   8   8
#     4  12  23  41  65  96 133 177 214 262 337 399
#     4  10  18  40  62  90 126 168 209 255 333 376
#     4  10  19  37  63  92 122 167 213 263 314 375
#     4  11  24  38  67 100 123 170 226 270 317 384
#     4  11  22  38  64  98 127 159 228 272 304 385
#     4  10  22  42  63  88 133 178 206 260 338 404
#     4  10  20  36  62  94 124 159 207 279 312 352
#
# _framework density 19.586554
#
# number of rings (size 3 to 8) (size 9 to 14) (size 15 to 20)
#    0.000    1.429    5.714    0.857    4.000    0.571 
#    0.000    3.571    0.000    0.000    0.000    0.000 
#    0.000    0.000    0.000    0.000    0.000    0.000 
#
# Total GULP energy -156158.925767 kJ/mol
# GULP energy per Si atom -5577.104492 kJ/mol
# Density = 1.954197 g / cm^3
# Si number density = 19.586554 Si / 1000 Ang^3
#
#
#
# Elastic Constant Matrix: (Units=GPa)
#
#
# Indices 1 2 3 4 5 6 
#
# 1 125.8147 15.2628 12.8182 0.0000 18.2385 0.0000
# 2 15.2628 32.8067 12.4639 0.0000 -7.5864 0.0000
# 3 12.8182 12.4639 84.0419 0.0000 -6.1441 0.0000
# 4 0.0000 0.0000 0.0000 33.5035 0.0000 -0.6806
# 5 18.2385 -7.5864 -6.1441 0.0000 34.4555 0.0000
# 6 0.0000 0.0000 0.0000 -0.6806 0.0000 18.0533
#
#
#
# Elastic Compliance Matrix: (Units=1/GPa)
#
#
# Indices 1 2 3 4 5 6 
#
# 1 0.009694 -0.005600 -0.001128 0.000000 -0.006566 0.000000
# 2 -0.005600 0.036964 -0.003867 0.000000 0.010413 0.000000
# 3 -0.001128 -0.003867 0.012793 0.000000 0.002027 0.000000
# 4 0.000000 0.000000 0.000000 0.029870 0.000000 0.001126
# 5 -0.006566 0.010413 0.002027 0.000000 0.035153 0.000000
# 6 0.000000 0.000000 0.000000 0.001126 0.000000 0.055434
#
#
# Mechanical properties :
#
#
# Convention : Reuss Voigt Hill
#
# Bulk Modulus (GPa) = 26.13582 35.97257 31.05419
# Shear Modulus (GPa) = 23.38085 30.67703 27.02894
#
# Velocity S-wave (km/s) = 3.45877 3.96185 3.71883
# Velocity P-wave (km/s) = 5.41512 6.27170 5.85908
#
# Compressibility (1/GPa) = 0.03826167
#
# Stress axis : x y z
#
# Youngs Moduli (GPa) = 103.15435 27.05355 78.17078
#
# Poissons Ratio (x) = 0.15149 0.08818
# Poissons Ratio (y) = 0.57764 0.30225
# Poissons Ratio (z) = 0.11637 0.10460
#
# Static dielectric constant tensor:
#      x y z
#    x 1.735280 0.000000 0.030200 
#    y 0.000000 1.679090 0.000000 
#    z 0.030200 0.000000 1.744190 
# 
# From -- ./inp_files/264593.got.cif
#   From: 2010.05.17/outbox.cif.g08.bks.cpg/sg15_133_cif.got.tgz:264593.got - 2010.06.03 18:47:42.
