data_PCOD9261892
_publ_section_title
;
Structure prediction by ZEFSAII (Michael W. Deem and Ramdas Pophale) SiO2 
 PCOD9261892
Probable space group: C 2/C
;
_chemical_formula_sum "Si O2"
_cell_formula_units_Z 56
_cell_length_a 17.941935
_cell_length_b 5.815620
_cell_length_c 21.868134
_cell_angle_alpha 90.000000
_cell_angle_beta 79.838278
_cell_angle_gamma 90.000000
_cell_volume 2246.004149
_symmetry_space_group_name_H-M "C 2/C"
_symmetry_group_IT_number 15
_symmetry_cell_setting 'monoclinic'
loop_
_space_group_symop_operation_xyz
x,y,z
-x,y,1/2-z
-x,-y,-z
x,-y,1/2+z
1/2+x,1/2+y,z
1/2-x,1/2+y,1/2-z
1/2-x,1/2-y,-z
1/2+x,1/2-y,1/2+z
loop_
_atom_site_type_symbol
_atom_site_label
_atom_site_fract_x
_atom_site_fract_y
_atom_site_fract_z
Si Si1 0.662144 0.957306 0.285394
Si Si2 0.644948 0.333641 0.377064
Si Si3 0.510315 0.066954 0.675713
Si Si4 0.226137 0.647130 0.162719
Si Si5 0.170941 0.771733 0.048787
Si Si6 0.492791 0.560141 0.826138
Si Si7 0.157995 0.731675 0.508143
O O1 0.579565 0.916771 0.326368
O O2 0.720523 0.763842 0.294853
O O3 0.685464 0.178261 0.320727
O O4 0.665607 0.009251 0.212644
O O5 0.711842 0.507423 0.384441
O O6 0.572641 0.433555 0.351575
O O7 0.628923 0.205579 0.442547
O O8 0.500000 0.061140 0.750000
O O9 0.544930 0.313846 0.653938
O O10 0.537564 0.813946 0.652696
O O11 0.189897 0.809912 0.117728
O O12 0.137197 0.511509 0.044056
O O13 0.131538 0.009130 0.031969
O O14 0.250000 0.750000 0.000000
O O15 0.500000 0.561755 0.750000
O O16 0.250000 0.750000 0.500000
#
# Coordination Sequence:
#
# PCOD9261892 Si02
#       7
#     8   8   8   8   8   8   8
#     4  11  22  32  47  78 110 143 172 204 273 328
#     4  11  20  32  50  71 107 141 170 212 263 316
#     4   9  18  33  50  67  99 135 173 210 242 303
#     4  12  21  31  48  73 111 144 165 211 264 327
#     4  10  20  33  48  66  99 137 178 210 244 299
#     4   9  18  31  49  73  99 129 170 217 257 303
#     4  10  19  32  49  68  94 138 179 215 241 295
#
# _framework density 24.933168999999999
#
# number of rings (size 3 to 8) (size 9 to 14) (size 15 to 20)
#    0.000    1.714    5.714    1.714    0.000    0.000 
#    0.000    0.000    0.000    0.000    0.000    0.000 
#    0.000   78.857    0.000    0.000    0.000    0.000 
#
# Total GULP energy -155931.560402 kJ/mol
# GULP energy per Si atom -5568.984300 kJ/mol
# Density = 2.487642 g / cm^3
# Si number density = 24.933169 Si / 1000 Ang^3
#
#
#
# Elastic Constant Matrix: (Units=GPa)
#
#
# Indices 1 2 3 4 5 6 
#
# 1 55.0424 14.4493 13.5252 0.0000 8.1735 0.0000
# 2 14.4493 209.5026 21.6019 0.0000 -8.2321 0.0000
# 3 13.5252 21.6019 107.9840 0.0000 16.3086 0.0000
# 4 0.0000 0.0000 0.0000 93.2560 0.0000 25.0090
# 5 8.1735 -8.2321 16.3086 0.0000 26.6496 0.0000
# 6 0.0000 0.0000 0.0000 25.0090 0.0000 6.0114
#
#
#
# Elastic Compliance Matrix: (Units=1/GPa)
#
#
# Indices 1 2 3 4 5 6 
#
# 1 0.019717 -0.001447 -0.001321 0.000000 -0.005685 0.000000
# 2 -0.001447 0.005113 -0.001264 0.000000 0.002797 0.000000
# 3 -0.001321 -0.001264 0.010662 0.000000 -0.006510 0.000000
# 4 0.000000 0.000000 0.000000 -0.092694 0.000000 0.385632
# 5 -0.005685 0.002797 -0.006510 0.000000 0.044116 0.000000
# 6 0.000000 0.000000 0.000000 0.385632 0.000000 -1.437981
#
#
# Mechanical properties :
#
#
# Convention : Reuss Voigt Hill
#
# Bulk Modulus (GPa) = 36.46020 52.40909 44.43465
# Shear Modulus (GPa) = -3.48709 46.71358 21.61325
#
# Velocity S-wave (km/s) = -1.18390 4.33315 2.94742
# Velocity P-wave (km/s) = 3.57577 6.78973 5.42616
#
# Compressibility (1/GPa) = 0.02742716
#
# Stress axis : x y z
#
# Youngs Moduli (GPa) = 50.71862 195.57053 93.78912
#
# Poissons Ratio (x) = 0.28299 0.12393
# Poissons Ratio (y) = 0.07339 0.11855
# Poissons Ratio (z) = 0.06702 0.24721
#
# Static dielectric constant tensor:
#      x y z
#    x -0.901370 0.000000 0.016250 
#    y 0.000000 2.107170 0.000000 
#    z 0.016250 0.000000 1.954850 
# 
# From -- ./inp_files/254039.got.cif
#   From: 2010.05.17/outbox.cif.g08.bks.cpg/sg15_128_cif.got.tgz:254039.got - 2010.06.03 18:47:42.
