data_PCOD9261353
_publ_section_title
;
Structure prediction by ZEFSAII (Michael W. Deem and Ramdas Pophale) SiO2 
 PCOD9261353
Probable space group: C 2/C
;
_chemical_formula_sum "Si O2"
_cell_formula_units_Z 64
_cell_length_a 28.989138
_cell_length_b 16.545751
_cell_length_c 9.108848
_cell_angle_alpha 90.000000
_cell_angle_beta 111.620973
_cell_angle_gamma 90.000000
_cell_volume 4061.634359
_symmetry_space_group_name_H-M "C 2/C"
_symmetry_group_IT_number 15
_symmetry_cell_setting 'monoclinic'
loop_
_space_group_symop_operation_xyz
x,y,z
-x,y,1/2-z
-x,-y,-z
x,-y,1/2+z
1/2+x,1/2+y,z
1/2-x,1/2+y,1/2-z
1/2-x,1/2-y,-z
1/2+x,1/2-y,1/2+z
loop_
_atom_site_type_symbol
_atom_site_label
_atom_site_fract_x
_atom_site_fract_y
_atom_site_fract_z
Si Si1 0.188873 0.060010 0.868475
Si Si2 0.181013 0.388419 0.275098
Si Si3 0.901103 0.068062 0.245154
Si Si4 0.205715 0.520077 0.088979
Si Si5 0.734767 0.652668 0.185727
Si Si6 0.160605 0.221389 0.338973
Si Si7 0.535317 0.469028 0.410453
Si Si8 0.215887 0.193263 0.689563
O O1 0.183388 0.126220 0.733393
O O2 0.144719 0.995655 0.817752
O O3 0.241376 0.015685 0.902691
O O4 0.198324 0.111567 0.026325
O O5 0.175571 0.448738 0.132452
O O6 0.178535 0.439306 0.420940
O O7 0.149098 0.306899 0.249692
O O8 0.237451 0.354371 0.325410
O O9 0.882986 0.157960 0.190404
O O10 0.922023 0.069485 0.437127
O O11 0.939341 0.036145 0.165573
O O12 0.222823 0.588249 0.224531
O O13 0.701548 0.675540 0.287541
O O14 0.761382 0.737509 0.179450
O O15 0.186244 0.236530 0.525470
O O16 0.500000 0.422786 0.250000
O O17 0.500000 0.500000 0.500000
#
# Coordination Sequence:
#
# PCOD9261353 Si02
#       8
#     8   8   8   8   8   8   8   8
#     4  11  21  27  43  67  88 120 171 202 225 254
#     4  10  19  30  42  58  82 124 164 202 234 259
#     4  11  19  31  51  70  92 118 152 194 227 269
#     4  11  18  29  43  57  86 129 171 197 224 264
#     4  11  18  29  39  57  91 123 166 207 233 253
#     4  11  19  30  44  65  88 115 159 208 233 259
#     4   9  20  36  52  70  91 119 144 170 231 304
#     4  10  19  29  41  58  88 124 161 211 236 253
#
# _framework density 15.757204
#
# number of rings (size 3 to 8) (size 9 to 14) (size 15 to 20)
#    0.000    1.500    5.000    2.625    1.750    0.000 
#    0.000    0.000    0.000    0.000    0.000    0.000 
#    0.000    0.000    0.000   14.625    4.500    0.000 
#
# Total GULP energy -178211.602982 kJ/mol
# GULP energy per Si atom -5569.112593 kJ/mol
# Density = 1.572134 g / cm^3
# Si number density = 15.757204 Si / 1000 Ang^3
#
#
#
# Elastic Constant Matrix: (Units=GPa)
#
#
# Indices 1 2 3 4 5 6 
#
# 1 37.8381 24.8676 13.7501 0.0000 -6.4858 0.0000
# 2 24.8676 95.0664 30.7439 0.0000 -6.1593 0.0000
# 3 13.7501 30.7439 86.6681 0.0000 -0.8138 0.0000
# 4 0.0000 0.0000 0.0000 16.2298 0.0000 -8.7240
# 5 -6.4858 -6.1593 -0.8138 0.0000 16.6855 0.0000
# 6 0.0000 0.0000 0.0000 -8.7240 0.0000 9.8390
#
#
#
# Elastic Compliance Matrix: (Units=1/GPa)
#
#
# Indices 1 2 3 4 5 6 
#
# 1 0.034020 -0.007357 -0.002690 0.000000 0.010377 0.000000
# 2 -0.007357 0.013772 -0.003699 0.000000 0.002044 0.000000
# 3 -0.002690 -0.003699 0.013261 0.000000 -0.001764 0.000000
# 4 0.000000 0.000000 0.000000 0.117724 0.000000 0.104383
# 5 0.010377 0.002044 -0.001764 0.000000 0.064634 0.000000
# 6 0.000000 0.000000 0.000000 0.104383 0.000000 0.194189
#
#
# Mechanical properties :
#
#
# Convention : Reuss Voigt Hill
#
# Bulk Modulus (GPa) = 29.79692 39.81064 34.80378
# Shear Modulus (GPa) = 10.49807 18.56493 14.53150
#
# Velocity S-wave (km/s) = 2.58396 3.43620 3.04009
# Velocity P-wave (km/s) = 5.27765 6.40805 5.87012
#
# Compressibility (1/GPa) = 0.03356051
#
# Stress axis : x y z
#
# Youngs Moduli (GPa) = 29.39487 72.61127 75.41094
#
# Poissons Ratio (x) = 0.53417 0.20288
# Poissons Ratio (y) = 0.21625 0.27895
# Poissons Ratio (z) = 0.07908 0.26859
#
# Static dielectric constant tensor:
#      x y z
#    x 1.536800 0.000000 -0.010900 
#    y 0.000000 1.553740 0.000000 
#    z -0.010900 0.000000 1.580050 
# 
# From -- ./inp_files/70318.got.cif
#   From: 2010.05.17/outbox.cif.g08.bks.cpg/sg15_36_cif.got.tgz:70318.got - 2010.06.03 18:47:42.
