data_PCOD9261704
_publ_section_title
;
Structure prediction by ZEFSAII (Michael W. Deem and Ramdas Pophale) SiO2 
 PCOD9261704
Probable space group: C 2/C
;
_chemical_formula_sum "Si O2"
_cell_formula_units_Z 64
_cell_length_a 8.840127
_cell_length_b 13.016947
_cell_length_c 23.670458
_cell_angle_alpha 90.000000
_cell_angle_beta 109.791896
_cell_angle_gamma 90.000000
_cell_volume 2562.896123
_symmetry_space_group_name_H-M "C 2/C"
_symmetry_group_IT_number 15
_symmetry_cell_setting 'monoclinic'
loop_
_space_group_symop_operation_xyz
x,y,z
-x,y,1/2-z
-x,-y,-z
x,-y,1/2+z
1/2+x,1/2+y,z
1/2-x,1/2+y,1/2-z
1/2-x,1/2-y,-z
1/2+x,1/2-y,1/2+z
loop_
_atom_site_type_symbol
_atom_site_label
_atom_site_fract_x
_atom_site_fract_y
_atom_site_fract_z
Si Si1 0.395450 0.168087 0.665832
Si Si2 0.629617 0.798055 0.937570
Si Si3 0.866254 0.710275 0.892098
Si Si4 0.827970 0.523351 0.231992
Si Si5 0.734597 0.473937 0.051866
Si Si6 0.127047 0.664496 0.008037
Si Si7 0.532966 0.436054 0.610213
Si Si8 0.848144 0.098053 0.188973
O O1 0.578190 0.180223 0.664009
O O2 0.311366 0.112530 0.602256
O O3 0.333850 0.280916 0.674183
O O4 0.355230 0.091185 0.711521
O O5 0.683903 0.732285 0.888952
O O6 0.678723 0.915978 0.931978
O O7 0.750000 0.750000 0.000000
O O8 0.451223 0.803034 0.941994
O O9 0.958984 0.820090 0.911089
O O10 0.964069 0.644175 0.950536
O O11 0.689755 0.562850 0.172346
O O12 0.784416 0.540880 0.291544
O O13 0.000000 0.578083 0.250000
O O14 0.765696 0.435615 0.992421
O O15 0.564769 0.489143 0.062201
O O16 0.250000 0.750000 0.000000
O O17 0.389550 0.455183 0.635274
O O18 0.000000 0.090992 0.250000
#
# Coordination Sequence:
#
# PCOD9261704 Si02
#       8
#     8   8   8   8   8   8   8   8
#     4   9  17  32  53  73  98 136 172 208 251 303
#     4   9  17  32  53  74  99 136 176 206 248 313
#     4   8  16  33  53  70  96 138 174 200 245 313
#     4  10  19  31  50  79 103 124 166 219 256 291
#     4   9  17  32  52  73 100 136 172 208 255 306
#     4  10  19  31  50  79 108 130 165 220 262 290
#     4   8  16  33  52  68  94 136 171 198 246 314
#     4   9  17  32  53  72  98 134 169 203 252 314
#
# _framework density 24.971748000000002
#
# number of rings (size 3 to 8) (size 9 to 14) (size 15 to 20)
#    0.000    3.000    0.000    0.750    0.000    0.000 
#    0.000   21.250    0.000    0.000    0.000    0.000 
#    0.000    0.000    0.000    0.000    0.000    0.000 
#
# Total GULP energy -178242.277485 kJ/mol
# GULP energy per Si atom -5570.071171 kJ/mol
# Density = 2.491491 g / cm^3
# Si number density = 24.971748 Si / 1000 Ang^3
#
#
#
# Elastic Constant Matrix: (Units=GPa)
#
#
# Indices 1 2 3 4 5 6 
#
# 1 151.7628 41.3838 67.9122 0.0000 -67.4457 0.0000
# 2 41.3838 69.7077 30.0042 0.0000 -30.0980 0.0000
# 3 67.9122 30.0042 136.0192 0.0000 -42.1644 0.0000
# 4 0.0000 0.0000 0.0000 39.3750 0.0000 -14.5139
# 5 -67.4457 -30.0980 -42.1644 0.0000 62.0251 0.0000
# 6 0.0000 0.0000 0.0000 -14.5139 0.0000 34.6227
#
#
#
# Elastic Compliance Matrix: (Units=1/GPa)
#
#
# Indices 1 2 3 4 5 6 
#
# 1 0.013687 -0.001689 -0.002663 0.000000 0.012253 0.000000
# 2 -0.001689 0.018640 -0.001310 0.000000 0.006318 0.000000
# 3 -0.002663 -0.001310 0.009978 0.000000 0.003252 0.000000
# 4 0.000000 0.000000 0.000000 0.030038 0.000000 0.012592
# 5 0.012253 0.006318 0.003252 0.000000 0.034724 0.000000
# 6 0.000000 0.000000 0.000000 0.012592 0.000000 0.034161
#
#
# Mechanical properties :
#
#
# Convention : Reuss Voigt Hill
#
# Bulk Modulus (GPa) = 32.27611 70.67667 51.47639
# Shear Modulus (GPa) = 30.69755 41.75053 36.22404
#
# Velocity S-wave (km/s) = 3.50993 4.09334 3.81281
# Velocity P-wave (km/s) = 5.42026 7.12072 6.32787
#
# Compressibility (1/GPa) = 0.03098267
#
# Stress axis : x y z
#
# Youngs Moduli (GPa) = 73.06274 53.64756 100.21576
#
# Poissons Ratio (x) = 0.09060 0.26684
# Poissons Ratio (y) = 0.12338 0.13128
# Poissons Ratio (z) = 0.19454 0.07028
#
# Static dielectric constant tensor:
#      x y z
#    x 2.115110 0.000000 0.031370 
#    y 0.000000 1.960710 0.000000 
#    z 0.031370 0.000000 2.179500 
# 
# From -- ./inp_files/307786.got.cif
#   From: 2010.05.17/outbox.cif.g08.bks.cpg/sg15_154_cif.got.tgz:307786.got - 2010.06.03 18:47:42.
