data_PCOD9261147
_publ_section_title
;
Structure prediction by ZEFSAII (Michael W. Deem and Ramdas Pophale) SiO2 
 PCOD9261147
Probable space group: C 2/C
;
_chemical_formula_sum "Si O2"
_cell_formula_units_Z 44
_cell_length_a 22.835017
_cell_length_b 12.269432
_cell_length_c 12.798033
_cell_angle_alpha 90.000000
_cell_angle_beta 142.972603
_cell_angle_gamma 90.000000
_cell_volume 2159.272692
_symmetry_space_group_name_H-M "C 2/C"
_symmetry_group_IT_number 15
_symmetry_cell_setting 'monoclinic'
loop_
_space_group_symop_operation_xyz
x,y,z
-x,y,1/2-z
-x,-y,-z
x,-y,1/2+z
1/2+x,1/2+y,z
1/2-x,1/2+y,1/2-z
1/2-x,1/2-y,-z
1/2+x,1/2-y,1/2+z
loop_
_atom_site_type_symbol
_atom_site_label
_atom_site_fract_x
_atom_site_fract_y
_atom_site_fract_z
Si Si1 0.135378 0.985507 0.091969
Si Si2 0.385167 0.679851 0.111453
Si Si3 0.500000 0.961626 0.750000
Si Si4 0.827378 0.605686 0.413357
Si Si5 0.966876 0.839731 0.947337
Si Si6 0.051789 0.611806 0.108835
O O1 0.236567 0.024158 0.284518
O O2 0.073105 0.096555 0.009495
O O3 0.147168 0.927143 0.997916
O O4 0.067808 0.899553 0.059119
O O5 0.500000 0.701859 0.250000
O O6 0.391152 0.653721 0.242601
O O7 0.326174 0.783112 0.980667
O O8 0.444677 0.894825 0.761275
O O9 0.419233 0.039602 0.586130
O O10 0.853237 0.629176 0.328006
O O11 0.983857 0.713516 0.986831
O O12 0.000000 0.500000 0.000000
#
# Coordination Sequence:
#
# PCOD9261147 Si02
#       6
#     8   8   4   8   8   8
#     4  10  23  36  64  96 126 162 221 272 314 373
#     4  10  18  40  67  84 123 178 206 262 317 379
#     4  10  22  38  62  94 126 172 204 270 336 366
#     4  11  20  38  64  93 125 166 225 259 313 388
#     4  10  21  44  62  93 130 171 219 265 320 387
#     4  10  20  39  65  90 127 167 215 262 315 382
#
# _framework density 20.377231999999999
#
# number of rings (size 3 to 8) (size 9 to 14) (size 15 to 20)
#    0.000    1.818    4.545    1.091    0.000    5.091 
#    8.182    0.909    0.000    0.000    0.000    0.000 
#    0.000    0.000    0.000    0.000    0.000    0.000 
#
# Total GULP energy -122533.309351 kJ/mol
# GULP energy per Si atom -5569.695880 kJ/mol
# Density = 2.033085 g / cm^3
# Si number density = 20.377232 Si / 1000 Ang^3
#
#
#
# Elastic Constant Matrix: (Units=GPa)
#
#
# Indices 1 2 3 4 5 6 
#
# 1 60.1454 29.3460 46.6994 0.0000 -11.3745 0.0000
# 2 29.3460 145.2487 57.4209 0.0000 -2.7038 0.0000
# 3 46.6994 57.4209 82.6109 0.0000 -0.9167 0.0000
# 4 0.0000 0.0000 0.0000 34.0491 0.0000 -2.2826
# 5 -11.3745 -2.7038 -0.9167 0.0000 30.5611 0.0000
# 6 0.0000 0.0000 0.0000 -2.2826 0.0000 11.4043
#
#
#
# Elastic Compliance Matrix: (Units=1/GPa)
#
#
# Indices 1 2 3 4 5 6 
#
# 1 0.033616 0.001230 -0.019724 0.000000 0.012029 0.000000
# 2 0.001230 0.009551 -0.007322 0.000000 0.001083 0.000000
# 3 -0.019724 -0.007322 0.028265 0.000000 -0.007141 0.000000
# 4 0.000000 0.000000 0.000000 0.029769 0.000000 0.005958
# 5 0.012029 0.001083 -0.007141 0.000000 0.037080 0.000000
# 6 0.000000 0.000000 0.000000 0.005958 0.000000 0.088879
#
#
# Mechanical properties :
#
#
# Convention : Reuss Voigt Hill
#
# Bulk Modulus (GPa) = 50.50694 61.65972 56.08333
# Shear Modulus (GPa) = 17.51986 25.50550 21.51268
#
# Velocity S-wave (km/s) = 2.93538 3.54173 3.25271
# Velocity P-wave (km/s) = 6.02730 6.85930 6.45671
#
# Compressibility (1/GPa) = 0.01979926
#
# Stress axis : x y z
#
# Youngs Moduli (GPa) = 29.74801 104.70161 35.37991
#
# Poissons Ratio (x) = -0.12874 0.69783
# Poissons Ratio (y) = -0.03658 0.25904
# Poissons Ratio (z) = 0.58675 0.76660
#
# Static dielectric constant tensor:
#      x y z
#    x 1.839210 0.000000 -0.035840 
#    y 0.000000 1.731650 0.000000 
#    z -0.035840 0.000000 1.724630 
# 
# From -- ./inp_files/118098.got.cif
#   From: 2010.05.17/outbox.cif.g08.bks.cpg/sg15_60_cif.got.tgz:118098.got - 2010.06.03 18:47:42.
