data_PCOD9261445
_publ_section_title
;
Structure prediction by ZEFSAII (Michael W. Deem and Ramdas Pophale) SiO2 
 PCOD9261445
Probable space group: C 2/C
;
_chemical_formula_sum "Si O2"
_cell_formula_units_Z 56
_cell_length_a 26.730536
_cell_length_b 5.267016
_cell_length_c 26.473557
_cell_angle_alpha 90.000000
_cell_angle_beta 54.069907
_cell_angle_gamma 90.000000
_cell_volume 3018.052136
_symmetry_space_group_name_H-M "C 2/C"
_symmetry_group_IT_number 15
_symmetry_cell_setting 'monoclinic'
loop_
_space_group_symop_operation_xyz
x,y,z
-x,y,1/2-z
-x,-y,-z
x,-y,1/2+z
1/2+x,1/2+y,z
1/2-x,1/2+y,1/2-z
1/2-x,1/2-y,-z
1/2+x,1/2-y,1/2+z
loop_
_atom_site_type_symbol
_atom_site_label
_atom_site_fract_x
_atom_site_fract_y
_atom_site_fract_z
Si Si1 0.687741 0.589003 0.027168
Si Si2 0.366885 0.087067 0.482803
Si Si3 0.046513 0.016660 0.924177
Si Si4 0.012904 0.211986 0.640777
Si Si5 0.564079 0.986273 0.243064
Si Si6 0.925978 0.476781 0.055522
Si Si7 0.901494 0.987478 0.327913
O O1 0.682328 0.310704 0.003176
O O2 0.653353 0.548839 0.100909
O O3 0.650927 0.795999 0.016078
O O4 0.750000 0.750000 0.000000
O O5 0.425576 0.140143 0.412135
O O6 0.390299 0.100292 0.526205
O O7 0.090086 0.252838 0.911530
O O8 0.009182 0.062872 0.895235
O O9 0.080815 0.751167 0.901616
O O10 0.000000 0.000000 0.000000
O O11 0.959552 0.405204 0.689682
O O12 0.036724 0.035885 0.672952
O O13 0.500000 0.981445 0.250000
O O14 0.604237 0.212444 0.194401
O O15 0.592969 0.711872 0.216266
O O16 0.000000 0.500000 0.000000
#
# Coordination Sequence:
#
# PCOD9261445 Si02
#       7
#     8   8   8   8   8   8   8
#     4  11  23  37  54  73  98 134 187 227 264 306
#     4  11  21  33  52  75 106 145 166 207 274 303
#     4  10  19  30  45  72 110 141 170 197 243 308
#     4  10  20  31  53  75 108 151 167 200 260 322
#     4  10  19  32  45  72 100 135 177 200 242 318
#     4  10  19  30  46  72 110 139 163 201 249 323
#     4  10  21  33  48  69 100 135 171 219 251 297
#
# _framework density 18.555015000000001
#
# number of rings (size 3 to 8) (size 9 to 14) (size 15 to 20)
#    0.000    1.714    2.857    5.143    6.000    4.571 
#    0.000    0.000    0.000    0.000    0.000    0.000 
#    0.000   22.857    0.000    0.000    0.000    0.000 
#
# Total GULP energy -155990.436907 kJ/mol
# GULP energy per Si atom -5571.087032 kJ/mol
# Density = 1.851278 g / cm^3
# Si number density = 18.555015 Si / 1000 Ang^3
#
#
#
# Elastic Constant Matrix: (Units=GPa)
#
#
# Indices 1 2 3 4 5 6 
#
# 1 30.1998 -0.1341 12.0702 -0.0481 7.9971 -0.1580
# 2 -0.1341 124.4258 5.9208 -0.3986 3.7856 -0.1202
# 3 12.0702 5.9208 31.4995 -0.1965 9.4715 -0.0435
# 4 -0.0481 -0.3986 -0.1965 16.4901 -0.0250 9.4125
# 5 7.9971 3.7856 9.4715 -0.0250 20.1595 -0.0317
# 6 -0.1580 -0.1202 -0.0435 9.4125 -0.0317 25.1203
#
#
#
# Elastic Compliance Matrix: (Units=1/GPa)
#
#
# Indices 1 2 3 4 5 6 
#
# 1 0.040979 0.000968 -0.012743 -0.000197 -0.010451 0.000301
# 2 0.000968 0.008148 -0.001544 0.000199 -0.001189 -0.000034
# 3 -0.012743 -0.001544 0.041125 0.000526 -0.013976 -0.000231
# 4 -0.000197 0.000199 0.000526 0.077154 -0.000156 -0.028909
# 5 -0.010451 -0.001189 -0.013976 -0.000156 0.060540 0.000039
# 6 0.000301 -0.000034 -0.000231 -0.028909 0.000039 0.050642
#
#
# Mechanical properties :
#
#
# Convention : Reuss Voigt Hill
#
# Bulk Modulus (GPa) = 15.71969 24.64879 20.18424
# Shear Modulus (GPa) = 15.31722 23.57186 19.44454
#
# Velocity S-wave (km/s) = 2.87627 3.56810 3.24070
# Velocity P-wave (km/s) = 4.41825 5.50347 4.99044
#
# Compressibility (1/GPa) = 0.06361450
#
# Stress axis : x y z
#
# Youngs Moduli (GPa) = 24.40279 122.72654 24.31599
#
# Poissons Ratio (x) = -0.11882 0.30986
# Poissons Ratio (y) = -0.02363 0.03754
# Poissons Ratio (z) = 0.31097 0.18949
#
# Static dielectric constant tensor:
#      x y z
#    x 1.670540 0.000100 0.021250 
#    y 0.000100 1.747380 -0.000300 
#    z 0.021250 -0.000300 1.663910 
# 
# From -- ./inp_files/282842.got.cif
#   From: 2010.05.17/outbox.cif.g08.bks.cpg/sg15_142_cif.got.tgz:282842.got - 2010.06.03 18:47:42.
