data_PCOD9261494
_publ_section_title
;
Structure prediction by ZEFSAII (Michael W. Deem and Ramdas Pophale) SiO2 
 PCOD9261494
Probable space group: C 2/C
;
_chemical_formula_sum "Si O2"
_cell_formula_units_Z 60
_cell_length_a 6.375134
_cell_length_b 25.422748
_cell_length_c 26.136633
_cell_angle_alpha 90.000000
_cell_angle_beta 60.268394
_cell_angle_gamma 90.000000
_cell_volume 3678.411369
_symmetry_space_group_name_H-M "C 2/C"
_symmetry_group_IT_number 15
_symmetry_cell_setting 'monoclinic'
loop_
_space_group_symop_operation_xyz
x,y,z
-x,y,1/2-z
-x,-y,-z
x,-y,1/2+z
1/2+x,1/2+y,z
1/2-x,1/2+y,1/2-z
1/2-x,1/2-y,-z
1/2+x,1/2-y,1/2+z
loop_
_atom_site_type_symbol
_atom_site_label
_atom_site_fract_x
_atom_site_fract_y
_atom_site_fract_z
Si Si1 0.556779 0.525409 0.577745
Si Si2 0.490023 0.826830 0.148569
Si Si3 0.736868 0.093250 0.692555
Si Si4 0.209966 0.665738 0.018082
Si Si5 0.515286 0.576478 0.469941
Si Si6 0.345175 0.745547 0.546574
Si Si7 0.540849 0.098052 0.944339
Si Si8 0.500000 0.348364 0.250000
O O1 0.364602 0.554558 0.637190
O O2 0.556022 0.548242 0.520016
O O3 0.483703 0.465049 0.576565
O O4 0.818427 0.542117 0.569672
O O5 0.649739 0.855331 0.172166
O O6 0.631758 0.778608 0.106443
O O7 0.450116 0.871896 0.110365
O O8 0.229502 0.815058 0.203913
O O9 0.500000 0.071021 0.750000
O O10 0.916441 0.113856 0.714170
O O11 0.292925 0.624245 0.051563
O O12 0.970598 0.701427 0.052787
O O13 0.437877 0.703552 0.982058
O O14 0.172678 0.634212 0.969986
O O15 0.238337 0.595137 0.506475
O O16 0.250000 0.750000 0.500000
#
# Coordination Sequence:
#
# PCOD9261494 Si02
#       8
#     8   8   8   8   8   8   8   4
#     4  10  19  30  49  71 104 143 172 210 263 320
#     4  11  19  32  51  71 109 140 173 213 264 324
#     4  10  20  34  49  74 106 140 175 211 257 317
#     4  10  20  30  47  74 104 136 173 208 267 323
#     4  10  19  31  46  74 106 140 174 212 266 317
#     4  11  20  32  51  75 104 140 171 216 270 325
#     4  11  17  31  48  71 107 138 168 211 263 323
#     4  10  22  32  50  70 102 150 172 212 262 314
#
# _framework density 16.311389999999999
#
# number of rings (size 3 to 8) (size 9 to 14) (size 15 to 20)
#    0.000    1.600    5.333    1.200    0.000    0.000 
#    0.000    0.000    0.000    0.000    0.000    0.000 
#   38.000    0.000    0.000    0.000    0.000    0.000 
#
# Total GULP energy -167116.523735 kJ/mol
# GULP energy per Si atom -5570.550791 kJ/mol
# Density = 1.627426 g / cm^3
# Si number density = 16.311390 Si / 1000 Ang^3
#
#
#
# Elastic Constant Matrix: (Units=GPa)
#
#
# Indices 1 2 3 4 5 6 
#
# 1 98.1083 40.7629 28.8968 0.0000 -0.7934 0.0000
# 2 40.7629 77.8274 33.8717 0.0000 -5.1642 0.0000
# 3 28.8968 33.8717 81.6506 0.0000 -15.9331 0.0000
# 4 0.0000 0.0000 0.0000 22.9517 0.0000 6.3337
# 5 -0.7934 -5.1642 -15.9331 0.0000 27.3394 0.0000
# 6 0.0000 0.0000 0.0000 6.3337 0.0000 21.0999
#
#
#
# Elastic Compliance Matrix: (Units=1/GPa)
#
#
# Indices 1 2 3 4 5 6 
#
# 1 0.013482 -0.006030 -0.002726 0.000000 -0.002336 0.000000
# 2 -0.006030 0.018398 -0.005477 0.000000 0.000108 0.000000
# 3 -0.002726 -0.005477 0.017226 0.000000 0.008925 0.000000
# 4 0.000000 0.000000 0.000000 0.047505 0.000000 -0.014260
# 5 -0.002336 0.000108 0.008925 0.000000 0.041731 0.000000
# 6 0.000000 0.000000 0.000000 -0.014260 0.000000 0.051674
#
#
# Mechanical properties :
#
#
# Convention : Reuss Voigt Hill
#
# Bulk Modulus (GPa) = 48.44926 51.62767 50.03846
# Shear Modulus (GPa) = 22.18646 24.54853 23.36750
#
# Velocity S-wave (km/s) = 3.69207 3.88363 3.78906
# Velocity P-wave (km/s) = 6.92404 7.19932 7.06302
#
# Compressibility (1/GPa) = 0.02064015
#
# Stress axis : x y z
#
# Youngs Moduli (GPa) = 74.17156 54.35327 58.05268
#
# Poissons Ratio (x) = 0.32776 0.15824
# Poissons Ratio (y) = 0.44727 0.31795
# Poissons Ratio (z) = 0.20218 0.29769
#
# Static dielectric constant tensor:
#      x y z
#    x 1.591370 0.000000 -0.011660 
#    y 0.000000 1.590810 0.000000 
#    z -0.011660 0.000000 1.534780 
# 
# From -- ./inp_files/261924.got.cif
#   From: 2010.05.17/outbox.cif.g08.bks.cpg/sg15_131_cif.got.tgz:261924.got - 2010.06.03 18:47:42.
