data_PCOD9261798
_publ_section_title
;
Structure prediction by ZEFSAII (Michael W. Deem and Ramdas Pophale) SiO2 
 PCOD9261798
Probable space group: C 2/C
;
_chemical_formula_sum "Si O2"
_cell_formula_units_Z 48
_cell_length_a 29.711614
_cell_length_b 5.503920
_cell_length_c 22.731128
_cell_angle_alpha 90.000000
_cell_angle_beta 144.229165
_cell_angle_gamma 90.000000
_cell_volume 2172.886826
_symmetry_space_group_name_H-M "C 2/C"
_symmetry_group_IT_number 15
_symmetry_cell_setting 'monoclinic'
loop_
_space_group_symop_operation_xyz
x,y,z
-x,y,1/2-z
-x,-y,-z
x,-y,1/2+z
1/2+x,1/2+y,z
1/2-x,1/2+y,1/2-z
1/2-x,1/2-y,-z
1/2+x,1/2-y,1/2+z
loop_
_atom_site_type_symbol
_atom_site_label
_atom_site_fract_x
_atom_site_fract_y
_atom_site_fract_z
Si Si1 0.906782 0.172438 0.141296
Si Si2 0.225897 0.474762 0.755664
Si Si3 0.995486 0.641952 0.089891
Si Si4 0.859293 0.043508 0.469202
Si Si5 0.419029 0.829802 0.700258
Si Si6 0.930332 0.754596 0.439892
O O1 0.876641 0.430555 0.131986
O O2 0.000000 0.185742 0.250000
O O3 0.880356 0.930504 0.147820
O O4 0.885499 0.122765 0.051050
O O5 0.239806 0.749093 0.746966
O O6 0.268019 0.436169 0.863316
O O7 0.135308 0.424743 0.656373
O O8 0.055641 0.633353 0.205976
O O9 0.024343 0.831857 0.070565
O O10 0.912695 0.718212 0.029113
O O11 0.983200 0.397082 0.040674
O O12 0.883871 0.934496 0.432200
O O13 0.500000 0.814320 0.750000
#
# Coordination Sequence:
#
# PCOD9261798 Si02
#       6
#     8   8   8   8   8   8
#     4  10  19  31  54  78 107 137 189 233 263 315
#     4  10  21  37  56  79 116 151 191 223 277 345
#     4  11  20  35  57  84 116 145 186 236 291 332
#     4  11  20  35  58  83 113 151 192 231 284 337
#     4  10  19  33  51  81 106 141 182 233 270 322
#     4  10  22  35  54  86 117 147 181 235 291 340
#
# _framework density 22.090426999999998
#
# number of rings (size 3 to 8) (size 9 to 14) (size 15 to 20)
#    0.000    1.667    5.000    2.500    0.000    0.000 
#    0.000    0.000    0.000    2.000    0.000    0.000 
#    0.000    1.333    0.000    0.000    0.000    0.000 
#
# Total GULP energy -133754.861112 kJ/mol
# GULP energy per Si atom -5573.119213 kJ/mol
# Density = 2.204015 g / cm^3
# Si number density = 22.090427 Si / 1000 Ang^3
#
#
#
# Elastic Constant Matrix: (Units=GPa)
#
#
# Indices 1 2 3 4 5 6 
#
# 1 30.9138 3.0845 23.6689 0.0009 -17.3200 -0.0002
# 2 3.0845 106.8253 2.5161 0.0003 -3.0979 -0.0004
# 3 23.6689 2.5161 97.8321 0.0085 -15.6106 -0.0044
# 4 0.0009 0.0003 0.0085 35.6884 -0.0038 -5.0181
# 5 -17.3200 -3.0979 -15.6106 -0.0038 29.0167 0.0021
# 6 -0.0002 -0.0004 -0.0044 -5.0181 0.0021 21.4951
#
#
#
# Elastic Compliance Matrix: (Units=1/GPa)
#
#
# Indices 1 2 3 4 5 6 
#
# 1 0.054760 -0.000565 -0.008782 0.000003 0.027902 -0.000003
# 2 -0.000565 0.009397 0.000001 0.000000 0.000667 0.000000
# 3 -0.008782 0.000001 0.012591 -0.000002 0.001532 0.000002
# 4 0.000003 0.000000 -0.000002 0.028971 0.000004 0.006763
# 5 0.027902 0.000667 0.001532 0.000004 0.052013 -0.000004
# 6 -0.000003 0.000000 0.000002 0.006763 -0.000004 0.048101
#
#
# Mechanical properties :
#
#
# Convention : Reuss Voigt Hill
#
# Bulk Modulus (GPa) = 17.22451 32.67891 24.95171
# Shear Modulus (GPa) = 20.50221 30.99349 25.74785
#
# Velocity S-wave (km/s) = 3.04978 3.74977 3.41774
# Velocity P-wave (km/s) = 4.49620 5.79422 5.18598
#
# Compressibility (1/GPa) = 0.05805682
#
# Stress axis : x y z
#
# Youngs Moduli (GPa) = 18.26136 106.42036 79.42438
#
# Poissons Ratio (x) = 0.06015 0.69748
# Poissons Ratio (y) = 0.01032 -0.00011
# Poissons Ratio (z) = 0.16037 -0.00015
#
# Static dielectric constant tensor:
#      x y z
#    x 1.875180 0.000000 0.045820 
#    y 0.000000 1.911890 0.000000 
#    z 0.045820 0.000000 1.879660 
# 
# From -- ./inp_files/217765.got.cif
#   From: 2010.05.17/outbox.cif.g08.bks.cpg/sg15_109_cif.got.tgz:217765.got - 2010.06.03 18:47:42.
