data_PCOD9261736
_publ_section_title
;
Structure prediction by ZEFSAII (Michael W. Deem and Ramdas Pophale) SiO2 
 PCOD9261736
Probable space group: C 2/C
;
_chemical_formula_sum "Si O2"
_cell_formula_units_Z 56
_cell_length_a 17.767252
_cell_length_b 23.913720
_cell_length_c 9.862957
_cell_angle_alpha 90.000000
_cell_angle_beta 132.114965
_cell_angle_gamma 90.000000
_cell_volume 3108.578115
_symmetry_space_group_name_H-M "C 2/C"
_symmetry_group_IT_number 15
_symmetry_cell_setting 'monoclinic'
loop_
_space_group_symop_operation_xyz
x,y,z
-x,y,1/2-z
-x,-y,-z
x,-y,1/2+z
1/2+x,1/2+y,z
1/2-x,1/2+y,1/2-z
1/2-x,1/2-y,-z
1/2+x,1/2-y,1/2+z
loop_
_atom_site_type_symbol
_atom_site_label
_atom_site_fract_x
_atom_site_fract_y
_atom_site_fract_z
Si Si1 0.115274 0.431000 0.943309
Si Si2 0.163478 0.366515 0.267761
Si Si3 0.679412 0.701742 0.226816
Si Si4 0.662536 0.136488 0.250945
Si Si5 0.154366 0.205969 0.502443
Si Si6 0.385872 0.940412 0.053298
Si Si7 0.995209 0.726163 0.978282
O O1 0.175345 0.391167 0.912570
O O2 0.148673 0.495488 0.987035
O O3 0.000000 0.429879 0.750000
O O4 0.120656 0.405591 0.098777
O O5 0.271266 0.341932 0.350420
O O6 0.176215 0.401099 0.420014
O O7 0.079994 0.317234 0.191935
O O8 0.733723 0.658529 0.192534
O O9 0.772248 0.740561 0.388625
O O10 0.637250 0.686875 0.326093
O O11 0.590211 0.737499 0.046738
O O12 0.620059 0.088116 0.100096
O O13 0.578512 0.186658 0.151676
O O14 0.057353 0.229227 0.463939
O O15 0.500000 0.939101 0.250000
#
# Coordination Sequence:
#
# PCOD9261736 Si02
#       7
#     8   8   8   8   8   8   8
#     4  11  22  36  49  74 108 140 172 202 259 312
#     4  11  20  34  52  77 108 137 165 213 255 296
#     4   9  18  29  50  77 100 132 173 204 254 299
#     4  11  20  34  52  77 108 137 165 213 255 296
#     4   9  18  29  50  77 100 132 173 204 254 299
#     4  11  20  32  55  76  98 138 176 210 251 300
#     4  10  19  31  51  80 107 133 163 218 245 304
#
# _framework density 18.014665999999998
#
# number of rings (size 3 to 8) (size 9 to 14) (size 15 to 20)
#    0.000    1.714    4.286    1.286    4.000    2.286 
#    0.000    7.857    0.000    0.000    0.000    6.000 
#    0.000    0.000    0.000    0.000    0.000    0.000 
#
# Total GULP energy -155888.604529 kJ/mol
# GULP energy per Si atom -5567.450162 kJ/mol
# Density = 1.797366 g / cm^3
# Si number density = 18.014666 Si / 1000 Ang^3
#
#
#
# Elastic Constant Matrix: (Units=GPa)
#
#
# Indices 1 2 3 4 5 6 
#
# 1 83.2854 41.5336 11.7201 0.0000 9.9014 0.0000
# 2 41.5336 74.8473 7.0138 0.0000 10.3065 0.0000
# 3 11.7201 7.0138 26.6968 0.0000 2.9206 0.0000
# 4 0.0000 0.0000 0.0000 -9.7151 0.0000 -11.8344
# 5 9.9014 10.3065 2.9206 0.0000 26.0362 0.0000
# 6 0.0000 0.0000 0.0000 -11.8344 0.0000 -0.2946
#
#
#
# Elastic Compliance Matrix: (Units=1/GPa)
#
#
# Indices 1 2 3 4 5 6 
#
# 1 0.017435 -0.008849 -0.005049 0.000000 -0.002561 0.000000
# 2 -0.008849 0.018887 -0.000635 0.000000 -0.004040 0.000000
# 3 -0.005049 -0.000635 0.040096 0.000000 -0.002326 0.000000
# 4 0.000000 0.000000 0.000000 0.002147 0.000000 -0.086262
# 5 -0.002561 -0.004040 -0.002326 0.000000 0.041242 0.000000
# 6 0.000000 0.000000 0.000000 -0.086262 0.000000 0.070815
#
#
# Mechanical properties :
#
#
# Convention : Reuss Voigt Hill
#
# Bulk Modulus (GPa) = 21.11897 33.92937 27.52417
# Shear Modulus (GPa) = 21.23401 11.50943 16.37172
#
# Velocity S-wave (km/s) = 3.43695 2.53037 3.01790
# Velocity P-wave (km/s) = 5.24394 5.23567 5.23981
#
# Compressibility (1/GPa) = 0.04735079
#
# Stress axis : x y z
#
# Youngs Moduli (GPa) = 57.35659 52.94718 24.94039
#
# Poissons Ratio (x) = 0.46853 0.12592
# Poissons Ratio (y) = 0.50755 0.01584
# Poissons Ratio (z) = 0.28960 0.03363
#
# Static dielectric constant tensor:
#      x y z
#    x 1.681660 0.000000 0.001700 
#    y 0.000000 1.655520 0.000000 
#    z 0.001700 0.000000 1.635590 
# 
# From -- ./inp_files/42740.got.cif
#   From: 2010.05.17/outbox.cif.g08.bks.cpg/sg15_22_cif.got.tgz:42740.got - 2010.06.03 18:47:42.
