data_PCOD9261103
_publ_section_title
;
Structure prediction by ZEFSAII (Michael W. Deem and Ramdas Pophale) SiO2 
 PCOD9261103
Probable space group: C 2/C
;
_chemical_formula_sum "Si O2"
_cell_formula_units_Z 52
_cell_length_a 14.143205
_cell_length_b 10.017794
_cell_length_c 23.501808
_cell_angle_alpha 90.000000
_cell_angle_beta 39.592497
_cell_angle_gamma 90.000000
_cell_volume 2122.173349
_symmetry_space_group_name_H-M "C 2/C"
_symmetry_group_IT_number 15
_symmetry_cell_setting 'monoclinic'
loop_
_space_group_symop_operation_xyz
x,y,z
-x,y,1/2-z
-x,-y,-z
x,-y,1/2+z
1/2+x,1/2+y,z
1/2-x,1/2+y,1/2-z
1/2-x,1/2-y,-z
1/2+x,1/2-y,1/2+z
loop_
_atom_site_type_symbol
_atom_site_label
_atom_site_fract_x
_atom_site_fract_y
_atom_site_fract_z
Si Si1 0.520187 0.938008 0.898054
Si Si2 0.669492 0.274476 0.191349
Si Si3 0.786743 0.442626 0.594871
Si Si4 0.344820 0.201420 0.712649
Si Si5 0.500000 0.859880 0.250000
Si Si6 0.875103 0.137860 0.433288
Si Si7 0.790688 0.435150 0.915731
O O1 0.402505 0.869403 0.910465
O O2 0.626663 0.867030 0.894462
O O3 0.618380 0.045937 0.817991
O O4 0.410580 0.026049 0.989359
O O5 0.500000 0.263343 0.250000
O O6 0.733660 0.417894 0.145592
O O7 0.697369 0.260136 0.246181
O O8 0.753503 0.167075 0.112761
O O9 0.647635 0.392569 0.622926
O O10 0.388698 0.212934 0.758188
O O11 0.467966 0.297292 0.626997
O O12 0.609148 0.952081 0.161531
O O13 0.750000 0.250000 0.500000
O O14 0.836501 0.011104 0.490195
#
# Coordination Sequence:
#
# PCOD9261103 Si02
#       7
#     8   8   8   8   4   8   8
#     4   8  16  34  62  88 111 162 194 243 296 364
#     4  11  24  43  57  87 131 170 198 248 304 378
#     4   9  18  35  61  87 122 152 201 245 304 349
#     4  10  21  40  65  89 125 153 208 257 302 357
#     4  10  18  40  64  90 112 170 200 240 318 372
#     4  11  19  38  64  97 118 151 209 270 294 355
#     4  10  20  37  66  84 124 161 210 241 311 371
#
# _framework density 24.503181999999999
#
# number of rings (size 3 to 8) (size 9 to 14) (size 15 to 20)
#    0.000    2.154    5.385    0.000    0.000    3.077 
#    6.923    0.000    0.000    0.000    0.000    0.000 
#    0.000    0.000    0.000    0.000    0.000    0.000 
#
# Total GULP energy -145100.392249 kJ/mol
# GULP energy per Si atom -5580.784317 kJ/mol
# Density = 2.444741 g / cm^3
# Si number density = 24.503182 Si / 1000 Ang^3
#
#
#
# Elastic Constant Matrix: (Units=GPa)
#
#
# Indices 1 2 3 4 5 6 
#
# 1 171.9969 18.5734 20.0974 0.0000 24.0396 0.0000
# 2 18.5734 32.3767 -0.8068 0.0000 4.6730 0.0000
# 3 20.0974 -0.8068 32.7341 0.0000 9.7909 0.0000
# 4 0.0000 0.0000 0.0000 24.9402 0.0000 -3.0359
# 5 24.0396 4.6730 9.7909 0.0000 45.0700 0.0000
# 6 0.0000 0.0000 0.0000 -3.0359 0.0000 23.4759
#
#
#
# Elastic Compliance Matrix: (Units=1/GPa)
#
#
# Indices 1 2 3 4 5 6 
#
# 1 0.006998 -0.003736 -0.003624 0.000000 -0.002558 0.000000
# 2 -0.003736 0.033457 0.003807 0.000000 -0.002303 0.000000
# 3 -0.003624 0.003807 0.034660 0.000000 -0.005991 0.000000
# 4 0.000000 0.000000 0.000000 0.040737 0.000000 0.005268
# 5 -0.002558 -0.002303 -0.005991 0.000000 0.025093 0.000000
# 6 0.000000 0.000000 0.000000 0.005268 0.000000 0.043278
#
#
# Mechanical properties :
#
#
# Convention : Reuss Voigt Hill
#
# Bulk Modulus (GPa) = 14.70358 34.75953 24.73155
# Shear Modulus (GPa) = 23.36472 31.98013 27.67243
#
# Velocity S-wave (km/s) = 3.09129 3.61659 3.36421
# Velocity P-wave (km/s) = 4.33072 5.62638 5.02052
#
# Compressibility (1/GPa) = 0.06801064
#
# Stress axis : x y z
#
# Youngs Moduli (GPa) = 142.88848 29.88928 28.85182
#
# Poissons Ratio (x) = 0.11166 0.10455
# Poissons Ratio (y) = 0.53381 -0.10985
# Poissons Ratio (z) = 0.51778 -0.11380
#
# Static dielectric constant tensor:
#      x y z
#    x 2.008930 0.000000 0.038050 
#    y 0.000000 2.000270 0.000000 
#    z 0.038050 0.000000 1.996890 
# 
# From -- ./inp_files/269192.got.cif
#   From: 2010.05.17/outbox.cif.g08.bks.cpg/sg15_135_cif.got.tgz:269192.got - 2010.06.03 18:47:42.
