data_PCOD9261082
_publ_section_title
;
Structure prediction by ZEFSAII (Michael W. Deem and Ramdas Pophale) SiO2 
 PCOD9261082
Probable space group: C 2/C
;
_chemical_formula_sum "Si O2"
_cell_formula_units_Z 52
_cell_length_a 20.180736
_cell_length_b 9.530466
_cell_length_c 25.853235
_cell_angle_alpha 90.000000
_cell_angle_beta 29.768392
_cell_angle_gamma 90.000000
_cell_volume 2468.772436
_symmetry_space_group_name_H-M "C 2/C"
_symmetry_group_IT_number 15
_symmetry_cell_setting 'monoclinic'
loop_
_space_group_symop_operation_xyz
x,y,z
-x,y,1/2-z
-x,-y,-z
x,-y,1/2+z
1/2+x,1/2+y,z
1/2-x,1/2+y,1/2-z
1/2-x,1/2-y,-z
1/2+x,1/2-y,1/2+z
loop_
_atom_site_type_symbol
_atom_site_label
_atom_site_fract_x
_atom_site_fract_y
_atom_site_fract_z
Si Si1 0.921453 0.855326 0.383918
Si Si2 0.811226 0.725010 0.322689
Si Si3 0.205866 0.972353 0.337950
Si Si4 0.493646 0.144808 0.642614
Si Si5 0.500000 0.000599 0.250000
Si Si6 0.952512 0.937121 0.949419
Si Si7 0.323975 0.099592 0.511346
O O1 0.831099 0.915288 0.399324
O O2 0.881731 0.697324 0.426598
O O3 0.076888 0.838655 0.267440
O O4 0.887826 0.951678 0.454936
O O5 0.762902 0.628872 0.308860
O O6 0.685238 0.806050 0.431584
O O7 0.882928 0.610253 0.312168
O O8 0.091037 0.991543 0.373770
O O9 0.336869 0.881620 0.238311
O O10 0.135257 0.920191 0.439127
O O11 0.528295 0.298247 0.597978
O O12 0.519134 0.098874 0.685996
O O13 0.587591 0.037232 0.547299
#
# Coordination Sequence:
#
# PCOD9261082 Si02
#       7
#     8   8   8   8   4   8   8
#     4  11  21  37  67  95 126 172 219 263 316 394
#     4  11  19  39  66  96 126 169 221 265 314 390
#     4  10  24  45  67  87 135 174 219 264 331 387
#     4  11  25  41  69  97 132 169 212 278 333 384
#     4  10  18  40  62  96 132 164 200 266 332 378
#     4  11  26  45  64  94 131 180 215 270 330 384
#     4  11  20  37  66  97 124 168 220 262 322 387
#
# _framework density 21.063101
#
# number of rings (size 3 to 8) (size 9 to 14) (size 15 to 20)
#    0.000    1.231    6.154    0.923    4.308    1.846 
#    2.769    0.769    0.000    0.000    0.000    0.000 
#    0.000    0.000    0.000    0.000    0.000    0.000 
#
# Total GULP energy -145010.030167 kJ/mol
# GULP energy per Si atom -5577.308853 kJ/mol
# Density = 2.101516 g / cm^3
# Si number density = 21.063101 Si / 1000 Ang^3
#
#
#
# Elastic Constant Matrix: (Units=GPa)
#
#
# Indices 1 2 3 4 5 6 
#
# 1 26.6022 22.0473 -1.6323 -0.0001 4.6493 0.0001
# 2 22.0473 87.1201 28.1033 0.0007 11.1492 -0.0002
# 3 -1.6323 28.1033 85.3222 0.0012 2.7581 -0.0004
# 4 -0.0001 0.0007 0.0012 31.1916 -0.0004 4.6449
# 5 4.6493 11.1492 2.7581 -0.0004 27.4633 0.0002
# 6 0.0001 -0.0002 -0.0004 4.6449 0.0002 18.7906
#
#
#
# Elastic Compliance Matrix: (Units=1/GPa)
#
#
# Indices 1 2 3 4 5 6 
#
# 1 0.050239 -0.014133 0.005724 0.000000 -0.003343 0.000000
# 2 -0.014133 0.017483 -0.005896 0.000000 -0.004113 0.000000
# 3 0.005724 -0.005896 0.013770 0.000000 0.000042 0.000000
# 4 0.000000 0.000000 0.000000 0.033285 0.000001 -0.008228
# 5 -0.003343 -0.004113 0.000042 0.000001 0.038644 -0.000001
# 6 0.000000 0.000000 0.000000 -0.008228 -0.000001 0.055252
#
#
# Mechanical properties :
#
#
# Convention : Reuss Voigt Hill
#
# Bulk Modulus (GPa) = 18.90935 32.89788 25.90361
# Shear Modulus (GPa) = 19.61471 25.52417 22.56944
#
# Velocity S-wave (km/s) = 3.05493 3.48486 3.27695
# Velocity P-wave (km/s) = 4.63038 5.64314 5.16166
#
# Compressibility (1/GPa) = 0.05288390
#
# Stress axis : x y z
#
# Youngs Moduli (GPa) = 19.90477 57.19763 72.61914
#
# Poissons Ratio (x) = 0.80836 -0.41569
# Poissons Ratio (y) = 0.28131 0.42816
# Poissons Ratio (z) = -0.11394 0.33724
#
# Static dielectric constant tensor:
#      x y z
#    x 1.794660 0.000000 -0.001690 
#    y 0.000000 1.708180 0.000000 
#    z -0.001690 0.000000 1.846700 
# 
# From -- ./inp_files/318391.got.cif
#   From: 2010.05.17/outbox.cif.g08.bks.cpg/sg15_160_cif.got.tgz:318391.got - 2010.06.03 18:47:42.
