data_PCOD9261478
_publ_section_title
;
Structure prediction by ZEFSAII (Michael W. Deem and Ramdas Pophale) SiO2 
 PCOD9261478
Probable space group: C 2/C
;
_chemical_formula_sum "Si O2"
_cell_formula_units_Z 64
_cell_length_a 14.967219
_cell_length_b 24.179146
_cell_length_c 15.050641
_cell_angle_alpha 90.000000
_cell_angle_beta 138.546972
_cell_angle_gamma 90.000000
_cell_volume 3605.777090
_symmetry_space_group_name_H-M "C 2/C"
_symmetry_group_IT_number 15
_symmetry_cell_setting 'monoclinic'
loop_
_space_group_symop_operation_xyz
x,y,z
-x,y,1/2-z
-x,-y,-z
x,-y,1/2+z
1/2+x,1/2+y,z
1/2-x,1/2+y,1/2-z
1/2-x,1/2-y,-z
1/2+x,1/2-y,1/2+z
loop_
_atom_site_type_symbol
_atom_site_label
_atom_site_fract_x
_atom_site_fract_y
_atom_site_fract_z
Si Si1 0.130829 0.404370 0.910965
Si Si2 0.411132 0.396056 0.418381
Si Si3 0.647365 0.538800 0.020133
Si Si4 0.113514 0.070827 0.403581
Si Si5 0.172550 0.715618 0.519410
Si Si6 0.628696 0.026102 0.998237
Si Si7 0.558306 0.295799 0.191706
Si Si8 0.326486 0.972579 0.285760
O O1 0.273876 0.411349 0.967494
O O2 0.120352 0.463157 0.953802
O O3 0.000000 0.399501 0.750000
O O4 0.144265 0.348451 0.976653
O O5 0.535438 0.438438 0.502034
O O6 0.384314 0.393143 0.504279
O O7 0.450134 0.345070 0.385506
O O8 0.279257 0.424003 0.276302
O O9 0.765297 0.504814 0.156729
O O10 0.580832 0.493271 0.906387
O O11 0.260225 0.063044 0.467835
O O12 0.000000 0.089945 0.250000
O O13 0.250000 0.750000 0.500000
O O14 0.283355 0.718252 0.679429
O O15 0.029606 0.746241 0.414655
O O16 0.476890 0.048442 0.880144
O O17 0.667837 0.015817 0.129430
O O18 0.500000 0.307979 0.250000
#
# Coordination Sequence:
#
# PCOD9261478 Si02
#       8
#     8   8   8   8   8   8   8   8
#     4  11  19  31  49  75 104 146 181 216 281 337
#     4  11  21  32  53  77 111 148 188 225 272 335
#     4  10  19  30  48  72 109 148 183 223 260 327
#     4  10  20  33  51  75 111 151 191 223 269 322
#     4  10  20  34  54  76 107 137 177 228 284 343
#     4  10  20  32  51  72 114 151 179 230 266 326
#     4  10  21  38  56  82 111 143 180 235 289 343
#     4  10  19  33  47  76 111 147 190 224 270 327
#
# _framework density 17.749293999999999
#
# number of rings (size 3 to 8) (size 9 to 14) (size 15 to 20)
#    0.000    1.750    1.250    6.375    0.000    2.500 
#    0.000    0.000    2.750    0.000    0.000    0.875 
#    0.000    0.000    0.000    0.000    0.000    0.000 
#
# Total GULP energy -178293.120525 kJ/mol
# GULP energy per Si atom -5571.660016 kJ/mol
# Density = 1.770890 g / cm^3
# Si number density = 17.749294 Si / 1000 Ang^3
#
#
#
# Elastic Constant Matrix: (Units=GPa)
#
#
# Indices 1 2 3 4 5 6 
#
# 1 77.6120 16.8990 17.8387 0.0000 4.9427 0.0000
# 2 16.8990 61.1049 25.0630 0.0000 6.2432 0.0000
# 3 17.8387 25.0630 96.5334 0.0000 1.0562 0.0000
# 4 0.0000 0.0000 0.0000 19.8838 0.0000 2.2598
# 5 4.9427 6.2432 1.0562 0.0000 21.4861 0.0000
# 6 0.0000 0.0000 0.0000 2.2598 0.0000 16.2183
#
#
#
# Elastic Compliance Matrix: (Units=1/GPa)
#
#
# Indices 1 2 3 4 5 6 
#
# 1 0.014084 -0.002913 -0.001821 0.000000 -0.002304 0.000000
# 2 -0.002913 0.019492 -0.004470 0.000000 -0.004774 0.000000
# 3 -0.001821 -0.004470 0.011844 0.000000 0.001136 0.000000
# 4 0.000000 0.000000 0.000000 0.051101 0.000000 -0.007120
# 5 -0.002304 -0.004774 0.001136 0.000000 0.048403 0.000000
# 6 0.000000 0.000000 0.000000 -0.007120 0.000000 0.062651
#
#
# Mechanical properties :
#
#
# Convention : Reuss Voigt Hill
#
# Bulk Modulus (GPa) = 37.02088 39.42799 38.22444
# Shear Modulus (GPa) = 21.27772 23.21429 22.24601
#
# Velocity S-wave (km/s) = 3.46611 3.62041 3.54410
# Velocity P-wave (km/s) = 6.07631 6.30385 6.19113
#
# Compressibility (1/GPa) = 0.02701179
#
# Stress axis : x y z
#
# Youngs Moduli (GPa) = 71.00190 51.30276 84.43203
#
# Poissons Ratio (x) = 0.14943 0.15377
# Poissons Ratio (y) = 0.20680 0.37743
# Poissons Ratio (z) = 0.12931 0.22934
#
# Static dielectric constant tensor:
#      x y z
#    x 1.673880 0.000000 0.003230 
#    y 0.000000 1.609400 0.000000 
#    z 0.003230 0.000000 1.637870 
# 
# From -- ./inp_files/156801.got.cif
#   From: 2010.05.17/outbox.cif.g08.bks.cpg/sg15_79_cif.got.tgz:156801.got - 2010.06.03 18:47:42.
