data_PCOD9261991
_publ_section_title
;
Structure prediction by ZEFSAII (Michael W. Deem and Ramdas Pophale) SiO2 
 PCOD9261991
Probable space group: C 2/C
;
_chemical_formula_sum "Si O2"
_cell_formula_units_Z 56
_cell_length_a 13.651243
_cell_length_b 19.317947
_cell_length_c 7.872236
_cell_angle_alpha 90.000000
_cell_angle_beta 87.835514
_cell_angle_gamma 90.000000
_cell_volume 2074.537555
_symmetry_space_group_name_H-M "C 2/C"
_symmetry_group_IT_number 15
_symmetry_cell_setting 'monoclinic'
loop_
_space_group_symop_operation_xyz
x,y,z
-x,y,1/2-z
-x,-y,-z
x,-y,1/2+z
1/2+x,1/2+y,z
1/2-x,1/2+y,1/2-z
1/2-x,1/2-y,-z
1/2+x,1/2-y,1/2+z
loop_
_atom_site_type_symbol
_atom_site_label
_atom_site_fract_x
_atom_site_fract_y
_atom_site_fract_z
Si Si1 0.919041 0.475104 0.640020
Si Si2 0.174844 0.823434 0.740301
Si Si3 0.394073 0.596745 0.587366
Si Si4 0.858883 0.670493 0.058830
Si Si5 0.202869 0.613191 0.784231
Si Si6 0.576578 0.560930 0.410386
Si Si7 0.056712 0.298793 0.411172
O O1 0.852776 0.412178 0.589165
O O2 0.854755 0.539082 0.714288
O O3 0.000000 0.438273 0.750000
O O4 0.000000 0.500000 0.500000
O O5 0.136627 0.847982 0.556393
O O6 0.283531 0.796594 0.695126
O O7 0.167408 0.893397 0.848047
O O8 0.100260 0.773350 0.843675
O O9 0.317985 0.604393 0.747450
O O10 0.512076 0.596416 0.563176
O O11 0.383889 0.514428 0.543821
O O12 0.821248 0.667898 0.867201
O O13 0.967939 0.701471 0.049704
O O14 0.149048 0.652124 0.943458
O O15 0.500000 0.557190 0.250000
O O16 0.000000 0.332055 0.250000
#
# Coordination Sequence:
#
# PCOD9261991 Si02
#       7
#     8   8   8   8   8   8   8
#     4  12  20  36  60  87 123 153 186 242 295 341
#     4  10  20  33  55  81 113 144 187 240 292 344
#     4   9  18  30  50  74 110 143 185 230 290 333
#     4  10  21  35  53  86 119 147 191 237 293 344
#     4  10  19  32  52  84 114 143 187 238 287 347
#     4   9  17  32  48  75 109 145 184 233 285 346
#     4  10  19  32  51  80 113 143 187 238 289 340
#
# _framework density 26.993967000000001
#
# number of rings (size 3 to 8) (size 9 to 14) (size 15 to 20)
#    0.000    2.000    2.857    2.571    0.000    6.286 
#    0.000    0.000    0.000    0.857    0.000   27.000 
#    0.000    1.571    0.000    0.000    0.000    0.000 
#
# Total GULP energy -156021.677121 kJ/mol
# GULP energy per Si atom -5572.202754 kJ/mol
# Density = 2.693253 g / cm^3
# Si number density = 26.993967 Si / 1000 Ang^3
#
#
#
# Elastic Constant Matrix: (Units=GPa)
#
#
# Indices 1 2 3 4 5 6 
#
# 1 149.5843 48.3738 84.3189 0.0000 -73.4247 0.0000
# 2 48.3738 113.9515 42.4136 0.0000 -36.7735 0.0000
# 3 84.3189 42.4136 97.1407 0.0000 -57.3472 0.0000
# 4 0.0000 0.0000 0.0000 28.3078 0.0000 -12.0013
# 5 -73.4247 -36.7735 -57.3472 0.0000 73.9207 0.0000
# 6 0.0000 0.0000 0.0000 -12.0013 0.0000 27.1638
#
#
#
# Elastic Compliance Matrix: (Units=1/GPa)
#
#
# Indices 1 2 3 4 5 6 
#
# 1 0.016076 -0.000810 -0.008139 0.000000 0.009251 0.000000
# 2 -0.000810 0.010911 -0.002457 0.000000 0.002718 0.000000
# 3 -0.008139 -0.002457 0.023870 0.000000 0.009211 0.000000
# 4 0.000000 0.000000 0.000000 0.043468 0.000000 0.019205
# 5 0.009251 0.002718 0.009211 0.000000 0.031215 0.000000
# 6 0.000000 0.000000 0.000000 0.019205 0.000000 0.045299
#
#
# Mechanical properties :
#
#
# Convention : Reuss Voigt Hill
#
# Bulk Modulus (GPa) = 35.65643 78.98769 57.32206
# Shear Modulus (GPa) = 24.63085 38.24980 31.44033
#
# Velocity S-wave (km/s) = 3.02397 3.76836 3.41650
# Velocity P-wave (km/s) = 5.04284 6.94685 6.06997
#
# Compressibility (1/GPa) = 0.02804543
#
# Stress axis : x y z
#
# Youngs Moduli (GPa) = 62.20510 91.65230 41.89394
#
# Poissons Ratio (x) = 0.07420 0.34098
# Poissons Ratio (y) = 0.05036 0.10292
# Poissons Ratio (z) = 0.50630 0.22517
#
# Static dielectric constant tensor:
#      x y z
#    x 2.147680 0.000000 0.013930 
#    y 0.000000 2.043880 0.000000 
#    z 0.013930 0.000000 2.194680 
# 
# From -- ./inp_files/99368.got.cif
#   From: 2010.05.17/outbox.cif.g08.bks.cpg/sg15_50_cif.got.tgz:99368.got - 2010.06.03 18:47:42.
