data_PCOD9261846
_publ_section_title
;
Structure prediction by ZEFSAII (Michael W. Deem and Ramdas Pophale) SiO2 
 PCOD9261846
Probable space group: C 2/C
;
_chemical_formula_sum "Si O2"
_cell_formula_units_Z 56
_cell_length_a 17.416928
_cell_length_b 7.623739
_cell_length_c 19.168345
_cell_angle_alpha 90.000000
_cell_angle_beta 109.915440
_cell_angle_gamma 90.000000
_cell_volume 2393.000353
_symmetry_space_group_name_H-M "C 2/C"
_symmetry_group_IT_number 15
_symmetry_cell_setting 'monoclinic'
loop_
_space_group_symop_operation_xyz
x,y,z
-x,y,1/2-z
-x,-y,-z
x,-y,1/2+z
1/2+x,1/2+y,z
1/2-x,1/2+y,1/2-z
1/2-x,1/2-y,-z
1/2+x,1/2-y,1/2+z
loop_
_atom_site_type_symbol
_atom_site_label
_atom_site_fract_x
_atom_site_fract_y
_atom_site_fract_z
Si Si1 0.765671 0.279869 0.680642
Si Si2 0.343533 0.271962 0.452564
Si Si3 0.883415 0.583501 0.938949
Si Si4 0.941795 0.062531 0.420792
Si Si5 0.843211 0.125349 0.105433
Si Si6 0.334163 0.219865 0.066305
Si Si7 0.366228 0.467631 0.763027
O O1 0.703205 0.145068 0.622037
O O2 0.812735 0.377901 0.631838
O O3 0.709679 0.377629 0.719015
O O4 0.834282 0.162259 0.737952
O O5 0.358957 0.459846 0.421652
O O6 0.251417 0.194996 0.420563
O O7 0.370037 0.284672 0.541635
O O8 0.395660 0.120730 0.430744
O O9 0.940798 0.728473 0.924153
O O10 0.885014 0.621720 0.022773
O O11 0.942652 0.022239 0.339250
O O12 0.000000 0.000000 0.500000
O O13 0.877870 0.137531 0.194409
O O14 0.858842 0.918538 0.092507
O O15 0.250000 0.250000 0.000000
#
# Coordination Sequence:
#
# PCOD9261846 Si02
#       7
#     8   8   8   8   8   8   8
#     4   9  18  28  51  83 117 142 170 229 311 337
#     4  11  20  34  62  87 115 147 194 229 295 360
#     4  10  19  35  56  84 112 143 192 239 278 345
#     4  11  25  40  57  79 112 166 202 232 283 340
#     4  10  19  31  57  96 111 141 185 232 309 348
#     4   9  14  29  48  80 115 136 168 223 291 343
#     4  10  19  34  52  83 121 144 181 245 288 345
#
# _framework density 23.401585000000001
#
# number of rings (size 3 to 8) (size 9 to 14) (size 15 to 20)
#    0.000    2.000    5.714    0.857    0.000    1.714 
#    0.000    0.714    0.000    0.000    7.429    0.000 
#    0.000    0.000    0.000    0.000    0.000    0.000 
#
# Total GULP energy -155947.853544 kJ/mol
# GULP energy per Si atom -5569.566198 kJ/mol
# Density = 2.334832 g / cm^3
# Si number density = 23.401585 Si / 1000 Ang^3
#
#
#
# Elastic Constant Matrix: (Units=GPa)
#
#
# Indices 1 2 3 4 5 6 
#
# 1 33.8292 7.0583 15.0591 0.0000 0.2450 0.0000
# 2 7.0583 56.6834 13.6303 0.0000 -2.0263 0.0000
# 3 15.0591 13.6303 181.0774 0.0000 -5.4577 0.0000
# 4 0.0000 0.0000 0.0000 29.3572 0.0000 -10.3883
# 5 0.2450 -2.0263 -5.4577 0.0000 32.5529 0.0000
# 6 0.0000 0.0000 0.0000 -10.3883 0.0000 10.6046
#
#
#
# Elastic Compliance Matrix: (Units=1/GPa)
#
#
# Indices 1 2 3 4 5 6 
#
# 1 0.031326 -0.003359 -0.002378 0.000000 -0.000843 0.000000
# 2 -0.003359 0.018353 -0.001072 0.000000 0.000988 0.000000
# 3 -0.002378 -0.001072 0.005829 0.000000 0.000928 0.000000
# 4 0.000000 0.000000 0.000000 0.052135 0.000000 0.051072
# 5 -0.000843 0.000988 0.000928 0.000000 0.030943 0.000000
# 6 0.000000 0.000000 0.000000 0.051072 0.000000 0.144328
#
#
# Mechanical properties :
#
#
# Convention : Reuss Voigt Hill
#
# Bulk Modulus (GPa) = 23.87236 38.12061 30.99648
# Shear Modulus (GPa) = 16.10326 30.22576 23.16451
#
# Velocity S-wave (km/s) = 2.62606 3.59780 3.14963
# Velocity P-wave (km/s) = 4.40662 5.79517 5.14792
#
# Compressibility (1/GPa) = 0.04188945
#
# Stress axis : x y z
#
# Youngs Moduli (GPa) = 31.92265 54.48609 171.55757
#
# Poissons Ratio (x) = 0.18303 0.40792
# Poissons Ratio (y) = 0.10723 0.18397
# Poissons Ratio (z) = 0.07590 0.05843
#
# Static dielectric constant tensor:
#      x y z
#    x 2.040680 0.000000 0.012610 
#    y 0.000000 1.923010 0.000000 
#    z 0.012610 0.000000 1.921050 
# 
# From -- ./inp_files/218328.got.cif
#   From: 2010.05.17/outbox.cif.g08.bks.cpg/sg15_110_cif.got.tgz:218328.got - 2010.06.03 18:47:42.
