data_PCOD9261679
_publ_section_title
;
Structure prediction by ZEFSAII (Michael W. Deem and Ramdas Pophale) SiO2 
 PCOD9261679
Probable space group: C 2/C
;
_chemical_formula_sum "Si O2"
_cell_formula_units_Z 40
_cell_length_a 19.947019
_cell_length_b 15.491509
_cell_length_c 5.547294
_cell_angle_alpha 90.000000
_cell_angle_beta 116.061492
_cell_angle_gamma 90.000000
_cell_volume 1539.874946
_symmetry_space_group_name_H-M "C 2/C"
_symmetry_group_IT_number 15
_symmetry_cell_setting 'monoclinic'
loop_
_space_group_symop_operation_xyz
x,y,z
-x,y,1/2-z
-x,-y,-z
x,-y,1/2+z
1/2+x,1/2+y,z
1/2-x,1/2+y,1/2-z
1/2-x,1/2-y,-z
1/2+x,1/2-y,1/2+z
loop_
_atom_site_type_symbol
_atom_site_label
_atom_site_fract_x
_atom_site_fract_y
_atom_site_fract_z
Si Si1 0.770720 0.989765 0.835766
Si Si2 0.914094 0.550982 0.635311
Si Si3 0.572343 0.450048 0.936930
Si Si4 0.329461 0.702981 0.396518
Si Si5 0.157475 0.732230 0.081762
O O1 0.729367 0.994516 0.022012
O O2 0.837791 0.060736 0.938286
O O3 0.809837 0.897326 0.882019
O O4 0.908030 0.481970 0.403921
O O5 0.861560 0.632029 0.483476
O O6 0.000000 0.583208 0.750000
O O7 0.500000 0.392832 0.750000
O O8 0.564087 0.519132 0.700899
O O9 0.247323 0.747286 0.245669
O O10 0.370455 0.733592 0.703862
O O11 0.369319 0.724689 0.209036
#
# Coordination Sequence:
#
# PCOD9261679 Si02
#       5
#     8   8   8   8   8
#     4  10  19  31  49  73 100 131 175 224 261 307
#     4  10  21  38  62  90 118 150 193 248 304 360
#     4   8  14  25  40  58  84 117 150 190 238 279
#     4  10  21  36  55  79 111 151 187 228 284 346
#     4  10  21  38  56  78 113 149 183 228 289 356
#
# _framework density 25.976136
#
# number of rings (size 3 to 8) (size 9 to 14) (size 15 to 20)
#    0.000    2.400    0.000    2.400    0.000    1.600 
#    0.000    2.000    0.000    2.400    0.000    0.000 
#    0.000    0.000    0.000    0.000    0.000    0.000 
#
# Total GULP energy -111497.989200 kJ/mol
# GULP energy per Si atom -5574.899460 kJ/mol
# Density = 2.591701 g / cm^3
# Si number density = 25.976136 Si / 1000 Ang^3
#
#
#
# Elastic Constant Matrix: (Units=GPa)
#
#
# Indices 1 2 3 4 5 6 
#
# 1 74.5662 -1.1020 47.8982 0.0000 -14.9810 0.0000
# 2 -1.1020 99.5547 42.7122 0.0000 -39.9700 0.0000
# 3 47.8982 42.7122 237.6441 0.0000 -63.8158 0.0000
# 4 0.0000 0.0000 0.0000 44.3351 0.0000 -3.7187
# 5 -14.9810 -39.9700 -63.8158 0.0000 76.3388 0.0000
# 6 0.0000 0.0000 0.0000 -3.7187 0.0000 23.0930
#
#
#
# Elastic Compliance Matrix: (Units=1/GPa)
#
#
# Indices 1 2 3 4 5 6 
#
# 1 0.015782 0.002167 -0.003139 0.000000 0.001608 0.000000
# 2 0.002167 0.013092 -0.001077 0.000000 0.006380 0.000000
# 3 -0.003139 -0.001077 0.006083 0.000000 0.003905 0.000000
# 4 0.000000 0.000000 0.000000 0.022864 0.000000 0.003682
# 5 0.001608 0.006380 0.003905 0.000000 0.020020 0.000000
# 6 0.000000 0.000000 0.000000 0.003682 0.000000 0.043896
#
#
# Mechanical properties :
#
#
# Convention : Reuss Voigt Hill
#
# Bulk Modulus (GPa) = 32.40393 65.64242 49.02318
# Shear Modulus (GPa) = 36.73197 50.23714 43.48456
#
# Velocity S-wave (km/s) = 3.76449 4.40247 4.09592
# Velocity P-wave (km/s) = 5.60328 7.15314 6.42511
#
# Compressibility (1/GPa) = 0.03086046
#
# Stress axis : x y z
#
# Youngs Moduli (GPa) = 63.36302 76.38165 164.39850
#
# Poissons Ratio (x) = -0.16551 0.51598
# Poissons Ratio (y) = -0.13730 0.17698
# Poissons Ratio (z) = 0.19887 0.08223
#
# Static dielectric constant tensor:
#      x y z
#    x 2.223290 0.000000 0.027090 
#    y 0.000000 2.227020 0.000000 
#    z 0.027090 0.000000 2.077290 
# 
# From -- ./inp_files/15156.got.cif
#   From: 2010.05.17/outbox.cif.g08.bks.cpg/sg15_8_cif.got.tgz:15156.got - 2010.06.03 18:47:42.
