data_PCOD9261506
_publ_section_title
;
Structure prediction by ZEFSAII (Michael W. Deem and Ramdas Pophale) SiO2 
 PCOD9261506
Probable space group: C 2/C
;
_chemical_formula_sum "Si O2"
_cell_formula_units_Z 56
_cell_length_a 27.072930
_cell_length_b 5.243075
_cell_length_c 20.833839
_cell_angle_alpha 90.000000
_cell_angle_beta 66.725009
_cell_angle_gamma 90.000000
_cell_volume 2716.602100
_symmetry_space_group_name_H-M "C 2/C"
_symmetry_group_IT_number 15
_symmetry_cell_setting 'monoclinic'
loop_
_space_group_symop_operation_xyz
x,y,z
-x,y,1/2-z
-x,-y,-z
x,-y,1/2+z
1/2+x,1/2+y,z
1/2-x,1/2+y,1/2-z
1/2-x,1/2-y,-z
1/2+x,1/2-y,1/2+z
loop_
_atom_site_type_symbol
_atom_site_label
_atom_site_fract_x
_atom_site_fract_y
_atom_site_fract_z
Si Si1 0.376002 0.027315 0.904905
Si Si2 0.354375 0.190948 0.286053
Si Si3 0.812686 0.016087 0.980144
Si Si4 0.241817 0.363386 0.402056
Si Si5 0.542299 0.480953 0.787390
Si Si6 0.716324 0.079212 0.287594
Si Si7 0.500472 0.021374 0.171544
O O1 0.367924 0.025311 0.831540
O O2 0.346510 0.261153 0.953995
O O3 0.439739 0.039798 0.881456
O O4 0.350275 0.758310 0.940420
O O5 0.339346 0.103002 0.222571
O O6 0.298030 0.304061 0.338870
O O7 0.401246 0.401624 0.263929
O O8 0.762046 0.003484 0.956909
O O9 0.788184 0.106450 0.060335
O O10 0.209342 0.521282 0.366430
O O11 0.500000 0.447416 0.750000
O O12 0.540696 0.206440 0.820817
O O13 0.517939 0.704658 0.843649
O O14 0.748501 0.836737 0.240447
O O15 0.500000 0.054381 0.250000
#
# Coordination Sequence:
#
# PCOD9261506 Si02
#       7
#     8   8   8   8   8   8   8
#     4  11  20  34  53  80 109 140 176 219 276 323
#     4  10  20  34  57  81 115 144 175 227 280 324
#     4  10  22  34  54  76 108 149 177 222 260 317
#     4   9  21  37  52  79 112 141 188 213 263 328
#     4  10  19  31  48  79 107 136 167 217 279 323
#     4  10  21  36  54  79 109 149 180 224 268 323
#     4  10  19  30  49  75 110 130 170 220 273 321
#
# _framework density 20.613986000000001
#
# number of rings (size 3 to 8) (size 9 to 14) (size 15 to 20)
#    0.000    2.000    2.857    1.714    6.000    9.714 
#    0.000    0.000    0.000    0.000    0.000    6.000 
#    0.000    0.000    0.000    0.000    0.000    0.000 
#
# Total GULP energy -156175.957391 kJ/mol
# GULP energy per Si atom -5577.712764 kJ/mol
# Density = 2.056707 g / cm^3
# Si number density = 20.613986 Si / 1000 Ang^3
#
#
#
# Elastic Constant Matrix: (Units=GPa)
#
#
# Indices 1 2 3 4 5 6 
#
# 1 66.2215 11.5024 35.0726 -0.0106 -12.5299 0.0037
# 2 11.5024 111.0633 8.2379 -0.0417 -1.2182 -0.1003
# 3 35.0726 8.2379 51.7320 -0.0188 -8.9138 0.0007
# 4 -0.0106 -0.0417 -0.0188 21.9718 -0.0014 -3.1996
# 5 -12.5299 -1.2182 -8.9138 -0.0014 29.5124 -0.0024
# 6 0.0037 -0.1003 0.0007 -3.1996 -0.0024 0.2897
#
#
#
# Elastic Compliance Matrix: (Units=1/GPa)
#
#
# Indices 1 2 3 4 5 6 
#
# 1 0.024621 -0.001337 -0.015494 0.000171 0.005718 0.001200
# 2 -0.001337 0.009179 -0.000620 -0.000791 -0.000377 -0.005540
# 3 -0.015494 -0.000620 0.030377 -0.000012 0.002571 -0.000205
# 4 0.000171 -0.000791 -0.000012 -0.074726 -0.000034 -0.825664
# 5 0.005718 -0.000377 0.002571 -0.000034 0.037073 -0.000278
# 6 0.001200 -0.005540 -0.000205 -0.825664 -0.000278 -5.669730
#
#
# Mechanical properties :
#
#
# Convention : Reuss Voigt Hill
#
# Bulk Modulus (GPa) = 34.15999 37.62696 35.89347
# Shear Modulus (GPa) = -0.89309 21.96837 10.53764
#
# Velocity S-wave (km/s) = -0.65893 3.26805 2.26340
# Velocity P-wave (km/s) = 4.00354 5.70377 4.92754
#
# Compressibility (1/GPa) = 0.02927402
#
# Stress axis : x y z
#
# Youngs Moduli (GPa) = 40.61570 108.94539 32.92009
#
# Poissons Ratio (x) = 0.14564 0.51006
# Poissons Ratio (y) = 0.05429 0.02043
# Poissons Ratio (z) = 0.62930 0.06760
#
# Static dielectric constant tensor:
#      x y z
#    x 1.846790 0.000020 0.026890 
#    y 0.000020 1.842460 -0.000010 
#    z 0.026890 -0.000010 1.785650 
# 
# From -- ./inp_files/256492.got.cif
#   From: 2010.05.17/outbox.cif.g08.bks.cpg/sg15_129_cif.got.tgz:256492.got - 2010.06.03 18:47:42.
