data_PCOD9261211
_publ_section_title
;
Structure prediction by ZEFSAII (Michael W. Deem and Ramdas Pophale) SiO2 
 PCOD9261211
Probable space group: C 2/C
;
_chemical_formula_sum "Si O2"
_cell_formula_units_Z 44
_cell_length_a 21.265020
_cell_length_b 17.789213
_cell_length_c 13.425125
_cell_angle_alpha 90.000000
_cell_angle_beta 23.885096
_cell_angle_gamma 90.000000
_cell_volume 2056.329339
_symmetry_space_group_name_H-M "C 2/C"
_symmetry_group_IT_number 15
_symmetry_cell_setting 'monoclinic'
loop_
_space_group_symop_operation_xyz
x,y,z
-x,y,1/2-z
-x,-y,-z
x,-y,1/2+z
1/2+x,1/2+y,z
1/2-x,1/2+y,1/2-z
1/2-x,1/2-y,-z
1/2+x,1/2-y,1/2+z
loop_
_atom_site_type_symbol
_atom_site_label
_atom_site_fract_x
_atom_site_fract_y
_atom_site_fract_z
Si Si1 0.238382 0.447291 0.516497
Si Si2 0.286038 0.916806 0.733315
Si Si3 0.537594 0.532068 0.054439
Si Si4 0.500000 0.055241 0.750000
Si Si5 0.360696 0.675770 0.682383
Si Si6 0.420225 0.727596 0.973615
O O1 0.160837 0.416455 0.729485
O O2 0.392899 0.495405 0.322101
O O3 0.285313 0.379275 0.375605
O O4 0.124507 0.502754 0.624553
O O5 0.411019 0.901492 0.466880
O O6 0.147940 0.856832 0.923847
O O7 0.206918 0.998239 0.831286
O O8 0.500000 0.500000 0.000000
O O9 0.544383 0.621401 0.029861
O O10 0.465292 0.731901 0.597734
O O11 0.226068 0.717317 0.817422
O O12 0.500000 0.736873 0.750000
#
# Coordination Sequence:
#
# PCOD9261211 Si02
#       6
#     8   8   8   4   8   8
#     4  11  22  40  66  97 124 165 222 268 328 379
#     4  12  22  40  67  93 124 173 219 268 328 380
#     4  10  18  41  67  87 122 171 211 264 318 385
#     4  12  24  38  62  96 134 156 218 288 314 378
#     4  11  23  38  66  96 134 167 209 273 325 385
#     4  12  23  39  62  96 130 170 214 264 327 386
#
# _framework density 21.397351
#
# number of rings (size 3 to 8) (size 9 to 14) (size 15 to 20)
#    0.000    0.727    9.091    1.636    1.273    0.000 
#    3.273    0.000    4.000    2.182    0.000    0.000 
#    0.000    0.000    0.000    0.000    0.000    0.000 
#
# Total GULP energy -122834.189864 kJ/mol
# GULP energy per Si atom -5583.372267 kJ/mol
# Density = 2.134865 g / cm^3
# Si number density = 21.397351 Si / 1000 Ang^3
#
#
#
# Elastic Constant Matrix: (Units=GPa)
#
#
# Indices 1 2 3 4 5 6 
#
# 1 14.5333 14.9686 10.6303 0.0008 2.6011 -0.0006
# 2 14.9686 62.2469 16.3678 -0.0023 -14.1271 0.0005
# 3 10.6303 16.3678 70.9053 -0.0011 7.6165 0.0005
# 4 0.0008 -0.0023 -0.0011 32.1447 0.0008 -11.2161
# 5 2.6011 -14.1271 7.6165 0.0008 44.4783 0.0001
# 6 -0.0006 0.0005 0.0005 -11.2161 0.0001 16.4270
#
#
#
# Elastic Compliance Matrix: (Units=1/GPa)
#
#
# Indices 1 2 3 4 5 6 
#
# 1 0.103511 -0.025629 -0.008229 -0.000004 -0.012785 0.000003
# 2 -0.025629 0.025325 -0.003085 0.000002 0.010071 0.000000
# 3 -0.008229 -0.003085 0.016405 0.000000 -0.003308 0.000000
# 4 -0.000004 0.000002 0.000000 0.040839 0.000000 0.027884
# 5 -0.012785 0.010071 -0.003308 0.000000 0.026996 -0.000001
# 6 0.000003 0.000000 0.000000 0.027884 -0.000001 0.079914
#
#
# Mechanical properties :
#
#
# Convention : Reuss Voigt Hill
#
# Bulk Modulus (GPa) = 14.01473 25.73544 19.87508
# Shear Modulus (GPa) = 12.79880 25.65792 19.22836
#
# Velocity S-wave (km/s) = 2.44836 3.46658 3.00097
# Velocity P-wave (km/s) = 3.81531 5.29872 4.61698
#
# Compressibility (1/GPa) = 0.07135352
#
# Stress axis : x y z
#
# Youngs Moduli (GPa) = 9.66078 39.48665 60.95838
#
# Poissons Ratio (x) = 1.01201 0.50164
# Poissons Ratio (y) = 0.24760 0.18808
# Poissons Ratio (z) = 0.07950 0.12183
#
# Static dielectric constant tensor:
#      x y z
#    x 1.821400 0.000000 0.023550 
#    y 0.000000 1.774130 0.000000 
#    z 0.023550 0.000000 1.832520 
# 
# From -- ./inp_files/174173.got.cif
#   From: 2010.05.17/outbox.cif.g08.bks.cpg/sg15_88_cif.got.tgz:174173.got - 2010.06.03 18:47:42.
