data_PCOD9261081
_publ_section_title
;
Structure prediction by ZEFSAII (Michael W. Deem and Ramdas Pophale) SiO2 
 PCOD9261081
Probable space group: C 2/C
;
_chemical_formula_sum "Si O2"
_cell_formula_units_Z 40
_cell_length_a 15.730334
_cell_length_b 24.421484
_cell_length_c 8.868930
_cell_angle_alpha 90.000000
_cell_angle_beta 31.353098
_cell_angle_gamma 90.000000
_cell_volume 1772.735807
_symmetry_space_group_name_H-M "C 2/C"
_symmetry_group_IT_number 15
_symmetry_cell_setting 'monoclinic'
loop_
_space_group_symop_operation_xyz
x,y,z
-x,y,1/2-z
-x,-y,-z
x,-y,1/2+z
1/2+x,1/2+y,z
1/2-x,1/2+y,1/2-z
1/2-x,1/2-y,-z
1/2+x,1/2-y,1/2+z
loop_
_atom_site_type_symbol
_atom_site_label
_atom_site_fract_x
_atom_site_fract_y
_atom_site_fract_z
Si Si1 0.638450 0.316810 0.261240
Si Si2 0.500000 0.385052 0.750000
Si Si3 0.000000 0.424091 0.250000
Si Si4 0.223709 0.599412 0.165878
Si Si5 0.223489 0.527520 0.664402
Si Si6 0.500000 0.768958 0.750000
Si Si7 0.000000 0.430644 0.750000
O O1 0.554928 0.348145 0.526226
O O2 0.534576 0.266909 0.349011
O O3 0.656730 0.358313 0.091867
O O4 0.822305 0.298512 0.033377
O O5 0.643185 0.427407 0.575481
O O6 0.079244 0.461224 0.262108
O O7 0.856005 0.390725 0.550152
O O8 0.278979 0.535649 0.078879
O O9 0.072340 0.602569 0.278728
O O10 0.154997 0.540711 0.934687
#
# Coordination Sequence:
#
# PCOD9261081 Si02
#       7
#     8   4   4   8   8   4   4
#     4  11  26  49  74  98 130 176 226 286 347 384
#     4  12  28  41  67 107 141 178 210 270 350 402
#     4  10  23  35  65 102 134 189 231 248 304 411
#     4  11  20  38  69  97 141 181 219 263 327 399
#     4  11  22  39  62 105 147 178 222 256 316 420
#     4  10  27  54  74  92 122 169 241 301 334 390
#     4  10  18  40  62  93 143 194 218 257 304 405
#
# _framework density 22.563994999999998
#
# number of rings (size 3 to 8) (size 9 to 14) (size 15 to 20)
#    0.000    1.200    2.000    5.400    5.600    2.400 
#    0.000    4.000    0.000    0.000    0.000    0.000 
#    0.000    0.000    0.000    0.000    0.000    0.000 
#
# Total GULP energy -111594.664827 kJ/mol
# GULP energy per Si atom -5579.733241 kJ/mol
# Density = 2.251264 g / cm^3
# Si number density = 22.563995 Si / 1000 Ang^3
#
#
#
# Elastic Constant Matrix: (Units=GPa)
#
#
# Indices 1 2 3 4 5 6 
#
# 1 90.2867 26.2897 54.7626 0.0000 -7.3733 -0.0001
# 2 26.2897 90.6690 77.1213 0.0000 -6.7019 0.0000
# 3 54.7626 77.1213 157.9015 0.0000 18.5212 0.0000
# 4 0.0000 0.0000 0.0000 34.4395 0.0000 0.8652
# 5 -7.3733 -6.7019 18.5212 0.0000 42.3745 0.0000
# 6 -0.0001 0.0000 0.0000 0.8652 0.0000 22.4065
#
#
#
# Elastic Compliance Matrix: (Units=1/GPa)
#
#
# Indices 1 2 3 4 5 6 
#
# 1 0.015192 0.001901 -0.006896 0.000000 0.005958 0.000000
# 2 0.001901 0.021590 -0.012273 0.000000 0.009110 0.000000
# 3 -0.006896 -0.012273 0.015903 0.000000 -0.010092 0.000000
# 4 0.000000 0.000000 0.000000 0.029065 0.000000 -0.001122
# 5 0.005958 0.009110 -0.010092 0.000000 0.030488 0.000000
# 6 0.000000 0.000000 0.000000 -0.001122 0.000000 0.044673
#
#
# Mechanical properties :
#
#
# Convention : Reuss Voigt Hill
#
# Bulk Modulus (GPa) = 55.09922 72.80047 63.94985
# Shear Modulus (GPa) = 25.31702 31.88969 28.60335
#
# Velocity S-wave (km/s) = 3.35327 3.76347 3.56428
# Velocity P-wave (km/s) = 6.28209 7.15674 6.73363
#
# Compressibility (1/GPa) = 0.01814908
#
# Stress axis : x y z
#
# Youngs Moduli (GPa) = 65.82581 46.31693 62.88196
#
# Poissons Ratio (x) = -0.08806 0.43365
# Poissons Ratio (y) = -0.12516 0.77175
# Poissons Ratio (z) = 0.45395 0.56845
#
# Static dielectric constant tensor:
#      x y z
#    x 1.864050 0.000000 -0.055550 
#    y 0.000000 1.969440 0.000000 
#    z -0.055550 0.000000 1.900700 
# 
# From -- ./inp_files/51690.got.cif
#   From: 2010.05.17/outbox.cif.g08.bks.cpg/sg15_26_cif.got.tgz:51690.got - 2010.06.03 18:47:42.
