data_PCOD9261715
_publ_section_title
;
Structure prediction by ZEFSAII (Michael W. Deem and Ramdas Pophale) SiO2 
 PCOD9261715
Probable space group: C 2/C
;
_chemical_formula_sum "Si O2"
_cell_formula_units_Z 64
_cell_length_a 27.918300
_cell_length_b 16.584954
_cell_length_c 8.180314
_cell_angle_alpha 90.000000
_cell_angle_beta 85.166417
_cell_angle_gamma 90.000000
_cell_volume 3774.209084
_symmetry_space_group_name_H-M "C 2/C"
_symmetry_group_IT_number 15
_symmetry_cell_setting 'monoclinic'
loop_
_space_group_symop_operation_xyz
x,y,z
-x,y,1/2-z
-x,-y,-z
x,-y,1/2+z
1/2+x,1/2+y,z
1/2-x,1/2+y,1/2-z
1/2-x,1/2-y,-z
1/2+x,1/2-y,1/2+z
loop_
_atom_site_type_symbol
_atom_site_label
_atom_site_fract_x
_atom_site_fract_y
_atom_site_fract_z
Si Si1 0.221095 0.835429 0.687418
Si Si2 0.322097 0.750306 0.987372
Si Si3 0.605289 0.837821 0.031377
Si Si4 0.096656 0.349559 0.404577
Si Si5 0.496041 0.907124 0.557512
Si Si6 0.660581 0.012102 0.399171
Si Si7 0.815534 0.776848 0.131024
Si Si8 0.718338 0.081784 0.102031
O O1 0.190859 0.786477 0.832799
O O2 0.196092 0.837213 0.516633
O O3 0.271674 0.788437 0.639713
O O4 0.236865 0.913384 0.788723
O O5 0.374815 0.789530 0.985274
O O6 0.317422 0.698055 0.822138
O O7 0.288124 0.828737 0.969516
O O8 0.599713 0.815472 0.221366
O O9 0.553735 0.864959 0.978021
O O10 0.637519 0.918612 0.014809
O O11 0.635354 0.770132 0.927037
O O12 0.124924 0.435825 0.397527
O O13 0.042087 0.363305 0.468894
O O14 0.500000 0.906517 0.750000
O O15 0.500000 0.000000 0.500000
O O16 0.672591 0.056339 0.226358
O O17 0.711018 0.979839 0.457298
#
# Coordination Sequence:
#
# PCOD9261715 Si02
#       8
#     8   8   8   8   8   8   8   8
#     4  10  19  33  48  70  87 116 159 207 242 292
#     4  10  19  33  50  68  90 118 159 206 246 284
#     4  12  20  34  48  65  91 123 163 205 250 282
#     4  11  22  34  48  66  91 124 163 208 247 289
#     4  12  25  33  45  64  91 129 171 208 249 286
#     4  11  20  30  45  65  90 124 153 202 250 284
#     4  10  19  31  51  67  87 115 155 205 246 282
#     4  10  20  31  45  66  93 118 156 197 248 293
#
# _framework density 16.957196
#
# number of rings (size 3 to 8) (size 9 to 14) (size 15 to 20)
#    0.000    1.250    6.250    3.375    1.750    0.000 
#    2.250    0.000    0.000    0.000    0.000    0.000 
#    0.000    0.000    0.000    0.000    0.000    5.000 
#
# Total GULP energy -178234.699141 kJ/mol
# GULP energy per Si atom -5569.834348 kJ/mol
# Density = 1.691860 g / cm^3
# Si number density = 16.957196 Si / 1000 Ang^3
#
#
#
# Elastic Constant Matrix: (Units=GPa)
#
#
# Indices 1 2 3 4 5 6 
#
# 1 72.0820 21.0662 16.3788 0.0000 1.7966 0.0000
# 2 21.0662 14.6474 12.3987 0.0000 0.7004 0.0000
# 3 16.3788 12.3987 108.2988 0.0000 4.0901 0.0000
# 4 0.0000 0.0000 0.0000 21.6779 0.0000 3.8792
# 5 1.7966 0.7004 4.0901 0.0000 31.3726 0.0000
# 6 0.0000 0.0000 0.0000 3.8792 0.0000 23.4019
#
#
#
# Elastic Compliance Matrix: (Units=1/GPa)
#
#
# Indices 1 2 3 4 5 6 
#
# 1 0.023958 -0.034747 0.000379 0.000000 -0.000646 0.000000
# 2 -0.034747 0.126001 -0.009185 0.000000 0.000374 0.000000
# 3 0.000379 -0.009185 0.010272 0.000000 -0.001156 0.000000
# 4 0.000000 0.000000 0.000000 0.047540 0.000000 -0.007881
# 5 -0.000646 0.000374 -0.001156 0.000000 0.032054 0.000000
# 6 0.000000 0.000000 0.000000 -0.007881 0.000000 0.044038
#
#
# Mechanical properties :
#
#
# Convention : Reuss Voigt Hill
#
# Bulk Modulus (GPa) = 13.67495 32.74617 23.21056
# Shear Modulus (GPa) = 12.64727 24.96946 18.80837
#
# Velocity S-wave (km/s) = 2.73396 3.84148 3.33403
# Velocity P-wave (km/s) = 4.24829 6.24732 5.34214
#
# Compressibility (1/GPa) = 0.07312641
#
# Stress axis : x y z
#
# Youngs Moduli (GPa) = 41.74003 7.93644 97.35650
#
# Poissons Ratio (x) = 0.27576 -0.03691
# Poissons Ratio (y) = 1.45032 0.89417
# Poissons Ratio (z) = -0.01582 0.07289
#
# Static dielectric constant tensor:
#      x y z
#    x 1.606360 0.000000 0.022390 
#    y 0.000000 1.552990 0.000000 
#    z 0.022390 0.000000 1.663500 
# 
# From -- ./inp_files/66709.got.cif
#   From: 2010.05.17/outbox.cif.g08.bks.cpg/sg15_34_cif.got.tgz:66709.got - 2010.06.03 18:47:42.
