data_PCOD9261026
_publ_section_title
;
Structure prediction by ZEFSAII (Michael W. Deem and Ramdas Pophale) SiO2 
 PCOD9261026
Probable space group: C 2/C
;
_chemical_formula_sum "Si O2"
_cell_formula_units_Z 44
_cell_length_a 22.911988
_cell_length_b 12.425024
_cell_length_c 8.431977
_cell_angle_alpha 90.000000
_cell_angle_beta 131.929685
_cell_angle_gamma 90.000000
_cell_volume 1785.838515
_symmetry_space_group_name_H-M "C 2/C"
_symmetry_group_IT_number 15
_symmetry_cell_setting 'monoclinic'
loop_
_space_group_symop_operation_xyz
x,y,z
-x,y,1/2-z
-x,-y,-z
x,-y,1/2+z
1/2+x,1/2+y,z
1/2-x,1/2+y,1/2-z
1/2-x,1/2-y,-z
1/2+x,1/2-y,1/2+z
loop_
_atom_site_type_symbol
_atom_site_label
_atom_site_fract_x
_atom_site_fract_y
_atom_site_fract_z
Si Si1 0.921093 0.154911 0.149446
Si Si2 0.652584 0.180028 0.643751
Si Si3 0.295111 0.163609 0.426897
Si Si4 0.224702 0.376813 0.948848
Si Si5 0.898279 0.046885 0.782261
Si Si6 0.500000 0.709241 0.750000
O O1 0.847645 0.229610 0.017463
O O2 0.000000 0.218026 0.250000
O O3 0.925533 0.074114 0.302418
O O4 0.911535 0.073507 0.987823
O O5 0.678224 0.118442 0.853149
O O6 0.676485 0.117695 0.525459
O O7 0.561894 0.217073 0.462623
O O8 0.706602 0.289495 0.755121
O O9 0.313309 0.106693 0.293216
O O10 0.250000 0.250000 0.000000
O O11 0.304944 0.443680 0.092468
O O12 0.943186 0.134789 0.755671
#
# Coordination Sequence:
#
# PCOD9261026 Si02
#       6
#     8   8   8   8   8   4
#     4  12  24  35  52  84 125 157 180 226 286 358
#     4  10  20  34  60  78 108 149 197 237 274 327
#     4  10  20  36  57  79 108 154 197 230 276 335
#     4  10  18  40  56  73 113 148 191 243 268 327
#     4  12  24  36  53  83 124 153 185 226 291 348
#     4  12  20  36  58  86 116 156 186 236 286 332
#
# _framework density 24.638283999999999
#
# number of rings (size 3 to 8) (size 9 to 14) (size 15 to 20)
#    0.000    1.091    8.182    1.636    2.545    0.000 
#    0.000    0.000    0.000    0.000    0.000    1.273 
#    2.727    0.000    0.000    0.000    0.000    0.000 
#
# Total GULP energy -122997.277926 kJ/mol
# GULP energy per Si atom -5590.785360 kJ/mol
# Density = 2.458221 g / cm^3
# Si number density = 24.638284 Si / 1000 Ang^3
#
#
#
# Elastic Constant Matrix: (Units=GPa)
#
#
# Indices 1 2 3 4 5 6 
#
# 1 145.3619 37.2114 71.1586 0.0000 -17.9558 0.0000
# 2 37.2114 47.3027 23.7734 0.0000 -1.0993 0.0000
# 3 71.1586 23.7734 163.0331 0.0000 -14.2304 0.0000
# 4 0.0000 0.0000 0.0000 37.0031 0.0000 0.0262
# 5 -17.9558 -1.0993 -14.2304 0.0000 69.4211 0.0000
# 6 0.0000 0.0000 0.0000 0.0262 0.0000 32.4965
#
#
#
# Elastic Compliance Matrix: (Units=1/GPa)
#
#
# Indices 1 2 3 4 5 6 
#
# 1 0.010456 -0.006443 -0.003459 0.000000 0.001893 0.000000
# 2 -0.006443 0.026790 -0.001225 0.000000 -0.001493 0.000000
# 3 -0.003459 -0.001225 0.007883 0.000000 0.000702 0.000000
# 4 0.000000 0.000000 0.000000 0.027025 0.000000 -0.000022
# 5 0.001893 -0.001493 0.000702 0.000000 0.015015 0.000000
# 6 0.000000 0.000000 0.000000 -0.000022 0.000000 0.030773
#
#
# Mechanical properties :
#
#
# Convention : Reuss Voigt Hill
#
# Bulk Modulus (GPa) = 43.71419 68.88717 56.30068
# Shear Modulus (GPa) = 33.82517 42.68776 38.25647
#
# Velocity S-wave (km/s) = 3.70925 4.16694 3.94474
# Velocity P-wave (km/s) = 6.01046 7.15341 6.60670
#
# Compressibility (1/GPa) = 0.02287587
#
# Stress axis : x y z
#
# Youngs Moduli (GPa) = 95.64088 37.32786 126.85128
#
# Poissons Ratio (x) = 0.24050 0.43876
# Poissons Ratio (y) = 0.61620 0.15535
# Poissons Ratio (z) = 0.33081 0.04571
#
# Static dielectric constant tensor:
#      x y z
#    x 2.034230 0.000000 -0.065190 
#    y 0.000000 1.944770 0.000000 
#    z -0.065190 0.000000 2.037170 
# 
# From -- ./inp_files/62638.got.cif
#   From: 2010.05.17/outbox.cif.g08.bks.cpg/sg15_32_cif.got.tgz:62638.got - 2010.06.03 18:47:42.
