data_PCOD9261945
_publ_section_title
;
Structure prediction by ZEFSAII (Michael W. Deem and Ramdas Pophale) SiO2 
 PCOD9261945
Probable space group: C 2/C
;
_chemical_formula_sum "Si O2"
_cell_formula_units_Z 32
_cell_length_a 8.562808
_cell_length_b 10.678559
_cell_length_c 21.559172
_cell_angle_alpha 90.000000
_cell_angle_beta 141.298384
_cell_angle_gamma 90.000000
_cell_volume 1232.607550
_symmetry_space_group_name_H-M "C 2/C"
_symmetry_group_IT_number 15
_symmetry_cell_setting 'monoclinic'
loop_
_space_group_symop_operation_xyz
x,y,z
-x,y,1/2-z
-x,-y,-z
x,-y,1/2+z
1/2+x,1/2+y,z
1/2-x,1/2+y,1/2-z
1/2-x,1/2-y,-z
1/2+x,1/2-y,1/2+z
loop_
_atom_site_type_symbol
_atom_site_label
_atom_site_fract_x
_atom_site_fract_y
_atom_site_fract_z
Si Si1 0.347905 0.992023 0.074529
Si Si2 0.669599 0.341523 0.418939
Si Si3 0.542296 0.326358 0.572749
Si Si4 0.787778 0.827582 0.734840
O O1 0.209356 0.069812 0.086694
O O2 0.623307 0.049385 0.165168
O O3 0.232939 0.029976 0.971560
O O4 0.235948 0.851737 0.041345
O O5 0.750000 0.250000 0.500000
O O6 0.845200 0.305440 0.416369
O O7 0.390721 0.295649 0.319552
O O8 0.611150 0.342853 0.665088
O O9 0.000000 0.811433 0.750000
#
# Coordination Sequence:
#
# PCOD9261945 Si02
#       4
#     8   8   8   8
#     4   9  18  35  56  80 108 146 197 237 286 353
#     4   8  16  34  53  74 106 143 187 236 283 338
#     4   9  17  33  57  77 105 150 186 233 291 338
#     4  10  19  32  50  77 112 147 186 239 291 338
#
# _framework density 25.961221999999999
#
# number of rings (size 3 to 8) (size 9 to 14) (size 15 to 20)
#    0.000    3.500    0.000    3.000    0.000    1.000 
#    0.000   26.250    0.000    3.000    0.000    0.000 
#    0.000    0.000    0.000    0.000    0.000    0.000 
#
# Total GULP energy -89364.609650 kJ/mol
# GULP energy per Si atom -5585.288103 kJ/mol
# Density = 2.590213 g / cm^3
# Si number density = 25.961222 Si / 1000 Ang^3
#
#
#
# Elastic Constant Matrix: (Units=GPa)
#
#
# Indices 1 2 3 4 5 6 
#
# 1 178.6162 19.1754 87.0828 0.0000 -1.2098 0.0000
# 2 19.1754 72.7540 62.8703 0.0000 1.7591 0.0000
# 3 87.0828 62.8703 157.3654 0.0000 -14.1726 0.0000
# 4 0.0000 0.0000 0.0000 54.7609 0.0000 9.6653
# 5 -1.2098 1.7591 -14.1726 0.0000 54.8523 0.0000
# 6 0.0000 0.0000 0.0000 9.6653 0.0000 7.0724
#
#
#
# Elastic Compliance Matrix: (Units=1/GPa)
#
#
# Indices 1 2 3 4 5 6 
#
# 1 0.008081 0.002867 -0.005743 0.000000 -0.001398 0.000000
# 2 0.002867 0.022473 -0.010877 0.000000 -0.003468 0.000000
# 3 -0.005743 -0.010877 0.014230 0.000000 0.003899 0.000000
# 4 0.000000 0.000000 0.000000 0.024066 0.000000 -0.032889
# 5 -0.001398 -0.003468 0.003899 0.000000 0.019319 0.000000
# 6 0.000000 0.000000 0.000000 -0.032889 0.000000 0.186341
#
#
# Mechanical properties :
#
#
# Convention : Reuss Voigt Hill
#
# Bulk Modulus (GPa) = 57.88141 82.99917 70.44029
# Shear Modulus (GPa) = 16.24563 39.31094 27.77828
#
# Velocity S-wave (km/s) = 2.50424 3.89552 3.27462
# Velocity P-wave (km/s) = 5.54124 7.23002 6.44122
#
# Compressibility (1/GPa) = 0.01727670
#
# Stress axis : x y z
#
# Youngs Moduli (GPa) = 123.73942 44.49878 70.27588
#
# Poissons Ratio (x) = -0.12758 0.40362
# Poissons Ratio (y) = -0.35476 0.76439
# Poissons Ratio (z) = 0.71069 0.48401
#
# Static dielectric constant tensor:
#      x y z
#    x 2.128230 0.000000 0.081100 
#    y 0.000000 2.377970 0.000000 
#    z 0.081100 0.000000 1.999250 
# 
# From -- ./inp_files/230899.got.cif
#   From: 2010.05.17/outbox.cif.g08.bks.cpg/sg15_116_cif.got.tgz:230899.got - 2010.06.03 18:47:42.
