data_PCOD9261319
_publ_section_title
;
Structure prediction by ZEFSAII (Michael W. Deem and Ramdas Pophale) SiO2 
 PCOD9261319
Probable space group: C 2/C
;
_chemical_formula_sum "Si O2"
_cell_formula_units_Z 56
_cell_length_a 31.386790
_cell_length_b 25.667791
_cell_length_c 5.325396
_cell_angle_alpha 90.000000
_cell_angle_beta 67.952799
_cell_angle_gamma 90.000000
_cell_volume 3976.568256
_symmetry_space_group_name_H-M "C 2/C"
_symmetry_group_IT_number 15
_symmetry_cell_setting 'monoclinic'
loop_
_space_group_symop_operation_xyz
x,y,z
-x,y,1/2-z
-x,-y,-z
x,-y,1/2+z
1/2+x,1/2+y,z
1/2-x,1/2+y,1/2-z
1/2-x,1/2-y,-z
1/2+x,1/2-y,1/2+z
loop_
_atom_site_type_symbol
_atom_site_label
_atom_site_fract_x
_atom_site_fract_y
_atom_site_fract_z
Si Si1 0.588892 0.373492 0.599171
Si Si2 0.207232 0.301266 0.339145
Si Si3 0.946054 0.754285 0.825373
Si Si4 0.448322 0.479101 0.661832
Si Si5 0.141018 0.855317 0.982844
Si Si6 0.893346 0.264797 0.940623
Si Si7 0.758522 0.819737 0.725494
O O1 0.565433 0.316510 0.651815
O O2 0.553917 0.419754 0.742418
O O3 0.613976 0.380381 0.276644
O O4 0.625534 0.375224 0.745168
O O5 0.152200 0.299822 0.440695
O O6 0.223830 0.240577 0.308272
O O7 0.226180 0.325153 0.555108
O O8 0.230877 0.326739 0.044562
O O9 0.926789 0.731647 0.606360
O O10 0.000000 0.747703 0.750000
O O11 0.919225 0.729407 0.119740
O O12 0.500000 0.500000 0.500000
O O13 0.426364 0.487997 0.437421
O O14 0.125035 0.794803 0.019774
O O15 0.195770 0.854482 0.893771
#
# Coordination Sequence:
#
# PCOD9261319 Si02
#       7
#     8   8   8   8   8   8   8
#     4  10  19  31  43  55  71  92 108 150 197 220
#     4   9  15  23  37  52  74  92 110 133 162 196
#     4  10  19  28  40  52  68  93 123 150 183 228
#     4  10  21  34  45  58  69  86 115 157 186 240
#     4   9  17  28  41  56  75  88 110 133 173 231
#     4   9  17  28  36  53  72  92 115 144 172 207
#     4   9  15  23  37  57  70  92 110 128 157 210
#
# _framework density 14.082495
#
# number of rings (size 3 to 8) (size 9 to 14) (size 15 to 20)
#    0.000    2.571    0.000    3.000    2.000    6.857 
#    5.143    0.000    0.000    0.000    0.000    0.000 
#    0.000    0.000    0.000    0.000    0.000    0.000 
#
# Total GULP energy -155903.474952 kJ/mol
# GULP energy per Si atom -5567.981248 kJ/mol
# Density = 1.405044 g / cm^3
# Si number density = 14.082495 Si / 1000 Ang^3
#
#
#
# Elastic Constant Matrix: (Units=GPa)
#
#
# Indices 1 2 3 4 5 6 
#
# 1 110.2907 13.8445 51.4619 0.0000 6.6183 0.0000
# 2 13.8445 9.0229 9.3751 0.0000 -2.6572 0.0000
# 3 51.4619 9.3751 101.5231 0.0000 16.9854 0.0000
# 4 0.0000 0.0000 0.0000 13.9373 0.0000 -1.6162
# 5 6.6183 -2.6572 16.9854 0.0000 28.3711 0.0000
# 6 0.0000 0.0000 0.0000 -1.6162 0.0000 9.5265
#
#
#
# Elastic Compliance Matrix: (Units=1/GPa)
#
#
# Indices 1 2 3 4 5 6 
#
# 1 0.013559 -0.015931 -0.005138 0.000000 -0.001579 0.000000
# 2 -0.015931 0.152809 -0.010059 0.000000 0.024051 0.000000
# 3 -0.005138 -0.010059 0.014825 0.000000 -0.008619 0.000000
# 4 0.000000 0.000000 0.000000 0.073190 0.000000 0.012417
# 5 -0.001579 0.024051 -0.008619 0.000000 0.043028 0.000000
# 6 0.000000 0.000000 0.000000 0.012417 0.000000 0.107077
#
#
# Mechanical properties :
#
#
# Convention : Reuss Voigt Hill
#
# Bulk Modulus (GPa) = 8.40785 41.13332 24.77058
# Shear Modulus (GPa) = 9.87382 20.11065 14.99224
#
# Velocity S-wave (km/s) = 2.65078 3.78307 3.26636
# Velocity P-wave (km/s) = 3.91819 6.95373 5.64387
#
# Compressibility (1/GPa) = 0.11893654
#
# Stress axis : x y z
#
# Youngs Moduli (GPa) = 73.75334 6.54412 67.45294
#
# Poissons Ratio (x) = 0.10426 0.34654
# Poissons Ratio (y) = 1.17498 0.67853
# Poissons Ratio (z) = 0.37891 0.06583
#
# Static dielectric constant tensor:
#      x y z
#    x 1.581620 0.000000 0.058270 
#    y 0.000000 1.443540 0.000000 
#    z 0.058270 0.000000 1.498910 
# 
# From -- ./inp_files/16295.got.cif
#   From: 2010.05.17/outbox.cif.g08.bks.cpg/sg15_9_cif.got.tgz:16295.got - 2010.06.03 18:47:42.
