data_PCOD9261323
_publ_section_title
;
Structure prediction by ZEFSAII (Michael W. Deem and Ramdas Pophale) SiO2 
 PCOD9261323
Probable space group: C 2/C
;
_chemical_formula_sum "Si O2"
_cell_formula_units_Z 48
_cell_length_a 25.034649
_cell_length_b 14.911044
_cell_length_c 24.308538
_cell_angle_alpha 90.000000
_cell_angle_beta 19.409479
_cell_angle_gamma 90.000000
_cell_volume 3015.512853
_symmetry_space_group_name_H-M "C 2/C"
_symmetry_group_IT_number 15
_symmetry_cell_setting 'monoclinic'
loop_
_space_group_symop_operation_xyz
x,y,z
-x,y,1/2-z
-x,-y,-z
x,-y,1/2+z
1/2+x,1/2+y,z
1/2-x,1/2+y,1/2-z
1/2-x,1/2-y,-z
1/2+x,1/2-y,1/2+z
loop_
_atom_site_type_symbol
_atom_site_label
_atom_site_fract_x
_atom_site_fract_y
_atom_site_fract_z
Si Si1 0.842137 0.347719 0.099161
Si Si2 0.220024 0.660823 0.252576
Si Si3 0.893383 0.928778 0.478576
Si Si4 0.121409 0.019400 0.331963
Si Si5 0.670588 0.113124 0.106473
Si Si6 0.832190 0.811788 0.342226
O O1 0.763366 0.265437 0.208986
O O2 0.751714 0.439681 0.201447
O O3 0.802369 0.325182 0.074044
O O4 0.030333 0.351469 0.928559
O O5 0.288192 0.610516 0.240051
O O6 0.308618 0.615463 0.113965
O O7 0.759981 0.950338 0.562837
O O8 0.009420 0.008015 0.387008
O O9 0.008335 0.854312 0.338877
O O10 0.000000 0.000000 0.500000
O O11 0.500000 0.080839 0.250000
O O12 0.644730 0.208566 0.163026
O O13 0.781027 0.136061 0.946804
#
# Coordination Sequence:
#
# PCOD9261323 Si02
#       6
#     8   8   8   8   8   8
#     4  11  20  32  51  69  98 131 166 200 246 294
#     4  11  20  32  48  69  92 130 171 204 247 291
#     4  10  19  31  43  60  93 129 165 205 241 276
#     4   9  20  34  48  67  91 127 169 209 245 285
#     4  11  19  26  41  64  94 127 169 196 230 287
#     4  10  19  28  41  65  92 130 164 193 231 290
#
# _framework density 15.917692000000001
#
# number of rings (size 3 to 8) (size 9 to 14) (size 15 to 20)
#    0.000    1.667    1.667    7.000    0.000    0.000 
#    0.000    0.000    0.000    0.000    0.000    0.000 
#    0.000    0.000    0.000  295.500    0.000    6.333 
#
# Total GULP energy -133913.843576 kJ/mol
# GULP energy per Si atom -5579.743482 kJ/mol
# Density = 1.588146 g / cm^3
# Si number density = 15.917692 Si / 1000 Ang^3
#
#
#
# Elastic Constant Matrix: (Units=GPa)
#
#
# Indices 1 2 3 4 5 6 
#
# 1 101.1661 34.5651 34.0969 0.0071 -23.8452 -0.0089
# 2 34.5651 32.1069 2.3583 -0.1029 0.4254 0.0345
# 3 34.0969 2.3583 86.8115 -0.0500 -12.3896 0.0168
# 4 0.0071 -0.1029 -0.0500 17.6471 0.0066 -2.3224
# 5 -23.8452 0.4254 -12.3896 0.0066 31.6803 0.0007
# 6 -0.0089 0.0345 0.0168 -2.3224 0.0007 23.4426
#
#
#
# Elastic Compliance Matrix: (Units=1/GPa)
#
#
# Indices 1 2 3 4 5 6 
#
# 1 0.025399 -0.027064 -0.006842 -0.000189 0.016805 0.000035
# 2 -0.027064 0.060066 0.006329 0.000378 -0.018702 -0.000065
# 3 -0.006842 0.006329 0.014073 0.000078 0.000269 -0.000014
# 4 -0.000189 0.000378 0.000078 0.057417 -0.000129 0.005688
# 5 0.016805 -0.018702 0.000269 -0.000129 0.044570 0.000020
# 6 0.000035 -0.000065 -0.000014 0.005688 0.000020 0.043221
#
#
# Mechanical properties :
#
#
# Convention : Reuss Voigt Hill
#
# Bulk Modulus (GPa) = 22.53072 40.23613 31.38343
# Shear Modulus (GPa) = 15.88836 24.49162 20.18999
#
# Velocity S-wave (km/s) = 3.16279 3.92681 3.56532
# Velocity P-wave (km/s) = 5.24623 6.77438 6.05868
#
# Compressibility (1/GPa) = 0.04438385
#
# Stress axis : x y z
#
# Youngs Moduli (GPa) = 39.37208 16.64826 71.05737
#
# Poissons Ratio (x) = 0.45057 0.48620
# Poissons Ratio (y) = 1.06557 -0.44974
# Poissons Ratio (z) = 0.26940 -0.10537
#
# Static dielectric constant tensor:
#      x y z
#    x 1.571100 -0.000010 -0.029730 
#    y -0.000010 1.508320 0.000000 
#    z -0.029730 0.000000 1.570720 
# 
# From -- ./inp_files/61199.got.cif
#   From: 2010.05.17/outbox.cif.g08.bks.cpg/sg15_31_cif.got.tgz:61199.got - 2010.06.03 18:47:42.
