data_PCOD9261442
_publ_section_title
;
Structure prediction by ZEFSAII (Michael W. Deem and Ramdas Pophale) SiO2 
 PCOD9261442
Probable space group: C 2/C
;
_chemical_formula_sum "Si O2"
_cell_formula_units_Z 48
_cell_length_a 7.469490
_cell_length_b 13.782036
_cell_length_c 24.437126
_cell_angle_alpha 90.000000
_cell_angle_beta 43.042534
_cell_angle_gamma 90.000000
_cell_volume 1717.051279
_symmetry_space_group_name_H-M "C 2/C"
_symmetry_group_IT_number 15
_symmetry_cell_setting 'monoclinic'
loop_
_space_group_symop_operation_xyz
x,y,z
-x,y,1/2-z
-x,-y,-z
x,-y,1/2+z
1/2+x,1/2+y,z
1/2-x,1/2+y,1/2-z
1/2-x,1/2-y,-z
1/2+x,1/2-y,1/2+z
loop_
_atom_site_type_symbol
_atom_site_label
_atom_site_fract_x
_atom_site_fract_y
_atom_site_fract_z
Si Si1 0.871993 0.493346 0.197917
Si Si2 0.559965 0.487629 0.424005
Si Si3 0.161759 0.753686 0.108776
Si Si4 0.327669 0.513747 0.871863
Si Si5 0.142763 0.737921 0.776969
Si Si6 0.877481 0.765604 0.064551
O O1 0.865492 0.509576 0.134110
O O2 0.605511 0.526815 0.286113
O O3 0.837854 0.377102 0.214685
O O4 0.154021 0.528409 0.155190
O O5 0.500000 0.500000 0.500000
O O6 0.330820 0.519273 0.434150
O O7 0.617159 0.372590 0.409782
O O8 0.177308 0.869208 0.119165
O O9 0.936528 0.722948 0.202445
O O10 0.039072 0.714946 0.077814
O O11 0.464893 0.730310 0.027264
O O12 0.000000 0.748725 0.750000
O O13 0.920910 0.771508 0.869377
#
# Coordination Sequence:
#
# PCOD9261442 Si02
#       6
#     8   8   8   8   8   8
#     4   9  16  29  48  72  90 114 165 208 240 279
#     4  10  19  30  45  70  99 133 160 200 239 288
#     4   8  13  24  43  67  94 119 150 203 244 289
#     4   9  17  29  49  74  90 118 162 207 248 281
#     4   8  13  23  41  66  95 119 155 197 246 296
#     4   8  14  25  42  67  93 125 160 187 246 294
#
# _framework density 27.954901
#
# number of rings (size 3 to 8) (size 9 to 14) (size 15 to 20)
#    0.000    3.333    0.000    3.500    0.000    0.667 
#    0.000    3.333    0.000    0.000   56.333    0.000 
#    0.000    0.000    0.000    0.000    0.000    0.000 
#
# Total GULP energy -133804.016755 kJ/mol
# GULP energy per Si atom -5575.167365 kJ/mol
# Density = 2.789127 g / cm^3
# Si number density = 27.954901 Si / 1000 Ang^3
#
#
#
# Elastic Constant Matrix: (Units=GPa)
#
#
# Indices 1 2 3 4 5 6 
#
# 1 94.1430 3.9117 42.5294 -0.0007 26.3237 0.0008
# 2 3.9117 89.8725 1.9699 -0.0016 -10.2129 0.0014
# 3 42.5294 1.9699 186.1340 -0.0017 -29.3047 0.0002
# 4 -0.0007 -0.0016 -0.0017 30.0214 0.0019 0.7780
# 5 26.3237 -10.2129 -29.3047 0.0019 57.7007 -0.0014
# 6 0.0008 0.0014 0.0002 0.7780 -0.0014 3.8821
#
#
#
# Elastic Compliance Matrix: (Units=1/GPa)
#
#
# Indices 1 2 3 4 5 6 
#
# 1 0.015914 -0.001740 -0.005227 0.000001 -0.010223 -0.000006
# 2 -0.001740 0.011553 0.000785 0.000000 0.003237 -0.000003
# 3 -0.005227 0.000785 0.007560 0.000000 0.006363 0.000003
# 4 0.000001 0.000000 0.000000 0.033483 -0.000002 -0.006710
# 5 -0.010223 0.003237 0.006363 -0.000002 0.025800 0.000010
# 6 -0.000006 -0.000003 0.000003 -0.006710 0.000010 0.258940
#
#
# Mechanical properties :
#
#
# Convention : Reuss Voigt Hill
#
# Bulk Modulus (GPa) = 44.12361 51.88572 48.00466
# Shear Modulus (GPa) = 13.39873 39.77007 26.58440
#
# Velocity S-wave (km/s) = 2.19166 3.77590 3.08713
# Velocity P-wave (km/s) = 4.71409 6.13275 5.46961
#
# Compressibility (1/GPa) = 0.02266360
#
# Stress axis : x y z
#
# Youngs Moduli (GPa) = 62.83598 86.55554 132.26790
#
# Poissons Ratio (x) = 0.15059 0.69141
# Poissons Ratio (y) = 0.10932 -0.10382
# Poissons Ratio (z) = 0.32847 -0.06794
#
# Static dielectric constant tensor:
#      x y z
#    x 2.440390 -0.000010 0.020660 
#    y -0.000010 2.336880 0.000000 
#    z 0.020660 0.000000 2.209600 
# 
# From -- ./inp_files/289838.got.cif
#   From: 2010.05.17/outbox.cif.g08.bks.cpg/sg15_145_cif.got.tgz:289838.got - 2010.06.03 18:47:42.
