data_PCOD9261749
_publ_section_title
;
Structure prediction by ZEFSAII (Michael W. Deem and Ramdas Pophale) SiO2 
 PCOD9261749
Probable space group: C 2/C
;
_chemical_formula_sum "Si O2"
_cell_formula_units_Z 52
_cell_length_a 34.201386
_cell_length_b 5.067057
_cell_length_c 22.964457
_cell_angle_alpha 90.000000
_cell_angle_beta 151.196649
_cell_angle_gamma 90.000000
_cell_volume 1917.462643
_symmetry_space_group_name_H-M "C 2/C"
_symmetry_group_IT_number 15
_symmetry_cell_setting 'monoclinic'
loop_
_space_group_symop_operation_xyz
x,y,z
-x,y,1/2-z
-x,-y,-z
x,-y,1/2+z
1/2+x,1/2+y,z
1/2-x,1/2+y,1/2-z
1/2-x,1/2-y,-z
1/2+x,1/2-y,1/2+z
loop_
_atom_site_type_symbol
_atom_site_label
_atom_site_fract_x
_atom_site_fract_y
_atom_site_fract_z
Si Si1 0.265783 0.958238 0.945844
Si Si2 0.138430 0.901120 0.620936
Si Si3 0.970689 0.007027 0.788504
Si Si4 0.657885 0.886365 0.839507
Si Si5 0.000000 0.482170 0.750000
Si Si6 0.672454 0.904593 0.592942
Si Si7 0.413347 0.268863 0.823019
O O1 0.231619 0.258699 0.899227
O O2 0.330950 0.890446 0.981296
O O3 0.181660 0.809348 0.821716
O O4 0.306206 0.939213 0.061337
O O5 0.135797 0.663198 0.572869
O O6 0.084379 0.838939 0.606952
O O7 0.230999 0.906791 0.767489
O O8 0.134892 0.165382 0.579193
O O9 0.883200 0.154107 0.674402
O O10 0.024252 0.240029 0.828553
O O11 0.972673 0.933332 0.859615
O O12 0.972569 0.717107 0.760507
O O13 0.587510 0.971060 0.702105
#
# Coordination Sequence:
#
# PCOD9261749 Si02
#       7
#     8   8   8   8   4   8   8
#     4   9  20  30  49  72 115 146 184 195 246 297
#     4   9  19  28  47  63  97 130 186 206 253 269
#     4  10  20  34  53  74 102 131 164 209 268 312
#     4  10  19  33  49  82 103 151 169 211 245 318
#     4  10  20  36  52  72 102 130 158 216 268 326
#     4   9  18  31  42  66  93 146 172 219 227 286
#     4  10  19  31  52  74 106 140 172 214 248 306
#
# _framework density 27.119171000000001
#
# number of rings (size 3 to 8) (size 9 to 14) (size 15 to 20)
#    0.000    2.462    1.538    0.462   12.923    0.000 
#    0.000    0.000    0.000    0.000    0.000    0.000 
#    0.000   24.615    0.000    0.000    0.000    0.000 
#
# Total GULP energy -144758.801556 kJ/mol
# GULP energy per Si atom -5567.646214 kJ/mol
# Density = 2.705745 g / cm^3
# Si number density = 27.119171 Si / 1000 Ang^3
#
#
#
# Elastic Constant Matrix: (Units=GPa)
#
#
# Indices 1 2 3 4 5 6 
#
# 1 149.5682 61.8707 49.0849 -0.0002 -44.4870 0.0003
# 2 61.8707 194.2869 36.6779 0.0023 -26.8293 -0.0040
# 3 49.0849 36.6779 80.9315 -0.0003 -19.2434 0.0009
# 4 -0.0002 0.0023 -0.0003 30.9374 -0.0011 -9.9261
# 5 -44.4870 -26.8293 -19.2434 -0.0011 60.8223 0.0006
# 6 0.0003 -0.0040 0.0009 -9.9261 0.0006 -40.8377
#
#
#
# Elastic Compliance Matrix: (Units=1/GPa)
#
#
# Indices 1 2 3 4 5 6 
#
# 1 0.010445 -0.001766 -0.004221 0.000000 0.005525 0.000000
# 2 -0.001766 0.006118 -0.001478 -0.000001 0.000939 0.000000
# 3 -0.004221 -0.001478 0.015892 0.000000 0.001289 0.000000
# 4 0.000000 -0.000001 0.000000 0.029985 0.000001 -0.007288
# 5 0.005525 0.000939 0.001289 0.000001 0.021305 0.000000
# 6 0.000000 0.000000 0.000000 -0.007288 0.000000 -0.022716
#
#
# Mechanical properties :
#
#
# Convention : Reuss Voigt Hill
#
# Bulk Modulus (GPa) = 57.06042 80.00597 68.53319
# Shear Modulus (GPa) = 61.12303 28.66125 44.89214
#
# Velocity S-wave (km/s) = 4.75264 3.25447 4.07303
# Velocity P-wave (km/s) = 7.15563 6.60967 6.88807
#
# Compressibility (1/GPa) = 0.01752528
#
# Stress axis : x y z
#
# Youngs Moduli (GPa) = 95.73787 163.44429 62.92336
#
# Poissons Ratio (x) = 0.28872 0.26558
# Poissons Ratio (y) = 0.16912 0.09301
# Poissons Ratio (z) = 0.40408 0.24159
#
# Static dielectric constant tensor:
#      x y z
#    x 2.212060 0.000000 0.050830 
#    y 0.000000 2.700390 -0.000010 
#    z 0.050830 -0.000010 2.181490 
# 
# From -- ./inp_files/258329.got.cif
#   From: 2010.05.17/outbox.cif.g08.bks.cpg/sg15_130_cif.got.tgz:258329.got - 2010.06.03 18:47:42.
