data_PCOD9261014
_publ_section_title
;
Structure prediction by ZEFSAII (Michael W. Deem and Ramdas Pophale) SiO2 
 PCOD9261014
Probable space group: C 2/C
;
_chemical_formula_sum "Si O2"
_cell_formula_units_Z 56
_cell_length_a 18.192942
_cell_length_b 11.874368
_cell_length_c 15.459531
_cell_angle_alpha 90.000000
_cell_angle_beta 128.877217
_cell_angle_gamma 90.000000
_cell_volume 2599.946119
_symmetry_space_group_name_H-M "C 2/C"
_symmetry_group_IT_number 15
_symmetry_cell_setting 'monoclinic'
loop_
_space_group_symop_operation_xyz
x,y,z
-x,y,1/2-z
-x,-y,-z
x,-y,1/2+z
1/2+x,1/2+y,z
1/2-x,1/2+y,1/2-z
1/2-x,1/2-y,-z
1/2+x,1/2-y,1/2+z
loop_
_atom_site_type_symbol
_atom_site_label
_atom_site_fract_x
_atom_site_fract_y
_atom_site_fract_z
Si Si1 0.338887 0.753995 0.968561
Si Si2 0.011367 0.806916 0.359791
Si Si3 0.015945 0.632904 0.511114
Si Si4 0.266285 0.438745 0.510397
Si Si5 0.775411 0.840576 0.945697
Si Si6 0.677938 0.272445 0.706316
Si Si7 0.415939 0.527348 0.260693
O O1 0.433402 0.801376 0.999202
O O2 0.308809 0.844969 0.018643
O O3 0.254220 0.750085 0.836565
O O4 0.343271 0.630581 0.012302
O O5 0.010763 0.692248 0.413420
O O6 0.000000 0.783135 0.250000
O O7 0.112976 0.860019 0.457128
O O8 0.938337 0.908723 0.324005
O O9 0.000000 0.500000 0.500000
O O10 0.113790 0.667781 0.629248
O O11 0.224252 0.543010 0.428512
O O12 0.319050 0.483589 0.634494
O O13 0.750000 0.750000 0.000000
O O14 0.766319 0.807174 0.839571
O O15 0.607292 0.370295 0.690923
O O16 0.500000 0.544807 0.250000
#
# Coordination Sequence:
#
# PCOD9261014 Si02
#       7
#     8   8   8   8   8   8   8
#     4  10  24  43  67  95 136 177 221 282 334 414
#     4  10  22  41  66  96 124 168 218 276 350 390
#     4  11  26  44  64  96 140 176 225 275 339 420
#     4  10  21  41  65  97 128 172 223 271 343 395
#     4  11  24  39  64  94 136 171 218 283 329 404
#     4  10  25  42  67 103 128 182 234 271 349 400
#     4  10  18  39  70 100 126 157 219 294 337 400
#
# _framework density 21.538909
#
# number of rings (size 3 to 8) (size 9 to 14) (size 15 to 20)
#    0.000    1.714    2.857    0.857    8.000    2.286 
#    0.000    2.143    0.000    0.000    0.000    0.000 
#    0.000    0.000    0.000    0.000    0.000    0.000 
#
# Total GULP energy -156321.776384 kJ/mol
# GULP energy per Si atom -5582.920585 kJ/mol
# Density = 2.148989 g / cm^3
# Si number density = 21.538909 Si / 1000 Ang^3
#
#
#
# Elastic Constant Matrix: (Units=GPa)
#
#
# Indices 1 2 3 4 5 6 
#
# 1 37.6866 13.6968 11.6197 0.0000 -14.3393 0.0000
# 2 13.6968 140.1006 41.5875 0.0000 -15.0432 0.0000
# 3 11.6197 41.5875 76.8281 0.0000 -8.5801 0.0000
# 4 0.0000 0.0000 0.0000 24.7822 0.0000 -3.2988
# 5 -14.3393 -15.0432 -8.5801 0.0000 30.3026 0.0000
# 6 0.0000 0.0000 0.0000 -3.2988 0.0000 19.4961
#
#
#
# Elastic Compliance Matrix: (Units=1/GPa)
#
#
# Indices 1 2 3 4 5 6 
#
# 1 0.033261 -0.000813 -0.002972 0.000000 0.014494 0.000000
# 2 -0.000813 0.008799 -0.004332 0.000000 0.002757 0.000000
# 3 -0.002972 -0.004332 0.015917 0.000000 0.000950 0.000000
# 4 0.000000 0.000000 0.000000 0.041281 0.000000 0.006985
# 5 0.014494 0.002757 0.000950 0.000000 0.041497 0.000000
# 6 0.000000 0.000000 0.000000 0.006985 0.000000 0.052474
#
#
# Mechanical properties :
#
#
# Convention : Reuss Voigt Hill
#
# Bulk Modulus (GPa) = 23.95618 43.15816 33.55717
# Shear Modulus (GPa) = 22.38361 27.43027 24.90694
#
# Velocity S-wave (km/s) = 3.22719 3.57252 3.40423
# Velocity P-wave (km/s) = 5.00327 6.09081 5.57363
#
# Compressibility (1/GPa) = 0.04174289
#
# Stress axis : x y z
#
# Youngs Moduli (GPa) = 30.06498 113.64661 62.82741
#
# Poissons Ratio (x) = 0.09244 0.18670
# Poissons Ratio (y) = 0.02445 0.27218
# Poissons Ratio (z) = 0.08934 0.49234
#
# Static dielectric constant tensor:
#      x y z
#    x 1.916350 0.000000 -0.068640 
#    y 0.000000 1.828700 0.000000 
#    z -0.068640 0.000000 1.820470 
# 
# From -- ./inp_files/161396.got.cif
#   From: 2010.05.17/outbox.cif.g08.bks.cpg/sg15_81_cif.got.tgz:161396.got - 2010.06.03 18:47:42.
