data_PCOD9261867
_publ_section_title
;
Structure prediction by ZEFSAII (Michael W. Deem and Ramdas Pophale) SiO2 
 PCOD9261867
Probable space group: C 2/C
;
_chemical_formula_sum "Si O2"
_cell_formula_units_Z 52
_cell_length_a 12.829926
_cell_length_b 27.477246
_cell_length_c 8.937212
_cell_angle_alpha 90.000000
_cell_angle_beta 93.854609
_cell_angle_gamma 90.000000
_cell_volume 3143.517343
_symmetry_space_group_name_H-M "C 2/C"
_symmetry_group_IT_number 15
_symmetry_cell_setting 'monoclinic'
loop_
_space_group_symop_operation_xyz
x,y,z
-x,y,1/2-z
-x,-y,-z
x,-y,1/2+z
1/2+x,1/2+y,z
1/2-x,1/2+y,1/2-z
1/2-x,1/2-y,-z
1/2+x,1/2-y,1/2+z
loop_
_atom_site_type_symbol
_atom_site_label
_atom_site_fract_x
_atom_site_fract_y
_atom_site_fract_z
Si Si1 0.351492 0.271994 0.592377
Si Si2 0.303252 0.849604 0.392953
Si Si3 0.086173 0.433824 0.973190
Si Si4 0.888795 0.817049 0.297326
Si Si5 0.500000 0.805535 0.250000
Si Si6 0.810495 0.288372 0.682590
Si Si7 0.500000 0.990249 0.250000
Si Si8 0.000000 0.359227 0.750000
O O1 0.250000 0.250000 0.500000
O O2 0.392816 0.310408 0.476493
O O3 0.437204 0.230702 0.632806
O O4 0.300054 0.290413 0.741346
O O5 0.313690 0.900542 0.481434
O O6 0.208423 0.848591 0.268416
O O7 0.411589 0.837984 0.318932
O O8 0.293291 0.805409 0.511007
O O9 0.083751 0.475220 0.844737
O O10 0.007593 0.393675 0.895606
O O11 0.049813 0.458250 0.123458
O O12 0.863056 0.763825 0.221584
O O13 0.000000 0.834115 0.250000
O O14 0.896827 0.326602 0.750079
#
# Coordination Sequence:
#
# PCOD9261867 Si02
#       8
#     8   8   8   8   4   8   4   4
#     4  10  22  32  44  67  94 144 190 220 249 282
#     4  11  22  32  51  76  99 137 177 217 258 297
#     4   9  19  31  52  77  99 128 163 207 264 329
#     4  11  21  34  48  67 102 146 182 217 242 283
#     4  12  21  32  49  68 106 136 194 221 246 295
#     4  10  19  32  45  68 103 141 181 210 248 281
#     4   9  17  36  52  74 104 126 150 208 284 328
#     4   9  18  30  51  74 106 140 172 209 242 299
#
# _framework density 16.541979000000001
#
# number of rings (size 3 to 8) (size 9 to 14) (size 15 to 20)
#    0.000    1.846    3.846    1.846    8.615    1.231 
#    0.000    0.000    0.000    0.000    0.000    1.077 
#    0.000    0.000    0.000    0.462    0.000    0.000 
#
# Total GULP energy -144824.409011 kJ/mol
# GULP energy per Si atom -5570.169577 kJ/mol
# Density = 1.650433 g / cm^3
# Si number density = 16.541979 Si / 1000 Ang^3
#
#
#
# Elastic Constant Matrix: (Units=GPa)
#
#
# Indices 1 2 3 4 5 6 
#
# 1 85.1724 13.9553 24.1814 0.0000 -2.9359 0.0000
# 2 13.9553 59.4203 16.3009 0.0000 10.6438 0.0000
# 3 24.1814 16.3009 73.5273 0.0000 -0.4115 0.0000
# 4 0.0000 0.0000 0.0000 15.6008 0.0000 0.2748
# 5 -2.9359 10.6438 -0.4115 0.0000 30.1650 0.0000
# 6 0.0000 0.0000 0.0000 0.2748 0.0000 6.5179
#
#
#
# Elastic Compliance Matrix: (Units=1/GPa)
#
#
# Indices 1 2 3 4 5 6 
#
# 1 0.013300 -0.002454 -0.003818 0.000000 0.002108 0.000000
# 2 -0.002454 0.019689 -0.003598 0.000000 -0.007235 0.000000
# 3 -0.003818 -0.003598 0.015660 0.000000 0.001112 0.000000
# 4 0.000000 0.000000 0.000000 0.064147 0.000000 -0.002705
# 5 0.002108 -0.007235 0.001112 0.000000 0.035924 0.000000
# 6 0.000000 0.000000 0.000000 -0.002705 0.000000 0.153538
#
#
# Mechanical properties :
#
#
# Convention : Reuss Voigt Hill
#
# Bulk Modulus (GPa) = 34.59281 36.33281 35.46281
# Shear Modulus (GPa) = 15.07688 21.36890 18.22289
#
# Velocity S-wave (km/s) = 3.02227 3.59806 3.32266
# Velocity P-wave (km/s) = 5.75642 6.26682 6.01703
#
# Compressibility (1/GPa) = 0.02890774
#
# Stress axis : x y z
#
# Youngs Moduli (GPa) = 75.19023 50.79058 63.85657
#
# Poissons Ratio (x) = 0.12462 0.24381
# Poissons Ratio (y) = 0.18449 0.22979
# Poissons Ratio (z) = 0.28709 0.18277
#
# Static dielectric constant tensor:
#      x y z
#    x 1.581270 0.000000 0.005840 
#    y 0.000000 1.571510 0.000000 
#    z 0.005840 0.000000 1.636680 
# 
# From -- ./inp_files/33640.got.cif
#   From: 2010.05.17/outbox.cif.g08.bks.cpg/sg15_17_cif.got.tgz:33640.got - 2010.06.03 18:47:42.
