data_PCOD9261175
_publ_section_title
;
Structure prediction by ZEFSAII (Michael W. Deem and Ramdas Pophale) SiO2 
 PCOD9261175
Probable space group: C 2/C
;
_chemical_formula_sum "Si O2"
_cell_formula_units_Z 60
_cell_length_a 8.727619
_cell_length_b 17.517709
_cell_length_c 21.423916
_cell_angle_alpha 90.000000
_cell_angle_beta 98.661789
_cell_angle_gamma 90.000000
_cell_volume 3238.099226
_symmetry_space_group_name_H-M "C 2/C"
_symmetry_group_IT_number 15
_symmetry_cell_setting 'monoclinic'
loop_
_space_group_symop_operation_xyz
x,y,z
-x,y,1/2-z
-x,-y,-z
x,-y,1/2+z
1/2+x,1/2+y,z
1/2-x,1/2+y,1/2-z
1/2-x,1/2-y,-z
1/2+x,1/2-y,1/2+z
loop_
_atom_site_type_symbol
_atom_site_label
_atom_site_fract_x
_atom_site_fract_y
_atom_site_fract_z
Si Si1 0.926401 0.691963 0.840507
Si Si2 0.992786 0.444926 0.559601
Si Si3 0.206370 0.671362 0.529353
Si Si4 0.500000 0.325697 0.750000
Si Si5 0.979426 0.952436 0.061467
Si Si6 0.311438 0.558982 0.149358
Si Si7 0.698795 0.069930 0.874057
Si Si8 0.176967 0.555539 0.740333
O O1 0.863657 0.692216 0.907019
O O2 0.822025 0.638562 0.789917
O O3 0.937638 0.769290 0.801287
O O4 0.086491 0.642717 0.857242
O O5 0.160721 0.421345 0.597151
O O6 0.000000 0.500000 0.500000
O O7 0.906183 0.371923 0.526244
O O8 0.896480 0.498365 0.602589
O O9 0.250000 0.750000 0.500000
O O10 0.345932 0.611254 0.549117
O O11 0.614490 0.378156 0.799470
O O12 0.146911 0.913242 0.078867
O O13 0.931349 0.014292 0.111658
O O14 0.000000 0.000000 0.000000
O O15 0.239848 0.498613 0.192300
O O16 0.764482 0.048832 0.810134
O O17 0.000000 0.537724 0.750000
#
# Coordination Sequence:
#
# PCOD9261175 Si02
#       8
#     8   8   8   4   8   8   8   8
#     4  11  22  47  66  93 143 182 222 281 355 411
#     4  12  20  44  73  98 130 187 232 267 343 427
#     4  12  27  44  67 101 142 179 225 295 347 399
#     4  12  28  42  70 108 138 168 236 304 342 396
#     4  12  24  41  67 108 137 172 234 289 333 410
#     4  12  24  43  71 102 137 179 231 291 337 413
#     4  11  20  37  75  95 128 183 230 271 335 424
#     4  10  18  40  70  92 120 183 225 262 333 415
#
# _framework density 18.529389999999999
#
# number of rings (size 3 to 8) (size 9 to 14) (size 15 to 20)
#    0.000    0.533   10.000    0.800    1.867    2.133 
#    0.000    1.333    0.000    0.000    0.000    0.000 
#    0.000    0.000    0.000    0.000    0.000    0.000 
#
# Total GULP energy -167080.491163 kJ/mol
# GULP energy per Si atom -5569.349705 kJ/mol
# Density = 1.848722 g / cm^3
# Si number density = 18.529390 Si / 1000 Ang^3
#
#
#
# Elastic Constant Matrix: (Units=GPa)
#
#
# Indices 1 2 3 4 5 6 
#
# 1 79.0911 48.2931 56.4798 0.0000 10.7924 0.0000
# 2 48.2931 106.7631 48.5902 0.0000 9.0424 0.0000
# 3 56.4798 48.5902 135.0786 0.0000 -1.4791 0.0000
# 4 0.0000 0.0000 0.0000 45.2573 0.0000 -2.0303
# 5 10.7924 9.0424 -1.4791 0.0000 47.0670 0.0000
# 6 0.0000 0.0000 0.0000 -2.0303 0.0000 25.6289
#
#
#
# Elastic Compliance Matrix: (Units=1/GPa)
#
#
# Indices 1 2 3 4 5 6 
#
# 1 0.022137 -0.006503 -0.006961 0.000000 -0.004046 0.000000
# 2 -0.006503 0.013360 -0.002099 0.000000 -0.001142 0.000000
# 3 -0.006961 -0.002099 0.011095 0.000000 0.002348 0.000000
# 4 0.000000 0.000000 0.000000 0.022175 0.000000 0.001757
# 5 -0.004046 -0.001142 0.002348 0.000000 0.022467 0.000000
# 6 0.000000 0.000000 0.000000 0.001757 0.000000 0.039158
#
#
# Mechanical properties :
#
#
# Convention : Reuss Voigt Hill
#
# Bulk Modulus (GPa) = 64.66098 69.73987 67.20043
# Shear Modulus (GPa) = 29.99872 34.76197 32.38034
#
# Velocity S-wave (km/s) = 4.02802 4.33603 4.18486
# Velocity P-wave (km/s) = 7.52366 7.92385 7.72635
#
# Compressibility (1/GPa) = 0.01546528
#
# Stress axis : x y z
#
# Youngs Moduli (GPa) = 45.17238 74.84952 90.13276
#
# Poissons Ratio (x) = 0.48672 0.62745
# Poissons Ratio (y) = 0.29374 0.18923
# Poissons Ratio (z) = 0.31446 0.15714
#
# Static dielectric constant tensor:
#      x y z
#    x 1.563910 0.000000 -0.147980 
#    y 0.000000 1.810130 0.000000 
#    z -0.147980 0.000000 1.418380 
# 
# From -- ./inp_files/232723.got.cif
#   From: 2010.05.17/outbox.cif.g08.bks.cpg/sg15_117_cif.got.tgz:232723.got - 2010.06.03 18:47:42.
