data_PCOD9261158
_publ_section_title
;
Structure prediction by ZEFSAII (Michael W. Deem and Ramdas Pophale) SiO2 
 PCOD9261158
Probable space group: C 2/C
;
_chemical_formula_sum "Si O2"
_cell_formula_units_Z 36
_cell_length_a 10.032753
_cell_length_b 10.806791
_cell_length_c 17.272529
_cell_angle_alpha 90.000000
_cell_angle_beta 56.966387
_cell_angle_gamma 90.000000
_cell_volume 1569.996347
_symmetry_space_group_name_H-M "C 2/C"
_symmetry_group_IT_number 15
_symmetry_cell_setting 'monoclinic'
loop_
_space_group_symop_operation_xyz
x,y,z
-x,y,1/2-z
-x,-y,-z
x,-y,1/2+z
1/2+x,1/2+y,z
1/2-x,1/2+y,1/2-z
1/2-x,1/2-y,-z
1/2+x,1/2-y,1/2+z
loop_
_atom_site_type_symbol
_atom_site_label
_atom_site_fract_x
_atom_site_fract_y
_atom_site_fract_z
Si Si1 0.500000 0.057686 0.750000
Si Si2 0.413918 0.487197 0.445500
Si Si3 0.199392 0.973729 0.757595
Si Si4 0.007497 0.237822 0.126175
Si Si5 0.646860 0.909206 0.440649
O O1 0.441625 0.146276 0.838717
O O2 0.354313 0.981045 0.762171
O O3 0.500000 0.500000 0.500000
O O4 0.557119 0.449132 0.342410
O O5 0.370895 0.629198 0.433780
O O6 0.259273 0.405512 0.480102
O O7 0.126832 0.836072 0.781328
O O8 0.245878 0.029328 0.660988
O O9 0.924311 0.285641 0.074186
O O10 0.500000 0.000000 0.500000
#
# Coordination Sequence:
#
# PCOD9261158 Si02
#       5
#     4   8   8   8   8
#     4  10  18  40  68  90 122 166 220 260 308 388
#     4  10  23  43  62  94 135 165 214 267 319 386
#     4   9  22  43  63  92 132 164 216 262 316 389
#     4   9  22  42  63  93 127 172 214 253 335 377
#     4  11  23  41  69  97 128 168 222 265 315 389
#
# _framework density 22.929988999999999
#
# number of rings (size 3 to 8) (size 9 to 14) (size 15 to 20)
#    1.333    0.889    0.000    2.000    6.222    1.778 
#   16.000    0.000    0.000    0.000    0.000    0.000 
#    0.000    0.000    0.000    0.000    0.000    0.000 
#
# Total GULP energy -100427.616213 kJ/mol
# GULP energy per Si atom -5579.312012 kJ/mol
# Density = 2.287780 g / cm^3
# Si number density = 22.929989 Si / 1000 Ang^3
#
#
#
# Elastic Constant Matrix: (Units=GPa)
#
#
# Indices 1 2 3 4 5 6 
#
# 1 156.9115 4.7357 2.4770 0.0000 0.8193 0.0000
# 2 4.7357 48.0280 -4.2879 0.0000 3.4075 0.0000
# 3 2.4770 -4.2879 58.5492 0.0000 -0.9941 0.0000
# 4 0.0000 0.0000 0.0000 14.4669 0.0000 -0.5175
# 5 0.8193 3.4075 -0.9941 0.0000 26.8981 0.0000
# 6 0.0000 0.0000 0.0000 -0.5175 0.0000 37.2992
#
#
#
# Elastic Compliance Matrix: (Units=1/GPa)
#
#
# Indices 1 2 3 4 5 6 
#
# 1 0.006398 -0.000651 -0.000320 0.000000 -0.000124 0.000000
# 2 -0.000651 0.021208 0.001536 0.000000 -0.002610 0.000000
# 3 -0.000320 0.001536 0.017213 0.000000 0.000451 0.000000
# 4 0.000000 0.000000 0.000000 0.069158 0.000000 0.000959
# 5 -0.000124 -0.002610 0.000451 0.000000 0.037528 0.000000
# 6 0.000000 0.000000 0.000000 0.000959 0.000000 0.026824
#
#
# Mechanical properties :
#
#
# Convention : Reuss Voigt Hill
#
# Bulk Modulus (GPa) = 21.76282 29.92648 25.84465
# Shear Modulus (GPa) = 25.97196 33.10377 29.53786
#
# Velocity S-wave (km/s) = 3.36916 3.80371 3.59301
# Velocity P-wave (km/s) = 4.96453 5.68951 5.33934
#
# Compressibility (1/GPa) = 0.04594992
#
# Stress axis : x y z
#
# Youngs Moduli (GPa) = 156.28995 47.15269 58.09433
#
# Poissons Ratio (x) = 0.03068 0.01862
# Poissons Ratio (y) = 0.10170 -0.08926
# Poissons Ratio (z) = 0.05008 -0.07244
#
# Static dielectric constant tensor:
#      x y z
#    x 1.898680 0.000000 0.028800 
#    y 0.000000 1.832510 0.000000 
#    z 0.028800 0.000000 1.913750 
# 
# From -- ./inp_files/230592.got.cif
#   From: 2010.05.17/outbox.cif.g08.bks.cpg/sg15_116_cif.got.tgz:230592.got - 2010.06.03 18:47:42.
