data_PCOD9261191
_publ_section_title
;
Structure prediction by ZEFSAII (Michael W. Deem and Ramdas Pophale) SiO2 
 PCOD9261191
Probable space group: C 2/C
;
_chemical_formula_sum "Si O2"
_cell_formula_units_Z 40
_cell_length_a 7.393541
_cell_length_b 23.127648
_cell_length_c 10.519978
_cell_angle_alpha 90.000000
_cell_angle_beta 80.400788
_cell_angle_gamma 90.000000
_cell_volume 1773.678761
_symmetry_space_group_name_H-M "C 2/C"
_symmetry_group_IT_number 15
_symmetry_cell_setting 'monoclinic'
loop_
_space_group_symop_operation_xyz
x,y,z
-x,y,1/2-z
-x,-y,-z
x,-y,1/2+z
1/2+x,1/2+y,z
1/2-x,1/2+y,1/2-z
1/2-x,1/2-y,-z
1/2+x,1/2-y,1/2+z
loop_
_atom_site_type_symbol
_atom_site_label
_atom_site_fract_x
_atom_site_fract_y
_atom_site_fract_z
Si Si1 0.000000 0.564187 0.750000
Si Si2 0.722800 0.623850 0.601523
Si Si3 0.004128 0.284610 0.098477
Si Si4 0.618237 0.658968 0.995550
Si Si5 0.658862 0.954874 0.646295
Si Si6 0.000000 0.081692 0.250000
O O1 0.168657 0.598634 0.790124
O O2 0.083301 0.519491 0.635950
O O3 0.506015 0.632032 0.602917
O O4 0.788824 0.581708 0.480980
O O5 0.816252 0.686538 0.576064
O O6 0.047317 0.224255 0.027100
O O7 0.000000 0.274110 0.250000
O O8 0.166400 0.331041 0.052112
O O9 0.577119 0.621568 0.126649
O O10 0.500000 0.925240 0.750000
O O11 0.838570 0.957067 0.712659
#
# Coordination Sequence:
#
# PCOD9261191 Si02
#       6
#     4   8   8   8   8   4
#     4  10  22  41  60  92 130 165 216 264 310 374
#     4  11  21  42  61  91 128 168 210 258 318 374
#     4  11  22  41  63  95 129 163 207 260 316 387
#     4  10  23  39  67  92 128 165 208 259 321 381
#     4   9  21  37  61  87 123 169 210 261 313 365
#     4  10  18  41  62  94 124 167 218 254 318 382
#
# _framework density 22.551997
#
# number of rings (size 3 to 8) (size 9 to 14) (size 15 to 20)
#    0.600    1.200    2.000    2.400    0.000    0.800 
#    3.600    2.000    0.000    0.000    0.000    0.000 
#    0.000    0.000    0.000    0.000    0.000    0.000 
#
# Total GULP energy -111677.400228 kJ/mol
# GULP energy per Si atom -5583.870011 kJ/mol
# Density = 2.250067 g / cm^3
# Si number density = 22.551997 Si / 1000 Ang^3
#
#
#
# Elastic Constant Matrix: (Units=GPa)
#
#
# Indices 1 2 3 4 5 6 
#
# 1 132.9136 10.0902 31.8839 0.0000 14.0289 0.0000
# 2 10.0902 60.6473 7.8381 0.0000 7.7368 0.0000
# 3 31.8839 7.8381 68.4370 0.0000 15.9257 0.0000
# 4 0.0000 0.0000 0.0000 24.0149 0.0000 -13.7762
# 5 14.0289 7.7368 15.9257 0.0000 34.5972 0.0000
# 6 0.0000 0.0000 0.0000 -13.7762 0.0000 35.7661
#
#
#
# Elastic Compliance Matrix: (Units=1/GPa)
#
#
# Indices 1 2 3 4 5 6 
#
# 1 0.008607 -0.000760 -0.003528 0.000000 -0.001696 0.000000
# 2 -0.000760 0.017127 -0.000883 0.000000 -0.003116 0.000000
# 3 -0.003528 -0.000883 0.017895 0.000000 -0.006609 0.000000
# 4 0.000000 0.000000 0.000000 0.053451 0.000000 0.020588
# 5 -0.001696 -0.003116 -0.006609 0.000000 0.033331 0.000000
# 6 0.000000 0.000000 0.000000 0.020588 0.000000 0.035889
#
#
# Mechanical properties :
#
#
# Convention : Reuss Voigt Hill
#
# Bulk Modulus (GPa) = 30.04120 40.18025 35.11073
# Shear Modulus (GPa) = 26.63317 33.02137 29.82727
#
# Velocity S-wave (km/s) = 3.44025 3.83068 3.64070
# Velocity P-wave (km/s) = 5.39724 6.11726 5.76850
#
# Compressibility (1/GPa) = 0.03328762
#
# Stress axis : x y z
#
# Youngs Moduli (GPa) = 116.18859 58.38842 55.88229
#
# Poissons Ratio (x) = 0.04435 0.19716
# Poissons Ratio (y) = 0.08826 0.04932
# Poissons Ratio (z) = 0.40992 0.05153
#
# Static dielectric constant tensor:
#      x y z
#    x 0.800150 0.000000 0.282330 
#    y 0.000000 1.819530 0.000000 
#    z 0.282330 0.000000 1.763680 
# 
# From -- ./inp_files/73265.got.cif
#   From: 2010.05.17/outbox.cif.g08.bks.cpg/sg15_37_cif.got.tgz:73265.got - 2010.06.03 18:47:42.
