data_PCOD9261907
_publ_section_title
;
Structure prediction by ZEFSAII (Michael W. Deem and Ramdas Pophale) SiO2 
 PCOD9261907
Probable space group: C 2/C
;
_chemical_formula_sum "Si O2"
_cell_formula_units_Z 52
_cell_length_a 15.668820
_cell_length_b 25.801801
_cell_length_c 9.519901
_cell_angle_alpha 90.000000
_cell_angle_beta 52.608427
_cell_angle_gamma 90.000000
_cell_volume 3057.840317
_symmetry_space_group_name_H-M "C 2/C"
_symmetry_group_IT_number 15
_symmetry_cell_setting 'monoclinic'
loop_
_space_group_symop_operation_xyz
x,y,z
-x,y,1/2-z
-x,-y,-z
x,-y,1/2+z
1/2+x,1/2+y,z
1/2-x,1/2+y,1/2-z
1/2-x,1/2-y,-z
1/2+x,1/2-y,1/2+z
loop_
_atom_site_type_symbol
_atom_site_label
_atom_site_fract_x
_atom_site_fract_y
_atom_site_fract_z
Si Si1 0.701106 0.323671 0.455673
Si Si2 0.610032 0.798835 0.721888
Si Si3 0.110333 0.027167 0.437958
Si Si4 0.810370 0.181300 0.851802
Si Si5 0.601746 0.214969 0.557365
Si Si6 0.130304 0.062309 0.117736
Si Si7 0.500000 0.391080 0.250000
O O1 0.738047 0.321264 0.256431
O O2 0.612677 0.277773 0.548757
O O3 0.793171 0.307035 0.471541
O O4 0.663200 0.380909 0.533768
O O5 0.500000 0.810700 0.750000
O O6 0.714040 0.828834 0.557405
O O7 0.641208 0.738300 0.666829
O O8 0.596120 0.803780 0.902731
O O9 0.165370 0.048064 0.241518
O O10 0.069956 0.073547 0.576455
O O11 0.167485 0.983065 0.474096
O O12 0.000000 0.000000 0.500000
O O13 0.911931 0.143267 0.758058
O O14 0.500000 0.199292 0.750000
O O15 0.000000 0.061624 0.250000
#
# Coordination Sequence:
#
# PCOD9261907 Si02
#       7
#     8   8   8   8   8   8   4
#     4  10  21  35  53  80 107 147 180 216 273 323
#     4  10  20  37  52  75 108 144 186 229 263 323
#     4  10  19  32  49  74 110 138 177 219 273 321
#     4  10  21  33  53  78 106 147 186 219 275 321
#     4  10  21  36  54  79 109 143 183 226 264 322
#     4  10  19  33  50  76 108 143 173 221 265 326
#     4  12  20  32  54  80 110 148 182 226 270 326
#
# _framework density 17.005466999999999
#
# number of rings (size 3 to 8) (size 9 to 14) (size 15 to 20)
#    0.000    1.846    3.077    3.231    2.154    2.462 
#    0.000    0.000    0.000    0.000    0.000    2.154 
#    0.000    0.154    0.000    0.000    0.000    0.000 
#
# Total GULP energy -144905.085416 kJ/mol
# GULP energy per Si atom -5573.272516 kJ/mol
# Density = 1.696676 g / cm^3
# Si number density = 17.005467 Si / 1000 Ang^3
#
#
#
# Elastic Constant Matrix: (Units=GPa)
#
#
# Indices 1 2 3 4 5 6 
#
# 1 75.0376 9.6538 34.7751 0.0000 16.7608 0.0000
# 2 9.6538 71.4298 16.4786 0.0000 8.5355 0.0000
# 3 34.7751 16.4786 92.9116 0.0000 15.8597 0.0000
# 4 0.0000 0.0000 0.0000 21.3464 0.0000 1.4913
# 5 16.7608 8.5355 15.8597 0.0000 24.4134 0.0000
# 6 0.0000 0.0000 0.0000 1.4913 0.0000 15.2355
#
#
#
# Elastic Compliance Matrix: (Units=1/GPa)
#
#
# Indices 1 2 3 4 5 6 
#
# 1 0.017662 -0.000167 -0.005085 0.000000 -0.008764 0.000000
# 2 -0.000167 0.014927 -0.001927 0.000000 -0.003852 0.000000
# 3 -0.005085 -0.001927 0.013831 0.000000 -0.004820 0.000000
# 4 0.000000 0.000000 0.000000 0.047169 0.000000 -0.004617
# 5 -0.008764 -0.003852 -0.004820 0.000000 0.051456 0.000000
# 6 0.000000 0.000000 0.000000 -0.004617 0.000000 0.066088
#
#
# Mechanical properties :
#
#
# Convention : Reuss Voigt Hill
#
# Bulk Modulus (GPa) = 31.18973 40.13266 35.66120
# Shear Modulus (GPa) = 21.17036 24.09717 22.63377
#
# Velocity S-wave (km/s) = 3.53216 3.76842 3.65220
# Velocity P-wave (km/s) = 5.91741 6.52578 6.22902
#
# Compressibility (1/GPa) = 0.03206183
#
# Stress axis : x y z
#
# Youngs Moduli (GPa) = 56.61764 66.99139 72.30258
#
# Poissons Ratio (x) = 0.01117 0.36767
# Poissons Ratio (y) = 0.00944 0.13936
# Poissons Ratio (z) = 0.28791 0.12913
#
# Static dielectric constant tensor:
#      x y z
#    x 1.578320 0.000000 0.027750 
#    y 0.000000 1.626900 0.000000 
#    z 0.027750 0.000000 1.593900 
# 
# From -- ./inp_files/43399.got.cif
#   From: 2010.05.17/outbox.cif.g08.bks.cpg/sg15_22_cif.got.tgz:43399.got - 2010.06.03 18:47:42.
