data_PCOD9261061
_publ_section_title
;
Structure prediction by ZEFSAII (Michael W. Deem and Ramdas Pophale) SiO2 
 PCOD9261061
Probable space group: C 2/C
;
_chemical_formula_sum "Si O2"
_cell_formula_units_Z 44
_cell_length_a 30.182021
_cell_length_b 15.045167
_cell_length_c 14.601921
_cell_angle_alpha 90.000000
_cell_angle_beta 20.394877
_cell_angle_gamma 90.000000
_cell_volume 2310.699402
_symmetry_space_group_name_H-M "C 2/C"
_symmetry_group_IT_number 15
_symmetry_cell_setting 'monoclinic'
loop_
_space_group_symop_operation_xyz
x,y,z
-x,y,1/2-z
-x,-y,-z
x,-y,1/2+z
1/2+x,1/2+y,z
1/2-x,1/2+y,1/2-z
1/2-x,1/2-y,-z
1/2+x,1/2-y,1/2+z
loop_
_atom_site_type_symbol
_atom_site_label
_atom_site_fract_x
_atom_site_fract_y
_atom_site_fract_z
Si Si1 0.000000 0.792645 0.250000
Si Si2 0.474330 0.136798 0.429396
Si Si3 0.721990 0.857959 0.817613
Si Si4 0.121066 0.711743 0.706917
Si Si5 0.915626 0.193329 0.503342
Si Si6 0.193859 0.437543 0.397268
O O1 0.025516 0.729788 0.288717
O O2 0.872876 0.844222 0.520146
O O3 0.439114 0.145006 0.602455
O O4 0.351398 0.119002 0.603718
O O5 0.581116 0.067689 0.190742
O O6 0.657750 0.787187 0.872672
O O7 0.702585 0.962560 0.844712
O O8 0.661285 0.831724 0.033077
O O9 0.250000 0.750000 0.500000
O O10 0.015864 0.787348 0.889559
O O11 0.815991 0.112511 0.702399
O O12 0.000000 0.175245 0.250000
#
# Coordination Sequence:
#
# PCOD9261061 Si02
#       6
#     4   8   8   8   8   8
#     4  10  18  40  62  80 120 160 196 240 308 352
#     4  10  20  40  63  82 126 160 197 252 296 353
#     4  11  22  40  63  90 118 163 202 243 309 363
#     4  11  22  39  63  88 122 162 204 252 298 352
#     4  10  21  38  61  86 121 160 201 245 301 362
#     4  10  22  39  60  91 120 157 205 245 303 365
#
# _framework density 19.041854000000001
#
# number of rings (size 3 to 8) (size 9 to 14) (size 15 to 20)
#    0.000    1.818    5.455    1.091    8.909    1.455 
#    0.000    0.909    0.000    0.000    0.000    0.000 
#    0.000    0.000    0.000    0.000    0.000    0.000 
#
# Total GULP energy -122622.118230 kJ/mol
# GULP energy per Si atom -5573.732647 kJ/mol
# Density = 1.899851 g / cm^3
# Si number density = 19.041854 Si / 1000 Ang^3
#
#
#
# Elastic Constant Matrix: (Units=GPa)
#
#
# Indices 1 2 3 4 5 6 
#
# 1 47.1325 -2.4692 6.1094 0.0000 -4.3312 0.0000
# 2 -2.4692 56.0666 11.4581 0.0000 -4.1615 0.0000
# 3 6.1094 11.4581 87.3674 0.0000 -4.1257 0.0000
# 4 0.0000 0.0000 0.0000 23.4398 0.0000 2.5088
# 5 -4.3312 -4.1615 -4.1257 0.0000 33.4702 0.0000
# 6 0.0000 0.0000 0.0000 2.5088 0.0000 6.6748
#
#
#
# Elastic Compliance Matrix: (Units=1/GPa)
#
#
# Indices 1 2 3 4 5 6 
#
# 1 0.021758 0.001490 -0.001584 0.000000 0.002806 0.000000
# 2 0.001490 0.018562 -0.002435 0.000000 0.002201 0.000000
# 3 -0.001584 -0.002435 0.011921 0.000000 0.000962 0.000000
# 4 0.000000 0.000000 0.000000 0.044451 0.000000 -0.016707
# 5 0.002806 0.002201 0.000962 0.000000 0.030633 0.000000
# 6 0.000000 0.000000 0.000000 -0.016707 0.000000 0.156098
#
#
# Mechanical properties :
#
#
# Convention : Reuss Voigt Hill
#
# Bulk Modulus (GPa) = 21.19356 24.52924 22.86140
# Shear Modulus (GPa) = 16.43609 24.41484 20.42547
#
# Velocity S-wave (km/s) = 2.94114 3.58462 3.27870
# Velocity P-wave (km/s) = 4.76318 5.48109 5.13470
#
# Compressibility (1/GPa) = 0.04718415
#
# Stress axis : x y z
#
# Youngs Moduli (GPa) = 45.96004 53.87216 83.88253
#
# Poissons Ratio (x) = -0.08028 0.13291
# Poissons Ratio (y) = -0.06849 0.20423
# Poissons Ratio (z) = 0.07282 0.13116
#
# Static dielectric constant tensor:
#      x y z
#    x 1.671000 0.000000 -0.017600 
#    y 0.000000 1.688330 0.000000 
#    z -0.017600 0.000000 1.686490 
# 
# From -- ./inp_files/142975.got.cif
#   From: 2010.05.17/outbox.cif.g08.bks.cpg/sg15_72_cif.got.tgz:142975.got - 2010.06.03 18:47:42.
