data_PCOD9261101
_publ_section_title
;
Structure prediction by ZEFSAII (Michael W. Deem and Ramdas Pophale) SiO2 
 PCOD9261101
Probable space group: C 2/C
;
_chemical_formula_sum "Si O2"
_cell_formula_units_Z 36
_cell_length_a 18.313801
_cell_length_b 12.773332
_cell_length_c 15.735765
_cell_angle_alpha 90.000000
_cell_angle_beta 22.222223
_cell_angle_gamma 90.000000
_cell_volume 1392.168902
_symmetry_space_group_name_H-M "C 2/C"
_symmetry_group_IT_number 15
_symmetry_cell_setting 'monoclinic'
loop_
_space_group_symop_operation_xyz
x,y,z
-x,y,1/2-z
-x,-y,-z
x,-y,1/2+z
1/2+x,1/2+y,z
1/2-x,1/2+y,1/2-z
1/2-x,1/2-y,-z
1/2+x,1/2-y,1/2+z
loop_
_atom_site_type_symbol
_atom_site_label
_atom_site_fract_x
_atom_site_fract_y
_atom_site_fract_z
Si Si1 0.290265 0.392188 0.807603
Si Si2 0.076799 0.874171 0.341678
Si Si3 0.906748 0.541234 0.757810
Si Si4 0.743037 0.183968 0.093859
Si Si5 0.500000 0.629172 0.250000
O O1 0.434057 0.374421 0.575036
O O2 0.312743 0.518406 0.793204
O O3 0.373974 0.333497 0.801784
O O4 0.058786 0.389156 0.039519
O O5 0.947237 0.861970 0.398189
O O6 0.203299 0.770858 0.208112
O O7 0.897069 0.416027 0.752554
O O8 0.000000 0.555620 0.750000
O O9 0.684003 0.577896 0.001648
O O10 0.750000 0.250000 0.000000
#
# Coordination Sequence:
#
# PCOD9261101 Si02
#       5
#     8   8   8   8   4
#     4  10  22  40  59  91 126 169 212 257 308 378
#     4  11  23  38  57  92 134 164 211 258 312 386
#     4  10  20  35  63  92 123 162 208 253 319 379
#     4  12  22  36  62  93 132 167 199 261 326 386
#     4  10  18  40  64  88 122 162 208 262 306 382
#
# _framework density 25.858930999999998
#
# number of rings (size 3 to 8) (size 9 to 14) (size 15 to 20)
#    0.000    1.333    2.222    6.000    0.000    0.889 
#    4.000    0.000    0.000    1.333    0.000    0.000 
#    0.000    0.000    0.000    0.000    0.000    0.000 
#
# Total GULP energy -100358.781909 kJ/mol
# GULP energy per Si atom -5575.487884 kJ/mol
# Density = 2.580007 g / cm^3
# Si number density = 25.858931 Si / 1000 Ang^3
#
#
#
# Elastic Constant Matrix: (Units=GPa)
#
#
# Indices 1 2 3 4 5 6 
#
# 1 58.9666 1.3025 11.6959 0.0040 1.3427 -0.0018
# 2 1.3025 54.1480 39.9777 0.0206 -3.5417 -0.0131
# 3 11.6959 39.9777 153.6844 0.0153 -2.8576 -0.0081
# 4 0.0040 0.0206 0.0153 -9.5848 -0.0057 14.9577
# 5 1.3427 -3.5417 -2.8576 -0.0057 46.0430 0.0035
# 6 -0.0018 -0.0131 -0.0081 14.9577 0.0035 13.1944
#
#
#
# Elastic Compliance Matrix: (Units=1/GPa)
#
#
# Indices 1 2 3 4 5 6 
#
# 1 0.017253 0.000651 -0.001493 0.000004 -0.000546 -0.000002
# 2 0.000651 0.022972 -0.006000 0.000025 0.001376 -0.000009
# 3 -0.001493 -0.006000 0.008183 -0.000001 0.000090 0.000000
# 4 0.000004 0.000025 -0.000001 -0.037677 -0.000006 0.042712
# 5 -0.000546 0.001376 0.000090 -0.000006 0.021846 0.000003
# 6 -0.000002 -0.000009 0.000000 0.042712 0.000003 0.027369
#
#
# Mechanical properties :
#
#
# Convention : Reuss Voigt Hill
#
# Bulk Modulus (GPa) = 28.79726 41.41681 35.10704
# Shear Modulus (GPa) = 58.68337 24.18539 41.43438
#
# Velocity S-wave (km/s) = 4.76895 3.06156 4.00725
# Velocity P-wave (km/s) = 6.44084 5.34310 5.91748
#
# Compressibility (1/GPa) = 0.03472552
#
# Stress axis : x y z
#
# Youngs Moduli (GPa) = 57.96149 43.53184 122.20813
#
# Poissons Ratio (x) = -0.02835 0.18240
# Poissons Ratio (y) = -0.03775 0.73320
# Poissons Ratio (z) = 0.08651 0.26117
#
# Static dielectric constant tensor:
#      x y z
#    x 2.070330 0.000000 0.028920 
#    y 0.000000 2.154980 0.000000 
#    z 0.028920 0.000000 2.129130 
# 
# From -- ./inp_files/215538.got.cif
#   From: 2010.05.17/outbox.cif.g08.bks.cpg/sg15_108_cif.got.tgz:215538.got - 2010.06.03 18:47:42.
