data_PCOD9261890
_publ_section_title
;
Structure prediction by ZEFSAII (Michael W. Deem and Ramdas Pophale) SiO2 
 PCOD9261890
Probable space group: C 2/C
;
_chemical_formula_sum "Si O2"
_cell_formula_units_Z 56
_cell_length_a 20.257215
_cell_length_b 26.256421
_cell_length_c 5.808813
_cell_angle_alpha 90.000000
_cell_angle_beta 135.885686
_cell_angle_gamma 90.000000
_cell_volume 2150.648406
_symmetry_space_group_name_H-M "C 2/C"
_symmetry_group_IT_number 15
_symmetry_cell_setting 'monoclinic'
loop_
_space_group_symop_operation_xyz
x,y,z
-x,y,1/2-z
-x,-y,-z
x,-y,1/2+z
1/2+x,1/2+y,z
1/2-x,1/2+y,1/2-z
1/2-x,1/2-y,-z
1/2+x,1/2-y,1/2+z
loop_
_atom_site_type_symbol
_atom_site_label
_atom_site_fract_x
_atom_site_fract_y
_atom_site_fract_z
Si Si1 0.365844 0.236985 0.252266
Si Si2 0.834713 0.991905 0.485333
Si Si3 0.795154 0.116220 0.733700
Si Si4 0.633153 0.136511 0.007958
Si Si5 0.045853 0.153459 0.612898
Si Si6 0.726734 0.193665 0.861016
Si Si7 0.615920 0.974791 0.405740
O O1 0.399740 0.195092 0.522234
O O2 0.423360 0.287660 0.345179
O O3 0.250000 0.250000 0.000000
O O4 0.366208 0.204513 0.019777
O O5 0.811083 0.932243 0.424654
O O6 0.882167 0.001533 0.851827
O O7 0.732612 0.021123 0.211953
O O8 0.688553 0.118948 0.375019
O O9 0.860983 0.118734 0.675336
O O10 0.808650 0.168160 0.912619
O O11 0.583487 0.084548 0.806066
O O12 0.706711 0.151408 0.995639
O O13 0.000000 0.147344 0.750000
O O14 0.000000 0.138573 0.250000
O O15 0.750000 0.250000 0.000000
O O16 0.589760 0.002296 0.095565
#
# Coordination Sequence:
#
# PCOD9261890 Si02
#       7
#     8   8   8   8   8   8   8
#     4  11  22  39  60  93 117 161 209 260 310 376
#     4  10  19  32  54  85 116 155 200 257 316 342
#     4  11  22  36  58  87 116 170 209 249 313 370
#     4  11  20  32  62  88 122 160 210 253 312 371
#     4  12  29  45  62  88 130 168 208 262 312 368
#     4  11  19  31  59  86 118 148 207 254 302 369
#     4  10  19  32  48  88 126 157 184 256 322 348
#
# _framework density 26.03866
#
# number of rings (size 3 to 8) (size 9 to 14) (size 15 to 20)
#    0.000    1.143    7.143    1.714    8.000    0.000 
#    0.000    0.000    0.000    2.571    0.000    0.000 
#    0.000    3.429    0.000    0.000    0.000    0.000 
#
# Total GULP energy -155970.627957 kJ/mol
# GULP energy per Si atom -5570.379570 kJ/mol
# Density = 2.597939 g / cm^3
# Si number density = 26.038660 Si / 1000 Ang^3
#
#
#
# Elastic Constant Matrix: (Units=GPa)
#
#
# Indices 1 2 3 4 5 6 
#
# 1 113.9237 39.1201 38.1887 0.0000 -34.1319 0.0000
# 2 39.1201 147.3156 -0.7536 0.0000 -18.3528 0.0000
# 3 38.1887 -0.7536 93.9024 0.0000 -34.8249 0.0000
# 4 0.0000 0.0000 0.0000 29.7701 0.0000 -22.5194
# 5 -34.1319 -18.3528 -34.8249 0.0000 42.5475 0.0000
# 6 0.0000 0.0000 0.0000 -22.5194 0.0000 22.5198
#
#
#
# Elastic Compliance Matrix: (Units=1/GPa)
#
#
# Indices 1 2 3 4 5 6 
#
# 1 0.012561 -0.002489 -0.002570 0.000000 0.006900 0.000000
# 2 -0.002489 0.007868 0.002288 0.000000 0.003270 0.000000
# 3 -0.002570 0.002288 0.016246 0.000000 0.012223 0.000000
# 4 0.000000 0.000000 0.000000 0.137908 0.000000 0.137906
# 5 0.006900 0.003270 0.012223 0.000000 0.040453 0.000000
# 6 0.000000 0.000000 0.000000 0.137906 0.000000 0.182309
#
#
# Mechanical properties :
#
#
# Convention : Reuss Voigt Hill
#
# Bulk Modulus (GPa) = 32.11935 56.47246 44.29591
# Shear Modulus (GPa) = 12.09881 37.53991 24.81936
#
# Velocity S-wave (km/s) = 2.15791 3.80109 3.09070
# Velocity P-wave (km/s) = 4.30938 6.40308 5.45757
#
# Compressibility (1/GPa) = 0.03113388
#
# Stress axis : x y z
#
# Youngs Moduli (GPa) = 79.61089 127.09315 61.55486
#
# Poissons Ratio (x) = 0.31636 0.15817
# Poissons Ratio (y) = 0.19817 -0.14085
# Poissons Ratio (z) = 0.20456 -0.29081
#
# Static dielectric constant tensor:
#      x y z
#    x 1.840510 0.000000 0.058290 
#    y 0.000000 2.045600 0.000000 
#    z 0.058290 0.000000 2.250650 
# 
# From -- ./inp_files/14333.got.cif
#   From: 2010.05.17/outbox.cif.g08.bks.cpg/sg15_8_cif.got.tgz:14333.got - 2010.06.03 18:47:42.
