data_PCOD9261005
_publ_section_title
;
Structure prediction by ZEFSAII (Michael W. Deem and Ramdas Pophale) SiO2 
 PCOD9261005
Probable space group: C 2/C
;
_chemical_formula_sum "Si O2"
_cell_formula_units_Z 64
_cell_length_a 8.411611
_cell_length_b 24.800434
_cell_length_c 15.199342
_cell_angle_alpha 90.000000
_cell_angle_beta 72.026703
_cell_angle_gamma 90.000000
_cell_volume 3016.027431
_symmetry_space_group_name_H-M "C 2/C"
_symmetry_group_IT_number 15
_symmetry_cell_setting 'monoclinic'
loop_
_space_group_symop_operation_xyz
x,y,z
-x,y,1/2-z
-x,-y,-z
x,-y,1/2+z
1/2+x,1/2+y,z
1/2-x,1/2+y,1/2-z
1/2-x,1/2-y,-z
1/2+x,1/2-y,1/2+z
loop_
_atom_site_type_symbol
_atom_site_label
_atom_site_fract_x
_atom_site_fract_y
_atom_site_fract_z
Si Si1 0.971891 0.540034 0.153625
Si Si2 0.479922 0.238653 0.034792
Si Si3 0.463213 0.383210 0.654045
Si Si4 0.224167 0.834089 0.474226
Si Si5 0.460676 0.915452 0.356130
Si Si6 0.894977 0.994748 0.851161
Si Si7 0.289622 0.908851 0.031912
Si Si8 0.750569 0.814668 0.583552
O O1 0.777275 0.532840 0.157425
O O2 0.000000 0.557642 0.250000
O O3 0.048857 0.479863 0.135442
O O4 0.071601 0.573977 0.064255
O O5 0.360858 0.289491 0.073516
O O6 0.566703 0.208835 0.101131
O O7 0.374844 0.196185 0.997174
O O8 0.626213 0.263942 0.948752
O O9 0.500000 0.377111 0.750000
O O10 0.596544 0.352459 0.571068
O O11 0.489438 0.446765 0.629833
O O12 0.292325 0.352943 0.658218
O O13 0.293945 0.886159 0.414508
O O14 0.500000 0.900919 0.250000
O O15 0.611322 0.899135 0.394867
O O16 0.000000 0.016904 0.750000
O O17 0.836773 0.042011 0.926221
O O18 0.212186 0.854789 0.005506
#
# Coordination Sequence:
#
# PCOD9261005 Si02
#       8
#     8   8   8   8   8   8   8   8
#     4  10  22  38  63  94 129 168 213 253 306 385
#     4   9  20  38  63  86 120 153 207 262 321 364
#     4  10  22  38  60  90 125 159 208 254 310 377
#     4  10  18  39  68  87 114 166 197 258 318 380
#     4  10  20  38  63  94 122 160 209 249 301 382
#     4  10  22  39  56  91 134 161 211 261 299 375
#     4  11  21  39  65  90 127 178 203 252 319 379
#     4  10  21  39  62  87 121 162 202 264 315 369
#
# _framework density 21.219967
#
# number of rings (size 3 to 8) (size 9 to 14) (size 15 to 20)
#    0.000    2.000    1.250    3.000    3.500    0.500 
#   13.500    6.250    2.750    0.000    0.000    0.000 
#    0.000    0.000    0.000    0.000    0.000    0.000 
#
# Total GULP energy -178651.387185 kJ/mol
# GULP energy per Si atom -5582.855850 kJ/mol
# Density = 2.117167 g / cm^3
# Si number density = 21.219967 Si / 1000 Ang^3
#
#
#
# Elastic Constant Matrix: (Units=GPa)
#
#
# Indices 1 2 3 4 5 6 
#
# 1 72.0332 30.7169 21.2479 0.0000 0.9985 0.0000
# 2 30.7169 75.8866 28.2288 0.0000 -1.8114 0.0000
# 3 21.2479 28.2288 71.1509 0.0000 4.3511 0.0000
# 4 0.0000 0.0000 0.0000 2.1186 0.0000 11.6592
# 5 0.9985 -1.8114 4.3511 0.0000 32.8181 0.0000
# 6 0.0000 0.0000 0.0000 11.6592 0.0000 42.5106
#
#
#
# Elastic Compliance Matrix: (Units=1/GPa)
#
#
# Indices 1 2 3 4 5 6 
#
# 1 0.017246 -0.005969 -0.002752 0.000000 -0.000489 0.000000
# 2 -0.005969 0.017617 -0.005321 0.000000 0.001859 0.000000
# 3 -0.002752 -0.005321 0.017139 0.000000 -0.002482 0.000000
# 4 0.000000 0.000000 0.000000 -0.926719 0.000000 0.254167
# 5 -0.000489 0.001859 -0.002482 0.000000 0.030918 0.000000
# 6 0.000000 0.000000 0.000000 0.254167 0.000000 -0.046185
#
#
# Mechanical properties :
#
#
# Convention : Reuss Voigt Hill
#
# Bulk Modulus (GPa) = 41.80736 42.16198 41.98467
# Shear Modulus (GPa) = -5.85530 24.74794 9.44632
#
# Velocity S-wave (km/s) = -1.66293 3.41876 2.11218
# Velocity P-wave (km/s) = 4.00719 5.95785 5.07708
#
# Compressibility (1/GPa) = 0.02391923
#
# Stress axis : x y z
#
# Youngs Moduli (GPa) = 57.98330 56.76275 58.34519
#
# Poissons Ratio (x) = 0.33880 0.16058
# Poissons Ratio (y) = 0.34609 0.31044
# Poissons Ratio (z) = 0.15959 0.30202
#
# Static dielectric constant tensor:
#      x y z
#    x 1.856080 0.000000 0.000050 
#    y 0.000000 1.788820 0.000000 
#    z 0.000050 0.000000 1.736540 
# 
# From -- ./inp_files/138573.got.cif
#   From: 2010.05.17/outbox.cif.g08.bks.cpg/sg15_70_cif.got.tgz:138573.got - 2010.06.03 18:47:42.
