data_PCOD9261228
_publ_section_title
;
Structure prediction by ZEFSAII (Michael W. Deem and Ramdas Pophale) SiO2 
 PCOD9261228
Probable space group: C 2/C
;
_chemical_formula_sum "Si O2"
_cell_formula_units_Z 60
_cell_length_a 12.226545
_cell_length_b 24.924196
_cell_length_c 9.917932
_cell_angle_alpha 90.000000
_cell_angle_beta 98.163438
_cell_angle_gamma 90.000000
_cell_volume 2991.733472
_symmetry_space_group_name_H-M "C 2/C"
_symmetry_group_IT_number 15
_symmetry_cell_setting 'monoclinic'
loop_
_space_group_symop_operation_xyz
x,y,z
-x,y,1/2-z
-x,-y,-z
x,-y,1/2+z
1/2+x,1/2+y,z
1/2-x,1/2+y,1/2-z
1/2-x,1/2-y,-z
1/2+x,1/2-y,1/2+z
loop_
_atom_site_type_symbol
_atom_site_label
_atom_site_fract_x
_atom_site_fract_y
_atom_site_fract_z
Si Si1 0.291304 0.670226 0.795920
Si Si2 0.500000 0.611415 0.750000
Si Si3 0.978372 0.446687 0.908724
Si Si4 0.674026 0.131577 0.504061
Si Si5 0.721998 0.874444 0.571650
Si Si6 0.366934 0.212409 0.235102
Si Si7 0.570803 0.558772 0.388345
Si Si8 0.633814 0.445603 0.474048
O O1 0.419516 0.650324 0.820888
O O2 0.219299 0.646499 0.659301
O O3 0.305092 0.733111 0.765192
O O4 0.235317 0.650643 0.924784
O O5 0.403184 0.572513 0.680164
O O6 0.855917 0.426234 0.922127
O O7 0.000000 0.453339 0.750000
O O8 0.000000 0.500000 0.000000
O O9 0.057729 0.398730 0.974711
O O10 0.670714 0.184413 0.411194
O O11 0.758670 0.086034 0.463320
O O12 0.667631 0.830738 0.658687
O O13 0.843793 0.895217 0.633459
O O14 0.500000 0.219385 0.250000
O O15 0.500000 0.538128 0.250000
O O16 0.633136 0.509719 0.474372
O O17 0.472261 0.576840 0.466731
#
# Coordination Sequence:
#
# PCOD9261228 Si02
#       8
#     8   4   8   8   8   8   8   8
#     4  11  25  40  74  97 130 181 239 286 349 415
#     4  10  18  42  58  92 128 166 212 276 336 398
#     4  12  27  48  73 103 146 192 233 279 354 425
#     4  11  23  45  70  98 137 182 230 291 340 424
#     4  12  24  45  68 103 142 179 228 300 344 411
#     4  12  23  48  69  94 139 186 235 292 359 405
#     4  11  22  36  63  95 135 169 216 273 342 419
#     4  10  21  37  61  92 129 169 217 262 345 399
#
# _framework density 20.055261999999999
#
# number of rings (size 3 to 8) (size 9 to 14) (size 15 to 20)
#    0.000    0.800    5.333    2.400    1.867    0.000 
#    0.000    0.000    2.933    0.000    0.000    0.000 
#    0.000    0.000    0.000    0.000    0.000    0.000 
#
# Total GULP energy -167149.736651 kJ/mol
# GULP energy per Si atom -5571.657888 kJ/mol
# Density = 2.000962 g / cm^3
# Si number density = 20.055262 Si / 1000 Ang^3
#
#
#
# Elastic Constant Matrix: (Units=GPa)
#
#
# Indices 1 2 3 4 5 6 
#
# 1 86.0753 19.6580 34.7809 0.0000 -9.5897 0.0000
# 2 19.6580 45.8523 39.9323 0.0000 -7.0597 0.0000
# 3 34.7809 39.9323 101.1415 0.0000 -4.4126 0.0000
# 4 0.0000 0.0000 0.0000 28.4089 0.0000 5.2430
# 5 -9.5897 -7.0597 -4.4126 0.0000 28.3970 0.0000
# 6 0.0000 0.0000 0.0000 5.2430 0.0000 36.4750
#
#
#
# Elastic Compliance Matrix: (Units=1/GPa)
#
#
# Indices 1 2 3 4 5 6 
#
# 1 0.014057 -0.002129 -0.003836 0.000000 0.003622 0.000000
# 2 -0.002129 0.034706 -0.012712 0.000000 0.005934 0.000000
# 3 -0.003836 -0.012712 0.016140 0.000000 -0.001948 0.000000
# 4 0.000000 0.000000 0.000000 0.036159 0.000000 -0.005198
# 5 0.003622 0.005934 -0.001948 0.000000 0.037611 0.000000
# 6 0.000000 0.000000 0.000000 -0.005198 0.000000 0.028163
#
#
# Mechanical properties :
#
#
# Convention : Reuss Voigt Hill
#
# Bulk Modulus (GPa) = 36.29580 46.86793 41.58187
# Shear Modulus (GPa) = 23.43329 27.90270 25.66799
#
# Velocity S-wave (km/s) = 3.42195 3.73405 3.58140
# Velocity P-wave (km/s) = 5.80949 6.48158 6.15472
#
# Compressibility (1/GPa) = 0.02755140
#
# Stress axis : x y z
#
# Youngs Moduli (GPa) = 71.13752 28.81367 61.95827
#
# Poissons Ratio (x) = 0.06133 0.23765
# Poissons Ratio (y) = 0.15143 0.78758
# Poissons Ratio (z) = 0.27286 0.36627
#
# Static dielectric constant tensor:
#      x y z
#    x 1.699860 0.000000 0.039850 
#    y 0.000000 1.772150 0.000000 
#    z 0.039850 0.000000 2.175020 
# 
# From -- ./inp_files/34282.got.cif
#   From: 2010.05.17/outbox.cif.g08.bks.cpg/sg15_18_cif.got.tgz:34282.got - 2010.06.03 18:47:42.
