data_PCOD9261320
_publ_section_title
;
Structure prediction by ZEFSAII (Michael W. Deem and Ramdas Pophale) SiO2 
 PCOD9261320
Probable space group: C 2/C
;
_chemical_formula_sum "Si O2"
_cell_formula_units_Z 56
_cell_length_a 31.205108
_cell_length_b 15.682892
_cell_length_c 8.650247
_cell_angle_alpha 90.000000
_cell_angle_beta 118.567479
_cell_angle_gamma 90.000000
_cell_volume 3717.926099
_symmetry_space_group_name_H-M "C 2/C"
_symmetry_group_IT_number 15
_symmetry_cell_setting 'monoclinic'
loop_
_space_group_symop_operation_xyz
x,y,z
-x,y,1/2-z
-x,-y,-z
x,-y,1/2+z
1/2+x,1/2+y,z
1/2-x,1/2+y,1/2-z
1/2-x,1/2-y,-z
1/2+x,1/2-y,1/2+z
loop_
_atom_site_type_symbol
_atom_site_label
_atom_site_fract_x
_atom_site_fract_y
_atom_site_fract_z
Si Si1 0.671186 0.909123 0.677343
Si Si2 0.933975 0.539502 0.383099
Si Si3 0.569863 0.165868 0.630279
Si Si4 0.173859 0.721328 0.903743
Si Si5 0.500000 0.133473 0.250000
Si Si6 0.500000 0.872458 0.250000
Si Si7 0.764996 0.120063 0.926991
Si Si8 0.769358 0.464761 0.432887
O O1 0.617781 0.922412 0.656055
O O2 0.672390 0.828343 0.565785
O O3 0.688117 0.987954 0.595282
O O4 0.707413 0.910684 0.886850
O O5 0.925835 0.438059 0.359757
O O6 0.959456 0.579197 0.275536
O O7 0.972155 0.568509 0.579466
O O8 0.622623 0.207089 0.729780
O O9 0.533509 0.185531 0.427052
O O10 0.540036 0.184095 0.734173
O O11 0.216217 0.675250 0.877886
O O12 0.190135 0.818035 0.959767
O O13 0.761361 0.087514 0.745161
O O14 0.760972 0.039832 0.035787
#
# Coordination Sequence:
#
# PCOD9261320 Si02
#       8
#     8   8   8   8   4   4   8   8
#     4  10  19  28  47  66  92 129 158 193 228 272
#     4  11  18  28  39  62  88 131 174 186 212 261
#     4  11  18  30  41  61  93 129 159 200 222 264
#     4  10  20  32  47  70  99 124 155 197 244 270
#     4  10  23  26  42  62  92 133 172 193 216 260
#     4  10  19  28  40  60  92 129 168 195 208 262
#     4   9  19  34  51  71  92 122 157 198 237 285
#     4   9  18  33  50  68  89 124 161 194 229 284
#
# _framework density 15.062161
#
# number of rings (size 3 to 8) (size 9 to 14) (size 15 to 20)
#    0.000    2.000    1.429    6.000    4.000    0.571 
#    0.000    0.000    0.000    0.000    0.000    0.000 
#    0.000    3.429    0.000    0.000    0.000    0.000 
#
# Total GULP energy -156041.672756 kJ/mol
# GULP energy per Si atom -5572.916884 kJ/mol
# Density = 1.502788 g / cm^3
# Si number density = 15.062161 Si / 1000 Ang^3
#
#
#
# Elastic Constant Matrix: (Units=GPa)
#
#
# Indices 1 2 3 4 5 6 
#
# 1 61.5335 20.1754 33.4887 0.0000 10.2450 0.0000
# 2 20.1754 45.4559 34.1006 0.0000 11.3187 0.0000
# 3 33.4887 34.1006 85.7877 0.0000 0.2657 0.0000
# 4 0.0000 0.0000 0.0000 18.5068 0.0000 8.3694
# 5 10.2450 11.3187 0.2657 0.0000 28.7533 0.0000
# 6 0.0000 0.0000 0.0000 8.3694 0.0000 12.9003
#
#
#
# Elastic Compliance Matrix: (Units=1/GPa)
#
#
# Indices 1 2 3 4 5 6 
#
# 1 0.022433 -0.002370 -0.007793 0.000000 -0.006988 0.000000
# 2 -0.002370 0.036577 -0.013573 0.000000 -0.013429 0.000000
# 3 -0.007793 -0.013573 0.020069 0.000000 0.007934 0.000000
# 4 0.000000 0.000000 0.000000 0.076471 0.000000 -0.049612
# 5 -0.006988 -0.013429 0.007934 0.000000 0.042481 0.000000
# 6 0.000000 0.000000 0.000000 -0.049612 0.000000 0.109705
#
#
# Mechanical properties :
#
#
# Convention : Reuss Voigt Hill
#
# Bulk Modulus (GPa) = 31.63808 40.92295 36.28052
# Shear Modulus (GPa) = 13.67071 19.03290 16.35180
#
# Velocity S-wave (km/s) = 3.01594 3.55860 3.29845
# Velocity P-wave (km/s) = 5.76008 6.64178 6.21658
#
# Compressibility (1/GPa) = 0.03160748
#
# Stress axis : x y z
#
# Youngs Moduli (GPa) = 44.57640 27.33941 49.82691
#
# Poissons Ratio (x) = 0.06480 0.38832
# Poissons Ratio (y) = 0.10566 0.67628
# Poissons Ratio (z) = 0.34740 0.37107
#
# Static dielectric constant tensor:
#      x y z
#    x 1.529180 0.000000 -0.020130 
#    y 0.000000 1.484390 0.000000 
#    z -0.020130 0.000000 1.539310 
# 
# From -- ./inp_files/62218.got.cif
#   From: 2010.05.17/outbox.cif.g08.bks.cpg/sg15_32_cif.got.tgz:62218.got - 2010.06.03 18:47:42.
