data_PCOD9261886
_publ_section_title
;
Structure prediction by ZEFSAII (Michael W. Deem and Ramdas Pophale) SiO2 
 PCOD9261886
Probable space group: C 2/C
;
_chemical_formula_sum "Si O2"
_cell_formula_units_Z 64
_cell_length_a 13.417010
_cell_length_b 18.684418
_cell_length_c 15.244840
_cell_angle_alpha 90.000000
_cell_angle_beta 89.463231
_cell_angle_gamma 90.000000
_cell_volume 3821.546339
_symmetry_space_group_name_H-M "C 2/C"
_symmetry_group_IT_number 15
_symmetry_cell_setting 'monoclinic'
loop_
_space_group_symop_operation_xyz
x,y,z
-x,y,1/2-z
-x,-y,-z
x,-y,1/2+z
1/2+x,1/2+y,z
1/2-x,1/2+y,1/2-z
1/2-x,1/2-y,-z
1/2+x,1/2-y,1/2+z
loop_
_atom_site_type_symbol
_atom_site_label
_atom_site_fract_x
_atom_site_fract_y
_atom_site_fract_z
Si Si1 0.116221 0.513610 0.517556
Si Si2 0.620625 0.195336 0.747764
Si Si3 0.114314 0.767884 0.562924
Si Si4 0.617601 0.271003 0.926558
Si Si5 0.116340 0.459876 0.222811
Si Si6 0.192136 0.357657 0.544689
Si Si7 0.120239 0.619665 0.242189
Si Si8 0.690589 0.845556 0.924953
O O1 0.124668 0.540520 0.617608
O O2 0.171556 0.437434 0.509734
O O3 0.155590 0.576213 0.455420
O O4 0.000000 0.500000 0.500000
O O5 0.500000 0.190389 0.750000
O O6 0.644156 0.226351 0.652187
O O7 0.647543 0.246029 0.828226
O O8 0.659895 0.114307 0.758511
O O9 0.193455 0.831750 0.555615
O O10 0.131487 0.713264 0.482720
O O11 0.999055 0.789751 0.570252
O O12 0.692866 0.332963 0.955536
O O13 0.634839 0.201474 0.987536
O O14 0.155847 0.536886 0.252008
O O15 0.000000 0.460826 0.250000
O O16 0.151732 0.356476 0.644911
O O17 0.166230 0.662518 0.322602
O O18 0.000000 0.621374 0.250000
#
# Coordination Sequence:
#
# PCOD9261886 Si02
#       8
#     8   8   8   8   8   8   8   8
#     4  11  20  32  52  78 109 130 166 219 265 303
#     4   9  17  29  51  74 100 134 169 208 253 297
#     4  10  20  35  51  76 107 138 174 214 251 312
#     4  10  20  36  53  74 105 139 174 216 257 303
#     4   9  17  28  45  76 102 131 164 204 261 309
#     4  10  22  34  53  79 103 136 176 210 263 317
#     4  10  19  32  48  76 109 135 164 212 266 312
#     4  11  21  32  53  79 105 138 174 207 267 312
#
# _framework density 16.747146999999998
#
# number of rings (size 3 to 8) (size 9 to 14) (size 15 to 20)
#    0.000    2.000    1.250    4.500    5.250    0.000 
#    0.000    0.625    0.000    0.000    0.000    0.000 
#    0.000    0.000    0.000    0.000    0.000    0.000 
#
# Total GULP energy -178435.976638 kJ/mol
# GULP energy per Si atom -5576.124270 kJ/mol
# Density = 1.670903 g / cm^3
# Si number density = 16.747147 Si / 1000 Ang^3
#
#
#
# Elastic Constant Matrix: (Units=GPa)
#
#
# Indices 1 2 3 4 5 6 
#
# 1 76.3845 31.3289 -0.6587 0.0000 2.5747 0.0000
# 2 31.3289 63.7816 3.8715 0.0000 4.8416 0.0000
# 3 -0.6587 3.8715 56.6703 0.0000 3.3511 0.0000
# 4 0.0000 0.0000 0.0000 16.2727 0.0000 -0.0481
# 5 2.5747 4.8416 3.3511 0.0000 20.3950 0.0000
# 6 0.0000 0.0000 0.0000 -0.0481 0.0000 3.4131
#
#
#
# Elastic Compliance Matrix: (Units=1/GPa)
#
#
# Indices 1 2 3 4 5 6 
#
# 1 0.016427 -0.008094 0.000760 0.000000 -0.000277 0.000000
# 2 -0.008094 0.019997 -0.001252 0.000000 -0.003520 0.000000
# 3 0.000760 -0.001252 0.017902 0.000000 -0.002740 0.000000
# 4 0.000000 0.000000 0.000000 0.061455 0.000000 0.000866
# 5 -0.000277 -0.003520 -0.002740 0.000000 0.050353 0.000000
# 6 0.000000 0.000000 0.000000 0.000866 0.000000 0.293005
#
#
# Mechanical properties :
#
#
# Convention : Reuss Voigt Hill
#
# Bulk Modulus (GPa) = 26.91402 29.54665 28.23034
# Shear Modulus (GPa) = 10.23130 18.83580 14.53355
#
# Velocity S-wave (km/s) = 2.47438 3.35732 2.94908
# Velocity P-wave (km/s) = 4.92637 5.71926 5.33755
#
# Compressibility (1/GPa) = 0.03715535
#
# Stress axis : x y z
#
# Youngs Moduli (GPa) = 60.87423 50.00655 55.85863
#
# Poissons Ratio (x) = 0.40475 -0.04247
# Poissons Ratio (y) = 0.49272 0.06994
# Poissons Ratio (z) = -0.04628 0.06261
#
# Static dielectric constant tensor:
#      x y z
#    x 1.542310 0.000000 -0.003300 
#    y 0.000000 1.575290 0.000000 
#    z -0.003300 0.000000 1.590320 
# 
# From -- ./inp_files/154831.got.cif
#   From: 2010.05.17/outbox.cif.g08.bks.cpg/sg15_78_cif.got.tgz:154831.got - 2010.06.03 18:47:42.
