data_PCOD9261675
_publ_section_title
;
Structure prediction by ZEFSAII (Michael W. Deem and Ramdas Pophale) SiO2 
 PCOD9261675
Probable space group: C 2/C
;
_chemical_formula_sum "Si O2"
_cell_formula_units_Z 56
_cell_length_a 29.788497
_cell_length_b 18.689130
_cell_length_c 5.553932
_cell_angle_alpha 90.000000
_cell_angle_beta 117.920895
_cell_angle_gamma 90.000000
_cell_volume 2732.067634
_symmetry_space_group_name_H-M "C 2/C"
_symmetry_group_IT_number 15
_symmetry_cell_setting 'monoclinic'
loop_
_space_group_symop_operation_xyz
x,y,z
-x,y,1/2-z
-x,-y,-z
x,-y,1/2+z
1/2+x,1/2+y,z
1/2-x,1/2+y,1/2-z
1/2-x,1/2-y,-z
1/2+x,1/2-y,1/2+z
loop_
_atom_site_type_symbol
_atom_site_label
_atom_site_fract_x
_atom_site_fract_y
_atom_site_fract_z
Si Si1 0.500000 0.313977 0.750000
Si Si2 0.921011 0.686155 0.997034
Si Si3 0.741743 0.663924 0.484617
Si Si4 0.205501 0.188976 0.893610
Si Si5 0.000000 0.813907 0.250000
Si Si6 0.559183 0.962430 0.034799
Si Si7 0.395774 0.775360 0.932556
Si Si8 0.318024 0.960787 0.164733
O O1 0.500501 0.355424 0.500726
O O2 0.450079 0.263777 0.603590
O O3 0.955624 0.620728 0.995073
O O4 0.884626 0.697050 0.674724
O O5 0.900489 0.670589 0.216458
O O6 0.952295 0.759333 0.113254
O O7 0.750000 0.750000 0.500000
O O8 0.712122 0.648363 0.657844
O O9 0.792222 0.616647 0.618308
O O10 0.713875 0.647262 0.163162
O O11 0.150419 0.224852 0.757552
O O12 0.250000 0.250000 0.000000
O O13 0.620865 0.958506 0.184776
O O14 0.545204 0.002724 0.244333
O O15 0.303095 0.996321 0.870795
#
# Coordination Sequence:
#
# PCOD9261675 Si02
#       8
#     4   8   8   8   4   8   8   8
#     4   8  16  30  46  65  94 120 170 193 236 308
#     4  10  19  31  51  62  92 120 165 210 257 297
#     4  10  21  35  50  75 106 132 169 214 254 301
#     4  10  21  30  46  75 104 128 161 200 262 304
#     4   8  16  30  44  69  80 116 160 209 254 304
#     4  10  21  33  45  66  87 119 170 212 248 296
#     4  10  19  31  49  72  92 133 159 202 251 305
#     4  10  21  36  53  69  97 141 178 207 247 301
#
# _framework density 20.497295999999999
#
# number of rings (size 3 to 8) (size 9 to 14) (size 15 to 20)
#    0.000    2.286    0.000    2.571    8.000    0.000 
#    0.000    0.714    0.000    0.000    0.000    0.000 
#    0.000    0.000    0.000   12.857    0.000    0.000 
#
# Total GULP energy -155996.513051 kJ/mol
# GULP energy per Si atom -5571.304038 kJ/mol
# Density = 2.045064 g / cm^3
# Si number density = 20.497296 Si / 1000 Ang^3
#
#
#
# Elastic Constant Matrix: (Units=GPa)
#
#
# Indices 1 2 3 4 5 6 
#
# 1 70.9874 16.7139 47.4799 0.0000 -5.8629 0.0000
# 2 16.7139 26.0974 13.4623 0.0000 4.1280 0.0000
# 3 47.4799 13.4623 177.4061 0.0000 -45.2581 0.0000
# 4 0.0000 0.0000 0.0000 17.1143 0.0000 -10.8287
# 5 -5.8629 4.1280 -45.2581 0.0000 52.8870 0.0000
# 6 0.0000 0.0000 0.0000 -10.8287 0.0000 6.5782
#
#
#
# Elastic Compliance Matrix: (Units=1/GPa)
#
#
# Indices 1 2 3 4 5 6 
#
# 1 0.019497 -0.009848 -0.004763 0.000000 -0.001146 0.000000
# 2 -0.009848 0.047182 -0.002767 0.000000 -0.007142 0.000000
# 3 -0.004763 -0.002767 0.009009 0.000000 0.007397 0.000000
# 4 0.000000 0.000000 0.000000 -1.405191 0.000000 -2.313178
# 5 -0.001146 -0.007142 0.007397 0.000000 0.025669 0.000000
# 6 0.000000 0.000000 0.000000 -2.313178 0.000000 -3.655858
#
#
# Mechanical properties :
#
#
# Convention : Reuss Voigt Hill
#
# Bulk Modulus (GPa) = 24.43104 47.75592 36.09348
# Shear Modulus (GPa) = -1.01806 28.43820 13.71007
#
# Velocity S-wave (km/s) = -0.70552 3.72884 2.58906
# Velocity P-wave (km/s) = 3.35877 6.47211 5.15604
#
# Compressibility (1/GPa) = 0.04093154
#
# Stress axis : x y z
#
# Youngs Moduli (GPa) = 51.29010 21.19440 111.00609
#
# Poissons Ratio (x) = 0.20873 0.52873
# Poissons Ratio (y) = 0.50513 0.30711
# Poissons Ratio (z) = 0.24430 0.05864
#
# Static dielectric constant tensor:
#      x y z
#    x 1.744840 0.000000 -0.047320 
#    y 0.000000 1.691030 0.000000 
#    z -0.047320 0.000000 1.831480 
# 
# From -- ./inp_files/17221.got.cif
#   From: 2010.05.17/outbox.cif.g08.bks.cpg/sg15_9_cif.got.tgz:17221.got - 2010.06.03 18:47:42.
