data_PCOD9261698
_publ_section_title
;
Structure prediction by ZEFSAII (Michael W. Deem and Ramdas Pophale) SiO2 
 PCOD9261698
Probable space group: C 2/C
;
_chemical_formula_sum "Si O2"
_cell_formula_units_Z 52
_cell_length_a 27.819173
_cell_length_b 16.053644
_cell_length_c 5.479510
_cell_angle_alpha 90.000000
_cell_angle_beta 70.570141
_cell_angle_gamma 90.000000
_cell_volume 2307.777969
_symmetry_space_group_name_H-M "C 2/C"
_symmetry_group_IT_number 15
_symmetry_cell_setting 'monoclinic'
loop_
_space_group_symop_operation_xyz
x,y,z
-x,y,1/2-z
-x,-y,-z
x,-y,1/2+z
1/2+x,1/2+y,z
1/2-x,1/2+y,1/2-z
1/2-x,1/2-y,-z
1/2+x,1/2-y,1/2+z
loop_
_atom_site_type_symbol
_atom_site_label
_atom_site_fract_x
_atom_site_fract_y
_atom_site_fract_z
Si Si1 0.941977 0.530535 0.360482
Si Si2 0.102542 0.695854 0.001707
Si Si3 0.614859 0.552833 0.047269
Si Si4 0.000000 0.947635 0.750000
Si Si5 0.367419 0.730935 0.550430
Si Si6 0.738991 0.169068 0.269020
Si Si7 0.715401 0.148995 0.809100
O O1 0.917496 0.489535 0.640948
O O2 0.941632 0.628841 0.400738
O O3 0.000000 0.497169 0.250000
O O4 0.102266 0.741084 0.742530
O O5 0.154738 0.640364 0.916910
O O6 0.105363 0.754172 0.235298
O O7 0.621045 0.505180 0.295710
O O8 0.556559 0.590574 0.147410
O O9 0.647973 0.635381 0.959729
O O10 0.000000 0.000000 0.500000
O O11 0.317055 0.788279 0.640960
O O12 0.739739 0.118722 0.517058
O O13 0.776499 0.248783 0.209116
O O14 0.741930 0.120388 0.011994
#
# Coordination Sequence:
#
# PCOD9261698 Si02
#       7
#     8   8   8   4   8   8   8
#     4  10  21  38  57  74 100 136 166 196 251 324
#     4  10  19  33  51  77 100 121 165 210 247 284
#     4  10  19  33  49  66  94 133 167 192 235 289
#     4   8  16  30  46  60  80 116 160 188 212 272
#     4  10  19  31  50  76 102 125 163 213 245 281
#     4   8  14  25  42  67  94 125 157 190 242 287
#     4   8  14  25  44  66  94 124 154 196 236 289
#
# _framework density 22.532495999999998
#
# number of rings (size 3 to 8) (size 9 to 14) (size 15 to 20)
#    0.000    2.769    0.000    1.846    0.000    0.000 
#    2.769    0.000    0.000    1.846    0.000    0.000 
#    0.000    0.000    0.000    0.000    0.000    0.000 
#
# Total GULP energy -144872.910105 kJ/mol
# GULP energy per Si atom -5572.035004 kJ/mol
# Density = 2.248121 g / cm^3
# Si number density = 22.532496 Si / 1000 Ang^3
#
#
#
# Elastic Constant Matrix: (Units=GPa)
#
#
# Indices 1 2 3 4 5 6 
#
# 1 22.9793 -4.4325 26.7604 0.0000 -1.1688 0.0000
# 2 -4.4325 56.0953 42.6054 0.0000 -0.1906 0.0000
# 3 26.7604 42.6054 222.3320 0.0000 44.5675 0.0000
# 4 0.0000 0.0000 0.0000 24.3000 0.0000 8.0657
# 5 -1.1688 -0.1906 44.5675 0.0000 18.1060 0.0000
# 6 0.0000 0.0000 0.0000 8.0657 0.0000 3.6969
#
#
#
# Elastic Compliance Matrix: (Units=1/GPa)
#
#
# Indices 1 2 3 4 5 6 
#
# 1 0.113371 0.045152 -0.047100 0.000000 0.123731 0.000000
# 2 0.045152 0.043223 -0.028411 0.000000 0.073304 0.000000
# 3 -0.047100 -0.028411 0.032138 0.000000 -0.082447 0.000000
# 4 0.000000 0.000000 0.000000 0.149191 0.000000 -0.325495
# 5 0.123731 0.073304 -0.082447 0.000000 0.266931 0.000000
# 6 0.000000 0.000000 0.000000 -0.325495 0.000000 0.980642
#
#
# Mechanical properties :
#
#
# Convention : Reuss Voigt Hill
#
# Bulk Modulus (GPa) = 7.81172 47.91923 27.86548
# Shear Modulus (GPa) = 2.96053 24.98548 13.97301
#
# Velocity S-wave (km/s) = 1.14750 3.33357 2.49294
# Velocity P-wave (km/s) = 2.28693 6.01081 4.54752
#
# Compressibility (1/GPa) = 0.12801278
#
# Stress axis : x y z
#
# Youngs Moduli (GPa) = 8.82059 23.13602 31.11554
#
# Poissons Ratio (x) = -1.04464 1.46556
# Poissons Ratio (y) = -0.39827 0.88404
# Poissons Ratio (z) = 0.41545 0.65733
#
# Static dielectric constant tensor:
#      x y z
#    x 1.936210 0.000000 -0.006010 
#    y 0.000000 1.841370 0.000000 
#    z -0.006010 0.000000 2.069330 
# 
# From -- ./inp_files/18194.got.cif
#   From: 2010.05.17/outbox.cif.g08.bks.cpg/sg15_10_cif.got.tgz:18194.got - 2010.06.03 18:47:42.
