data_PCOD9261159
_publ_section_title
;
Structure prediction by ZEFSAII (Michael W. Deem and Ramdas Pophale) SiO2 
 PCOD9261159
Probable space group: C 2/C
;
_chemical_formula_sum "Si O2"
_cell_formula_units_Z 64
_cell_length_a 16.839695
_cell_length_b 30.868938
_cell_length_c 11.550621
_cell_angle_alpha 90.000000
_cell_angle_beta 150.399486
_cell_angle_gamma 90.000000
_cell_volume 2965.814203
_symmetry_space_group_name_H-M "C 2/C"
_symmetry_group_IT_number 15
_symmetry_cell_setting 'monoclinic'
loop_
_space_group_symop_operation_xyz
x,y,z
-x,y,1/2-z
-x,-y,-z
x,-y,1/2+z
1/2+x,1/2+y,z
1/2-x,1/2+y,1/2-z
1/2-x,1/2-y,-z
1/2+x,1/2-y,1/2+z
loop_
_atom_site_type_symbol
_atom_site_label
_atom_site_fract_x
_atom_site_fract_y
_atom_site_fract_z
Si Si1 0.642849 0.568801 0.013854
Si Si2 0.398059 0.132446 0.286046
Si Si3 0.846904 0.558617 0.622039
Si Si4 0.833552 0.796560 0.112337
Si Si5 0.813778 0.997639 0.740071
Si Si6 0.653057 0.150300 0.007799
Si Si7 0.212979 0.412194 0.198427
Si Si8 0.501645 0.355535 0.000284
O O1 0.500000 0.552425 0.750000
O O2 0.784030 0.591187 0.121228
O O3 0.730673 0.535506 0.212059
O O4 0.562810 0.608731 0.986841
O O5 0.398118 0.142451 0.424450
O O6 0.577603 0.120046 0.478564
O O7 0.303271 0.171676 0.109606
O O8 0.710169 0.525597 0.412400
O O9 0.827152 0.604263 0.531958
O O10 0.851027 0.568837 0.761098
O O11 0.000000 0.538361 0.750000
O O12 0.000000 0.796653 0.250000
O O13 0.893070 0.817837 0.307797
O O14 0.750000 0.750000 0.000000
O O15 0.741989 0.045114 0.659680
O O16 0.000000 0.000000 0.000000
O O17 0.500000 0.172349 0.750000
O O18 0.838282 0.165861 0.242858
O O19 0.377966 0.384930 0.423749
#
# Coordination Sequence:
#
# PCOD9261159 Si02
#       8
#     8   8   8   8   8   8   8   8
#     4  11  20  41  64  84 131 193 228 282 362 404
#     4  11  21  43  69  97 138 182 237 281 360 435
#     4  11  22  42  59  87 130 180 239 293 345 401
#     4  12  26  47  78 113 146 181 221 300 371 448
#     4  12  25  39  55  92 137 181 241 301 347 395
#     4  10  18  40  68  90 124 184 231 273 344 410
#     4  12  26  39  66 101 134 191 245 297 348 426
#     4  11  22  43  66  99 139 176 234 285 356 427
#
# _framework density 21.579235000000001
#
# number of rings (size 3 to 8) (size 9 to 14) (size 15 to 20)
#    0.000    0.750   10.000    0.000    3.500    3.500 
#    2.250    0.000    0.000    0.750    3.250    0.000 
#    0.000    0.000    0.000    0.000    0.000    0.000 
#
# Total GULP energy -178602.960182 kJ/mol
# GULP energy per Si atom -5581.342506 kJ/mol
# Density = 2.153012 g / cm^3
# Si number density = 21.579235 Si / 1000 Ang^3
#
#
#
# Elastic Constant Matrix: (Units=GPa)
#
#
# Indices 1 2 3 4 5 6 
#
# 1 56.9354 24.2050 32.0775 0.0000 13.0150 0.0000
# 2 24.2050 98.3327 46.9846 0.0000 6.5869 0.0000
# 3 32.0775 46.9846 147.1186 0.0000 9.0000 0.0000
# 4 0.0000 0.0000 0.0000 35.0663 0.0000 9.7441
# 5 13.0150 6.5869 9.0000 0.0000 37.1611 0.0000
# 6 0.0000 0.0000 0.0000 9.7441 0.0000 17.7908
#
#
#
# Elastic Compliance Matrix: (Units=1/GPa)
#
#
# Indices 1 2 3 4 5 6 
#
# 1 0.022413 -0.003469 -0.003387 0.000000 -0.006415 0.000000
# 2 -0.003469 0.012592 -0.003251 0.000000 -0.000230 0.000000
# 3 -0.003387 -0.003251 0.008593 0.000000 -0.000319 0.000000
# 4 0.000000 0.000000 0.000000 0.033637 0.000000 -0.018423
# 5 -0.006415 -0.000230 -0.000319 0.000000 0.029274 0.000000
# 6 0.000000 0.000000 0.000000 -0.018423 0.000000 0.066299
#
#
# Mechanical properties :
#
#
# Convention : Reuss Voigt Hill
#
# Bulk Modulus (GPa) = 42.76237 56.54675 49.65456
# Shear Modulus (GPa) = 24.89817 31.27826 28.08821
#
# Velocity S-wave (km/s) = 3.40045 3.81131 3.61173
# Velocity P-wave (km/s) = 5.93944 6.75494 6.36027
#
# Compressibility (1/GPa) = 0.02338505
#
# Stress axis : x y z
#
# Youngs Moduli (GPa) = 44.61702 79.41358 116.36817
#
# Poissons Ratio (x) = 0.27550 0.39408
# Poissons Ratio (y) = 0.15479 0.37832
# Poissons Ratio (z) = 0.15110 0.25818
#
# Static dielectric constant tensor:
#      x y z
#    x 1.311450 0.000000 0.444430 
#    y 0.000000 1.341850 0.000000 
#    z 0.444430 0.000000 1.436600 
# 
# From -- ./inp_files/108662.got.cif
#   From: 2010.05.17/outbox.cif.g08.bks.cpg/sg15_55_cif.got.tgz:108662.got - 2010.06.03 18:47:42.
