data_PCOD9261523
_publ_section_title
;
Structure prediction by ZEFSAII (Michael W. Deem and Ramdas Pophale) SiO2 
 PCOD9261523
Probable space group: C 2/C
;
_chemical_formula_sum "Si O2"
_cell_formula_units_Z 44
_cell_length_a 19.954802
_cell_length_b 22.069018
_cell_length_c 5.345814
_cell_angle_alpha 90.000000
_cell_angle_beta 96.940332
_cell_angle_gamma 90.000000
_cell_volume 2336.954620
_symmetry_space_group_name_H-M "C 2/C"
_symmetry_group_IT_number 15
_symmetry_cell_setting 'monoclinic'
loop_
_space_group_symop_operation_xyz
x,y,z
-x,y,1/2-z
-x,-y,-z
x,-y,1/2+z
1/2+x,1/2+y,z
1/2-x,1/2+y,1/2-z
1/2-x,1/2-y,-z
1/2+x,1/2-y,1/2+z
loop_
_atom_site_type_symbol
_atom_site_label
_atom_site_fract_x
_atom_site_fract_y
_atom_site_fract_z
Si Si1 0.379718 0.827085 0.105417
Si Si2 0.674055 0.232520 0.401446
Si Si3 0.570558 0.667787 0.926109
Si Si4 0.577745 0.474414 0.520553
Si Si5 0.418390 0.964321 0.207615
Si Si6 0.500000 0.751307 0.250000
O O1 0.356324 0.801846 0.367299
O O2 0.388020 0.898619 0.138029
O O3 0.453212 0.797168 0.071523
O O4 0.332752 0.807014 0.853699
O O5 0.750000 0.250000 0.500000
O O6 0.631463 0.294584 0.335146
O O7 0.500000 0.674969 0.750000
O O8 0.580131 0.596910 0.973917
O O9 0.554713 0.704495 0.169375
O O10 0.500000 0.500000 0.500000
O O11 0.609179 0.508449 0.299116
O O12 0.500000 0.958406 0.250000
O O13 0.399549 0.991244 0.469929
#
# Coordination Sequence:
#
# PCOD9261523 Si02
#       6
#     8   8   8   8   8   4
#     4  11  21  38  62  83 123 151 204 242 302 354
#     4  11  25  40  59  87 121 161 196 246 305 363
#     4  11  20  34  58  84 116 145 191 242 289 356
#     4  10  19  30  50  79 114 138 176 229 292 334
#     4  10  20  34  56  91 123 153 194 249 309 356
#     4  10  20  32  54  94 110 148 190 252 294 344
#
# _framework density 18.827922999999998
#
# number of rings (size 3 to 8) (size 9 to 14) (size 15 to 20)
#    0.000    1.455    4.545    2.727    0.000    0.000 
#    0.000    0.000    0.000    6.545    0.000    0.000 
#    0.000    0.000    0.000    0.000    0.000    0.000 
#
# Total GULP energy -122536.394517 kJ/mol
# GULP energy per Si atom -5569.836114 kJ/mol
# Density = 1.878507 g / cm^3
# Si number density = 18.827923 Si / 1000 Ang^3
#
#
#
# Elastic Constant Matrix: (Units=GPa)
#
#
# Indices 1 2 3 4 5 6 
#
# 1 41.1335 35.8849 14.1528 0.0000 16.5924 0.0000
# 2 35.8849 163.1077 47.5174 0.0000 10.8186 0.0000
# 3 14.1528 47.5174 122.4831 0.0000 7.8598 0.0000
# 4 0.0000 0.0000 0.0000 33.4099 0.0000 -0.6235
# 5 16.5924 10.8186 7.8598 0.0000 24.6598 0.0000
# 6 0.0000 0.0000 0.0000 -0.6235 0.0000 8.1919
#
#
#
# Elastic Compliance Matrix: (Units=1/GPa)
#
#
# Indices 1 2 3 4 5 6 
#
# 1 0.040332 -0.007191 -0.000338 0.000000 -0.023875 0.000000
# 2 -0.007191 0.008316 -0.002523 0.000000 0.001995 0.000000
# 3 -0.000338 -0.002523 0.009287 0.000000 -0.001625 0.000000
# 4 0.000000 0.000000 0.000000 0.029974 0.000000 0.002281
# 5 -0.023875 0.001995 -0.001625 0.000000 0.056259 0.000000
# 6 0.000000 0.000000 0.000000 0.002281 0.000000 0.122246
#
#
# Mechanical properties :
#
#
# Convention : Reuss Voigt Hill
#
# Bulk Modulus (GPa) = 26.43503 57.98159 42.20831
# Shear Modulus (GPa) = 16.71527 28.53025 22.62276
#
# Velocity S-wave (km/s) = 2.98282 3.89693 3.47010
# Velocity P-wave (km/s) = 5.09252 7.14916 6.20662
#
# Compressibility (1/GPa) = 0.03782860
#
# Stress axis : x y z
#
# Youngs Moduli (GPa) = 24.79450 120.25318 107.68127
#
# Poissons Ratio (x) = 0.86475 0.03644
# Poissons Ratio (y) = 0.17830 0.27170
# Poissons Ratio (z) = 0.00839 0.30342
#
# Static dielectric constant tensor:
#      x y z
#    x 1.661470 0.000000 0.004130 
#    y 0.000000 1.636370 0.000000 
#    z 0.004130 0.000000 1.567800 
# 
# From -- ./inp_files/10396.got.cif
#   From: 2010.05.17/outbox.cif.g08.bks.cpg/sg15_6_cif.got.tgz:10396.got - 2010.06.03 18:47:42.
