data_PCOD9261841
_publ_section_title
;
Structure prediction by ZEFSAII (Michael W. Deem and Ramdas Pophale) SiO2 
 PCOD9261841
Probable space group: C 2/C
;
_chemical_formula_sum "Si O2"
_cell_formula_units_Z 56
_cell_length_a 21.312969
_cell_length_b 15.231455
_cell_length_c 14.976500
_cell_angle_alpha 90.000000
_cell_angle_beta 29.480875
_cell_angle_gamma 90.000000
_cell_volume 2392.644495
_symmetry_space_group_name_H-M "C 2/C"
_symmetry_group_IT_number 15
_symmetry_cell_setting 'monoclinic'
loop_
_space_group_symop_operation_xyz
x,y,z
-x,y,1/2-z
-x,-y,-z
x,-y,1/2+z
1/2+x,1/2+y,z
1/2-x,1/2+y,1/2-z
1/2-x,1/2-y,-z
1/2+x,1/2-y,1/2+z
loop_
_atom_site_type_symbol
_atom_site_label
_atom_site_fract_x
_atom_site_fract_y
_atom_site_fract_z
Si Si1 0.500000 0.365158 0.250000
Si Si2 0.129914 0.136084 0.911633
Si Si3 0.078060 0.512358 0.814888
Si Si4 0.000000 0.592501 0.250000
Si Si5 0.153183 0.062461 0.234154
Si Si6 0.759013 0.162924 0.545735
Si Si7 0.296873 0.557921 0.134984
Si Si8 0.786397 0.856310 0.376371
O O1 0.423631 0.415294 0.424331
O O2 0.382062 0.325564 0.336705
O O3 0.154627 0.183568 0.974858
O O4 0.179970 0.185972 0.762107
O O5 0.203621 0.045522 0.841424
O O6 0.988400 0.099163 0.072814
O O7 0.996401 0.474515 0.836487
O O8 0.130110 0.610795 0.733657
O O9 0.190337 0.440570 0.691158
O O10 0.000000 0.500000 0.000000
O O11 0.865918 0.644335 0.419192
O O12 0.220991 0.095494 0.242650
O O13 0.176400 0.958683 0.191430
O O14 0.183689 0.096793 0.097913
O O15 0.750000 0.250000 0.500000
#
# Coordination Sequence:
#
# PCOD9261841 Si02
#       8
#     4   8   8   4   8   8   8   8
#     4  12  16  32  52  89 121 150 204 262 338 388
#     4  10  19  34  55  83 119 161 210 263 322 395
#     4  11  23  38  57  86 130 169 213 276 347 410
#     4  12  20  34  54  87 127 168 196 270 340 408
#     4  11  18  35  55  85 117 164 212 258 327 392
#     4  11  24  40  58  87 128 177 219 266 333 423
#     4  10  19  31  57  86 119 157 202 271 332 394
#     4  11  20  32  58  89 127 158 204 264 343 394
#
# _framework density 23.405065
#
# number of rings (size 3 to 8) (size 9 to 14) (size 15 to 20)
#    0.000    1.143    5.714    4.714    0.000    0.000 
#    2.571    0.000    0.000    0.000    0.000    5.000 
#    0.000    0.000    0.000    0.000    0.000    0.000 
#
# Total GULP energy -155891.552924 kJ/mol
# GULP energy per Si atom -5567.555462 kJ/mol
# Density = 2.335179 g / cm^3
# Si number density = 23.405065 Si / 1000 Ang^3
#
#
#
# Elastic Constant Matrix: (Units=GPa)
#
#
# Indices 1 2 3 4 5 6 
#
# 1 174.6912 37.8932 29.0109 0.0000 21.5640 0.0000
# 2 37.8932 50.2153 27.4943 0.0000 2.2280 0.0000
# 3 29.0109 27.4943 119.1288 0.0000 10.3955 0.0000
# 4 0.0000 0.0000 0.0000 -9.0411 0.0000 20.2445
# 5 21.5640 2.2280 10.3955 0.0000 46.6019 0.0000
# 6 0.0000 0.0000 0.0000 20.2445 0.0000 -3.9737
#
#
#
# Elastic Compliance Matrix: (Units=1/GPa)
#
#
# Indices 1 2 3 4 5 6 
#
# 1 0.007277 -0.005187 -0.000309 0.000000 -0.003051 0.000000
# 2 -0.005187 0.026492 -0.005048 0.000000 0.002260 0.000000
# 3 -0.000309 -0.005048 0.009792 0.000000 -0.001800 0.000000
# 4 0.000000 0.000000 0.000000 0.010627 0.000000 0.054142
# 5 -0.003051 0.002260 -0.001800 0.000000 0.023163 0.000000
# 6 0.000000 0.000000 0.000000 0.054142 0.000000 0.024180
#
#
# Mechanical properties :
#
#
# Convention : Reuss Voigt Hill
#
# Bulk Modulus (GPa) = 44.49822 59.20358 51.85090
# Shear Modulus (GPa) = 38.42856 23.35986 30.89421
#
# Velocity S-wave (km/s) = 4.05642 3.16265 3.63709
# Velocity P-wave (km/s) = 6.40257 6.21985 6.31187
#
# Compressibility (1/GPa) = 0.02247281
#
# Stress axis : x y z
#
# Youngs Moduli (GPa) = 137.41110 37.74668 102.12751
#
# Poissons Ratio (x) = 0.19580 0.03154
# Poissons Ratio (y) = 0.71278 0.51557
# Poissons Ratio (z) = 0.04244 0.19056
#
# Static dielectric constant tensor:
#      x y z
#    x 1.844350 0.000000 -0.258620 
#    y 0.000000 1.840560 0.000000 
#    z -0.258620 0.000000 1.741420 
# 
# From -- ./inp_files/169148.got.cif
#   From: 2010.05.17/outbox.cif.g08.bks.cpg/sg15_85_cif.got.tgz:169148.got - 2010.06.03 18:47:42.
