data_PCOD9261149
_publ_section_title
;
Structure prediction by ZEFSAII (Michael W. Deem and Ramdas Pophale) SiO2 
 PCOD9261149
Probable space group: C 2/C
;
_chemical_formula_sum "Si O2"
_cell_formula_units_Z 48
_cell_length_a 5.864380
_cell_length_b 27.031626
_cell_length_c 13.575847
_cell_angle_alpha 90.000000
_cell_angle_beta 88.887659
_cell_angle_gamma 90.000000
_cell_volume 2151.688308
_symmetry_space_group_name_H-M "C 2/C"
_symmetry_group_IT_number 15
_symmetry_cell_setting 'monoclinic'
loop_
_space_group_symop_operation_xyz
x,y,z
-x,y,1/2-z
-x,-y,-z
x,-y,1/2+z
1/2+x,1/2+y,z
1/2-x,1/2+y,1/2-z
1/2-x,1/2-y,-z
1/2+x,1/2-y,1/2+z
loop_
_atom_site_type_symbol
_atom_site_label
_atom_site_fract_x
_atom_site_fract_y
_atom_site_fract_z
Si Si1 0.627503 0.103707 0.154710
Si Si2 0.628300 0.697574 0.392709
Si Si3 0.909309 0.945240 0.494103
Si Si4 0.133647 0.691248 0.892492
Si Si5 0.751899 0.590519 0.700610
Si Si6 0.741695 0.858000 0.993263
O O1 0.500000 0.083654 0.250000
O O2 0.755402 0.155706 0.175131
O O3 0.804268 0.068006 0.100797
O O4 0.444631 0.115988 0.072707
O O5 0.751533 0.693847 0.499381
O O6 0.642406 0.753029 0.353985
O O7 0.375471 0.680511 0.423107
O O8 0.739911 0.938465 0.403778
O O9 0.093071 0.901692 0.473709
O O10 0.000000 0.000000 0.500000
O O11 0.247916 0.649171 0.825933
O O12 0.879498 0.671378 0.917842
O O13 0.500000 0.578389 0.750000
O O14 0.000000 0.580944 0.750000
#
# Coordination Sequence:
#
# PCOD9261149 Si02
#       6
#     8   8   8   8   8   8
#     4  10  22  42  67  98 135 177 237 306 359 427
#     4   9  19  34  66  94 136 181 239 272 363 423
#     4  11  25  48  71  98 135 188 238 305 373 433
#     4  10  19  38  61  98 133 192 226 287 346 442
#     4  12  26  47  72 105 151 189 242 304 367 436
#     4  10  18  40  67  88 140 175 235 294 362 417
#
# _framework density 22.308063000000001
#
# number of rings (size 3 to 8) (size 9 to 14) (size 15 to 20)
#    0.000    1.667    5.000    1.500    0.000    4.000 
#    6.000    0.000    0.000    0.000    0.000    0.000 
#    0.000    0.000    0.000    0.000    0.000    0.000 
#
# Total GULP energy -134025.055703 kJ/mol
# GULP energy per Si atom -5584.377321 kJ/mol
# Density = 2.225729 g / cm^3
# Si number density = 22.308063 Si / 1000 Ang^3
#
#
#
# Elastic Constant Matrix: (Units=GPa)
#
#
# Indices 1 2 3 4 5 6 
#
# 1 93.8634 37.2894 30.1476 0.0000 -11.7912 0.0000
# 2 37.2894 130.4570 38.8177 0.0000 2.3349 0.0000
# 3 30.1476 38.8177 80.8283 0.0000 -7.8368 0.0000
# 4 0.0000 0.0000 0.0000 8.1128 0.0000 1.7561
# 5 -11.7912 2.3349 -7.8368 0.0000 35.3563 0.0000
# 6 0.0000 0.0000 0.0000 1.7561 0.0000 12.2754
#
#
#
# Elastic Compliance Matrix: (Units=1/GPa)
#
#
# Indices 1 2 3 4 5 6 
#
# 1 0.013337 -0.002935 -0.003183 0.000000 0.003936 0.000000
# 2 -0.002935 0.009676 -0.003790 0.000000 -0.002458 0.000000
# 3 -0.003183 -0.003790 0.015637 0.000000 0.002655 0.000000
# 4 0.000000 0.000000 0.000000 0.127201 0.000000 -0.018197
# 5 0.003936 -0.002458 0.002655 0.000000 0.030347 0.000000
# 6 0.000000 0.000000 0.000000 -0.018197 0.000000 0.084067
#
#
# Mechanical properties :
#
#
# Convention : Reuss Voigt Hill
#
# Bulk Modulus (GPa) = 53.10104 57.51757 55.30930
# Shear Modulus (GPa) = 16.32068 24.40851 20.36460
#
# Velocity S-wave (km/s) = 2.70775 3.31139 3.02467
# Velocity P-wave (km/s) = 5.79923 6.36079 6.08649
#
# Compressibility (1/GPa) = 0.01883202
#
# Stress axis : x y z
#
# Youngs Moduli (GPa) = 74.98077 103.34545 63.95141
#
# Poissons Ratio (x) = 0.30337 0.20356
# Poissons Ratio (y) = 0.22010 0.24241
# Poissons Ratio (z) = 0.23866 0.39173
#
# Static dielectric constant tensor:
#      x y z
#    x 1.900870 0.000000 0.020450 
#    y 0.000000 1.783530 0.000000 
#    z 0.020450 0.000000 1.839010 
# 
# From -- ./inp_files/130053.got.cif
#   From: 2010.05.17/outbox.cif.g08.bks.cpg/sg15_66_cif.got.tgz:130053.got - 2010.06.03 18:47:42.
