data_PCOD9261193
_publ_section_title
;
Structure prediction by ZEFSAII (Michael W. Deem and Ramdas Pophale) SiO2 
 PCOD9261193
Probable space group: C 2/C
;
_chemical_formula_sum "Si O2"
_cell_formula_units_Z 40
_cell_length_a 11.750341
_cell_length_b 12.087016
_cell_length_c 20.437716
_cell_angle_alpha 90.000000
_cell_angle_beta 143.845935
_cell_angle_gamma 90.000000
_cell_volume 1712.471718
_symmetry_space_group_name_H-M "C 2/C"
_symmetry_group_IT_number 15
_symmetry_cell_setting 'monoclinic'
loop_
_space_group_symop_operation_xyz
x,y,z
-x,y,1/2-z
-x,-y,-z
x,-y,1/2+z
1/2+x,1/2+y,z
1/2-x,1/2+y,1/2-z
1/2-x,1/2-y,-z
1/2+x,1/2-y,1/2+z
loop_
_atom_site_type_symbol
_atom_site_label
_atom_site_fract_x
_atom_site_fract_y
_atom_site_fract_z
Si Si1 0.409165 0.347508 0.922055
Si Si2 0.208329 0.339817 0.322927
Si Si3 0.394704 0.182961 0.112963
Si Si4 0.247723 0.903937 0.791204
Si Si5 0.721718 0.638726 0.794357
O O1 0.230991 0.374478 0.888504
O O2 0.379464 0.392186 0.834820
O O3 0.384372 0.213953 0.903214
O O4 0.611294 0.375275 0.049024
O O5 0.215074 0.206350 0.318199
O O6 0.231800 0.380843 0.260131
O O7 0.000000 0.374725 0.250000
O O8 0.532897 0.104196 0.134804
O O9 0.538018 0.280091 0.204732
O O10 0.250000 0.250000 0.000000
O O11 0.206037 0.014767 0.812052
#
# Coordination Sequence:
#
# PCOD9261193 Si02
#       5
#     8   8   8   8   8
#     4  10  20  41  63  79 121 164 189 248 296 344
#     4  10  22  40  54  81 125 157 191 241 300 347
#     4  10  18  41  64  82 119 156 194 242 294 353
#     4  10  22  37  59  93 113 148 207 241 290 354
#     4  10  22  37  59  93 113 148 207 241 290 354
#
# _framework density 23.358049000000001
#
# number of rings (size 3 to 8) (size 9 to 14) (size 15 to 20)
#    0.000    2.400    4.000    2.400    0.000    8.000 
#    7.200    0.000    0.000    0.000    0.000    0.000 
#    0.000    0.000    0.000    0.000    0.000    0.000 
#
# Total GULP energy -111720.348822 kJ/mol
# GULP energy per Si atom -5586.017441 kJ/mol
# Density = 2.330489 g / cm^3
# Si number density = 23.358049 Si / 1000 Ang^3
#
#
#
# Elastic Constant Matrix: (Units=GPa)
#
#
# Indices 1 2 3 4 5 6 
#
# 1 82.1708 -3.0844 56.6092 0.0000 21.7072 0.0000
# 2 -3.0844 116.2772 -17.0839 0.0000 15.5565 0.0000
# 3 56.6092 -17.0839 113.0278 0.0000 27.1801 0.0000
# 4 0.0000 0.0000 0.0000 2.9252 0.0000 4.1551
# 5 21.7072 15.5565 27.1801 0.0000 32.3645 0.0000
# 6 0.0000 0.0000 0.0000 4.1551 0.0000 -4.6114
#
#
#
# Elastic Compliance Matrix: (Units=1/GPa)
#
#
# Indices 1 2 3 4 5 6 
#
# 1 0.019502 0.000136 -0.008252 0.000000 -0.006215 0.000000
# 2 0.000136 0.010130 0.003328 0.000000 -0.007756 0.000000
# 3 -0.008252 0.003328 0.015710 0.000000 -0.009258 0.000000
# 4 0.000000 0.000000 0.000000 0.149943 0.000000 0.135107
# 5 -0.006215 -0.007756 -0.009258 0.000000 0.046570 0.000000
# 6 0.000000 0.000000 0.000000 0.135107 0.000000 -0.095116
#
#
# Mechanical properties :
#
#
# Convention : Reuss Voigt Hill
#
# Bulk Modulus (GPa) = 27.95939 42.70642 35.33291
# Shear Modulus (GPa) = 29.72012 24.47132 27.09572
#
# Velocity S-wave (km/s) = 3.57090 3.24027 3.40960
# Velocity P-wave (km/s) = 5.38495 5.68526 5.53714
#
# Compressibility (1/GPa) = 0.03576616
#
# Stress axis : x y z
#
# Youngs Moduli (GPa) = 51.27702 98.71376 63.65494
#
# Poissons Ratio (x) = -0.01347 0.52529
# Poissons Ratio (y) = -0.00700 -0.21183
# Poissons Ratio (z) = 0.42315 -0.32850
#
# Static dielectric constant tensor:
#      x y z
#    x 1.927240 0.000000 0.008350 
#    y 0.000000 1.914980 0.000000 
#    z 0.008350 0.000000 1.870240 
# 
# From -- ./inp_files/95523.got.cif
#   From: 2010.05.17/outbox.cif.g08.bks.cpg/sg15_48_cif.got.tgz:95523.got - 2010.06.03 18:47:42.
