data_PCOD9261259
_publ_section_title
;
Structure prediction by ZEFSAII (Michael W. Deem and Ramdas Pophale) SiO2 
 PCOD9261259
Probable space group: C 2/C
;
_chemical_formula_sum "Si O2"
_cell_formula_units_Z 44
_cell_length_a 7.651647
_cell_length_b 15.243837
_cell_length_c 24.365057
_cell_angle_alpha 90.000000
_cell_angle_beta 43.662159
_cell_angle_gamma 90.000000
_cell_volume 1962.096855
_symmetry_space_group_name_H-M "C 2/C"
_symmetry_group_IT_number 15
_symmetry_cell_setting 'monoclinic'
loop_
_space_group_symop_operation_xyz
x,y,z
-x,y,1/2-z
-x,-y,-z
x,-y,1/2+z
1/2+x,1/2+y,z
1/2-x,1/2+y,1/2-z
1/2-x,1/2-y,-z
1/2+x,1/2-y,1/2+z
loop_
_atom_site_type_symbol
_atom_site_label
_atom_site_fract_x
_atom_site_fract_y
_atom_site_fract_z
Si Si1 0.500000 0.959329 0.750000
Si Si2 0.700027 0.570234 0.662732
Si Si3 0.264814 0.881682 0.705464
Si Si4 0.148381 0.344747 0.534624
Si Si5 0.319947 0.150501 0.000040
Si Si6 0.484054 0.515899 0.592500
O O1 0.307736 0.900021 0.759082
O O2 0.680141 0.013083 0.667521
O O3 0.500000 0.614309 0.750000
O O4 0.757618 0.476558 0.677314
O O5 0.575081 0.548354 0.632316
O O6 0.958116 0.620373 0.591831
O O7 0.508479 0.838330 0.624202
O O8 0.000000 0.837361 0.750000
O O9 0.250000 0.250000 0.500000
O O10 0.371187 0.416209 0.480124
O O11 0.943206 0.361106 0.532882
O O12 0.250000 0.250000 0.000000
O O13 0.093841 0.079681 0.052133
#
# Coordination Sequence:
#
# PCOD9261259 Si02
#       6
#     4   8   8   8   8   8
#     4  12  24  36  74 102 122 178 230 266 328 400
#     4  10  18  42  70  87 128 180 211 266 337 382
#     4  11  21  43  69  94 132 176 217 273 338 383
#     4  11  24  44  65  95 136 176 214 277 331 385
#     4  11  23  41  67  98 128 176 223 263 330 399
#     4  11  22  43  66  94 131 176 222 261 332 398
#
# _framework density 22.424989
#
# number of rings (size 3 to 8) (size 9 to 14) (size 15 to 20)
#    0.000    1.091    7.273    1.091    2.545    2.182 
#    3.273    1.818    0.000    0.000    0.000    0.000 
#    0.000    0.000    0.000    0.000    0.000    0.000 
#
# Total GULP energy -122928.677651 kJ/mol
# GULP energy per Si atom -5587.667166 kJ/mol
# Density = 2.237395 g / cm^3
# Si number density = 22.424989 Si / 1000 Ang^3
#
#
#
# Elastic Constant Matrix: (Units=GPa)
#
#
# Indices 1 2 3 4 5 6 
#
# 1 66.6606 -9.4301 8.4373 0.0001 -0.8890 0.0012
# 2 -9.4301 87.6723 43.2141 0.0003 -23.0975 0.0005
# 3 8.4373 43.2141 166.5515 -0.0053 -24.7756 0.0008
# 4 0.0001 0.0003 -0.0053 24.2260 0.0010 -10.4671
# 5 -0.8890 -23.0975 -24.7756 0.0010 41.7904 -0.0005
# 6 0.0012 0.0005 0.0008 -10.4671 -0.0005 15.1985
#
#
#
# Elastic Compliance Matrix: (Units=1/GPa)
#
#
# Indices 1 2 3 4 5 6 
#
# 1 0.015545 0.002575 -0.001310 -0.000001 0.000977 -0.000002
# 2 0.002575 0.014884 -0.003027 -0.000002 0.006486 -0.000002
# 3 -0.001310 -0.003027 0.007242 0.000002 0.002592 0.000001
# 4 -0.000001 -0.000002 0.000002 0.058763 -0.000001 0.040470
# 5 0.000977 0.006486 0.002592 -0.000001 0.029071 0.000000
# 6 -0.000002 -0.000002 0.000001 0.040470 0.000000 0.093668
#
#
# Mechanical properties :
#
#
# Convention : Reuss Voigt Hill
#
# Bulk Modulus (GPa) = 29.28646 45.03631 37.16139
# Shear Modulus (GPa) = 21.36023 34.82052 28.09038
#
# Velocity S-wave (km/s) = 3.08964 3.94478 3.54310
# Velocity P-wave (km/s) = 5.08094 6.39336 5.77455
#
# Compressibility (1/GPa) = 0.03414547
#
# Stress axis : x y z
#
# Youngs Moduli (GPa) = 64.33120 67.18516 138.09032
#
# Poissons Ratio (x) = -0.17302 0.18094
# Poissons Ratio (y) = -0.16567 0.41807
# Poissons Ratio (z) = 0.08429 0.20340
#
# Static dielectric constant tensor:
#      x y z
#    x 1.952920 -0.000010 -0.014620 
#    y -0.000010 1.820740 0.000010 
#    z -0.014620 0.000010 1.869120 
# 
# From -- ./inp_files/188735.got.cif
#   From: 2010.05.17/outbox.cif.g08.bks.cpg/sg15_95_cif.got.tgz:188735.got - 2010.06.03 18:47:42.
