data_PCOD9261910
_publ_section_title
;
Structure prediction by ZEFSAII (Michael W. Deem and Ramdas Pophale) SiO2 
 PCOD9261910
Probable space group: C 2/C
;
_chemical_formula_sum "Si O2"
_cell_formula_units_Z 56
_cell_length_a 10.964120
_cell_length_b 22.191315
_cell_length_c 23.142314
_cell_angle_alpha 90.000000
_cell_angle_beta 149.779043
_cell_angle_gamma 90.000000
_cell_volume 2834.142131
_symmetry_space_group_name_H-M "C 2/C"
_symmetry_group_IT_number 15
_symmetry_cell_setting 'monoclinic'
loop_
_space_group_symop_operation_xyz
x,y,z
-x,y,1/2-z
-x,-y,-z
x,-y,1/2+z
1/2+x,1/2+y,z
1/2-x,1/2+y,1/2-z
1/2-x,1/2-y,-z
1/2+x,1/2-y,1/2+z
loop_
_atom_site_type_symbol
_atom_site_label
_atom_site_fract_x
_atom_site_fract_y
_atom_site_fract_z
Si Si1 0.413847 0.301564 0.504218
Si Si2 0.377873 0.739688 0.868495
Si Si3 0.249311 0.032436 0.671341
Si Si4 0.060718 0.080380 0.711983
Si Si5 0.802861 0.911414 0.919135
Si Si6 0.180579 0.647429 0.478696
Si Si7 0.919362 0.692734 0.859477
O O1 0.287057 0.285867 0.391793
O O2 0.613233 0.352811 0.580267
O O3 0.554048 0.240906 0.578995
O O4 0.198000 0.321964 0.457895
O O5 0.609331 0.695766 0.952044
O O6 0.199954 0.728258 0.742902
O O7 0.461643 0.809075 0.907028
O O8 0.500000 0.059917 0.750000
O O9 0.194059 0.040808 0.716667
O O10 0.034126 0.066280 0.550584
O O11 0.250354 0.964664 0.647086
O O12 0.245596 0.136150 0.799006
O O13 0.000000 0.053059 0.750000
O O14 0.813016 0.106193 0.581039
O O15 0.623147 0.891278 0.897260
#
# Coordination Sequence:
#
# PCOD9261910 Si02
#       7
#     8   8   8   8   8   8   8
#     4  10  19  32  49  75 109 142 177 218 265 325
#     4   9  16  29  47  72 107 139 168 207 259 312
#     4  10  20  35  57  78 100 137 185 232 274 320
#     4  10  19  33  54  79 106 139 181 225 274 327
#     4   9  19  34  53  76 103 136 183 230 269 313
#     4   8  16  29  48  74 104 134 167 215 261 311
#     4  10  20  30  50  78 106 144 179 211 265 328
#
# _framework density 19.759065
#
# number of rings (size 3 to 8) (size 9 to 14) (size 15 to 20)
#    0.000    2.571    0.000    3.000    0.000    2.286 
#    0.000    0.000    0.000   20.571    0.000    0.000 
#    0.000    0.000    0.000    0.000    0.000    0.000 
#
# Total GULP energy -155975.836315 kJ/mol
# GULP energy per Si atom -5570.565583 kJ/mol
# Density = 1.971409 g / cm^3
# Si number density = 19.759065 Si / 1000 Ang^3
#
#
#
# Elastic Constant Matrix: (Units=GPa)
#
#
# Indices 1 2 3 4 5 6 
#
# 1 88.3615 32.6367 15.1883 -0.0008 -18.5362 -0.0003
# 2 32.6367 43.5376 12.7878 -0.0004 -15.1833 -0.0006
# 3 15.1883 12.7878 46.2191 -0.0023 -12.1855 -0.0016
# 4 -0.0008 -0.0004 -0.0023 -4.4271 -0.0017 -3.3466
# 5 -18.5362 -15.1833 -12.1855 -0.0017 26.0937 -0.0011
# 6 -0.0003 -0.0006 -0.0016 -3.3466 -0.0011 26.0916
#
#
#
# Elastic Compliance Matrix: (Units=1/GPa)
#
#
# Indices 1 2 3 4 5 6 
#
# 1 0.016336 -0.010086 -0.001215 -0.000003 0.005168 0.000000
# 2 -0.010086 0.035725 -0.003396 -0.000004 0.012036 0.000000
# 3 -0.001215 -0.003396 0.025347 -0.000016 0.008998 0.000000
# 4 -0.000003 -0.000004 -0.000016 -0.205919 -0.000027 -0.026412
# 5 0.005168 0.012036 0.008998 -0.000027 0.053200 0.000000
# 6 0.000000 0.000000 0.000000 -0.026412 0.000000 0.034939
#
#
# Mechanical properties :
#
#
# Convention : Reuss Voigt Hill
#
# Bulk Modulus (GPa) = 20.82815 33.26042 27.04428
# Shear Modulus (GPa) = 994.67070 17.38535 506.02802
#
# Velocity S-wave (km/s) = 22.46091 2.96947 16.02046
# Velocity P-wave (km/s) = 26.13849 5.35038 18.86594
#
# Compressibility (1/GPa) = 0.04801195
#
# Stress axis : x y z
#
# Youngs Moduli (GPa) = 61.21621 27.99192 39.45212
#
# Poissons Ratio (x) = 0.28234 0.04793
# Poissons Ratio (y) = 0.61745 0.13400
# Poissons Ratio (z) = 0.07437 0.09507
#
# Static dielectric constant tensor:
#      x y z
#    x 1.732230 0.000000 -0.006060 
#    y 0.000000 1.701630 0.000000 
#    z -0.006060 0.000000 1.706390 
# 
# From -- ./inp_files/90405.got.cif
#   From: 2010.05.17/outbox.cif.g08.bks.cpg/sg15_46_cif.got.tgz:90405.got - 2010.06.03 18:47:42.
