data_PCOD9261626
_publ_section_title
;
Structure prediction by ZEFSAII (Michael W. Deem and Ramdas Pophale) SiO2 
 PCOD9261626
Probable space group: C 2/C
;
_chemical_formula_sum "Si O2"
_cell_formula_units_Z 64
_cell_length_a 22.835979
_cell_length_b 21.853199
_cell_length_c 9.737196
_cell_angle_alpha 90.000000
_cell_angle_beta 136.800288
_cell_angle_gamma 90.000000
_cell_volume 3326.362543
_symmetry_space_group_name_H-M "C 2/C"
_symmetry_group_IT_number 15
_symmetry_cell_setting 'monoclinic'
loop_
_space_group_symop_operation_xyz
x,y,z
-x,y,1/2-z
-x,-y,-z
x,-y,1/2+z
1/2+x,1/2+y,z
1/2-x,1/2+y,1/2-z
1/2-x,1/2-y,-z
1/2+x,1/2-y,1/2+z
loop_
_atom_site_type_symbol
_atom_site_label
_atom_site_fract_x
_atom_site_fract_y
_atom_site_fract_z
Si Si1 0.058522 0.571215 0.045831
Si Si2 0.994025 0.770835 0.089466
Si Si3 0.385272 0.023932 0.645860
Si Si4 0.414337 0.673752 0.190464
Si Si5 0.648946 0.819917 0.097872
Si Si6 0.742737 0.108831 0.963859
Si Si7 0.713514 0.778442 0.620168
Si Si8 0.355614 0.193424 0.226940
O O1 0.085753 0.539698 0.235876
O O2 0.090667 0.640013 0.107330
O O3 0.101830 0.533158 0.994638
O O4 0.958302 0.567845 0.839005
O O5 0.000000 0.799871 0.250000
O O6 0.086353 0.753435 0.190168
O O7 0.945097 0.810705 0.896055
O O8 0.944989 0.705891 0.031705
O O9 0.290923 0.045762 0.528532
O O10 0.500000 0.658934 0.250000
O O11 0.338989 0.622950 0.076104
O O12 0.369200 0.736070 0.054447
O O13 0.680846 0.879669 0.228283
O O14 0.707607 0.766907 0.265626
O O15 0.665664 0.824583 0.964636
O O16 0.721086 0.161229 0.041060
O O17 0.717539 0.794292 0.788417
#
# Coordination Sequence:
#
# PCOD9261626 Si02
#       8
#     8   8   8   8   8   8   8   8
#     4  10  22  37  55  79 107 142 180 223 270 322
#     4  10  19  31  46  72 107 148 176 213 258 312
#     4  10  22  38  55  78 108 139 182 228 269 319
#     4  11  20  33  52  77 107 144 189 222 259 328
#     4  10  20  32  45  76 109 141 181 213 260 314
#     4  11  20  35  55  73 107 152 185 223 274 319
#     4  11  19  32  52  73 109 147 180 215 258 328
#     4  11  21  31  51  76 106 147 177 213 266 323
#
# _framework density 19.240237
#
# number of rings (size 3 to 8) (size 9 to 14) (size 15 to 20)
#    0.000    1.500    5.000    1.875    1.750    0.000 
#    4.500    0.000    0.000    0.000    0.000    0.875 
#    0.000    0.000    0.000    0.000    0.000    0.000 
#
# Total GULP energy -178379.365146 kJ/mol
# GULP energy per Si atom -5574.355161 kJ/mol
# Density = 1.919645 g / cm^3
# Si number density = 19.240237 Si / 1000 Ang^3
#
#
#
# Elastic Constant Matrix: (Units=GPa)
#
#
# Indices 1 2 3 4 5 6 
#
# 1 106.6774 0.4469 22.4825 0.0000 -3.1284 0.0000
# 2 0.4469 15.4157 -4.7999 0.0000 4.7293 0.0000
# 3 22.4825 -4.7999 66.7082 0.0000 -14.6919 0.0000
# 4 0.0000 0.0000 0.0000 13.6412 0.0000 2.5924
# 5 -3.1284 4.7293 -14.6919 0.0000 35.8870 0.0000
# 6 0.0000 0.0000 0.0000 2.5924 0.0000 19.8545
#
#
#
# Elastic Compliance Matrix: (Units=1/GPa)
#
#
# Indices 1 2 3 4 5 6 
#
# 1 0.010125 -0.001285 -0.003598 0.000000 -0.000421 0.000000
# 2 -0.001285 0.068388 0.003676 0.000000 -0.007620 0.000000
# 3 -0.003598 0.003676 0.017906 0.000000 0.006533 0.000000
# 4 0.000000 0.000000 0.000000 0.075172 0.000000 -0.009815
# 5 -0.000421 -0.007620 0.006533 0.000000 0.031507 0.000000
# 6 0.000000 0.000000 0.000000 -0.009815 0.000000 0.051648
#
#
# Mechanical properties :
#
#
# Convention : Reuss Voigt Hill
#
# Bulk Modulus (GPa) = 10.63757 25.00669 17.82213
# Shear Modulus (GPa) = 17.33126 25.25468 21.29297
#
# Velocity S-wave (km/s) = 3.00456 3.62691 3.33030
# Velocity P-wave (km/s) = 4.19253 5.52852 4.90622
#
# Compressibility (1/GPa) = 0.09400645
#
# Stress axis : x y z
#
# Youngs Moduli (GPa) = 98.76245 14.62245 55.84586
#
# Poissons Ratio (x) = 0.01878 0.20091
# Poissons Ratio (y) = 0.12687 -0.20526
# Poissons Ratio (z) = 0.35531 -0.05375
#
# Static dielectric constant tensor:
#      x y z
#    x 1.723450 0.000000 -0.000140 
#    y 0.000000 1.661420 0.000000 
#    z -0.000140 0.000000 1.702310 
# 
# From -- ./inp_files/59047.got.cif
#   From: 2010.05.17/outbox.cif.g08.bks.cpg/sg15_30_cif.got.tgz:59047.got - 2010.06.03 18:47:42.
