data_PCOD9261049
_publ_section_title
;
Structure prediction by ZEFSAII (Michael W. Deem and Ramdas Pophale) SiO2 
 PCOD9261049
Probable space group: C 2/C
;
_chemical_formula_sum "Si O2"
_cell_formula_units_Z 52
_cell_length_a 20.700163
_cell_length_b 11.670841
_cell_length_c 10.130175
_cell_angle_alpha 90.000000
_cell_angle_beta 60.433766
_cell_angle_gamma 90.000000
_cell_volume 2128.654684
_symmetry_space_group_name_H-M "C 2/C"
_symmetry_group_IT_number 15
_symmetry_cell_setting 'monoclinic'
loop_
_space_group_symop_operation_xyz
x,y,z
-x,y,1/2-z
-x,-y,-z
x,-y,1/2+z
1/2+x,1/2+y,z
1/2-x,1/2+y,1/2-z
1/2-x,1/2-y,-z
1/2+x,1/2-y,1/2+z
loop_
_atom_site_type_symbol
_atom_site_label
_atom_site_fract_x
_atom_site_fract_y
_atom_site_fract_z
Si Si1 0.836106 0.353968 0.553969
Si Si2 0.443714 0.431007 0.463487
Si Si3 0.322641 0.094446 0.464308
Si Si4 0.425274 0.070825 0.739073
Si Si5 0.500000 0.386586 0.750000
Si Si6 0.207270 0.170170 0.364933
Si Si7 0.492677 0.777856 0.504888
O O1 0.818559 0.490792 0.574129
O O2 0.863949 0.347399 0.373084
O O3 0.763212 0.299206 0.689832
O O4 0.907400 0.309513 0.563783
O O5 0.500000 0.500000 0.500000
O O6 0.435947 0.521064 0.350933
O O7 0.363163 0.405365 0.602335
O O8 0.484428 0.308487 0.403390
O O9 0.254625 0.104445 0.429931
O O10 0.323701 0.215169 0.535426
O O11 0.391585 0.053625 0.303516
O O12 0.500000 0.075386 0.750000
O O13 0.453459 0.112644 0.568555
O O14 0.486287 0.301603 0.643231
#
# Coordination Sequence:
#
# PCOD9261049 Si02
#       7
#     8   8   8   8   4   8   8
#     4   9  20  40  70  93 123 169 207 269 317 371
#     4  10  25  38  63  92 126 177 207 250 311 385
#     4   9  22  40  65  96 124 167 202 267 325 369
#     4   8  16  40  67  93 119 158 219 262 305 371
#     4  10  18  40  60  90 130 166 212 254 306 378
#     4  11  23  43  60  96 138 158 207 262 323 382
#     4  10  18  42  68  91 126 163 224 263 306 371
#
# _framework density 24.428574999999999
#
# number of rings (size 3 to 8) (size 9 to 14) (size 15 to 20)
#    0.923    1.538    2.308    0.000    0.000    8.615 
#    4.154    3.077    0.000    0.000    0.000    0.000 
#    0.000    0.000    0.000    0.000    0.000    0.000 
#
# Total GULP energy -144787.175011 kJ/mol
# GULP energy per Si atom -5568.737500 kJ/mol
# Density = 2.437297 g / cm^3
# Si number density = 24.428575 Si / 1000 Ang^3
#
#
#
# Elastic Constant Matrix: (Units=GPa)
#
#
# Indices 1 2 3 4 5 6 
#
# 1 107.2877 39.3376 36.3457 0.0000 -30.4810 0.0000
# 2 39.3376 115.1570 45.7977 0.0000 -16.0475 0.0000
# 3 36.3457 45.7977 107.6732 0.0000 -19.9322 0.0000
# 4 0.0000 0.0000 0.0000 44.3162 0.0000 2.1779
# 5 -30.4810 -16.0475 -19.9322 0.0000 36.9119 0.0000
# 6 0.0000 0.0000 0.0000 2.1779 0.0000 36.0559
#
#
#
# Elastic Compliance Matrix: (Units=1/GPa)
#
#
# Indices 1 2 3 4 5 6 
#
# 1 0.013440 -0.002642 -0.001746 0.000000 0.009007 0.000000
# 2 -0.002642 0.011163 -0.003735 0.000000 0.000655 0.000000
# 3 -0.001746 -0.003735 0.012108 0.000000 0.003473 0.000000
# 4 0.000000 0.000000 0.000000 0.022632 0.000000 -0.001367
# 5 0.009007 0.000655 0.003473 0.000000 0.036689 0.000000
# 6 0.000000 0.000000 0.000000 -0.001367 0.000000 0.027817
#
#
# Mechanical properties :
#
#
# Convention : Reuss Voigt Hill
#
# Bulk Modulus (GPa) = 48.86163 63.67554 56.26858
# Shear Modulus (GPa) = 34.03297 37.36593 35.69945
#
# Velocity S-wave (km/s) = 3.73656 3.91525 3.82695
# Velocity P-wave (km/s) = 6.21780 6.82360 6.52773
#
# Compressibility (1/GPa) = 0.02046596
#
# Stress axis : x y z
#
# Youngs Moduli (GPa) = 74.40694 89.58288 82.58839
#
# Poissons Ratio (x) = 0.23664 0.14418
# Poissons Ratio (y) = 0.19655 0.30848
# Poissons Ratio (z) = 0.12989 0.33460
#
# Static dielectric constant tensor:
#      x y z
#    x 1.976930 0.000000 0.101190 
#    y 0.000000 2.036820 0.000000 
#    z 0.101190 0.000000 2.107520 
# 
# From -- ./inp_files/117949.got.cif
#   From: 2010.05.17/outbox.cif.g08.bks.cpg/sg15_59_cif.got.tgz:117949.got - 2010.06.03 18:47:42.
