data_PCOD9261877
_publ_section_title
;
Structure prediction by ZEFSAII (Michael W. Deem and Ramdas Pophale) SiO2 
 PCOD9261877
Probable space group: C 2/C
;
_chemical_formula_sum "Si O2"
_cell_formula_units_Z 52
_cell_length_a 21.604499
_cell_length_b 26.897916
_cell_length_c 5.477757
_cell_angle_alpha 90.000000
_cell_angle_beta 59.897524
_cell_angle_gamma 90.000000
_cell_volume 2753.891595
_symmetry_space_group_name_H-M "C 2/C"
_symmetry_group_IT_number 15
_symmetry_cell_setting 'monoclinic'
loop_
_space_group_symop_operation_xyz
x,y,z
-x,y,1/2-z
-x,-y,-z
x,-y,1/2+z
1/2+x,1/2+y,z
1/2-x,1/2+y,1/2-z
1/2-x,1/2-y,-z
1/2+x,1/2-y,1/2+z
loop_
_atom_site_type_symbol
_atom_site_label
_atom_site_fract_x
_atom_site_fract_y
_atom_site_fract_z
Si Si1 0.780927 0.126453 0.902459
Si Si2 0.914721 0.798045 0.132866
Si Si3 0.200628 0.986365 0.028387
Si Si4 0.369018 0.256670 0.725357
Si Si5 0.734037 0.833149 0.995821
Si Si6 0.000000 0.126441 0.750000
Si Si7 0.052489 0.953941 0.840180
O O1 0.844545 0.166566 0.766178
O O2 0.743540 0.131245 0.711815
O O3 0.810321 0.071356 0.890733
O O4 0.733791 0.140776 0.232295
O O5 0.905841 0.762807 0.388642
O O6 0.975701 0.836893 0.086011
O O7 0.915420 0.770058 0.873269
O O8 0.127429 0.019349 0.138852
O O9 0.237797 0.008742 0.193508
O O10 0.332821 0.203196 0.831294
O O11 0.303882 0.296876 0.853024
O O12 0.059820 0.087934 0.532738
O O13 0.000000 0.927712 0.750000
O O14 0.000000 0.000000 0.000000
#
# Coordination Sequence:
#
# PCOD9261877 Si02
#       7
#     8   8   8   8   8   4   8
#     4  10  19  32  47  70  85 115 153 203 244 295
#     4  10  21  32  47  67  92 114 156 195 243 292
#     4  12  23  34  47  63  92 122 165 206 243 279
#     4   9  18  33  50  70  84 109 136 196 261 308
#     4   9  17  32  53  67  87 102 140 196 265 305
#     4  12  26  36  46  66  94 140 172 214 238 286
#     4  12  22  35  46  59  83 134 177 215 246 274
#
# _framework density 18.882369000000001
#
# number of rings (size 3 to 8) (size 9 to 14) (size 15 to 20)
#    0.000    1.538    2.308    3.692    2.154    4.923 
#    0.000    0.000    0.000    0.000    0.000    0.000 
#    0.000    0.000    0.000    0.000    0.000    0.000 
#
# Total GULP energy -144946.819044 kJ/mol
# GULP energy per Si atom -5574.877656 kJ/mol
# Density = 1.883939 g / cm^3
# Si number density = 18.882369 Si / 1000 Ang^3
#
#
#
# Elastic Constant Matrix: (Units=GPa)
#
#
# Indices 1 2 3 4 5 6 
#
# 1 39.6915 22.7037 24.5354 0.0000 18.6776 0.0000
# 2 22.7037 58.9933 35.8712 0.0000 3.5325 0.0000
# 3 24.5354 35.8712 99.7556 0.0000 31.7482 0.0000
# 4 0.0000 0.0000 0.0000 36.8539 0.0000 4.8605
# 5 18.6776 3.5325 31.7482 0.0000 30.2589 0.0000
# 6 0.0000 0.0000 0.0000 4.8605 0.0000 18.7407
#
#
#
# Elastic Compliance Matrix: (Units=1/GPa)
#
#
# Indices 1 2 3 4 5 6 
#
# 1 0.049625 -0.020921 0.006439 0.000000 -0.034945 0.000000
# 2 -0.020921 0.032070 -0.013970 0.000000 0.023827 0.000000
# 3 0.006439 -0.013970 0.021334 0.000000 -0.024728 0.000000
# 4 0.000000 0.000000 0.000000 0.028095 0.000000 -0.007287
# 5 -0.034945 0.023827 -0.024728 0.000000 0.077782 0.000000
# 6 0.000000 0.000000 0.000000 -0.007287 0.000000 0.055250
#
#
# Mechanical properties :
#
#
# Convention : Reuss Voigt Hill
#
# Bulk Modulus (GPa) = 21.67980 40.51789 31.09885
# Shear Modulus (GPa) = 14.86175 24.85938 19.86057
#
# Velocity S-wave (km/s) = 2.80852 3.63235 3.24667
# Velocity P-wave (km/s) = 4.69292 6.25273 5.52811
#
# Compressibility (1/GPa) = 0.04612588
#
# Stress axis : x y z
#
# Youngs Moduli (GPa) = 20.15113 31.18154 46.87355
#
# Poissons Ratio (x) = 0.65235 -0.30183
# Poissons Ratio (y) = 0.42159 0.65481
# Poissons Ratio (z) = -0.12976 0.43560
#
# Static dielectric constant tensor:
#      x y z
#    x 1.453840 0.000000 -0.067050 
#    y 0.000000 1.647150 0.000000 
#    z -0.067050 0.000000 1.761880 
# 
# From -- ./inp_files/16016.got.cif
#   From: 2010.05.17/outbox.cif.g08.bks.cpg/sg15_9_cif.got.tgz:16016.got - 2010.06.03 18:47:42.
