data_PCOD9261218
_publ_section_title
;
Structure prediction by ZEFSAII (Michael W. Deem and Ramdas Pophale) SiO2 
 PCOD9261218
Probable space group: C 2/C
;
_chemical_formula_sum "Si O2"
_cell_formula_units_Z 60
_cell_length_a 15.589142
_cell_length_b 20.038139
_cell_length_c 9.940372
_cell_angle_alpha 90.000000
_cell_angle_beta 60.984585
_cell_angle_gamma 90.000000
_cell_volume 2715.418084
_symmetry_space_group_name_H-M "C 2/C"
_symmetry_group_IT_number 15
_symmetry_cell_setting 'monoclinic'
loop_
_space_group_symop_operation_xyz
x,y,z
-x,y,1/2-z
-x,-y,-z
x,-y,1/2+z
1/2+x,1/2+y,z
1/2-x,1/2+y,1/2-z
1/2-x,1/2-y,-z
1/2+x,1/2-y,1/2+z
loop_
_atom_site_type_symbol
_atom_site_label
_atom_site_fract_x
_atom_site_fract_y
_atom_site_fract_z
Si Si1 0.073565 0.619308 0.074071
Si Si2 0.153665 0.696288 0.637856
Si Si3 0.135174 0.854707 0.466274
Si Si4 0.997654 0.261439 0.045198
Si Si5 0.650684 0.492707 0.300963
Si Si6 0.585267 0.052969 0.791402
Si Si7 0.000000 0.061543 0.250000
Si Si8 0.757744 0.544832 0.451685
O O1 0.184618 0.610176 0.042574
O O2 0.000000 0.605818 0.250000
O O3 0.044983 0.691348 0.037500
O O4 0.059477 0.564030 0.967020
O O5 0.272384 0.691432 0.555826
O O6 0.093559 0.746884 0.781291
O O7 0.130169 0.624670 0.720587
O O8 0.087337 0.699219 0.553262
O O9 0.085466 0.891066 0.630388
O O10 0.051468 0.806996 0.467319
O O11 0.159232 0.917250 0.351684
O O12 0.545077 0.513560 0.327227
O O13 0.674281 0.545239 0.402285
O O14 0.720007 0.492459 0.114810
O O15 0.500000 0.044016 0.750000
O O16 0.663619 0.997744 0.693335
#
# Coordination Sequence:
#
# PCOD9261218 Si02
#       8
#     8   8   8   8   8   8   4   8
#     4  11  24  40  62 104 154 184 235 296 367 443
#     4  10  18  41  69  98 134 184 256 302 338 418
#     4  12  24  43  73 100 142 193 242 301 364 428
#     4  10  22  42  67  99 141 194 245 294 350 431
#     4  12  25  45  70 103 143 179 241 303 365 436
#     4  11  20  38  65  98 144 191 236 298 364 428
#     4  12  26  46  70 112 134 184 248 300 372 438
#     4  12  24  42  70 103 142 191 237 302 376 432
#
# _framework density 22.096043999999999
#
# number of rings (size 3 to 8) (size 9 to 14) (size 15 to 20)
#    0.000    0.800    6.667    2.800    1.867    2.133 
#    1.200    0.000    0.000    4.800    0.000    0.000 
#    0.000    0.000    0.000    0.000    0.000    0.000 
#
# Total GULP energy -167331.285602 kJ/mol
# GULP energy per Si atom -5577.709520 kJ/mol
# Density = 2.204575 g / cm^3
# Si number density = 22.096044 Si / 1000 Ang^3
#
#
#
# Elastic Constant Matrix: (Units=GPa)
#
#
# Indices 1 2 3 4 5 6 
#
# 1 150.0848 42.3859 36.8549 0.0000 9.7231 0.0000
# 2 42.3859 75.3766 13.5732 0.0000 6.9368 0.0000
# 3 36.8549 13.5732 114.6761 0.0000 10.2041 0.0000
# 4 0.0000 0.0000 0.0000 13.7710 0.0000 3.2896
# 5 9.7231 6.9368 10.2041 0.0000 37.5194 0.0000
# 6 0.0000 0.0000 0.0000 3.2896 0.0000 46.0714
#
#
#
# Elastic Compliance Matrix: (Units=1/GPa)
#
#
# Indices 1 2 3 4 5 6 
#
# 1 0.008453 -0.004293 -0.002136 0.000000 -0.000816 0.000000
# 2 -0.004293 0.015903 -0.000348 0.000000 -0.001733 0.000000
# 3 -0.002136 -0.000348 0.009626 0.000000 -0.002000 0.000000
# 4 0.000000 0.000000 0.000000 0.073877 0.000000 -0.005275
# 5 -0.000816 -0.001733 -0.002000 0.000000 0.027729 0.000000
# 6 0.000000 0.000000 0.000000 -0.005275 0.000000 0.022082
#
#
# Mechanical properties :
#
#
# Convention : Reuss Voigt Hill
#
# Bulk Modulus (GPa) = 48.95558 58.41839 53.68698
# Shear Modulus (GPa) = 28.08465 35.96058 32.02261
#
# Velocity S-wave (km/s) = 3.56901 4.03856 3.81103
# Velocity P-wave (km/s) = 6.26001 6.94568 6.61174
#
# Compressibility (1/GPa) = 0.02042668
#
# Stress axis : x y z
#
# Youngs Moduli (GPa) = 118.30458 62.88036 103.88731
#
# Poissons Ratio (x) = 0.26998 0.22188
# Poissons Ratio (y) = 0.50794 0.03618
# Poissons Ratio (z) = 0.25267 0.02190
#
# Static dielectric constant tensor:
#      x y z
#    x 1.954350 0.000000 -0.038890 
#    y 0.000000 1.848040 0.000000 
#    z -0.038890 0.000000 1.911020 
# 
# From -- ./inp_files/42601.got.cif
#   From: 2010.05.17/outbox.cif.g08.bks.cpg/sg15_22_cif.got.tgz:42601.got - 2010.06.03 18:47:42.
