data_PCOD9261183
_publ_section_title
;
Structure prediction by ZEFSAII (Michael W. Deem and Ramdas Pophale) SiO2 
 PCOD9261183
Probable space group: C 2/C
;
_chemical_formula_sum "Si O2"
_cell_formula_units_Z 36
_cell_length_a 22.368362
_cell_length_b 5.171682
_cell_length_c 22.949623
_cell_angle_alpha 90.000000
_cell_angle_beta 143.135834
_cell_angle_gamma 90.000000
_cell_volume 1592.703258
_symmetry_space_group_name_H-M "C 2/C"
_symmetry_group_IT_number 15
_symmetry_cell_setting 'monoclinic'
loop_
_space_group_symop_operation_xyz
x,y,z
-x,y,1/2-z
-x,-y,-z
x,-y,1/2+z
1/2+x,1/2+y,z
1/2-x,1/2+y,1/2-z
1/2-x,1/2-y,-z
1/2+x,1/2-y,1/2+z
loop_
_atom_site_type_symbol
_atom_site_label
_atom_site_fract_x
_atom_site_fract_y
_atom_site_fract_z
Si Si1 0.725454 0.161014 0.814984
Si Si2 0.482327 0.302427 0.852460
Si Si3 0.847707 0.842400 0.190603
Si Si4 0.437867 0.249546 0.468688
Si Si5 0.500000 0.035812 0.250000
O O1 0.620295 0.188226 0.699563
O O2 0.705842 0.380376 0.849931
O O3 0.724419 0.872497 0.838962
O O4 0.824675 0.232400 0.858443
O O5 0.445184 0.590903 0.807264
O O6 0.568167 0.270965 0.965651
O O7 0.500728 0.147608 0.807227
O O8 0.901675 0.715722 0.177497
O O9 0.500000 0.500000 0.500000
O O10 0.500000 0.000000 0.500000
#
# Coordination Sequence:
#
# PCOD9261183 Si02
#       5
#     8   8   8   8   4
#     4   9  21  41  62  91 131 161 218 262 318 380
#     4   9  23  41  68  92 132 166 215 260 328 383
#     4   9  19  38  64  92 126 165 204 263 314 381
#     4  12  27  42  66  97 130 172 220 270 323 387
#     4  10  18  40  72  94 122 176 210 264 324 386
#
# _framework density 22.603078
#
# number of rings (size 3 to 8) (size 9 to 14) (size 15 to 20)
#    1.333    0.889    0.000    2.000    6.222    1.778 
#    0.000    5.556    0.000    0.000    0.000    0.000 
#    0.000    0.000    0.000    0.000    0.000    0.000 
#
# Total GULP energy -100208.542550 kJ/mol
# GULP energy per Si atom -5567.141253 kJ/mol
# Density = 2.255163 g / cm^3
# Si number density = 22.603078 Si / 1000 Ang^3
#
#
#
# Elastic Constant Matrix: (Units=GPa)
#
#
# Indices 1 2 3 4 5 6 
#
# 1 69.7909 38.2681 12.6592 0.0017 8.3275 -0.0032
# 2 38.2681 154.6102 7.8959 -0.0020 0.1374 -0.0195
# 3 12.6592 7.8959 40.0206 0.0010 -0.6467 0.0016
# 4 0.0017 -0.0020 0.0010 15.8936 0.0019 6.6323
# 5 8.3275 0.1374 -0.6467 0.0019 31.9505 0.0002
# 6 -0.0032 -0.0195 0.0016 6.6323 0.0002 38.1066
#
#
#
# Elastic Compliance Matrix: (Units=1/GPa)
#
#
# Indices 1 2 3 4 5 6 
#
# 1 0.018122 -0.004227 -0.004976 -0.000001 -0.004806 0.000000
# 2 -0.004227 0.007520 -0.000129 0.000000 0.001067 0.000004
# 3 -0.004976 -0.000129 0.026616 -0.000001 0.001836 -0.000001
# 4 -0.000001 0.000000 -0.000001 0.067846 -0.000004 -0.011808
# 5 -0.004806 0.001067 0.001836 -0.000004 0.032584 0.000001
# 6 0.000000 0.000004 -0.000001 -0.011808 0.000001 0.028297
#
#
# Mechanical properties :
#
#
# Convention : Reuss Voigt Hill
#
# Bulk Modulus (GPa) = 29.76762 42.45201 36.10982
# Shear Modulus (GPa) = 23.71374 30.89672 27.30523
#
# Velocity S-wave (km/s) = 3.24255 3.70121 3.47945
# Velocity P-wave (km/s) = 5.21701 6.08995 5.67030
#
# Compressibility (1/GPa) = 0.03359355
#
# Stress axis : x y z
#
# Youngs Moduli (GPa) = 55.18034 132.98213 37.57097
#
# Poissons Ratio (x) = 0.56213 0.18696
# Poissons Ratio (y) = 0.23326 0.00486
# Poissons Ratio (z) = 0.27458 0.01719
#
# Static dielectric constant tensor:
#      x y z
#    x 1.877680 0.000000 -0.004830 
#    y 0.000000 1.847700 0.000000 
#    z -0.004830 0.000000 1.831990 
# 
# From -- ./inp_files/280868.got.cif
#   From: 2010.05.17/outbox.cif.g08.bks.cpg/sg15_141_cif.got.tgz:280868.got - 2010.06.03 18:47:42.
