data_PCOD9261870
_publ_section_title
;
Structure prediction by ZEFSAII (Michael W. Deem and Ramdas Pophale) SiO2 
 PCOD9261870
Probable space group: C 2/C
;
_chemical_formula_sum "Si O2"
_cell_formula_units_Z 56
_cell_length_a 24.616524
_cell_length_b 5.644416
_cell_length_c 18.237055
_cell_angle_alpha 90.000000
_cell_angle_beta 85.799804
_cell_angle_gamma 90.000000
_cell_volume 2527.158402
_symmetry_space_group_name_H-M "C 2/C"
_symmetry_group_IT_number 15
_symmetry_cell_setting 'monoclinic'
loop_
_space_group_symop_operation_xyz
x,y,z
-x,y,1/2-z
-x,-y,-z
x,-y,1/2+z
1/2+x,1/2+y,z
1/2-x,1/2+y,1/2-z
1/2-x,1/2-y,-z
1/2+x,1/2-y,1/2+z
loop_
_atom_site_type_symbol
_atom_site_label
_atom_site_fract_x
_atom_site_fract_y
_atom_site_fract_z
Si Si1 0.008122 0.389685 0.398829
Si Si2 0.914552 0.644398 0.793114
Si Si3 0.720843 0.444308 0.952822
Si Si4 0.435364 0.640948 0.771825
Si Si5 0.120935 0.695456 0.945200
Si Si6 0.330329 0.160622 0.936840
Si Si7 0.043396 0.109411 0.562434
O O1 0.073307 0.400452 0.397961
O O2 0.987243 0.636144 0.436282
O O3 0.974567 0.376982 0.326003
O O4 0.990019 0.134967 0.434570
O O5 0.907976 0.390127 0.754508
O O6 0.872216 0.672018 0.865094
O O7 0.913796 0.887072 0.746600
O O8 0.674984 0.317101 0.908553
O O9 0.772585 0.566301 0.910455
O O10 0.750000 0.250000 0.000000
O O11 0.690506 0.617714 0.013034
O O12 0.500000 0.648808 0.750000
O O13 0.429164 0.622265 0.860175
O O14 0.141117 0.506355 0.004284
O O15 0.089103 0.890813 0.996669
#
# Coordination Sequence:
#
# PCOD9261870 Si02
#       7
#     8   8   8   8   8   8   8
#     4  10  20  29  46  70 100 131 163 186 231 296
#     4  10  20  33  50  74 100 132 157 201 241 296
#     4   9  20  31  44  65  92 139 167 205 229 276
#     4  10  19  33  50  70  98 130 159 201 247 288
#     4  11  19  29  47  67  99 136 162 190 235 287
#     4  10  19  32  46  65  99 134 170 196 240 279
#     4  10  20  31  45  72  99 131 159 197 236 290
#
# _framework density 22.159275999999998
#
# number of rings (size 3 to 8) (size 9 to 14) (size 15 to 20)
#    0.000    2.000    2.857    3.000    4.000    0.000 
#    0.000    0.000    0.000    0.000    0.000    0.000 
#    0.000   18.286    0.000    0.000    0.000    0.000 
#
# Total GULP energy -156035.794088 kJ/mol
# GULP energy per Si atom -5572.706932 kJ/mol
# Density = 2.210884 g / cm^3
# Si number density = 22.159276 Si / 1000 Ang^3
#
#
#
# Elastic Constant Matrix: (Units=GPa)
#
#
# Indices 1 2 3 4 5 6 
#
# 1 132.6867 42.1016 20.5158 0.0000 -27.6161 0.0000
# 2 42.1016 189.3603 24.3667 0.0000 -17.1622 0.0000
# 3 20.5158 24.3667 64.3788 0.0000 -20.3554 0.0000
# 4 0.0000 0.0000 0.0000 28.5336 0.0000 -12.8499
# 5 -27.6161 -17.1622 -20.3554 0.0000 23.7801 0.0000
# 6 0.0000 0.0000 0.0000 -12.8499 0.0000 42.5502
#
#
#
# Elastic Compliance Matrix: (Units=1/GPa)
#
#
# Indices 1 2 3 4 5 6 
#
# 1 0.010263 -0.001338 0.000958 0.000000 0.011774 0.000000
# 2 -0.001338 0.005889 -0.001303 0.000000 0.001581 0.000000
# 3 0.000958 -0.001303 0.021629 0.000000 0.018687 0.000000
# 4 0.000000 0.000000 0.000000 0.040563 0.000000 0.012250
# 5 0.011774 0.001581 0.018687 0.000000 0.072862 0.000000
# 6 0.000000 0.000000 0.000000 0.012250 0.000000 0.027201
#
#
# Mechanical properties :
#
#
# Convention : Reuss Voigt Hill
#
# Bulk Modulus (GPa) = 29.05520 62.26600 45.66060
# Shear Modulus (GPa) = 25.87385 38.93555 32.40470
#
# Velocity S-wave (km/s) = 3.42077 4.19630 3.82822
# Velocity P-wave (km/s) = 5.36122 7.18602 6.33962
#
# Compressibility (1/GPa) = 0.03441724
#
# Stress axis : x y z
#
# Youngs Moduli (GPa) = 97.43343 169.79641 46.23372
#
# Poissons Ratio (x) = 0.22722 -0.04431
# Poissons Ratio (y) = 0.13038 0.06023
# Poissons Ratio (z) = -0.09338 0.22118
#
# Static dielectric constant tensor:
#      x y z
#    x 1.859920 0.000000 0.007860 
#    y 0.000000 1.950810 0.000000 
#    z 0.007860 0.000000 1.849760 
# 
# From -- ./inp_files/280953.got.cif
#   From: 2010.05.17/outbox.cif.g08.bks.cpg/sg15_141_cif.got.tgz:280953.got - 2010.06.03 18:47:42.
