data_PCOD9261286
_publ_section_title
;
Structure prediction by ZEFSAII (Michael W. Deem and Ramdas Pophale) SiO2 
 PCOD9261286
Probable space group: C 2/C
;
_chemical_formula_sum "Si O2"
_cell_formula_units_Z 40
_cell_length_a 7.306494
_cell_length_b 13.054853
_cell_length_c 20.699894
_cell_angle_alpha 90.000000
_cell_angle_beta 111.054531
_cell_angle_gamma 90.000000
_cell_volume 1842.646327
_symmetry_space_group_name_H-M "C 2/C"
_symmetry_group_IT_number 15
_symmetry_cell_setting 'monoclinic'
loop_
_space_group_symop_operation_xyz
x,y,z
-x,y,1/2-z
-x,-y,-z
x,-y,1/2+z
1/2+x,1/2+y,z
1/2-x,1/2+y,1/2-z
1/2-x,1/2-y,-z
1/2+x,1/2-y,1/2+z
loop_
_atom_site_type_symbol
_atom_site_label
_atom_site_fract_x
_atom_site_fract_y
_atom_site_fract_z
Si Si1 0.750000 0.750000 0.000000
Si Si2 0.059495 0.557358 0.902771
Si Si3 0.500000 0.600231 0.750000
Si Si4 0.188078 0.037373 0.173227
Si Si5 0.285816 0.509839 0.549227
Si Si6 0.207162 0.743633 0.643098
O O1 0.724994 0.628548 0.973168
O O2 0.770570 0.783472 0.926752
O O3 0.134956 0.503295 0.848182
O O4 0.881488 0.498713 0.916620
O O5 0.984048 0.671481 0.878163
O O6 0.226935 0.557352 0.979481
O O7 0.344791 0.529506 0.767327
O O8 0.387410 0.671658 0.685498
O O9 0.991735 0.020057 0.105634
O O10 0.203678 0.157653 0.188165
#
# Coordination Sequence:
#
# PCOD9261286 Si02
#       6
#     4   8   4   8   8   8
#     4  10  18  44  74 100 144 168 232 300 352 398
#     4  10  22  42  70 106 138 171 231 286 356 416
#     4  12  28  50  64 100 150 186 246 294 338 444
#     4  12  25  47  71  96 146 192 227 294 358 418
#     4  10  21  43  70 111 142 171 232 300 349 433
#     4  11  26  46  72 109 135 191 238 292 362 423
#
# _framework density 21.707909999999998
#
# number of rings (size 3 to 8) (size 9 to 14) (size 15 to 20)
#    0.000    1.200    6.000    0.600    0.000    4.800 
#   10.800    0.000    0.000    0.000    0.000    0.000 
#    0.000    0.000    0.000    0.000    0.000    0.000 
#
# Total GULP energy -111334.318583 kJ/mol
# GULP energy per Si atom -5566.715929 kJ/mol
# Density = 2.165850 g / cm^3
# Si number density = 21.707910 Si / 1000 Ang^3
#
#
#
# Elastic Constant Matrix: (Units=GPa)
#
#
# Indices 1 2 3 4 5 6 
#
# 1 60.4415 19.7055 23.9937 0.0000 -19.5977 0.0000
# 2 19.7055 93.2763 22.1538 0.0000 -17.6804 0.0000
# 3 23.9937 22.1538 41.8014 0.0000 -8.9381 0.0000
# 4 0.0000 0.0000 0.0000 18.7021 0.0000 -3.9539
# 5 -19.5977 -17.6804 -8.9381 0.0000 33.1348 0.0000
# 6 0.0000 0.0000 0.0000 -3.9539 0.0000 16.2877
#
#
#
# Elastic Compliance Matrix: (Units=1/GPa)
#
#
# Indices 1 2 3 4 5 6 
#
# 1 0.025029 -0.000326 -0.011743 0.000000 0.011462 0.000000
# 2 -0.000326 0.013133 -0.005641 0.000000 0.005293 0.000000
# 3 -0.011743 -0.005641 0.033454 0.000000 -0.000931 0.000000
# 4 0.000000 0.000000 0.000000 0.056362 0.000000 0.013682
# 5 0.011462 0.005293 -0.000931 0.000000 0.039532 0.000000
# 6 0.000000 0.000000 0.000000 0.013682 0.000000 0.064717
#
#
# Mechanical properties :
#
#
# Convention : Reuss Voigt Hill
#
# Bulk Modulus (GPa) = 27.62790 36.35835 31.99313
# Shear Modulus (GPa) = 17.87545 22.26935 20.07240
#
# Velocity S-wave (km/s) = 2.87270 3.20638 3.04412
# Velocity P-wave (km/s) = 4.87421 5.52206 5.20822
#
# Compressibility (1/GPa) = 0.03619529
#
# Stress axis : x y z
#
# Youngs Moduli (GPa) = 39.95310 76.14502 29.89213
#
# Poissons Ratio (x) = 0.02482 0.35102
# Poissons Ratio (y) = 0.01302 0.16863
# Poissons Ratio (z) = 0.46917 0.42955
#
# Static dielectric constant tensor:
#      x y z
#    x 1.836070 0.000000 0.015640 
#    y 0.000000 1.788920 0.000000 
#    z 0.015640 0.000000 1.847040 
# 
# From -- ./inp_files/230031.got.cif
#   From: 2010.05.17/outbox.cif.g08.bks.cpg/sg15_116_cif.got.tgz:230031.got - 2010.06.03 18:47:42.
