data_PCOD9261913
_publ_section_title
;
Structure prediction by ZEFSAII (Michael W. Deem and Ramdas Pophale) SiO2 
 PCOD9261913
Probable space group: C 2/C
;
_chemical_formula_sum "Si O2"
_cell_formula_units_Z 56
_cell_length_a 14.633445
_cell_length_b 15.545944
_cell_length_c 20.133561
_cell_angle_alpha 90.000000
_cell_angle_beta 39.766628
_cell_angle_gamma 90.000000
_cell_volume 2929.779225
_symmetry_space_group_name_H-M "C 2/C"
_symmetry_group_IT_number 15
_symmetry_cell_setting 'monoclinic'
loop_
_space_group_symop_operation_xyz
x,y,z
-x,y,1/2-z
-x,-y,-z
x,-y,1/2+z
1/2+x,1/2+y,z
1/2-x,1/2+y,1/2-z
1/2-x,1/2-y,-z
1/2+x,1/2-y,1/2+z
loop_
_atom_site_type_symbol
_atom_site_label
_atom_site_fract_x
_atom_site_fract_y
_atom_site_fract_z
Si Si1 0.436733 0.139617 0.089941
Si Si2 0.306615 0.735483 0.761023
Si Si3 0.540983 0.617726 0.569573
Si Si4 0.222415 0.148807 0.593570
Si Si5 0.566437 0.424823 0.603691
Si Si6 0.205317 0.962052 0.655837
Si Si7 0.498175 0.284434 0.541473
O O1 0.368934 0.177930 0.194635
O O2 0.354330 0.056510 0.109070
O O3 0.606686 0.137997 0.004673
O O4 0.412261 0.212136 0.046737
O O5 0.388751 0.657232 0.678541
O O6 0.324810 0.723076 0.829708
O O7 0.136010 0.738403 0.848260
O O8 0.652242 0.656474 0.561008
O O9 0.558255 0.515542 0.568690
O O10 0.561487 0.653441 0.484215
O O11 0.173083 0.061570 0.658381
O O12 0.689627 0.424014 0.590522
O O13 0.418202 0.423770 0.728232
O O14 0.577080 0.345361 0.548643
#
# Coordination Sequence:
#
# PCOD9261913 Si02
#       7
#     8   8   8   8   8   8   8
#     4  10  21  34  53  81 108 135 171 218 266 305
#     4  10  19  32  49  76 112 136 169 212 253 304
#     4  10  20  34  54  79 105 141 177 209 256 314
#     4  10  20  34  54  79 105 141 177 209 256 314
#     4  10  19  35  58  76 100 140 181 214 254 309
#     4  10  19  35  58  76 100 140 181 214 254 309
#     4  10  21  34  53  81 108 135 171 218 266 305
#
# _framework density 19.114069000000001
#
# number of rings (size 3 to 8) (size 9 to 14) (size 15 to 20)
#    0.000    2.000    2.857    1.286    0.000    6.857 
#    0.000    0.000    0.000    0.000    0.000    0.000 
#    0.000    0.000    0.000    0.000    0.000    0.000 
#
# Total GULP energy -156063.080548 kJ/mol
# GULP energy per Si atom -5573.681448 kJ/mol
# Density = 1.907056 g / cm^3
# Si number density = 19.114069 Si / 1000 Ang^3
#
#
#
# Elastic Constant Matrix: (Units=GPa)
#
#
# Indices 1 2 3 4 5 6 
#
# 1 72.4874 21.0247 20.4156 0.0000 4.2272 0.0000
# 2 21.0247 32.8823 -4.4249 0.0000 6.4086 0.0000
# 3 20.4156 -4.4249 55.1233 -0.0002 -0.0467 0.0001
# 4 0.0000 0.0000 -0.0002 23.5048 0.0001 6.3921
# 5 4.2272 6.4086 -0.0467 0.0001 20.4896 0.0000
# 6 0.0000 0.0000 0.0001 6.3921 0.0000 33.6331
#
#
#
# Elastic Compliance Matrix: (Units=1/GPa)
#
#
# Indices 1 2 3 4 5 6 
#
# 1 0.020353 -0.014227 -0.008680 0.000000 0.000231 0.000000
# 2 -0.014227 0.042704 0.008688 0.000000 -0.010402 0.000000
# 3 -0.008680 0.008688 0.022053 0.000000 -0.000876 0.000000
# 4 0.000000 0.000000 0.000000 0.044863 0.000000 -0.008526
# 5 0.000231 -0.010402 -0.000876 0.000000 0.052009 0.000000
# 6 0.000000 0.000000 0.000000 -0.008526 0.000000 0.031353
#
#
# Mechanical properties :
#
#
# Convention : Reuss Voigt Hill
#
# Bulk Modulus (GPa) = 17.64496 26.05820 21.85158
# Shear Modulus (GPa) = 19.18187 23.75735 21.46961
#
# Velocity S-wave (km/s) = 3.17132 3.52934 3.35511
# Velocity P-wave (km/s) = 4.76037 5.50190 5.14451
#
# Compressibility (1/GPa) = 0.05667339
#
# Stress axis : x y z
#
# Youngs Moduli (GPa) = 49.13273 23.41683 45.34631
#
# Poissons Ratio (x) = 0.33314 0.39360
# Poissons Ratio (y) = 0.69899 -0.39398
# Poissons Ratio (z) = 0.42646 -0.20345
#
# Static dielectric constant tensor:
#      x y z
#    x 1.671680 0.000000 -0.008390 
#    y 0.000000 1.700940 0.000000 
#    z -0.008390 0.000000 1.675950 
# 
# From -- ./inp_files/199433.got.cif
#   From: 2010.05.17/outbox.cif.g08.bks.cpg/sg15_100_cif.got.tgz:199433.got - 2010.06.03 18:47:42.
