data_PCOD9261752
_publ_section_title
;
Structure prediction by ZEFSAII (Michael W. Deem and Ramdas Pophale) SiO2 
 PCOD9261752
Probable space group: C 2/C
;
_chemical_formula_sum "Si O2"
_cell_formula_units_Z 44
_cell_length_a 21.344927
_cell_length_b 9.653478
_cell_length_c 13.921378
_cell_angle_alpha 90.000000
_cell_angle_beta 44.316098
_cell_angle_gamma 90.000000
_cell_volume 2004.007999
_symmetry_space_group_name_H-M "C 2/C"
_symmetry_group_IT_number 15
_symmetry_cell_setting 'monoclinic'
loop_
_space_group_symop_operation_xyz
x,y,z
-x,y,1/2-z
-x,-y,-z
x,-y,1/2+z
1/2+x,1/2+y,z
1/2-x,1/2+y,1/2-z
1/2-x,1/2-y,-z
1/2+x,1/2-y,1/2+z
loop_
_atom_site_type_symbol
_atom_site_label
_atom_site_fract_x
_atom_site_fract_y
_atom_site_fract_z
Si Si1 0.817947 0.746104 0.036291
Si Si2 0.276386 0.993366 0.813357
Si Si3 0.500000 0.163746 0.750000
Si Si4 0.943616 0.664369 0.604373
Si Si5 0.884732 0.247906 0.684718
Si Si6 0.662192 0.441009 0.756091
O O1 0.847012 0.754010 0.116404
O O2 0.750812 0.616294 0.106033
O O3 0.762220 0.885276 0.079123
O O4 0.906835 0.739922 0.876285
O O5 0.321097 0.857128 0.808638
O O6 0.197808 0.952021 0.826812
O O7 0.358421 0.072065 0.668080
O O8 0.480184 0.100127 0.665388
O O9 0.910613 0.819441 0.666183
O O10 0.016959 0.688686 0.441507
O O11 0.875957 0.090926 0.731049
#
# Coordination Sequence:
#
# PCOD9261752 Si02
#       6
#     8   8   4   8   8   8
#     4   8  17  31  50  72  98 133 167 201 237 290
#     4   9  17  30  49  75 101 127 162 205 252 288
#     4  10  20  34  52  74 100 134 174 196 230 294
#     4  10  19  31  52  76 101 131 163 203 241 294
#     4   9  16  29  50  77 101 121 157 210 261 289
#     4   9  17  30  49  75 101 127 162 205 252 288
#
# _framework density 21.956001000000001
#
# number of rings (size 3 to 8) (size 9 to 14) (size 15 to 20)
#    0.000    2.909    0.000    2.182    0.000    2.909 
#    0.000    0.000    0.000    6.545    0.000    0.000 
#    0.000    0.000    0.000    0.000    0.000    0.000 
#
# Total GULP energy -122504.645144 kJ/mol
# GULP energy per Si atom -5568.392961 kJ/mol
# Density = 2.190603 g / cm^3
# Si number density = 21.956001 Si / 1000 Ang^3
#
#
#
# Elastic Constant Matrix: (Units=GPa)
#
#
# Indices 1 2 3 4 5 6 
#
# 1 39.7015 -3.1757 3.1213 0.0000 -0.0961 0.0000
# 2 -3.1757 117.8330 38.4439 -0.0001 -3.6475 0.0000
# 3 3.1213 38.4439 105.3094 0.0000 -18.8051 0.0000
# 4 0.0000 -0.0001 0.0000 -8.6712 0.0000 -17.9262
# 5 -0.0961 -3.6475 -18.8051 0.0000 20.5558 0.0000
# 6 0.0000 0.0000 0.0000 -17.9262 0.0000 15.8105
#
#
#
# Elastic Compliance Matrix: (Units=1/GPa)
#
#
# Indices 1 2 3 4 5 6 
#
# 1 0.025375 0.001082 -0.001305 0.000000 -0.000883 0.000000
# 2 0.001082 0.009736 -0.003917 0.000000 -0.001851 0.000000
# 3 -0.001305 -0.003917 0.012956 0.000000 0.011151 0.000000
# 4 0.000000 0.000000 0.000000 -0.034487 0.000000 -0.039102
# 5 -0.000883 -0.001851 0.011151 0.000000 0.058517 0.000000
# 6 0.000000 0.000000 0.000000 -0.039102 0.000000 0.018914
#
#
# Mechanical properties :
#
#
# Convention : Reuss Voigt Hill
#
# Bulk Modulus (GPa) = 25.13316 37.73587 31.43451
# Shear Modulus (GPa) = 44.42361 20.50265 32.46313
#
# Velocity S-wave (km/s) = 4.50299 3.05914 3.84937
# Velocity P-wave (km/s) = 6.20547 5.44997 5.83995
#
# Compressibility (1/GPa) = 0.03978808
#
# Stress axis : x y z
#
# Youngs Moduli (GPa) = 39.40885 102.70765 77.18648
#
# Poissons Ratio (x) = -0.11116 0.10072
# Poissons Ratio (y) = -0.04265 0.30233
# Poissons Ratio (z) = 0.05142 0.40229
#
# Static dielectric constant tensor:
#      x y z
#    x 1.836730 0.000000 -0.018670 
#    y 0.000000 1.843510 0.000000 
#    z -0.018670 0.000000 1.812270 
# 
# From -- ./inp_files/166059.got.cif
#   From: 2010.05.17/outbox.cif.g08.bks.cpg/sg15_84_cif.got.tgz:166059.got - 2010.06.03 18:47:42.
