data_PCOD9261951
_publ_section_title
;
Structure prediction by ZEFSAII (Michael W. Deem and Ramdas Pophale) SiO2 
 PCOD9261951
Probable space group: C 2/C
;
_chemical_formula_sum "Si O2"
_cell_formula_units_Z 64
_cell_length_a 8.344773
_cell_length_b 23.485163
_cell_length_c 21.357046
_cell_angle_alpha 90.000000
_cell_angle_beta 52.716693
_cell_angle_gamma 90.000000
_cell_volume 3330.207974
_symmetry_space_group_name_H-M "C 2/C"
_symmetry_group_IT_number 15
_symmetry_cell_setting 'monoclinic'
loop_
_space_group_symop_operation_xyz
x,y,z
-x,y,1/2-z
-x,-y,-z
x,-y,1/2+z
1/2+x,1/2+y,z
1/2-x,1/2+y,1/2-z
1/2-x,1/2-y,-z
1/2+x,1/2-y,1/2+z
loop_
_atom_site_type_symbol
_atom_site_label
_atom_site_fract_x
_atom_site_fract_y
_atom_site_fract_z
Si Si1 0.668247 0.588834 0.961829
Si Si2 0.211249 0.158270 0.677761
Si Si3 0.055528 0.388547 0.928164
Si Si4 0.432062 0.055401 0.694227
Si Si5 0.872848 0.081593 0.921010
Si Si6 0.886177 0.694503 0.974192
Si Si7 0.844175 0.574426 0.229237
Si Si8 0.943064 0.953172 0.885357
O O1 0.538491 0.600163 0.931555
O O2 0.754737 0.645561 0.972222
O O3 0.867015 0.554766 0.895297
O O4 0.538451 0.556508 0.044584
O O5 0.294358 0.108123 0.704275
O O6 0.153610 0.125096 0.628563
O O7 0.401547 0.197418 0.613759
O O8 0.000000 0.185034 0.750000
O O9 0.095076 0.387152 0.844395
O O10 0.230857 0.428236 0.914267
O O11 0.069182 0.330126 0.966101
O O12 0.842772 0.418387 0.993334
O O13 0.500000 0.063860 0.750000
O O14 0.344606 0.992209 0.708775
O O15 0.938575 0.020759 0.877924
O O16 0.750000 0.750000 0.000000
O O17 0.618435 0.580709 0.308577
O O18 0.000000 0.580513 0.250000
#
# Coordination Sequence:
#
# PCOD9261951 Si02
#       8
#     8   8   8   8   8   8   8   8
#     4  10  20  34  55  80 108 145 185 226 270 333
#     4  10  19  32  55  85 110 135 177 232 279 329
#     4  10  21  35  53  79 109 148 191 231 272 329
#     4  10  19  32  50  80 118 153 182 215 272 338
#     4  11  19  32  53  82 114 143 178 221 272 329
#     4   9  21  41  62  78 103 145 190 236 291 338
#     4  11  20  31  50  79 117 154 184 218 265 333
#     4  11  20  31  50  77 116 155 180 211 264 335
#
# _framework density 19.218018000000001
#
# number of rings (size 3 to 8) (size 9 to 14) (size 15 to 20)
#    0.000    1.750    0.000    7.125    0.000    0.000 
#    0.000    2.500    0.000   25.500    0.000    0.000 
#    0.000    0.000    0.000    0.000    0.000    0.000 
#
# Total GULP energy -178589.617021 kJ/mol
# GULP energy per Si atom -5580.925532 kJ/mol
# Density = 1.917428 g / cm^3
# Si number density = 19.218018 Si / 1000 Ang^3
#
#
#
# Elastic Constant Matrix: (Units=GPa)
#
#
# Indices 1 2 3 4 5 6 
#
# 1 75.9106 16.9688 26.9879 0.0000 -8.9550 0.0000
# 2 16.9688 40.6679 31.0247 0.0000 -4.2474 0.0000
# 3 26.9879 31.0247 109.7507 0.0000 -14.8024 0.0000
# 4 0.0000 0.0000 0.0000 16.7719 0.0000 -6.1321
# 5 -8.9550 -4.2474 -14.8024 0.0000 37.9280 0.0000
# 6 0.0000 0.0000 0.0000 -6.1321 0.0000 22.5440
#
#
#
# Elastic Compliance Matrix: (Units=1/GPa)
#
#
# Indices 1 2 3 4 5 6 
#
# 1 0.015207 -0.004448 -0.002180 0.000000 0.002242 0.000000
# 2 -0.004448 0.032652 -0.008217 0.000000 -0.000601 0.000000
# 3 -0.002180 -0.008217 0.012431 0.000000 0.003417 0.000000
# 4 0.000000 0.000000 0.000000 0.066208 0.000000 0.018009
# 5 0.002242 -0.000601 0.003417 0.000000 0.028161 0.000000
# 6 0.000000 0.000000 0.000000 0.018009 0.000000 0.049256
#
#
# Mechanical properties :
#
#
# Convention : Reuss Voigt Hill
#
# Bulk Modulus (GPa) = 32.68027 41.81024 37.24525
# Shear Modulus (GPa) = 20.50814 25.53862 23.02338
#
# Velocity S-wave (km/s) = 3.27024 3.64935 3.46498
# Velocity P-wave (km/s) = 5.59475 6.28967 5.95236
#
# Compressibility (1/GPa) = 0.03059951
#
# Stress axis : x y z
#
# Youngs Moduli (GPa) = 65.75868 30.62644 80.44239
#
# Poissons Ratio (x) = 0.13624 0.17534
# Poissons Ratio (y) = 0.29251 0.66101
# Poissons Ratio (z) = 0.14333 0.25166
#
# Static dielectric constant tensor:
#      x y z
#    x 1.679500 0.000000 -0.002290 
#    y 0.000000 1.640960 0.000000 
#    z -0.002290 0.000000 1.741080 
# 
# From -- ./inp_files/234696.got.cif
#   From: 2010.05.17/outbox.cif.g08.bks.cpg/sg15_118_cif.got.tgz:234696.got - 2010.06.03 18:47:42.
