data_PCOD9261143
_publ_section_title
;
Structure prediction by ZEFSAII (Michael W. Deem and Ramdas Pophale) SiO2 
 PCOD9261143
Probable space group: C 2/C
;
_chemical_formula_sum "Si O2"
_cell_formula_units_Z 40
_cell_length_a 13.419408
_cell_length_b 18.019772
_cell_length_c 20.448864
_cell_angle_alpha 90.000000
_cell_angle_beta 159.642742
_cell_angle_gamma 90.000000
_cell_volume 1720.173466
_symmetry_space_group_name_H-M "C 2/C"
_symmetry_group_IT_number 15
_symmetry_cell_setting 'monoclinic'
loop_
_space_group_symop_operation_xyz
x,y,z
-x,y,1/2-z
-x,-y,-z
x,-y,1/2+z
1/2+x,1/2+y,z
1/2-x,1/2+y,1/2-z
1/2-x,1/2-y,-z
1/2+x,1/2-y,1/2+z
loop_
_atom_site_type_symbol
_atom_site_label
_atom_site_fract_x
_atom_site_fract_y
_atom_site_fract_z
Si Si1 0.000000 0.953514 0.750000
Si Si2 0.961703 0.349538 0.451346
Si Si3 0.000000 0.413600 0.750000
Si Si4 0.148302 0.392123 0.701587
Si Si5 0.434377 0.463281 0.345083
Si Si6 0.194899 0.794254 0.033329
O O1 0.272530 0.900267 0.909268
O O2 0.988683 0.003665 0.678541
O O3 0.944020 0.365659 0.517641
O O4 0.047516 0.265701 0.490335
O O5 0.695244 0.381759 0.247179
O O6 0.955397 0.370580 0.790416
O O7 0.711641 0.459995 0.560686
O O8 0.196531 0.480606 0.726973
O O9 0.462971 0.358279 0.881132
O O10 0.500000 0.818983 0.250000
O O11 0.250000 0.750000 0.000000
#
# Coordination Sequence:
#
# PCOD9261143 Si02
#       6
#     4   8   4   8   8   8
#     4  10  18  40  66  96 126 174 226 280 320 404
#     4  11  22  43  68  98 127 181 229 266 333 405
#     4  12  26  42  58 102 140 176 224 282 340 386
#     4  11  25  43  67  99 136 181 226 274 340 395
#     4  11  23  40  67  95 137 177 225 274 335 396
#     4  12  24  44  72 101 133 171 228 283 335 398
#
# _framework density 23.253468999999999
#
# number of rings (size 3 to 8) (size 9 to 14) (size 15 to 20)
#    0.000    0.800    3.000    6.600    4.200    0.000 
#    0.000    5.000    0.000    0.000    0.000    0.000 
#    0.000    0.000    0.000    0.000    0.000    0.000 
#
# Total GULP energy -111980.413406 kJ/mol
# GULP energy per Si atom -5599.020670 kJ/mol
# Density = 2.320054 g / cm^3
# Si number density = 23.253469 Si / 1000 Ang^3
#
#
#
# Elastic Constant Matrix: (Units=GPa)
#
#
# Indices 1 2 3 4 5 6 
#
# 1 113.2450 -10.8425 -0.7365 0.0271 -15.5880 -0.0163
# 2 -10.8425 52.9008 19.6134 0.0818 4.6861 -0.0211
# 3 -0.7365 19.6134 100.1679 0.0852 -11.7215 -0.0251
# 4 0.0271 0.0818 0.0852 39.2029 -0.0132 2.5957
# 5 -15.5880 4.6861 -11.7215 -0.0132 29.6299 -0.0270
# 6 -0.0163 -0.0211 -0.0251 2.5957 -0.0270 12.1515
#
#
#
# Elastic Compliance Matrix: (Units=1/GPa)
#
#
# Indices 1 2 3 4 5 6 
#
# 1 0.009656 0.001392 0.000385 -0.000011 0.005012 0.000030
# 2 0.001392 0.021327 -0.004692 -0.000039 -0.004496 0.000027
# 3 0.000385 -0.004692 0.011550 -0.000016 0.005514 0.000032
# 4 -0.000011 -0.000039 -0.000016 0.025874 0.000001 -0.005527
# 5 0.005012 -0.004496 0.005514 0.000001 0.039279 0.000098
# 6 0.000030 0.000027 0.000032 -0.005527 0.000098 0.083475
#
#
# Mechanical properties :
#
#
# Convention : Reuss Voigt Hill
#
# Bulk Modulus (GPa) = 27.24509 31.37584 29.31047
# Shear Modulus (GPa) = 23.89774 33.41548 28.65661
#
# Velocity S-wave (km/s) = 3.20926 3.79490 3.51430
# Velocity P-wave (km/s) = 5.04723 5.72049 5.39437
#
# Compressibility (1/GPa) = 0.03670386
#
# Stress axis : x y z
#
# Youngs Moduli (GPa) = 103.56107 46.88984 86.58037
#
# Poissons Ratio (x) = -0.06529 -0.03332
# Poissons Ratio (y) = -0.14421 0.40621
# Poissons Ratio (z) = -0.03986 0.22000
#
# Static dielectric constant tensor:
#      x y z
#    x 1.905060 -0.000030 0.004140 
#    y -0.000030 1.851230 -0.000020 
#    z 0.004140 -0.000020 1.867070 
# 
# From -- ./inp_files/40571.got.cif
#   From: 2010.05.17/outbox.cif.g08.bks.cpg/sg15_21_cif.got.tgz:40571.got - 2010.06.03 18:47:42.
