data_PCOD9261312
_publ_section_title
;
Structure prediction by ZEFSAII (Michael W. Deem and Ramdas Pophale) SiO2 
 PCOD9261312
Probable space group: C 2/C
;
_chemical_formula_sum "Si O2"
_cell_formula_units_Z 64
_cell_length_a 34.930975
_cell_length_b 16.459322
_cell_length_c 5.518206
_cell_angle_alpha 90.000000
_cell_angle_beta 80.901753
_cell_angle_gamma 90.000000
_cell_volume 3132.722182
_symmetry_space_group_name_H-M "C 2/C"
_symmetry_group_IT_number 15
_symmetry_cell_setting 'monoclinic'
loop_
_space_group_symop_operation_xyz
x,y,z
-x,y,1/2-z
-x,-y,-z
x,-y,1/2+z
1/2+x,1/2+y,z
1/2-x,1/2+y,1/2-z
1/2-x,1/2-y,-z
1/2+x,1/2-y,1/2+z
loop_
_atom_site_type_symbol
_atom_site_label
_atom_site_fract_x
_atom_site_fract_y
_atom_site_fract_z
Si Si1 0.148493 0.601820 0.101764
Si Si2 0.046492 0.953018 0.703461
Si Si3 0.104681 0.808574 0.645674
Si Si4 0.187258 0.036492 0.562542
Si Si5 0.150760 0.200854 0.599571
Si Si6 0.869974 0.360663 0.379751
Si Si7 0.277494 0.171851 0.972320
Si Si8 0.731247 0.078068 0.018915
O O1 0.158402 0.701678 0.091906
O O2 0.126875 0.591905 0.374470
O O3 0.187061 0.547186 0.063063
O O4 0.126857 0.591938 0.872403
O O5 0.068374 0.867505 0.681761
O O6 0.000000 0.943357 0.750000
O O7 0.057008 0.999956 0.442863
O O8 0.127997 0.820541 0.370127
O O9 0.099188 0.711812 0.651024
O O10 0.127917 0.820501 0.874917
O O11 0.185015 0.134628 0.564941
O O12 0.232952 0.017547 0.516842
O O13 0.170480 0.000037 0.329291
O O14 0.825043 0.323662 0.424659
O O15 0.267421 0.128105 0.233910
O O16 0.250000 0.250000 0.000000
O O17 0.267402 0.128144 0.730879
#
# Coordination Sequence:
#
# PCOD9261312 Si02
#       8
#     8   8   8   8   8   8   8   8
#     4   8  16  30  45  67  74  97 128 171 215 247
#     4  10  21  35  50  65  80 105 147 182 203 244
#     4  10  19  32  48  64  83 105 121 168 227 260
#     4  12  26  37  42  57  85 119 148 170 207 263
#     4  10  21  32  49  64  87 102 133 171 219 273
#     4   8  16  26  40  65  86  92 118 153 208 267
#     4  10  19  27  48  68  80  98 129 167 216 255
#     4  10  21  32  47  59  81 104 135 176 208 248
#
# _framework density 20.429518000000002
#
# number of rings (size 3 to 8) (size 9 to 14) (size 15 to 20)
#    0.000    2.250    0.000    2.625   10.500    3.000 
#    0.000    0.000    0.000    0.000    0.000    0.000 
#    0.000    0.000    0.000    0.000    0.000    0.000 
#
# Total GULP energy -178417.006725 kJ/mol
# GULP energy per Si atom -5575.531460 kJ/mol
# Density = 2.038302 g / cm^3
# Si number density = 20.429518 Si / 1000 Ang^3
#
#
#
# Elastic Constant Matrix: (Units=GPa)
#
#
# Indices 1 2 3 4 5 6 
#
# 1 22.8715 24.6956 20.8762 0.0000 1.6083 0.0000
# 2 24.6956 92.2104 33.5592 0.0000 0.8684 0.0000
# 3 20.8762 33.5592 225.3347 0.0000 16.8381 0.0000
# 4 0.0000 0.0000 0.0000 20.8626 0.0000 -0.6530
# 5 1.6083 0.8684 16.8381 0.0000 10.8112 0.0000
# 6 0.0000 0.0000 0.0000 -0.6530 0.0000 28.6371
#
#
#
# Elastic Compliance Matrix: (Units=1/GPa)
#
#
# Indices 1 2 3 4 5 6 
#
# 1 0.064215 -0.015952 -0.003345 0.000000 -0.003062 0.000000
# 2 -0.015952 0.015466 -0.001030 0.000000 0.002735 0.000000
# 3 -0.003345 -0.001030 0.005498 0.000000 -0.007982 0.000000
# 4 0.000000 0.000000 0.000000 0.047967 0.000000 0.001094
# 5 -0.003062 0.002735 -0.007982 0.000000 0.105164 0.000000
# 6 0.000000 0.000000 0.000000 0.001094 0.000000 0.034945
#
#
# Mechanical properties :
#
#
# Convention : Reuss Voigt Hill
#
# Bulk Modulus (GPa) = 22.45894 55.40874 38.93384
# Shear Modulus (GPa) = 15.20918 29.48121 22.34519
#
# Velocity S-wave (km/s) = 2.73146 3.80290 3.31081
# Velocity P-wave (km/s) = 4.57876 6.81641 5.80640
#
# Compressibility (1/GPa) = 0.04452570
#
# Stress axis : x y z
#
# Youngs Moduli (GPa) = 15.57274 64.65796 181.89965
#
# Poissons Ratio (x) = 1.03141 0.60839
# Poissons Ratio (y) = 0.24841 0.18733
# Poissons Ratio (z) = 0.05209 0.06659
#
# Static dielectric constant tensor:
#      x y z
#    x 1.691560 0.000000 0.008600 
#    y 0.000000 1.825370 0.000000 
#    z 0.008600 0.000000 1.788220 
# 
# From -- ./inp_files/18452.got.cif
#   From: 2010.05.17/outbox.cif.g08.bks.cpg/sg15_10_cif.got.tgz:18452.got - 2010.06.03 18:47:42.
