data_PCOD9261524
_publ_section_title
;
Structure prediction by ZEFSAII (Michael W. Deem and Ramdas Pophale) SiO2 
 PCOD9261524
Probable space group: C 2/C
;
_chemical_formula_sum "Si O2"
_cell_formula_units_Z 40
_cell_length_a 17.766629
_cell_length_b 10.913321
_cell_length_c 14.093235
_cell_angle_alpha 90.000000
_cell_angle_beta 33.732657
_cell_angle_gamma 90.000000
_cell_volume 1517.451505
_symmetry_space_group_name_H-M "C 2/C"
_symmetry_group_IT_number 15
_symmetry_cell_setting 'monoclinic'
loop_
_space_group_symop_operation_xyz
x,y,z
-x,y,1/2-z
-x,-y,-z
x,-y,1/2+z
1/2+x,1/2+y,z
1/2-x,1/2+y,1/2-z
1/2-x,1/2-y,-z
1/2+x,1/2-y,1/2+z
loop_
_atom_site_type_symbol
_atom_site_label
_atom_site_fract_x
_atom_site_fract_y
_atom_site_fract_z
Si Si1 0.034233 0.456063 0.604147
Si Si2 0.531137 0.306861 0.618372
Si Si3 0.318717 0.529255 0.841291
Si Si4 0.529325 0.300355 0.025013
Si Si5 0.236208 0.010071 0.385664
O O1 0.180023 0.518746 0.440061
O O2 0.065553 0.314088 0.551092
O O3 0.000000 0.469894 0.750000
O O4 0.894915 0.487771 0.697336
O O5 0.500000 0.238440 0.750000
O O6 0.427908 0.421661 0.732905
O O7 0.494702 0.251446 0.555726
O O8 0.677567 0.371726 0.454850
O O9 0.391175 0.637356 0.707934
O O10 0.287847 0.564693 0.982845
O O11 0.642611 0.406678 0.915888
#
# Coordination Sequence:
#
# PCOD9261524 Si02
#       5
#     8   8   8   8   8
#     4  10  19  30  50  80 106 124 150 201 262 302
#     4   9  19  35  52  69  94 134 176 203 232 285
#     4   9  17  30  49  74 102 128 157 198 249 301
#     4  11  18  29  49  75 101 128 163 202 246 293
#     4   9  17  30  49  74 102 128 157 198 249 301
#
# _framework density 26.359985000000002
#
# number of rings (size 3 to 8) (size 9 to 14) (size 15 to 20)
#    0.000    2.400    0.000    6.600    0.000    3.200 
#    0.000    4.000    0.000    4.800    0.000    0.000 
#    0.000    0.000    0.000    0.000    0.000    0.000 
#
# Total GULP energy -111986.027694 kJ/mol
# GULP energy per Si atom -5599.301385 kJ/mol
# Density = 2.629999 g / cm^3
# Si number density = 26.359985 Si / 1000 Ang^3
#
#
#
# Elastic Constant Matrix: (Units=GPa)
#
#
# Indices 1 2 3 4 5 6 
#
# 1 145.6686 15.4140 55.9626 0.0000 -0.2531 0.0000
# 2 15.4140 61.2773 16.7049 0.0000 18.6758 0.0000
# 3 55.9626 16.7049 142.4142 0.0000 -26.8673 0.0000
# 4 0.0000 0.0000 0.0000 11.6618 0.0000 -5.0176
# 5 -0.2531 18.6758 -26.8673 0.0000 51.8503 0.0000
# 6 0.0000 0.0000 0.0000 -5.0176 0.0000 8.1410
#
#
#
# Elastic Compliance Matrix: (Units=1/GPa)
#
#
# Indices 1 2 3 4 5 6 
#
# 1 0.008259 -0.000679 -0.003449 0.000000 -0.001502 0.000000
# 2 -0.000679 0.020409 -0.003895 0.000000 -0.009373 0.000000
# 3 -0.003449 -0.003895 0.010081 0.000000 0.006610 0.000000
# 4 0.000000 0.000000 0.000000 0.116696 0.000000 0.071923
# 5 -0.001502 -0.009373 0.006610 0.000000 0.026080 0.000000
# 6 0.000000 0.000000 0.000000 0.071923 0.000000 0.167164
#
#
# Mechanical properties :
#
#
# Convention : Reuss Voigt Hill
#
# Bulk Modulus (GPa) = 44.05024 58.39146 51.22085
# Shear Modulus (GPa) = 13.42994 31.74920 22.58957
#
# Velocity S-wave (km/s) = 2.25962 3.47428 2.93057
# Velocity P-wave (km/s) = 4.85336 6.18820 5.56098
#
# Compressibility (1/GPa) = 0.02270135
#
# Stress axis : x y z
#
# Youngs Moduli (GPa) = 121.07538 48.99912 99.19590
#
# Poissons Ratio (x) = 0.03329 0.34215
# Poissons Ratio (y) = 0.08226 0.38638
# Poissons Ratio (z) = 0.41762 0.19086
#
# Static dielectric constant tensor:
#      x y z
#    x 2.130270 0.000000 0.006110 
#    y 0.000000 2.000450 0.000000 
#    z 0.006110 0.000000 2.047390 
# 
# From -- ./inp_files/38041.got.cif
#   From: 2010.05.17/outbox.cif.g08.bks.cpg/sg15_20_cif.got.tgz:38041.got - 2010.06.03 18:47:42.
