data_PCOD9261402
_publ_section_title
;
Structure prediction by ZEFSAII (Michael W. Deem and Ramdas Pophale) SiO2 
 PCOD9261402
Probable space group: C 2/C
;
_chemical_formula_sum "Si O2"
_cell_formula_units_Z 48
_cell_length_a 15.255009
_cell_length_b 16.861314
_cell_length_c 10.364082
_cell_angle_alpha 90.000000
_cell_angle_beta 94.316314
_cell_angle_gamma 90.000000
_cell_volume 2658.282942
_symmetry_space_group_name_H-M "C 2/C"
_symmetry_group_IT_number 15
_symmetry_cell_setting 'monoclinic'
loop_
_space_group_symop_operation_xyz
x,y,z
-x,y,1/2-z
-x,-y,-z
x,-y,1/2+z
1/2+x,1/2+y,z
1/2-x,1/2+y,1/2-z
1/2-x,1/2-y,-z
1/2+x,1/2-y,1/2+z
loop_
_atom_site_type_symbol
_atom_site_label
_atom_site_fract_x
_atom_site_fract_y
_atom_site_fract_z
Si Si1 0.370632 0.635383 0.333609
Si Si2 0.653555 0.593615 0.884424
Si Si3 0.000000 0.271236 0.250000
Si Si4 0.000000 0.998261 0.750000
Si Si5 0.240150 0.928761 0.905926
Si Si6 0.315697 0.676206 0.879115
Si Si7 0.371945 0.179284 0.532677
O O1 0.342901 0.636811 0.478736
O O2 0.425648 0.712301 0.298299
O O3 0.434818 0.559592 0.320098
O O4 0.291618 0.616639 0.225815
O O5 0.559226 0.551970 0.849525
O O6 0.723660 0.521453 0.890058
O O7 0.668230 0.648567 0.762606
O O8 0.955815 0.322371 0.132257
O O9 0.177904 0.895817 0.016132
O O10 0.336892 0.899390 0.957685
O O11 0.213714 0.700678 0.888332
O O12 0.376308 0.747931 0.933202
#
# Coordination Sequence:
#
# PCOD9261402 Si02
#       7
#     8   8   4   4   8   8   8
#     4  10  19  29  50  80 107 139 175 212 267 323
#     4  11  20  29  52  83 110 137 175 225 260 317
#     4  11  18  34  56  74 102 145 188 212 264 327
#     4   9  20  28  42  76 124 143 158 202 272 333
#     4   9  17  35  50  73 107 145 173 207 264 324
#     4   9  18  35  52  74 105 144 180 212 265 324
#     4   9  19  35  56  69 104 150 184 212 260 334
#
# _framework density 18.05677
#
# number of rings (size 3 to 8) (size 9 to 14) (size 15 to 20)
#    1.000    1.333    1.667    2.500    2.333    0.000 
#    0.000    3.333    0.000    1.000    0.000    0.000 
#    0.000    0.000    0.000    0.167    0.000    0.000 
#
# Total GULP energy -133682.470263 kJ/mol
# GULP energy per Si atom -5570.102928 kJ/mol
# Density = 1.801567 g / cm^3
# Si number density = 18.056770 Si / 1000 Ang^3
#
#
#
# Elastic Constant Matrix: (Units=GPa)
#
#
# Indices 1 2 3 4 5 6 
#
# 1 43.5554 21.6091 31.4634 0.0000 31.3230 0.0000
# 2 21.6091 46.7233 31.1626 0.0000 14.3251 0.0000
# 3 31.4634 31.1626 147.9969 0.0000 15.9114 0.0000
# 4 0.0000 0.0000 0.0000 3.7686 0.0000 1.4867
# 5 31.3230 14.3251 15.9114 0.0000 27.9736 0.0000
# 6 0.0000 0.0000 0.0000 1.4867 0.0000 2.9877
#
#
#
# Elastic Compliance Matrix: (Units=1/GPa)
#
#
# Indices 1 2 3 4 5 6 
#
# 1 0.146329 -0.013608 -0.012118 0.000000 -0.149988 0.000000
# 2 -0.013608 0.029375 -0.003529 0.000000 0.002202 0.000000
# 3 -0.012118 -0.003529 0.008972 0.000000 0.010273 0.000000
# 4 0.000000 0.000000 0.000000 0.330167 0.000000 -0.164293
# 5 -0.149988 0.002202 0.010273 0.000000 0.196724 0.000000
# 6 0.000000 0.000000 0.000000 -0.164293 0.000000 0.416459
#
#
# Mechanical properties :
#
#
# Convention : Reuss Voigt Hill
#
# Bulk Modulus (GPa) = 7.92611 45.19400 26.56005
# Shear Modulus (GPa) = 4.06971 17.21534 10.64253
#
# Velocity S-wave (km/s) = 1.50291 3.09107 2.43037
# Velocity P-wave (km/s) = 2.72226 6.15002 4.75571
#
# Compressibility (1/GPa) = 0.12616526
#
# Stress axis : x y z
#
# Youngs Moduli (GPa) = 6.83393 34.04284 111.46110
#
# Poissons Ratio (x) = 0.46325 1.35069
# Poissons Ratio (y) = 0.09300 0.39334
# Poissons Ratio (z) = 0.08281 0.12014
#
# Static dielectric constant tensor:
#      x y z
#    x 1.634570 0.000000 0.013760 
#    y 0.000000 1.630880 0.000000 
#    z 0.013760 0.000000 1.629120 
# 
# From -- ./inp_files/48049.got.cif
#   From: 2010.05.17/outbox.cif.g08.bks.cpg/sg15_25_cif.got.tgz:48049.got - 2010.06.03 18:47:42.
