data_PCOD9261483
_publ_section_title
;
Structure prediction by ZEFSAII (Michael W. Deem and Ramdas Pophale) SiO2 
 PCOD9261483
Probable space group: C 2/C
;
_chemical_formula_sum "Si O2"
_cell_formula_units_Z 40
_cell_length_a 13.453009
_cell_length_b 34.599058
_cell_length_c 5.025798
_cell_angle_alpha 90.000000
_cell_angle_beta 108.491963
_cell_angle_gamma 90.000000
_cell_volume 2218.532009
_symmetry_space_group_name_H-M "C 2/C"
_symmetry_group_IT_number 15
_symmetry_cell_setting 'monoclinic'
loop_
_space_group_symop_operation_xyz
x,y,z
-x,y,1/2-z
-x,-y,-z
x,-y,1/2+z
1/2+x,1/2+y,z
1/2-x,1/2+y,1/2-z
1/2-x,1/2-y,-z
1/2+x,1/2-y,1/2+z
loop_
_atom_site_type_symbol
_atom_site_label
_atom_site_fract_x
_atom_site_fract_y
_atom_site_fract_z
Si Si1 0.621540 0.168277 0.425496
Si Si2 0.781720 0.103853 0.471496
Si Si3 0.617836 0.638623 0.444963
Si Si4 0.119609 0.973981 0.307702
Si Si5 0.228955 0.704980 0.014923
O O1 0.500000 0.167888 0.250000
O O2 0.673023 0.125507 0.445358
O O3 0.647562 0.186909 0.732699
O O4 0.684852 0.194129 0.266041
O O5 0.812420 0.112026 0.192952
O O6 0.797851 0.059182 0.553161
O O7 0.863209 0.125743 0.737276
O O8 0.500000 0.635239 0.250000
O O9 0.664035 0.681325 0.444155
O O10 0.000000 0.958897 0.250000
O O11 0.129477 0.009777 0.519446
O O12 0.250000 0.750000 0.000000
#
# Coordination Sequence:
#
# PCOD9261483 Si02
#       5
#     8   8   8   8   8
#     4  10  21  37  57  76 100 140 179 212 252 297
#     4  10  20  34  51  73 103 132 170 211 244 304
#     4  10  19  31  50  73  99 134 166 201 254 304
#     4  10  19  30  48  74 102 132 162 200 257 311
#     4  10  21  36  52  78 106 130 170 216 256 302
#
# _framework density 18.02994
#
# number of rings (size 3 to 8) (size 9 to 14) (size 15 to 20)
#    0.000    2.000    0.000    4.200    0.000    3.200 
#    0.000    0.000    0.000    1.200    0.000    0.000 
#    0.000    0.000    0.000    0.000    0.000    0.000 
#
# Total GULP energy -111633.817308 kJ/mol
# GULP energy per Si atom -5581.690865 kJ/mol
# Density = 1.798890 g / cm^3
# Si number density = 18.029940 Si / 1000 Ang^3
#
#
#
# Elastic Constant Matrix: (Units=GPa)
#
#
# Indices 1 2 3 4 5 6 
#
# 1 28.2488 7.8485 -8.3540 0.0000 12.0634 0.0000
# 2 7.8485 71.5813 -15.1959 0.0000 2.9607 0.0000
# 3 -8.3540 -15.1959 48.3199 0.0000 -7.1130 0.0000
# 4 0.0000 0.0000 0.0000 17.1669 0.0000 3.0375
# 5 12.0634 2.9607 -7.1130 0.0000 28.0259 0.0000
# 6 0.0000 0.0000 0.0000 3.0375 0.0000 8.0214
#
#
#
# Elastic Compliance Matrix: (Units=1/GPa)
#
#
# Indices 1 2 3 4 5 6 
#
# 1 0.045269 -0.003342 0.004113 0.000000 -0.018089 0.000000
# 2 -0.003342 0.015221 0.004346 0.000000 0.000934 0.000000
# 3 0.004113 0.004346 0.023316 0.000000 0.003688 0.000000
# 4 0.000000 0.000000 0.000000 0.062435 0.000000 -0.023643
# 5 -0.018089 0.000934 0.003688 0.000000 0.044305 0.000000
# 6 0.000000 0.000000 0.000000 -0.023643 0.000000 0.133619
#
#
# Mechanical properties :
#
#
# Convention : Reuss Voigt Hill
#
# Bulk Modulus (GPa) = 10.63383 12.97191 11.80287
# Shear Modulus (GPa) = 14.48111 21.56627 18.02369
#
# Velocity S-wave (km/s) = 2.83710 3.46227 3.16516
# Velocity P-wave (km/s) = 4.07957 4.81595 4.46297
#
# Compressibility (1/GPa) = 0.09403948
#
# Stress axis : x y z
#
# Youngs Moduli (GPa) = 22.09011 65.70029 42.88852
#
# Poissons Ratio (x) = 0.21959 -0.17639
# Poissons Ratio (y) = 0.07383 -0.18641
# Poissons Ratio (z) = -0.09085 -0.28555
#
# Static dielectric constant tensor:
#      x y z
#    x 1.598860 0.000000 -0.004250 
#    y 0.000000 1.615920 0.000000 
#    z -0.004250 0.000000 1.614240 
# 
# From -- ./inp_files/5696.got.cif
#   From: 2010.05.17/outbox.cif.g08.bks.cpg/sg15_3_cif.got.tgz:5696.got - 2010.06.03 18:47:42.
