data_PCOD9261003
_publ_section_title
;
Structure prediction by ZEFSAII (Michael W. Deem and Ramdas Pophale) SiO2 
 PCOD9261003
Probable space group: C 2/C
;
_chemical_formula_sum "Si O2"
_cell_formula_units_Z 44
_cell_length_a 8.315132
_cell_length_b 11.772206
_cell_length_c 25.004916
_cell_angle_alpha 90.000000
_cell_angle_beta 42.497570
_cell_angle_gamma 90.000000
_cell_volume 1653.543579
_symmetry_space_group_name_H-M "C 2/C"
_symmetry_group_IT_number 15
_symmetry_cell_setting 'monoclinic'
loop_
_space_group_symop_operation_xyz
x,y,z
-x,y,1/2-z
-x,-y,-z
x,-y,1/2+z
1/2+x,1/2+y,z
1/2-x,1/2+y,1/2-z
1/2-x,1/2-y,-z
1/2+x,1/2-y,1/2+z
loop_
_atom_site_type_symbol
_atom_site_label
_atom_site_fract_x
_atom_site_fract_y
_atom_site_fract_z
Si Si1 0.500000 0.413411 0.750000
Si Si2 0.165255 0.692065 0.161805
Si Si3 0.005693 0.425059 0.596811
Si Si4 0.500733 0.406721 0.047533
Si Si5 0.844951 0.900687 0.204489
Si Si6 0.952551 0.678402 0.879210
O O1 0.609204 0.489733 0.770527
O O2 0.744246 0.367617 0.663122
O O3 0.121784 0.609321 0.124552
O O4 0.426649 0.718113 0.119396
O O5 0.000000 0.650444 0.250000
O O6 0.048753 0.810792 0.171086
O O7 0.221753 0.385700 0.505853
O O8 0.995366 0.562202 0.599618
O O9 0.373161 0.430951 0.135585
O O10 0.326219 0.313469 0.064032
O O11 0.500000 0.500000 0.000000
O O12 0.605641 0.841781 0.286873
#
# Coordination Sequence:
#
# PCOD9261003 Si02
#       6
#     4   8   8   8   8   8
#     4  10  20  42  64  94 122 178 234 264 330 392
#     4  10  20  39  65  90 124 170 220 272 325 391
#     4  10  21  37  61  91 128 162 217 267 324 402
#     4  10  22  36  60  98 128 163 218 270 335 401
#     4  10  18  39  68  83 125 175 212 269 328 393
#     4   9  19  41  63  92 123 171 219 264 338 389
#
# _framework density 26.609518000000001
#
# number of rings (size 3 to 8) (size 9 to 14) (size 15 to 20)
#    0.000    2.182    4.545    0.545    0.000    8.000 
#    6.545    0.000    0.000    0.000    0.000    0.000 
#    0.000    0.000    0.000    0.000    0.000    0.000 
#
# Total GULP energy -122884.227971 kJ/mol
# GULP energy per Si atom -5585.646726 kJ/mol
# Density = 2.654895 g / cm^3
# Si number density = 26.609518 Si / 1000 Ang^3
#
#
#
# Elastic Constant Matrix: (Units=GPa)
#
#
# Indices 1 2 3 4 5 6 
#
# 1 80.4642 14.2932 55.0975 0.0001 -37.4065 -0.0001
# 2 14.2932 43.3756 10.4852 0.0000 -9.0096 -0.0003
# 3 55.0975 10.4852 122.0889 -0.0008 -28.1892 -0.0001
# 4 0.0001 0.0000 -0.0008 20.4630 0.0005 -12.6176
# 5 -37.4065 -9.0096 -28.1892 0.0005 73.3489 0.0000
# 6 -0.0001 -0.0003 -0.0001 -12.6176 0.0000 24.8554
#
#
#
# Elastic Compliance Matrix: (Units=1/GPa)
#
#
# Indices 1 2 3 4 5 6 
#
# 1 0.022091 -0.003765 -0.007848 -0.000001 0.007787 0.000000
# 2 -0.003765 0.024550 -0.000172 0.000000 0.001030 0.000000
# 3 -0.007848 -0.000172 0.011872 0.000001 0.000539 0.000000
# 4 -0.000001 0.000000 0.000001 0.071135 -0.000001 0.036111
# 5 0.007787 0.001030 0.000539 -0.000001 0.017938 0.000000
# 6 0.000000 0.000000 0.000000 0.036111 0.000000 0.058564
#
#
# Mechanical properties :
#
#
# Convention : Reuss Voigt Hill
#
# Bulk Modulus (GPa) = 28.61733 45.07562 36.84647
# Shear Modulus (GPa) = 20.71531 34.80363 27.75947
#
# Velocity S-wave (km/s) = 2.79318 3.62047 3.23339
# Velocity P-wave (km/s) = 4.60221 5.86971 5.27417
#
# Compressibility (1/GPa) = 0.03494386
#
# Stress axis : x y z
#
# Youngs Moduli (GPa) = 45.26794 40.73262 84.23398
#
# Poissons Ratio (x) = 0.15335 0.66107
# Poissons Ratio (y) = 0.17042 0.01446
# Poissons Ratio (z) = 0.35526 0.00699
#
# Static dielectric constant tensor:
#      x y z
#    x 2.072640 0.000000 -0.112240 
#    y 0.000000 2.096180 0.000000 
#    z -0.112240 0.000000 2.319420 
# 
# From -- ./inp_files/288574.got.cif
#   From: 2010.05.17/outbox.cif.g08.bks.cpg/sg15_145_cif.got.tgz:288574.got - 2010.06.03 18:47:42.
