data_PCOD9261297
_publ_section_title
;
Structure prediction by ZEFSAII (Michael W. Deem and Ramdas Pophale) SiO2 
 PCOD9261297
Probable space group: C 2/C
;
_chemical_formula_sum "Si O2"
_cell_formula_units_Z 44
_cell_length_a 28.829344
_cell_length_b 8.993911
_cell_length_c 7.751347
_cell_angle_alpha 90.000000
_cell_angle_beta 72.793733
_cell_angle_gamma 90.000000
_cell_volume 1919.887400
_symmetry_space_group_name_H-M "C 2/C"
_symmetry_group_IT_number 15
_symmetry_cell_setting 'monoclinic'
loop_
_space_group_symop_operation_xyz
x,y,z
-x,y,1/2-z
-x,-y,-z
x,-y,1/2+z
1/2+x,1/2+y,z
1/2-x,1/2+y,1/2-z
1/2-x,1/2-y,-z
1/2+x,1/2-y,1/2+z
loop_
_atom_site_type_symbol
_atom_site_label
_atom_site_fract_x
_atom_site_fract_y
_atom_site_fract_z
Si Si1 0.500000 0.082385 0.250000
Si Si2 0.713035 0.717575 0.324833
Si Si3 0.148492 0.454315 0.516681
Si Si4 0.060779 0.337688 0.379862
Si Si5 0.679726 0.282352 0.228996
Si Si6 0.860412 0.198563 0.391428
O O1 0.481481 0.179924 0.431180
O O2 0.540732 0.967082 0.276548
O O3 0.696988 0.890112 0.372802
O O4 0.697565 0.646992 0.526983
O O5 0.770364 0.722256 0.241781
O O6 0.680544 0.659719 0.204145
O O7 0.104966 0.397609 0.446723
O O8 0.148023 0.354698 0.691145
O O9 0.147192 0.625427 0.560375
O O10 0.085250 0.201104 0.248430
O O11 0.649691 0.368006 0.408302
#
# Coordination Sequence:
#
# PCOD9261297 Si02
#       6
#     4   8   8   8   8   8
#     4  10  20  28  34  50  86  94 130 180 216 228
#     4   8  18  27  36  57  75  96 120 167 211 224
#     4   9  17  27  40  56  72  98 140 165 198 226
#     4  10  19  26  37  53  72 104 128 171 216 217
#     4   9  17  27  39  53  78  93 120 176 199 234
#     4  11  17  26  43  56  71 100 141 163 198 229
#
# _framework density 22.918012999999998
#
# number of rings (size 3 to 8) (size 9 to 14) (size 15 to 20)
#    1.091    1.455    1.818    2.727    0.000    0.000 
#    0.000    0.000    0.000    0.000    0.000    0.000 
#    0.000    0.000    0.000    0.000    0.000    0.000 
#
# Total GULP energy -122504.969703 kJ/mol
# GULP energy per Si atom -5568.407714 kJ/mol
# Density = 2.286585 g / cm^3
# Si number density = 22.918013 Si / 1000 Ang^3
#
#
#
# Elastic Constant Matrix: (Units=GPa)
#
#
# Indices 1 2 3 4 5 6 
#
# 1 98.7760 3.3962 21.8712 0.0000 12.8657 0.0000
# 2 3.3962 43.6141 -9.9671 0.0000 3.8289 0.0000
# 3 21.8712 -9.9671 134.1381 0.0000 -18.7982 0.0000
# 4 0.0000 0.0000 0.0000 21.5712 0.0000 -1.4694
# 5 12.8657 3.8289 -18.7982 0.0000 37.1480 0.0000
# 6 0.0000 0.0000 0.0000 -1.4694 0.0000 4.3670
#
#
#
# Elastic Compliance Matrix: (Units=1/GPa)
#
#
# Indices 1 2 3 4 5 6 
#
# 1 0.011428 -0.001043 -0.002670 0.000000 -0.005202 0.000000
# 2 -0.001043 0.023513 0.001753 0.000000 -0.001175 0.000000
# 3 -0.002670 0.001753 0.008745 0.000000 0.005169 0.000000
# 4 0.000000 0.000000 0.000000 0.047446 0.000000 0.015964
# 5 -0.005202 -0.001175 0.005169 0.000000 0.031458 0.000000
# 6 0.000000 0.000000 0.000000 0.015964 0.000000 0.234359
#
#
# Mechanical properties :
#
#
# Convention : Reuss Voigt Hill
#
# Bulk Modulus (GPa) = 25.14759 34.12542 29.63650
# Shear Modulus (GPa) = 13.36448 30.03244 21.69846
#
# Velocity S-wave (km/s) = 2.41745 3.62391 3.08033
# Velocity P-wave (km/s) = 4.33460 5.69499 5.06071
#
# Compressibility (1/GPa) = 0.03976525
#
# Stress axis : x y z
#
# Youngs Moduli (GPa) = 87.50061 42.52913 114.35122
#
# Poissons Ratio (x) = 0.04438 0.30531
# Poissons Ratio (y) = 0.09130 -0.20041
# Poissons Ratio (z) = 0.23362 -0.07454
#
# Static dielectric constant tensor:
#      x y z
#    x 1.843630 0.000000 -0.062590 
#    y 0.000000 1.848380 0.000000 
#    z -0.062590 0.000000 2.068730 
# 
# From -- ./inp_files/65699.got.cif
#   From: 2010.05.17/outbox.cif.g08.bks.cpg/sg15_33_cif.got.tgz:65699.got - 2010.06.03 18:47:42.
