data_PCOD9261998
_publ_section_title
;
Structure prediction by ZEFSAII (Michael W. Deem and Ramdas Pophale) SiO2 
 PCOD9261998
Probable space group: C 2/C
;
_chemical_formula_sum "Si O2"
_cell_formula_units_Z 52
_cell_length_a 18.343112
_cell_length_b 11.166815
_cell_length_c 13.895224
_cell_angle_alpha 90.000000
_cell_angle_beta 125.565414
_cell_angle_gamma 90.000000
_cell_volume 2315.260303
_symmetry_space_group_name_H-M "C 2/C"
_symmetry_group_IT_number 15
_symmetry_cell_setting 'monoclinic'
loop_
_space_group_symop_operation_xyz
x,y,z
-x,y,1/2-z
-x,-y,-z
x,-y,1/2+z
1/2+x,1/2+y,z
1/2-x,1/2+y,1/2-z
1/2-x,1/2-y,-z
1/2+x,1/2-y,1/2+z
loop_
_atom_site_type_symbol
_atom_site_label
_atom_site_fract_x
_atom_site_fract_y
_atom_site_fract_z
Si Si1 0.825295 0.556702 0.936377
Si Si2 0.834261 0.792935 0.174841
Si Si3 0.724474 0.582348 0.192210
Si Si4 0.500000 0.809779 0.750000
Si Si5 0.499169 0.982922 0.114623
Si Si6 0.920330 0.902664 0.435040
Si Si7 0.074065 0.740488 0.620556
O O1 0.738621 0.613308 0.918513
O O2 0.790745 0.478952 0.819716
O O3 0.880584 0.668922 0.933858
O O4 0.892886 0.482243 0.054079
O O5 0.779548 0.677313 0.171085
O O6 0.886099 0.853257 0.305649
O O7 0.912458 0.765561 0.159599
O O8 0.667628 0.476096 0.096264
O O9 0.647435 0.656364 0.192627
O O10 0.468123 0.898100 0.809126
O O11 0.555737 0.865943 0.182078
O O12 0.500000 0.000000 0.000000
O O13 0.974488 0.792633 0.524743
O O14 0.000000 0.000000 0.500000
#
# Coordination Sequence:
#
# PCOD9261998 Si02
#       7
#     8   8   8   4   8   8   8
#     4   9  17  30  51  78 110 143 184 233 283 339
#     4  10  19  32  51  82 117 148 189 240 288 335
#     4   9  17  30  54  84 111 147 192 235 284 345
#     4  12  24  36  58  86 118 154 196 244 290 346
#     4  10  20  36  56  80 109 148 190 231 286 346
#     4   9  17  31  55  85 111 148 192 232 286 345
#     4   9  16  29  53  79 111 146 184 230 282 341
#
# _framework density 22.459676999999999
#
# number of rings (size 3 to 8) (size 9 to 14) (size 15 to 20)
#    0.000    2.462    0.000    4.615    0.000    0.615 
#    0.000    0.000    0.000   12.000    0.000    0.000 
#    0.000    0.000    0.000    0.000    0.000    0.000 
#
# Total GULP energy -144739.468828 kJ/mol
# GULP energy per Si atom -5566.902647 kJ/mol
# Density = 2.240856 g / cm^3
# Si number density = 22.459677 Si / 1000 Ang^3
#
#
#
# Elastic Constant Matrix: (Units=GPa)
#
#
# Indices 1 2 3 4 5 6 
#
# 1 94.4130 42.1950 26.3634 0.0000 31.0614 0.0000
# 2 42.1950 86.1350 16.6524 0.0000 10.0814 0.0000
# 3 26.3634 16.6524 58.8076 0.0000 16.3693 0.0000
# 4 0.0000 0.0000 0.0000 35.7840 0.0000 22.8324
# 5 31.0614 10.0814 16.3693 0.0000 36.8390 0.0000
# 6 0.0000 0.0000 0.0000 22.8324 0.0000 38.2800
#
#
#
# Elastic Compliance Matrix: (Units=1/GPa)
#
#
# Indices 1 2 3 4 5 6 
#
# 1 0.018715 -0.007144 -0.002874 0.000000 -0.012548 0.000000
# 2 -0.007144 0.015149 -0.001837 0.000000 0.002694 0.000000
# 3 -0.002874 -0.001837 0.020539 0.000000 -0.006200 0.000000
# 4 0.000000 0.000000 0.000000 0.045115 0.000000 -0.026909
# 5 -0.012548 0.002694 -0.006200 0.000000 0.039743 0.000000
# 6 0.000000 0.000000 0.000000 -0.026909 0.000000 0.042174
#
#
# Mechanical properties :
#
#
# Convention : Reuss Voigt Hill
#
# Bulk Modulus (GPa) = 32.58055 45.53081 39.05568
# Shear Modulus (GPa) = 23.21512 32.45693 27.83603
#
# Velocity S-wave (km/s) = 3.21851 3.80560 3.52430
# Velocity P-wave (km/s) = 5.32442 6.29495 5.82991
#
# Compressibility (1/GPa) = 0.03069316
#
# Stress axis : x y z
#
# Youngs Moduli (GPa) = 53.43243 66.01087 48.68721
#
# Poissons Ratio (x) = 0.47156 0.13995
# Poissons Ratio (y) = 0.38171 0.08944
# Poissons Ratio (z) = 0.15359 0.12127
#
# Static dielectric constant tensor:
#      x y z
#    x 1.956560 0.000000 0.034590 
#    y 0.000000 1.931570 0.000000 
#    z 0.034590 0.000000 1.880860 
# 
# From -- ./inp_files/161084.got.cif
#   From: 2010.05.17/outbox.cif.g08.bks.cpg/sg15_81_cif.got.tgz:161084.got - 2010.06.03 18:47:42.
