data_PCOD9261456
_publ_section_title
;
Structure prediction by ZEFSAII (Michael W. Deem and Ramdas Pophale) SiO2 
 PCOD9261456
Probable space group: C 2/C
;
_chemical_formula_sum "Si O2"
_cell_formula_units_Z 48
_cell_length_a 9.333624
_cell_length_b 16.737690
_cell_length_c 14.642147
_cell_angle_alpha 90.000000
_cell_angle_beta 111.076189
_cell_angle_gamma 90.000000
_cell_volume 2134.421558
_symmetry_space_group_name_H-M "C 2/C"
_symmetry_group_IT_number 15
_symmetry_cell_setting 'monoclinic'
loop_
_space_group_symop_operation_xyz
x,y,z
-x,y,1/2-z
-x,-y,-z
x,-y,1/2+z
1/2+x,1/2+y,z
1/2-x,1/2+y,1/2-z
1/2-x,1/2-y,-z
1/2+x,1/2-y,1/2+z
loop_
_atom_site_type_symbol
_atom_site_label
_atom_site_fract_x
_atom_site_fract_y
_atom_site_fract_z
Si Si1 0.940887 0.090664 0.632956
Si Si2 0.145234 0.822033 0.900736
Si Si3 0.068432 0.751145 0.073358
Si Si4 0.424766 0.900215 0.631045
Si Si5 0.631119 0.564138 0.166345
Si Si6 0.189936 0.523811 0.103434
O O1 0.993139 0.168165 0.591680
O O2 0.000000 0.103545 0.750000
O O3 0.034014 0.013791 0.619199
O O4 0.764382 0.060465 0.592798
O O5 0.255389 0.772190 0.857165
O O6 0.255720 0.900418 0.946130
O O7 0.985089 0.864127 0.841662
O O8 0.096050 0.764488 0.972442
O O9 0.962641 0.679891 0.084772
O O10 0.500000 0.892911 0.750000
O O11 0.249434 0.915918 0.613962
O O12 0.513618 0.969306 0.594764
O O13 0.720071 0.544202 0.280391
#
# Coordination Sequence:
#
# PCOD9261456 Si02
#       6
#     8   8   8   8   8   8
#     4   9  17  31  50  71  92 118 156 197 233 273
#     4   9  18  31  47  67  95 128 158 185 229 287
#     4  10  19  30  47  70  96 124 156 195 231 272
#     4   9  17  31  50  69  92 124 157 192 237 285
#     4   9  17  31  51  69  90 123 159 193 233 285
#     4   8  16  31  50  68  90 123 161 191 231 288
#
# _framework density 22.488529
#
# number of rings (size 3 to 8) (size 9 to 14) (size 15 to 20)
#    0.000    3.000    0.000    2.000    0.000    3.333 
#    0.000    1.667    0.000   24.000    0.000    0.000 
#    0.000    0.000    0.000    0.000    0.000    0.000 
#
# Total GULP energy -133821.410036 kJ/mol
# GULP energy per Si atom -5575.892085 kJ/mol
# Density = 2.243734 g / cm^3
# Si number density = 22.488529 Si / 1000 Ang^3
#
#
#
# Elastic Constant Matrix: (Units=GPa)
#
#
# Indices 1 2 3 4 5 6 
#
# 1 183.5596 69.8623 22.5602 0.0000 -34.1716 0.0000
# 2 69.8623 118.4485 26.7479 0.0000 -25.2042 0.0000
# 3 22.5602 26.7479 52.4498 0.0000 -24.7260 0.0000
# 4 0.0000 0.0000 0.0000 31.7389 0.0000 -19.1254
# 5 -34.1716 -25.2042 -24.7260 0.0000 34.5241 0.0000
# 6 0.0000 0.0000 0.0000 -19.1254 0.0000 43.5913
#
#
#
# Elastic Compliance Matrix: (Units=1/GPa)
#
#
# Indices 1 2 3 4 5 6 
#
# 1 0.007777 -0.003607 0.001331 0.000000 0.006018 0.000000
# 2 -0.003607 0.011891 -0.003175 0.000000 0.002836 0.000000
# 3 0.001331 -0.003175 0.029653 0.000000 0.020237 0.000000
# 4 0.000000 0.000000 0.000000 0.042831 0.000000 0.018792
# 5 0.006018 0.002836 0.020237 0.000000 0.051486 0.000000
# 6 0.000000 0.000000 0.000000 0.018792 0.000000 0.031185
#
#
# Mechanical properties :
#
#
# Convention : Reuss Voigt Hill
#
# Bulk Modulus (GPa) = 26.02936 65.86654 45.94795
# Shear Modulus (GPa) = 25.18500 37.65666 31.42083
#
# Velocity S-wave (km/s) = 3.35013 4.09648 3.74196
# Velocity P-wave (km/s) = 5.15404 7.19218 6.25666
#
# Compressibility (1/GPa) = 0.03841816
#
# Stress axis : x y z
#
# Youngs Moduli (GPa) = 128.57668 84.09966 33.72396
#
# Poissons Ratio (x) = 0.30337 -0.04490
# Poissons Ratio (y) = 0.46382 0.10708
# Poissons Ratio (z) = -0.17118 0.26704
#
# Static dielectric constant tensor:
#      x y z
#    x 1.896990 0.000000 0.086810 
#    y 0.000000 1.823350 0.000000 
#    z 0.086810 0.000000 1.970270 
# 
# From -- ./inp_files/189263.got.cif
#   From: 2010.05.17/outbox.cif.g08.bks.cpg/sg15_95_cif.got.tgz:189263.got - 2010.06.03 18:47:42.
