data_PCOD9261605
_publ_section_title
;
Structure prediction by ZEFSAII (Michael W. Deem and Ramdas Pophale) SiO2 
 PCOD9261605
Probable space group: C 2/C
;
_chemical_formula_sum "Si O2"
_cell_formula_units_Z 64
_cell_length_a 18.600809
_cell_length_b 15.248280
_cell_length_c 23.740579
_cell_angle_alpha 90.000000
_cell_angle_beta 31.311403
_cell_angle_gamma 90.000000
_cell_volume 3499.352180
_symmetry_space_group_name_H-M "C 2/C"
_symmetry_group_IT_number 15
_symmetry_cell_setting 'monoclinic'
loop_
_space_group_symop_operation_xyz
x,y,z
-x,y,1/2-z
-x,-y,-z
x,-y,1/2+z
1/2+x,1/2+y,z
1/2-x,1/2+y,1/2-z
1/2-x,1/2-y,-z
1/2+x,1/2-y,1/2+z
loop_
_atom_site_type_symbol
_atom_site_label
_atom_site_fract_x
_atom_site_fract_y
_atom_site_fract_z
Si Si1 0.844499 0.683633 0.360318
Si Si2 0.092187 0.096998 0.324342
Si Si3 0.821864 0.437129 0.577996
Si Si4 0.127990 0.618761 0.902251
Si Si5 0.392305 0.315615 0.566617
Si Si6 0.385517 0.430175 0.872307
Si Si7 0.095607 0.889579 0.342979
Si Si8 0.630363 0.363397 0.096817
O O1 0.748642 0.659014 0.371635
O O2 0.765854 0.645371 0.467182
O O3 0.855277 0.788689 0.365587
O O4 0.000000 0.650966 0.250000
O O5 0.221519 0.102596 0.193995
O O6 0.110410 0.157200 0.366493
O O7 0.946334 0.109289 0.389001
O O8 0.087293 0.994938 0.345938
O O9 0.816782 0.542292 0.593263
O O10 0.760081 0.409678 0.559107
O O11 0.980974 0.412111 0.477058
O O12 0.100349 0.711928 0.948200
O O13 0.246074 0.632644 0.776175
O O14 0.524156 0.358564 0.447944
O O15 0.500000 0.404237 0.750000
O O16 0.387722 0.536245 0.873601
O O17 0.001290 0.847160 0.356268
#
# Coordination Sequence:
#
# PCOD9261605 Si02
#       8
#     8   8   8   8   8   8   8   8
#     4  10  19  31  43  76 109 134 165 206 262 312
#     4   9  19  35  55  79 102 142 181 212 261 318
#     4   9  19  36  54  79 106 134 176 228 272 304
#     4  10  20  33  52  82 107 133 177 220 270 311
#     4  11  21  32  55  77 111 143 173 215 260 327
#     4   9  16  32  57  72  94 133 181 220 252 305
#     4   9  19  35  52  77 106 146 176 208 256 318
#     4   9  17  30  51  71 100 136 175 206 250 315
#
# _framework density 18.289100000000001
#
# number of rings (size 3 to 8) (size 9 to 14) (size 15 to 20)
#    0.000    2.500    0.000    3.000    1.750    0.000 
#    6.750    0.625    0.000    0.000    0.000    0.000 
#    0.000    0.000    0.000    0.000    0.000    0.000 
#
# Total GULP energy -178279.083356 kJ/mol
# GULP energy per Si atom -5571.221355 kJ/mol
# Density = 1.824747 g / cm^3
# Si number density = 18.289100 Si / 1000 Ang^3
#
#
#
# Elastic Constant Matrix: (Units=GPa)
#
#
# Indices 1 2 3 4 5 6 
#
# 1 101.9233 6.5828 48.7474 -0.0002 -6.9617 0.0001
# 2 6.5828 18.6229 15.3208 0.0005 -1.2677 -0.0002
# 3 48.7474 15.3208 118.8544 0.0004 -18.1599 -0.0002
# 4 -0.0002 0.0005 0.0004 15.3314 0.0000 0.8002
# 5 -6.9617 -1.2677 -18.1599 0.0000 22.7449 0.0000
# 6 0.0001 -0.0002 -0.0002 0.8002 0.0000 19.8316
#
#
#
# Elastic Compliance Matrix: (Units=1/GPa)
#
#
# Indices 1 2 3 4 5 6 
#
# 1 0.012208 -0.000201 -0.005025 0.000000 -0.000287 0.000000
# 2 -0.000201 0.060279 -0.008182 -0.000002 -0.003235 0.000001
# 3 -0.005025 -0.008182 0.012784 0.000000 0.008213 0.000000
# 4 0.000000 -0.000002 0.000000 0.065363 0.000000 -0.002637
# 5 -0.000287 -0.003235 0.008213 0.000000 0.050255 0.000000
# 6 0.000000 0.000001 0.000000 -0.002637 0.000000 0.050531
#
#
# Mechanical properties :
#
#
# Convention : Reuss Voigt Hill
#
# Bulk Modulus (GPa) = 17.10693 42.30029 29.70361
# Shear Modulus (GPa) = 16.79417 22.83154 19.81286
#
# Velocity S-wave (km/s) = 3.03357 3.53706 3.29495
# Velocity P-wave (km/s) = 4.65231 6.31347 5.54545
#
# Compressibility (1/GPa) = 0.05845583
#
# Stress axis : x y z
#
# Youngs Moduli (GPa) = 81.91348 16.58944 78.22158
#
# Poissons Ratio (x) = 0.00333 0.39306
# Poissons Ratio (y) = 0.01645 0.64002
# Poissons Ratio (z) = 0.41161 0.13574
#
# Static dielectric constant tensor:
#      x y z
#    x 1.670900 0.000000 -0.006510 
#    y 0.000000 1.633870 0.000000 
#    z -0.006510 0.000000 1.633350 
# 
# From -- ./inp_files/277623.got.cif
#   From: 2010.05.17/outbox.cif.g08.bks.cpg/sg15_139_cif.got.tgz:277623.got - 2010.06.03 18:47:42.
