data_PCOD9261637
_publ_section_title
;
Structure prediction by ZEFSAII (Michael W. Deem and Ramdas Pophale) SiO2 
 PCOD9261637
Probable space group: C 2/C
;
_chemical_formula_sum "Si O2"
_cell_formula_units_Z 56
_cell_length_a 22.012898
_cell_length_b 10.568363
_cell_length_c 10.977949
_cell_angle_alpha 90.000000
_cell_angle_beta 108.192095
_cell_angle_gamma 90.000000
_cell_volume 2426.256300
_symmetry_space_group_name_H-M "C 2/C"
_symmetry_group_IT_number 15
_symmetry_cell_setting 'monoclinic'
loop_
_space_group_symop_operation_xyz
x,y,z
-x,y,1/2-z
-x,-y,-z
x,-y,1/2+z
1/2+x,1/2+y,z
1/2-x,1/2+y,1/2-z
1/2-x,1/2-y,-z
1/2+x,1/2-y,1/2+z
loop_
_atom_site_type_symbol
_atom_site_label
_atom_site_fract_x
_atom_site_fract_y
_atom_site_fract_z
Si Si1 0.321882 0.525493 0.019469
Si Si2 0.878750 0.768006 0.392519
Si Si3 0.564838 0.194585 0.328975
Si Si4 0.317831 0.245936 0.976000
Si Si5 0.987676 0.850052 0.982489
Si Si6 0.865103 0.218796 0.250097
Si Si7 0.697702 0.132957 0.978772
O O1 0.348392 0.598768 0.154197
O O2 0.340888 0.605503 0.910632
O O3 0.346475 0.385204 0.024251
O O4 0.245199 0.519500 0.986294
O O5 0.899293 0.747764 0.267777
O O6 0.836051 0.652317 0.413755
O O7 0.945160 0.784004 0.507182
O O8 0.500000 0.116819 0.250000
O O9 0.626424 0.148113 0.446721
O O10 0.531364 0.295945 0.397420
O O11 0.315188 0.252038 0.828088
O O12 0.250000 0.250000 0.000000
O O13 0.932722 0.809772 0.854319
O O14 0.000000 0.000000 0.000000
O O15 0.855568 0.338043 0.155044
O O16 0.750000 0.250000 0.000000
#
# Coordination Sequence:
#
# PCOD9261637 Si02
#       7
#     8   8   8   8   8   8   8
#     4  10  22  35  54  77 105 148 183 221 273 334
#     4   9  17  33  52  74 107 141 180 210 269 331
#     4   9  20  33  51  75 109 144 170 217 268 344
#     4  11  24  33  53  83 106 142 178 233 282 323
#     4  10  19  31  47  81 114 145 176 215 283 336
#     4   9  20  36  50  78 111 140 184 219 269 332
#     4   8  18  34  53  70 100 144 185 220 254 326
#
# _framework density 23.080825999999998
#
# number of rings (size 3 to 8) (size 9 to 14) (size 15 to 20)
#    0.000    2.857    0.000    1.714   12.000    2.286 
#    2.571    0.000    0.000    0.000    3.714    3.000 
#    0.000    0.000    0.000    0.000    0.000    0.000 
#
# Total GULP energy -155925.685383 kJ/mol
# GULP energy per Si atom -5568.774478 kJ/mol
# Density = 2.302829 g / cm^3
# Si number density = 23.080826 Si / 1000 Ang^3
#
#
#
# Elastic Constant Matrix: (Units=GPa)
#
#
# Indices 1 2 3 4 5 6 
#
# 1 123.9759 4.2363 11.9400 0.0000 -14.6647 0.0000
# 2 4.2363 20.0117 0.3778 0.0000 2.9145 0.0000
# 3 11.9400 0.3778 91.6158 0.0000 -9.4091 0.0000
# 4 0.0000 0.0000 0.0000 9.7949 0.0000 2.6197
# 5 -14.6647 2.9145 -9.4091 0.0000 40.7332 0.0000
# 6 0.0000 0.0000 0.0000 2.6197 0.0000 27.4790
#
#
#
# Elastic Compliance Matrix: (Units=1/GPa)
#
#
# Indices 1 2 3 4 5 6 
#
# 1 0.008582 -0.002249 -0.000794 0.000000 0.003067 0.000000
# 2 -0.002249 0.051118 -0.000386 0.000000 -0.004556 0.000000
# 3 -0.000794 -0.000386 0.011261 0.000000 0.002343 0.000000
# 4 0.000000 0.000000 0.000000 0.104766 0.000000 -0.009988
# 5 0.003067 -0.004556 0.002343 0.000000 0.026521 0.000000
# 6 0.000000 0.000000 0.000000 -0.009988 0.000000 0.037344
#
#
# Mechanical properties :
#
#
# Convention : Reuss Voigt Hill
#
# Bulk Modulus (GPa) = 15.59969 29.85686 22.72828
# Shear Modulus (GPa) = 18.66952 30.20470 24.43711
#
# Velocity S-wave (km/s) = 2.84716 3.62145 3.25739
# Velocity P-wave (km/s) = 4.19307 5.51819 4.90062
#
# Compressibility (1/GPa) = 0.06410383
#
# Stress axis : x y z
#
# Youngs Moduli (GPa) = 116.52005 19.56273 88.80313
#
# Poissons Ratio (x) = 0.04399 0.07053
# Poissons Ratio (y) = 0.26200 0.03425
# Poissons Ratio (z) = 0.09254 0.00755
#
# Static dielectric constant tensor:
#      x y z
#    x 1.925990 0.000000 0.060680 
#    y 0.000000 1.923640 0.000000 
#    z 0.060680 0.000000 1.919710 
# 
# From -- ./inp_files/112431.got.cif
#   From: 2010.05.17/outbox.cif.g08.bks.cpg/sg15_57_cif.got.tgz:112431.got - 2010.06.03 18:47:42.
