data_PCOD9261982
_publ_section_title
;
Structure prediction by ZEFSAII (Michael W. Deem and Ramdas Pophale) SiO2 
 PCOD9261982
Probable space group: C 2/C
;
_chemical_formula_sum "Si O2"
_cell_formula_units_Z 64
_cell_length_a 23.805876
_cell_length_b 12.509158
_cell_length_c 13.141571
_cell_angle_alpha 90.000000
_cell_angle_beta 72.237281
_cell_angle_gamma 90.000000
_cell_volume 3726.886183
_symmetry_space_group_name_H-M "C 2/C"
_symmetry_group_IT_number 15
_symmetry_cell_setting 'monoclinic'
loop_
_space_group_symop_operation_xyz
x,y,z
-x,y,1/2-z
-x,-y,-z
x,-y,1/2+z
1/2+x,1/2+y,z
1/2-x,1/2+y,1/2-z
1/2-x,1/2-y,-z
1/2+x,1/2-y,1/2+z
loop_
_atom_site_type_symbol
_atom_site_label
_atom_site_fract_x
_atom_site_fract_y
_atom_site_fract_z
Si Si1 0.173002 0.779369 0.751181
Si Si2 0.686938 0.102166 0.915211
Si Si3 0.436231 0.181512 0.792310
Si Si4 0.719861 0.497381 0.285307
Si Si5 0.185476 0.629793 0.147214
Si Si6 0.802961 0.231593 0.664711
Si Si7 0.556900 0.948307 0.784893
Si Si8 0.602137 0.897872 0.968499
O O1 0.169625 0.697320 0.848166
O O2 0.118048 0.754562 0.710184
O O3 0.179317 0.901483 0.783091
O O4 0.236189 0.752697 0.664535
O O5 0.743352 0.043246 0.833474
O O6 0.637078 0.010261 0.951280
O O7 0.697296 0.146216 0.022428
O O8 0.500000 0.235791 0.750000
O O9 0.438914 0.076821 0.718818
O O10 0.426110 0.131975 0.909267
O O11 0.770678 0.538206 0.334480
O O12 0.686315 0.394196 0.346039
O O13 0.196638 0.728490 0.217403
O O14 0.118048 0.593786 0.202650
O O15 0.849738 0.306729 0.584206
O O16 0.500000 0.917936 0.750000
O O17 0.556674 0.905536 0.900017
#
# Coordination Sequence:
#
# PCOD9261982 Si02
#       8
#     8   8   8   8   8   8   8   8
#     4  10  20  36  53  78 110 142 176 222 270 317
#     4  11  19  32  55  78 110 142 167 220 279 315
#     4  11  23  34  52  79 111 142 178 222 264 323
#     4  10  20  36  54  78 109 138 182 219 265 324
#     4  10  19  34  50  78 110 137 174 222 266 320
#     4   9  20  35  55  80 107 141 177 223 265 322
#     4  10  19  32  51  76 107 142 173 210 261 323
#     4  11  20  36  54  82 112 141 175 221 271 320
#
# _framework density 17.172512999999999
#
# number of rings (size 3 to 8) (size 9 to 14) (size 15 to 20)
#    0.000    1.750    6.250    0.750    0.000    9.000 
#    0.000    0.000    0.000    3.750    0.000    0.000 
#    0.000    0.000    0.000    0.000    0.000    0.000 
#
# Total GULP energy -178504.232778 kJ/mol
# GULP energy per Si atom -5578.257274 kJ/mol
# Density = 1.713343 g / cm^3
# Si number density = 17.172513 Si / 1000 Ang^3
#
#
#
# Elastic Constant Matrix: (Units=GPa)
#
#
# Indices 1 2 3 4 5 6 
#
# 1 115.2382 35.3054 23.9781 0.0000 17.5698 0.0000
# 2 35.3054 103.3137 15.6100 0.0000 5.4788 0.0000
# 3 23.9781 15.6100 69.7493 0.0000 4.2659 0.0000
# 4 0.0000 0.0000 0.0000 7.8877 0.0000 -1.8572
# 5 17.5698 5.4788 4.2659 0.0000 12.7295 0.0000
# 6 0.0000 0.0000 0.0000 -1.8572 0.0000 16.2426
#
#
#
# Elastic Compliance Matrix: (Units=1/GPa)
#
#
# Indices 1 2 3 4 5 6 
#
# 1 0.012456 -0.003057 -0.002682 0.000000 -0.014978 0.000000
# 2 -0.003057 0.010936 -0.001395 0.000000 -0.000020 0.000000
# 3 -0.002682 -0.001395 0.015628 0.000000 -0.000935 0.000000
# 4 0.000000 0.000000 0.000000 0.130288 0.000000 0.014897
# 5 -0.014978 -0.000020 -0.000935 0.000000 0.099552 0.000000
# 6 0.000000 0.000000 0.000000 0.014897 0.000000 0.063270
#
#
# Mechanical properties :
#
#
# Convention : Reuss Voigt Hill
#
# Bulk Modulus (GPa) = 40.40111 48.67648 44.53879
# Shear Modulus (GPa) = 14.09845 21.59914 17.84880
#
# Velocity S-wave (km/s) = 2.86840 3.55036 3.22744
# Velocity P-wave (km/s) = 5.87775 6.72412 6.31513
#
# Compressibility (1/GPa) = 0.02475179
#
# Stress axis : x y z
#
# Youngs Moduli (GPa) = 80.28357 91.44270 63.98576
#
# Poissons Ratio (x) = 0.27955 0.17160
# Poissons Ratio (y) = 0.24543 0.08928
# Poissons Ratio (z) = 0.21531 0.12759
#
# Static dielectric constant tensor:
#      x y z
#    x 1.603340 0.000000 0.007830 
#    y 0.000000 1.583460 0.000000 
#    z 0.007830 0.000000 1.599110 
# 
# From -- ./inp_files/122435.got.cif
#   From: 2010.05.17/outbox.cif.g08.bks.cpg/sg15_62_cif.got.tgz:122435.got - 2010.06.03 18:47:42.
