data_PCOD9261598
_publ_section_title
;
Structure prediction by ZEFSAII (Michael W. Deem and Ramdas Pophale) SiO2 
 PCOD9261598
Probable space group: C 2/C
;
_chemical_formula_sum "Si O2"
_cell_formula_units_Z 40
_cell_length_a 21.127223
_cell_length_b 8.421627
_cell_length_c 22.474869
_cell_angle_alpha 90.000000
_cell_angle_beta 155.120510
_cell_angle_gamma 90.000000
_cell_volume 1682.362396
_symmetry_space_group_name_H-M "C 2/C"
_symmetry_group_IT_number 15
_symmetry_cell_setting 'monoclinic'
loop_
_space_group_symop_operation_xyz
x,y,z
-x,y,1/2-z
-x,-y,-z
x,-y,1/2+z
1/2+x,1/2+y,z
1/2-x,1/2+y,1/2-z
1/2-x,1/2-y,-z
1/2+x,1/2-y,1/2+z
loop_
_atom_site_type_symbol
_atom_site_label
_atom_site_fract_x
_atom_site_fract_y
_atom_site_fract_z
Si Si1 0.926103 0.158217 0.587284
Si Si2 0.355407 0.012783 0.091689
Si Si3 0.597959 0.759653 0.067701
Si Si4 0.219495 0.619600 0.172792
Si Si5 0.126847 0.897177 0.810529
O O1 0.780417 0.053365 0.479387
O O2 0.903113 0.326055 0.599269
O O3 0.933877 0.185309 0.523910
O O4 0.067433 0.070994 0.738234
O O5 0.500000 0.958217 0.250000
O O6 0.282244 0.902571 0.979321
O O7 0.702580 0.649967 0.197509
O O8 0.675576 0.933835 0.127628
O O9 0.437706 0.787722 0.962271
O O10 0.332147 0.681075 0.217243
O O11 0.000000 0.851625 0.750000
#
# Coordination Sequence:
#
# PCOD9261598 Si02
#       5
#     8   8   8   8   8
#     4  10  19  34  58  93 129 164 205 270 328 366
#     4  10  19  30  59  97 131 156 210 274 330 362
#     4  11  25  41  68  95 137 168 218 265 322 397
#     4  11  25  45  65  97 129 176 217 267 324 385
#     4  10  21  39  61  93 130 171 215 273 319 386
#
# _framework density 23.776091000000001
#
# number of rings (size 3 to 8) (size 9 to 14) (size 15 to 20)
#    0.000    1.600    2.000    4.200    2.800    3.200 
#    0.000    3.000    0.000    0.000    0.000    0.000 
#    0.000    0.000    0.000    0.000    0.000    0.000 
#
# Total GULP energy -111914.841165 kJ/mol
# GULP energy per Si atom -5595.742058 kJ/mol
# Density = 2.372198 g / cm^3
# Si number density = 23.776091 Si / 1000 Ang^3
#
#
#
# Elastic Constant Matrix: (Units=GPa)
#
#
# Indices 1 2 3 4 5 6 
#
# 1 135.8703 13.4423 31.4776 0.0002 -0.4988 0.0001
# 2 13.4423 42.2085 21.1981 0.0000 -13.3232 0.0000
# 3 31.4776 21.1981 146.6987 0.0003 -22.7911 0.0002
# 4 0.0002 0.0000 0.0003 5.3859 0.0001 19.8675
# 5 -0.4988 -13.3232 -22.7911 0.0001 35.5062 0.0001
# 6 0.0001 0.0000 0.0002 19.8675 0.0001 46.7351
#
#
#
# Elastic Compliance Matrix: (Units=1/GPa)
#
#
# Indices 1 2 3 4 5 6 
#
# 1 0.007963 -0.002272 -0.001661 0.000000 -0.001807 0.000000
# 2 -0.002272 0.028427 -0.002186 0.000000 0.009232 0.000000
# 3 -0.001661 -0.002186 0.008173 0.000000 0.004403 0.000000
# 4 0.000000 0.000000 0.000000 -0.326799 0.000001 0.138925
# 5 -0.001807 0.009232 0.004403 0.000001 0.034429 0.000000
# 6 0.000000 0.000000 0.000000 0.138925 0.000000 -0.037661
#
#
# Mechanical properties :
#
#
# Convention : Reuss Voigt Hill
#
# Bulk Modulus (GPa) = 30.93579 50.77929 40.85754
# Shear Modulus (GPa) = -19.05089 34.76941 7.85926
#
# Velocity S-wave (km/s) = -2.83373 3.82824 1.82008
# Velocity P-wave (km/s) = 1.52737 6.39877 4.65172
#
# Compressibility (1/GPa) = 0.03232502
#
# Stress axis : x y z
#
# Youngs Moduli (GPa) = 125.58179 35.17732 122.35468
#
# Poissons Ratio (x) = 0.07993 0.20323
# Poissons Ratio (y) = 0.28534 0.26746
# Poissons Ratio (z) = 0.20860 0.07690
#
# Static dielectric constant tensor:
#      x y z
#    x 1.899890 0.000000 0.037060 
#    y 0.000000 1.927560 0.000000 
#    z 0.037060 0.000000 1.856730 
# 
# From -- ./inp_files/210832.got.cif
#   From: 2010.05.17/outbox.cif.g08.bks.cpg/sg15_106_cif.got.tgz:210832.got - 2010.06.03 18:47:42.
