data_PCOD9261746
_publ_section_title
;
Structure prediction by ZEFSAII (Michael W. Deem and Ramdas Pophale) SiO2 
 PCOD9261746
Probable space group: C 2/C
;
_chemical_formula_sum "Si O2"
_cell_formula_units_Z 60
_cell_length_a 23.727069
_cell_length_b 16.685052
_cell_length_c 15.025096
_cell_angle_alpha 90.000000
_cell_angle_beta 30.671673
_cell_angle_gamma 90.000000
_cell_volume 3034.305781
_symmetry_space_group_name_H-M "C 2/C"
_symmetry_group_IT_number 15
_symmetry_cell_setting 'monoclinic'
loop_
_space_group_symop_operation_xyz
x,y,z
-x,y,1/2-z
-x,-y,-z
x,-y,1/2+z
1/2+x,1/2+y,z
1/2-x,1/2+y,1/2-z
1/2-x,1/2-y,-z
1/2+x,1/2-y,1/2+z
loop_
_atom_site_type_symbol
_atom_site_label
_atom_site_fract_x
_atom_site_fract_y
_atom_site_fract_z
Si Si1 0.432112 0.723122 0.253952
Si Si2 0.222568 0.349288 0.132667
Si Si3 0.061533 0.954726 0.045564
Si Si4 0.744447 0.292936 0.914021
Si Si5 0.000000 0.179433 0.750000
Si Si6 0.150465 0.003731 0.758620
Si Si7 0.850941 0.826598 0.138376
Si Si8 0.241341 0.980880 0.945527
O O1 0.500000 0.750631 0.250000
O O2 0.332909 0.664811 0.421605
O O3 0.371233 0.793606 0.282410
O O4 0.525777 0.682985 0.066559
O O5 0.265137 0.325997 0.172685
O O6 0.189377 0.442709 0.180291
O O7 0.991810 0.878805 0.175219
O O8 0.966672 0.008293 0.132059
O O9 0.147850 0.943056 0.846619
O O10 0.128327 0.988615 0.039081
O O11 0.821406 0.248067 0.740624
O O12 0.769328 0.387937 0.888273
O O13 0.750000 0.250000 0.000000
O O14 0.614158 0.279715 0.071312
O O15 0.159934 0.090523 0.792917
O O16 0.231743 0.005418 0.564558
#
# Coordination Sequence:
#
# PCOD9261746 Si02
#       8
#     8   8   8   8   4   8   8   8
#     4   9  22  42  63  88 122 164 204 254 309 368
#     4  10  22  42  63  92 123 158 206 262 309 363
#     4  10  19  31  51  88 119 149 190 252 317 352
#     4  11  22  39  59  88 125 163 199 246 308 362
#     4  10  20  38  56  86 126 150 202 252 304 370
#     4  11  20  31  57  89 121 156 195 252 319 365
#     4  11  22  38  62  88 124 164 206 246 308 377
#     4  11  21  38  59  87 127 154 204 260 304 369
#
# _framework density 19.773879999999998
#
# number of rings (size 3 to 8) (size 9 to 14) (size 15 to 20)
#    0.000    1.600    5.333    0.000    3.733    4.267 
#    9.600    0.667    1.467    0.000    0.000    0.000 
#    0.000    0.000    0.000    0.000    0.000    0.000 
#
# Total GULP energy -167031.554713 kJ/mol
# GULP energy per Si atom -5567.718490 kJ/mol
# Density = 1.972887 g / cm^3
# Si number density = 19.773880 Si / 1000 Ang^3
#
#
#
# Elastic Constant Matrix: (Units=GPa)
#
#
# Indices 1 2 3 4 5 6 
#
# 1 95.4877 41.3369 31.2677 0.0000 11.9394 0.0000
# 2 41.3369 104.5165 13.0539 0.0000 3.4507 0.0000
# 3 31.2677 13.0539 45.3685 0.0000 17.6868 0.0000
# 4 0.0000 0.0000 0.0000 19.3359 0.0000 4.5316
# 5 11.9394 3.4507 17.6868 0.0000 34.6732 0.0000
# 6 0.0000 0.0000 0.0000 4.5316 0.0000 25.4015
#
#
#
# Elastic Compliance Matrix: (Units=1/GPa)
#
#
# Indices 1 2 3 4 5 6 
#
# 1 0.015734 -0.005053 -0.009329 0.000000 -0.000156 0.000000
# 2 -0.005053 0.011557 -0.000091 0.000000 0.000636 0.000000
# 3 -0.009329 -0.000091 0.034004 0.000000 -0.014124 0.000000
# 4 0.000000 0.000000 0.000000 0.053974 0.000000 -0.009629
# 5 -0.000156 0.000636 -0.014124 0.000000 0.036036 0.000000
# 6 0.000000 0.000000 0.000000 -0.009629 0.000000 0.041086
#
#
# Mechanical properties :
#
#
# Convention : Reuss Voigt Hill
#
# Bulk Modulus (GPa) = 30.91292 46.29885 38.60589
# Shear Modulus (GPa) = 21.54073 26.52974 24.03524
#
# Velocity S-wave (km/s) = 3.30412 3.66684 3.49019
# Velocity P-wave (km/s) = 5.49758 6.43370 5.98398
#
# Compressibility (1/GPa) = 0.03234894
#
# Stress axis : x y z
#
# Youngs Moduli (GPa) = 63.55551 86.53090 29.40861
#
# Poissons Ratio (x) = 0.43721 0.27436
# Poissons Ratio (y) = 0.32112 0.00267
# Poissons Ratio (z) = 0.59292 0.00787
#
# Static dielectric constant tensor:
#      x y z
#    x 1.758070 0.000000 0.024560 
#    y 0.000000 1.849100 0.000000 
#    z 0.024560 0.000000 1.747430 
# 
# From -- ./inp_files/174072.got.cif
#   From: 2010.05.17/outbox.cif.g08.bks.cpg/sg15_88_cif.got.tgz:174072.got - 2010.06.03 18:47:42.
