data_PCOD9261234
_publ_section_title
;
Structure prediction by ZEFSAII (Michael W. Deem and Ramdas Pophale) SiO2 
 PCOD9261234
Probable space group: C 2/C
;
_chemical_formula_sum "Si O2"
_cell_formula_units_Z 44
_cell_length_a 18.045427
_cell_length_b 15.007964
_cell_length_c 8.710435
_cell_angle_alpha 90.000000
_cell_angle_beta 129.861406
_cell_angle_gamma 90.000000
_cell_volume 1810.764975
_symmetry_space_group_name_H-M "C 2/C"
_symmetry_group_IT_number 15
_symmetry_cell_setting 'monoclinic'
loop_
_space_group_symop_operation_xyz
x,y,z
-x,y,1/2-z
-x,-y,-z
x,-y,1/2+z
1/2+x,1/2+y,z
1/2-x,1/2+y,1/2-z
1/2-x,1/2-y,-z
1/2+x,1/2-y,1/2+z
loop_
_atom_site_type_symbol
_atom_site_label
_atom_site_fract_x
_atom_site_fract_y
_atom_site_fract_z
Si Si1 0.798022 0.943475 0.610431
Si Si2 0.000000 0.548968 0.250000
Si Si3 0.170425 0.877218 0.197940
Si Si4 0.035041 0.877318 0.445488
Si Si5 0.403139 0.123384 0.690745
Si Si6 0.859055 0.297122 0.447147
O O1 0.813800 0.915353 0.454150
O O2 0.696268 0.899175 0.528596
O O3 0.793986 0.048708 0.632894
O O4 0.886484 0.917692 0.837223
O O5 0.945270 0.476206 0.286829
O O6 0.083520 0.616477 0.414222
O O7 0.245287 0.797546 0.322665
O O8 0.059733 0.856180 0.081835
O O9 0.088138 0.792816 0.440634
O O10 0.000000 0.933834 0.250000
O O11 0.500000 0.165201 0.750000
O O12 0.372528 0.188771 0.783721
#
# Coordination Sequence:
#
# PCOD9261234 Si02
#       6
#     8   4   8   8   8   8
#     4  11  23  44  72  99 134 180 233 274 334 406
#     4  10  18  42  64 100 128 170 226 274 336 398
#     4  11  24  46  72  99 135 181 228 279 334 406
#     4  12  27  44  64 100 143 181 224 278 337 402
#     4   9  21  37  69  99 132 175 218 283 330 407
#     4  11  23  42  67 100 135 175 226 277 345 400
#
# _framework density 24.299122000000001
#
# number of rings (size 3 to 8) (size 9 to 14) (size 15 to 20)
#    0.545    0.727    2.727    2.727    0.000    6.545 
#    3.273    0.000    0.000    0.000    0.000    0.000 
#    0.000    0.000    0.000    0.000    0.000    0.000 
#
# Total GULP energy -122766.524411 kJ/mol
# GULP energy per Si atom -5580.296564 kJ/mol
# Density = 2.424382 g / cm^3
# Si number density = 24.299122 Si / 1000 Ang^3
#
#
#
# Elastic Constant Matrix: (Units=GPa)
#
#
# Indices 1 2 3 4 5 6 
#
# 1 138.1130 7.0489 59.5115 0.0000 45.8031 0.0000
# 2 7.0489 40.4563 6.6284 0.0000 -2.8234 0.0000
# 3 59.5115 6.6284 112.7211 0.0000 29.4371 0.0000
# 4 0.0000 0.0000 0.0000 46.6289 0.0000 8.6783
# 5 45.8031 -2.8234 29.4371 0.0000 51.8647 0.0000
# 6 0.0000 0.0000 0.0000 8.6783 0.0000 24.5816
#
#
#
# Elastic Compliance Matrix: (Units=1/GPa)
#
#
# Indices 1 2 3 4 5 6 
#
# 1 0.011787 -0.001985 -0.003944 0.000000 -0.008279 0.000000
# 2 -0.001985 0.025589 -0.001501 0.000000 0.003998 0.000000
# 3 -0.003944 -0.001501 0.011921 0.000000 -0.003364 0.000000
# 4 0.000000 0.000000 0.000000 0.022954 0.000000 -0.008104
# 5 -0.008279 0.003998 -0.003364 0.000000 0.028719 0.000000
# 6 0.000000 0.000000 0.000000 -0.008104 0.000000 0.043542
#
#
# Mechanical properties :
#
#
# Convention : Reuss Voigt Hill
#
# Bulk Modulus (GPa) = 29.03929 48.62977 38.83453
# Shear Modulus (GPa) = 29.26544 39.15517 34.21030
#
# Velocity S-wave (km/s) = 3.47419 4.01856 3.75625
# Velocity P-wave (km/s) = 5.29811 6.44889 5.90162
#
# Compressibility (1/GPa) = 0.03443611
#
# Stress axis : x y z
#
# Youngs Moduli (GPa) = 84.84105 39.07962 83.88827
#
# Poissons Ratio (x) = 0.07758 0.33087
# Poissons Ratio (y) = 0.16843 0.12589
# Poissons Ratio (z) = 0.33463 0.05865
#
# Static dielectric constant tensor:
#      x y z
#    x 1.984980 0.000000 -0.006630 
#    y 0.000000 1.966310 0.000000 
#    z -0.006630 0.000000 1.954070 
# 
# From -- ./inp_files/49290.got.cif
#   From: 2010.05.17/outbox.cif.g08.bks.cpg/sg15_25_cif.got.tgz:49290.got - 2010.06.03 18:47:42.
