data_PCOD9261747
_publ_section_title
;
Structure prediction by ZEFSAII (Michael W. Deem and Ramdas Pophale) SiO2 
 PCOD9261747
Probable space group: C 2/C
;
_chemical_formula_sum "Si O2"
_cell_formula_units_Z 60
_cell_length_a 28.406159
_cell_length_b 22.695291
_cell_length_c 5.723882
_cell_angle_alpha 90.000000
_cell_angle_beta 114.794688
_cell_angle_gamma 90.000000
_cell_volume 3349.939376
_symmetry_space_group_name_H-M "C 2/C"
_symmetry_group_IT_number 15
_symmetry_cell_setting 'monoclinic'
loop_
_space_group_symop_operation_xyz
x,y,z
-x,y,1/2-z
-x,-y,-z
x,-y,1/2+z
1/2+x,1/2+y,z
1/2-x,1/2+y,1/2-z
1/2-x,1/2-y,-z
1/2+x,1/2-y,1/2+z
loop_
_atom_site_type_symbol
_atom_site_label
_atom_site_fract_x
_atom_site_fract_y
_atom_site_fract_z
Si Si1 0.706355 0.765847 0.603219
Si Si2 0.626045 0.635285 0.986575
Si Si3 0.900716 0.014998 0.394158
Si Si4 0.780957 0.026594 0.703319
Si Si5 0.500000 0.755938 0.750000
Si Si6 0.099528 0.747053 0.688055
Si Si7 0.451095 0.330738 0.531716
Si Si8 0.726167 0.653266 0.941362
O O1 0.750000 0.750000 0.500000
O O2 0.651873 0.784623 0.376628
O O3 0.699744 0.704865 0.733451
O O4 0.727427 0.814672 0.826701
O O5 0.609178 0.585530 0.131247
O O6 0.618120 0.701866 0.051206
O O7 0.590403 0.628990 0.683138
O O8 0.685747 0.629871 0.049506
O O9 0.925814 0.002661 0.700418
O O10 0.843628 0.984131 0.309826
O O11 0.764749 0.095055 0.689408
O O12 0.762858 0.003466 0.409003
O O13 0.449299 0.786531 0.531163
O O14 0.521986 0.712051 0.600460
O O15 0.077194 0.785813 0.853905
O O16 0.500000 0.363011 0.750000
#
# Coordination Sequence:
#
# PCOD9261747 Si02
#       8
#     8   8   8   8   4   8   8   8
#     4  11  23  32  49  73 111 146 164 209 265 325
#     4  11  19  30  51  69  95 125 171 215 255 316
#     4  10  21  31  48  74  90 125 170 220 265 302
#     4  10  21  34  53  72  97 134 186 225 259 301
#     4   8  18  32  48  74  86 122 174 216 252 306
#     4  10  19  31  52  69  98 131 169 211 256 308
#     4   9  18  32  49  70  90 120 167 218 263 303
#     4  11  22  33  46  75 102 138 179 210 261 325
#
# _framework density 17.910772000000001
#
# number of rings (size 3 to 8) (size 9 to 14) (size 15 to 20)
#    0.000    1.867    5.333    0.000    7.467    0.000 
#    0.000    0.000    0.000    0.800    0.000    0.000 
#    0.000    0.000    0.000    1.200    0.000    1.200 
#
# Total GULP energy -167104.924964 kJ/mol
# GULP energy per Si atom -5570.164165 kJ/mol
# Density = 1.787001 g / cm^3
# Si number density = 17.910772 Si / 1000 Ang^3
#
#
#
# Elastic Constant Matrix: (Units=GPa)
#
#
# Indices 1 2 3 4 5 6 
#
# 1 37.2367 -0.9882 26.3347 0.0000 11.1738 0.0000
# 2 -0.9882 39.8971 19.5781 0.0000 8.5577 0.0000
# 3 26.3347 19.5781 100.1701 0.0000 12.4573 0.0000
# 4 0.0000 0.0000 0.0000 15.1473 0.0000 -2.1053
# 5 11.1738 8.5577 12.4573 0.0000 40.4432 0.0000
# 6 0.0000 0.0000 0.0000 -2.1053 0.0000 6.4085
#
#
#
# Elastic Compliance Matrix: (Units=1/GPa)
#
#
# Indices 1 2 3 4 5 6 
#
# 1 0.036821 0.007739 -0.010111 0.000000 -0.008696 0.000000
# 2 0.007739 0.030111 -0.007135 0.000000 -0.006312 0.000000
# 3 -0.010111 -0.007135 0.014038 0.000000 -0.000021 0.000000
# 4 0.000000 0.000000 0.000000 0.069177 0.000000 0.022726
# 5 -0.008696 -0.006312 -0.000021 0.000000 0.028471 0.000000
# 6 0.000000 0.000000 0.000000 0.022726 0.000000 0.163508
#
#
# Mechanical properties :
#
#
# Convention : Reuss Voigt Hill
#
# Bulk Modulus (GPa) = 16.14034 29.68367 22.91201
# Shear Modulus (GPa) = 13.09610 21.22509 17.16060
#
# Velocity S-wave (km/s) = 2.70698 3.44618 3.09870
# Velocity P-wave (km/s) = 4.33606 5.69596 5.06189
#
# Compressibility (1/GPa) = 0.06195655
#
# Stress axis : x y z
#
# Youngs Moduli (GPa) = 27.15830 33.21021 71.23328
#
# Poissons Ratio (x) = -0.25702 0.72027
# Poissons Ratio (y) = -0.21018 0.50824
# Poissons Ratio (z) = 0.27461 0.23695
#
# Static dielectric constant tensor:
#      x y z
#    x 1.674560 0.000000 -0.044650 
#    y 0.000000 1.610380 0.000000 
#    z -0.044650 0.000000 1.780750 
# 
# From -- ./inp_files/15854.got.cif
#   From: 2010.05.17/outbox.cif.g08.bks.cpg/sg15_8_cif.got.tgz:15854.got - 2010.06.03 18:47:42.
