data_PCOD9261716
_publ_section_title
;
Structure prediction by ZEFSAII (Michael W. Deem and Ramdas Pophale) SiO2 
 PCOD9261716
Probable space group: C 2/C
;
_chemical_formula_sum "Si O2"
_cell_formula_units_Z 64
_cell_length_a 17.721435
_cell_length_b 27.186421
_cell_length_c 8.599849
_cell_angle_alpha 90.000000
_cell_angle_beta 75.563950
_cell_angle_gamma 90.000000
_cell_volume 4012.438723
_symmetry_space_group_name_H-M "C 2/C"
_symmetry_group_IT_number 15
_symmetry_cell_setting 'monoclinic'
loop_
_space_group_symop_operation_xyz
x,y,z
-x,y,1/2-z
-x,-y,-z
x,-y,1/2+z
1/2+x,1/2+y,z
1/2-x,1/2+y,1/2-z
1/2-x,1/2-y,-z
1/2+x,1/2-y,1/2+z
loop_
_atom_site_type_symbol
_atom_site_label
_atom_site_fract_x
_atom_site_fract_y
_atom_site_fract_z
Si Si1 0.320537 0.698038 0.342747
Si Si2 0.585266 0.939775 0.504981
Si Si3 0.594483 0.046869 0.368795
Si Si4 0.824697 0.361686 0.551905
Si Si5 0.066435 0.283930 0.823686
Si Si6 0.800668 0.218083 0.706716
Si Si7 0.835029 0.656005 0.677062
Si Si8 0.549931 0.245909 0.874244
O O1 0.262778 0.652327 0.351075
O O2 0.265365 0.743311 0.316462
O O3 0.335501 0.701904 0.520803
O O4 0.398542 0.707497 0.205104
O O5 0.491736 0.936075 0.530532
O O6 0.597762 0.946456 0.682245
O O7 0.632659 0.892918 0.419513
O O8 0.607024 0.990301 0.407197
O O9 0.654731 0.082966 0.418935
O O10 0.886228 0.325616 0.607316
O O11 0.833092 0.351386 0.364516
O O12 0.134820 0.247655 0.728319
O O13 0.000000 0.307734 0.750000
O O14 0.012284 0.249288 0.958299
O O15 0.752441 0.175137 0.816204
O O16 0.894080 0.700470 0.611269
O O17 0.500000 0.230293 0.750000
#
# Coordination Sequence:
#
# PCOD9261716 Si02
#       8
#     8   8   8   8   8   8   8   8
#     4   8  15  29  47  64  86 121 160 191 223 263
#     4  10  21  34  49  69  92 121 152 194 230 270
#     4  10  21  34  48  68  95 118 153 193 231 268
#     4  10  19  32  48  66  94 125 155 193 230 275
#     4  11  21  29  43  67  98 126 156 194 230 265
#     4   8  15  31  44  63  91 121 154 192 226 269
#     4  10  19  31  51  67  88 125 163 188 230 272
#     4  11  17  29  47  68  89 125 166 191 216 271
#
# _framework density 15.950399000000001
#
# number of rings (size 3 to 8) (size 9 to 14) (size 15 to 20)
#    0.000    2.250    2.500    3.000    3.500    1.000 
#    2.250    1.875    0.000    0.000    0.000    0.000 
#    0.000    2.000    0.000    0.125    0.000    0.000 
#
# Total GULP energy -178240.316986 kJ/mol
# GULP energy per Si atom -5570.009906 kJ/mol
# Density = 1.591409 g / cm^3
# Si number density = 15.950399 Si / 1000 Ang^3
#
#
#
# Elastic Constant Matrix: (Units=GPa)
#
#
# Indices 1 2 3 4 5 6 
#
# 1 55.1293 32.0246 15.8442 0.0000 -9.4066 0.0000
# 2 32.0246 88.9976 25.1791 0.0000 -15.7693 0.0000
# 3 15.8442 25.1791 30.6310 0.0000 -14.5662 0.0000
# 4 0.0000 0.0000 0.0000 26.3540 0.0000 -6.0972
# 5 -9.4066 -15.7693 -14.5662 0.0000 20.4060 0.0000
# 6 0.0000 0.0000 0.0000 -6.0972 0.0000 25.7199
#
#
#
# Elastic Compliance Matrix: (Units=1/GPa)
#
#
# Indices 1 2 3 4 5 6 
#
# 1 0.024040 -0.006605 -0.006302 0.000000 0.001479 0.000000
# 2 -0.006605 0.016689 -0.008503 0.000000 0.003782 0.000000
# 3 -0.006302 -0.008503 0.058118 0.000000 0.032009 0.000000
# 4 0.000000 0.000000 0.000000 0.040147 0.000000 0.009517
# 5 0.001479 0.003782 0.032009 0.000000 0.075459 0.000000
# 6 0.000000 0.000000 0.000000 0.009517 0.000000 0.041137
#
#
# Mechanical properties :
#
#
# Convention : Reuss Voigt Hill
#
# Bulk Modulus (GPa) = 17.84904 35.65042 26.74973
# Shear Modulus (GPa) = 15.76863 21.27665 18.52264
#
# Velocity S-wave (km/s) = 3.14762 3.65626 3.41143
# Velocity P-wave (km/s) = 4.94213 6.34221 5.68543
#
# Compressibility (1/GPa) = 0.05602543
#
# Stress axis : x y z
#
# Youngs Moduli (GPa) = 41.59777 59.91952 17.20639
#
# Poissons Ratio (x) = 0.39580 0.10843
# Poissons Ratio (y) = 0.27477 0.14631
# Poissons Ratio (z) = 0.26214 0.50952
#
# Static dielectric constant tensor:
#      x y z
#    x 1.561320 0.000000 0.015130 
#    y 0.000000 1.526250 0.000000 
#    z 0.015130 0.000000 1.605680 
# 
# From -- ./inp_files/51287.got.cif
#   From: 2010.05.17/outbox.cif.g08.bks.cpg/sg15_26_cif.got.tgz:51287.got - 2010.06.03 18:47:42.
