data_PCOD9261985
_publ_section_title
;
Structure prediction by ZEFSAII (Michael W. Deem and Ramdas Pophale) SiO2 
 PCOD9261985
Probable space group: C 2/C
;
_chemical_formula_sum "Si O2"
_cell_formula_units_Z 56
_cell_length_a 7.297606
_cell_length_b 33.092526
_cell_length_c 11.884200
_cell_angle_alpha 90.000000
_cell_angle_beta 114.878219
_cell_angle_gamma 90.000000
_cell_volume 2603.665819
_symmetry_space_group_name_H-M "C 2/C"
_symmetry_group_IT_number 15
_symmetry_cell_setting 'monoclinic'
loop_
_space_group_symop_operation_xyz
x,y,z
-x,y,1/2-z
-x,-y,-z
x,-y,1/2+z
1/2+x,1/2+y,z
1/2-x,1/2+y,1/2-z
1/2-x,1/2-y,-z
1/2+x,1/2-y,1/2+z
loop_
_atom_site_type_symbol
_atom_site_label
_atom_site_fract_x
_atom_site_fract_y
_atom_site_fract_z
Si Si1 0.806787 0.056359 0.960169
Si Si2 0.501354 0.637517 0.444769
Si Si3 0.670652 0.765136 0.711166
Si Si4 0.297705 0.477500 0.844568
Si Si5 0.679830 0.142869 0.172019
Si Si6 0.069891 0.773432 0.520388
Si Si7 0.013661 0.560889 0.081777
O O1 0.906243 0.100063 0.962524
O O2 0.599605 0.057454 0.978108
O O3 0.972743 0.036550 0.087310
O O4 0.785623 0.025787 0.851517
O O5 0.317714 0.627740 0.311796
O O6 0.680121 0.646631 0.401708
O O7 0.436613 0.678018 0.492485
O O8 0.500000 0.746894 0.750000
O O9 0.611753 0.811913 0.677680
O O10 0.877256 0.765315 0.834966
O O11 0.636962 0.742956 0.585546
O O12 0.176591 0.459457 0.708923
O O13 0.191041 0.460099 0.931222
O O14 0.515019 0.108707 0.107942
O O15 0.250000 0.750000 0.500000
#
# Coordination Sequence:
#
# PCOD9261985 Si02
#       7
#     8   8   8   8   8   8   8
#     4  10  19  34  49  74 107 139 179 228 279 335
#     4   9  17  31  51  72 104 138 174 221 283 335
#     4   9  18  30  50  75 105 134 175 224 275 330
#     4  10  20  29  52  77 100 143 178 222 288 328
#     4   9  17  29  50  78 101 134 175 231 279 324
#     4   9  18  32  51  76 103 140 177 225 277 335
#     4  10  19  32  51  77 108 135 183 239 275 327
#
# _framework density 21.508137000000001
#
# number of rings (size 3 to 8) (size 9 to 14) (size 15 to 20)
#    0.000    2.571    1.429    0.857    2.000    1.714 
#    0.000    0.000    0.000   18.857    0.000    0.000 
#    0.000    0.000    0.000    0.000    0.000    0.000 
#
# Total GULP energy -156092.327565 kJ/mol
# GULP energy per Si atom -5574.725984 kJ/mol
# Density = 2.145918 g / cm^3
# Si number density = 21.508137 Si / 1000 Ang^3
#
#
#
# Elastic Constant Matrix: (Units=GPa)
#
#
# Indices 1 2 3 4 5 6 
#
# 1 73.6503 20.2374 -10.7156 0.0000 -7.9292 0.0000
# 2 20.2374 131.1001 38.8370 0.0000 -8.1191 0.0000
# 3 -10.7156 38.8370 64.3163 0.0000 6.6385 0.0000
# 4 0.0000 0.0000 0.0000 14.1666 0.0000 23.8598
# 5 -7.9292 -8.1191 6.6385 0.0000 15.4167 0.0000
# 6 0.0000 0.0000 0.0000 23.8598 0.0000 0.7566
#
#
#
# Elastic Compliance Matrix: (Units=1/GPa)
#
#
# Indices 1 2 3 4 5 6 
#
# 1 0.015588 -0.003366 0.004171 0.000000 0.004449 0.000000
# 2 -0.003366 0.010966 -0.007954 0.000000 0.007469 0.000000
# 3 0.004171 -0.007954 0.022245 0.000000 -0.011623 0.000000
# 4 0.000000 0.000000 0.000000 -0.001354 0.000000 0.042716
# 5 0.004449 0.007469 -0.011623 0.000000 0.076091 0.000000
# 6 0.000000 0.000000 0.000000 0.042716 0.000000 -0.025362
#
#
# Mechanical properties :
#
#
# Convention : Reuss Voigt Hill
#
# Bulk Modulus (GPa) = 28.98423 40.64269 34.81346
# Shear Modulus (GPa) = 40.33129 20.78182 30.55656
#
# Velocity S-wave (km/s) = 4.33501 3.11180 3.77330
# Velocity P-wave (km/s) = 6.20980 5.64345 5.93339
#
# Compressibility (1/GPa) = 0.03450152
#
# Stress axis : x y z
#
# Youngs Moduli (GPa) = 64.15018 91.19011 44.95321
#
# Poissons Ratio (x) = 0.30698 -0.18749
# Poissons Ratio (y) = 0.21595 0.35754
# Poissons Ratio (z) = -0.26755 0.72529
#
# Static dielectric constant tensor:
#      x y z
#    x 1.848440 0.000000 -0.019570 
#    y 0.000000 1.807660 0.000000 
#    z -0.019570 0.000000 1.805630 
# 
# From -- ./inp_files/138692.got.cif
#   From: 2010.05.17/outbox.cif.g08.bks.cpg/sg15_70_cif.got.tgz:138692.got - 2010.06.03 18:47:42.
