data_PCOD9261196
_publ_section_title
;
Structure prediction by ZEFSAII (Michael W. Deem and Ramdas Pophale) SiO2 
 PCOD9261196
Probable space group: C 2/C
;
_chemical_formula_sum "Si O2"
_cell_formula_units_Z 56
_cell_length_a 8.556162
_cell_length_b 14.560780
_cell_length_c 22.945766
_cell_angle_alpha 90.000000
_cell_angle_beta 68.760792
_cell_angle_gamma 90.000000
_cell_volume 2664.511388
_symmetry_space_group_name_H-M "C 2/C"
_symmetry_group_IT_number 15
_symmetry_cell_setting 'monoclinic'
loop_
_space_group_symop_operation_xyz
x,y,z
-x,y,1/2-z
-x,-y,-z
x,-y,1/2+z
1/2+x,1/2+y,z
1/2-x,1/2+y,1/2-z
1/2-x,1/2-y,-z
1/2+x,1/2-y,1/2+z
loop_
_atom_site_type_symbol
_atom_site_label
_atom_site_fract_x
_atom_site_fract_y
_atom_site_fract_z
Si Si1 0.617237 0.129345 0.909550
Si Si2 0.319098 0.557349 0.355730
Si Si3 0.351600 0.186634 0.029888
Si Si4 0.596778 0.567872 0.797790
Si Si5 0.053114 0.226281 0.603837
Si Si6 0.634202 0.190168 0.779016
Si Si7 0.880837 0.352971 0.717731
O O1 0.753471 0.199001 0.918754
O O2 0.569038 0.169528 0.852486
O O3 0.713969 0.034031 0.885904
O O4 0.463375 0.120364 0.974249
O O5 0.270921 0.633409 0.409427
O O6 0.514477 0.528546 0.327660
O O7 0.251611 0.588794 0.301751
O O8 0.476616 0.247288 0.052410
O O9 0.250000 0.250000 0.000000
O O10 0.500000 0.589498 0.750000
O O11 0.543054 0.639407 0.855032
O O12 0.785084 0.596072 0.757383
O O13 0.005629 0.310279 0.652539
O O14 0.500000 0.222487 0.750000
O O15 0.779707 0.267473 0.760111
O O16 0.000000 0.397799 0.750000
#
# Coordination Sequence:
#
# PCOD9261196 Si02
#       7
#     8   8   8   8   8   8   8
#     4  11  21  42  64  89 128 174 212 259 331 386
#     4  10  23  40  66  91 130 172 207 268 325 377
#     4  11  25  41  63  93 127 166 227 269 308 384
#     4  10  18  41  64  90 128 164 203 264 331 381
#     4   9  18  38  66  87 119 171 209 253 320 381
#     4  11  22  36  68 100 129 169 211 267 333 391
#     4  10  19  39  64  98 131 160 212 264 326 402
#
# _framework density 21.016988000000001
#
# number of rings (size 3 to 8) (size 9 to 14) (size 15 to 20)
#    0.000    1.714    4.286    1.714    6.000    1.143 
#    0.000    2.857    6.286    0.000    0.000    0.000 
#    0.000    0.000    0.000    0.000    0.000    0.000 
#
# Total GULP energy -156322.115698 kJ/mol
# GULP energy per Si atom -5582.932704 kJ/mol
# Density = 2.096915 g / cm^3
# Si number density = 21.016988 Si / 1000 Ang^3
#
#
#
# Elastic Constant Matrix: (Units=GPa)
#
#
# Indices 1 2 3 4 5 6 
#
# 1 64.5012 15.7222 34.5903 0.0000 16.0252 0.0000
# 2 15.7222 64.1183 28.9159 0.0000 3.2674 0.0000
# 3 34.5903 28.9159 120.1838 0.0000 11.2910 0.0000
# 4 0.0000 0.0000 0.0000 30.0176 0.0000 0.2768
# 5 16.0252 3.2674 11.2910 0.0000 37.1722 0.0000
# 6 0.0000 0.0000 0.0000 0.2768 0.0000 31.9364
#
#
#
# Elastic Compliance Matrix: (Units=1/GPa)
#
#
# Indices 1 2 3 4 5 6 
#
# 1 0.020359 -0.002567 -0.004569 0.000000 -0.007164 0.000000
# 2 -0.002567 0.017821 -0.003609 0.000000 0.000636 0.000000
# 3 -0.004569 -0.003609 0.010591 0.000000 -0.000930 0.000000
# 4 0.000000 0.000000 0.000000 0.033316 0.000000 -0.000289
# 5 -0.007164 0.000636 -0.000930 0.000000 0.030217 0.000000
# 6 0.000000 0.000000 0.000000 -0.000289 0.000000 0.031315
#
#
# Mechanical properties :
#
#
# Convention : Reuss Voigt Hill
#
# Bulk Modulus (GPa) = 36.65376 45.25111 40.95244
# Shear Modulus (GPa) = 28.70235 31.13023 29.91629
#
# Velocity S-wave (km/s) = 3.69951 3.85280 3.77694
# Velocity P-wave (km/s) = 5.97716 6.43192 6.20870
#
# Compressibility (1/GPa) = 0.02728233
#
# Stress axis : x y z
#
# Youngs Moduli (GPa) = 49.11765 56.11514 94.41757
#
# Poissons Ratio (x) = 0.14402 0.43141
# Poissons Ratio (y) = 0.12606 0.34072
# Poissons Ratio (z) = 0.22442 0.20250
#
# Static dielectric constant tensor:
#      x y z
#    x 1.757190 0.000000 -0.040340 
#    y 0.000000 1.792220 0.000000 
#    z -0.040340 0.000000 1.754080 
# 
# From -- ./inp_files/264199.got.cif
#   From: 2010.05.17/outbox.cif.g08.bks.cpg/sg15_133_cif.got.tgz:264199.got - 2010.06.03 18:47:42.
