data_PCOD9261676
_publ_section_title
;
Structure prediction by ZEFSAII (Michael W. Deem and Ramdas Pophale) SiO2 
 PCOD9261676
Probable space group: C 2/C
;
_chemical_formula_sum "Si O2"
_cell_formula_units_Z 48
_cell_length_a 16.336078
_cell_length_b 22.059218
_cell_length_c 12.807485
_cell_angle_alpha 90.000000
_cell_angle_beta 38.374733
_cell_angle_gamma 90.000000
_cell_volume 2865.200091
_symmetry_space_group_name_H-M "C 2/C"
_symmetry_group_IT_number 15
_symmetry_cell_setting 'monoclinic'
loop_
_space_group_symop_operation_xyz
x,y,z
-x,y,1/2-z
-x,-y,-z
x,-y,1/2+z
1/2+x,1/2+y,z
1/2-x,1/2+y,1/2-z
1/2-x,1/2-y,-z
1/2+x,1/2-y,1/2+z
loop_
_atom_site_type_symbol
_atom_site_label
_atom_site_fract_x
_atom_site_fract_y
_atom_site_fract_z
Si Si1 0.217738 0.389249 0.411395
Si Si2 0.000055 0.289501 0.874004
Si Si3 0.999987 0.935209 0.873269
Si Si4 0.499957 0.344901 0.055792
Si Si5 0.282148 0.889231 0.847028
Si Si6 0.727201 0.499994 0.772806
O O1 0.126258 0.331651 0.478739
O O2 0.369420 0.370356 0.242237
O O3 0.194739 0.405273 0.555249
O O4 0.192823 0.446051 0.360938
O O5 0.000000 0.273987 0.750000
O O6 0.000025 0.227315 0.936789
O O7 0.126454 0.331606 0.768509
O O8 0.000000 0.927513 0.750000
O O9 0.128163 0.972182 0.784739
O O10 0.999998 0.873078 0.939704
O O11 0.871791 0.972170 0.041096
O O12 0.630439 0.370374 0.981292
O O13 0.307110 0.946015 0.746664
#
# Coordination Sequence:
#
# PCOD9261676 Si02
#       6
#     8   8   8   8   8   8
#     4  10  19  31  49  72  97 124 155 194 236 278
#     4  10  20  32  48  71  98 126 155 192 237 280
#     4   9  17  30  49  73  97 120 154 199 237 273
#     4  10  19  31  51  73  93 123 157 195 236 274
#     4  10  19  31  49  72  97 124 155 194 236 278
#     4   9  18  29  48  72  94 124 156 192 236 278
#
# _framework density 16.752758
#
# number of rings (size 3 to 8) (size 9 to 14) (size 15 to 20)
#    0.000    2.333    0.000    4.500    0.000    3.333 
#    0.000    0.000    0.000   18.000    0.000    0.000 
#    0.000    0.000    0.000    0.000    0.000    0.000 
#
# Total GULP energy -133912.889257 kJ/mol
# GULP energy per Si atom -5579.703719 kJ/mol
# Density = 1.671463 g / cm^3
# Si number density = 16.752758 Si / 1000 Ang^3
#
#
#
# Elastic Constant Matrix: (Units=GPa)
#
#
# Indices 1 2 3 4 5 6 
#
# 1 50.0533 38.9540 26.5483 0.0019 18.2155 -0.0020
# 2 38.9540 127.1936 30.1208 0.0000 19.6014 -0.0004
# 3 26.5483 30.1208 38.5221 -0.0018 7.1977 0.0009
# 4 0.0019 0.0000 -0.0018 19.3129 -0.0029 1.2704
# 5 18.2155 19.6014 7.1977 -0.0029 31.3306 0.0024
# 6 -0.0020 -0.0004 0.0009 1.2704 0.0024 19.9327
#
#
#
# Elastic Compliance Matrix: (Units=1/GPa)
#
#
# Indices 1 2 3 4 5 6 
#
# 1 0.040966 -0.005069 -0.021327 -0.000009 -0.015747 0.000007
# 2 -0.005069 0.010923 -0.004515 0.000000 -0.002849 0.000000
# 3 -0.021327 -0.004515 0.043197 0.000007 0.005300 -0.000005
# 4 -0.000009 0.000000 0.000007 0.051997 0.000009 -0.003314
# 5 -0.015747 -0.002849 0.005300 0.000009 0.041638 -0.000007
# 6 0.000007 0.000000 -0.000005 -0.003314 -0.000007 0.050380
#
#
# Mechanical properties :
#
#
# Convention : Reuss Voigt Hill
#
# Bulk Modulus (GPa) = 30.06233 45.22391 37.64312
# Shear Modulus (GPa) = 16.02515 22.12498 19.07506
#
# Velocity S-wave (km/s) = 3.09620 3.63805 3.37801
# Velocity P-wave (km/s) = 5.54667 6.68586 6.14273
#
# Compressibility (1/GPa) = 0.03326422
#
# Stress axis : x y z
#
# Youngs Moduli (GPa) = 24.41041 91.55255 23.14985
#
# Poissons Ratio (x) = 0.46409 0.49372
# Poissons Ratio (y) = 0.12374 0.10452
# Poissons Ratio (z) = 0.52060 0.41333
#
# Static dielectric constant tensor:
#      x y z
#    x 1.551980 0.000000 -0.018870 
#    y 0.000000 1.570590 0.000000 
#    z -0.018870 0.000000 1.560740 
# 
# From -- ./inp_files/50026.got.cif
#   From: 2010.05.17/outbox.cif.g08.bks.cpg/sg15_26_cif.got.tgz:50026.got - 2010.06.03 18:47:42.
