data_PCOD9261871
_publ_section_title
;
Structure prediction by ZEFSAII (Michael W. Deem and Ramdas Pophale) SiO2 
 PCOD9261871
Probable space group: C 2/C
;
_chemical_formula_sum "Si O2"
_cell_formula_units_Z 56
_cell_length_a 19.117512
_cell_length_b 26.791075
_cell_length_c 15.098917
_cell_angle_alpha 90.000000
_cell_angle_beta 153.772249
_cell_angle_gamma 90.000000
_cell_volume 3417.676867
_symmetry_space_group_name_H-M "C 2/C"
_symmetry_group_IT_number 15
_symmetry_cell_setting 'monoclinic'
loop_
_space_group_symop_operation_xyz
x,y,z
-x,y,1/2-z
-x,-y,-z
x,-y,1/2+z
1/2+x,1/2+y,z
1/2-x,1/2+y,1/2-z
1/2-x,1/2-y,-z
1/2+x,1/2-y,1/2+z
loop_
_atom_site_type_symbol
_atom_site_label
_atom_site_fract_x
_atom_site_fract_y
_atom_site_fract_z
Si Si1 0.529613 0.553283 0.880393
Si Si2 0.182882 0.367351 0.435522
Si Si3 0.118682 0.096399 0.614451
Si Si4 0.313589 0.995926 0.805248
Si Si5 0.698973 0.689672 0.603897
Si Si6 0.340552 0.723042 0.185934
Si Si7 0.161157 0.047006 0.305608
O O1 0.500000 0.575669 0.750000
O O2 0.460672 0.588026 0.879957
O O3 0.420564 0.503721 0.757715
O O4 0.704170 0.532974 0.107713
O O5 0.234843 0.344631 0.400875
O O6 0.259810 0.330876 0.596768
O O7 0.246458 0.423155 0.515203
O O8 0.000000 0.366079 0.250000
O O9 0.244365 0.051819 0.741063
O O10 0.182409 0.151520 0.666425
O O11 0.979177 0.082920 0.387199
O O12 0.273730 0.966281 0.850766
O O13 0.500000 0.000000 0.000000
O O14 0.525283 0.711964 0.384324
O O15 0.810000 0.738533 0.731109
O O16 0.250000 0.750000 0.000000
#
# Coordination Sequence:
#
# PCOD9261871 Si02
#       7
#     8   8   8   8   8   8   8
#     4   9  19  34  54  74 102 137 178 211 264 317
#     4  11  21  29  46  74 103 138 180 207 251 309
#     4   9  19  35  50  70  97 141 171 209 264 309
#     4   9  19  34  51  75 108 130 174 230 254 296
#     4  11  21  34  50  68 106 138 175 214 256 315
#     4  10  19  32  46  68  99 138 171 215 258 296
#     4   9  19  31  47  71  99 140 171 202 256 313
#
# _framework density 16.385399
#
# number of rings (size 3 to 8) (size 9 to 14) (size 15 to 20)
#    0.000    2.286    1.429    5.143    6.000    0.000 
#    0.000    2.143    0.000    0.000    0.000    1.000 
#    0.000    0.000    0.000    0.000    0.000    0.000 
#
# Total GULP energy -155902.720574 kJ/mol
# GULP energy per Si atom -5567.954306 kJ/mol
# Density = 1.634810 g / cm^3
# Si number density = 16.385399 Si / 1000 Ang^3
#
#
#
# Elastic Constant Matrix: (Units=GPa)
#
#
# Indices 1 2 3 4 5 6 
#
# 1 56.1790 14.0508 34.7430 0.0000 5.9904 0.0000
# 2 14.0508 57.5447 10.9172 0.0000 1.6253 0.0000
# 3 34.7430 10.9172 84.9963 0.0000 27.3993 0.0000
# 4 0.0000 0.0000 0.0000 14.3962 0.0000 -4.9200
# 5 5.9904 1.6253 27.3993 0.0000 21.0147 0.0000
# 6 0.0000 0.0000 0.0000 -4.9200 0.0000 20.9478
#
#
#
# Elastic Compliance Matrix: (Units=1/GPa)
#
#
# Indices 1 2 3 4 5 6 
#
# 1 0.026062 -0.004097 -0.013514 0.000000 0.010508 0.000000
# 2 -0.004097 0.018550 -0.001073 0.000000 0.001132 0.000000
# 3 -0.013514 -0.001073 0.027874 0.000000 -0.032407 0.000000
# 4 0.000000 0.000000 0.000000 0.075525 0.000000 0.017738
# 5 0.010508 0.001132 -0.032407 0.000000 0.086756 0.000000
# 6 0.000000 0.000000 0.000000 0.017738 0.000000 0.051904
#
#
# Mechanical properties :
#
#
# Convention : Reuss Voigt Hill
#
# Bulk Modulus (GPa) = 28.47540 35.34912 31.91226
# Shear Modulus (GPa) = 14.89232 20.53899 17.71566
#
# Velocity S-wave (km/s) = 3.01803 3.54431 3.29171
# Velocity P-wave (km/s) = 5.43700 6.19435 5.82799
#
# Compressibility (1/GPa) = 0.03511803
#
# Stress axis : x y z
#
# Youngs Moduli (GPa) = 38.37012 53.90937 35.87607
#
# Poissons Ratio (x) = 0.22084 0.48483
# Poissons Ratio (y) = 0.15718 0.03850
# Poissons Ratio (z) = 0.51854 0.05785
#
# Static dielectric constant tensor:
#      x y z
#    x 1.592860 0.000000 0.000450 
#    y 0.000000 1.598360 0.000000 
#    z 0.000450 0.000000 1.572900 
# 
# From -- ./inp_files/217081.got.cif
#   From: 2010.05.17/outbox.cif.g08.bks.cpg/sg15_109_cif.got.tgz:217081.got - 2010.06.03 18:47:42.
