data_PCOD9261543
_publ_section_title
;
Structure prediction by ZEFSAII (Michael W. Deem and Ramdas Pophale) SiO2 
 PCOD9261543
Probable space group: C 2/C
;
_chemical_formula_sum "Si O2"
_cell_formula_units_Z 48
_cell_length_a 24.104599
_cell_length_b 16.003736
_cell_length_c 8.855952
_cell_angle_alpha 90.000000
_cell_angle_beta 114.356172
_cell_angle_gamma 90.000000
_cell_volume 3112.251124
_symmetry_space_group_name_H-M "C 2/C"
_symmetry_group_IT_number 15
_symmetry_cell_setting 'monoclinic'
loop_
_space_group_symop_operation_xyz
x,y,z
-x,y,1/2-z
-x,-y,-z
x,-y,1/2+z
1/2+x,1/2+y,z
1/2-x,1/2+y,1/2-z
1/2-x,1/2-y,-z
1/2+x,1/2-y,1/2+z
loop_
_atom_site_type_symbol
_atom_site_label
_atom_site_fract_x
_atom_site_fract_y
_atom_site_fract_z
Si Si1 0.927680 0.582056 0.660080
Si Si2 0.210640 0.879892 0.941376
Si Si3 0.790905 0.323801 0.478227
Si Si4 0.239500 0.020946 0.753450
Si Si5 0.863808 0.437381 0.771951
Si Si6 0.664920 0.793849 0.310271
O O1 0.902105 0.496601 0.704276
O O2 0.903123 0.585525 0.461808
O O3 0.895676 0.656696 0.716538
O O4 0.000000 0.584919 0.750000
O O5 0.201064 0.936620 0.077755
O O6 0.278868 0.842060 0.043565
O O7 0.167593 0.800727 0.871834
O O8 0.210916 0.940252 0.798522
O O9 0.750000 0.250000 0.500000
O O10 0.752271 0.406695 0.390562
O O11 0.839075 0.357145 0.654420
O O12 0.820377 0.296568 0.351687
O O13 0.304969 0.990842 0.761692
#
# Coordination Sequence:
#
# PCOD9261543 Si02
#       6
#     8   8   8   8   8   8
#     4  12  23  36  53  73 106 152 189 219 255 303
#     4  10  19  30  52  72 108 137 166 215 273 319
#     4  11  21  30  53  77 109 140 170 217 275 317
#     4  11  17  31  49  74 107 133 168 207 267 320
#     4  12  19  36  49  75 108 142 182 217 253 319
#     4  10  20  35  48  76 107 139 176 220 264 314
#
# _framework density 15.422921000000001
#
# number of rings (size 3 to 8) (size 9 to 14) (size 15 to 20)
#    0.000    1.000    8.333    1.500    4.667    0.000 
#    0.000    0.000    0.000    0.000    0.000    1.167 
#    0.000    0.000    0.000    0.000    0.000    0.000 
#
# Total GULP energy -133948.064242 kJ/mol
# GULP energy per Si atom -5581.169343 kJ/mol
# Density = 1.538782 g / cm^3
# Si number density = 15.422921 Si / 1000 Ang^3
#
#
#
# Elastic Constant Matrix: (Units=GPa)
#
#
# Indices 1 2 3 4 5 6 
#
# 1 73.4662 49.7582 46.9589 0.0000 2.7779 0.0000
# 2 49.7582 105.3716 62.8393 0.0000 -2.7056 0.0000
# 3 46.9589 62.8393 103.9966 0.0000 -6.2425 0.0000
# 4 0.0000 0.0000 0.0000 29.8181 0.0000 -7.4659
# 5 2.7779 -2.7056 -6.2425 0.0000 12.1881 0.0000
# 6 0.0000 0.0000 0.0000 -7.4659 0.0000 17.2074
#
#
#
# Elastic Compliance Matrix: (Units=1/GPa)
#
#
# Indices 1 2 3 4 5 6 
#
# 1 0.023183 -0.007192 -0.006743 0.000000 -0.010334 0.000000
# 2 -0.007192 0.017089 -0.006966 0.000000 0.001864 0.000000
# 3 -0.006743 -0.006966 0.017404 0.000000 0.008905 0.000000
# 4 0.000000 0.000000 0.000000 0.037624 0.000000 0.016324
# 5 -0.010334 0.001864 0.008905 0.000000 0.089377 0.000000
# 6 0.000000 0.000000 0.000000 0.016324 0.000000 0.065197
#
#
# Mechanical properties :
#
#
# Convention : Reuss Voigt Hill
#
# Bulk Modulus (GPa) = 62.99570 66.88303 64.93936
# Shear Modulus (GPa) = 16.83681 20.06125 18.44903
#
# Velocity S-wave (km/s) = 3.30763 3.61049 3.46238
# Velocity P-wave (km/s) = 7.45127 7.80007 7.62766
#
# Compressibility (1/GPa) = 0.01587410
#
# Stress axis : x y z
#
# Youngs Moduli (GPa) = 43.13426 58.51863 57.45655
#
# Poissons Ratio (x) = 0.42084 0.38744
# Poissons Ratio (y) = 0.31020 0.40027
# Poissons Ratio (z) = 0.29086 0.40767
#
# Static dielectric constant tensor:
#      x y z
#    x 1.486380 0.000000 -0.029850 
#    y 0.000000 1.520430 0.000000 
#    z -0.029850 0.000000 1.540220 
# 
# From -- ./inp_files/54985.got.cif
#   From: 2010.05.17/outbox.cif.g08.bks.cpg/sg15_28_cif.got.tgz:54985.got - 2010.06.03 18:47:42.
