data_PCOD9261639
_publ_section_title
;
Structure prediction by ZEFSAII (Michael W. Deem and Ramdas Pophale) SiO2 
 PCOD9261639
Probable space group: C 2/C
;
_chemical_formula_sum "Si O2"
_cell_formula_units_Z 52
_cell_length_a 5.048136
_cell_length_b 25.710187
_cell_length_c 18.497485
_cell_angle_alpha 90.000000
_cell_angle_beta 80.725866
_cell_angle_gamma 90.000000
_cell_volume 2369.379833
_symmetry_space_group_name_H-M "C 2/C"
_symmetry_group_IT_number 15
_symmetry_cell_setting 'monoclinic'
loop_
_space_group_symop_operation_xyz
x,y,z
-x,y,1/2-z
-x,-y,-z
x,-y,1/2+z
1/2+x,1/2+y,z
1/2-x,1/2+y,1/2-z
1/2-x,1/2-y,-z
1/2+x,1/2-y,1/2+z
loop_
_atom_site_type_symbol
_atom_site_label
_atom_site_fract_x
_atom_site_fract_y
_atom_site_fract_z
Si Si1 0.500000 0.252378 0.750000
Si Si2 0.974607 0.503861 0.834884
Si Si3 0.329154 0.850844 0.693183
Si Si4 0.564984 0.200474 0.444168
Si Si5 0.908420 0.733201 0.594558
Si Si6 0.543379 0.565467 0.128654
Si Si7 0.760881 0.463602 0.481661
O O1 0.736857 0.293513 0.721766
O O2 0.427063 0.222312 0.679322
O O3 0.751262 0.458531 0.855503
O O4 0.857881 0.547210 0.895858
O O5 0.000000 0.518790 0.750000
O O6 0.256889 0.479135 0.847895
O O7 0.500000 0.874293 0.750000
O O8 0.495026 0.843586 0.611927
O O9 0.081676 0.884765 0.676731
O O10 0.379481 0.247150 0.420601
O O11 0.493275 0.190963 0.530706
O O12 0.872829 0.220203 0.426969
O O13 0.668834 0.578836 0.044142
O O14 0.500000 0.500000 0.500000
O O15 0.000000 0.500000 0.500000
#
# Coordination Sequence:
#
# PCOD9261639 Si02
#       7
#     4   8   8   8   8   8   8
#     4  10  20  30  46  70  98 122 158 196 242 284
#     4  10  19  31  48  68  90 123 163 197 229 275
#     4  11  21  30  44  71 103 129 152 190 248 305
#     4   9  18  31  45  63  90 125 159 189 228 284
#     4   9  17  31  47  63  88 122 161 196 226 270
#     4  10  21  30  45  67 100 127 148 189 245 296
#     4   8  16  32  45  61  88 123 160 190 225 279
#
# _framework density 21.946670000000001
#
# number of rings (size 3 to 8) (size 9 to 14) (size 15 to 20)
#    0.000    2.462    1.538    0.923    4.308    0.000 
#    0.000    0.000    0.000    0.000    2.000    0.000 
#    0.000    0.000    9.846    0.000    0.000    0.000 
#
# Total GULP energy -144799.016121 kJ/mol
# GULP energy per Si atom -5569.192928 kJ/mol
# Density = 2.189672 g / cm^3
# Si number density = 21.946670 Si / 1000 Ang^3
#
#
#
# Elastic Constant Matrix: (Units=GPa)
#
#
# Indices 1 2 3 4 5 6 
#
# 1 95.2531 2.2636 -1.4829 0.0000 3.6900 0.0000
# 2 2.2636 10.9903 24.6739 0.0000 0.5327 0.0000
# 3 -1.4829 24.6739 224.8080 0.0000 -1.7589 0.0000
# 4 0.0000 0.0000 0.0000 23.0619 0.0000 2.5270
# 5 3.6900 0.5327 -1.7589 0.0000 32.4665 0.0000
# 6 0.0000 0.0000 0.0000 2.5270 0.0000 13.3487
#
#
#
# Elastic Compliance Matrix: (Units=1/GPa)
#
#
# Indices 1 2 3 4 5 6 
#
# 1 0.010620 -0.003012 0.000392 0.000000 -0.001136 0.000000
# 2 -0.003012 0.121832 -0.013410 0.000000 -0.002383 0.000000
# 3 0.000392 -0.013410 0.005927 0.000000 0.000497 0.000000
# 4 0.000000 0.000000 0.000000 0.044280 0.000000 -0.008383
# 5 -0.001136 -0.002383 0.000497 0.000000 0.030996 0.000000
# 6 0.000000 0.000000 0.000000 -0.008383 0.000000 0.076500
#
#
# Mechanical properties :
#
#
# Convention : Reuss Voigt Hill
#
# Bulk Modulus (GPa) = 9.40570 42.44006 25.92288
# Shear Modulus (GPa) = 13.97992 34.14855 24.06424
#
# Velocity S-wave (km/s) = 2.52661 3.94887 3.31492
# Velocity P-wave (km/s) = 3.57865 6.33808 5.14674
#
# Compressibility (1/GPa) = 0.10631856
#
# Stress axis : x y z
#
# Youngs Moduli (GPa) = 94.16165 8.20799 168.73197
#
# Poissons Ratio (x) = 0.02472 -0.06609
# Poissons Ratio (y) = 0.28358 2.26274
# Poissons Ratio (z) = -0.03688 0.11007
#
# Static dielectric constant tensor:
#      x y z
#    x 1.823770 0.000000 -0.000250 
#    y 0.000000 1.786460 0.000000 
#    z -0.000250 0.000000 1.992480 
# 
# From -- ./inp_files/186390.got.cif
#   From: 2010.05.17/outbox.cif.g08.bks.cpg/sg15_94_cif.got.tgz:186390.got - 2010.06.03 18:47:42.
