data_PCOD9261318
_publ_section_title
;
Structure prediction by ZEFSAII (Michael W. Deem and Ramdas Pophale) SiO2 
 PCOD9261318
Probable space group: C 2/C
;
_chemical_formula_sum "Si O2"
_cell_formula_units_Z 40
_cell_length_a 12.919292
_cell_length_b 30.274732
_cell_length_c 5.368844
_cell_angle_alpha 90.000000
_cell_angle_beta 86.872383
_cell_angle_gamma 90.000000
_cell_volume 2096.777934
_symmetry_space_group_name_H-M "C 2/C"
_symmetry_group_IT_number 15
_symmetry_cell_setting 'monoclinic'
loop_
_space_group_symop_operation_xyz
x,y,z
-x,y,1/2-z
-x,-y,-z
x,-y,1/2+z
1/2+x,1/2+y,z
1/2-x,1/2+y,1/2-z
1/2-x,1/2-y,-z
1/2+x,1/2-y,1/2+z
loop_
_atom_site_type_symbol
_atom_site_label
_atom_site_fract_x
_atom_site_fract_y
_atom_site_fract_z
Si Si1 0.178084 0.907252 0.692470
Si Si2 0.319844 0.984954 0.674173
Si Si3 0.112867 0.046967 0.698678
Si Si4 0.885000 0.757136 0.223596
Si Si5 0.314676 0.303194 0.733526
O O1 0.130112 0.920887 0.432728
O O2 0.187931 0.855335 0.724880
O O3 0.287008 0.934043 0.684670
O O4 0.117173 0.926715 0.938802
O O5 0.209308 0.012829 0.684528
O O6 0.373940 0.999166 0.415392
O O7 0.000000 0.025683 0.750000
O O8 0.799047 0.718894 0.242569
O O9 0.860742 0.789972 0.458260
O O10 0.000000 0.739638 0.250000
O O11 0.875296 0.781384 0.958524
#
# Coordination Sequence:
#
# PCOD9261318 Si02
#       5
#     8   8   8   8   8
#     4  10  19  29  42  61  86 115 152 189 219 261
#     4   8  16  27  38  54  82 117 150 178 217 261
#     4  10  19  28  39  59  90 124 153 183 222 269
#     4  10  21  37  53  70  97 127 155 198 253 293
#     4  10  21  35  52  74  96 123 163 202 237 288
#
# _framework density 19.076889000000001
#
# number of rings (size 3 to 8) (size 9 to 14) (size 15 to 20)
#    0.000    2.400    0.000    2.400    0.000   12.000 
#    0.000    0.000    0.000    0.000    0.000    0.000 
#    0.000   14.400    0.000    0.000    0.000   22.000 
#
# Total GULP energy -111578.128946 kJ/mol
# GULP energy per Si atom -5578.906447 kJ/mol
# Density = 1.903347 g / cm^3
# Si number density = 19.076889 Si / 1000 Ang^3
#
#
#
# Elastic Constant Matrix: (Units=GPa)
#
#
# Indices 1 2 3 4 5 6 
#
# 1 57.6027 5.1895 8.3867 0.0000 11.9269 0.0000
# 2 5.1895 68.7546 5.4261 0.0000 2.5139 0.0000
# 3 8.3867 5.4261 140.6690 0.0000 17.7759 0.0000
# 4 0.0000 0.0000 0.0000 22.5106 0.0000 5.6133
# 5 11.9269 2.5139 17.7759 0.0000 10.3772 0.0000
# 6 0.0000 0.0000 0.0000 5.6133 0.0000 1.3533
#
#
#
# Elastic Compliance Matrix: (Units=1/GPa)
#
#
# Indices 1 2 3 4 5 6 
#
# 1 0.023534 -0.000837 0.002580 0.000000 -0.031265 0.000000
# 2 -0.000837 0.014707 -0.000241 0.000000 -0.002188 0.000000
# 3 0.002580 -0.000241 0.009357 0.000000 -0.018936 0.000000
# 4 0.000000 0.000000 0.000000 -1.293432 0.000000 5.365115
# 5 -0.031265 -0.002188 -0.018936 0.000000 0.165266 0.000000
# 6 0.000000 0.000000 0.000000 5.365115 0.000000-21.515365
#
#
# Mechanical properties :
#
#
# Convention : Reuss Voigt Hill
#
# Bulk Modulus (GPa) = 19.76195 33.89234 26.82714
# Shear Modulus (GPa) = -0.22141 23.38313 11.58086
#
# Velocity S-wave (km/s) = -0.34105 3.50484 2.46654
# Velocity P-wave (km/s) = 3.19789 5.84665 4.71221
#
# Compressibility (1/GPa) = 0.05060230
#
# Stress axis : x y z
#
# Youngs Moduli (GPa) = 42.49247 67.99637 106.86962
#
# Poissons Ratio (x) = 0.05690 -0.27573
# Poissons Ratio (y) = 0.03556 0.02574
# Poissons Ratio (z) = -0.10963 0.01638
#
# Static dielectric constant tensor:
#      x y z
#    x 1.663620 0.000000 0.009570 
#    y 0.000000 1.624090 0.000000 
#    z 0.009570 0.000000 1.740070 
# 
# From -- ./inp_files/4929.got.cif
#   From: 2010.05.17/outbox.cif.g08.bks.cpg/sg15_3_cif.got.tgz:4929.got - 2010.06.03 18:47:42.
