data_PCOD9261087
_publ_section_title
;
Structure prediction by ZEFSAII (Michael W. Deem and Ramdas Pophale) SiO2 
 PCOD9261087
Probable space group: C 2/C
;
_chemical_formula_sum "Si O2"
_cell_formula_units_Z 52
_cell_length_a 15.981597
_cell_length_b 10.187479
_cell_length_c 24.458024
_cell_angle_alpha 90.000000
_cell_angle_beta 140.628548
_cell_angle_gamma 90.000000
_cell_volume 2526.004230
_symmetry_space_group_name_H-M "C 2/C"
_symmetry_group_IT_number 15
_symmetry_cell_setting 'monoclinic'
loop_
_space_group_symop_operation_xyz
x,y,z
-x,y,1/2-z
-x,-y,-z
x,-y,1/2+z
1/2+x,1/2+y,z
1/2-x,1/2+y,1/2-z
1/2-x,1/2-y,-z
1/2+x,1/2-y,1/2+z
loop_
_atom_site_type_symbol
_atom_site_label
_atom_site_fract_x
_atom_site_fract_y
_atom_site_fract_z
Si Si1 0.145612 0.052887 0.964483
Si Si2 0.365317 0.523374 0.352153
Si Si3 0.571722 0.018492 0.171917
Si Si4 0.500000 0.897845 0.250000
Si Si5 0.784470 0.837144 0.412322
Si Si6 0.144805 0.341470 0.005715
Si Si7 0.968711 0.306655 0.438831
O O1 0.168722 0.186096 0.010915
O O2 0.989276 0.028989 0.879877
O O3 0.230137 0.078267 0.953086
O O4 0.200638 0.931429 0.027380
O O5 0.227575 0.546435 0.251891
O O6 0.338353 0.419606 0.387376
O O7 0.411902 0.660704 0.401349
O O8 0.526106 0.988857 0.210525
O O9 0.549056 0.888362 0.124723
O O10 0.478606 0.124823 0.096155
O O11 0.630953 0.813277 0.325364
O O12 0.878372 0.713917 0.468797
O O13 0.105197 0.370822 0.047455
#
# Coordination Sequence:
#
# PCOD9261087 Si02
#       7
#     8   8   8   4   8   8   8
#     4  10  19  36  64  88 119 163 200 255 306 375
#     4  10  21  40  63  88 123 165 210 248 311 378
#     4  11  25  37  63  90 126 155 214 256 312 361
#     4  10  22  40  58  92 114 166 210 262 292 374
#     4  10  18  40  63  87 119 161 216 245 305 381
#     4  11  21  38  62  95 122 155 208 257 314 369
#     4  11  22  39  65  88 123 170 198 257 316 377
#
# _framework density 20.585871999999998
#
# number of rings (size 3 to 8) (size 9 to 14) (size 15 to 20)
#    0.000    1.538    4.615    1.385    2.154    0.615 
#    0.000    0.769    0.000    0.000    0.000    0.000 
#    0.000    0.000    0.000    0.000    0.000    0.000 
#
# Total GULP energy -145301.532119 kJ/mol
# GULP energy per Si atom -5588.520466 kJ/mol
# Density = 2.053902 g / cm^3
# Si number density = 20.585872 Si / 1000 Ang^3
#
#
#
# Elastic Constant Matrix: (Units=GPa)
#
#
# Indices 1 2 3 4 5 6 
#
# 1 139.9714 46.4542 54.1951 0.0000 11.7370 0.0000
# 2 46.4542 27.9220 14.5297 0.0000 5.2702 0.0000
# 3 54.1951 14.5297 92.8220 0.0000 26.0516 0.0000
# 4 0.0000 0.0000 0.0000 16.0497 0.0000 -1.1629
# 5 11.7370 5.2702 26.0516 0.0000 42.3941 0.0000
# 6 0.0000 0.0000 0.0000 -1.1629 0.0000 19.1674
#
#
#
# Elastic Compliance Matrix: (Units=1/GPa)
#
#
# Indices 1 2 3 4 5 6 
#
# 1 0.019482 -0.028978 -0.007656 0.000000 0.002914 0.000000
# 2 -0.028978 0.082154 0.005648 0.000000 -0.005661 0.000000
# 3 -0.007656 0.005648 0.016871 0.000000 -0.008950 0.000000
# 4 0.000000 0.000000 0.000000 0.062581 0.000000 0.003797
# 5 0.002914 -0.005661 -0.008950 0.000000 0.028985 0.000000
# 6 0.000000 0.000000 0.000000 0.003797 0.000000 0.052402
#
#
# Mechanical properties :
#
#
# Convention : Reuss Voigt Hill
#
# Bulk Modulus (GPa) = 17.68825 54.56371 36.12598
# Shear Modulus (GPa) = 14.56483 25.22466 19.89475
#
# Velocity S-wave (km/s) = 2.66280 3.50428 3.11211
# Velocity P-wave (km/s) = 4.25031 6.55258 5.52274
#
# Compressibility (1/GPa) = 0.05653471
#
# Stress axis : x y z
#
# Youngs Moduli (GPa) = 51.33043 12.17229 59.27186
#
# Poissons Ratio (x) = 0.35272 0.45381
# Poissons Ratio (y) = 1.48743 -0.33476
# Poissons Ratio (z) = 0.39300 -0.06875
#
# Static dielectric constant tensor:
#      x y z
#    x 1.752840 0.000000 0.026320 
#    y 0.000000 1.724000 0.000000 
#    z 0.026320 0.000000 1.729680 
# 
# From -- ./inp_files/273891.got.cif
#   From: 2010.05.17/outbox.cif.g08.bks.cpg/sg15_137_cif.got.tgz:273891.got - 2010.06.03 18:47:42.
