data_PCOD9261325
_publ_section_title
;
Structure prediction by ZEFSAII (Michael W. Deem and Ramdas Pophale) SiO2 
 PCOD9261325
Probable space group: C 2/C
;
_chemical_formula_sum "Si O2"
_cell_formula_units_Z 40
_cell_length_a 20.626432
_cell_length_b 22.840113
_cell_length_c 5.315026
_cell_angle_alpha 90.000000
_cell_angle_beta 78.499813
_cell_angle_gamma 90.000000
_cell_volume 2453.692691
_symmetry_space_group_name_H-M "C 2/C"
_symmetry_group_IT_number 15
_symmetry_cell_setting 'monoclinic'
loop_
_space_group_symop_operation_xyz
x,y,z
-x,y,1/2-z
-x,-y,-z
x,-y,1/2+z
1/2+x,1/2+y,z
1/2-x,1/2+y,1/2-z
1/2-x,1/2-y,-z
1/2+x,1/2-y,1/2+z
loop_
_atom_site_type_symbol
_atom_site_label
_atom_site_fract_x
_atom_site_fract_y
_atom_site_fract_z
Si Si1 0.077503 0.223346 0.143664
Si Si2 0.574379 0.976312 0.987428
Si Si3 0.127405 0.357367 0.101349
Si Si4 0.846492 0.202031 0.915755
Si Si5 0.297388 0.162742 0.456136
O O1 0.093719 0.293324 0.127028
O O2 0.116922 0.195480 0.347007
O O3 0.000000 0.215688 0.250000
O O4 0.104657 0.198110 0.859633
O O5 0.606162 0.987024 0.690495
O O6 0.577281 0.909375 0.072475
O O7 0.500000 0.000000 0.000000
O O8 0.162599 0.365309 0.343079
O O9 0.180856 0.359226 0.834566
O O10 0.819853 0.269038 0.938583
O O11 0.781261 0.162335 0.943082
#
# Coordination Sequence:
#
# PCOD9261325 Si02
#       5
#     8   8   8   8   8
#     4  10  19  28  43  65  92 118 149 189 222 284
#     4  10  21  34  45  61  86 123 151 199 239 270
#     4  10  19  31  46  65  81 117 164 194 231 261
#     4   9  17  30  43  64  86 113 144 189 244 255
#     4   9  17  30  48  62  82 108 153 203 222 276
#
# _framework density 16.301960000000001
#
# number of rings (size 3 to 8) (size 9 to 14) (size 15 to 20)
#    0.000    2.400    0.000    3.000    2.800    4.800 
#    7.200    0.000    0.000    0.000    0.000    0.000 
#    0.000    0.000    0.000    0.000    0.000  252.000 
#
# Total GULP energy -111399.991799 kJ/mol
# GULP energy per Si atom -5569.999590 kJ/mol
# Density = 1.626486 g / cm^3
# Si number density = 16.301960 Si / 1000 Ang^3
#
#
#
# Elastic Constant Matrix: (Units=GPa)
#
#
# Indices 1 2 3 4 5 6 
#
# 1 76.2115 12.8892 38.8538 0.0000 -12.6971 0.0000
# 2 12.8892 21.2528 8.0757 0.0000 0.9049 0.0000
# 3 38.8538 8.0757 136.7155 0.0000 3.3810 0.0000
# 4 0.0000 0.0000 0.0000 14.9309 0.0000 4.3058
# 5 -12.6971 0.9049 3.3810 0.0000 30.1829 0.0000
# 6 0.0000 0.0000 0.0000 4.3058 0.0000 18.8840
#
#
#
# Elastic Compliance Matrix: (Units=1/GPa)
#
#
# Indices 1 2 3 4 5 6 
#
# 1 0.018785 -0.009876 -0.004972 0.000000 0.008755 0.000000
# 2 -0.009876 0.053364 -0.000204 0.000000 -0.005732 0.000000
# 3 -0.004972 -0.000204 0.008815 0.000000 -0.003073 0.000000
# 4 0.000000 0.000000 0.000000 0.071689 0.000000 -0.016346
# 5 0.008755 -0.005732 -0.003073 0.000000 0.037331 0.000000
# 6 0.000000 0.000000 0.000000 -0.016346 0.000000 0.056682
#
#
# Mechanical properties :
#
#
# Convention : Reuss Voigt Hill
#
# Bulk Modulus (GPa) = 19.66149 39.31305 29.48727
# Shear Modulus (GPa) = 17.02287 24.42363 20.72325
#
# Velocity S-wave (km/s) = 3.23495 3.87486 3.56927
# Velocity P-wave (km/s) = 5.10296 6.64735 5.92568
#
# Compressibility (1/GPa) = 0.05086086
#
# Stress axis : x y z
#
# Youngs Moduli (GPa) = 53.23389 18.73939 113.43757
#
# Poissons Ratio (x) = 0.18507 0.56398
# Poissons Ratio (y) = 0.52575 0.02310
# Poissons Ratio (z) = 0.26467 0.00382
#
# Static dielectric constant tensor:
#      x y z
#    x 1.382970 0.000000 0.298580 
#    y 0.000000 1.546620 0.000000 
#    z 0.298580 0.000000 1.014870 
# 
# From -- ./inp_files/10129.got.cif
#   From: 2010.05.17/outbox.cif.g08.bks.cpg/sg15_6_cif.got.tgz:10129.got - 2010.06.03 18:47:42.
