data_PCOD9261449
_publ_section_title
;
Structure prediction by ZEFSAII (Michael W. Deem and Ramdas Pophale) SiO2 
 PCOD9261449
Probable space group: C 2/C
;
_chemical_formula_sum "Si O2"
_cell_formula_units_Z 48
_cell_length_a 5.056034
_cell_length_b 23.808132
_cell_length_c 23.323972
_cell_angle_alpha 90.000000
_cell_angle_beta 81.685948
_cell_angle_gamma 90.000000
_cell_volume 2778.109659
_symmetry_space_group_name_H-M "C 2/C"
_symmetry_group_IT_number 15
_symmetry_cell_setting 'monoclinic'
loop_
_space_group_symop_operation_xyz
x,y,z
-x,y,1/2-z
-x,-y,-z
x,-y,1/2+z
1/2+x,1/2+y,z
1/2-x,1/2+y,1/2-z
1/2-x,1/2-y,-z
1/2+x,1/2-y,1/2+z
loop_
_atom_site_type_symbol
_atom_site_label
_atom_site_fract_x
_atom_site_fract_y
_atom_site_fract_z
Si Si1 0.472676 0.292923 0.066359
Si Si2 0.462325 0.077275 0.815602
Si Si3 0.815298 0.497703 0.921924
Si Si4 0.991400 0.323999 0.498934
Si Si5 0.197163 0.935609 0.535785
Si Si6 0.535258 0.658608 0.683887
O O1 0.700841 0.331947 0.029239
O O2 0.531265 0.297298 0.131957
O O3 0.181623 0.311602 0.053135
O O4 0.497401 0.230342 0.039865
O O5 0.500000 0.055044 0.750000
O O6 0.384062 0.028051 0.860953
O O7 0.715995 0.115386 0.825297
O O8 0.219903 0.120405 0.820203
O O9 0.594531 0.448103 0.929132
O O10 0.092580 0.475805 0.938924
O O11 0.696806 0.544150 0.969573
O O12 0.832025 0.374620 0.533269
O O13 0.500000 0.681374 0.750000
#
# Coordination Sequence:
#
# PCOD9261449 Si02
#       6
#     8   8   8   8   8   8
#     4  10  19  32  50  72  99 129 159 199 248 293
#     4  10  20  33  50  73  99 128 161 200 246 295
#     4  10  19  30  47  69  95 127 157 196 240 282
#     4  10  20  32  49  72  99 130 162 199 244 294
#     4  10  19  30  46  70  97 125 159 195 238 285
#     4  10  19  31  50  74  98 125 159 201 248 295
#
# _framework density 17.277936
#
# number of rings (size 3 to 8) (size 9 to 14) (size 15 to 20)
#    0.000    2.000    0.000    5.000    0.000    2.667 
#    0.000    0.000    0.000    1.000    0.000    7.000 
#    0.000    0.000    0.000    0.000    0.000    0.000 
#
# Total GULP energy -133777.769404 kJ/mol
# GULP energy per Si atom -5574.073725 kJ/mol
# Density = 1.723861 g / cm^3
# Si number density = 17.277936 Si / 1000 Ang^3
#
#
#
# Elastic Constant Matrix: (Units=GPa)
#
#
# Indices 1 2 3 4 5 6 
#
# 1 108.1562 14.5860 30.3557 0.0000 0.4041 0.0000
# 2 14.5860 50.7536 41.7481 0.0000 5.5731 0.0000
# 3 30.3557 41.7481 125.1770 0.0000 9.1703 0.0000
# 4 0.0000 0.0000 0.0000 25.5237 0.0000 1.9921
# 5 0.4041 5.5731 9.1703 0.0000 21.4242 0.0000
# 6 0.0000 0.0000 0.0000 1.9921 0.0000 22.7632
#
#
#
# Elastic Compliance Matrix: (Units=1/GPa)
#
#
# Indices 1 2 3 4 5 6 
#
# 1 0.009997 -0.001282 -0.002072 0.000000 0.001032 0.000000
# 2 -0.001282 0.027543 -0.008622 0.000000 -0.003450 0.000000
# 3 -0.002072 -0.008622 0.011562 0.000000 -0.002667 0.000000
# 4 0.000000 0.000000 0.000000 0.039449 0.000000 -0.003452
# 5 0.001032 -0.003450 -0.002667 0.000000 0.048696 0.000000
# 6 0.000000 0.000000 0.000000 -0.003452 0.000000 0.044233
#
#
# Mechanical properties :
#
#
# Convention : Reuss Voigt Hill
#
# Bulk Modulus (GPa) = 39.76308 50.82961 45.29634
# Shear Modulus (GPa) = 23.38484 27.10201 25.24343
#
# Velocity S-wave (km/s) = 3.68292 3.96484 3.82648
# Velocity P-wave (km/s) = 6.41474 7.10230 6.76726
#
# Compressibility (1/GPa) = 0.02514896
#
# Stress axis : x y z
#
# Youngs Moduli (GPa) = 100.03496 36.30752 86.48840
#
# Poissons Ratio (x) = 0.04653 0.17923
# Poissons Ratio (y) = 0.12820 0.74572
# Poissons Ratio (z) = 0.20731 0.31305
#
# Static dielectric constant tensor:
#      x y z
#    x 1.592180 0.000000 -0.007690 
#    y 0.000000 1.580070 0.000000 
#    z -0.007690 0.000000 1.632570 
# 
# From -- ./inp_files/227716.got.cif
#   From: 2010.05.17/outbox.cif.g08.bks.cpg/sg15_114_cif.got.tgz:227716.got - 2010.06.03 18:47:42.
