data_PCOD9261826
_publ_section_title
;
Structure prediction by ZEFSAII (Michael W. Deem and Ramdas Pophale) SiO2 
 PCOD9261826
Probable space group: C 2/C
;
_chemical_formula_sum "Si O2"
_cell_formula_units_Z 52
_cell_length_a 9.963044
_cell_length_b 23.115340
_cell_length_c 11.651250
_cell_angle_alpha 90.000000
_cell_angle_beta 65.049681
_cell_angle_gamma 90.000000
_cell_volume 2432.853557
_symmetry_space_group_name_H-M "C 2/C"
_symmetry_group_IT_number 15
_symmetry_cell_setting 'monoclinic'
loop_
_space_group_symop_operation_xyz
x,y,z
-x,y,1/2-z
-x,-y,-z
x,-y,1/2+z
1/2+x,1/2+y,z
1/2-x,1/2+y,1/2-z
1/2-x,1/2-y,-z
1/2+x,1/2-y,1/2+z
loop_
_atom_site_type_symbol
_atom_site_label
_atom_site_fract_x
_atom_site_fract_y
_atom_site_fract_z
Si Si1 0.350816 0.382756 0.148084
Si Si2 0.621165 0.803713 0.624559
Si Si3 0.300630 0.601591 0.922664
Si Si4 0.148073 0.979256 0.513173
Si Si5 0.412681 0.740273 0.520414
Si Si6 0.340162 0.285214 0.738701
Si Si7 0.000000 0.896865 0.750000
O O1 0.524350 0.393451 0.113574
O O2 0.275836 0.382034 0.299097
O O3 0.358829 0.324417 0.071308
O O4 0.279191 0.435080 0.102521
O O5 0.500000 0.833077 0.750000
O O6 0.712326 0.852072 0.527186
O O7 0.534191 0.761057 0.571172
O O8 0.727834 0.771508 0.675425
O O9 0.267277 0.535192 0.969865
O O10 0.092598 0.938512 0.635471
O O11 0.000000 0.000000 0.500000
O O12 0.506125 0.743760 0.366513
O O13 0.264677 0.775989 0.610499
O O14 0.390896 0.352434 0.723681
#
# Coordination Sequence:
#
# PCOD9261826 Si02
#       7
#     8   8   8   8   8   8   4
#     4  10  19  31  55  87 113 150 200 251 305 352
#     4  10  21  35  59  90 124 158 201 256 312 368
#     4  10  19  31  56  86 114 147 194 260 305 347
#     4  10  19  36  56  83 118 152 208 254 300 356
#     4  11  21  37  59  89 128 163 202 258 303 378
#     4  11  23  36  59  88 127 164 203 248 317 370
#     4  12  22  40  60  90 126 162 200 256 314 374
#
# _framework density 21.374077
#
# number of rings (size 3 to 8) (size 9 to 14) (size 15 to 20)
#    0.000    1.538    3.077    4.154    6.462    0.615 
#    0.000    0.000    0.000   10.154    0.000    0.000 
#    0.000    0.000    0.000    0.000    0.000    0.000 
#
# Total GULP energy -144897.511232 kJ/mol
# GULP energy per Si atom -5572.981201 kJ/mol
# Density = 2.132543 g / cm^3
# Si number density = 21.374077 Si / 1000 Ang^3
#
#
#
# Elastic Constant Matrix: (Units=GPa)
#
#
# Indices 1 2 3 4 5 6 
#
# 1 57.6301 -2.5897 10.6849 0.0000 -12.1977 0.0000
# 2 -2.5897 97.2748 37.6139 0.0000 -1.2747 0.0000
# 3 10.6849 37.6139 180.5020 0.0000 -10.7975 0.0000
# 4 0.0000 0.0000 0.0000 18.9940 0.0000 9.1449
# 5 -12.1977 -1.2747 -10.7975 0.0000 24.0918 0.0000
# 6 0.0000 0.0000 0.0000 9.1449 0.0000 24.2220
#
#
#
# Elastic Compliance Matrix: (Units=1/GPa)
#
#
# Indices 1 2 3 4 5 6 
#
# 1 0.019574 0.000949 -0.000782 0.000000 0.009610 0.000000
# 2 0.000949 0.011232 -0.002397 0.000000 0.000001 0.000000
# 3 -0.000782 -0.002397 0.006221 0.000000 0.002266 0.000000
# 4 0.000000 0.000000 0.000000 0.064344 0.000000 -0.024293
# 5 0.009610 0.000001 0.002266 0.000000 0.047389 0.000000
# 6 0.000000 0.000000 0.000000 -0.024293 0.000000 0.050456
#
#
# Mechanical properties :
#
#
# Convention : Reuss Voigt Hill
#
# Bulk Modulus (GPa) = 30.70409 47.42502 39.06455
# Shear Modulus (GPa) = 23.30660 32.77474 28.04067
#
# Velocity S-wave (km/s) = 3.30572 3.92010 3.62595
# Velocity P-wave (km/s) = 5.38207 6.53650 5.98717
#
# Compressibility (1/GPa) = 0.03256895
#
# Stress axis : x y z
#
# Youngs Moduli (GPa) = 51.08913 89.02968 160.73657
#
# Poissons Ratio (x) = -0.08451 0.12563
# Poissons Ratio (y) = -0.04850 0.38525
# Poissons Ratio (z) = 0.03993 0.21338
#
# Static dielectric constant tensor:
#      x y z
#    x 1.832340 0.000000 0.040310 
#    y 0.000000 1.777580 0.000000 
#    z 0.040310 0.000000 1.845320 
# 
# From -- ./inp_files/89487.got.cif
#   From: 2010.05.17/outbox.cif.g08.bks.cpg/sg15_45_cif.got.tgz:89487.got - 2010.06.03 18:47:42.
