data_PCOD9261148
_publ_section_title
;
Structure prediction by ZEFSAII (Michael W. Deem and Ramdas Pophale) SiO2 
 PCOD9261148
Probable space group: C 2/C
;
_chemical_formula_sum "Si O2"
_cell_formula_units_Z 56
_cell_length_a 9.045078
_cell_length_b 24.196731
_cell_length_c 15.421217
_cell_angle_alpha 90.000000
_cell_angle_beta 54.900261
_cell_angle_gamma 90.000000
_cell_volume 2761.352413
_symmetry_space_group_name_H-M "C 2/C"
_symmetry_group_IT_number 15
_symmetry_cell_setting 'monoclinic'
loop_
_space_group_symop_operation_xyz
x,y,z
-x,y,1/2-z
-x,-y,-z
x,-y,1/2+z
1/2+x,1/2+y,z
1/2-x,1/2+y,1/2-z
1/2-x,1/2-y,-z
1/2+x,1/2-y,1/2+z
loop_
_atom_site_type_symbol
_atom_site_label
_atom_site_fract_x
_atom_site_fract_y
_atom_site_fract_z
Si Si1 0.053794 0.906628 0.634204
Si Si2 0.281625 0.045335 0.925412
Si Si3 0.588911 0.293084 0.563126
Si Si4 0.000000 0.276455 0.250000
Si Si5 0.137100 0.476368 0.378704
Si Si6 0.364556 0.651720 0.621741
Si Si7 0.692015 0.059919 0.204421
Si Si8 0.500000 0.597749 0.750000
O O1 0.166591 0.955552 0.553059
O O2 0.159053 0.850027 0.583162
O O3 0.000000 0.914988 0.750000
O O4 0.863128 0.901268 0.649557
O O5 0.489851 0.060092 0.874072
O O6 0.184314 0.091962 0.902374
O O7 0.278444 0.987326 0.877679
O O8 0.750000 0.250000 0.500000
O O9 0.470349 0.263403 0.676372
O O10 0.528257 0.312160 0.487387
O O11 0.823958 0.315170 0.309735
O O12 0.181322 0.526910 0.298927
O O13 0.320592 0.440677 0.329449
O O14 0.000000 0.500000 0.500000
O O15 0.457026 0.636386 0.681296
O O16 0.500000 0.086998 0.250000
#
# Coordination Sequence:
#
# PCOD9261148 Si02
#       8
#     8   8   8   4   8   8   8   4
#     4  11  21  35  63  95 120 163 211 268 320 373
#     4  10  21  39  59  89 126 176 217 250 308 391
#     4   9  20  38  62  94 116 154 216 271 320 381
#     4  10  18  40  67  88 124 159 212 280 316 382
#     4  11  24  37  57  88 133 172 215 258 307 369
#     4  10  21  36  66  91 121 166 213 263 324 383
#     4  10  22  37  56  86 133 170 208 249 311 377
#     4  12  24  40  61  94 134 167 216 264 320 386
#
# _framework density 20.279917999999999
#
# number of rings (size 3 to 8) (size 9 to 14) (size 15 to 20)
#    0.000    1.714    2.143    2.143    4.000    4.571 
#    0.000    0.714    1.571    0.000    0.000    0.000 
#    0.000    0.000    0.000    0.000    0.000    0.000 
#
# Total GULP energy -155964.423888 kJ/mol
# GULP energy per Si atom -5570.157996 kJ/mol
# Density = 2.023376 g / cm^3
# Si number density = 20.279918 Si / 1000 Ang^3
#
#
#
# Elastic Constant Matrix: (Units=GPa)
#
#
# Indices 1 2 3 4 5 6 
#
# 1 120.9819 36.1652 42.6934 0.0000 3.6135 0.0000
# 2 36.1652 45.8988 39.8174 0.0000 9.2902 0.0000
# 3 42.6934 39.8174 136.4468 0.0000 14.4873 0.0000
# 4 0.0000 0.0000 0.0000 26.4517 0.0000 -1.6874
# 5 3.6135 9.2902 14.4873 0.0000 28.7889 0.0000
# 6 0.0000 0.0000 0.0000 -1.6874 0.0000 7.9253
#
#
#
# Elastic Compliance Matrix: (Units=1/GPa)
#
#
# Indices 1 2 3 4 5 6 
#
# 1 0.011051 -0.007915 -0.001344 0.000000 0.001843 0.000000
# 2 -0.007915 0.035663 -0.007199 0.000000 -0.006893 0.000000
# 3 -0.001344 -0.007199 0.010127 0.000000 -0.002604 0.000000
# 4 0.000000 0.000000 0.000000 0.038325 0.000000 0.008160
# 5 0.001843 -0.006893 -0.002604 0.000000 0.038039 0.000000
# 6 0.000000 0.000000 0.000000 0.008160 0.000000 0.127915
#
#
# Mechanical properties :
#
#
# Convention : Reuss Voigt Hill
#
# Bulk Modulus (GPa) = 41.79528 60.07551 50.93539
# Shear Modulus (GPa) = 16.55573 24.94328 20.74951
#
# Velocity S-wave (km/s) = 2.86030 3.51087 3.20215
# Velocity P-wave (km/s) = 5.61804 6.79135 6.23237
#
# Compressibility (1/GPa) = 0.02392615
#
# Stress axis : x y z
#
# Youngs Moduli (GPa) = 90.49132 28.03990 98.74981
#
# Poissons Ratio (x) = 0.22192 0.13270
# Poissons Ratio (y) = 0.71620 0.71089
# Poissons Ratio (z) = 0.12160 0.20186
#
# Static dielectric constant tensor:
#      x y z
#    x 1.786080 0.000000 0.041170 
#    y 0.000000 1.711890 0.000000 
#    z 0.041170 0.000000 1.849570 
# 
# From -- ./inp_files/138549.got.cif
#   From: 2010.05.17/outbox.cif.g08.bks.cpg/sg15_70_cif.got.tgz:138549.got - 2010.06.03 18:47:42.
