data_PCOD9261843
_publ_section_title
;
Structure prediction by ZEFSAII (Michael W. Deem and Ramdas Pophale) SiO2 
 PCOD9261843
Probable space group: C 2/C
;
_chemical_formula_sum "Si O2"
_cell_formula_units_Z 60
_cell_length_a 10.385841
_cell_length_b 24.711123
_cell_length_c 13.947556
_cell_angle_alpha 90.000000
_cell_angle_beta 128.684715
_cell_angle_gamma 90.000000
_cell_volume 2794.211287
_symmetry_space_group_name_H-M "C 2/C"
_symmetry_group_IT_number 15
_symmetry_cell_setting 'monoclinic'
loop_
_space_group_symop_operation_xyz
x,y,z
-x,y,1/2-z
-x,-y,-z
x,-y,1/2+z
1/2+x,1/2+y,z
1/2-x,1/2+y,1/2-z
1/2-x,1/2-y,-z
1/2+x,1/2-y,1/2+z
loop_
_atom_site_type_symbol
_atom_site_label
_atom_site_fract_x
_atom_site_fract_y
_atom_site_fract_z
Si Si1 0.956533 0.123954 0.936416
Si Si2 0.017796 0.701258 0.593392
Si Si3 0.652998 0.084082 0.682399
Si Si4 0.500000 0.002659 0.250000
Si Si5 0.112036 0.212567 0.729902
Si Si6 0.021718 0.824347 0.650985
Si Si7 0.316878 0.086745 0.035640
Si Si8 0.597856 0.175045 0.159443
O O1 0.827485 0.087685 0.818790
O O2 0.899541 0.183561 0.876103
O O3 0.938649 0.132152 0.041628
O O4 0.140521 0.110199 0.986800
O O5 0.055215 0.641604 0.656728
O O6 0.204706 0.713855 0.644467
O O7 0.974446 0.759642 0.620304
O O8 0.895195 0.687322 0.450843
O O9 0.563179 0.035213 0.693100
O O10 0.678352 0.076709 0.578744
O O11 0.363215 0.039060 0.131647
O O12 0.032143 0.269823 0.673450
O O13 0.000000 0.179325 0.750000
O O14 0.216620 0.830566 0.718000
O O15 0.000000 0.839907 0.750000
O O16 0.468709 0.128495 0.118532
#
# Coordination Sequence:
#
# PCOD9261843 Si02
#       8
#     8   8   8   4   8   8   8   8
#     4  11  22  42  65  97 132 171 213 266 334 393
#     4   9  20  38  56  89 124 179 214 256 318 382
#     4  10  24  45  67  95 133 173 222 273 329 392
#     4  12  26  44  70  96 124 174 228 278 336 380
#     4  10  19  31  57  91 129 164 205 252 316 398
#     4  11  24  37  57  93 137 175 221 261 311 395
#     4  11  24  43  70  98 128 169 219 279 327 386
#     4  10  21  37  58  90 131 169 208 265 320 382
#
# _framework density 21.472964999999999
#
# number of rings (size 3 to 8) (size 9 to 14) (size 15 to 20)
#    0.000    1.600    1.333    4.000    5.600    4.267 
#    0.000    1.333    0.000    0.000    0.000    0.000 
#    0.000    0.000    0.000    0.000    0.000    0.000 
#
# Total GULP energy -167041.179155 kJ/mol
# GULP energy per Si atom -5568.039305 kJ/mol
# Density = 2.142409 g / cm^3
# Si number density = 21.472965 Si / 1000 Ang^3
#
#
#
# Elastic Constant Matrix: (Units=GPa)
#
#
# Indices 1 2 3 4 5 6 
#
# 1 22.9918 10.8623 18.9967 0.0000 -14.2694 0.0000
# 2 10.8623 60.4016 38.8523 0.0000 5.1259 0.0000
# 3 18.9967 38.8523 113.7637 0.0000 -17.6147 0.0000
# 4 0.0000 0.0000 0.0000 22.1054 0.0000 -5.5814
# 5 -14.2694 5.1259 -17.6147 0.0000 36.8432 0.0000
# 6 0.0000 0.0000 0.0000 -5.5814 0.0000 26.1033
#
#
#
# Elastic Compliance Matrix: (Units=1/GPa)
#
#
# Indices 1 2 3 4 5 6 
#
# 1 0.068684 -0.012750 -0.002939 0.000000 0.026970 0.000000
# 2 -0.012750 0.025358 -0.008469 0.000000 -0.012515 0.000000
# 3 -0.002939 -0.008469 0.013153 0.000000 0.006329 0.000000
# 4 0.000000 0.000000 0.000000 0.047819 0.000000 0.010225
# 5 0.026970 -0.012515 0.006329 0.000000 0.042355 0.000000
# 6 0.000000 0.000000 0.000000 0.010225 0.000000 0.040496
#
#
# Mechanical properties :
#
#
# Convention : Reuss Voigt Hill
#
# Bulk Modulus (GPa) = 16.98385 37.17552 27.07968
# Shear Modulus (GPa) = 16.35012 25.57343 20.96178
#
# Velocity S-wave (km/s) = 2.76239 3.45477 3.12780
# Velocity P-wave (km/s) = 4.25453 5.76751 5.06780
#
# Compressibility (1/GPa) = 0.05887947
#
# Stress axis : x y z
#
# Youngs Moduli (GPa) = 14.55940 39.43453 76.02771
#
# Poissons Ratio (x) = 0.50280 0.22342
# Poissons Ratio (y) = 0.18564 0.64388
# Poissons Ratio (z) = 0.04279 0.33397
#
# Static dielectric constant tensor:
#      x y z
#    x 1.845030 0.000000 -0.006010 
#    y 0.000000 1.842010 0.000000 
#    z -0.006010 0.000000 1.876220 
# 
# From -- ./inp_files/148103.got.cif
#   From: 2010.05.17/outbox.cif.g08.bks.cpg/sg15_75_cif.got.tgz:148103.got - 2010.06.03 18:47:42.
