data_PCOD9261441
_publ_section_title
;
Structure prediction by ZEFSAII (Michael W. Deem and Ramdas Pophale) SiO2 
 PCOD9261441
Probable space group: C 2/C
;
_chemical_formula_sum "Si O2"
_cell_formula_units_Z 60
_cell_length_a 21.760132
_cell_length_b 14.454855
_cell_length_c 8.381654
_cell_angle_alpha 90.000000
_cell_angle_beta 82.755345
_cell_angle_gamma 90.000000
_cell_volume 2615.314883
_symmetry_space_group_name_H-M "C 2/C"
_symmetry_group_IT_number 15
_symmetry_cell_setting 'monoclinic'
loop_
_space_group_symop_operation_xyz
x,y,z
-x,y,1/2-z
-x,-y,-z
x,-y,1/2+z
1/2+x,1/2+y,z
1/2-x,1/2+y,1/2-z
1/2-x,1/2-y,-z
1/2+x,1/2-y,1/2+z
loop_
_atom_site_type_symbol
_atom_site_label
_atom_site_fract_x
_atom_site_fract_y
_atom_site_fract_z
Si Si1 0.285189 0.299903 0.128934
Si Si2 0.977485 0.688366 0.595150
Si Si3 0.094732 0.027822 0.668792
Si Si4 0.755750 0.039698 0.842207
Si Si5 0.104594 0.855993 0.851658
Si Si6 0.000000 0.326957 0.750000
Si Si7 0.253841 0.865044 0.831946
Si Si8 0.072902 0.815089 0.405858
O O1 0.253607 0.395655 0.187021
O O2 0.282542 0.233573 0.284186
O O3 0.356529 0.311629 0.062849
O O4 0.250000 0.250000 0.000000
O O5 0.915791 0.749045 0.637970
O O6 0.000000 0.640678 0.750000
O O7 0.983431 0.630565 0.428260
O O8 0.025629 0.773312 0.547586
O O9 0.169987 0.031603 0.654391
O O10 0.080750 0.085026 0.513470
O O11 0.065643 0.086329 0.824028
O O12 0.082211 0.920324 0.709991
O O13 0.728067 0.940814 0.807652
O O14 0.729477 0.092174 0.003221
O O15 0.179311 0.857030 0.839931
O O16 0.941703 0.259327 0.731354
#
# Coordination Sequence:
#
# PCOD9261441 Si02
#       8
#     8   8   8   8   8   4   8   8
#     4  11  22  34  56  81 111 151 186 232 278 339
#     4  10  20  32  48  69  95 142 177 228 262 323
#     4   9  17  29  46  63  98 137 173 223 259 309
#     4   9  19  35  50  78 109 144 187 226 280 321
#     4  10  19  30  45  69  97 137 181 219 267 315
#     4   8  18  36  50  62 104 134 170 236 258 316
#     4  10  20  34  56  76 109 149 184 230 281 332
#     4   9  19  36  46  68 103 137 180 224 272 310
#
# _framework density 22.941789
#
# number of rings (size 3 to 8) (size 9 to 14) (size 15 to 20)
#    0.800    1.600    1.333    1.200    3.733    2.667 
#    1.200    0.000    0.000    0.000    0.000    0.000 
#    0.000    9.600    0.000    0.000    0.000    0.000 
#
# Total GULP energy -167275.292729 kJ/mol
# GULP energy per Si atom -5575.843091 kJ/mol
# Density = 2.288957 g / cm^3
# Si number density = 22.941789 Si / 1000 Ang^3
#
#
#
# Elastic Constant Matrix: (Units=GPa)
#
#
# Indices 1 2 3 4 5 6 
#
# 1 31.6963 -0.7981 5.4596 0.0000 2.3973 0.0000
# 2 -0.7981 28.4404 -1.3156 0.0000 -3.7990 0.0000
# 3 5.4596 -1.3156 87.8624 0.0000 11.0511 0.0000
# 4 0.0000 0.0000 0.0000 18.8586 0.0000 9.9209
# 5 2.3973 -3.7990 11.0511 0.0000 29.1022 0.0000
# 6 0.0000 0.0000 0.0000 9.9209 0.0000 -5.4396
#
#
#
# Elastic Compliance Matrix: (Units=1/GPa)
#
#
# Indices 1 2 3 4 5 6 
#
# 1 0.032007 0.000564 -0.001741 0.000000 -0.001902 0.000000
# 2 0.000564 0.035795 -0.000085 0.000000 0.004659 0.000000
# 3 -0.001741 -0.000085 0.012047 0.000000 -0.004442 0.000000
# 4 0.000000 0.000000 0.000000 0.027062 0.000000 0.049356
# 5 -0.001902 0.004659 -0.004442 0.000000 0.036813 0.000000
# 6 0.000000 0.000000 0.000000 0.049356 0.000000 -0.093820
#
#
# Mechanical properties :
#
#
# Convention : Reuss Voigt Hill
#
# Bulk Modulus (GPa) = 12.93249 17.18788 15.06018
# Shear Modulus (GPa) = 63.93465 18.14779 41.04122
#
# Velocity S-wave (km/s) = 5.28476 2.81559 4.23416
# Velocity P-wave (km/s) = 6.54886 4.25185 5.52114
#
# Compressibility (1/GPa) = 0.07732465
#
# Stress axis : x y z
#
# Youngs Moduli (GPa) = 31.24282 27.93652 83.00754
#
# Poissons Ratio (x) = -0.01574 0.14453
# Poissons Ratio (y) = -0.01761 0.00705
# Poissons Ratio (z) = 0.05440 0.00237
#
# Static dielectric constant tensor:
#      x y z
#    x 1.847490 0.000000 0.029720 
#    y 0.000000 1.801540 0.000000 
#    z 0.029720 0.000000 2.014160 
# 
# From -- ./inp_files/65964.got.cif
#   From: 2010.05.17/outbox.cif.g08.bks.cpg/sg15_33_cif.got.tgz:65964.got - 2010.06.03 18:47:42.
