data_PCOD9261418
_publ_section_title
;
Structure prediction by ZEFSAII (Michael W. Deem and Ramdas Pophale) SiO2 
 PCOD9261418
Probable space group: C 2/C
;
_chemical_formula_sum "Si O2"
_cell_formula_units_Z 64
_cell_length_a 9.133226
_cell_length_b 23.868179
_cell_length_c 17.767983
_cell_angle_alpha 90.000000
_cell_angle_beta 74.673661
_cell_angle_gamma 90.000000
_cell_volume 3735.554180
_symmetry_space_group_name_H-M "C 2/C"
_symmetry_group_IT_number 15
_symmetry_cell_setting 'monoclinic'
loop_
_space_group_symop_operation_xyz
x,y,z
-x,y,1/2-z
-x,-y,-z
x,-y,1/2+z
1/2+x,1/2+y,z
1/2-x,1/2+y,1/2-z
1/2-x,1/2-y,-z
1/2+x,1/2-y,1/2+z
loop_
_atom_site_type_symbol
_atom_site_label
_atom_site_fract_x
_atom_site_fract_y
_atom_site_fract_z
Si Si1 0.861209 0.361077 0.328058
Si Si2 0.859739 0.488059 0.328995
Si Si3 0.666043 0.695464 0.345947
Si Si4 0.863025 0.222614 0.713873
Si Si5 0.559270 0.201237 0.078881
Si Si6 0.965539 0.587627 0.164035
Si Si7 0.415119 0.768264 0.445583
Si Si8 0.842586 0.927245 0.729661
O O1 0.828466 0.424920 0.356841
O O2 0.722563 0.331482 0.304301
O O3 0.896460 0.320882 0.393005
O O4 0.000000 0.360638 0.250000
O O5 0.716088 0.520333 0.312419
O O6 0.000000 0.483519 0.250000
O O7 0.934107 0.534361 0.373392
O O8 0.746904 0.734983 0.272103
O O9 0.775179 0.702652 0.404373
O O10 0.499732 0.718890 0.388092
O O11 0.659952 0.631343 0.317151
O O12 0.000000 0.206960 0.750000
O O13 0.946197 0.256265 0.636587
O O14 0.503512 0.139801 0.108582
O O15 0.531090 0.214013 0.996006
O O16 0.787857 0.577022 0.189430
O O17 0.000000 0.600250 0.250000
O O18 0.250000 0.750000 0.500000
O O19 0.000000 0.935182 0.750000
#
# Coordination Sequence:
#
# PCOD9261418 Si02
#       8
#     8   8   8   8   8   8   8   8
#     4  11  21  40  58  81 118 147 189 231 276 345
#     4   8  18  35  57  80 110 144 183 231 280 327
#     4  11  21  36  56  83 118 147 188 226 284 345
#     4  10  20  33  59  84 110 151 181 226 285 335
#     4  11  19  37  56  83 117 146 182 234 284 339
#     4   9  15  34  57  84 106 139 187 231 275 329
#     4  12  26  35  53  87 117 153 184 237 286 324
#     4  10  19  29  58  91 106 138 188 243 279 311
#
# _framework density 17.132667000000001
#
# number of rings (size 3 to 8) (size 9 to 14) (size 15 to 20)
#    0.000    2.000    6.250    0.750    3.500    0.500 
#    0.000    0.625    0.000    0.750    0.000    0.000 
#    0.000    0.000    0.000    0.000    0.000    0.000 
#
# Total GULP energy -178196.442606 kJ/mol
# GULP energy per Si atom -5568.638831 kJ/mol
# Density = 1.709367 g / cm^3
# Si number density = 17.132667 Si / 1000 Ang^3
#
#
#
# Elastic Constant Matrix: (Units=GPa)
#
#
# Indices 1 2 3 4 5 6 
#
# 1 119.6901 56.1778 26.4029 0.0000 -6.0967 0.0000
# 2 56.1778 148.6112 34.5812 0.0000 0.2595 0.0000
# 3 26.4029 34.5812 46.7806 0.0000 6.4833 0.0000
# 4 0.0000 0.0000 0.0000 7.5910 0.0000 -4.0722
# 5 -6.0967 0.2595 6.4833 0.0000 19.5024 0.0000
# 6 0.0000 0.0000 0.0000 -4.0722 0.0000 21.2231
#
#
#
# Elastic Compliance Matrix: (Units=1/GPa)
#
#
# Indices 1 2 3 4 5 6 
#
# 1 0.011107 -0.003123 -0.004662 0.000000 0.005064 0.000000
# 2 -0.003123 0.009078 -0.005028 0.000000 0.000575 0.000000
# 3 -0.004662 -0.005028 0.029266 0.000000 -0.011120 0.000000
# 4 0.000000 0.000000 0.000000 0.146851 0.000000 0.028177
# 5 0.005064 0.000575 -0.011120 0.000000 0.056548 0.000000
# 6 0.000000 0.000000 0.000000 0.028177 0.000000 0.052525
#
#
# Mechanical properties :
#
#
# Convention : Reuss Voigt Hill
#
# Bulk Modulus (GPa) = 41.97258 61.04506 51.50882
# Shear Modulus (GPa) = 14.75176 22.85795 18.80485
#
# Velocity S-wave (km/s) = 2.93752 3.65660 3.31660
# Velocity P-wave (km/s) = 6.00476 7.31681 6.69301
#
# Compressibility (1/GPa) = 0.02382508
#
# Stress axis : x y z
#
# Youngs Moduli (GPa) = 90.03415 110.15160 34.16965
#
# Poissons Ratio (x) = 0.34396 0.15931
# Poissons Ratio (y) = 0.28114 0.17181
# Poissons Ratio (z) = 0.41976 0.55386
#
# Static dielectric constant tensor:
#      x y z
#    x 1.613290 0.000000 0.013850 
#    y 0.000000 1.585260 0.000000 
#    z 0.013850 0.000000 1.617100 
# 
# From -- ./inp_files/192948.got.cif
#   From: 2010.05.17/outbox.cif.g08.bks.cpg/sg15_97_cif.got.tgz:192948.got - 2010.06.03 18:47:42.
