data_PCOD9261241
_publ_section_title
;
Structure prediction by ZEFSAII (Michael W. Deem and Ramdas Pophale) SiO2 
 PCOD9261241
Probable space group: C 2/C
;
_chemical_formula_sum "Si O2"
_cell_formula_units_Z 36
_cell_length_a 5.022016
_cell_length_b 21.846511
_cell_length_c 14.234308
_cell_angle_alpha 90.000000
_cell_angle_beta 88.588902
_cell_angle_gamma 90.000000
_cell_volume 1561.222544
_symmetry_space_group_name_H-M "C 2/C"
_symmetry_group_IT_number 15
_symmetry_cell_setting 'monoclinic'
loop_
_space_group_symop_operation_xyz
x,y,z
-x,y,1/2-z
-x,-y,-z
x,-y,1/2+z
1/2+x,1/2+y,z
1/2-x,1/2+y,1/2-z
1/2-x,1/2-y,-z
1/2+x,1/2-y,1/2+z
loop_
_atom_site_type_symbol
_atom_site_label
_atom_site_fract_x
_atom_site_fract_y
_atom_site_fract_z
Si Si1 0.746238 0.134046 0.818185
Si Si2 0.142151 0.734312 0.147421
Si Si3 0.356968 0.122256 0.085897
Si Si4 0.500000 0.355390 0.750000
Si Si5 0.132053 0.933770 0.005830
O O1 0.500000 0.138185 0.750000
O O2 0.747505 0.080123 0.893217
O O3 0.000000 0.126560 0.750000
O O4 0.769674 0.197578 0.877279
O O5 0.954346 0.692974 0.084516
O O6 0.000000 0.741648 0.250000
O O7 0.382039 0.689440 0.171888
O O8 0.226782 0.109563 0.190090
O O9 0.618822 0.081132 0.064591
O O10 0.122068 0.109429 0.014355
O O11 0.000000 0.000000 0.000000
#
# Coordination Sequence:
#
# PCOD9261241 Si02
#       5
#     8   8   8   4   8
#     4  11  24  45  71  99 139 188 228 283 361 429
#     4   9  19  37  69 103 142 173 225 283 355 426
#     4  11  23  42  71 102 138 183 222 298 355 403
#     4  10  18  42  66 110 140 174 222 284 360 432
#     4  12  27  47  67  99 145 182 248 296 328 401
#
# _framework density 23.058852000000002
#
# number of rings (size 3 to 8) (size 9 to 14) (size 15 to 20)
#    0.000    1.333    3.333    2.000    0.000    1.778 
#    2.000    3.333    0.000    0.000    0.000    0.000 
#    0.000    0.000    0.000    0.000    0.000    0.000 
#
# Total GULP energy -100529.518483 kJ/mol
# GULP energy per Si atom -5584.973249 kJ/mol
# Density = 2.300637 g / cm^3
# Si number density = 23.058852 Si / 1000 Ang^3
#
#
#
# Elastic Constant Matrix: (Units=GPa)
#
#
# Indices 1 2 3 4 5 6 
#
# 1 168.9014 44.4090 43.2465 0.0000 -2.1445 0.0000
# 2 44.4090 100.4904 57.2963 0.0000 -3.6244 0.0000
# 3 43.2465 57.2963 68.2236 0.0000 7.1215 0.0000
# 4 0.0000 0.0000 0.0000 12.6967 0.0000 -3.5726
# 5 -2.1445 -3.6244 7.1215 0.0000 50.6931 0.0000
# 6 0.0000 0.0000 0.0000 -3.5726 0.0000 16.6160
#
#
#
# Elastic Compliance Matrix: (Units=1/GPa)
#
#
# Indices 1 2 3 4 5 6 
#
# 1 0.007159 -0.000965 -0.003808 0.000000 0.000769 0.000000
# 2 -0.000965 0.019923 -0.016507 0.000000 0.003702 0.000000
# 3 -0.003808 -0.016507 0.031537 0.000000 -0.005772 0.000000
# 4 0.000000 0.000000 0.000000 0.083833 0.000000 0.018025
# 5 0.000769 0.003702 -0.005772 0.000000 0.020835 0.000000
# 6 0.000000 0.000000 0.000000 0.018025 0.000000 0.064059
#
#
# Mechanical properties :
#
#
# Convention : Reuss Voigt Hill
#
# Bulk Modulus (GPa) = 62.26791 69.72435 65.99613
# Shear Modulus (GPa) = 18.16489 28.84540 23.50514
#
# Velocity S-wave (km/s) = 2.80975 3.54071 3.19620
# Velocity P-wave (km/s) = 6.13097 6.85702 6.50413
#
# Compressibility (1/GPa) = 0.01605964
#
# Stress axis : x y z
#
# Youngs Moduli (GPa) = 139.68253 50.19433 31.70905
#
# Poissons Ratio (x) = 0.04843 0.12075
# Poissons Ratio (y) = 0.13476 0.52341
# Poissons Ratio (z) = 0.53192 0.82853
#
# Static dielectric constant tensor:
#      x y z
#    x 1.928560 0.000000 -0.018390 
#    y 0.000000 1.916250 0.000000 
#    z -0.018390 0.000000 1.887740 
# 
# From -- ./inp_files/184448.got.cif
#   From: 2010.05.17/outbox.cif.g08.bks.cpg/sg15_93_cif.got.tgz:184448.got - 2010.06.03 18:47:42.
