data_PCOD9261330
_publ_section_title
;
Structure prediction by ZEFSAII (Michael W. Deem and Ramdas Pophale) SiO2 
 PCOD9261330
Probable space group: C 2/C
;
_chemical_formula_sum "Si O2"
_cell_formula_units_Z 56
_cell_length_a 11.412604
_cell_length_b 8.831045
_cell_length_c 31.324848
_cell_angle_alpha 90.000000
_cell_angle_beta 37.440523
_cell_angle_gamma 90.000000
_cell_volume 1919.308487
_symmetry_space_group_name_H-M "C 2/C"
_symmetry_group_IT_number 15
_symmetry_cell_setting 'monoclinic'
loop_
_space_group_symop_operation_xyz
x,y,z
-x,y,1/2-z
-x,-y,-z
x,-y,1/2+z
1/2+x,1/2+y,z
1/2-x,1/2+y,1/2-z
1/2-x,1/2-y,-z
1/2+x,1/2-y,1/2+z
loop_
_atom_site_type_symbol
_atom_site_label
_atom_site_fract_x
_atom_site_fract_y
_atom_site_fract_z
Si Si1 0.314746 0.372572 0.645383
Si Si2 0.911588 0.852014 0.002669
Si Si3 0.518933 0.845847 0.900373
Si Si4 0.082644 0.084159 0.683388
Si Si5 0.798156 0.607505 0.541688
Si Si6 0.738704 0.808616 0.759163
Si Si7 0.142386 0.657490 0.650901
O O1 0.528952 0.378389 0.563490
O O2 0.229232 0.208298 0.659979
O O3 0.298176 0.400482 0.700002
O O4 0.178567 0.490740 0.659638
O O5 0.038293 0.711339 0.982991
O O6 0.700763 0.842246 0.083806
O O7 0.000000 0.000000 0.000000
O O8 0.362689 0.724315 0.929032
O O9 0.624094 0.905716 0.827647
O O10 0.689533 0.752789 0.874042
O O11 0.406600 0.948392 0.967334
O O12 0.195666 0.015233 0.609709
O O13 0.000000 0.003924 0.750000
O O14 0.910228 0.181516 0.713259
O O15 0.933357 0.726828 0.718243
#
# Coordination Sequence:
#
# PCOD9261330 Si02
#       7
#     8   8   8   8   8   8   8
#     4   9  18  33  51  74 106 141 177 224 276 325
#     4   8  15  29  50  76 101 130 174 220 269 332
#     4   9  17  28  44  69  98 134 182 217 257 329
#     4   8  15  28  46  69  97 133 172 213 270 324
#     4   8  14  27  45  67  96 133 173 217 262 313
#     4  10  19  28  44  74 105 138 177 221 272 323
#     4  10  19  31  50  78 105 135 182 227 270 331
#
# _framework density 29.177174000000001
#
# number of rings (size 3 to 8) (size 9 to 14) (size 15 to 20)
#    0.000    3.143    0.000    0.429    0.000    4.000 
#    0.000    1.429    0.000    0.000    0.000  129.000 
#    0.000    0.000    0.000    0.000    0.000    0.000 
#
# Total GULP energy -156904.952606 kJ/mol
# GULP energy per Si atom -5603.748307 kJ/mol
# Density = 2.911077 g / cm^3
# Si number density = 29.177174 Si / 1000 Ang^3
#
#
#
# Elastic Constant Matrix: (Units=GPa)
#
#
# Indices 1 2 3 4 5 6 
#
# 1 87.6268 36.6439 54.7543 0.0001 -20.0910 0.0000
# 2 36.6439 70.7718 58.3124 0.0002 6.8067 0.0002
# 3 54.7543 58.3124 378.6589 0.0001 13.5957 -0.0001
# 4 0.0001 0.0002 0.0001 27.9099 0.0000 -9.7764
# 5 -20.0910 6.8067 13.5957 0.0000 49.0550 0.0001
# 6 0.0000 0.0002 -0.0001 -9.7764 0.0001 57.5447
#
#
#
# Elastic Compliance Matrix: (Units=1/GPa)
#
#
# Indices 1 2 3 4 5 6 
#
# 1 0.018291 -0.009052 -0.001581 0.000000 0.009185 0.000000
# 2 -0.009052 0.020783 -0.001672 0.000000 -0.006128 0.000000
# 3 -0.001581 -0.001672 0.003173 0.000000 -0.001295 0.000000
# 4 0.000000 0.000000 0.000000 0.038097 0.000000 0.006472
# 5 0.009185 -0.006128 -0.001295 0.000000 0.025356 0.000000
# 6 0.000000 0.000000 0.000000 0.006472 0.000000 0.018477
#
#
# Mechanical properties :
#
#
# Convention : Reuss Voigt Hill
#
# Bulk Modulus (GPa) = 56.69044 92.94209 74.81627
# Shear Modulus (GPa) = 32.32764 52.72503 42.52634
#
# Velocity S-wave (km/s) = 3.33224 4.25557 3.82189
# Velocity P-wave (km/s) = 5.85466 7.48799 6.72112
#
# Compressibility (1/GPa) = 0.01763966
#
# Stress axis : x y z
#
# Youngs Moduli (GPa) = 54.67168 48.11539 315.11820
#
# Poissons Ratio (x) = 0.43552 0.49813
# Poissons Ratio (y) = 0.49487 0.52678
# Poissons Ratio (z) = 0.08642 0.08043
#
# Static dielectric constant tensor:
#      x y z
#    x 2.211620 0.000000 0.054570 
#    y 0.000000 2.200500 0.000000 
#    z 0.054570 0.000000 2.339580 
# 
# From -- ./inp_files/296244.got.cif
#   From: 2010.05.17/outbox.cif.g08.bks.cpg/sg15_149_cif.got.tgz:296244.got - 2010.06.03 18:47:42.
