data_PCOD9261828
_publ_section_title
;
Structure prediction by ZEFSAII (Michael W. Deem and Ramdas Pophale) SiO2 
 PCOD9261828
Probable space group: C 2/C
;
_chemical_formula_sum "Si O2"
_cell_formula_units_Z 36
_cell_length_a 7.132802
_cell_length_b 17.495332
_cell_length_c 17.275675
_cell_angle_alpha 90.000000
_cell_angle_beta 139.571741
_cell_angle_gamma 90.000000
_cell_volume 1398.055129
_symmetry_space_group_name_H-M "C 2/C"
_symmetry_group_IT_number 15
_symmetry_cell_setting 'monoclinic'
loop_
_space_group_symop_operation_xyz
x,y,z
-x,y,1/2-z
-x,-y,-z
x,-y,1/2+z
1/2+x,1/2+y,z
1/2-x,1/2+y,1/2-z
1/2-x,1/2-y,-z
1/2+x,1/2-y,1/2+z
loop_
_atom_site_type_symbol
_atom_site_label
_atom_site_fract_x
_atom_site_fract_y
_atom_site_fract_z
Si Si1 0.045893 0.727088 0.009927
Si Si2 0.453867 0.931538 0.423818
Si Si3 0.500000 0.644363 0.250000
Si Si4 0.202240 0.981246 0.701935
Si Si5 0.687978 0.380939 0.103620
O O1 0.234738 0.694166 0.139477
O O2 0.970673 0.810345 0.021417
O O3 0.250000 0.750000 0.000000
O O4 0.860677 0.652866 0.925506
O O5 0.264472 0.969985 0.298489
O O6 0.725568 0.909063 0.454650
O O7 0.500000 0.000000 0.500000
O O8 0.429216 0.594069 0.302772
O O9 0.500000 0.963113 0.750000
O O10 0.051579 0.045976 0.602399
O O11 0.000000 0.364234 0.250000
#
# Coordination Sequence:
#
# PCOD9261828 Si02
#       5
#     8   8   4   8   8
#     4  10  19  31  55  88 105 149 189 221 279 338
#     4   9  15  29  51  78 108 137 178 227 271 319
#     4  12  20  34  66  82 106 152 196 216 278 350
#     4   9  20  36  56  83 111 147 183 237 276 324
#     4   8  16  31  49  74 113 141 176 225 275 320
#
# _framework density 25.750059
#
# number of rings (size 3 to 8) (size 9 to 14) (size 15 to 20)
#    0.000    3.111    3.333    0.000    0.000    0.000 
#    0.000   10.000    2.444    2.667    0.000    0.000 
#    0.000    0.000    0.000    0.000    0.000    0.000 
#
# Total GULP energy -100275.535904 kJ/mol
# GULP energy per Si atom -5570.863106 kJ/mol
# Density = 2.569145 g / cm^3
# Si number density = 25.750059 Si / 1000 Ang^3
#
#
#
# Elastic Constant Matrix: (Units=GPa)
#
#
# Indices 1 2 3 4 5 6 
#
# 1 105.9675 50.1102 20.2246 0.0002 -23.9625 -0.0001
# 2 50.1102 164.7542 27.6863 -0.0001 -24.0170 0.0000
# 3 20.2246 27.6863 98.9442 0.0000 -41.4514 0.0000
# 4 0.0002 -0.0001 0.0000 -15.8732 0.0001 3.8708
# 5 -23.9625 -24.0170 -41.4514 0.0001 33.4888 -0.0001
# 6 -0.0001 0.0000 0.0000 3.8708 -0.0001 20.0897
#
#
#
# Elastic Compliance Matrix: (Units=1/GPa)
#
#
# Indices 1 2 3 4 5 6 
#
# 1 0.012535 -0.002765 0.002364 0.000000 0.009913 0.000000
# 2 -0.002765 0.007392 -0.000231 0.000000 0.003037 0.000000
# 3 0.002364 -0.000231 0.021451 0.000000 0.028077 0.000000
# 4 0.000000 0.000000 0.000000 -0.060172 0.000001 0.011594
# 5 0.009913 0.003037 0.028077 0.000001 0.073885 0.000000
# 6 0.000000 0.000000 0.000000 0.011594 0.000000 0.047543
#
#
# Mechanical properties :
#
#
# Convention : Reuss Voigt Hill
#
# Bulk Modulus (GPa) = 24.92862 62.85647 43.89254
# Shear Modulus (GPa) = 42.63780 25.65071 34.14425
#
# Velocity S-wave (km/s) = 4.07361 3.15960 3.64536
# Velocity P-wave (km/s) = 5.64161 6.14605 5.89922
#
# Compressibility (1/GPa) = 0.04011454
#
# Stress axis : x y z
#
# Youngs Moduli (GPa) = 79.77953 135.27960 46.61895
#
# Poissons Ratio (x) = 0.37401 -0.11022
# Poissons Ratio (y) = 0.22057 0.01076
# Poissons Ratio (z) = -0.18862 0.03123
#
# Static dielectric constant tensor:
#      x y z
#    x 2.442230 0.000000 0.421450 
#    y 0.000000 2.097120 0.000000 
#    z 0.421450 0.000000 2.456550 
# 
# From -- ./inp_files/188573.got.cif
#   From: 2010.05.17/outbox.cif.g08.bks.cpg/sg15_95_cif.got.tgz:188573.got - 2010.06.03 18:47:42.
