data_PCOD9261775
_publ_section_title
;
Structure prediction by ZEFSAII (Michael W. Deem and Ramdas Pophale) SiO2 
 PCOD9261775
Probable space group: C 2/C
;
_chemical_formula_sum "Si O2"
_cell_formula_units_Z 56
_cell_length_a 17.672050
_cell_length_b 9.688362
_cell_length_c 20.367298
_cell_angle_alpha 90.000000
_cell_angle_beta 125.462987
_cell_angle_gamma 90.000000
_cell_volume 2840.250994
_symmetry_space_group_name_H-M "C 2/C"
_symmetry_group_IT_number 15
_symmetry_cell_setting 'monoclinic'
loop_
_space_group_symop_operation_xyz
x,y,z
-x,y,1/2-z
-x,-y,-z
x,-y,1/2+z
1/2+x,1/2+y,z
1/2-x,1/2+y,1/2-z
1/2-x,1/2-y,-z
1/2+x,1/2-y,1/2+z
loop_
_atom_site_type_symbol
_atom_site_label
_atom_site_fract_x
_atom_site_fract_y
_atom_site_fract_z
Si Si1 0.419329 0.088432 0.326572
Si Si2 0.394796 0.373625 0.388650
Si Si3 0.113834 0.352015 0.963922
Si Si4 0.459152 0.383419 0.567328
Si Si5 0.196224 0.938375 0.475786
Si Si6 0.755246 0.581863 0.157853
Si Si7 0.111989 0.316610 0.114143
O O1 0.399797 0.237078 0.348889
O O2 0.530706 0.076454 0.383228
O O3 0.362556 0.082230 0.230539
O O4 0.379130 0.968021 0.352580
O O5 0.411506 0.346121 0.474033
O O6 0.476572 0.480991 0.410841
O O7 0.298585 0.455925 0.334409
O O8 0.209654 0.436700 0.018088
O O9 0.142459 0.208038 0.943279
O O10 0.081078 0.323330 0.021963
O O11 0.375096 0.436200 0.570478
O O12 0.532506 0.262167 0.616401
O O13 0.232009 0.934308 0.569402
O O14 0.703229 0.720505 0.156724
#
# Coordination Sequence:
#
# PCOD9261775 Si02
#       7
#     8   8   8   8   8   8   8
#     4  12  19  30  51  80 107 130 167 220 268 297
#     4   9  16  29  50  71  94 133 169 204 250 306
#     4  10  19  31  53  79 103 128 176 225 255 297
#     4   9  15  32  52  71  96 133 173 207 255 300
#     4   9  18  35  52  74 102 139 176 212 253 320
#     4   9  20  33  50  74 106 139 167 204 266 322
#     4  10  20  33  52  82 105 128 174 228 255 304
#
# _framework density 19.716567000000001
#
# number of rings (size 3 to 8) (size 9 to 14) (size 15 to 20)
#    0.000    2.286    2.857    3.000    0.000    0.571 
#    0.000    0.714    0.000    0.000    0.000    0.000 
#    0.000    0.000    0.000    0.000    0.000    0.000 
#
# Total GULP energy -156036.866992 kJ/mol
# GULP energy per Si atom -5572.745250 kJ/mol
# Density = 1.967169 g / cm^3
# Si number density = 19.716567 Si / 1000 Ang^3
#
#
#
# Elastic Constant Matrix: (Units=GPa)
#
#
# Indices 1 2 3 4 5 6 
#
# 1 62.9425 11.4184 2.4630 0.0000 16.1341 0.0000
# 2 11.4184 49.6229 0.5749 0.0000 -5.0552 0.0000
# 3 2.4630 0.5749 43.0741 0.0000 19.6199 0.0000
# 4 0.0000 0.0000 0.0000 7.5295 0.0000 -2.5282
# 5 16.1341 -5.0552 19.6199 0.0000 18.4575 0.0000
# 6 0.0000 0.0000 0.0000 -2.5282 0.0000 18.1316
#
#
#
# Elastic Compliance Matrix: (Units=1/GPa)
#
#
# Indices 1 2 3 4 5 6 
#
# 1 0.032518 -0.013782 0.025185 0.000000 -0.058970 0.000000
# 2 -0.013782 0.027279 -0.016413 0.000000 0.036965 0.000000
# 3 0.025185 -0.016413 0.066049 0.000000 -0.096719 0.000000
# 4 0.000000 0.000000 0.000000 0.139334 0.000000 0.019428
# 5 -0.058970 0.036965 -0.096719 0.000000 0.218659 0.000000
# 6 0.000000 0.000000 0.000000 0.019428 0.000000 0.057861
#
#
# Mechanical properties :
#
#
# Convention : Reuss Voigt Hill
#
# Bulk Modulus (GPa) = 8.63360 20.50579 14.56969
# Shear Modulus (GPa) = 8.46985 18.23595 13.35290
#
# Velocity S-wave (km/s) = 2.07488 3.04452 2.60521
# Velocity P-wave (km/s) = 3.18254 4.77302 4.05649
#
# Compressibility (1/GPa) = 0.11582650
#
# Stress axis : x y z
#
# Youngs Moduli (GPa) = 30.75215 36.65818 15.14019
#
# Poissons Ratio (x) = 0.50521 -0.38131
# Poissons Ratio (y) = 0.42382 0.24850
# Poissons Ratio (z) = -0.77449 0.60168
#
# Static dielectric constant tensor:
#      x y z
#    x 1.734550 0.000000 0.031710 
#    y 0.000000 1.712550 0.000000 
#    z 0.031710 0.000000 1.711870 
# 
# From -- ./inp_files/209538.got.cif
#   From: 2010.05.17/outbox.cif.g08.bks.cpg/sg15_105_cif.got.tgz:209538.got - 2010.06.03 18:47:42.
