data_PCOD9261206
_publ_section_title
;
Structure prediction by ZEFSAII (Michael W. Deem and Ramdas Pophale) SiO2 
 PCOD9261206
Probable space group: C 2/C
;
_chemical_formula_sum "Si O2"
_cell_formula_units_Z 48
_cell_length_a 6.564813
_cell_length_b 26.474080
_cell_length_c 12.942576
_cell_angle_alpha 90.000000
_cell_angle_beta 77.275718
_cell_angle_gamma 90.000000
_cell_volume 2194.143833
_symmetry_space_group_name_H-M "C 2/C"
_symmetry_group_IT_number 15
_symmetry_cell_setting 'monoclinic'
loop_
_space_group_symop_operation_xyz
x,y,z
-x,y,1/2-z
-x,-y,-z
x,-y,1/2+z
1/2+x,1/2+y,z
1/2-x,1/2+y,1/2-z
1/2-x,1/2-y,-z
1/2+x,1/2-y,1/2+z
loop_
_atom_site_type_symbol
_atom_site_label
_atom_site_fract_x
_atom_site_fract_y
_atom_site_fract_z
Si Si1 0.485593 0.388235 0.979311
Si Si2 0.092334 0.433419 0.599330
Si Si3 0.750140 0.821740 0.402799
Si Si4 0.000000 0.627853 0.750000
Si Si5 0.865321 0.546665 0.916650
Si Si6 0.865161 0.663199 0.106587
Si Si7 0.500000 0.760346 0.750000
O O1 0.579667 0.360790 0.070265
O O2 0.353916 0.440251 0.005209
O O3 0.693203 0.405991 0.898761
O O4 0.338778 0.347394 0.939211
O O5 0.101555 0.491317 0.631921
O O6 0.047291 0.441399 0.480127
O O7 0.918264 0.392464 0.646447
O O8 0.638275 0.840695 0.312082
O O9 0.561997 0.820682 0.509730
O O10 0.872865 0.772605 0.348376
O O11 0.136141 0.590069 0.667412
O O12 0.850073 0.703537 0.199092
#
# Coordination Sequence:
#
# PCOD9261206 Si02
#       7
#     8   8   8   4   8   8   4
#     4  10  18  41  66  89 130 165 206 263 327 375
#     4   9  19  38  60  90 130 165 204 257 316 379
#     4  11  24  44  63  96 128 162 223 280 320 385
#     4  12  20  41  62  94 130 165 210 276 316 372
#     4  10  19  33  63  94 126 167 205 257 314 380
#     4  10  23  45  64  92 132 167 214 275 322 384
#     4  12  26  43  70  88 124 179 220 270 346 390
#
# _framework density 21.876415000000001
#
# number of rings (size 3 to 8) (size 9 to 14) (size 15 to 20)
#    0.000    1.667    5.000    2.000    0.000    1.333 
#    6.000    0.000    3.667    0.000    0.000    0.000 
#    0.000    0.000    0.000    0.000    0.000    0.000 
#
# Total GULP energy -133743.581645 kJ/mol
# GULP energy per Si atom -5572.649235 kJ/mol
# Density = 2.182662 g / cm^3
# Si number density = 21.876415 Si / 1000 Ang^3
#
#
#
# Elastic Constant Matrix: (Units=GPa)
#
#
# Indices 1 2 3 4 5 6 
#
# 1 113.5288 35.0605 30.4443 0.0000 21.3270 0.0000
# 2 35.0605 133.0833 31.8292 0.0000 18.8756 0.0000
# 3 30.4443 31.8292 60.3990 0.0000 14.2530 0.0000
# 4 0.0000 0.0000 0.0000 171.4469 0.0000 27.2432
# 5 21.3270 18.8756 14.2530 0.0000 27.5525 0.0000
# 6 0.0000 0.0000 0.0000 27.2432 0.0000 17.4452
#
#
#
# Elastic Compliance Matrix: (Units=1/GPa)
#
#
# Indices 1 2 3 4 5 6 
#
# 1 0.011295 -0.001259 -0.003611 0.000000 -0.006012 0.000000
# 2 -0.001259 0.009152 -0.003347 0.000000 -0.003563 0.000000
# 3 -0.003611 -0.003347 0.021573 0.000000 -0.006072 0.000000
# 4 0.000000 0.000000 0.000000 0.007758 0.000000 -0.012115
# 5 -0.006012 -0.003563 -0.006072 0.000000 0.046530 0.000000
# 6 0.000000 0.000000 0.000000 -0.012115 0.000000 0.076241
#
#
# Mechanical properties :
#
#
# Convention : Reuss Voigt Hill
#
# Bulk Modulus (GPa) = 39.08466 55.74213 47.41340
# Shear Modulus (GPa) = 25.31481 57.26739 41.29110
#
# Velocity S-wave (km/s) = 3.40542 5.12196 4.34922
# Velocity P-wave (km/s) = 5.77645 7.77915 6.85137
#
# Compressibility (1/GPa) = 0.02558548
#
# Stress axis : x y z
#
# Youngs Moduli (GPa) = 88.53488 109.26816 46.35338
#
# Poissons Ratio (x) = 0.13760 0.16738
# Poissons Ratio (y) = 0.11149 0.15515
# Poissons Ratio (z) = 0.31969 0.36574
#
# Static dielectric constant tensor:
#      x y z
#    x 1.582880 0.000000 0.118780 
#    y 0.000000 1.818620 0.000000 
#    z 0.118780 0.000000 1.736980 
# 
# From -- ./inp_files/130100.got.cif
#   From: 2010.05.17/outbox.cif.g08.bks.cpg/sg15_66_cif.got.tgz:130100.got - 2010.06.03 18:47:42.
