data_PCOD9261258
_publ_section_title
;
Structure prediction by ZEFSAII (Michael W. Deem and Ramdas Pophale) SiO2 
 PCOD9261258
Probable space group: C 2/C
;
_chemical_formula_sum "Si O2"
_cell_formula_units_Z 36
_cell_length_a 26.997287
_cell_length_b 6.215903
_cell_length_c 19.900157
_cell_angle_alpha 90.000000
_cell_angle_beta 156.725311
_cell_angle_gamma 90.000000
_cell_volume 1319.567329
_symmetry_space_group_name_H-M "C 2/C"
_symmetry_group_IT_number 15
_symmetry_cell_setting 'monoclinic'
loop_
_space_group_symop_operation_xyz
x,y,z
-x,y,1/2-z
-x,-y,-z
x,-y,1/2+z
1/2+x,1/2+y,z
1/2-x,1/2+y,1/2-z
1/2-x,1/2-y,-z
1/2+x,1/2-y,1/2+z
loop_
_atom_site_type_symbol
_atom_site_label
_atom_site_fract_x
_atom_site_fract_y
_atom_site_fract_z
Si Si1 0.803295 0.248339 0.210551
Si Si2 0.617240 0.919088 0.052190
Si Si3 0.526859 0.530659 0.664777
Si Si4 0.848366 0.448174 0.657391
Si Si5 0.000000 0.700412 0.750000
O O1 0.842079 0.401227 0.320554
O O2 0.761965 0.394423 0.094072
O O3 0.704080 0.079940 0.119107
O O4 0.917047 0.091873 0.329008
O O5 0.596976 0.672858 0.001750
O O6 0.474113 0.985184 0.860912
O O7 0.496354 0.360608 0.683127
O O8 0.642219 0.687993 0.832903
O O9 0.889880 0.537716 0.636928
#
# Coordination Sequence:
#
# PCOD9261258 Si02
#       5
#     8   8   8   8   4
#     4  11  22  41  63  93 128 163 199 254 311 369
#     4  10  24  38  64  93 127 162 203 250 310 369
#     4   9  22  41  63  91 124 162 205 253 305 363
#     4   9  22  41  63  92 124 160 208 252 305 362
#     4  10  18  42  70  82 124 168 200 264 302 348
#
# _framework density 27.281670999999999
#
# number of rings (size 3 to 8) (size 9 to 14) (size 15 to 20)
#    1.333    0.889    0.000    2.000    3.111    3.556 
#    0.000    8.889    0.000    0.000    0.000    0.000 
#    0.000    0.000    0.000    0.000    0.000    0.000 
#
# Total GULP energy -100507.322255 kJ/mol
# GULP energy per Si atom -5583.740125 kJ/mol
# Density = 2.721958 g / cm^3
# Si number density = 27.281671 Si / 1000 Ang^3
#
#
#
# Elastic Constant Matrix: (Units=GPa)
#
#
# Indices 1 2 3 4 5 6 
#
# 1 177.7163 60.7234 -2.0286 0.0000 3.5898 0.0000
# 2 60.7234 123.8861 -17.3034 0.0003 7.1778 0.0000
# 3 -2.0286 -17.3034 14.0074 0.0001 9.9095 0.0000
# 4 0.0000 0.0003 0.0001 65.9331 0.0000 -4.0727
# 5 3.5898 7.1778 9.9095 0.0000 41.7271 0.0000
# 6 0.0000 0.0000 0.0000 -4.0727 0.0000 61.5491
#
#
#
# Elastic Compliance Matrix: (Units=1/GPa)
#
#
# Indices 1 2 3 4 5 6 
#
# 1 0.006983 -0.004222 -0.005159 0.000000 0.001351 0.000000
# 2 -0.004222 0.013463 0.020915 0.000000 -0.006920 0.000000
# 3 -0.005159 0.020915 0.118644 0.000000 -0.031330 0.000000
# 4 0.000000 0.000000 0.000000 0.015229 0.000000 0.001008
# 5 0.001351 -0.006920 -0.031330 0.000000 0.032480 0.000000
# 6 0.000000 0.000000 0.000000 0.001008 0.000000 0.016314
#
#
# Mechanical properties :
#
#
# Convention : Reuss Voigt Hill
#
# Bulk Modulus (GPa) = 6.16676 44.26586 25.21631
# Shear Modulus (GPa) = 21.35853 52.12311 36.74082
#
# Velocity S-wave (km/s) = 2.80105 4.37573 3.67375
# Velocity P-wave (km/s) = 3.56742 6.46452 5.22095
#
# Compressibility (1/GPa) = 0.16215966
#
# Stress axis : x y z
#
# Youngs Moduli (GPa) = 143.19890 74.27507 8.42855
#
# Poissons Ratio (x) = 0.31357 0.04349
# Poissons Ratio (y) = 0.60455 -0.17629
# Poissons Ratio (z) = 0.73882 -1.55349
#
# Static dielectric constant tensor:
#      x y z
#    x 2.023100 0.000000 0.042440 
#    y 0.000000 2.206190 0.000000 
#    z 0.042440 0.000000 2.431610 
# 
# From -- ./inp_files/256833.got.cif
#   From: 2010.05.17/outbox.cif.g08.bks.cpg/sg15_129_cif.got.tgz:256833.got - 2010.06.03 18:47:42.
