data_PCOD9261880
_publ_section_title
;
Structure prediction by ZEFSAII (Michael W. Deem and Ramdas Pophale) SiO2 
 PCOD9261880
Probable space group: C 2/C
;
_chemical_formula_sum "Si O2"
_cell_formula_units_Z 56
_cell_length_a 23.403755
_cell_length_b 25.662902
_cell_length_c 5.503071
_cell_angle_alpha 90.000000
_cell_angle_beta 67.395992
_cell_angle_gamma 90.000000
_cell_volume 3051.296280
_symmetry_space_group_name_H-M "C 2/C"
_symmetry_group_IT_number 15
_symmetry_cell_setting 'monoclinic'
loop_
_space_group_symop_operation_xyz
x,y,z
-x,y,1/2-z
-x,-y,-z
x,-y,1/2+z
1/2+x,1/2+y,z
1/2-x,1/2+y,1/2-z
1/2-x,1/2-y,-z
1/2+x,1/2-y,1/2+z
loop_
_atom_site_type_symbol
_atom_site_label
_atom_site_fract_x
_atom_site_fract_y
_atom_site_fract_z
Si Si1 0.072340 0.254738 0.087542
Si Si2 0.216037 0.863120 0.027192
Si Si3 0.156739 0.353882 0.977933
Si Si4 0.373505 0.286221 0.484653
Si Si5 0.725812 0.790942 0.236367
Si Si6 0.852504 0.475102 0.473746
Si Si7 0.710470 0.483285 0.174797
O O1 0.099416 0.229403 0.294767
O O2 0.000000 0.262426 0.250000
O O3 0.106255 0.310637 0.992685
O O4 0.083031 0.221947 0.821314
O O5 0.281369 0.852594 0.787543
O O6 0.158544 0.843121 0.962521
O O7 0.218025 0.823503 0.249092
O O8 0.216138 0.922206 0.112477
O O9 0.181146 0.334817 0.198851
O O10 0.136636 0.413668 0.019503
O O11 0.316833 0.245495 0.529592
O O12 0.750000 0.750000 0.000000
O O13 0.876488 0.503423 0.677274
O O14 0.778143 0.488308 0.587535
O O15 0.679868 0.492312 0.485699
#
# Coordination Sequence:
#
# PCOD9261880 Si02
#       7
#     8   8   8   8   8   8   8
#     4  11  25  43  57  77 110 153 202 242 275 319
#     4  12  20  32  55  85 119 145 187 219 294 351
#     4  11  21  32  57  78 111 156 189 226 280 345
#     4  11  23  36  58  83 111 146 185 238 282 343
#     4  11  20  31  48  83 119 143 180 230 278 350
#     4  10  19  32  47  76 109 151 178 216 275 337
#     4  10  20  31  48  75 118 155 169 212 269 349
#
# _framework density 18.352855000000002
#
# number of rings (size 3 to 8) (size 9 to 14) (size 15 to 20)
#    0.000    1.143    5.714    4.286    0.000    0.000 
#    0.000    0.000    0.000    0.857    0.000    0.000 
#    0.000   11.429    0.000    0.000    0.000    0.000 
#
# Total GULP energy -156045.058264 kJ/mol
# GULP energy per Si atom -5573.037795 kJ/mol
# Density = 1.831108 g / cm^3
# Si number density = 18.352855 Si / 1000 Ang^3
#
#
#
# Elastic Constant Matrix: (Units=GPa)
#
#
# Indices 1 2 3 4 5 6 
#
# 1 49.4163 27.7425 28.7151 0.0000 -2.3304 0.0000
# 2 27.7425 75.6878 33.0446 0.0000 5.0251 0.0000
# 3 28.7151 33.0446 110.3340 0.0000 8.1726 0.0000
# 4 0.0000 0.0000 0.0000 25.3090 0.0000 5.7480
# 5 -2.3304 5.0251 8.1726 0.0000 27.3084 0.0000
# 6 0.0000 0.0000 0.0000 5.7480 0.0000 11.8961
#
#
#
# Elastic Compliance Matrix: (Units=1/GPa)
#
#
# Indices 1 2 3 4 5 6 
#
# 1 0.028285 -0.008447 -0.005242 0.000000 0.005537 0.000000
# 2 -0.008447 0.017780 -0.002895 0.000000 -0.003126 0.000000
# 3 -0.005242 -0.002895 0.011544 0.000000 -0.003369 0.000000
# 4 0.000000 0.000000 0.000000 0.044382 0.000000 -0.021444
# 5 0.005537 -0.003126 -0.003369 0.000000 0.038675 0.000000
# 6 0.000000 0.000000 0.000000 -0.021444 0.000000 0.094423
#
#
# Mechanical properties :
#
#
# Convention : Reuss Voigt Hill
#
# Bulk Modulus (GPa) = 40.91308 46.04917 43.48113
# Shear Modulus (GPa) = 18.08952 22.63175 20.36064
#
# Velocity S-wave (km/s) = 3.14291 3.51543 3.33438
# Velocity P-wave (km/s) = 5.95915 6.45160 6.21026
#
# Compressibility (1/GPa) = 0.02444206
#
# Stress axis : x y z
#
# Youngs Moduli (GPa) = 35.35411 56.24383 86.62326
#
# Poissons Ratio (x) = 0.47508 0.45406
# Poissons Ratio (y) = 0.29863 0.25078
# Poissons Ratio (z) = 0.18532 0.16283
#
# Static dielectric constant tensor:
#      x y z
#    x 1.653420 0.000000 0.044980 
#    y 0.000000 1.638780 0.000000 
#    z 0.044980 0.000000 1.770520 
# 
# From -- ./inp_files/13670.got.cif
#   From: 2010.05.17/outbox.cif.g08.bks.cpg/sg15_7_cif.got.tgz:13670.got - 2010.06.03 18:47:42.
