data_PCOD9261139
_publ_section_title
;
Structure prediction by ZEFSAII (Michael W. Deem and Ramdas Pophale) SiO2 
 PCOD9261139
Probable space group: C 2/C
;
_chemical_formula_sum "Si O2"
_cell_formula_units_Z 56
_cell_length_a 21.198204
_cell_length_b 11.030620
_cell_length_c 26.915199
_cell_angle_alpha 90.000000
_cell_angle_beta 24.692097
_cell_angle_gamma 90.000000
_cell_volume 2629.084073
_symmetry_space_group_name_H-M "C 2/C"
_symmetry_group_IT_number 15
_symmetry_cell_setting 'monoclinic'
loop_
_space_group_symop_operation_xyz
x,y,z
-x,y,1/2-z
-x,-y,-z
x,-y,1/2+z
1/2+x,1/2+y,z
1/2-x,1/2+y,1/2-z
1/2-x,1/2-y,-z
1/2+x,1/2-y,1/2+z
loop_
_atom_site_type_symbol
_atom_site_label
_atom_site_fract_x
_atom_site_fract_y
_atom_site_fract_z
Si Si1 0.825750 0.417667 0.861226
Si Si2 0.764121 0.565174 0.658161
Si Si3 0.538095 0.016155 0.328053
Si Si4 0.018405 0.625841 0.537740
Si Si5 0.411505 0.760999 0.411134
Si Si6 0.230488 0.856296 0.069459
Si Si7 0.450177 0.497353 0.383328
O O1 0.830341 0.425007 0.798147
O O2 0.790641 0.286119 0.909235
O O3 0.000000 0.444747 0.750000
O O4 0.695310 0.501437 0.976767
O O5 0.879409 0.658203 0.601588
O O6 0.728240 0.595569 0.626881
O O7 0.599895 0.558721 0.800261
O O8 0.854542 0.438167 0.586714
O O9 0.556784 0.977413 0.371998
O O10 0.492617 0.885335 0.336804
O O11 0.393082 0.103908 0.431831
O O12 0.086700 0.717750 0.529801
O O13 0.250000 0.750000 0.500000
O O14 0.491231 0.635443 0.340720
O O15 0.107723 0.920780 0.122500
#
# Coordination Sequence:
#
# PCOD9261139 Si02
#       7
#     8   8   8   8   8   8   8
#     4  12  23  38  61  91 136 164 202 275 336 381
#     4  10  20  40  62  88 123 169 221 263 314 399
#     4   9  21  41  60  92 129 169 209 268 339 384
#     4   8  20  42  63  84 127 172 209 263 332 393
#     4  10  18  40  66  92 129 164 216 273 331 396
#     4  11  22  39  64  93 126 165 221 267 325 395
#     4  12  23  36  63 102 122 167 225 276 323 403
#
# _framework density 21.300194999999999
#
# number of rings (size 3 to 8) (size 9 to 14) (size 15 to 20)
#    0.857    0.857    2.857    1.714    2.000    1.143 
#    2.571    3.571    0.000    0.000    0.000    0.000 
#    0.000    0.000    0.000    0.000    0.000    0.000 
#
# Total GULP energy -155912.775250 kJ/mol
# GULP energy per Si atom -5568.313402 kJ/mol
# Density = 2.125171 g / cm^3
# Si number density = 21.300195 Si / 1000 Ang^3
#
#
#
# Elastic Constant Matrix: (Units=GPa)
#
#
# Indices 1 2 3 4 5 6 
#
# 1 84.7804 15.1783 42.8576 0.0010 -14.6302 -0.0010
# 2 15.1783 90.1319 15.7305 0.0001 7.4994 0.0002
# 3 42.8576 15.7305 95.8983 -0.0062 -2.3421 0.0014
# 4 0.0010 0.0001 -0.0062 12.1986 0.0005 -0.6936
# 5 -14.6302 7.4994 -2.3421 0.0005 30.0465 0.0004
# 6 -0.0010 0.0002 0.0014 -0.6936 0.0004 25.2963
#
#
#
# Elastic Compliance Matrix: (Units=1/GPa)
#
#
# Indices 1 2 3 4 5 6 
#
# 1 0.017281 -0.002369 -0.007128 -0.000005 0.008450 0.000001
# 2 -0.002369 0.012024 -0.001017 0.000000 -0.004234 0.000000
# 3 -0.007128 -0.001017 0.013728 0.000008 -0.002147 -0.000001
# 4 -0.000005 0.000000 0.000008 0.082104 -0.000003 0.002251
# 5 0.008450 -0.004234 -0.002147 -0.000003 0.038286 0.000000
# 6 0.000001 0.000000 -0.000001 0.002251 0.000000 0.039593
#
#
# Mechanical properties :
#
#
# Convention : Reuss Voigt Hill
#
# Bulk Modulus (GPa) = 45.44619 46.48262 45.96440
# Shear Modulus (GPa) = 21.60968 26.64456 24.12712
#
# Velocity S-wave (km/s) = 3.18862 3.54065 3.36924
# Velocity P-wave (km/s) = 5.91090 6.21168 6.06316
#
# Compressibility (1/GPa) = 0.02200405
#
# Stress axis : x y z
#
# Youngs Moduli (GPa) = 57.86774 83.16999 72.84596
#
# Poissons Ratio (x) = 0.19704 0.51924
# Poissons Ratio (y) = 0.13710 0.07407
# Poissons Ratio (z) = 0.41248 0.08457
#
# Static dielectric constant tensor:
#      x y z
#    x 1.843480 0.000000 0.028770 
#    y 0.000000 1.808460 0.000000 
#    z 0.028770 0.000000 1.849050 
# 
# From -- ./inp_files/318775.got.cif
#   From: 2010.05.17/outbox.cif.g08.bks.cpg/sg15_160_cif.got.tgz:318775.got - 2010.06.03 18:47:42.
