data_PCOD9261412
_publ_section_title
;
Structure prediction by ZEFSAII (Michael W. Deem and Ramdas Pophale) SiO2 
 PCOD9261412
Probable space group: C 2/C
;
_chemical_formula_sum "Si O2"
_cell_formula_units_Z 52
_cell_length_a 20.366023
_cell_length_b 30.898069
_cell_length_c 9.110977
_cell_angle_alpha 90.000000
_cell_angle_beta 149.283285
_cell_angle_gamma 90.000000
_cell_volume 2928.519277
_symmetry_space_group_name_H-M "C 2/C"
_symmetry_group_IT_number 15
_symmetry_cell_setting 'monoclinic'
loop_
_space_group_symop_operation_xyz
x,y,z
-x,y,1/2-z
-x,-y,-z
x,-y,1/2+z
1/2+x,1/2+y,z
1/2-x,1/2+y,1/2-z
1/2-x,1/2-y,-z
1/2+x,1/2-y,1/2+z
loop_
_atom_site_type_symbol
_atom_site_label
_atom_site_fract_x
_atom_site_fract_y
_atom_site_fract_z
Si Si1 0.898888 0.261403 0.260892
Si Si2 0.345068 0.023032 0.455588
Si Si3 0.000000 0.187616 0.250000
Si Si4 0.124771 0.406742 0.708659
Si Si5 0.845735 0.440017 0.271683
Si Si6 0.000000 0.663866 0.750000
Si Si7 0.000000 0.298786 0.750000
Si Si8 0.740706 0.863725 0.207065
O O1 0.914500 0.303486 0.184856
O O2 0.962687 0.220018 0.308569
O O3 0.975143 0.271519 0.556401
O O4 0.750000 0.250000 0.000000
O O5 0.305462 0.057945 0.258044
O O6 0.303754 0.038026 0.537597
O O7 0.319517 0.975072 0.348444
O O8 0.500000 0.026559 0.750000
O O9 0.123041 0.159010 0.523987
O O10 0.997256 0.428138 0.539528
O O11 0.075131 0.368020 0.506544
O O12 0.216485 0.389966 0.011673
O O13 0.779834 0.395634 0.194228
O O14 0.874438 0.328919 0.516709
#
# Coordination Sequence:
#
# PCOD9261412 Si02
#       8
#     8   8   4   8   8   4   4   8
#     4  11  24  41  61  88 124 155 201 254 306 366
#     4  10  19  29  53  92 128 154 196 250 300 348
#     4  11  28  42  62  90 119 163 204 254 306 361
#     4  11  19  33  57  89 120 158 196 248 302 356
#     4  11  19  33  55  89 125 159 196 250 298 354
#     4  11  20  36  57  92 118 158 196 253 304 359
#     4  12  22  38  69  86 115 165 198 249 310 358
#     4  12  22  39  61  88 120 158 207 245 300 360
#
# _framework density 17.756413999999999
#
# number of rings (size 3 to 8) (size 9 to 14) (size 15 to 20)
#    0.000    0.923    6.923    3.692    0.000    1.846 
#    0.000    0.000    0.000    3.692    0.000    0.000 
#    0.000    0.000    0.000    0.000    0.000    0.000 
#
# Total GULP energy -145129.350857 kJ/mol
# GULP energy per Si atom -5581.898110 kJ/mol
# Density = 1.771600 g / cm^3
# Si number density = 17.756414 Si / 1000 Ang^3
#
#
#
# Elastic Constant Matrix: (Units=GPa)
#
#
# Indices 1 2 3 4 5 6 
#
# 1 101.1715 68.2275 65.1003 0.0000 -14.3398 0.0000
# 2 68.2275 124.1996 69.4837 0.0000 -8.0078 0.0000
# 3 65.1003 69.4837 92.1622 0.0000 -1.1029 0.0000
# 4 0.0000 0.0000 0.0000 33.3661 0.0000 -12.6712
# 5 -14.3398 -8.0078 -1.1029 0.0000 27.4188 0.0000
# 6 0.0000 0.0000 0.0000 -12.6712 0.0000 25.9707
#
#
#
# Elastic Compliance Matrix: (Units=1/GPa)
#
#
# Indices 1 2 3 4 5 6 
#
# 1 0.022223 -0.004956 -0.011845 0.000000 0.009699 0.000000
# 2 -0.004956 0.015404 -0.008094 0.000000 0.001582 0.000000
# 3 -0.011845 -0.008094 0.025230 0.000000 -0.007544 0.000000
# 4 0.000000 0.000000 0.000000 0.036787 0.000000 0.017948
# 5 0.009699 0.001582 -0.007544 0.000000 0.041702 0.000000
# 6 0.000000 0.000000 0.000000 0.017948 0.000000 0.047262
#
#
# Mechanical properties :
#
#
# Convention : Reuss Voigt Hill
#
# Bulk Modulus (GPa) = 76.53139 80.35071 78.44105
# Shear Modulus (GPa) = 20.59709 24.99925 22.79817
#
# Velocity S-wave (km/s) = 3.40954 3.75627 3.58710
# Velocity P-wave (km/s) = 7.66122 8.01016 7.83763
#
# Compressibility (1/GPa) = 0.01306653
#
# Stress axis : x y z
#
# Youngs Moduli (GPa) = 44.99888 64.91747 39.63602
#
# Poissons Ratio (x) = 0.32171 0.46949
# Poissons Ratio (y) = 0.22300 0.32082
# Poissons Ratio (z) = 0.53302 0.52545
#
# Static dielectric constant tensor:
#      x y z
#    x 1.641920 0.000000 -0.043640 
#    y 0.000000 1.659910 0.000000 
#    z -0.043640 0.000000 1.568410 
# 
# From -- ./inp_files/34825.got.cif
#   From: 2010.05.17/outbox.cif.g08.bks.cpg/sg15_18_cif.got.tgz:34825.got - 2010.06.03 18:47:42.
