data_PCOD9261508
_publ_section_title
;
Structure prediction by ZEFSAII (Michael W. Deem and Ramdas Pophale) SiO2 
 PCOD9261508
Probable space group: C 2/C
;
_chemical_formula_sum "Si O2"
_cell_formula_units_Z 48
_cell_length_a 31.401277
_cell_length_b 5.014270
_cell_length_c 21.905137
_cell_angle_alpha 90.000000
_cell_angle_beta 130.711387
_cell_angle_gamma 90.000000
_cell_volume 2614.405272
_symmetry_space_group_name_H-M "C 2/C"
_symmetry_group_IT_number 15
_symmetry_cell_setting 'monoclinic'
loop_
_space_group_symop_operation_xyz
x,y,z
-x,y,1/2-z
-x,-y,-z
x,-y,1/2+z
1/2+x,1/2+y,z
1/2-x,1/2+y,1/2-z
1/2-x,1/2-y,-z
1/2+x,1/2-y,1/2+z
loop_
_atom_site_type_symbol
_atom_site_label
_atom_site_fract_x
_atom_site_fract_y
_atom_site_fract_z
Si Si1 0.318715 0.532740 0.277765
Si Si2 0.436780 0.073636 0.207052
Si Si3 0.886256 0.053404 0.220145
Si Si4 0.346984 0.954034 0.519669
Si Si5 0.700002 0.458205 0.966018
Si Si6 0.311610 0.970988 0.854678
O O1 0.365177 0.511435 0.268883
O O2 0.323256 0.317599 0.336454
O O3 0.255059 0.508513 0.191869
O O4 0.322169 0.822466 0.310519
O O5 0.500000 0.999103 0.250000
O O6 0.433018 0.344647 0.242183
O O7 0.406481 0.846733 0.219328
O O8 0.401240 0.116188 0.111275
O O9 0.832135 0.994564 0.127142
O O10 0.298880 0.745503 0.499418
O O11 0.336918 0.264965 0.525418
O O12 0.346734 0.945768 0.446719
O O13 0.750000 0.250000 0.000000
#
# Coordination Sequence:
#
# PCOD9261508 Si02
#       6
#     8   8   8   8   8   8
#     4  10  20  33  51  76 107 142 171 200 245 308
#     4  10  21  37  57  77  99 132 174 226 273 302
#     4  10  20  34  54  78 103 134 173 214 260 311
#     4  10  20  33  51  75 102 136 173 209 257 309
#     4  10  19  30  49  77 106 132 163 211 261 311
#     4  10  20  33  51  75 108 144 171 199 243 309
#
# _framework density 18.359815000000001
#
# number of rings (size 3 to 8) (size 9 to 14) (size 15 to 20)
#    0.000    2.000    0.000    4.000    0.000    5.333 
#    0.000    0.000    0.000    6.000    0.000    0.000 
#    0.000    0.000    0.000    0.000    0.000    0.000 
#
# Total GULP energy -133724.660904 kJ/mol
# GULP energy per Si atom -5571.860871 kJ/mol
# Density = 1.831803 g / cm^3
# Si number density = 18.359815 Si / 1000 Ang^3
#
#
#
# Elastic Constant Matrix: (Units=GPa)
#
#
# Indices 1 2 3 4 5 6 
#
# 1 67.8167 -8.6714 30.7310 -0.0080 -5.6342 0.0004
# 2 -8.6714 64.3937 -5.4454 -0.0441 1.0375 0.0263
# 3 30.7310 -5.4454 57.0528 0.0051 -7.0608 -0.0005
# 4 -0.0080 -0.0441 0.0051 12.2136 0.0008 1.9374
# 5 -5.6342 1.0375 -7.0608 0.0008 17.7480 -0.0020
# 6 0.0004 0.0263 -0.0005 1.9374 -0.0020 19.8627
#
#
#
# Elastic Compliance Matrix: (Units=1/GPa)
#
#
# Indices 1 2 3 4 5 6 
#
# 1 0.019780 0.001765 -0.010225 0.000024 0.002108 -0.000005
# 2 0.001765 0.015815 0.000540 0.000062 -0.000149 -0.000027
# 3 -0.010225 0.000540 0.023856 -0.000015 0.006213 0.000002
# 4 0.000024 0.000062 -0.000015 0.083163 -0.000007 -0.008112
# 5 0.002108 -0.000149 0.006213 -0.000007 0.059494 0.000007
# 6 -0.000005 -0.000027 0.000002 -0.008112 0.000007 0.051137
#
#
# Mechanical properties :
#
#
# Convention : Reuss Voigt Hill
#
# Bulk Modulus (GPa) = 22.92963 24.72129 23.82546
# Shear Modulus (GPa) = 17.62915 21.47479 19.55197
#
# Velocity S-wave (km/s) = 3.10208 3.42374 3.26687
# Velocity P-wave (km/s) = 5.03455 5.39662 5.21872
#
# Compressibility (1/GPa) = 0.04361169
#
# Stress axis : x y z
#
# Youngs Moduli (GPa) = 50.55647 63.22988 41.91875
#
# Poissons Ratio (x) = -0.11160 0.42861
# Poissons Ratio (y) = -0.08923 -0.02265
# Poissons Ratio (z) = 0.51693 -0.03416
#
# Static dielectric constant tensor:
#      x y z
#    x 1.662320 0.000000 0.014740 
#    y 0.000000 1.650180 0.000000 
#    z 0.014740 0.000000 1.628630 
# 
# From -- ./inp_files/217743.got.cif
#   From: 2010.05.17/outbox.cif.g08.bks.cpg/sg15_109_cif.got.tgz:217743.got - 2010.06.03 18:47:42.
