data_PCOD9261564
_publ_section_title
;
Structure prediction by ZEFSAII (Michael W. Deem and Ramdas Pophale) SiO2 
 PCOD9261564
Probable space group: C 2/C
;
_chemical_formula_sum "Si O2"
_cell_formula_units_Z 56
_cell_length_a 26.543234
_cell_length_b 16.256327
_cell_length_c 5.777500
_cell_angle_alpha 90.000000
_cell_angle_beta 113.894685
_cell_angle_gamma 90.000000
_cell_volume 2279.296979
_symmetry_space_group_name_H-M "C 2/C"
_symmetry_group_IT_number 15
_symmetry_cell_setting 'monoclinic'
loop_
_space_group_symop_operation_xyz
x,y,z
-x,y,1/2-z
-x,-y,-z
x,-y,1/2+z
1/2+x,1/2+y,z
1/2-x,1/2+y,1/2-z
1/2-x,1/2-y,-z
1/2+x,1/2-y,1/2+z
loop_
_atom_site_type_symbol
_atom_site_label
_atom_site_fract_x
_atom_site_fract_y
_atom_site_fract_z
Si Si1 0.274088 0.031989 0.923707
Si Si2 0.058362 0.716023 0.483730
Si Si3 0.439076 0.620180 0.197416
Si Si4 0.837268 0.931977 0.745593
Si Si5 0.063300 0.473236 0.946235
Si Si6 0.639809 0.694363 0.822570
Si Si7 0.268547 0.306872 0.324355
O O1 0.274137 0.128057 0.860482
O O2 0.295561 0.988679 0.724126
O O3 0.210051 0.999501 0.817157
O O4 0.057195 0.791798 0.661190
O O5 0.064665 0.619794 0.551757
O O6 0.109027 0.738068 0.414264
O O7 0.000000 0.721162 0.250000
O O8 0.500000 0.589569 0.250000
O O9 0.399799 0.557013 0.269068
O O10 0.407162 0.648954 0.911204
O O11 0.813215 0.867181 0.521311
O O12 0.838314 0.878732 0.977882
O O13 0.086019 0.476825 0.717741
O O14 0.000000 0.495727 0.750000
O O15 0.692309 0.733502 0.792946
O O16 0.250000 0.250000 0.500000
#
# Coordination Sequence:
#
# PCOD9261564 Si02
#       7
#     8   8   8   8   8   8   8
#     4  10  19  38  63  90 121 161 202 248 305 372
#     4  10  19  30  53  80 112 156 199 257 316 361
#     4  10  19  31  55  85 120 160 209 262 309 360
#     4   9  20  35  57  90 122 164 205 251 305 375
#     4   9  19  31  47  73 104 145 198 248 298 369
#     4  10  19  35  53  85 120 154 203 257 304 367
#     4  10  21  37  62  92 119 154 204 261 308 367
#
# _framework density 24.568978999999999
#
# number of rings (size 3 to 8) (size 9 to 14) (size 15 to 20)
#    0.000    2.286    2.857    0.000    2.000    1.143 
#    0.000    0.000    0.000   12.000    0.000    0.000 
#    0.000    0.000    0.000    0.000    0.000    0.000 
#
# Total GULP energy -156010.769648 kJ/mol
# GULP energy per Si atom -5571.813202 kJ/mol
# Density = 2.451306 g / cm^3
# Si number density = 24.568979 Si / 1000 Ang^3
#
#
#
# Elastic Constant Matrix: (Units=GPa)
#
#
# Indices 1 2 3 4 5 6 
#
# 1 142.5299 17.4704 -7.8049 0.0000 -29.6968 0.0000
# 2 17.4704 70.9534 0.6918 0.0000 -10.8697 0.0000
# 3 -7.8049 0.6918 76.9942 0.0000 -22.8699 0.0000
# 4 0.0000 0.0000 0.0000 44.0980 0.0000 -10.1129
# 5 -29.6968 -10.8697 -22.8699 0.0000 31.0981 0.0000
# 6 0.0000 0.0000 0.0000 -10.1129 0.0000 38.3649
#
#
#
# Elastic Compliance Matrix: (Units=1/GPa)
#
#
# Indices 1 2 3 4 5 6 
#
# 1 0.010062 -0.000530 0.004893 0.000000 0.013021 0.000000
# 2 -0.000530 0.015118 0.001573 0.000000 0.005935 0.000000
# 3 0.004893 0.001573 0.019219 0.000000 0.019356 0.000000
# 4 0.000000 0.000000 0.000000 0.024136 0.000000 0.006362
# 5 0.013021 0.005935 0.019356 0.000000 0.060900 0.000000
# 6 0.000000 0.000000 0.000000 0.006362 0.000000 0.027743
#
#
# Mechanical properties :
#
#
# Convention : Reuss Voigt Hill
#
# Bulk Modulus (GPa) = 17.77143 34.57690 26.17416
# Shear Modulus (GPa) = 30.47596 41.38689 35.93142
#
# Velocity S-wave (km/s) = 3.52579 4.10874 3.82838
# Velocity P-wave (km/s) = 4.88097 6.05086 5.49713
#
# Compressibility (1/GPa) = 0.05627010
#
# Stress axis : x y z
#
# Youngs Moduli (GPa) = 99.38331 66.14548 52.03128
#
# Poissons Ratio (x) = 0.03508 -0.25456
# Poissons Ratio (y) = 0.05271 -0.08186
# Poissons Ratio (z) = -0.48624 -0.10406
#
# Static dielectric constant tensor:
#      x y z
#    x 2.071800 0.000000 -0.068010 
#    y 0.000000 1.960440 0.000000 
#    z -0.068010 0.000000 2.031450 
# 
# From -- ./inp_files/17205.got.cif
#   From: 2010.05.17/outbox.cif.g08.bks.cpg/sg15_9_cif.got.tgz:17205.got - 2010.06.03 18:47:42.
