data_PCOD9261403
_publ_section_title
;
Structure prediction by ZEFSAII (Michael W. Deem and Ramdas Pophale) SiO2 
 PCOD9261403
Probable space group: C 2/C
;
_chemical_formula_sum "Si O2"
_cell_formula_units_Z 56
_cell_length_a 12.912789
_cell_length_b 28.530389
_cell_length_c 16.533189
_cell_angle_alpha 90.000000
_cell_angle_beta 35.007648
_cell_angle_gamma 90.000000
_cell_volume 3494.286084
_symmetry_space_group_name_H-M "C 2/C"
_symmetry_group_IT_number 15
_symmetry_cell_setting 'monoclinic'
loop_
_space_group_symop_operation_xyz
x,y,z
-x,y,1/2-z
-x,-y,-z
x,-y,1/2+z
1/2+x,1/2+y,z
1/2-x,1/2+y,1/2-z
1/2-x,1/2-y,-z
1/2+x,1/2-y,1/2+z
loop_
_atom_site_type_symbol
_atom_site_label
_atom_site_fract_x
_atom_site_fract_y
_atom_site_fract_z
Si Si1 0.391167 0.491150 0.398553
Si Si2 0.023271 0.707444 0.141262
Si Si3 0.559716 0.310086 0.120066
Si Si4 0.133680 0.388372 0.744311
Si Si5 0.692262 0.047386 0.664706
Si Si6 0.992499 0.476000 0.592348
Si Si7 0.480587 0.596120 0.582050
O O1 0.500000 0.509333 0.250000
O O2 0.330502 0.526795 0.508663
O O3 0.496838 0.447364 0.370200
O O4 0.197204 0.474047 0.491930
O O5 0.016236 0.759247 0.107449
O O6 0.000000 0.718517 0.250000
O O7 0.887051 0.665110 0.211789
O O8 0.224120 0.686814 0.010291
O O9 0.500000 0.313018 0.250000
O O10 0.475555 0.353771 0.128078
O O11 0.079289 0.423564 0.850528
O O12 0.333388 0.401581 0.587760
O O13 0.000000 0.393771 0.750000
O O14 0.500000 0.063137 0.750000
O O15 0.805382 0.085641 0.640921
O O16 0.628711 0.006810 0.768138
O O17 0.000000 0.500000 0.500000
#
# Coordination Sequence:
#
# PCOD9261403 Si02
#       7
#     8   8   8   8   8   8   8
#     4  11  21  33  52  77 105 139 181 219 257 314
#     4   9  17  32  48  73 112 139 163 208 259 315
#     4  10  19  29  50  80 111 136 167 209 258 320
#     4  11  18  34  53  75 108 147 175 210 257 323
#     4  10  23  39  50  74 108 139 181 229 264 307
#     4  11  21  34  51  75 110 143 179 217 259 303
#     4  12  20  33  57  76 104 145 180 212 268 315
#
# _framework density 16.026164000000001
#
# number of rings (size 3 to 8) (size 9 to 14) (size 15 to 20)
#    0.000    1.429    5.714    2.143    2.000    1.143 
#    0.000    0.000    0.000    0.000    0.000    1.000 
#    0.000    0.000    0.000    0.000    0.000    0.000 
#
# Total GULP energy -155930.518924 kJ/mol
# GULP energy per Si atom -5568.947104 kJ/mol
# Density = 1.598969 g / cm^3
# Si number density = 16.026164 Si / 1000 Ang^3
#
#
#
# Elastic Constant Matrix: (Units=GPa)
#
#
# Indices 1 2 3 4 5 6 
#
# 1 71.7762 57.7611 18.7706 0.0005 -2.2711 -0.0002
# 2 57.7611 95.3586 25.4430 0.0000 0.1514 -0.0001
# 3 18.7706 25.4430 94.4500 0.0004 7.6601 -0.0001
# 4 0.0005 0.0000 0.0004 23.2866 -0.0004 1.1858
# 5 -2.2711 0.1514 7.6601 -0.0004 21.9197 0.0002
# 6 -0.0002 -0.0001 -0.0001 1.1858 0.0002 18.4698
#
#
#
# Elastic Compliance Matrix: (Units=1/GPa)
#
#
# Indices 1 2 3 4 5 6 
#
# 1 0.027527 -0.016318 -0.001354 0.000000 0.003438 0.000000
# 2 -0.016318 0.020994 -0.002330 0.000000 -0.001022 0.000000
# 3 -0.001354 -0.002330 0.011830 0.000000 -0.004258 0.000000
# 4 0.000000 0.000000 0.000000 0.043084 0.000001 -0.002766
# 5 0.003438 -0.001022 -0.004258 0.000001 0.047472 -0.000001
# 6 0.000000 0.000000 0.000000 -0.002766 -0.000001 0.054320
#
#
# Mechanical properties :
#
#
# Convention : Reuss Voigt Hill
#
# Bulk Modulus (GPa) = 49.14482 51.72604 50.43543
# Shear Modulus (GPa) = 19.84037 23.37587 21.60812
#
# Velocity S-wave (km/s) = 3.52234 3.82331 3.67591
# Velocity P-wave (km/s) = 6.87564 7.19975 7.03956
#
# Compressibility (1/GPa) = 0.02034802
#
# Stress axis : x y z
#
# Youngs Moduli (GPa) = 36.32859 47.63260 84.53422
#
# Poissons Ratio (x) = 0.77726 0.11443
# Poissons Ratio (y) = 0.59280 0.19693
# Poissons Ratio (z) = 0.04918 0.11096
#
# Static dielectric constant tensor:
#      x y z
#    x 1.529500 0.000000 0.012870 
#    y 0.000000 1.636660 0.000000 
#    z 0.012870 0.000000 1.548970 
# 
# From -- ./inp_files/148517.got.cif
#   From: 2010.05.17/outbox.cif.g08.bks.cpg/sg15_75_cif.got.tgz:148517.got - 2010.06.03 18:47:42.
