data_PCOD9261852
_publ_section_title
;
Structure prediction by ZEFSAII (Michael W. Deem and Ramdas Pophale) SiO2 
 PCOD9261852
Probable space group: C 2/C
;
_chemical_formula_sum "Si O2"
_cell_formula_units_Z 48
_cell_length_a 13.971404
_cell_length_b 11.936923
_cell_length_c 13.943765
_cell_angle_alpha 90.000000
_cell_angle_beta 86.942634
_cell_angle_gamma 90.000000
_cell_volume 2322.169400
_symmetry_space_group_name_H-M "C 2/C"
_symmetry_group_IT_number 15
_symmetry_cell_setting 'monoclinic'
loop_
_space_group_symop_operation_xyz
x,y,z
-x,y,1/2-z
-x,-y,-z
x,-y,1/2+z
1/2+x,1/2+y,z
1/2-x,1/2+y,1/2-z
1/2-x,1/2-y,-z
1/2+x,1/2-y,1/2+z
loop_
_atom_site_type_symbol
_atom_site_label
_atom_site_fract_x
_atom_site_fract_y
_atom_site_fract_z
Si Si1 0.337972 0.738345 0.623601
Si Si2 0.000000 0.001949 0.750000
Si Si3 0.343740 0.524305 0.123857
Si Si4 0.114757 0.245671 0.089051
Si Si5 0.676797 0.040184 0.276207
Si Si6 0.647081 0.515635 0.595782
Si Si7 0.500000 0.121632 0.750000
O O1 0.365971 0.609075 0.631129
O O2 0.222230 0.731660 0.621720
O O3 0.381805 0.783278 0.521510
O O4 0.357170 0.833658 0.699817
O O5 0.075899 0.928976 0.808196
O O6 0.068807 0.068172 0.671699
O O7 0.240681 0.543034 0.176504
O O8 0.348333 0.560343 0.012898
O O9 0.108717 0.111553 0.087306
O O10 0.037807 0.304909 0.159219
O O11 0.751309 0.997177 0.355211
O O12 0.588993 0.956448 0.274192
#
# Coordination Sequence:
#
# PCOD9261852 Si02
#       7
#     8   4   8   8   8   8   4
#     4   9  18  37  54  76 108 156 181 223 285 336
#     4  10  19  31  60  88 106 140 190 242 278 332
#     4  10  19  37  58  79 114 147 186 235 282 338
#     4   9  18  33  58  76 107 146 196 226 266 335
#     4  10  22  33  55  84 113 147 186 238 280 326
#     4   9  19  37  58  84 107 151 193 232 278 336
#     4  12  21  33  54  94 114 142 192 242 270 330
#
# _framework density 20.670325999999999
#
# number of rings (size 3 to 8) (size 9 to 14) (size 15 to 20)
#    0.000    2.333    1.667    2.000    0.000    1.333 
#    0.000    0.000    0.000    2.000    0.000    0.000 
#    0.000    0.000    0.000    0.000    0.000    0.000 
#
# Total GULP energy -133820.200692 kJ/mol
# GULP energy per Si atom -5575.841696 kJ/mol
# Density = 2.062328 g / cm^3
# Si number density = 20.670326 Si / 1000 Ang^3
#
#
#
# Elastic Constant Matrix: (Units=GPa)
#
#
# Indices 1 2 3 4 5 6 
#
# 1 92.7643 17.4744 56.3413 0.0000 -28.3423 0.0000
# 2 17.4744 52.9840 22.2219 0.0000 -10.6062 0.0000
# 3 56.3413 22.2219 161.1587 0.0000 -27.8608 0.0000
# 4 0.0000 0.0000 0.0000 19.0269 0.0000 -6.9502
# 5 -28.3423 -10.6062 -27.8608 0.0000 26.0734 0.0000
# 6 0.0000 0.0000 0.0000 -6.9502 0.0000 6.8806
#
#
#
# Elastic Compliance Matrix: (Units=1/GPa)
#
#
# Indices 1 2 3 4 5 6 
#
# 1 0.017703 -0.001403 -0.003394 0.000000 0.015045 0.000000
# 2 -0.001403 0.021046 -0.001466 0.000000 0.005470 0.000000
# 3 -0.003394 -0.001466 0.008406 0.000000 0.004696 0.000000
# 4 0.000000 0.000000 0.000000 0.083289 0.000000 0.084132
# 5 0.015045 0.005470 0.004696 0.000000 0.061950 0.000000
# 6 0.000000 0.000000 0.000000 0.084132 0.000000 0.230321
#
#
# Mechanical properties :
#
#
# Convention : Reuss Voigt Hill
#
# Bulk Modulus (GPa) = 28.87861 55.44247 42.16054
# Shear Modulus (GPa) = 11.19109 24.45414 17.82261
#
# Velocity S-wave (km/s) = 2.32934 3.44329 2.93956
# Velocity P-wave (km/s) = 4.60823 6.53367 5.65352
#
# Compressibility (1/GPa) = 0.03462770
#
# Stress axis : x y z
#
# Youngs Moduli (GPa) = 56.48836 47.51486 118.96687
#
# Poissons Ratio (x) = 0.06667 0.40382
# Poissons Ratio (y) = 0.07926 0.17440
# Poissons Ratio (z) = 0.19175 0.06965
#
# Static dielectric constant tensor:
#      x y z
#    x 1.759320 0.000000 0.010400 
#    y 0.000000 1.764870 0.000000 
#    z 0.010400 0.000000 1.808980 
# 
# From -- ./inp_files/151979.got.cif
#   From: 2010.05.17/outbox.cif.g08.bks.cpg/sg15_76_cif.got.tgz:151979.got - 2010.06.03 18:47:42.
