data_PCOD9261777
_publ_section_title
;
Structure prediction by ZEFSAII (Michael W. Deem and Ramdas Pophale) SiO2 
 PCOD9261777
Probable space group: C 2/C
;
_chemical_formula_sum "Si O2"
_cell_formula_units_Z 56
_cell_length_a 17.392541
_cell_length_b 15.408063
_cell_length_c 15.867687
_cell_angle_alpha 90.000000
_cell_angle_beta 144.696396
_cell_angle_gamma 90.000000
_cell_volume 2457.446853
_symmetry_space_group_name_H-M "C 2/C"
_symmetry_group_IT_number 15
_symmetry_cell_setting 'monoclinic'
loop_
_space_group_symop_operation_xyz
x,y,z
-x,y,1/2-z
-x,-y,-z
x,-y,1/2+z
1/2+x,1/2+y,z
1/2-x,1/2+y,1/2-z
1/2-x,1/2-y,-z
1/2+x,1/2-y,1/2+z
loop_
_atom_site_type_symbol
_atom_site_label
_atom_site_fract_x
_atom_site_fract_y
_atom_site_fract_z
Si Si1 0.846183 0.549014 0.481177
Si Si2 0.189131 0.164720 0.635030
Si Si3 0.953437 0.606469 0.296426
Si Si4 0.103469 0.734983 0.911009
Si Si5 0.708552 0.513241 0.521446
Si Si6 0.492551 0.576796 0.561207
Si Si7 0.753885 0.339000 0.745198
O O1 0.919213 0.634540 0.584200
O O2 0.728147 0.537851 0.442687
O O3 0.787877 0.582183 0.340254
O O4 0.939604 0.463154 0.569254
O O5 0.083708 0.209517 0.477613
O O6 0.236179 0.089024 0.614989
O O7 0.274724 0.248751 0.733519
O O8 0.130145 0.125882 0.668522
O O9 0.828395 0.550997 0.151368
O O10 0.888486 0.667319 0.309191
O O11 0.000000 0.649721 0.250000
O O12 0.000000 0.763988 0.750000
O O13 0.250000 0.750000 0.000000
O O14 0.565902 0.469603 0.409557
O O15 0.500000 0.500000 0.500000
O O16 0.372414 0.638139 0.423743
#
# Coordination Sequence:
#
# PCOD9261777 Si02
#       7
#     8   8   8   8   8   8   8
#     4  10  19  31  53  79 111 139 180 229 278 339
#     4  10  21  31  53  76 111 144 182 227 274 333
#     4   9  18  34  56  74 103 142 180 224 272 329
#     4  11  22  32  50  83 119 147 181 226 293 347
#     4   9  17  34  53  77 107 145 178 218 279 333
#     4   9  20  37  53  74 108 149 184 223 278 339
#     4  10  21  33  54  82 106 136 184 229 279 334
#
# _framework density 22.787880000000001
#
# number of rings (size 3 to 8) (size 9 to 14) (size 15 to 20)
#    0.000    2.286    1.429    1.714    4.000    1.143 
#    0.000    3.571    0.000   12.857    0.000    0.000 
#    0.000    0.000    0.000    0.000    0.000    0.000 
#
# Total GULP energy -156043.224946 kJ/mol
# GULP energy per Si atom -5572.972320 kJ/mol
# Density = 2.273601 g / cm^3
# Si number density = 22.787880 Si / 1000 Ang^3
#
#
#
# Elastic Constant Matrix: (Units=GPa)
#
#
# Indices 1 2 3 4 5 6 
#
# 1 118.7517 2.5161 -0.1565 0.0000 -3.7560 0.0000
# 2 2.5161 34.5113 -10.6741 0.0001 1.2079 0.0000
# 3 -0.1565 -10.6741 27.1618 0.0001 4.3154 0.0000
# 4 0.0000 0.0001 0.0001 -6.1955 0.0000 -23.8643
# 5 -3.7560 1.2079 4.3154 0.0000 24.5800 0.0000
# 6 0.0000 0.0000 0.0000 -23.8643 0.0000 -47.9471
#
#
#
# Elastic Compliance Matrix: (Units=1/GPa)
#
#
# Indices 1 2 3 4 5 6 
#
# 1 0.008483 -0.000823 -0.000501 0.000000 0.001425 0.000000
# 2 -0.000823 0.033454 0.013808 0.000000 -0.004194 0.000000
# 3 -0.000501 0.013808 0.043575 0.000000 -0.008405 0.000000
# 4 0.000000 0.000000 0.000000 0.175988 0.000000 -0.087593
# 5 0.001425 -0.004194 -0.008405 0.000000 0.042583 0.000000
# 6 0.000000 0.000000 0.000000 -0.087593 0.000000 0.022740
#
#
# Mechanical properties :
#
#
# Convention : Reuss Voigt Hill
#
# Bulk Modulus (GPa) = 9.05143 18.19954 13.62548
# Shear Modulus (GPa) = 14.76311 6.67010 10.71660
#
# Velocity S-wave (km/s) = 2.54805 1.71271 2.17094
# Velocity P-wave (km/s) = 3.55491 3.45181 3.50374
#
# Compressibility (1/GPa) = 0.11047980
#
# Stress axis : x y z
#
# Youngs Moduli (GPa) = 117.88596 29.89211 22.94876
#
# Poissons Ratio (x) = 0.02461 0.01150
# Poissons Ratio (y) = 0.09705 -0.31688
# Poissons Ratio (z) = 0.05906 -0.41276
#
# Static dielectric constant tensor:
#      x y z
#    x 2.059080 0.000000 -0.049460 
#    y 0.000000 1.948580 0.000000 
#    z -0.049460 0.000000 1.899040 
# 
# From -- ./inp_files/155243.got.cif
#   From: 2010.05.17/outbox.cif.g08.bks.cpg/sg15_78_cif.got.tgz:155243.got - 2010.06.03 18:47:42.
