data_PCOD9261567
_publ_section_title
;
Structure prediction by ZEFSAII (Michael W. Deem and Ramdas Pophale) SiO2 
 PCOD9261567
Probable space group: C 2/C
;
_chemical_formula_sum "Si O2"
_cell_formula_units_Z 48
_cell_length_a 12.111699
_cell_length_b 9.766540
_cell_length_c 14.147479
_cell_angle_alpha 90.000000
_cell_angle_beta 86.795578
_cell_angle_gamma 90.000000
_cell_volume 1670.880109
_symmetry_space_group_name_H-M "C 2/C"
_symmetry_group_IT_number 15
_symmetry_cell_setting 'monoclinic'
loop_
_space_group_symop_operation_xyz
x,y,z
-x,y,1/2-z
-x,-y,-z
x,-y,1/2+z
1/2+x,1/2+y,z
1/2-x,1/2+y,1/2-z
1/2-x,1/2-y,-z
1/2+x,1/2-y,1/2+z
loop_
_atom_site_type_symbol
_atom_site_label
_atom_site_fract_x
_atom_site_fract_y
_atom_site_fract_z
Si Si1 0.499070 0.315558 0.906740
Si Si2 0.780276 0.290336 0.390448
Si Si3 0.428360 0.973336 0.160456
Si Si4 0.460515 0.712055 0.625200
Si Si5 0.277544 0.421937 0.590038
Si Si6 0.304469 0.625415 0.864028
O O1 0.383659 0.302307 0.855785
O O2 0.548540 0.161167 0.903545
O O3 0.597056 0.417682 0.874254
O O4 0.465688 0.338672 0.016526
O O5 0.750000 0.250000 0.500000
O O6 0.667457 0.294866 0.336808
O O7 0.803940 0.451416 0.392738
O O8 0.500000 0.947195 0.250000
O O9 0.293850 0.963843 0.178559
O O10 0.468669 0.121442 0.123605
O O11 0.565396 0.635686 0.665573
O O12 0.295422 0.413681 0.476145
O O13 0.227488 0.284876 0.633421
#
# Coordination Sequence:
#
# PCOD9261567 Si02
#       6
#     8   8   8   8   8   8
#     4   9  19  35  58  84 112 146 189 239 281 333
#     4  10  19  30  53  88 120 143 177 232 294 339
#     4  11  22  38  57  81 109 151 196 233 284 344
#     4  10  20  34  58  86 114 145 184 238 285 338
#     4   9  17  31  55  85 111 141 186 234 280 334
#     4   9  18  34  57  79 109 145 188 235 279 333
#
# _framework density 28.727376
#
# number of rings (size 3 to 8) (size 9 to 14) (size 15 to 20)
#    0.000    2.333    0.000    4.500    0.000    7.333 
#    3.000    0.000    0.000    1.000    0.000    0.000 
#    0.000    0.000    0.000    0.000    0.000    0.000 
#
# Total GULP energy -134271.510963 kJ/mol
# GULP energy per Si atom -5594.646290 kJ/mol
# Density = 2.866199 g / cm^3
# Si number density = 28.727376 Si / 1000 Ang^3
#
#
#
# Elastic Constant Matrix: (Units=GPa)
#
#
# Indices 1 2 3 4 5 6 
#
# 1 249.4893 34.6968 50.4512 0.0000 42.1228 0.0000
# 2 34.6968 107.8578 9.9516 0.0000 3.2513 0.0000
# 3 50.4512 9.9516 86.4288 0.0000 11.5386 0.0000
# 4 0.0000 0.0000 0.0000 -5.6605 0.0000 14.0056
# 5 42.1228 3.2513 11.5386 0.0000 49.9062 0.0000
# 6 0.0000 0.0000 0.0000 14.0056 0.0000 65.7003
#
#
#
# Elastic Compliance Matrix: (Units=1/GPa)
#
#
# Indices 1 2 3 4 5 6 
#
# 1 0.005346 -0.001378 -0.002447 0.000000 -0.003856 0.000000
# 2 -0.001378 0.009733 -0.000399 0.000000 0.000621 0.000000
# 3 -0.002447 -0.000399 0.013172 0.000000 -0.000954 0.000000
# 4 0.000000 0.000000 0.000000 -0.115660 0.000000 0.024656
# 5 -0.003856 0.000621 -0.000954 0.000000 0.023473 0.000000
# 6 0.000000 0.000000 0.000000 0.024656 0.000000 0.009965
#
#
# Mechanical properties :
#
#
# Convention : Reuss Voigt Hill
#
# Bulk Modulus (GPa) = 50.49892 70.44168 60.47030
# Shear Modulus (GPa) = -128.45933 45.23431 -41.61251
#
# Velocity S-wave (km/s) = -6.69431 3.97244 -3.81009
# Velocity P-wave (km/s) = 6.49114 6.75384 1.31899
#
# Compressibility (1/GPa) = 0.01980240
#
# Stress axis : x y z
#
# Youngs Moduli (GPa) = 187.06568 102.74567 75.91891
#
# Poissons Ratio (x) = 0.14155 0.18577
# Poissons Ratio (y) = 0.25771 0.03032
# Poissons Ratio (z) = 0.45775 0.04104
#
# Static dielectric constant tensor:
#      x y z
#    x 2.195940 0.000000 -0.202740 
#    y 0.000000 2.244420 0.000000 
#    z -0.202740 0.000000 1.756130 
# 
# From -- ./inp_files/196233.got.cif
#   From: 2010.05.17/outbox.cif.g08.bks.cpg/sg15_99_cif.got.tgz:196233.got - 2010.06.03 18:47:42.
