data_PCOD9261192
_publ_section_title
;
Structure prediction by ZEFSAII (Michael W. Deem and Ramdas Pophale) SiO2 
 PCOD9261192
Probable space group: C 2/C
;
_chemical_formula_sum "Si O2"
_cell_formula_units_Z 52
_cell_length_a 18.595514
_cell_length_b 9.970931
_cell_length_c 15.639361
_cell_angle_alpha 90.000000
_cell_angle_beta 58.426763
_cell_angle_gamma 90.000000
_cell_volume 2470.517979
_symmetry_space_group_name_H-M "C 2/C"
_symmetry_group_IT_number 15
_symmetry_cell_setting 'monoclinic'
loop_
_space_group_symop_operation_xyz
x,y,z
-x,y,1/2-z
-x,-y,-z
x,-y,1/2+z
1/2+x,1/2+y,z
1/2-x,1/2+y,1/2-z
1/2-x,1/2-y,-z
1/2+x,1/2-y,1/2+z
loop_
_atom_site_type_symbol
_atom_site_label
_atom_site_fract_x
_atom_site_fract_y
_atom_site_fract_z
Si Si1 0.619607 0.997580 0.074983
Si Si2 0.000000 0.705007 0.750000
Si Si3 0.193707 0.981593 0.504240
Si Si4 0.503531 0.851503 0.539199
Si Si5 0.328892 0.214882 0.094910
Si Si6 0.150445 0.111826 0.219882
Si Si7 0.581051 0.407805 0.936004
O O1 0.557198 0.891947 0.157300
O O2 0.707653 0.018361 0.068976
O O3 0.562355 0.123786 0.084947
O O4 0.654277 0.919482 0.970202
O O5 0.932285 0.799928 0.746582
O O6 0.173428 0.838356 0.470595
O O7 0.167876 0.967353 0.620178
O O8 0.137811 0.082571 0.484847
O O9 0.409136 0.790874 0.608342
O O10 0.550075 0.745428 0.449215
O O11 0.500000 0.000000 0.500000
O O12 0.233917 0.200338 0.187133
O O13 0.130205 0.040026 0.321828
O O14 0.500000 0.500000 0.000000
#
# Coordination Sequence:
#
# PCOD9261192 Si02
#       7
#     8   4   8   8   8   8   8
#     4  10  21  36  63  92 131 169 219 283 332 398
#     4  12  18  34  66  94 122 178 238 260 336 422
#     4  11  21  43  66  96 140 171 232 289 337 406
#     4  10  22  42  63  92 132 172 220 282 343 399
#     4  10  18  41  63  93 131 168 220 288 327 405
#     4  11  22  38  68  96 129 186 226 271 345 415
#     4  12  25  42  67 101 137 179 229 286 345 419
#
# _framework density 21.048217000000001
#
# number of rings (size 3 to 8) (size 9 to 14) (size 15 to 20)
#    0.000    1.231    4.615    3.692    0.000    1.846 
#    8.308    1.538    0.000    0.000    0.000    0.000 
#    0.000    0.000    0.000    0.000    0.000    0.000 
#
# Total GULP energy -144860.869349 kJ/mol
# GULP energy per Si atom -5571.571898 kJ/mol
# Density = 2.100031 g / cm^3
# Si number density = 21.048217 Si / 1000 Ang^3
#
#
#
# Elastic Constant Matrix: (Units=GPa)
#
#
# Indices 1 2 3 4 5 6 
#
# 1 173.7179 31.4780 34.6565 0.0000 -18.2681 0.0000
# 2 31.4780 54.1212 16.7864 0.0000 2.8541 0.0000
# 3 34.6565 16.7864 86.1804 0.0000 0.3682 0.0000
# 4 0.0000 0.0000 0.0000 18.0869 0.0000 -9.6995
# 5 -18.2681 2.8541 0.3682 0.0000 23.3888 0.0000
# 6 0.0000 0.0000 0.0000 -9.6995 0.0000 39.4018
#
#
#
# Elastic Compliance Matrix: (Units=1/GPa)
#
#
# Indices 1 2 3 4 5 6 
#
# 1 0.007637 -0.004069 -0.002306 0.000000 0.006498 0.000000
# 2 -0.004069 0.021962 -0.002617 0.000000 -0.005817 0.000000
# 3 -0.002306 -0.002617 0.013048 0.000000 -0.001688 0.000000
# 4 0.000000 0.000000 0.000000 0.063697 0.000000 0.015680
# 5 0.006498 -0.005817 -0.001688 0.000000 0.048567 0.000000
# 6 0.000000 0.000000 0.000000 0.015680 0.000000 0.029240
#
#
# Mechanical properties :
#
#
# Convention : Reuss Voigt Hill
#
# Bulk Modulus (GPa) = 40.54680 53.31793 46.93236
# Shear Modulus (GPa) = 23.76913 31.58210 27.67561
#
# Velocity S-wave (km/s) = 3.36411 3.87779 3.63004
# Velocity P-wave (km/s) = 5.86474 6.74062 6.31788
#
# Compressibility (1/GPa) = 0.02466286
#
# Stress axis : x y z
#
# Youngs Moduli (GPa) = 130.93667 45.53283 76.64062
#
# Poissons Ratio (x) = 0.18529 0.17676
# Poissons Ratio (y) = 0.53282 0.20053
# Poissons Ratio (z) = 0.30199 0.11914
#
# Static dielectric constant tensor:
#      x y z
#    x 1.915490 0.000000 0.016000 
#    y 0.000000 1.793790 0.000000 
#    z 0.016000 0.000000 1.797760 
# 
# From -- ./inp_files/160758.got.cif
#   From: 2010.05.17/outbox.cif.g08.bks.cpg/sg15_81_cif.got.tgz:160758.got - 2010.06.03 18:47:42.
