data_PCOD9261608
_publ_section_title
;
Structure prediction by ZEFSAII (Michael W. Deem and Ramdas Pophale) SiO2 
 PCOD9261608
Probable space group: C 2/C
;
_chemical_formula_sum "Si O2"
_cell_formula_units_Z 60
_cell_length_a 26.543025
_cell_length_b 26.933186
_cell_length_c 5.602264
_cell_angle_alpha 90.000000
_cell_angle_beta 64.989614
_cell_angle_gamma 90.000000
_cell_volume 3629.449098
_symmetry_space_group_name_H-M "C 2/C"
_symmetry_group_IT_number 15
_symmetry_cell_setting 'monoclinic'
loop_
_space_group_symop_operation_xyz
x,y,z
-x,y,1/2-z
-x,-y,-z
x,-y,1/2+z
1/2+x,1/2+y,z
1/2-x,1/2+y,1/2-z
1/2-x,1/2-y,-z
1/2+x,1/2-y,1/2+z
loop_
_atom_site_type_symbol
_atom_site_label
_atom_site_fract_x
_atom_site_fract_y
_atom_site_fract_z
Si Si1 0.804433 0.713805 0.884119
Si Si2 0.390157 0.699986 0.225399
Si Si3 0.324494 0.375785 0.171571
Si Si4 0.582818 0.522084 0.486309
Si Si5 0.071678 0.124688 0.719381
Si Si6 0.789649 0.984853 0.212716
Si Si7 0.000000 0.830293 0.750000
Si Si8 0.768272 0.691797 0.456136
O O1 0.858636 0.748381 0.769472
O O2 0.799667 0.684156 0.645539
O O3 0.750000 0.750000 0.000000
O O4 0.800461 0.684987 0.143142
O O5 0.345501 0.661271 0.424958
O O6 0.445110 0.699758 0.281150
O O7 0.409590 0.675986 0.939178
O O8 0.379868 0.392044 0.197958
O O9 0.296349 0.426411 0.147005
O O10 0.285013 0.343731 0.422389
O O11 0.561267 0.501915 0.276786
O O12 0.570585 0.580227 0.533745
O O13 0.649262 0.510347 0.368171
O O14 0.018884 0.136659 0.987450
O O15 0.763287 0.991134 0.528868
O O16 0.750000 0.750000 0.500000
#
# Coordination Sequence:
#
# PCOD9261608 Si02
#       8
#     8   8   8   8   8   8   4   8
#     4  10  19  33  51  73 100 115 146 194 247 302
#     4  11  21  35  53  67  94 125 156 205 255 303
#     4  11  20  29  55  69  97 126 152 210 259 291
#     4  10  19  34  50  67  88 112 162 208 255 300
#     4  11  21  35  52  65  90 123 163 214 255 299
#     4  10  19  31  44  71  93 122 166 195 244 300
#     4  10  26  36  46  74  86 124 174 196 264 308
#     4  10  19  32  45  80  97 116 152 188 257 304
#
# _framework density 16.531434000000001
#
# number of rings (size 3 to 8) (size 9 to 14) (size 15 to 20)
#    0.000    1.600    5.333    3.600    3.733    0.000 
#    0.000    0.667    0.000    0.000    0.000    0.000 
#    0.000    0.000    0.000    0.000    0.000    0.000 
#
# Total GULP energy -167352.821604 kJ/mol
# GULP energy per Si atom -5578.427387 kJ/mol
# Density = 1.649381 g / cm^3
# Si number density = 16.531434 Si / 1000 Ang^3
#
#
#
# Elastic Constant Matrix: (Units=GPa)
#
#
# Indices 1 2 3 4 5 6 
#
# 1 42.1307 15.1502 19.4191 0.0000 7.3311 0.0000
# 2 15.1502 30.5930 22.4734 0.0000 -12.8024 0.0000
# 3 19.4191 22.4734 110.2662 0.0000 21.1007 0.0000
# 4 0.0000 0.0000 0.0000 22.9743 0.0000 4.4069
# 5 7.3311 -12.8024 21.1007 0.0000 30.3956 0.0000
# 6 0.0000 0.0000 0.0000 4.4069 0.0000 7.5052
#
#
#
# Elastic Compliance Matrix: (Units=1/GPa)
#
#
# Indices 1 2 3 4 5 6 
#
# 1 0.038570 -0.035010 0.005702 0.000000 -0.028007 0.000000
# 2 -0.035010 0.098825 -0.027166 0.000000 0.068927 0.000000
# 3 0.005702 -0.027166 0.018514 0.000000 -0.025669 0.000000
# 4 0.000000 0.000000 0.000000 0.049052 0.000000 -0.028802
# 5 -0.028007 0.068927 -0.025669 0.000000 0.086506 0.000000
# 6 0.000000 0.000000 0.000000 -0.028802 0.000000 0.150152
#
#
# Mechanical properties :
#
#
# Convention : Reuss Voigt Hill
#
# Bulk Modulus (GPa) = 23.27650 33.00836 28.14243
# Shear Modulus (GPa) = 8.78912 20.57150 14.68031
#
# Velocity S-wave (km/s) = 2.30828 3.53141 2.98321
# Velocity P-wave (km/s) = 4.60597 6.05295 5.37834
#
# Compressibility (1/GPa) = 0.04296178
#
# Stress axis : x y z
#
# Youngs Moduli (GPa) = 25.92667 10.11895 54.01447
#
# Poissons Ratio (x) = 0.35426 -0.30800
# Poissons Ratio (y) = 0.90768 1.46734
# Poissons Ratio (z) = -0.14784 0.27489
#
# Static dielectric constant tensor:
#      x y z
#    x 1.591310 0.000000 0.043050 
#    y 0.000000 1.544590 0.000000 
#    z 0.043050 0.000000 1.627630 
# 
# From -- ./inp_files/14296.got.cif
#   From: 2010.05.17/outbox.cif.g08.bks.cpg/sg15_8_cif.got.tgz:14296.got - 2010.06.03 18:47:42.
