data_PCOD9261744
_publ_section_title
;
Structure prediction by ZEFSAII (Michael W. Deem and Ramdas Pophale) SiO2 
 PCOD9261744
Probable space group: C 2/C
;
_chemical_formula_sum "Si O2"
_cell_formula_units_Z 48
_cell_length_a 9.133802
_cell_length_b 24.177085
_cell_length_c 15.718707
_cell_angle_alpha 90.000000
_cell_angle_beta 143.700826
_cell_angle_gamma 90.000000
_cell_volume 2054.921330
_symmetry_space_group_name_H-M "C 2/C"
_symmetry_group_IT_number 15
_symmetry_cell_setting 'monoclinic'
loop_
_space_group_symop_operation_xyz
x,y,z
-x,y,1/2-z
-x,-y,-z
x,-y,1/2+z
1/2+x,1/2+y,z
1/2-x,1/2+y,1/2-z
1/2-x,1/2-y,-z
1/2+x,1/2-y,1/2+z
loop_
_atom_site_type_symbol
_atom_site_label
_atom_site_fract_x
_atom_site_fract_y
_atom_site_fract_z
Si Si1 0.585345 0.629659 0.119228
Si Si2 0.043625 0.175758 0.620035
Si Si3 0.235244 0.285989 0.657956
Si Si4 0.272814 0.580756 0.587996
Si Si5 0.736652 0.973648 0.890507
Si Si6 0.954363 0.365739 0.069197
O O1 0.699355 0.662736 0.250820
O O2 0.750376 0.578439 0.167973
O O3 0.557383 0.666188 0.021720
O O4 0.301806 0.615500 0.009708
O O5 0.087139 0.241125 0.643424
O O6 0.312135 0.147148 0.761142
O O7 0.863226 0.142245 0.598587
O O8 0.500000 0.261746 0.750000
O O9 0.102484 0.309824 0.511923
O O10 0.500000 0.557753 0.750000
O O11 0.223977 0.545986 0.481418
O O12 0.045137 0.589186 0.543718
O O13 0.500000 0.008255 0.750000
O O14 0.000000 0.000000 0.000000
#
# Coordination Sequence:
#
# PCOD9261744 Si02
#       6
#     8   8   8   8   8   8
#     4  10  21  37  60  86 119 160 202 253 304 361
#     4  10  19  32  54  84 121 164 207 246 293 361
#     4  10  19  31  51  83 119 160 206 251 300 358
#     4   9  21  40  60  88 124 159 201 257 312 368
#     4  11  25  46  69  94 122 160 209 261 319 377
#     4  10  19  34  55  81 118 159 200 248 306 361
#
# _framework density 23.358560000000001
#
# number of rings (size 3 to 8) (size 9 to 14) (size 15 to 20)
#    0.000    2.000    0.000    3.500    0.000    7.333 
#    0.000   13.333    0.000    0.000    0.000    0.000 
#    0.000    0.000    0.000    0.000    0.000    0.000 
#
# Total GULP energy -134221.024851 kJ/mol
# GULP energy per Si atom -5592.542702 kJ/mol
# Density = 2.330539 g / cm^3
# Si number density = 23.358560 Si / 1000 Ang^3
#
#
#
# Elastic Constant Matrix: (Units=GPa)
#
#
# Indices 1 2 3 4 5 6 
#
# 1 54.8396 4.2336 -4.6722 0.0000 1.2920 0.0000
# 2 4.2336 16.3489 14.2385 0.0000 -0.1570 0.0000
# 3 -4.6722 14.2385 81.4470 0.0000 -0.5885 0.0000
# 4 0.0000 0.0000 0.0000 9.5855 0.0000 7.3582
# 5 1.2920 -0.1570 -0.5885 0.0000 36.3275 0.0000
# 6 0.0000 0.0000 0.0000 7.3582 0.0000 2.8333
#
#
#
# Elastic Compliance Matrix: (Units=1/GPa)
#
#
# Indices 1 2 3 4 5 6 
#
# 1 0.018980 -0.006919 0.002294 0.000000 -0.000668 0.000000
# 2 -0.006919 0.074674 -0.013449 0.000000 0.000351 0.000000
# 3 0.002294 -0.013449 0.014761 0.000000 0.000099 0.000000
# 4 0.000000 0.000000 0.000000 -0.104996 0.000000 0.272681
# 5 -0.000668 0.000351 0.000099 0.000000 0.027554 0.000000
# 6 0.000000 0.000000 0.000000 0.272681 0.000000 -0.355220
#
#
# Mechanical properties :
#
#
# Convention : Reuss Voigt Hill
#
# Bulk Modulus (GPa) = 13.83752 20.02613 16.93182
# Shear Modulus (GPa) = -18.93873 19.00496 0.03311
#
# Velocity S-wave (km/s) = -2.85052 2.85549 0.11919
# Velocity P-wave (km/s) = 2.21294 4.41178 2.69877
#
# Compressibility (1/GPa) = 0.07226730
#
# Stress axis : x y z
#
# Youngs Moduli (GPa) = 52.68630 13.39156 67.74469
#
# Poissons Ratio (x) = 0.09265 -0.15537
# Poissons Ratio (y) = 0.36453 0.91108
# Poissons Ratio (z) = -0.12084 0.18010
#
# Static dielectric constant tensor:
#      x y z
#    x 1.920110 0.000000 0.075080 
#    y 0.000000 1.908250 0.000000 
#    z 0.075080 0.000000 1.910170 
# 
# From -- ./inp_files/139044.got.cif
#   From: 2010.05.17/outbox.cif.g08.bks.cpg/sg15_70_cif.got.tgz:139044.got - 2010.06.03 18:47:42.
