data_PCOD9261533
_publ_section_title
;
Structure prediction by ZEFSAII (Michael W. Deem and Ramdas Pophale) SiO2 
 PCOD9261533
Probable space group: C 2/C
;
_chemical_formula_sum "Si O2"
_cell_formula_units_Z 60
_cell_length_a 29.418019
_cell_length_b 18.505407
_cell_length_c 5.392791
_cell_angle_alpha 90.000000
_cell_angle_beta 87.246919
_cell_angle_gamma 90.000000
_cell_volume 2932.406036
_symmetry_space_group_name_H-M "C 2/C"
_symmetry_group_IT_number 15
_symmetry_cell_setting 'monoclinic'
loop_
_space_group_symop_operation_xyz
x,y,z
-x,y,1/2-z
-x,-y,-z
x,-y,1/2+z
1/2+x,1/2+y,z
1/2-x,1/2+y,1/2-z
1/2-x,1/2-y,-z
1/2+x,1/2-y,1/2+z
loop_
_atom_site_type_symbol
_atom_site_label
_atom_site_fract_x
_atom_site_fract_y
_atom_site_fract_z
Si Si1 0.111794 0.512638 0.263498
Si Si2 0.500000 0.197495 0.250000
Si Si3 0.051154 0.026420 0.557118
Si Si4 0.461345 0.326350 0.577890
Si Si5 0.287423 0.043997 0.751001
Si Si6 0.273166 0.781205 0.244072
Si Si7 0.401264 0.833284 0.661093
Si Si8 0.622194 0.756308 0.328802
O O1 0.085129 0.499484 0.520754
O O2 0.157153 0.464028 0.259459
O O3 0.126649 0.595426 0.268171
O O4 0.482651 0.252886 0.465994
O O5 0.544717 0.155082 0.318936
O O6 0.048173 0.111269 0.617887
O O7 0.073401 0.985786 0.781633
O O8 0.000000 0.000000 0.500000
O O9 0.500000 0.355452 0.750000
O O10 0.412990 0.308543 0.711992
O O11 0.275036 0.129772 0.747519
O O12 0.272782 0.999215 0.506463
O O13 0.250000 0.750000 0.500000
O O14 0.324497 0.750367 0.223902
O O15 0.250000 0.750000 0.000000
O O16 0.392952 0.812500 0.380106
O O17 0.386714 0.777557 0.880860
#
# Coordination Sequence:
#
# PCOD9261533 Si02
#       8
#     8   4   8   8   8   8   8   8
#     4  10  19  33  55  82 114 149 204 252 281 349
#     4  10  22  34  54  88 128 172 194 258 304 366
#     4  10  19  30  51  77 110 146 202 246 282 342
#     4  11  20  35  57  87 120 156 202 242 302 377
#     4  10  19  36  64  93 117 162 216 260 311 384
#     4  12  25  43  67  98 132 162 216 282 334 383
#     4  11  21  37  59  90 129 160 212 245 301 356
#     4  11  23  38  62  90 124 164 198 255 317 372
#
# _framework density 20.461015
#
# number of rings (size 3 to 8) (size 9 to 14) (size 15 to 20)
#    0.000    1.333    2.667    6.400    0.000    0.000 
#    0.000    0.667    0.000    4.800    0.000    0.000 
#    0.000    0.000    0.000    0.000    0.000    0.000 
#
# Total GULP energy -167053.550025 kJ/mol
# GULP energy per Si atom -5568.451667 kJ/mol
# Density = 2.041445 g / cm^3
# Si number density = 20.461015 Si / 1000 Ang^3
#
#
#
# Elastic Constant Matrix: (Units=GPa)
#
#
# Indices 1 2 3 4 5 6 
#
# 1 102.2411 31.0021 24.2885 0.0000 -3.6569 0.0000
# 2 31.0021 114.0597 35.5388 0.0000 -2.1063 0.0000
# 3 24.2885 35.5388 133.3880 0.0000 12.0634 0.0000
# 4 0.0000 0.0000 0.0000 34.6971 0.0000 -7.5999
# 5 -3.6569 -2.1063 12.0634 0.0000 25.6568 0.0000
# 6 0.0000 0.0000 0.0000 -7.5999 0.0000 5.2459
#
#
#
# Elastic Compliance Matrix: (Units=1/GPa)
#
#
# Indices 1 2 3 4 5 6 
#
# 1 0.010966 -0.002466 -0.001528 0.000000 0.002079 0.000000
# 2 -0.002466 0.010222 -0.002422 0.000000 0.001626 0.000000
# 3 -0.001528 -0.002422 0.008834 0.000000 -0.004570 0.000000
# 4 0.000000 0.000000 0.000000 0.042218 0.000000 0.061162
# 5 0.002079 0.001626 -0.004570 0.000000 0.041555 0.000000
# 6 0.000000 0.000000 0.000000 0.061162 0.000000 0.279233
#
#
# Mechanical properties :
#
#
# Convention : Reuss Voigt Hill
#
# Bulk Modulus (GPa) = 58.17062 59.03862 58.60462
# Shear Modulus (GPa) = 12.14808 30.37727 21.26267
#
# Velocity S-wave (km/s) = 2.43928 3.85728 3.22713
# Velocity P-wave (km/s) = 6.03532 6.98248 6.52611
#
# Compressibility (1/GPa) = 0.01719081
#
# Stress axis : x y z
#
# Youngs Moduli (GPa) = 91.19189 97.82629 113.20457
#
# Poissons Ratio (x) = 0.24126 0.17294
# Poissons Ratio (y) = 0.22490 0.27413
# Poissons Ratio (z) = 0.13931 0.23689
#
# Static dielectric constant tensor:
#      x y z
#    x 1.707990 0.000000 0.007050 
#    y 0.000000 1.781350 0.000000 
#    z 0.007050 0.000000 1.859740 
# 
# From -- ./inp_files/18366.got.cif
#   From: 2010.05.17/outbox.cif.g08.bks.cpg/sg15_10_cif.got.tgz:18366.got - 2010.06.03 18:47:42.
