data_PCOD9261332
_publ_section_title
;
Structure prediction by ZEFSAII (Michael W. Deem and Ramdas Pophale) SiO2 
 PCOD9261332
Probable space group: C 2/C
;
_chemical_formula_sum "Si O2"
_cell_formula_units_Z 40
_cell_length_a 13.038266
_cell_length_b 23.810470
_cell_length_c 11.939974
_cell_angle_alpha 90.000000
_cell_angle_beta 35.312149
_cell_angle_gamma 90.000000
_cell_volume 2142.604759
_symmetry_space_group_name_H-M "C 2/C"
_symmetry_group_IT_number 15
_symmetry_cell_setting 'monoclinic'
loop_
_space_group_symop_operation_xyz
x,y,z
-x,y,1/2-z
-x,-y,-z
x,-y,1/2+z
1/2+x,1/2+y,z
1/2-x,1/2+y,1/2-z
1/2-x,1/2-y,-z
1/2+x,1/2-y,1/2+z
loop_
_atom_site_type_symbol
_atom_site_label
_atom_site_fract_x
_atom_site_fract_y
_atom_site_fract_z
Si Si1 0.695627 0.991980 0.065446
Si Si2 0.288146 0.814670 0.443948
Si Si3 0.297397 0.894836 0.247881
Si Si4 0.034995 0.943910 0.041878
Si Si5 0.791234 0.599615 0.132172
O O1 0.500000 0.017924 0.250000
O O2 0.697311 0.943079 0.159700
O O3 0.850137 0.034747 0.956550
O O4 0.717589 0.959035 0.929548
O O5 0.500000 0.823090 0.250000
O O6 0.250000 0.750000 0.500000
O O7 0.229837 0.840345 0.376931
O O8 0.225568 0.852956 0.603429
O O9 0.154283 0.913272 0.283876
O O10 0.500713 0.889841 0.026642
O O11 0.166633 0.906016 0.849384
O O12 0.000000 0.000000 0.000000
#
# Coordination Sequence:
#
# PCOD9261332 Si02
#       5
#     8   8   8   8   8
#     4   8  16  29  43  63  89 124 161 186 228 282
#     4   9  18  29  46  69  92 130 161 188 239 286
#     4   8  17  30  41  62  92 121 158 188 223 282
#     4  10  19  28  46  67  87 133 165 187 233 277
#     4   9  18  33  44  61 102 128 149 200 231 273
#
# _framework density 18.668865
#
# number of rings (size 3 to 8) (size 9 to 14) (size 15 to 20)
#    0.000    3.200    0.000    2.400    2.800   13.600 
#    0.000    2.000    0.000    0.000    0.000    0.000 
#    0.000    1.600    3.600    5.000    0.800    0.000 
#
# Total GULP energy -111522.412935 kJ/mol
# GULP energy per Si atom -5576.120647 kJ/mol
# Density = 1.862637 g / cm^3
# Si number density = 18.668865 Si / 1000 Ang^3
#
#
#
# Elastic Constant Matrix: (Units=GPa)
#
#
# Indices 1 2 3 4 5 6 
#
# 1 77.6517 34.1281 26.4164 0.0000 -25.1266 0.0000
# 2 34.1281 76.8400 20.6254 0.0000 -6.2644 0.0000
# 3 26.4164 20.6254 64.6923 0.0000 -7.7682 0.0000
# 4 0.0000 0.0000 0.0000 24.2017 0.0000 -2.0075
# 5 -25.1266 -6.2644 -7.7682 0.0000 20.6454 0.0000
# 6 0.0000 0.0000 0.0000 -2.0075 0.0000 18.0254
#
#
#
# Elastic Compliance Matrix: (Units=1/GPa)
#
#
# Indices 1 2 3 4 5 6 
#
# 1 0.027954 -0.008638 -0.005122 0.000000 0.029473 0.000000
# 2 -0.008638 0.017050 -0.002671 0.000000 -0.006344 0.000000
# 3 -0.005122 -0.002671 0.018385 0.000000 -0.000126 0.000000
# 4 0.000000 0.000000 0.000000 0.041705 0.000000 0.004645
# 5 0.029473 -0.006344 -0.000126 0.000000 0.082335 0.000000
# 6 0.000000 0.000000 0.000000 0.004645 0.000000 0.055995
#
#
# Mechanical properties :
#
#
# Convention : Reuss Voigt Hill
#
# Bulk Modulus (GPa) = 32.75549 42.39150 37.57350
# Shear Modulus (GPa) = 17.45446 21.77545 19.61495
#
# Velocity S-wave (km/s) = 3.06101 3.41897 3.24493
# Velocity P-wave (km/s) = 5.48422 6.19211 5.84888
#
# Compressibility (1/GPa) = 0.03052923
#
# Stress axis : x y z
#
# Youngs Moduli (GPa) = 35.77353 58.65043 54.39080
#
# Poissons Ratio (x) = 0.50662 0.27856
# Poissons Ratio (y) = 0.30901 0.14525
# Poissons Ratio (z) = 0.18321 0.15663
#
# Static dielectric constant tensor:
#      x y z
#    x 1.701150 0.000000 -0.000180 
#    y 0.000000 1.660570 0.000000 
#    z -0.000180 0.000000 1.701710 
# 
# From -- ./inp_files/31721.got.cif
#   From: 2010.05.17/outbox.cif.g08.bks.cpg/sg15_16_cif.got.tgz:31721.got - 2010.06.03 18:47:42.
