data_PCOD9261859
_publ_section_title
;
Structure prediction by ZEFSAII (Michael W. Deem and Ramdas Pophale) SiO2 
 PCOD9261859
Probable space group: C 2/C
;
_chemical_formula_sum "Si O2"
_cell_formula_units_Z 52
_cell_length_a 20.772375
_cell_length_b 20.908030
_cell_length_c 7.613666
_cell_angle_alpha 90.000000
_cell_angle_beta 70.152583
_cell_angle_gamma 90.000000
_cell_volume 3110.270180
_symmetry_space_group_name_H-M "C 2/C"
_symmetry_group_IT_number 15
_symmetry_cell_setting 'monoclinic'
loop_
_space_group_symop_operation_xyz
x,y,z
-x,y,1/2-z
-x,-y,-z
x,-y,1/2+z
1/2+x,1/2+y,z
1/2-x,1/2+y,1/2-z
1/2-x,1/2-y,-z
1/2+x,1/2-y,1/2+z
loop_
_atom_site_type_symbol
_atom_site_label
_atom_site_fract_x
_atom_site_fract_y
_atom_site_fract_z
Si Si1 0.352271 0.023544 0.830523
Si Si2 0.500000 0.961498 0.750000
Si Si3 0.376290 0.785718 0.120530
Si Si4 0.300039 0.902262 0.036741
Si Si5 0.510516 0.854368 0.033757
Si Si6 0.161425 0.654966 0.468100
Si Si7 0.222106 0.189396 0.418208
O O1 0.321447 0.057601 0.687977
O O2 0.431824 0.002807 0.778054
O O3 0.339000 0.079702 0.983249
O O4 0.315419 0.955790 0.880433
O O5 0.507074 0.914039 0.575914
O O6 0.348458 0.840359 0.012904
O O7 0.457049 0.797506 0.049420
O O8 0.345011 0.806389 0.340582
O O9 0.349001 0.716314 0.091676
O O10 0.228127 0.869949 0.048343
O O11 0.500000 0.870093 0.250000
O O12 0.589052 0.834786 0.937370
O O13 0.225758 0.674271 0.290284
O O14 0.250000 0.250000 0.500000
#
# Coordination Sequence:
#
# PCOD9261859 Si02
#       7
#     8   4   8   8   8   8   8
#     4  11  22  31  49  73 107 145 177 211 258 313
#     4  12  22  32  52  74 118 158 180 212 260 314
#     4   9  19  34  52  68  96 139 186 224 265 311
#     4  10  19  32  43  69  95 131 179 212 250 305
#     4  10  21  35  50  79 110 142 194 221 265 314
#     4  10  21  34  50  73 103 137 177 226 266 313
#     4  10  20  35  51  67  93 139 187 225 266 309
#
# _framework density 16.718805
#
# number of rings (size 3 to 8) (size 9 to 14) (size 15 to 20)
#    0.000    1.846    1.538    3.231    7.538    1.231 
#    2.769    0.000    0.000    0.000    0.000    0.000 
#    0.000    0.000    0.000  224.308    0.000    0.308 
#
# Total GULP energy -144757.522288 kJ/mol
# GULP energy per Si atom -5567.597011 kJ/mol
# Density = 1.668075 g / cm^3
# Si number density = 16.718805 Si / 1000 Ang^3
#
#
#
# Elastic Constant Matrix: (Units=GPa)
#
#
# Indices 1 2 3 4 5 6 
#
# 1 86.7414 67.2428 31.3133 0.0000 13.4639 0.0000
# 2 67.2428 98.1853 33.1091 0.0000 3.8085 0.0000
# 3 31.3133 33.1091 71.3108 0.0000 14.7271 0.0000
# 4 0.0000 0.0000 0.0000 28.5040 0.0000 1.4594
# 5 13.4639 3.8085 14.7271 0.0000 20.8204 0.0000
# 6 0.0000 0.0000 0.0000 1.4594 0.0000 40.1733
#
#
#
# Elastic Compliance Matrix: (Units=1/GPa)
#
#
# Indices 1 2 3 4 5 6 
#
# 1 0.028620 -0.018743 -0.000879 0.000000 -0.014457 0.000000
# 2 -0.018743 0.024426 -0.005493 0.000000 0.011538 0.000000
# 3 -0.000879 -0.005493 0.019481 0.000000 -0.012206 0.000000
# 4 0.000000 0.000000 0.000000 0.035148 0.000000 -0.001277
# 5 -0.014457 0.011538 -0.012206 0.000000 0.063902 0.000000
# 6 0.000000 0.000000 0.000000 -0.001277 0.000000 0.024939
#
#
# Mechanical properties :
#
#
# Convention : Reuss Voigt Hill
#
# Bulk Modulus (GPa) = 44.85365 57.72974 51.29170
# Shear Modulus (GPa) = 19.67123 26.20438 22.93780
#
# Velocity S-wave (km/s) = 3.43387 3.96328 3.70804
# Velocity P-wave (km/s) = 6.52752 7.45307 7.00560
#
# Compressibility (1/GPa) = 0.02229473
#
# Stress axis : x y z
#
# Youngs Moduli (GPa) = 34.94079 40.93981 51.33328
#
# Poissons Ratio (x) = 0.76734 0.04513
# Poissons Ratio (y) = 0.65490 0.28200
# Poissons Ratio (z) = 0.03072 0.22490
#
# Static dielectric constant tensor:
#      x y z
#    x 1.609030 0.000000 0.050160 
#    y 0.000000 1.571720 0.000000 
#    z 0.050160 0.000000 1.725930 
# 
# From -- ./inp_files/57232.got.cif
#   From: 2010.05.17/outbox.cif.g08.bks.cpg/sg15_29_cif.got.tgz:57232.got - 2010.06.03 18:47:42.
