data_PCOD9261491
_publ_section_title
;
Structure prediction by ZEFSAII (Michael W. Deem and Ramdas Pophale) SiO2 
 PCOD9261491
Probable space group: C 2/C
;
_chemical_formula_sum "Si O2"
_cell_formula_units_Z 40
_cell_length_a 7.674983
_cell_length_b 31.966283
_cell_length_c 12.193325
_cell_angle_alpha 90.000000
_cell_angle_beta 143.409660
_cell_angle_gamma 90.000000
_cell_volume 1783.212881
_symmetry_space_group_name_H-M "C 2/C"
_symmetry_group_IT_number 15
_symmetry_cell_setting 'monoclinic'
loop_
_space_group_symop_operation_xyz
x,y,z
-x,y,1/2-z
-x,-y,-z
x,-y,1/2+z
1/2+x,1/2+y,z
1/2-x,1/2+y,1/2-z
1/2-x,1/2-y,-z
1/2+x,1/2-y,1/2+z
loop_
_atom_site_type_symbol
_atom_site_label
_atom_site_fract_x
_atom_site_fract_y
_atom_site_fract_z
Si Si1 0.178559 0.049697 0.679980
Si Si2 0.521991 0.707498 0.994109
Si Si3 0.583985 0.800861 0.612807
Si Si4 0.730035 0.857088 0.199239
Si Si5 0.722062 0.516382 0.456343
O O1 0.265327 0.096894 0.748912
O O2 0.163213 0.040278 0.542773
O O3 0.428804 0.022259 0.867980
O O4 0.873831 0.031823 0.571432
O O5 0.802639 0.703353 0.053210
O O6 0.636044 0.694279 0.169836
O O7 0.419568 0.755440 0.945629
O O8 0.290261 0.676758 0.823660
O O9 0.534505 0.839205 0.506296
O O10 0.000000 0.856451 0.250000
O O11 0.500000 0.532842 0.250000
#
# Coordination Sequence:
#
# PCOD9261491 Si02
#       5
#     8   8   8   8   8
#     4  10  22  38  59  89 113 150 194 235 285 343
#     4   9  15  25  42  68 104 151 183 216 276 332
#     4   9  15  25  42  67 105 150 183 219 275 329
#     4  10  19  30  48  79 117 147 188 233 273 338
#     4  10  21  40  62  82 112 153 187 240 293 341
#
# _framework density 22.431421
#
# number of rings (size 3 to 8) (size 9 to 14) (size 15 to 20)
#    0.000    2.400    2.000    1.200    0.000    1.600 
#    0.000   14.000    0.000    0.000    0.000    5.600 
#    0.000    0.000    0.000    0.400    0.000    0.000 
#
# Total GULP energy -111632.728892 kJ/mol
# GULP energy per Si atom -5581.636445 kJ/mol
# Density = 2.238037 g / cm^3
# Si number density = 22.431421 Si / 1000 Ang^3
#
#
#
# Elastic Constant Matrix: (Units=GPa)
#
#
# Indices 1 2 3 4 5 6 
#
# 1 54.7786 9.2399 19.9930 0.0000 8.7460 0.0000
# 2 9.2399 133.9024 51.4023 0.0000 -19.2172 0.0000
# 3 19.9930 51.4023 176.4052 0.0000 -40.5710 0.0000
# 4 0.0000 0.0000 0.0000 29.2020 0.0000 -13.2057
# 5 8.7460 -19.2172 -40.5710 0.0000 25.1994 0.0000
# 6 0.0000 0.0000 0.0000 -13.2057 0.0000 12.1272
#
#
#
# Elastic Compliance Matrix: (Units=1/GPa)
#
#
# Indices 1 2 3 4 5 6 
#
# 1 0.024699 -0.002060 -0.007196 0.000000 -0.021730 0.000000
# 2 -0.002060 0.008832 -0.000995 0.000000 0.005848 0.000000
# 3 -0.007196 -0.000995 0.011393 0.000000 0.020081 0.000000
# 4 0.000000 0.000000 0.000000 0.067468 0.000000 0.073469
# 5 -0.021730 0.005848 0.020081 0.000000 0.084016 0.000000
# 6 0.000000 0.000000 0.000000 0.073469 0.000000 0.162462
#
#
# Mechanical properties :
#
#
# Convention : Reuss Voigt Hill
#
# Bulk Modulus (GPa) = 40.95048 58.48405 49.71727
# Shear Modulus (GPa) = 12.90278 32.26910 22.58594
#
# Velocity S-wave (km/s) = 2.40096 3.79696 3.17659
# Velocity P-wave (km/s) = 5.09722 6.73435 5.97215
#
# Compressibility (1/GPa) = 0.02441974
#
# Stress axis : x y z
#
# Youngs Moduli (GPa) = 40.48778 113.23060 87.77532
#
# Poissons Ratio (x) = 0.23329 0.63167
# Poissons Ratio (y) = 0.08342 0.08732
# Poissons Ratio (z) = 0.29137 0.11264
#
# Static dielectric constant tensor:
#      x y z
#    x 2.013030 0.000000 -0.012160 
#    y 0.000000 1.781870 0.000000 
#    z -0.012160 0.000000 1.791750 
# 
# From -- ./inp_files/148441.got.cif
#   From: 2010.05.17/outbox.cif.g08.bks.cpg/sg15_75_cif.got.tgz:148441.got - 2010.06.03 18:47:42.
