data_PCOD9261739
_publ_section_title
;
Structure prediction by ZEFSAII (Michael W. Deem and Ramdas Pophale) SiO2 
 PCOD9261739
Probable space group: C 2/C
;
_chemical_formula_sum "Si O2"
_cell_formula_units_Z 48
_cell_length_a 22.873588
_cell_length_b 13.458532
_cell_length_c 10.522223
_cell_angle_alpha 90.000000
_cell_angle_beta 122.363471
_cell_angle_gamma 90.000000
_cell_volume 2736.063886
_symmetry_space_group_name_H-M "C 2/C"
_symmetry_group_IT_number 15
_symmetry_cell_setting 'monoclinic'
loop_
_space_group_symop_operation_xyz
x,y,z
-x,y,1/2-z
-x,-y,-z
x,-y,1/2+z
1/2+x,1/2+y,z
1/2-x,1/2+y,1/2-z
1/2-x,1/2-y,-z
1/2+x,1/2-y,1/2+z
loop_
_atom_site_type_symbol
_atom_site_label
_atom_site_fract_x
_atom_site_fract_y
_atom_site_fract_z
Si Si1 0.736356 0.225042 0.837634
Si Si2 0.575306 0.716391 0.795039
Si Si3 0.569897 0.499191 0.749367
Si Si4 0.705820 0.181906 0.351556
Si Si5 0.791450 0.992496 0.418572
Si Si6 0.876477 0.139613 0.375832
O O1 0.778467 0.282185 0.774536
O O2 0.754572 0.109929 0.843536
O O3 0.658606 0.264778 0.726459
O O4 0.750000 0.250000 0.000000
O O5 0.500000 0.753076 0.750000
O O6 0.573534 0.614753 0.709659
O O7 0.626490 0.796307 0.794560
O O8 0.605106 0.673565 0.961957
O O9 0.500000 0.494545 0.750000
O O10 0.565419 0.414871 0.637108
O O11 0.640959 0.477031 0.912015
O O12 0.750000 0.250000 0.500000
O O13 0.735570 0.071423 0.406442
O O14 0.821708 0.049502 0.330793
#
# Coordination Sequence:
#
# PCOD9261739 Si02
#       6
#     8   8   8   8   8   8
#     4  11  21  34  56  83 113 143 183 231 277 323
#     4  10  21  36  56  80 109 150 187 229 276 333
#     4  10  19  31  51  81 117 147 177 219 285 333
#     4  11  20  37  57  82 110 147 187 227 271 331
#     4  10  21  32  56  81 111 143 183 230 274 326
#     4  10  20  35  51  82 114 143 188 227 272 331
#
# _framework density 17.543451000000001
#
# number of rings (size 3 to 8) (size 9 to 14) (size 15 to 20)
#    0.000    1.667    6.667    1.000    0.000    7.333 
#    0.000    0.000    0.000    2.000    0.000    0.000 
#    0.000    0.000    0.000    0.000    0.000    0.000 
#
# Total GULP energy -133612.145156 kJ/mol
# GULP energy per Si atom -5567.172715 kJ/mol
# Density = 1.750352 g / cm^3
# Si number density = 17.543451 Si / 1000 Ang^3
#
#
#
# Elastic Constant Matrix: (Units=GPa)
#
#
# Indices 1 2 3 4 5 6 
#
# 1 99.0261 35.5908 15.2382 0.0000 5.2575 0.0000
# 2 35.5908 88.7153 26.5823 0.0000 8.4904 0.0000
# 3 15.2382 26.5823 69.0600 0.0000 -6.2607 0.0000
# 4 0.0000 0.0000 0.0000 19.9530 0.0000 -1.4911
# 5 5.2575 8.4904 -6.2607 0.0000 21.3172 0.0000
# 6 0.0000 0.0000 0.0000 -1.4911 0.0000 30.9797
#
#
#
# Elastic Compliance Matrix: (Units=1/GPa)
#
#
# Indices 1 2 3 4 5 6 
#
# 1 0.011894 -0.004289 -0.001114 0.000000 -0.001552 0.000000
# 2 -0.004289 0.015291 -0.005543 0.000000 -0.006660 0.000000
# 3 -0.001114 -0.005543 0.017552 0.000000 0.007638 0.000000
# 4 0.000000 0.000000 0.000000 0.050299 0.000000 0.002421
# 5 -0.001552 -0.006660 0.007638 0.000000 0.052189 0.000000
# 6 0.000000 0.000000 0.000000 0.002421 0.000000 0.032396
#
#
# Mechanical properties :
#
#
# Convention : Reuss Voigt Hill
#
# Bulk Modulus (GPa) = 43.77526 45.73601 44.75563
# Shear Modulus (GPa) = 23.90878 26.40931 25.15905
#
# Velocity S-wave (km/s) = 3.69566 3.88411 3.79106
# Velocity P-wave (km/s) = 6.57398 6.80014 6.68801
#
# Compressibility (1/GPa) = 0.02284396
#
# Stress axis : x y z
#
# Youngs Moduli (GPa) = 84.07769 65.39750 56.97333
#
# Poissons Ratio (x) = 0.28050 0.06348
# Poissons Ratio (y) = 0.36062 0.31581
# Poissons Ratio (z) = 0.09367 0.36251
#
# Static dielectric constant tensor:
#      x y z
#    x 1.654330 0.000000 0.005440 
#    y 0.000000 1.613730 0.000000 
#    z 0.005440 0.000000 1.694890 
# 
# From -- ./inp_files/110687.got.cif
#   From: 2010.05.17/outbox.cif.g08.bks.cpg/sg15_56_cif.got.tgz:110687.got - 2010.06.03 18:47:42.
