data_PCOD9261219
_publ_section_title
;
Structure prediction by ZEFSAII (Michael W. Deem and Ramdas Pophale) SiO2 
 PCOD9261219
Probable space group: C 2/C
;
_chemical_formula_sum "Si O2"
_cell_formula_units_Z 52
_cell_length_a 9.001063
_cell_length_b 26.681806
_cell_length_c 13.641333
_cell_angle_alpha 90.000000
_cell_angle_beta 126.276421
_cell_angle_gamma 90.000000
_cell_volume 2641.152398
_symmetry_space_group_name_H-M "C 2/C"
_symmetry_group_IT_number 15
_symmetry_cell_setting 'monoclinic'
loop_
_space_group_symop_operation_xyz
x,y,z
-x,y,1/2-z
-x,-y,-z
x,-y,1/2+z
1/2+x,1/2+y,z
1/2-x,1/2+y,1/2-z
1/2-x,1/2-y,-z
1/2+x,1/2-y,1/2+z
loop_
_atom_site_type_symbol
_atom_site_label
_atom_site_fract_x
_atom_site_fract_y
_atom_site_fract_z
Si Si1 0.616408 0.703038 0.923423
Si Si2 0.870826 0.152866 0.368149
Si Si3 0.801451 0.732427 0.339646
Si Si4 0.000000 0.305448 0.250000
Si Si5 0.558814 0.155112 0.561101
Si Si6 0.500000 0.418116 0.750000
Si Si7 0.000000 0.410454 0.750000
Si Si8 0.915341 0.549982 0.422985
O O1 0.430733 0.732126 0.823690
O O2 0.737982 0.666649 0.903395
O O3 0.750000 0.750000 0.000000
O O4 0.561513 0.673077 0.001382
O O5 0.821720 0.199846 0.281195
O O6 0.987917 0.116412 0.343483
O O7 0.679032 0.124709 0.316626
O O8 0.667992 0.769135 0.345823
O O9 0.922329 0.694839 0.452906
O O10 0.053812 0.336238 0.175029
O O11 0.485980 0.100114 0.505370
O O12 0.308006 0.448166 0.668379
O O13 0.990595 0.443504 0.842636
O O14 0.000000 0.500000 0.500000
#
# Coordination Sequence:
#
# PCOD9261219 Si02
#       8
#     8   8   8   4   8   4   4   8
#     4  10  21  34  57  88 123 171 215 253 309 377
#     4  11  19  36  62  93 123 171 218 256 306 385
#     4  11  21  36  59  91 133 168 216 257 319 398
#     4  12  27  35  54  96 136 176 207 269 336 388
#     4  11  23  41  59  87 131 174 214 273 327 382
#     4  10  23  40  70  96 124 162 216 275 330 384
#     4  10  18  41  70  90 118 164 217 268 316 384
#     4  11  24  45  73  97 127 167 224 279 337 389
#
# _framework density 19.688375000000001
#
# number of rings (size 3 to 8) (size 9 to 14) (size 15 to 20)
#    0.000    1.231    4.615    3.692    2.154    3.692 
#    0.000    4.615    0.000    0.000    0.000    0.000 
#    0.000    0.000    0.000    0.000    0.000    0.000 
#
# Total GULP energy -145223.949811 kJ/mol
# GULP energy per Si atom -5585.536531 kJ/mol
# Density = 1.964356 g / cm^3
# Si number density = 19.688375 Si / 1000 Ang^3
#
#
#
# Elastic Constant Matrix: (Units=GPa)
#
#
# Indices 1 2 3 4 5 6 
#
# 1 116.6142 50.7892 31.0191 0.0000 -15.8823 0.0000
# 2 50.7892 113.1720 50.7994 0.0000 -5.2180 0.0000
# 3 31.0191 50.7994 65.4509 0.0000 -24.9792 0.0000
# 4 0.0000 0.0000 0.0000 22.0771 0.0000 -1.1598
# 5 -15.8823 -5.2180 -24.9792 0.0000 36.7215 0.0000
# 6 0.0000 0.0000 0.0000 -1.1598 0.0000 9.9772
#
#
#
# Elastic Compliance Matrix: (Units=1/GPa)
#
#
# Indices 1 2 3 4 5 6 
#
# 1 0.011262 -0.004891 0.000071 0.000000 0.004224 0.000000
# 2 -0.004891 0.017194 -0.014724 0.000000 -0.009688 0.000000
# 3 0.000071 -0.014724 0.034963 0.000000 0.021722 0.000000
# 4 0.000000 0.000000 0.000000 0.045574 0.000000 0.005298
# 5 0.004224 -0.009688 0.021722 0.000000 0.042458 0.000000
# 6 0.000000 0.000000 0.000000 0.005298 0.000000 0.100844
#
#
# Mechanical properties :
#
#
# Convention : Reuss Voigt Hill
#
# Bulk Modulus (GPa) = 41.10143 62.27249 51.68696
# Shear Modulus (GPa) = 16.69482 24.59713 20.64598
#
# Velocity S-wave (km/s) = 2.91512 3.53841 3.24178
# Velocity P-wave (km/s) = 5.67908 6.95640 6.34994
#
# Compressibility (1/GPa) = 0.02433005
#
# Stress axis : x y z
#
# Youngs Moduli (GPa) = 88.79412 58.16053 28.60161
#
# Poissons Ratio (x) = 0.28448 -0.00204
# Poissons Ratio (y) = 0.43432 0.42114
# Poissons Ratio (z) = -0.00632 0.85637
#
# Static dielectric constant tensor:
#      x y z
#    x 1.741780 0.000000 -0.001840 
#    y 0.000000 1.681080 0.000000 
#    z -0.001840 0.000000 1.740810 
# 
# From -- ./inp_files/80898.got.cif
#   From: 2010.05.17/outbox.cif.g08.bks.cpg/sg15_41_cif.got.tgz:80898.got - 2010.06.03 18:47:42.
