data_PCOD9261805
_publ_section_title
;
Structure prediction by ZEFSAII (Michael W. Deem and Ramdas Pophale) SiO2 
 PCOD9261805
Probable space group: C 2/C
;
_chemical_formula_sum "Si O2"
_cell_formula_units_Z 48
_cell_length_a 11.134141
_cell_length_b 13.297603
_cell_length_c 13.050043
_cell_angle_alpha 90.000000
_cell_angle_beta 75.001067
_cell_angle_gamma 90.000000
_cell_volume 1866.327982
_symmetry_space_group_name_H-M "C 2/C"
_symmetry_group_IT_number 15
_symmetry_cell_setting 'monoclinic'
loop_
_space_group_symop_operation_xyz
x,y,z
-x,y,1/2-z
-x,-y,-z
x,-y,1/2+z
1/2+x,1/2+y,z
1/2-x,1/2+y,1/2-z
1/2-x,1/2-y,-z
1/2+x,1/2-y,1/2+z
loop_
_atom_site_type_symbol
_atom_site_label
_atom_site_fract_x
_atom_site_fract_y
_atom_site_fract_z
Si Si1 0.744789 0.888991 0.761685
Si Si2 0.401107 0.874563 0.069745
Si Si3 0.387368 0.990322 0.876719
Si Si4 0.344667 0.190470 0.787408
Si Si5 0.545824 0.649634 0.460771
Si Si6 0.596272 0.509203 0.633669
O O1 0.762480 0.787976 0.823993
O O2 0.847321 0.875163 0.647984
O O3 0.780465 0.974961 0.834151
O O4 0.626673 0.921988 0.721763
O O5 0.489022 0.956543 0.105499
O O6 0.310831 0.836585 0.178221
O O7 0.473002 0.769562 0.027847
O O8 0.347629 0.919791 0.978285
O O9 0.316163 0.093136 0.861361
O O10 0.500000 0.208486 0.750000
O O11 0.579883 0.604572 0.563753
O O12 0.435674 0.584355 0.435329
O O13 0.500000 0.516249 0.750000
#
# Coordination Sequence:
#
# PCOD9261805 Si02
#       6
#     8   8   8   8   8   8
#     4  10  19  31  54  82 103 134 182 228 267 312
#     4   9  19  36  53  72 103 146 184 212 266 334
#     4  10  20  32  52  78 103 132 178 231 267 305
#     4   9  18  36  57  75 104 145 182 219 267 325
#     4   9  18  34  56  77 104 143 180 218 265 324
#     4   9  17  32  54  79 105 136 178 222 266 316
#
# _framework density 25.718952000000002
#
# number of rings (size 3 to 8) (size 9 to 14) (size 15 to 20)
#    0.000    2.667    0.000    3.500    0.000    5.333 
#    0.000    4.167    0.000   27.000    0.000    0.000 
#    0.000    0.000    0.000    0.000    0.000    0.000 
#
# Total GULP energy -133816.510819 kJ/mol
# GULP energy per Si atom -5575.687951 kJ/mol
# Density = 2.566041 g / cm^3
# Si number density = 25.718952 Si / 1000 Ang^3
#
#
#
# Elastic Constant Matrix: (Units=GPa)
#
#
# Indices 1 2 3 4 5 6 
#
# 1 77.6789 32.6400 25.2731 0.0000 26.6164 0.0000
# 2 32.6400 143.7529 56.1790 0.0000 17.3685 0.0000
# 3 25.2731 56.1790 147.8885 0.0000 32.7188 0.0000
# 4 0.0000 0.0000 0.0000 56.7571 0.0000 5.0348
# 5 26.6164 17.3685 32.7188 0.0000 38.4030 0.0000
# 6 0.0000 0.0000 0.0000 5.0348 0.0000 18.7754
#
#
#
# Elastic Compliance Matrix: (Units=1/GPa)
#
#
# Indices 1 2 3 4 5 6 
#
# 1 0.017863 -0.002894 0.000612 0.000000 -0.011592 0.000000
# 2 -0.002894 0.008691 -0.002934 0.000000 0.000575 0.000000
# 3 0.000612 -0.002934 0.009331 0.000000 -0.007047 0.000000
# 4 0.000000 0.000000 0.000000 0.018048 0.000000 -0.004840
# 5 -0.011592 0.000575 -0.007047 0.000000 0.039818 0.000000
# 6 0.000000 0.000000 0.000000 -0.004840 0.000000 0.054559
#
#
# Mechanical properties :
#
#
# Convention : Reuss Voigt Hill
#
# Bulk Modulus (GPa) = 39.29136 66.38938 52.84037
# Shear Modulus (GPa) = 29.89962 39.80232 34.85097
#
# Velocity S-wave (km/s) = 3.41332 3.93821 3.68512
# Velocity P-wave (km/s) = 5.55380 6.82266 6.22067
#
# Compressibility (1/GPa) = 0.02545089
#
# Stress axis : x y z
#
# Youngs Moduli (GPa) = 55.98243 115.06609 107.17082
#
# Poissons Ratio (x) = 0.33303 -0.06554
# Poissons Ratio (y) = 0.16203 0.31444
# Poissons Ratio (z) = -0.03423 0.33760
#
# Static dielectric constant tensor:
#      x y z
#    x 2.153880 0.000000 -0.039660 
#    y 0.000000 2.087580 0.000000 
#    z -0.039660 0.000000 1.996140 
# 
# From -- ./inp_files/152129.got.cif
#   From: 2010.05.17/outbox.cif.g08.bks.cpg/sg15_77_cif.got.tgz:152129.got - 2010.06.03 18:47:42.
