data_PCOD9261130
_publ_section_title
;
Structure prediction by ZEFSAII (Michael W. Deem and Ramdas Pophale) SiO2 
 PCOD9261130
Probable space group: C 2/C
;
_chemical_formula_sum "Si O2"
_cell_formula_units_Z 60
_cell_length_a 19.456584
_cell_length_b 9.890222
_cell_length_c 14.049716
_cell_angle_alpha 90.000000
_cell_angle_beta 78.321826
_cell_angle_gamma 90.000000
_cell_volume 2647.621678
_symmetry_space_group_name_H-M "C 2/C"
_symmetry_group_IT_number 15
_symmetry_cell_setting 'monoclinic'
loop_
_space_group_symop_operation_xyz
x,y,z
-x,y,1/2-z
-x,-y,-z
x,-y,1/2+z
1/2+x,1/2+y,z
1/2-x,1/2+y,1/2-z
1/2-x,1/2-y,-z
1/2+x,1/2-y,1/2+z
loop_
_atom_site_type_symbol
_atom_site_label
_atom_site_fract_x
_atom_site_fract_y
_atom_site_fract_z
Si Si1 0.864509 0.484825 0.638556
Si Si2 0.520165 0.782839 0.940872
Si Si3 0.641554 0.146216 0.030563
Si Si4 0.849750 0.909970 0.354437
Si Si5 0.709803 0.286827 0.319614
Si Si6 0.637834 0.106040 0.673309
Si Si7 0.500000 0.342805 0.250000
Si Si8 0.878945 0.838592 0.964797
O O1 0.925654 0.406884 0.563386
O O2 0.827146 0.587050 0.575813
O O3 0.810583 0.370524 0.692119
O O4 0.898369 0.560907 0.718668
O O5 0.439492 0.820281 0.973708
O O6 0.530195 0.745595 0.827292
O O7 0.546750 0.658861 0.998945
O O8 0.667829 0.283139 0.072218
O O9 0.646644 0.027789 0.106973
O O10 0.818441 0.877756 0.259697
O O11 0.934254 0.918502 0.312792
O O12 0.839766 0.045282 0.416756
O O13 0.789594 0.327460 0.312086
O O14 0.672822 0.311435 0.431897
O O15 0.606389 0.219449 0.614426
#
# Coordination Sequence:
#
# PCOD9261130 Si02
#       8
#     8   8   8   8   8   8   4   8
#     4  11  22  43  67 100 129 174 227 282 336 393
#     4  10  20  43  69  97 136 172 216 287 348 397
#     4  11  23  41  71 100 128 176 229 276 340 409
#     4  11  24  43  66  97 133 180 222 272 343 407
#     4  11  24  45  67  89 142 179 215 283 345 396
#     4  12  25  41  69 100 126 178 234 270 334 406
#     4  10  18  40  66  88 130 178 212 258 354 410
#     4  11  25  43  66  99 133 180 223 273 347 397
#
# _framework density 22.661847999999999
#
# number of rings (size 3 to 8) (size 9 to 14) (size 15 to 20)
#    0.000    1.067    6.667    1.600    1.867    3.200 
#    2.400    1.333    0.000    0.000    0.000    0.000 
#    0.000    0.000    0.000    0.000    0.000    0.000 
#
# Total GULP energy -167383.698983 kJ/mol
# GULP energy per Si atom -5579.456633 kJ/mol
# Density = 2.261027 g / cm^3
# Si number density = 22.661848 Si / 1000 Ang^3
#
#
#
# Elastic Constant Matrix: (Units=GPa)
#
#
# Indices 1 2 3 4 5 6 
#
# 1 62.3129 -13.1627 -8.9810 0.0000 12.7750 0.0000
# 2 -13.1627 80.6237 35.0495 0.0000 14.0671 0.0000
# 3 -8.9810 35.0495 123.1053 0.0000 27.3946 0.0000
# 4 0.0000 0.0000 0.0000 34.3792 0.0000 4.3532
# 5 12.7750 14.0671 27.3946 0.0000 33.0661 0.0000
# 6 0.0000 0.0000 0.0000 4.3532 0.0000 24.4787
#
#
#
# Elastic Compliance Matrix: (Units=1/GPa)
#
#
# Indices 1 2 3 4 5 6 
#
# 1 0.019717 0.004001 0.002910 0.000000 -0.011730 0.000000
# 2 0.004001 0.015265 -0.002777 0.000000 -0.005739 0.000000
# 3 0.002910 -0.002777 0.011173 0.000000 -0.009200 0.000000
# 4 0.000000 0.000000 0.000000 0.029757 0.000000 -0.005292
# 5 -0.011730 -0.005739 -0.009200 0.000000 0.044838 0.000000
# 6 0.000000 0.000000 0.000000 -0.005292 0.000000 0.041793
#
#
# Mechanical properties :
#
#
# Convention : Reuss Voigt Hill
#
# Bulk Modulus (GPa) = 18.37470 32.42817 25.40144
# Shear Modulus (GPa) = 28.99931 35.26054 32.12993
#
# Velocity S-wave (km/s) = 3.58111 3.94882 3.76945
# Velocity P-wave (km/s) = 5.02244 5.92719 5.49347
#
# Compressibility (1/GPa) = 0.05442265
#
# Stress axis : x y z
#
# Youngs Moduli (GPa) = 50.71652 65.50877 89.49941
#
# Poissons Ratio (x) = -0.26209 -0.26042
# Poissons Ratio (y) = -0.20291 0.24856
# Poissons Ratio (z) = -0.14757 0.18193
#
# Static dielectric constant tensor:
#      x y z
#    x 1.920380 0.000000 -0.017610 
#    y 0.000000 1.922370 0.000000 
#    z -0.017610 0.000000 1.832010 
# 
# From -- ./inp_files/171881.got.cif
#   From: 2010.05.17/outbox.cif.g08.bks.cpg/sg15_86_cif.got.tgz:171881.got - 2010.06.03 18:47:42.
