data_PCOD9261813
_publ_section_title
;
Structure prediction by ZEFSAII (Michael W. Deem and Ramdas Pophale) SiO2 
 PCOD9261813
Probable space group: C 2/C
;
_chemical_formula_sum "Si O2"
_cell_formula_units_Z 56
_cell_length_a 18.869303
_cell_length_b 15.612674
_cell_length_c 9.909703
_cell_angle_alpha 90.000000
_cell_angle_beta 55.801272
_cell_angle_gamma 90.000000
_cell_volume 2414.616485
_symmetry_space_group_name_H-M "C 2/C"
_symmetry_group_IT_number 15
_symmetry_cell_setting 'monoclinic'
loop_
_space_group_symop_operation_xyz
x,y,z
-x,y,1/2-z
-x,-y,-z
x,-y,1/2+z
1/2+x,1/2+y,z
1/2-x,1/2+y,1/2-z
1/2-x,1/2-y,-z
1/2+x,1/2-y,1/2+z
loop_
_atom_site_type_symbol
_atom_site_label
_atom_site_fract_x
_atom_site_fract_y
_atom_site_fract_z
Si Si1 0.370397 0.354970 0.825864
Si Si2 0.836384 0.582118 0.241110
Si Si3 0.477827 0.792383 0.622134
Si Si4 0.458630 0.370967 0.998821
Si Si5 0.144482 0.327592 0.262950
Si Si6 0.596972 0.967134 0.105835
Si Si7 0.294179 0.455602 0.128751
O O1 0.448639 0.393926 0.657495
O O2 0.332145 0.271673 0.792963
O O3 0.414852 0.320253 0.918276
O O4 0.311431 0.428678 0.953049
O O5 0.882864 0.672356 0.191099
O O6 0.851746 0.539684 0.369606
O O7 0.740197 0.551619 0.313430
O O8 0.889443 0.533447 0.067242
O O9 0.500000 0.816218 0.750000
O O10 0.473217 0.691266 0.606523
O O11 0.555599 0.825299 0.443287
O O12 0.385247 0.440122 0.100806
O O13 0.124360 0.377347 0.145047
O O14 0.221685 0.384065 0.244839
O O15 0.500000 0.981055 0.250000
#
# Coordination Sequence:
#
# PCOD9261813 Si02
#       7
#     8   8   8   8   8   8   8
#     4   8  15  32  56  80 106 137 198 256 290 335
#     4  11  23  34  53  82 124 161 195 244 295 363
#     4  11  22  35  56  86 127 164 194 237 309 377
#     4   8  17  34  57  80 110 149 196 253 296 346
#     4  10  19  31  54  83 115 150 200 245 296 354
#     4  11  21  32  50  76 113 164 194 233 290 361
#     4   9  19  31  52  84 116 151 197 252 297 352
#
# _framework density 23.192087000000001
#
# number of rings (size 3 to 8) (size 9 to 14) (size 15 to 20)
#    0.857    1.429    1.429    2.143    8.000    0.000 
#    0.000    0.714    0.000    0.000    0.000   16.000 
#    0.000    0.000    0.000    0.000    0.000    0.000 
#
# Total GULP energy -155957.538528 kJ/mol
# GULP energy per Si atom -5569.912090 kJ/mol
# Density = 2.313930 g / cm^3
# Si number density = 23.192087 Si / 1000 Ang^3
#
#
#
# Elastic Constant Matrix: (Units=GPa)
#
#
# Indices 1 2 3 4 5 6 
#
# 1 48.4178 23.3277 27.2199 0.0000 -19.8554 0.0000
# 2 23.3277 63.0243 41.7176 0.0000 -13.2401 0.0000
# 3 27.2199 41.7176 71.9917 0.0000 -24.8479 0.0000
# 4 0.0000 0.0000 0.0000 19.6505 0.0000 -7.8871
# 5 -19.8554 -13.2401 -24.8479 0.0000 40.3341 0.0000
# 6 0.0000 0.0000 0.0000 -7.8871 0.0000 23.3404
#
#
#
# Elastic Compliance Matrix: (Units=1/GPa)
#
#
# Indices 1 2 3 4 5 6 
#
# 1 0.030250 -0.006186 -0.004336 0.000000 0.010190 0.000000
# 2 -0.006186 0.027033 -0.014370 0.000000 -0.003024 0.000000
# 3 -0.004336 -0.014370 0.027296 0.000000 0.009964 0.000000
# 4 0.000000 0.000000 0.000000 0.058874 0.000000 0.019895
# 5 0.010190 -0.003024 0.009964 0.000000 0.034955 0.000000
# 6 0.000000 0.000000 0.000000 0.019895 0.000000 0.049567
#
#
# Mechanical properties :
#
#
# Convention : Reuss Voigt Hill
#
# Bulk Modulus (GPa) = 28.73917 40.88491 34.81204
# Shear Modulus (GPa) = 17.27963 22.74290 20.01127
#
# Velocity S-wave (km/s) = 2.73255 3.13490 2.94062
# Velocity P-wave (km/s) = 4.73017 5.54712 5.15485
#
# Compressibility (1/GPa) = 0.03479572
#
# Stress axis : x y z
#
# Youngs Moduli (GPa) = 33.05766 36.99161 36.63529
#
# Poissons Ratio (x) = 0.22883 0.15885
# Poissons Ratio (y) = 0.20450 0.52644
# Poissons Ratio (z) = 0.14334 0.53157
#
# Static dielectric constant tensor:
#      x y z
#    x 1.953460 0.000000 -0.025720 
#    y 0.000000 1.892370 0.000000 
#    z -0.025720 0.000000 1.860320 
# 
# From -- ./inp_files/58421.got.cif
#   From: 2010.05.17/outbox.cif.g08.bks.cpg/sg15_30_cif.got.tgz:58421.got - 2010.06.03 18:47:42.
