data_PCOD9261965
_publ_section_title
;
Structure prediction by ZEFSAII (Michael W. Deem and Ramdas Pophale) SiO2 
 PCOD9261965
Probable space group: C 2/C
;
_chemical_formula_sum "Si O2"
_cell_formula_units_Z 48
_cell_length_a 7.748399
_cell_length_b 12.748827
_cell_length_c 19.075597
_cell_angle_alpha 90.000000
_cell_angle_beta 100.517005
_cell_angle_gamma 90.000000
_cell_volume 1852.689143
_symmetry_space_group_name_H-M "C 2/C"
_symmetry_group_IT_number 15
_symmetry_cell_setting 'monoclinic'
loop_
_space_group_symop_operation_xyz
x,y,z
-x,y,1/2-z
-x,-y,-z
x,-y,1/2+z
1/2+x,1/2+y,z
1/2-x,1/2+y,1/2-z
1/2-x,1/2-y,-z
1/2+x,1/2-y,1/2+z
loop_
_atom_site_type_symbol
_atom_site_label
_atom_site_fract_x
_atom_site_fract_y
_atom_site_fract_z
Si Si1 0.500000 0.426779 0.750000
Si Si2 0.781406 0.759660 0.653244
Si Si3 0.371265 0.774367 0.614430
Si Si4 0.230855 0.469831 0.832556
Si Si5 0.683009 0.610692 0.531448
Si Si6 0.278713 0.597285 0.521694
Si Si7 0.500000 0.903282 0.250000
O O1 0.400554 0.358599 0.682199
O O2 0.348306 0.493613 0.774483
O O3 0.574365 0.769950 0.647483
O O4 0.788402 0.709090 0.573801
O O5 0.849346 0.675045 0.714562
O O6 0.272901 0.845067 0.663175
O O7 0.282207 0.662251 0.594100
O O8 0.351076 0.844972 0.541883
O O9 0.315694 0.527548 0.903857
O O10 0.031660 0.512092 0.814166
O O11 0.475446 0.628005 0.507216
O O12 0.749606 0.528462 0.477329
#
# Coordination Sequence:
#
# PCOD9261965 Si02
#       7
#     4   8   8   8   8   8   4
#     4  11  22  34  48  71 106 142 178 217 252 296
#     4   9  18  32  50  74 102 133 168 212 262 307
#     4   9  16  29  54  80  99 129 174 215 257 310
#     4  10  19  32  51  73 103 139 177 214 255 306
#     4   8  15  30  51  74 101 132 168 212 261 308
#     4   8  14  27  53  79  99 127 171 213 259 311
#     4   9  18  34  50  71 102 134 170 215 264 306
#
# _framework density 25.908287000000001
#
# number of rings (size 3 to 8) (size 9 to 14) (size 15 to 20)
#    0.000    3.000    0.000    1.000    0.000    0.000 
#    0.000   15.000    0.000   38.000    0.000    0.000 
#    0.000    0.000    0.000    0.000    0.000    4.167 
#
# Total GULP energy -133639.782666 kJ/mol
# GULP energy per Si atom -5568.324278 kJ/mol
# Density = 2.584932 g / cm^3
# Si number density = 25.908287 Si / 1000 Ang^3
#
#
#
# Elastic Constant Matrix: (Units=GPa)
#
#
# Indices 1 2 3 4 5 6 
#
# 1 75.1698 11.3286 50.6348 0.0000 32.6611 0.0000
# 2 11.3286 22.9213 11.4199 0.0000 11.4596 0.0000
# 3 50.6348 11.4199 93.3297 0.0000 45.7810 0.0000
# 4 0.0000 0.0000 0.0000 43.9572 0.0000 10.0302
# 5 32.6611 11.4596 45.7810 0.0000 44.5618 0.0000
# 6 0.0000 0.0000 0.0000 10.0302 0.0000 24.0428
#
#
#
# Elastic Compliance Matrix: (Units=1/GPa)
#
#
# Indices 1 2 3 4 5 6 
#
# 1 0.022492 -0.003446 -0.008324 0.000000 -0.007047 0.000000
# 2 -0.003446 0.050599 0.001657 0.000000 -0.012189 0.000000
# 3 -0.008324 0.001657 0.024684 0.000000 -0.019684 0.000000
# 4 0.000000 0.000000 0.000000 0.025143 0.000000 -0.010489
# 5 -0.007047 -0.012189 -0.019684 0.000000 0.050963 0.000000
# 6 0.000000 0.000000 0.000000 -0.010489 0.000000 0.045968
#
#
# Mechanical properties :
#
#
# Convention : Reuss Voigt Hill
#
# Bulk Modulus (GPa) = 12.89509 37.57637 25.23573
# Shear Modulus (GPa) = 18.80244 30.38155 24.59199
#
# Velocity S-wave (km/s) = 2.69686 3.42812 3.08424
# Velocity P-wave (km/s) = 3.83216 5.49586 4.73761
#
# Compressibility (1/GPa) = 0.07754891
#
# Stress axis : x y z
#
# Youngs Moduli (GPa) = 44.46107 19.76331 40.51259
#
# Poissons Ratio (x) = 0.06810 0.33723
# Poissons Ratio (y) = 0.15320 -0.06714
# Poissons Ratio (z) = 0.37010 -0.03275
#
# Static dielectric constant tensor:
#      x y z
#    x 2.083780 0.000000 0.034890 
#    y 0.000000 2.190910 0.000000 
#    z 0.034890 0.000000 2.164160 
# 
# From -- ./inp_files/230764.got.cif
#   From: 2010.05.17/outbox.cif.g08.bks.cpg/sg15_116_cif.got.tgz:230764.got - 2010.06.03 18:47:42.
