data_PCOD9261419
_publ_section_title
;
Structure prediction by ZEFSAII (Michael W. Deem and Ramdas Pophale) SiO2 
 PCOD9261419
Probable space group: C 2/C
;
_chemical_formula_sum "Si O2"
_cell_formula_units_Z 52
_cell_length_a 21.736748
_cell_length_b 23.503407
_cell_length_c 5.435404
_cell_angle_alpha 90.000000
_cell_angle_beta 120.150519
_cell_angle_gamma 90.000000
_cell_volume 2401.193426
_symmetry_space_group_name_H-M "C 2/C"
_symmetry_group_IT_number 15
_symmetry_cell_setting 'monoclinic'
loop_
_space_group_symop_operation_xyz
x,y,z
-x,y,1/2-z
-x,-y,-z
x,-y,1/2+z
1/2+x,1/2+y,z
1/2-x,1/2+y,1/2-z
1/2-x,1/2-y,-z
1/2+x,1/2-y,1/2+z
loop_
_atom_site_type_symbol
_atom_site_label
_atom_site_fract_x
_atom_site_fract_y
_atom_site_fract_z
Si Si1 0.836732 0.716175 0.459452
Si Si2 0.196114 0.163021 0.670827
Si Si3 0.500000 0.537588 0.750000
Si Si4 0.355595 0.390033 0.935648
Si Si5 0.580612 0.204642 0.376970
Si Si6 0.798727 0.581649 0.375761
Si Si7 0.155523 0.592337 0.531546
O O1 0.786368 0.770387 0.321322
O O2 0.889183 0.720160 0.330022
O O3 0.805577 0.652057 0.395297
O O4 0.875828 0.724961 0.797466
O O5 0.152678 0.142353 0.342526
O O6 0.270010 0.128879 0.825308
O O7 0.155001 0.148876 0.841871
O O8 0.500000 0.500000 0.500000
O O9 0.428867 0.576057 0.600617
O O10 0.285243 0.430710 0.799856
O O11 0.500000 0.222447 0.250000
O O12 0.590951 0.136276 0.409042
O O13 0.836015 0.561033 0.696526
O O14 0.839936 0.562329 0.218426
#
# Coordination Sequence:
#
# PCOD9261419 Si02
#       7
#     8   8   4   8   8   8   8
#     4  10  19  31  48  66  96 140 166 197 255 300
#     4  10  19  34  52  72  98 123 166 210 251 305
#     4  12  26  46  64  76 100 138 174 218 298 354
#     4  10  21  37  55  77  93 119 164 220 257 317
#     4  10  19  30  38  59  92 130 176 200 229 283
#     4   8  16  29  49  72  94 119 165 201 244 292
#     4   8  16  27  45  61  83 122 158 199 243 275
#
# _framework density 21.655897
#
# number of rings (size 3 to 8) (size 9 to 14) (size 15 to 20)
#    0.000    2.462    0.000    2.308    0.000   11.077 
#    8.308    0.000    0.000    0.000    0.000    0.000 
#    0.000    0.000    0.000    0.000    0.000 1246.154 
#
# Total GULP energy -145072.494665 kJ/mol
# GULP energy per Si atom -5579.711333 kJ/mol
# Density = 2.160661 g / cm^3
# Si number density = 21.655897 Si / 1000 Ang^3
#
#
#
# Elastic Constant Matrix: (Units=GPa)
#
#
# Indices 1 2 3 4 5 6 
#
# 1 76.1901 -5.6381 35.1190 0.0000 -15.8627 0.0000
# 2 -5.6381 69.3738 -1.5045 0.0000 -0.9435 0.0000
# 3 35.1190 -1.5045 114.3189 0.0000 -38.4537 0.0000
# 4 0.0000 0.0000 0.0000 477.1572 0.0000 417.8451
# 5 -15.8627 -0.9435 -38.4537 0.0000 46.5061 0.0000
# 6 0.0000 0.0000 0.0000 417.8451 0.0000 412.0779
#
#
#
# Elastic Compliance Matrix: (Units=1/GPa)
#
#
# Indices 1 2 3 4 5 6 
#
# 1 0.015504 0.001197 -0.004101 0.000000 0.001922 0.000000
# 2 0.001197 0.014524 0.000083 0.000000 0.000772 0.000000
# 3 -0.004101 0.000083 0.013213 0.000000 0.009529 0.000000
# 4 0.000000 0.000000 0.000000 0.018704 0.000000 -0.018966
# 5 0.001922 0.000772 0.009529 0.000000 0.030052 0.000000
# 6 0.000000 0.000000 0.000000 -0.018966 0.000000 0.021658
#
#
# Mechanical properties :
#
#
# Convention : Reuss Voigt Hill
#
# Bulk Modulus (GPa) = 26.59532 35.09285 30.84409
# Shear Modulus (GPa) = 37.92742 202.60866 120.26804
#
# Velocity S-wave (km/s) = 4.18947 9.68304 7.46033
# Velocity P-wave (km/s) = 5.97577 11.88507 9.40651
#
# Compressibility (1/GPa) = 0.03760060
#
# Stress axis : x y z
#
# Youngs Moduli (GPa) = 64.49975 68.85040 75.68076
#
# Poissons Ratio (x) = -0.08243 0.31034
# Poissons Ratio (y) = -0.07722 -0.00627
# Poissons Ratio (z) = 0.26449 -0.00571
#
# Static dielectric constant tensor:
#      x y z
#    x 1.788150 0.000000 -0.076830 
#    y 0.000000 1.834980 0.000000 
#    z -0.076830 0.000000 1.849750 
# 
# From -- ./inp_files/13958.got.cif
#   From: 2010.05.17/outbox.cif.g08.bks.cpg/sg15_7_cif.got.tgz:13958.got - 2010.06.03 18:47:42.
