data_PCOD9261265
_publ_section_title
;
Structure prediction by ZEFSAII (Michael W. Deem and Ramdas Pophale) SiO2 
 PCOD9261265
Probable space group: C 2/C
;
_chemical_formula_sum "Si O2"
_cell_formula_units_Z 36
_cell_length_a 20.957069
_cell_length_b 12.070106
_cell_length_c 14.518694
_cell_angle_alpha 90.000000
_cell_angle_beta 25.328227
_cell_angle_gamma 90.000000
_cell_volume 1571.133974
_symmetry_space_group_name_H-M "C 2/C"
_symmetry_group_IT_number 15
_symmetry_cell_setting 'monoclinic'
loop_
_space_group_symop_operation_xyz
x,y,z
-x,y,1/2-z
-x,-y,-z
x,-y,1/2+z
1/2+x,1/2+y,z
1/2-x,1/2+y,1/2-z
1/2-x,1/2-y,-z
1/2+x,1/2-y,1/2+z
loop_
_atom_site_type_symbol
_atom_site_label
_atom_site_fract_x
_atom_site_fract_y
_atom_site_fract_z
Si Si1 0.178350 0.479053 0.266910
Si Si2 0.500000 0.880539 0.250000
Si Si3 0.195348 0.978827 0.696962
Si Si4 0.844885 0.856987 0.405319
Si Si5 0.376855 0.242743 0.756846
O O1 0.258516 0.493594 0.259984
O O2 0.182345 0.350124 0.234312
O O3 0.000000 0.500000 0.500000
O O4 0.257110 0.561843 0.091253
O O5 0.354105 0.955065 0.439189
O O6 0.488919 0.806753 0.356968
O O7 0.104450 0.863950 0.808532
O O8 0.122165 0.072561 0.730071
O O9 0.750000 0.750000 0.500000
O O10 0.000000 0.823403 0.250000
O O11 0.250000 0.250000 0.000000
#
# Coordination Sequence:
#
# PCOD9261265 Si02
#       5
#     8   4   8   8   8
#     4  12  25  47  80 113 147 204 258 315 385 459
#     4  10  18  42  72 104 144 192 236 318 378 440
#     4  11  24  43  74 106 148 193 257 309 377 455
#     4  12  31  51  75 110 163 207 252 321 400 462
#     4  10  21  39  69 107 145 187 240 308 376 443
#
# _framework density 22.913385999999999
#
# number of rings (size 3 to 8) (size 9 to 14) (size 15 to 20)
#    0.000    0.889    6.667    0.000    9.333    0.889 
#    0.000    0.000    0.000    0.000    0.000    0.000 
#    0.000    0.000    0.000    0.000    0.000    0.000 
#
# Total GULP energy -100657.616916 kJ/mol
# GULP energy per Si atom -5592.089829 kJ/mol
# Density = 2.286123 g / cm^3
# Si number density = 22.913386 Si / 1000 Ang^3
#
#
#
# Elastic Constant Matrix: (Units=GPa)
#
#
# Indices 1 2 3 4 5 6 
#
# 1 227.1815 107.6361 27.5537 0.0000 3.8257 0.0000
# 2 107.6361 174.8160 19.9082 0.0000 4.8162 0.0000
# 3 27.5537 19.9082 83.2987 0.0000 -9.8443 0.0000
# 4 0.0000 0.0000 0.0000 25.6730 0.0000 0.7668
# 5 3.8257 4.8162 -9.8443 0.0000 40.8154 0.0000
# 6 0.0000 0.0000 0.0000 0.7668 0.0000 58.7930
#
#
#
# Elastic Compliance Matrix: (Units=1/GPa)
#
#
# Indices 1 2 3 4 5 6 
#
# 1 0.006336 -0.003746 -0.001254 0.000000 -0.000454 0.000000
# 2 -0.003746 0.008140 -0.000801 0.000000 -0.000803 0.000000
# 3 -0.001254 -0.000801 0.013007 0.000000 0.003349 0.000000
# 4 0.000000 0.000000 0.000000 0.038967 0.000000 -0.000508
# 5 -0.000454 -0.000803 0.003349 0.000000 0.025446 0.000000
# 6 0.000000 0.000000 0.000000 -0.000508 0.000000 0.017015
#
#
# Mechanical properties :
#
#
# Convention : Reuss Voigt Hill
#
# Bulk Modulus (GPa) = 62.97021 88.38802 75.67912
# Shear Modulus (GPa) = 39.74301 47.06946 43.40624
#
# Velocity S-wave (km/s) = 4.16924 4.53728 4.35715
# Velocity P-wave (km/s) = 7.12167 8.13067 7.64284
#
# Compressibility (1/GPa) = 0.01588053
#
# Stress axis : x y z
#
# Youngs Moduli (GPa) = 157.81897 122.84840 76.88023
#
# Poissons Ratio (x) = 0.46019 0.09644
# Poissons Ratio (y) = 0.59119 0.06160
# Poissons Ratio (z) = 0.19796 0.09843
#
# Static dielectric constant tensor:
#      x y z
#    x 2.090870 0.000000 -0.094900 
#    y 0.000000 1.796680 0.000000 
#    z -0.094900 0.000000 1.948590 
# 
# From -- ./inp_files/167474.got.cif
#   From: 2010.05.17/outbox.cif.g08.bks.cpg/sg15_84_cif.got.tgz:167474.got - 2010.06.03 18:47:42.
