data_PCOD9261673
_publ_section_title
;
Structure prediction by ZEFSAII (Michael W. Deem and Ramdas Pophale) SiO2 
 PCOD9261673
Probable space group: C 2/C
;
_chemical_formula_sum "Si O2"
_cell_formula_units_Z 56
_cell_length_a 21.314596
_cell_length_b 18.071030
_cell_length_c 24.678441
_cell_angle_alpha 90.000000
_cell_angle_beta 20.426459
_cell_angle_gamma 90.000000
_cell_volume 3317.486678
_symmetry_space_group_name_H-M "C 2/C"
_symmetry_group_IT_number 15
_symmetry_cell_setting 'monoclinic'
loop_
_space_group_symop_operation_xyz
x,y,z
-x,y,1/2-z
-x,-y,-z
x,-y,1/2+z
1/2+x,1/2+y,z
1/2-x,1/2+y,1/2-z
1/2-x,1/2-y,-z
1/2+x,1/2-y,1/2+z
loop_
_atom_site_type_symbol
_atom_site_label
_atom_site_fract_x
_atom_site_fract_y
_atom_site_fract_z
Si Si1 0.503370 0.671127 0.454152
Si Si2 0.964033 0.479322 0.466125
Si Si3 0.937021 0.122452 0.969881
Si Si4 0.194974 0.739644 0.105452
Si Si5 0.328798 0.522637 0.601027
Si Si6 0.875856 0.329089 0.586562
Si Si7 0.216839 0.627809 0.884714
O O1 0.544031 0.652701 0.484320
O O2 0.374434 0.603443 0.541169
O O3 0.688424 0.670614 0.270796
O O4 0.411963 0.751217 0.528205
O O5 0.883698 0.397252 0.537874
O O6 0.839817 0.547148 0.546590
O O7 0.000000 0.500000 0.500000
O O8 0.148682 0.477675 0.282692
O O9 0.130793 0.116741 0.784470
O O10 0.821059 0.181615 0.032300
O O11 0.835303 0.043945 0.053193
O O12 0.209779 0.814430 0.129872
O O13 0.000000 0.708871 0.250000
O O14 0.250000 0.750000 0.000000
O O15 0.500000 0.500000 0.500000
O O16 0.038858 0.340336 0.498340
#
# Coordination Sequence:
#
# PCOD9261673 Si02
#       7
#     8   8   8   8   8   8   8
#     4  11  20  31  50  74 103 133 168 205 255 312
#     4  10  19  31  49  71  97 130 167 204 254 311
#     4  11  21  35  51  69  99 134 171 215 259 298
#     4  12  26  38  52  74 100 138 184 220 254 298
#     4  10  19  31  49  71  97 130 167 204 254 311
#     4  11  20  31  50  74 103 133 168 205 255 312
#     4  11  21  35  51  69  99 134 171 215 259 298
#
# _framework density 16.880248999999999
#
# number of rings (size 3 to 8) (size 9 to 14) (size 15 to 20)
#    0.000    1.143    2.857    9.429    4.000    0.000 
#    0.000    0.000    0.000    0.000    0.000    0.000 
#    0.000    2.286    0.000    0.143    0.000    0.143 
#
# Total GULP energy -156050.420712 kJ/mol
# GULP energy per Si atom -5573.229311 kJ/mol
# Density = 1.684183 g / cm^3
# Si number density = 16.880249 Si / 1000 Ang^3
#
#
#
# Elastic Constant Matrix: (Units=GPa)
#
#
# Indices 1 2 3 4 5 6 
#
# 1 30.0800 20.6365 13.7813 -0.0045 7.1820 0.0013
# 2 20.6365 168.3271 60.5455 0.0274 10.7810 0.0211
# 3 13.7813 60.5455 176.9900 0.0087 26.6110 0.0212
# 4 -0.0045 0.0274 0.0087 30.8614 0.0113 -0.4388
# 5 7.1820 10.7810 26.6110 0.0113 22.3156 -0.0066
# 6 0.0013 0.0211 0.0212 -0.4388 -0.0066 0.2594
#
#
#
# Elastic Compliance Matrix: (Units=1/GPa)
#
#
# Indices 1 2 3 4 5 6 
#
# 1 0.038518 -0.004037 -0.000058 0.000012 -0.010377 -0.000105
# 2 -0.004037 0.007205 -0.002220 -0.000012 0.000466 -0.000392
# 3 -0.000058 -0.002220 0.007616 -0.000007 -0.007990 -0.000656
# 4 0.000012 -0.000012 -0.000007 0.033201 0.000010 0.056160
# 5 -0.010377 0.000466 -0.007990 0.000010 0.057455 0.002154
# 6 -0.000105 -0.000392 -0.000656 0.056160 0.002154 3.950301
#
#
# Mechanical properties :
#
#
# Convention : Reuss Voigt Hill
#
# Bulk Modulus (GPa) = 24.56506 62.81375 43.68940
# Shear Modulus (GPa) = 1.21345 29.38286 15.29816
#
# Velocity S-wave (km/s) = 0.84877 4.17665 3.01371
# Velocity P-wave (km/s) = 3.94268 7.78148 6.16831
#
# Compressibility (1/GPa) = 0.04070823
#
# Stress axis : x y z
#
# Youngs Moduli (GPa) = 25.96168 138.80184 131.31094
#
# Poissons Ratio (x) = 0.56030 0.00763
# Poissons Ratio (y) = 0.10480 0.29154
# Poissons Ratio (z) = 0.00151 0.30818
#
# Static dielectric constant tensor:
#      x y z
#    x 1.530930 0.000000 0.002920 
#    y 0.000000 1.651940 0.000010 
#    z 0.002920 0.000010 1.553750 
# 
# From -- ./inp_files/280400.got.cif
#   From: 2010.05.17/outbox.cif.g08.bks.cpg/sg15_141_cif.got.tgz:280400.got - 2010.06.03 18:47:42.
