data_PCOD9261252
_publ_section_title
;
Structure prediction by ZEFSAII (Michael W. Deem and Ramdas Pophale) SiO2 
 PCOD9261252
Probable space group: C 2/C
;
_chemical_formula_sum "Si O2"
_cell_formula_units_Z 44
_cell_length_a 10.862854
_cell_length_b 18.779418
_cell_length_c 10.010465
_cell_angle_alpha 90.000000
_cell_angle_beta 66.831071
_cell_angle_gamma 90.000000
_cell_volume 1877.416598
_symmetry_space_group_name_H-M "C 2/C"
_symmetry_group_IT_number 15
_symmetry_cell_setting 'monoclinic'
loop_
_space_group_symop_operation_xyz
x,y,z
-x,y,1/2-z
-x,-y,-z
x,-y,1/2+z
1/2+x,1/2+y,z
1/2-x,1/2+y,1/2-z
1/2-x,1/2-y,-z
1/2+x,1/2-y,1/2+z
loop_
_atom_site_type_symbol
_atom_site_label
_atom_site_fract_x
_atom_site_fract_y
_atom_site_fract_z
Si Si1 0.389710 0.177523 0.951661
Si Si2 0.000000 0.190234 0.250000
Si Si3 0.196633 0.645504 0.788637
Si Si4 0.655006 0.793458 0.724849
Si Si5 0.130176 0.895718 0.931959
Si Si6 0.597756 0.539391 0.814429
O O1 0.411426 0.256404 0.879372
O O2 0.540211 0.146132 0.887221
O O3 0.299913 0.140500 0.876375
O O4 0.345763 0.178953 0.122134
O O5 0.080029 0.143435 0.319744
O O6 0.265643 0.718723 0.806030
O O7 0.278646 0.578592 0.805814
O O8 0.500000 0.784209 0.750000
O O9 0.736042 0.849986 0.598170
O O10 0.149615 0.979371 0.892780
O O11 0.999805 0.899374 0.082949
O O12 0.500000 0.502790 0.750000
#
# Coordination Sequence:
#
# PCOD9261252 Si02
#       6
#     8   4   8   8   8   8
#     4  10  22  40  67  94 125 174 215 270 322 383
#     4  10  18  42  68  92 122 164 226 264 302 398
#     4  10  22  40  64  92 127 168 223 262 323 379
#     4  12  25  39  65  98 134 168 213 275 326 380
#     4  11  24  42  66  96 129 172 221 259 329 387
#     4  11  25  42  68  95 131 171 216 273 316 388
#
# _framework density 23.43646
#
# number of rings (size 3 to 8) (size 9 to 14) (size 15 to 20)
#    0.000    1.455    4.545    2.182    5.091    0.727 
#    3.273    0.909    0.000    0.000    0.000    0.000 
#    0.000    0.000    0.000    0.000    0.000    0.000 
#
# Total GULP energy -122943.072048 kJ/mol
# GULP energy per Si atom -5588.321457 kJ/mol
# Density = 2.338312 g / cm^3
# Si number density = 23.436460 Si / 1000 Ang^3
#
#
#
# Elastic Constant Matrix: (Units=GPa)
#
#
# Indices 1 2 3 4 5 6 
#
# 1 121.6048 28.2246 -0.5473 0.0000 -17.3435 0.0000
# 2 28.2246 65.6914 4.3993 0.0000 -11.8888 0.0000
# 3 -0.5473 4.3993 87.2418 0.0000 2.5862 0.0000
# 4 0.0000 0.0000 0.0000 31.2785 0.0000 6.4202
# 5 -17.3435 -11.8888 2.5862 0.0000 28.0331 0.0000
# 6 0.0000 0.0000 0.0000 6.4202 0.0000 20.3212
#
#
#
# Elastic Compliance Matrix: (Units=1/GPa)
#
#
# Indices 1 2 3 4 5 6 
#
# 1 0.009645 -0.003327 0.000093 0.000000 0.004547 0.000000
# 2 -0.003327 0.017731 -0.001080 0.000000 0.005561 0.000000
# 3 0.000093 -0.001080 0.011561 0.000000 -0.001467 0.000000
# 4 0.000000 0.000000 0.000000 0.034188 0.000000 -0.010801
# 5 0.004547 0.005561 -0.001467 0.000000 0.040979 0.000000
# 6 0.000000 0.000000 0.000000 -0.010801 0.000000 0.052622
#
#
# Mechanical properties :
#
#
# Convention : Reuss Voigt Hill
#
# Bulk Modulus (GPa) = 32.99305 37.63235 35.31270
# Shear Modulus (GPa) = 26.96066 32.09068 29.52567
#
# Velocity S-wave (km/s) = 3.39539 3.70437 3.55324
# Velocity P-wave (km/s) = 5.42953 5.86417 5.65103
#
# Compressibility (1/GPa) = 0.03030941
#
# Stress axis : x y z
#
# Youngs Moduli (GPa) = 103.68561 56.39866 86.49838
#
# Poissons Ratio (x) = 0.18765 -0.00809
# Poissons Ratio (y) = 0.34498 0.09340
# Poissons Ratio (z) = -0.00969 0.06090
#
# Static dielectric constant tensor:
#      x y z
#    x 1.943580 0.000000 0.015620 
#    y 0.000000 1.824590 0.000000 
#    z 0.015620 0.000000 1.958010 
# 
# From -- ./inp_files/87695.got.cif
#   From: 2010.05.17/outbox.cif.g08.bks.cpg/sg15_44_cif.got.tgz:87695.got - 2010.06.03 18:47:42.
