data_PCOD9261267
_publ_section_title
;
Structure prediction by ZEFSAII (Michael W. Deem and Ramdas Pophale) SiO2 
 PCOD9261267
Probable space group: C 2/C
;
_chemical_formula_sum "Si O2"
_cell_formula_units_Z 44
_cell_length_a 21.264732
_cell_length_b 16.628159
_cell_length_c 13.806072
_cell_angle_alpha 90.000000
_cell_angle_beta 20.538511
_cell_angle_gamma 90.000000
_cell_volume 1712.692741
_symmetry_space_group_name_H-M "C 2/C"
_symmetry_group_IT_number 15
_symmetry_cell_setting 'monoclinic'
loop_
_space_group_symop_operation_xyz
x,y,z
-x,y,1/2-z
-x,-y,-z
x,-y,1/2+z
1/2+x,1/2+y,z
1/2-x,1/2+y,1/2-z
1/2-x,1/2-y,-z
1/2+x,1/2-y,1/2+z
loop_
_atom_site_type_symbol
_atom_site_label
_atom_site_fract_x
_atom_site_fract_y
_atom_site_fract_z
Si Si1 0.703499 0.473562 0.689220
Si Si2 0.124149 0.319402 0.353961
Si Si3 0.316603 0.175400 0.150591
Si Si4 0.000000 0.173117 0.750000
Si Si5 0.296789 0.465153 0.024977
Si Si6 0.683326 0.110806 0.092980
O O1 0.780894 0.412193 0.655829
O O2 0.706918 0.431072 0.578782
O O3 0.809657 0.556769 0.513798
O O4 0.500000 0.500000 0.000000
O O5 0.008491 0.317412 0.422622
O O6 0.975891 0.327863 0.655075
O O7 0.259330 0.245274 0.160409
O O8 0.238058 0.401188 0.187335
O O9 0.180038 0.197238 0.434908
O O10 0.113820 0.141656 0.682131
O O11 0.500000 0.493602 0.750000
O O12 0.171509 0.543190 0.195933
#
# Coordination Sequence:
#
# PCOD9261267 Si02
#       6
#     8   8   8   4   8   8
#     4  10  21  41  70 101 132 182 233 286 344 412
#     4  11  26  45  68 102 145 185 234 284 353 416
#     4  11  25  43  69 102 141 185 231 285 346 422
#     4  10  18  42  72  94 140 178 228 282 350 402
#     4  10  22  42  70  96 135 181 230 287 355 411
#     4   9  19  40  70  97 130 180 227 286 337 412
#
# _framework density 25.690539999999999
#
# number of rings (size 3 to 8) (size 9 to 14) (size 15 to 20)
#    1.091    0.727    2.727    0.545    5.091    4.364 
#    0.000    0.000    4.000    0.000    0.000    0.000 
#    0.000    0.000    0.000    0.000    0.000    0.000 
#
# Total GULP energy -122635.304906 kJ/mol
# GULP energy per Si atom -5574.332041 kJ/mol
# Density = 2.563207 g / cm^3
# Si number density = 25.690540 Si / 1000 Ang^3
#
#
#
# Elastic Constant Matrix: (Units=GPa)
#
#
# Indices 1 2 3 4 5 6 
#
# 1 100.0850 29.6911 14.1631 -0.0021 -1.0092 -0.0004
# 2 29.6911 95.7441 15.4147 -0.0026 -17.7600 0.0006
# 3 14.1631 15.4147 76.8389 -0.0028 -7.2827 0.0008
# 4 -0.0021 -0.0026 -0.0028 26.6549 0.0025 -6.1792
# 5 -1.0092 -17.7600 -7.2827 0.0025 23.8104 0.0000
# 6 -0.0004 0.0006 0.0008 -6.1792 0.0000 15.1535
#
#
#
# Elastic Compliance Matrix: (Units=1/GPa)
#
#
# Indices 1 2 3 4 5 6 
#
# 1 0.011308 -0.003774 -0.001595 0.000001 -0.002823 0.000001
# 2 -0.003774 0.013580 -0.001116 0.000000 0.009628 -0.000001
# 3 -0.001595 -0.001116 0.013848 0.000001 0.003335 0.000000
# 4 0.000001 0.000000 0.000001 0.041433 -0.000004 0.016895
# 5 -0.002823 0.009628 0.003335 -0.000004 0.050081 -0.000002
# 6 0.000001 -0.000001 0.000000 0.016895 -0.000002 0.072881
#
#
# Mechanical properties :
#
#
# Convention : Reuss Voigt Hill
#
# Bulk Modulus (GPa) = 38.80897 43.46731 41.13814
# Shear Modulus (GPa) = 22.25284 27.35037 24.80160
#
# Velocity S-wave (km/s) = 2.94630 3.26637 3.11046
# Velocity P-wave (km/s) = 5.16850 5.58408 5.38030
#
# Compressibility (1/GPa) = 0.02576724
#
# Stress axis : x y z
#
# Youngs Moduli (GPa) = 88.43109 73.63518 72.21110
#
# Poissons Ratio (x) = 0.27788 0.11517
# Poissons Ratio (y) = 0.33371 0.08061
# Poissons Ratio (z) = 0.14104 0.08220
#
# Static dielectric constant tensor:
#      x y z
#    x 2.137760 0.000000 0.041240 
#    y 0.000000 2.183450 0.000000 
#    z 0.041240 0.000000 1.961980 
# 
# From -- ./inp_files/174411.got.cif
#   From: 2010.05.17/outbox.cif.g08.bks.cpg/sg15_88_cif.got.tgz:174411.got - 2010.06.03 18:47:42.
