data_PCOD9261350
_publ_section_title
;
Structure prediction by ZEFSAII (Michael W. Deem and Ramdas Pophale) SiO2 
 PCOD9261350
Probable space group: C 2/C
;
_chemical_formula_sum "Si O2"
_cell_formula_units_Z 56
_cell_length_a 21.155556
_cell_length_b 34.963354
_cell_length_c 5.376346
_cell_angle_alpha 90.000000
_cell_angle_beta 105.266944
_cell_angle_gamma 90.000000
_cell_volume 3836.377144
_symmetry_space_group_name_H-M "C 2/C"
_symmetry_group_IT_number 15
_symmetry_cell_setting 'monoclinic'
loop_
_space_group_symop_operation_xyz
x,y,z
-x,y,1/2-z
-x,-y,-z
x,-y,1/2+z
1/2+x,1/2+y,z
1/2-x,1/2+y,1/2-z
1/2-x,1/2-y,-z
1/2+x,1/2-y,1/2+z
loop_
_atom_site_type_symbol
_atom_site_label
_atom_site_fract_x
_atom_site_fract_y
_atom_site_fract_z
Si Si1 0.109495 0.419512 0.311379
Si Si2 0.144167 0.766645 0.395616
Si Si3 0.430178 0.041199 0.232710
Si Si4 0.922190 0.257257 0.172805
Si Si5 0.300284 0.987150 0.093274
Si Si6 0.661038 0.164190 0.913045
Si Si7 0.772453 0.687600 0.018358
O O1 0.070465 0.436363 0.507502
O O2 0.178042 0.443264 0.392964
O O3 0.120668 0.374854 0.354078
O O4 0.081019 0.430557 0.012549
O O5 0.101650 0.764133 0.602058
O O6 0.187573 0.727715 0.439446
O O7 0.196345 0.801018 0.450357
O O8 0.102225 0.764465 0.100215
O O9 0.500000 0.021987 0.250000
O O10 0.369306 0.011752 0.173115
O O11 0.886639 0.298815 0.135975
O O12 0.000000 0.261840 0.250000
O O13 0.265649 0.998803 0.310079
O O14 0.706805 0.167546 0.716712
O O15 0.702850 0.165754 0.210562
#
# Coordination Sequence:
#
# PCOD9261350 Si02
#       7
#     8   8   8   8   8   8   8
#     4  10  19  29  39  54  73  94 120 158 205 239
#     4   9  17  30  46  60  74  99 131 158 188 225
#     4  10  19  29  40  52  68  96 134 166 191 226
#     4  10  19  29  41  60  85 105 122 151 197 248
#     4   8  16  27  39  51  66  89 123 161 193 219
#     4  10  19  30  42  59  80 100 125 160 206 246
#     4   9  17  30  47  60  72  95 131 166 189 225
#
# _framework density 14.597105000000001
#
# number of rings (size 3 to 8) (size 9 to 14) (size 15 to 20)
#    0.000    2.571    0.000    2.571    0.000    9.714 
#    0.000    0.000    0.000    0.000    0.000    0.000 
#    0.000    0.000    0.000    0.000    0.000    0.000 
#
# Total GULP energy -156005.165439 kJ/mol
# GULP energy per Si atom -5571.613051 kJ/mol
# Density = 1.456388 g / cm^3
# Si number density = 14.597105 Si / 1000 Ang^3
#
#
#
# Elastic Constant Matrix: (Units=GPa)
#
#
# Indices 1 2 3 4 5 6 
#
# 1 59.7911 21.3333 40.7429 0.0000 -7.7083 0.0000
# 2 21.3333 28.9864 16.0612 0.0000 -0.4654 0.0000
# 3 40.7429 16.0612 122.0221 0.0000 -22.8572 0.0000
# 4 0.0000 0.0000 0.0000 15.2848 0.0000 -1.3123
# 5 -7.7083 -0.4654 -22.8572 0.0000 22.5508 0.0000
# 6 0.0000 0.0000 0.0000 -1.3123 0.0000 7.2909
#
#
#
# Elastic Compliance Matrix: (Units=1/GPa)
#
#
# Indices 1 2 3 4 5 6 
#
# 1 0.027355 -0.016486 -0.006513 0.000000 0.002409 0.000000
# 2 -0.016486 0.047645 -0.002022 0.000000 -0.006701 0.000000
# 3 -0.006513 -0.002022 0.012604 0.000000 0.010508 0.000000
# 4 0.000000 0.000000 0.000000 0.066451 0.000000 0.011961
# 5 0.002409 -0.006701 0.010508 0.000000 0.055680 0.000000
# 6 0.000000 0.000000 0.000000 0.011961 0.000000 0.139310
#
#
# Mechanical properties :
#
#
# Convention : Reuss Voigt Hill
#
# Bulk Modulus (GPa) = 26.62142 40.78605 33.70373
# Shear Modulus (GPa) = 12.14747 17.86945 15.00846
#
# Velocity S-wave (km/s) = 2.88789 3.50262 3.21000
# Velocity P-wave (km/s) = 5.42189 6.66030 6.07275
#
# Compressibility (1/GPa) = 0.03756374
#
# Stress axis : x y z
#
# Youngs Moduli (GPa) = 36.55579 20.98859 79.33843
#
# Poissons Ratio (x) = 0.34601 0.51671
# Poissons Ratio (y) = 0.60265 0.16043
# Poissons Ratio (z) = 0.23808 0.04244
#
# Static dielectric constant tensor:
#      x y z
#    x 1.467280 0.000000 -0.025130 
#    y 0.000000 1.470890 0.000000 
#    z -0.025130 0.000000 1.540210 
# 
# From -- ./inp_files/12061.got.cif
#   From: 2010.05.17/outbox.cif.g08.bks.cpg/sg15_7_cif.got.tgz:12061.got - 2010.06.03 18:47:42.
