data_PCOD9261894
_publ_section_title
;
Structure prediction by ZEFSAII (Michael W. Deem and Ramdas Pophale) SiO2 
 PCOD9261894
Probable space group: C 2/C
;
_chemical_formula_sum "Si O2"
_cell_formula_units_Z 64
_cell_length_a 23.763077
_cell_length_b 20.623113
_cell_length_c 8.217664
_cell_angle_alpha 90.000000
_cell_angle_beta 93.701226
_cell_angle_gamma 90.000000
_cell_volume 4018.819450
_symmetry_space_group_name_H-M "C 2/C"
_symmetry_group_IT_number 15
_symmetry_cell_setting 'monoclinic'
loop_
_space_group_symop_operation_xyz
x,y,z
-x,y,1/2-z
-x,-y,-z
x,-y,1/2+z
1/2+x,1/2+y,z
1/2-x,1/2+y,1/2-z
1/2-x,1/2-y,-z
1/2+x,1/2-y,1/2+z
loop_
_atom_site_type_symbol
_atom_site_label
_atom_site_fract_x
_atom_site_fract_y
_atom_site_fract_z
Si Si1 0.472643 0.595350 0.078968
Si Si2 0.726445 0.424298 0.984379
Si Si3 0.619024 0.636145 0.644167
Si Si4 0.798071 0.314049 0.149211
Si Si5 0.781965 0.680978 0.005191
Si Si6 0.083393 0.956190 0.425904
Si Si7 0.704751 0.434120 0.597634
Si Si8 0.679853 0.761771 0.675380
O O1 0.500000 0.617849 0.250000
O O2 0.432939 0.531626 0.101008
O O3 0.433530 0.646706 0.983611
O O4 0.525495 0.573873 0.980237
O O5 0.671370 0.392176 0.054284
O O6 0.776608 0.380523 0.063127
O O7 0.730649 0.498064 0.043122
O O8 0.717589 0.422919 0.789411
O O9 0.599866 0.580360 0.764304
O O10 0.640316 0.702843 0.725045
O O11 0.815770 0.324322 0.340720
O O12 0.742930 0.267799 0.162767
O O13 0.835650 0.283109 0.012142
O O14 0.734889 0.624389 0.006366
O O15 0.816463 0.684580 0.181755
O O16 0.750000 0.750000 0.000000
O O17 0.137815 0.942685 0.549644
#
# Coordination Sequence:
#
# PCOD9261894 Si02
#       8
#     8   8   8   8   8   8   8   8
#     4  11  22  35  47  65  93 125 165 219 262 288
#     4  11  21  31  47  70  96 124 164 212 243 293
#     4  11  21  35  49  66  91 123 170 209 255 302
#     4   9  17  32  47  67  94 118 152 202 250 290
#     4  10  19  32  49  69  94 122 160 204 247 299
#     4  11  21  33  48  65  91 129 165 211 259 290
#     4  12  21  32  48  72  96 129 172 206 248 295
#     4   9  18  33  49  67  90 121 155 206 247 299
#
# _framework density 15.925075
#
# number of rings (size 3 to 8) (size 9 to 14) (size 15 to 20)
#    0.000    1.500    2.500    6.375    1.750    0.000 
#    2.250    0.000    0.000    0.000    0.000    0.000 
#    0.000    0.000    0.000    0.000    0.000   17.500 
#
# Total GULP energy -178334.389152 kJ/mol
# GULP energy per Si atom -5572.949661 kJ/mol
# Density = 1.588883 g / cm^3
# Si number density = 15.925075 Si / 1000 Ang^3
#
#
#
# Elastic Constant Matrix: (Units=GPa)
#
#
# Indices 1 2 3 4 5 6 
#
# 1 15.5221 7.0405 11.8237 0.0000 0.9009 0.0000
# 2 7.0405 44.6065 14.7521 0.0000 1.9405 0.0000
# 3 11.8237 14.7521 110.5997 0.0000 -2.9680 0.0000
# 4 0.0000 0.0000 0.0000 23.2991 0.0000 -0.2551
# 5 0.9009 1.9405 -2.9680 0.0000 18.9868 0.0000
# 6 0.0000 0.0000 0.0000 -0.2551 0.0000 3.9514
#
#
#
# Elastic Compliance Matrix: (Units=1/GPa)
#
#
# Indices 1 2 3 4 5 6 
#
# 1 0.074002 -0.009284 -0.006770 0.000000 -0.003621 0.000000
# 2 -0.009284 0.024777 -0.002379 0.000000 -0.002464 0.000000
# 3 -0.006770 -0.002379 0.010140 0.000000 0.002149 0.000000
# 4 0.000000 0.000000 0.000000 0.042951 0.000000 0.002773
# 5 -0.003621 -0.002464 0.002149 0.000000 0.053428 0.000000
# 6 0.000000 0.000000 0.000000 0.002773 0.000000 0.253256
#
#
# Mechanical properties :
#
#
# Convention : Reuss Voigt Hill
#
# Bulk Modulus (GPa) = 13.87824 26.44010 20.15917
# Shear Modulus (GPa) = 9.62580 18.38825 14.00703
#
# Velocity S-wave (km/s) = 2.46121 3.40173 2.96895
# Velocity P-wave (km/s) = 4.10004 5.66285 4.94360
#
# Compressibility (1/GPa) = 0.07205523
#
# Stress axis : x y z
#
# Youngs Moduli (GPa) = 13.51312 40.35948 98.61636
#
# Poissons Ratio (x) = 0.37469 0.66764
# Poissons Ratio (y) = 0.12545 0.23456
# Poissons Ratio (z) = 0.09148 0.09600
#
# Static dielectric constant tensor:
#      x y z
#    x 1.510290 0.000000 0.005290 
#    y 0.000000 1.555320 0.000000 
#    z 0.005290 0.000000 1.642650 
# 
# From -- ./inp_files/63111.got.cif
#   From: 2010.05.17/outbox.cif.g08.bks.cpg/sg15_32_cif.got.tgz:63111.got - 2010.06.03 18:47:42.
