data_PCOD9261773
_publ_section_title
;
Structure prediction by ZEFSAII (Michael W. Deem and Ramdas Pophale) SiO2 
 PCOD9261773
Probable space group: C 2/C
;
_chemical_formula_sum "Si O2"
_cell_formula_units_Z 60
_cell_length_a 20.862079
_cell_length_b 4.981648
_cell_length_c 26.989428
_cell_angle_alpha 90.000000
_cell_angle_beta 99.134511
_cell_angle_gamma 90.000000
_cell_volume 2769.373412
_symmetry_space_group_name_H-M "C 2/C"
_symmetry_group_IT_number 15
_symmetry_cell_setting 'monoclinic'
loop_
_space_group_symop_operation_xyz
x,y,z
-x,y,1/2-z
-x,-y,-z
x,-y,1/2+z
1/2+x,1/2+y,z
1/2-x,1/2+y,1/2-z
1/2-x,1/2-y,-z
1/2+x,1/2-y,1/2+z
loop_
_atom_site_type_symbol
_atom_site_label
_atom_site_fract_x
_atom_site_fract_y
_atom_site_fract_z
Si Si1 0.588947 0.036856 0.054031
Si Si2 0.796367 0.926307 0.757034
Si Si3 0.000000 0.000000 0.500000
Si Si4 0.398572 0.315161 0.031880
Si Si5 0.682784 0.409227 0.344885
Si Si6 0.329641 0.768233 0.365188
Si Si7 0.199498 0.097784 0.543287
Si Si8 0.342620 0.903740 0.095860
O O1 0.658929 0.127084 0.039949
O O2 0.608233 0.939558 0.110625
O O3 0.542574 0.283251 0.041364
O O4 0.565509 0.787388 0.016204
O O5 0.756431 0.657864 0.738895
O O6 0.835216 0.021356 0.713477
O O7 0.834182 0.864833 0.812119
O O8 0.052114 0.058021 0.457748
O O9 0.392058 0.078132 0.069200
O O10 0.329500 0.426274 0.005590
O O11 0.761796 0.437171 0.356944
O O12 0.670575 0.104850 0.359647
O O13 0.649153 0.609652 0.379856
O O14 0.320809 0.553784 0.408308
O O15 0.276177 0.116681 0.555688
#
# Coordination Sequence:
#
# PCOD9261773 Si02
#       8
#     8   8   4   8   8   8   8   8
#     4  10  19  35  53  77 108 142 190 235 280 330
#     4  10  19  31  53  78 115 155 180 218 276 330
#     4  10  22  38  54  74 106 138 198 246 276 330
#     4  10  22  34  54  73 105 148 182 231 277 328
#     4  10  20  33  49  81 116 144 181 217 263 343
#     4   9  18  31  51  77 113 148 177 223 277 329
#     4   9  18  32  48  79 109 142 179 215 262 340
#     4  11  21  34  52  79 115 150 177 216 276 336
#
# _framework density 21.665552000000002
#
# number of rings (size 3 to 8) (size 9 to 14) (size 15 to 20)
#    0.000    2.133    1.333    3.200    5.600    0.533 
#    0.000    0.000    0.000    0.000    0.000    0.933 
#    0.000    0.000    0.000    0.000    0.000    0.000 
#
# Total GULP energy -167141.234900 kJ/mol
# GULP energy per Si atom -5571.374497 kJ/mol
# Density = 2.161624 g / cm^3
# Si number density = 21.665552 Si / 1000 Ang^3
#
#
#
# Elastic Constant Matrix: (Units=GPa)
#
#
# Indices 1 2 3 4 5 6 
#
# 1 48.9238 13.3108 27.0794 0.0000 -2.8012 0.0000
# 2 13.3108 110.8432 36.5380 0.0000 5.0037 0.0000
# 3 27.0794 36.5380 114.4419 0.0000 -2.1339 0.0000
# 4 0.0000 0.0000 0.0000 41.0849 0.0000 -3.8368
# 5 -2.8012 5.0037 -2.1339 0.0000 21.5184 0.0000
# 6 0.0000 0.0000 0.0000 -3.8368 0.0000 32.4323
#
#
#
# Elastic Compliance Matrix: (Units=1/GPa)
#
#
# Indices 1 2 3 4 5 6 
#
# 1 0.023817 -0.001286 -0.005171 0.000000 0.002887 0.000000
# 2 -0.001286 0.010308 -0.003040 0.000000 -0.002866 0.000000
# 3 -0.005171 -0.003040 0.010953 0.000000 0.001120 0.000000
# 4 0.000000 0.000000 0.000000 0.024612 0.000000 0.002912
# 5 0.002887 -0.002866 0.001120 0.000000 0.047625 0.000000
# 6 0.000000 0.000000 0.000000 0.002912 0.000000 0.031178
#
#
# Mechanical properties :
#
#
# Convention : Reuss Voigt Hill
#
# Bulk Modulus (GPa) = 38.33808 47.56283 42.95045
# Shear Modulus (GPa) = 28.37970 32.15916 30.26943
#
# Velocity S-wave (km/s) = 3.62318 3.85690 3.74187
# Velocity P-wave (km/s) = 5.93608 6.46801 6.20774
#
# Compressibility (1/GPa) = 0.02608373
#
# Stress axis : x y z
#
# Youngs Moduli (GPa) = 41.98602 97.01525 91.29731
#
# Poissons Ratio (x) = 0.12474 0.47213
# Poissons Ratio (y) = 0.05399 0.27756
# Poissons Ratio (z) = 0.21713 0.29494
#
# Static dielectric constant tensor:
#      x y z
#    x 2.017390 0.000000 0.001980 
#    y 0.000000 1.997460 0.000000 
#    z 0.001980 0.000000 1.840720 
# 
# From -- ./inp_files/301622.got.cif
#   From: 2010.05.17/outbox.cif.g08.bks.cpg/sg15_151_cif.got.tgz:301622.got - 2010.06.03 18:47:42.
