data_PCOD9261920
_publ_section_title
;
Structure prediction by ZEFSAII (Michael W. Deem and Ramdas Pophale) SiO2 
 PCOD9261920
Probable space group: C 2/C
;
_chemical_formula_sum "Si O2"
_cell_formula_units_Z 56
_cell_length_a 31.120250
_cell_length_b 10.627630
_cell_length_c 8.657378
_cell_angle_alpha 90.000000
_cell_angle_beta 57.322917
_cell_angle_gamma 90.000000
_cell_volume 2410.110960
_symmetry_space_group_name_H-M "C 2/C"
_symmetry_group_IT_number 15
_symmetry_cell_setting 'monoclinic'
loop_
_space_group_symop_operation_xyz
x,y,z
-x,y,1/2-z
-x,-y,-z
x,-y,1/2+z
1/2+x,1/2+y,z
1/2-x,1/2+y,1/2-z
1/2-x,1/2-y,-z
1/2+x,1/2-y,1/2+z
loop_
_atom_site_type_symbol
_atom_site_label
_atom_site_fract_x
_atom_site_fract_y
_atom_site_fract_z
Si Si1 0.536192 0.250445 0.828864
Si Si2 0.048221 0.135962 0.807463
Si Si3 0.193293 0.899584 0.855989
Si Si4 0.234056 0.487726 0.535143
Si Si5 0.164192 0.378017 0.418322
Si Si6 0.052561 0.606690 0.099043
Si Si7 0.900268 0.078352 0.477299
O O1 0.500000 0.229502 0.750000
O O2 0.588162 0.306080 0.658827
O O3 0.505036 0.350822 0.995975
O O4 0.547385 0.140607 0.928346
O O5 0.052495 0.267838 0.707959
O O6 0.059430 0.026423 0.663444
O O7 0.088520 0.116747 0.868460
O O8 0.232914 0.923824 0.641364
O O9 0.161231 0.772152 0.902128
O O10 0.226547 0.902031 0.946525
O O11 0.154538 0.016446 0.933222
O O12 0.193155 0.407768 0.519768
O O13 0.201995 0.570650 0.715507
O O14 0.109094 0.445021 0.515887
O O15 0.000000 0.539615 0.250000
#
# Coordination Sequence:
#
# PCOD9261920 Si02
#       7
#     8   8   8   8   8   8   8
#     4   9  20  34  51  86 133 175 207 245 307 392
#     4  10  19  32  49  84 130 174 207 239 306 384
#     4  11  22  39  65  97 132 163 216 259 318 386
#     4  10  25  44  65  94 124 170 218 269 319 376
#     4  11  23  46  69  89 127 164 215 270 330 369
#     4  10  21  39  64  92 126 167 214 263 318 383
#     4  11  19  30  53  86 129 171 199 241 306 385
#
# _framework density 23.235444000000001
#
# number of rings (size 3 to 8) (size 9 to 14) (size 15 to 20)
#    0.000    1.714    1.429    3.000    2.000    4.000 
#    0.000    7.857    0.000    0.000    0.000    0.000 
#    0.000    0.000    0.000    0.000    0.000    0.000 
#
# Total GULP energy -156564.478358 kJ/mol
# GULP energy per Si atom -5591.588513 kJ/mol
# Density = 2.318256 g / cm^3
# Si number density = 23.235444 Si / 1000 Ang^3
#
#
#
# Elastic Constant Matrix: (Units=GPa)
#
#
# Indices 1 2 3 4 5 6 
#
# 1 140.2023 5.9937 62.1509 0.0000 -10.6847 0.0000
# 2 5.9937 38.8083 16.2728 0.0000 2.6812 0.0000
# 3 62.1509 16.2728 83.0053 0.0000 15.3609 0.0000
# 4 0.0000 0.0000 0.0000 -8.1691 0.0000 -1.4411
# 5 -10.6847 2.6812 15.3609 0.0000 43.7532 0.0000
# 6 0.0000 0.0000 0.0000 -1.4411 0.0000 24.9038
#
#
#
# Elastic Compliance Matrix: (Units=1/GPa)
#
#
# Indices 1 2 3 4 5 6 
#
# 1 0.012423 0.002222 -0.010988 0.000000 0.006755 0.000000
# 2 0.002222 0.028475 -0.007512 0.000000 0.001435 0.000000
# 3 -0.010988 -0.007512 0.023698 0.000000 -0.010543 0.000000
# 4 0.000000 0.000000 0.000000 -0.121175 0.000000 -0.007012
# 5 0.006755 0.001435 -0.010543 0.000000 0.028119 0.000000
# 6 0.000000 0.000000 0.000000 -0.007012 0.000000 0.039749
#
#
# Mechanical properties :
#
#
# Convention : Reuss Voigt Hill
#
# Bulk Modulus (GPa) = 31.20932 47.87231 39.54081
# Shear Modulus (GPa) = 91.70331 23.93747 57.82039
#
# Velocity S-wave (km/s) = 6.28909 3.21318 4.99385
# Velocity P-wave (km/s) = 8.13620 5.86633 7.09266
#
# Compressibility (1/GPa) = 0.03204171
#
# Stress axis : x y z
#
# Youngs Moduli (GPa) = 80.49516 35.11843 42.19739
#
# Poissons Ratio (x) = -0.07803 0.46365
# Poissons Ratio (y) = -0.17885 0.31697
# Poissons Ratio (z) = 0.88445 0.26380
#
# Static dielectric constant tensor:
#      x y z
#    x 1.868450 0.000000 -0.007020 
#    y 0.000000 1.902280 0.000000 
#    z -0.007020 0.000000 1.848100 
# 
# From -- ./inp_files/69294.got.cif
#   From: 2010.05.17/outbox.cif.g08.bks.cpg/sg15_35_cif.got.tgz:69294.got - 2010.06.03 18:47:42.
