data_PCOD9261904
_publ_section_title
;
Structure prediction by ZEFSAII (Michael W. Deem and Ramdas Pophale) SiO2 
 PCOD9261904
Probable space group: C 2/C
;
_chemical_formula_sum "Si O2"
_cell_formula_units_Z 56
_cell_length_a 28.655444
_cell_length_b 15.208079
_cell_length_c 9.116787
_cell_angle_alpha 90.000000
_cell_angle_beta 51.555723
_cell_angle_gamma 90.000000
_cell_volume 3111.740094
_symmetry_space_group_name_H-M "C 2/C"
_symmetry_group_IT_number 15
_symmetry_cell_setting 'monoclinic'
loop_
_space_group_symop_operation_xyz
x,y,z
-x,y,1/2-z
-x,-y,-z
x,-y,1/2+z
1/2+x,1/2+y,z
1/2-x,1/2+y,1/2-z
1/2-x,1/2-y,-z
1/2+x,1/2-y,1/2+z
loop_
_atom_site_type_symbol
_atom_site_label
_atom_site_fract_x
_atom_site_fract_y
_atom_site_fract_z
Si Si1 0.246581 0.116522 0.554640
Si Si2 0.178229 0.685277 0.565910
Si Si3 0.445331 0.112179 0.055324
Si Si4 0.792477 0.003652 0.129788
Si Si5 0.185294 0.872240 0.657754
Si Si6 0.575464 0.058149 0.733166
Si Si7 0.658261 0.236617 0.263948
O O1 0.244351 0.061781 0.410929
O O2 0.299908 0.184169 0.432513
O O3 0.182342 0.164764 0.696801
O O4 0.251044 0.052559 0.682535
O O5 0.159630 0.774387 0.688248
O O6 0.243912 0.651004 0.477040
O O7 0.132864 0.606873 0.681654
O O8 0.175357 0.711016 0.398280
O O9 0.408945 0.203507 0.132744
O O10 0.427708 0.042999 0.214578
O O11 0.516844 0.109930 0.906801
O O12 0.425570 0.068665 0.939684
O O13 0.826848 0.069760 0.173149
O O14 0.827299 0.934541 0.957996
#
# Coordination Sequence:
#
# PCOD9261904 Si02
#       7
#     8   8   8   8   8   8   8
#     4  10  20  32  47  73  99 132 162 201 242 297
#     4  10  19  32  49  73 102 128 166 203 238 293
#     4   9  19  34  51  72  97 130 166 198 238 288
#     4  10  20  32  48  68 100 130 166 192 250 292
#     4  10  20  32  47  73  99 132 162 201 242 297
#     4   9  19  34  51  72  97 130 166 198 238 288
#     4  10  19  32  49  73 102 128 166 203 238 293
#
# _framework density 17.996361
#
# number of rings (size 3 to 8) (size 9 to 14) (size 15 to 20)
#    0.000    2.286    2.857    0.000    4.000    0.000 
#    2.571    0.000    0.000    0.000    0.000    6.000 
#    0.000    0.000    0.000    0.000    0.000    0.000 
#
# Total GULP energy -155955.009872 kJ/mol
# GULP energy per Si atom -5569.821781 kJ/mol
# Density = 1.795540 g / cm^3
# Si number density = 17.996361 Si / 1000 Ang^3
#
#
#
# Elastic Constant Matrix: (Units=GPa)
#
#
# Indices 1 2 3 4 5 6 
#
# 1 33.4127 8.5257 16.8882 0.0000 0.0453 0.0000
# 2 8.5257 48.7661 12.3987 0.0000 7.3800 0.0000
# 3 16.8882 12.3987 33.2264 0.0000 16.2338 0.0000
# 4 0.0000 0.0000 0.0000 25.5449 0.0000 2.5173
# 5 0.0453 7.3800 16.2338 0.0000 19.0095 0.0000
# 6 0.0000 0.0000 0.0000 2.5173 0.0000 22.5498
#
#
#
# Elastic Compliance Matrix: (Units=1/GPa)
#
#
# Indices 1 2 3 4 5 6 
#
# 1 0.054004 -0.003933 -0.045755 0.000000 0.040472 0.000000
# 2 -0.003933 0.023023 -0.003826 0.000000 -0.005662 0.000000
# 3 -0.045755 -0.003826 0.092665 0.000000 -0.077540 0.000000
# 4 0.000000 0.000000 0.000000 0.039582 0.000000 -0.004419
# 5 0.040472 -0.005662 -0.077540 0.000000 0.120925 0.000000
# 6 0.000000 0.000000 0.000000 -0.004419 0.000000 0.044839
#
#
# Mechanical properties :
#
#
# Convention : Reuss Voigt Hill
#
# Bulk Modulus (GPa) = 15.95830 21.22560 18.59195
# Shear Modulus (GPa) = 9.94124 18.59369 14.26746
#
# Velocity S-wave (km/s) = 2.35287 3.21782 2.81872
# Velocity P-wave (km/s) = 4.03338 5.06219 4.57678
#
# Compressibility (1/GPa) = 0.06266332
#
# Stress axis : x y z
#
# Youngs Moduli (GPa) = 18.51712 43.43444 10.79155
#
# Poissons Ratio (x) = 0.17084 0.49377
# Poissons Ratio (y) = 0.07283 0.04129
# Poissons Ratio (z) = 0.84726 0.16618
#
# Static dielectric constant tensor:
#      x y z
#    x 1.618090 0.000000 0.019760 
#    y 0.000000 1.667350 0.000000 
#    z 0.019760 0.000000 1.637310 
# 
# From -- ./inp_files/69905.got.cif
#   From: 2010.05.17/outbox.cif.g08.bks.cpg/sg15_35_cif.got.tgz:69905.got - 2010.06.03 18:47:42.
