data_PCOD9261377
_publ_section_title
;
Structure prediction by ZEFSAII (Michael W. Deem and Ramdas Pophale) SiO2 
 PCOD9261377
Probable space group: C 2/C
;
_chemical_formula_sum "Si O2"
_cell_formula_units_Z 56
_cell_length_a 21.849808
_cell_length_b 27.404632
_cell_length_c 5.353727
_cell_angle_alpha 90.000000
_cell_angle_beta 102.090632
_cell_angle_gamma 90.000000
_cell_volume 3134.625234
_symmetry_space_group_name_H-M "C 2/C"
_symmetry_group_IT_number 15
_symmetry_cell_setting 'monoclinic'
loop_
_space_group_symop_operation_xyz
x,y,z
-x,y,1/2-z
-x,-y,-z
x,-y,1/2+z
1/2+x,1/2+y,z
1/2-x,1/2+y,1/2-z
1/2-x,1/2-y,-z
1/2+x,1/2-y,1/2+z
loop_
_atom_site_type_symbol
_atom_site_label
_atom_site_fract_x
_atom_site_fract_y
_atom_site_fract_z
Si Si1 0.232249 0.177570 0.376720
Si Si2 0.154779 0.271354 0.337622
Si Si3 0.830504 0.860078 0.159542
Si Si4 0.472725 0.213799 0.981785
Si Si5 0.000000 0.054831 0.750000
Si Si6 0.000000 0.118381 0.250000
Si Si7 0.067833 0.799749 0.064297
Si Si8 0.362671 0.473704 0.197837
O O1 0.203961 0.231160 0.284624
O O2 0.304896 0.186099 0.503358
O O3 0.201007 0.158124 0.607540
O O4 0.213606 0.146744 0.118730
O O5 0.101986 0.285824 0.093239
O O6 0.113707 0.241987 0.504173
O O7 0.893847 0.827054 0.183958
O O8 0.847526 0.916606 0.197667
O O9 0.500000 0.192396 0.750000
O O10 0.500000 0.189253 0.250000
O O11 0.502785 0.269113 0.017870
O O12 0.988343 0.087440 0.490719
O O13 0.061725 0.024159 0.746956
O O14 0.056404 0.154809 0.369208
O O15 0.339709 0.501619 0.423507
#
# Coordination Sequence:
#
# PCOD9261377 Si02
#       8
#     8   8   8   8   4   4   8   8
#     4  10  22  35  51  73  98 137 169 216 254 296
#     4   9  19  33  50  72 104 133 177 213 249 290
#     4  11  23  38  55  72 100 129 177 216 265 309
#     4  10  19  29  46  70  97 131 169 209 243 283
#     4  12  26  37  56  74 102 128 166 218 286 319
#     4  12  22  33  52  80  98 138 170 214 258 305
#     4  10  20  33  52  75 103 137 177 215 250 297
#     4  12  25  41  58  75  98 127 167 222 282 331
#
# _framework density 17.864972999999999
#
# number of rings (size 3 to 8) (size 9 to 14) (size 15 to 20)
#    0.000    1.429    3.571    3.000    5.000    7.429 
#    0.000    0.000    0.000    0.000    0.000    0.000 
#    0.000    0.000    0.000    0.000    0.000  207.143 
#
# Total GULP energy -156118.321177 kJ/mol
# GULP energy per Si atom -5575.654328 kJ/mol
# Density = 1.782431 g / cm^3
# Si number density = 17.864973 Si / 1000 Ang^3
#
#
#
# Elastic Constant Matrix: (Units=GPa)
#
#
# Indices 1 2 3 4 5 6 
#
# 1 50.8628 15.6014 44.8253 0.0000 20.5768 0.0000
# 2 15.6014 39.9270 25.2481 0.0000 6.3224 0.0000
# 3 44.8253 25.2481 139.5181 0.0000 -2.0559 0.0000
# 4 0.0000 0.0000 0.0000 14.1985 0.0000 -4.3825
# 5 20.5768 6.3224 -2.0559 0.0000 34.1633 0.0000
# 6 0.0000 0.0000 0.0000 -4.3825 0.0000 14.6623
#
#
#
# Elastic Compliance Matrix: (Units=1/GPa)
#
#
# Indices 1 2 3 4 5 6 
#
# 1 0.043625 -0.004260 -0.013633 0.000000 -0.026308 0.000000
# 2 -0.004260 0.029789 -0.004069 0.000000 -0.003192 0.000000
# 3 -0.013633 -0.004069 0.012427 0.000000 0.009712 0.000000
# 4 0.000000 0.000000 0.000000 0.077588 0.000000 0.023191
# 5 -0.026308 -0.003192 0.009712 0.000000 0.046292 0.000000
# 6 0.000000 0.000000 0.000000 0.023191 0.000000 0.075134
#
#
# Mechanical properties :
#
#
# Convention : Reuss Voigt Hill
#
# Bulk Modulus (GPa) = 23.85653 44.62861 34.24257
# Shear Modulus (GPa) = 14.58787 22.24702 18.41745
#
# Velocity S-wave (km/s) = 2.86066 3.53269 3.21429
# Velocity P-wave (km/s) = 4.92889 6.45563 5.74322
#
# Compressibility (1/GPa) = 0.04191725
#
# Stress axis : x y z
#
# Youngs Moduli (GPa) = 22.92263 33.56962 80.46914
#
# Poissons Ratio (x) = 0.14300 1.09703
# Poissons Ratio (y) = 0.09764 0.32745
# Poissons Ratio (z) = 0.31250 0.13660
#
# Static dielectric constant tensor:
#      x y z
#    x 1.693150 0.000000 -0.035300 
#    y 0.000000 1.587620 0.000000 
#    z -0.035300 0.000000 1.754170 
# 
# From -- ./inp_files/16418.got.cif
#   From: 2010.05.17/outbox.cif.g08.bks.cpg/sg15_9_cif.got.tgz:16418.got - 2010.06.03 18:47:42.
