data_PCOD9261509
_publ_section_title
;
Structure prediction by ZEFSAII (Michael W. Deem and Ramdas Pophale) SiO2 
 PCOD9261509
Probable space group: C 2/C
;
_chemical_formula_sum "Si O2"
_cell_formula_units_Z 48
_cell_length_a 23.730872
_cell_length_b 4.984127
_cell_length_c 21.839725
_cell_angle_alpha 90.000000
_cell_angle_beta 93.808604
_cell_angle_gamma 90.000000
_cell_volume 2577.447123
_symmetry_space_group_name_H-M "C 2/C"
_symmetry_group_IT_number 15
_symmetry_cell_setting 'monoclinic'
loop_
_space_group_symop_operation_xyz
x,y,z
-x,y,1/2-z
-x,-y,-z
x,-y,1/2+z
1/2+x,1/2+y,z
1/2-x,1/2+y,1/2-z
1/2-x,1/2-y,-z
1/2+x,1/2-y,1/2+z
loop_
_atom_site_type_symbol
_atom_site_label
_atom_site_fract_x
_atom_site_fract_y
_atom_site_fract_z
Si Si1 0.937676 0.097568 0.980899
Si Si2 0.301295 0.047237 0.015836
Si Si3 0.887229 0.574772 0.916526
Si Si4 0.188515 0.957930 0.293031
Si Si5 0.151345 0.053868 0.421626
Si Si6 0.180885 0.453491 0.208598
O O1 0.935399 0.372711 0.942924
O O2 0.905245 0.874129 0.937373
O O3 0.903046 0.135129 0.042054
O O4 0.000000 0.000000 0.000000
O O5 0.339171 0.243052 0.060546
O O6 0.299929 0.761021 0.050192
O O7 0.250000 0.250000 0.000000
O O8 0.333139 0.002227 0.954529
O O9 0.866785 0.526527 0.846341
O O10 0.176732 0.665545 0.263954
O O11 0.255428 0.980815 0.313980
O O12 0.152678 0.051148 0.348755
O O13 0.178326 0.159653 0.236855
#
# Coordination Sequence:
#
# PCOD9261509 Si02
#       6
#     8   8   8   8   8   8
#     4  10  21  37  57  77  99 132 174 226 275 307
#     4  10  19  30  49  77 106 132 163 212 263 312
#     4  10  20  34  54  78 103 134 173 215 262 314
#     4  10  20  33  51  75 108 144 171 199 243 310
#     4  10  20  33  51  75 102 136 173 210 259 311
#     4  10  20  33  51  76 107 142 171 200 245 308
#
# _framework density 18.623078
#
# number of rings (size 3 to 8) (size 9 to 14) (size 15 to 20)
#    0.000    2.000    0.000    4.000    0.000    5.333 
#    0.000    0.000    0.000    6.000    0.000    0.000 
#    0.000    0.000    0.000    0.000    0.000    0.000 
#
# Total GULP energy -133748.040700 kJ/mol
# GULP energy per Si atom -5572.835029 kJ/mol
# Density = 1.858069 g / cm^3
# Si number density = 18.623078 Si / 1000 Ang^3
#
#
#
# Elastic Constant Matrix: (Units=GPa)
#
#
# Indices 1 2 3 4 5 6 
#
# 1 54.5584 -9.2357 24.7355 0.0000 3.3519 0.0000
# 2 -9.2357 68.2269 -8.2970 0.0000 -1.1215 0.0000
# 3 24.7355 -8.2970 71.2310 0.0000 1.1798 0.0000
# 4 0.0000 0.0000 0.0000 16.4097 0.0000 4.7509
# 5 3.3519 -1.1215 1.1798 0.0000 16.3027 0.0000
# 6 0.0000 0.0000 0.0000 4.7509 0.0000 24.9152
#
#
#
# Elastic Compliance Matrix: (Units=1/GPa)
#
#
# Indices 1 2 3 4 5 6 
#
# 1 0.022287 0.002048 -0.007436 0.000000 -0.003903 0.000000
# 2 0.002048 0.015069 0.001035 0.000000 0.000541 0.000000
# 3 -0.007436 0.001035 0.016735 0.000000 0.000389 0.000000
# 4 0.000000 0.000000 0.000000 0.064501 0.000000 -0.012299
# 5 -0.003903 0.000541 0.000389 0.000000 0.062151 0.000000
# 6 0.000000 0.000000 0.000000 -0.012299 0.000000 0.042481
#
#
# Mechanical properties :
#
#
# Convention : Reuss Voigt Hill
#
# Bulk Modulus (GPa) = 22.03332 23.15800 22.59566
# Shear Modulus (GPa) = 20.23818 23.97976 22.10897
#
# Velocity S-wave (km/s) = 3.30013 3.59226 3.44929
# Velocity P-wave (km/s) = 5.13595 5.44682 5.29367
#
# Compressibility (1/GPa) = 0.04538580
#
# Stress axis : x y z
#
# Youngs Moduli (GPa) = 44.86944 66.36132 59.75445
#
# Poissons Ratio (x) = -0.13594 0.44434
# Poissons Ratio (y) = -0.09191 -0.06184
# Poissons Ratio (z) = 0.33365 -0.06868
#
# Static dielectric constant tensor:
#      x y z
#    x 1.676740 0.000000 0.014340 
#    y 0.000000 1.664620 0.000000 
#    z 0.014340 0.000000 1.644190 
# 
# From -- ./inp_files/217810.got.cif
#   From: 2010.05.17/outbox.cif.g08.bks.cpg/sg15_109_cif.got.tgz:217810.got - 2010.06.03 18:47:42.
