data_PCOD9261544
_publ_section_title
;
Structure prediction by ZEFSAII (Michael W. Deem and Ramdas Pophale) SiO2 
 PCOD9261544
Probable space group: C 2/C
;
_chemical_formula_sum "Si O2"
_cell_formula_units_Z 48
_cell_length_a 18.625756
_cell_length_b 15.166648
_cell_length_c 9.183260
_cell_angle_alpha 90.000000
_cell_angle_beta 93.885122
_cell_angle_gamma 90.000000
_cell_volume 2588.220063
_symmetry_space_group_name_H-M "C 2/C"
_symmetry_group_IT_number 15
_symmetry_cell_setting 'monoclinic'
loop_
_space_group_symop_operation_xyz
x,y,z
-x,y,1/2-z
-x,-y,-z
x,-y,1/2+z
1/2+x,1/2+y,z
1/2-x,1/2+y,1/2-z
1/2-x,1/2-y,-z
1/2+x,1/2-y,1/2+z
loop_
_atom_site_type_symbol
_atom_site_label
_atom_site_fract_x
_atom_site_fract_y
_atom_site_fract_z
Si Si1 0.147013 0.289715 0.875012
Si Si2 0.568846 0.937069 0.992395
Si Si3 0.726042 0.479377 0.813501
Si Si4 0.188250 0.312114 0.556089
Si Si5 0.803361 0.880682 0.958252
Si Si6 0.853795 0.577971 0.691640
O O1 0.154053 0.276523 0.701426
O O2 0.153356 0.200896 0.969453
O O3 0.075746 0.344606 0.908008
O O4 0.219915 0.345305 0.931127
O O5 0.599576 0.917913 0.156344
O O6 0.500000 0.000000 0.000000
O O7 0.619783 0.997182 0.900832
O O8 0.778780 0.407043 0.892722
O O9 0.678973 0.420770 0.697231
O O10 0.690133 0.537636 0.931477
O O11 0.773607 0.551154 0.730803
O O12 0.250000 0.250000 0.500000
O O13 0.139971 0.336783 0.409917
#
# Coordination Sequence:
#
# PCOD9261544 Si02
#       6
#     8   8   8   8   8   8
#     4  10  20  35  48  76 109 150 197 238 289 351
#     4  12  23  36  53  73 108 160 201 238 283 338
#     4  11  17  31  49  74 108 143 184 224 296 356
#     4  11  21  30  53  77 109 148 187 239 295 363
#     4  10  19  30  52  72 110 148 185 234 296 361
#     4  12  19  36  49  75 108 149 192 231 284 353
#
# _framework density 18.545562
#
# number of rings (size 3 to 8) (size 9 to 14) (size 15 to 20)
#    0.000    1.000    8.333    1.500    4.667    0.000 
#    0.000    0.000    0.000    0.000    0.000    0.000 
#    0.000    1.333    7.000    0.500    0.000    0.000 
#
# Total GULP energy -133683.290036 kJ/mol
# GULP energy per Si atom -5570.137085 kJ/mol
# Density = 1.850335 g / cm^3
# Si number density = 18.545562 Si / 1000 Ang^3
#
#
#
# Elastic Constant Matrix: (Units=GPa)
#
#
# Indices 1 2 3 4 5 6 
#
# 1 18.0790 1.2533 17.1081 0.0000 -3.6775 0.0000
# 2 1.2533 39.8302 21.4942 0.0000 0.3579 0.0000
# 3 17.1081 21.4942 142.0085 0.0000 4.4787 0.0000
# 4 0.0000 0.0000 0.0000 35.7290 0.0000 -1.2162
# 5 -3.6775 0.3579 4.4787 0.0000 8.7622 0.0000
# 6 0.0000 0.0000 0.0000 -1.2162 0.0000 26.5492
#
#
#
# Elastic Compliance Matrix: (Units=1/GPa)
#
#
# Indices 1 2 3 4 5 6 
#
# 1 0.071972 0.002938 -0.010229 0.000000 0.035315 0.000000
# 2 0.002938 0.027469 -0.004589 0.000000 0.002457 0.000000
# 3 -0.010229 -0.004589 0.009247 0.000000 -0.008832 0.000000
# 4 0.000000 0.000000 0.000000 0.028032 0.000000 0.001284
# 5 0.035315 0.002457 -0.008832 0.000000 0.133363 0.000000
# 6 0.000000 0.000000 0.000000 0.001284 0.000000 0.037725
#
#
# Mechanical properties :
#
#
# Convention : Reuss Voigt Hill
#
# Bulk Modulus (GPa) = 11.77468 31.06988 21.42228
# Shear Modulus (GPa) = 13.89361 24.87889 19.38625
#
# Velocity S-wave (km/s) = 2.74005 3.66662 3.23667
# Velocity P-wave (km/s) = 4.04640 5.89196 5.05413
#
# Compressibility (1/GPa) = 0.08492801
#
# Stress axis : x y z
#
# Youngs Moduli (GPa) = 13.89425 36.40531 108.13963
#
# Poissons Ratio (x) = -0.10696 1.10617
# Poissons Ratio (y) = -0.04082 0.49626
# Poissons Ratio (z) = 0.14213 0.16707
#
# Static dielectric constant tensor:
#      x y z
#    x 1.702690 0.000000 0.019280 
#    y 0.000000 1.698930 0.000000 
#    z 0.019280 0.000000 1.721620 
# 
# From -- ./inp_files/54970.got.cif
#   From: 2010.05.17/outbox.cif.g08.bks.cpg/sg15_28_cif.got.tgz:54970.got - 2010.06.03 18:47:42.
