data_PCOD9261690
_publ_section_title
;
Structure prediction by ZEFSAII (Michael W. Deem and Ramdas Pophale) SiO2 
 PCOD9261690
Probable space group: C 2/C
;
_chemical_formula_sum "Si O2"
_cell_formula_units_Z 56
_cell_length_a 13.165893
_cell_length_b 28.313457
_cell_length_c 15.621268
_cell_angle_alpha 90.000000
_cell_angle_beta 36.922840
_cell_angle_gamma 90.000000
_cell_volume 3498.205358
_symmetry_space_group_name_H-M "C 2/C"
_symmetry_group_IT_number 15
_symmetry_cell_setting 'monoclinic'
loop_
_space_group_symop_operation_xyz
x,y,z
-x,y,1/2-z
-x,-y,-z
x,-y,1/2+z
1/2+x,1/2+y,z
1/2-x,1/2+y,1/2-z
1/2-x,1/2-y,-z
1/2+x,1/2-y,1/2+z
loop_
_atom_site_type_symbol
_atom_site_label
_atom_site_fract_x
_atom_site_fract_y
_atom_site_fract_z
Si Si1 0.199238 0.311794 0.622299
Si Si2 0.306074 0.708420 0.859490
Si Si3 0.621606 0.596184 0.435467
Si Si4 0.633239 0.389366 0.239364
Si Si5 0.694187 0.001423 0.647554
Si Si6 0.681972 0.978326 0.351513
Si Si7 0.993816 0.949704 0.658347
O O1 0.244109 0.310739 0.491965
O O2 0.260755 0.260581 0.616681
O O3 0.281696 0.354752 0.617049
O O4 0.000000 0.317920 0.750000
O O5 0.500000 0.718654 0.750000
O O6 0.298098 0.664223 0.801643
O O7 0.469877 0.597818 0.606106
O O8 0.739053 0.551774 0.381953
O O9 0.557401 0.585907 0.383050
O O10 0.500000 0.391369 0.250000
O O11 0.779530 0.428130 0.130276
O O12 0.500000 0.001397 0.750000
O O13 0.692793 0.026109 0.741494
O O14 0.830669 0.025883 0.491947
O O15 0.500000 0.000000 0.500000
O O16 0.842063 0.011720 0.265801
O O17 0.000000 0.929340 0.750000
#
# Coordination Sequence:
#
# PCOD9261690 Si02
#       7
#     8   8   8   8   8   8   8
#     4  10  19  31  49  80 112 133 168 215 257 327
#     4   9  18  31  50  75 107 140 167 203 269 319
#     4  11  20  35  54  78 106 144 178 215 265 322
#     4  11  19  33  56  77 106 145 177 208 266 324
#     4  11  22  35  52  79 108 142 181 223 264 312
#     4  11  22  34  53  79 108 141 184 219 264 316
#     4  11  22  38  52  75 109 144 183 229 261 304
#
# _framework density 16.008206999999999
#
# number of rings (size 3 to 8) (size 9 to 14) (size 15 to 20)
#    0.000    1.429    5.714    2.571    2.000    2.286 
#    0.000    0.000    0.000    0.000    0.000    2.000 
#    0.000    0.000    0.000    0.000    0.000    0.000 
#
# Total GULP energy -155980.257204 kJ/mol
# GULP energy per Si atom -5570.723472 kJ/mol
# Density = 1.597177 g / cm^3
# Si number density = 16.008207 Si / 1000 Ang^3
#
#
#
# Elastic Constant Matrix: (Units=GPa)
#
#
# Indices 1 2 3 4 5 6 
#
# 1 84.0426 52.3556 41.5771 -0.0001 6.4399 0.0000
# 2 52.3556 125.7327 28.2586 0.0000 -3.5645 0.0000
# 3 41.5771 28.2586 105.2696 -0.0001 -3.2455 0.0000
# 4 -0.0001 0.0000 -0.0001 20.3852 0.0000 -1.8314
# 5 6.4399 -3.5645 -3.2455 0.0000 26.3597 0.0000
# 6 0.0000 0.0000 0.0000 -1.8314 0.0000 25.1958
#
#
#
# Elastic Compliance Matrix: (Units=1/GPa)
#
#
# Indices 1 2 3 4 5 6 
#
# 1 0.019843 -0.007068 -0.006142 0.000000 -0.006560 0.000000
# 2 -0.007068 0.011002 -0.000063 0.000000 0.003207 0.000000
# 3 -0.006142 -0.000063 0.012034 0.000000 0.002974 0.000000
# 4 0.000000 0.000000 0.000000 0.049378 0.000000 0.003589
# 5 -0.006560 0.003207 0.002974 0.000000 0.040339 0.000000
# 6 0.000000 0.000000 0.000000 0.003589 0.000000 0.039950
#
#
# Mechanical properties :
#
#
# Convention : Reuss Voigt Hill
#
# Bulk Modulus (GPa) = 61.22776 62.15860 61.69318
# Shear Modulus (GPa) = 24.44558 27.24506 25.84532
#
# Velocity S-wave (km/s) = 3.91201 4.12994 4.02245
# Velocity P-wave (km/s) = 7.66393 7.85209 7.75858
#
# Compressibility (1/GPa) = 0.01633246
#
# Stress axis : x y z
#
# Youngs Moduli (GPa) = 50.39483 90.89522 83.09924
#
# Poissons Ratio (x) = 0.64248 0.51040
# Poissons Ratio (y) = 0.35621 0.00521
# Poissons Ratio (z) = 0.30953 0.00570
#
# Static dielectric constant tensor:
#      x y z
#    x 1.548330 0.000000 0.005180 
#    y 0.000000 1.242370 0.000000 
#    z 0.005180 0.000000 1.550370 
# 
# From -- ./inp_files/148535.got.cif
#   From: 2010.05.17/outbox.cif.g08.bks.cpg/sg15_75_cif.got.tgz:148535.got - 2010.06.03 18:47:42.
