data_PCOD9261263
_publ_section_title
;
Structure prediction by ZEFSAII (Michael W. Deem and Ramdas Pophale) SiO2 
 PCOD9261263
Probable space group: C 2/C
;
_chemical_formula_sum "Si O2"
_cell_formula_units_Z 44
_cell_length_a 19.714019
_cell_length_b 15.271536
_cell_length_c 7.443687
_cell_angle_alpha 90.000000
_cell_angle_beta 59.394632
_cell_angle_gamma 90.000000
_cell_volume 1928.834374
_symmetry_space_group_name_H-M "C 2/C"
_symmetry_group_IT_number 15
_symmetry_cell_setting 'monoclinic'
loop_
_space_group_symop_operation_xyz
x,y,z
-x,y,1/2-z
-x,-y,-z
x,-y,1/2+z
1/2+x,1/2+y,z
1/2-x,1/2+y,1/2-z
1/2-x,1/2-y,-z
1/2+x,1/2-y,1/2+z
loop_
_atom_site_type_symbol
_atom_site_label
_atom_site_fract_x
_atom_site_fract_y
_atom_site_fract_z
Si Si1 0.500000 0.790394 0.750000
Si Si2 0.655315 0.712679 0.437312
Si Si3 0.780454 0.576768 0.181294
Si Si4 0.414153 0.316490 0.862615
Si Si5 0.751207 0.881271 0.191067
Si Si6 0.451254 0.874539 0.472607
O O1 0.579653 0.733237 0.662951
O O2 0.505378 0.851508 0.568340
O O3 0.718172 0.634646 0.379664
O O4 0.614558 0.690266 0.302486
O O5 0.704937 0.801698 0.345295
O O6 0.760199 0.475207 0.206533
O O7 0.776672 0.613116 0.981278
O O8 0.869157 0.582488 0.135280
O O9 0.500000 0.360034 0.750000
O O10 0.425538 0.218836 0.922742
O O11 0.343929 0.361192 0.063464
O O12 0.500000 0.922135 0.250000
#
# Coordination Sequence:
#
# PCOD9261263 Si02
#       6
#     4   8   8   8   8   8
#     4  12  24  36  72 102 122 170 230 262 324 392
#     4  11  22  43  66  94 132 173 220 265 326 394
#     4  11  24  43  66  95 131 175 218 266 329 389
#     4  10  18  42  71  87 125 182 209 262 338 377
#     4  11  23  42  66  96 130 176 217 267 328 390
#     4  11  21  43  68  94 130 174 210 272 331 382
#
# _framework density 22.811706000000001
#
# number of rings (size 3 to 8) (size 9 to 14) (size 15 to 20)
#    0.000    1.091    7.273    1.091    2.545    2.182 
#    3.273    3.636    2.000    0.000    0.000    0.000 
#    0.000    0.000    0.000    0.000    0.000    0.000 
#
# Total GULP energy -123077.003139 kJ/mol
# GULP energy per Si atom -5594.409234 kJ/mol
# Density = 2.275979 g / cm^3
# Si number density = 22.811706 Si / 1000 Ang^3
#
#
#
# Elastic Constant Matrix: (Units=GPa)
#
#
# Indices 1 2 3 4 5 6 
#
# 1 110.8492 25.9288 32.7683 0.0000 -27.4324 0.0000
# 2 25.9288 83.1355 16.0190 0.0000 -24.8666 0.0000
# 3 32.7683 16.0190 75.9083 0.0000 -27.4508 0.0000
# 4 0.0000 0.0000 0.0000 7.9172 0.0000 -3.6670
# 5 -27.4324 -24.8666 -27.4508 0.0000 52.6519 0.0000
# 6 0.0000 0.0000 0.0000 -3.6670 0.0000 13.5171
#
#
#
# Elastic Compliance Matrix: (Units=1/GPa)
#
#
# Indices 1 2 3 4 5 6 
#
# 1 0.011239 -0.001902 -0.003275 0.000000 0.003250 0.000000
# 2 -0.001902 0.014359 -0.000142 0.000000 0.005717 0.000000
# 3 -0.003275 -0.000142 0.017224 0.000000 0.007206 0.000000
# 4 0.000000 0.000000 0.000000 0.144458 0.000000 0.039189
# 5 0.003250 0.005717 0.007206 0.000000 0.027143 0.000000
# 6 0.000000 0.000000 0.000000 0.039189 0.000000 0.084612
#
#
# Mechanical properties :
#
#
# Convention : Reuss Voigt Hill
#
# Bulk Modulus (GPa) = 31.07187 46.59169 38.83178
# Shear Modulus (GPa) = 15.60554 27.82903 21.71729
#
# Velocity S-wave (km/s) = 2.61837 3.49656 3.08884
# Velocity P-wave (km/s) = 4.77407 6.06383 5.45719
#
# Compressibility (1/GPa) = 0.03218345
#
# Stress axis : x y z
#
# Youngs Moduli (GPa) = 88.97984 69.64278 58.06012
#
# Poissons Ratio (x) = 0.13247 0.19014
# Poissons Ratio (y) = 0.16925 0.00823
# Poissons Ratio (z) = 0.29140 0.00987
#
# Static dielectric constant tensor:
#      x y z
#    x 1.884820 0.000000 -0.015360 
#    y 0.000000 1.818420 0.000000 
#    z -0.015360 0.000000 1.961320 
# 
# From -- ./inp_files/55189.got.cif
#   From: 2010.05.17/outbox.cif.g08.bks.cpg/sg15_28_cif.got.tgz:55189.got - 2010.06.03 18:47:42.
