data_PCOD9261257
_publ_section_title
;
Structure prediction by ZEFSAII (Michael W. Deem and Ramdas Pophale) SiO2 
 PCOD9261257
Probable space group: C 2/C
;
_chemical_formula_sum "Si O2"
_cell_formula_units_Z 44
_cell_length_a 17.738058
_cell_length_b 8.669148
_cell_length_c 11.557235
_cell_angle_alpha 90.000000
_cell_angle_beta 103.361407
_cell_angle_gamma 90.000000
_cell_volume 1729.094826
_symmetry_space_group_name_H-M "C 2/C"
_symmetry_group_IT_number 15
_symmetry_cell_setting 'monoclinic'
loop_
_space_group_symop_operation_xyz
x,y,z
-x,y,1/2-z
-x,-y,-z
x,-y,1/2+z
1/2+x,1/2+y,z
1/2-x,1/2+y,1/2-z
1/2-x,1/2-y,-z
1/2+x,1/2-y,1/2+z
loop_
_atom_site_type_symbol
_atom_site_label
_atom_site_fract_x
_atom_site_fract_y
_atom_site_fract_z
Si Si1 0.500000 0.478604 0.750000
Si Si2 0.432922 0.247335 0.370030
Si Si3 0.893953 0.250796 0.476893
Si Si4 0.826971 0.405933 0.665526
Si Si5 0.365351 0.597055 0.050168
Si Si6 0.796193 0.739770 0.728091
O O1 0.556113 0.595148 0.699816
O O2 0.551311 0.385843 0.857025
O O3 0.516774 0.221755 0.456802
O O4 0.404094 0.118538 0.270899
O O5 0.370025 0.283889 0.446268
O O6 0.845761 0.367218 0.540515
O O7 0.873156 0.263190 0.335725
O O8 0.868138 0.078471 0.507304
O O9 0.790273 0.572334 0.669718
O O10 0.769444 0.282981 0.703575
O O11 0.304475 0.637658 0.127650
#
# Coordination Sequence:
#
# PCOD9261257 Si02
#       6
#     4   8   8   8   8   8
#     4  10  18  42  70 110 134 180 220 290 346 414
#     4  11  22  43  75 101 139 178 230 289 344 407
#     4  11  24  49  74 102 140 182 232 291 344 415
#     4  12  27  48  68 101 143 187 234 285 350 407
#     4  11  22  41  75 106 134 179 234 277 354 415
#     4  12  29  46  71 102 144 187 231 286 348 419
#
# _framework density 25.446840999999999
#
# number of rings (size 3 to 8) (size 9 to 14) (size 15 to 20)
#    0.000    0.727    3.636    6.000    5.091    1.455 
#    6.545    0.000    0.000    0.000    0.000    0.000 
#    0.000    0.000    0.000    0.000    0.000    0.000 
#
# Total GULP energy -123349.682865 kJ/mol
# GULP energy per Si atom -5606.803767 kJ/mol
# Density = 2.538892 g / cm^3
# Si number density = 25.446841 Si / 1000 Ang^3
#
#
#
# Elastic Constant Matrix: (Units=GPa)
#
#
# Indices 1 2 3 4 5 6 
#
# 1 83.1603 19.4180 10.9823 0.0000 -8.6967 0.0000
# 2 19.4180 80.0313 14.1031 0.0000 -4.0506 0.0000
# 3 10.9823 14.1031 93.1357 0.0000 -9.9608 0.0000
# 4 0.0000 0.0000 0.0000 24.4114 0.0000 -1.7112
# 5 -8.6967 -4.0506 -9.9608 0.0000 46.2582 0.0000
# 6 0.0000 0.0000 0.0000 -1.7112 0.0000 31.2507
#
#
#
# Elastic Compliance Matrix: (Units=1/GPa)
#
#
# Indices 1 2 3 4 5 6 
#
# 1 0.013029 -0.002904 -0.000882 0.000000 0.002005 0.000000
# 2 -0.002904 0.013509 -0.001674 0.000000 0.000276 0.000000
# 3 -0.000882 -0.001674 0.011322 0.000000 0.002126 0.000000
# 4 0.000000 0.000000 0.000000 0.041122 0.000000 0.002252
# 5 0.002005 0.000276 0.002126 0.000000 0.022477 0.000000
# 6 0.000000 0.000000 0.000000 0.002252 0.000000 0.032123
#
#
# Mechanical properties :
#
#
# Convention : Reuss Voigt Hill
#
# Bulk Modulus (GPa) = 37.11980 38.37045 37.74512
# Shear Modulus (GPa) = 32.57724 34.50564 33.54144
#
# Velocity S-wave (km/s) = 3.58188 3.68637 3.63450
# Velocity P-wave (km/s) = 5.63253 5.76459 5.69894
#
# Compressibility (1/GPa) = 0.02693980
#
# Stress axis : x y z
#
# Youngs Moduli (GPa) = 76.74976 74.02632 88.32541
#
# Poissons Ratio (x) = 0.21500 0.07791
# Poissons Ratio (y) = 0.22291 0.14781
# Poissons Ratio (z) = 0.06770 0.12388
#
# Static dielectric constant tensor:
#      x y z
#    x 2.049190 0.000000 0.060950 
#    y 0.000000 1.963380 0.000000 
#    z 0.060950 0.000000 2.001260 
# 
# From -- ./inp_files/110149.got.cif
#   From: 2010.05.17/outbox.cif.g08.bks.cpg/sg15_56_cif.got.tgz:110149.got - 2010.06.03 18:47:42.
