data_PCOD9261064
_publ_section_title
;
Structure prediction by ZEFSAII (Michael W. Deem and Ramdas Pophale) SiO2 
 PCOD9261064
Probable space group: C 2/C
;
_chemical_formula_sum "Si O2"
_cell_formula_units_Z 44
_cell_length_a 7.215842
_cell_length_b 32.351112
_cell_length_c 9.401883
_cell_angle_alpha 90.000000
_cell_angle_beta 67.628861
_cell_angle_gamma 90.000000
_cell_volume 2029.596539
_symmetry_space_group_name_H-M "C 2/C"
_symmetry_group_IT_number 15
_symmetry_cell_setting 'monoclinic'
loop_
_space_group_symop_operation_xyz
x,y,z
-x,y,1/2-z
-x,-y,-z
x,-y,1/2+z
1/2+x,1/2+y,z
1/2-x,1/2+y,1/2-z
1/2-x,1/2-y,-z
1/2+x,1/2-y,1/2+z
loop_
_atom_site_type_symbol
_atom_site_label
_atom_site_fract_x
_atom_site_fract_y
_atom_site_fract_z
Si Si1 0.186435 0.394255 0.888537
Si Si2 0.598590 0.035074 0.067275
Si Si3 0.784711 0.806172 0.866282
Si Si4 0.000000 0.150682 0.750000
Si Si5 0.761469 0.281443 0.305133
Si Si6 0.433799 0.588400 0.031482
O O1 0.145786 0.345836 0.917534
O O2 0.351266 0.411165 0.952358
O O3 0.280483 0.399298 0.703345
O O4 0.991216 0.421579 0.961544
O O5 0.500000 0.027689 0.250000
O O6 0.836379 0.044862 0.006671
O O7 0.500000 0.000000 0.000000
O O8 0.715119 0.767089 0.793300
O O9 0.000000 0.821642 0.750000
O O10 0.825082 0.790670 0.013701
O O11 0.820559 0.183114 0.772121
O O12 0.044960 0.121328 0.602070
O O13 0.000000 0.283435 0.250000
#
# Coordination Sequence:
#
# PCOD9261064 Si02
#       6
#     8   8   8   4   8   8
#     4  10  19  42  65  82 121 168 201 243 310 387
#     4  10  24  43  64  94 119 153 205 254 315 387
#     4  10  18  40  62  83 123 178 205 251 312 364
#     4  12  22  38  58 100 128 160 222 260 304 368
#     4  10  23  37  57  91 133 166 211 267 310 354
#     4  10  22  38  64  88 121 161 203 251 307 373
#
# _framework density 21.679186999999999
#
# number of rings (size 3 to 8) (size 9 to 14) (size 15 to 20)
#    0.000    1.818    3.636    0.000    2.545    2.182 
#    4.909   10.909    0.000    0.000    0.000    0.000 
#    0.000    0.000    0.000    0.000    0.000    0.000 
#
# Total GULP energy -122693.580749 kJ/mol
# GULP energy per Si atom -5576.980943 kJ/mol
# Density = 2.162984 g / cm^3
# Si number density = 21.679187 Si / 1000 Ang^3
#
#
#
# Elastic Constant Matrix: (Units=GPa)
#
#
# Indices 1 2 3 4 5 6 
#
# 1 94.8342 50.0297 31.6089 0.0000 16.3139 0.0000
# 2 50.0297 122.3737 31.1740 0.0000 18.8061 0.0000
# 3 31.6089 31.1740 45.9372 0.0000 15.5187 0.0000
# 4 0.0000 0.0000 0.0000 16.6470 0.0000 3.7695
# 5 16.3139 18.8061 15.5187 0.0000 26.1361 0.0000
# 6 0.0000 0.0000 0.0000 3.7695 0.0000 22.5791
#
#
#
# Elastic Compliance Matrix: (Units=1/GPa)
#
#
# Indices 1 2 3 4 5 6 
#
# 1 0.015510 -0.004172 -0.006986 0.000000 -0.002531 0.000000
# 2 -0.004172 0.011333 -0.003684 0.000000 -0.003363 0.000000
# 3 -0.006986 -0.003684 0.033408 0.000000 -0.012826 0.000000
# 4 0.000000 0.000000 0.000000 0.062431 0.000000 -0.010423
# 5 -0.002531 -0.003363 -0.012826 0.000000 0.049876 0.000000
# 6 0.000000 0.000000 0.000000 -0.010423 0.000000 0.046029
#
#
# Mechanical properties :
#
#
# Convention : Reuss Voigt Hill
#
# Bulk Modulus (GPa) = 32.71450 54.30781 43.51115
# Shear Modulus (GPa) = 19.34548 23.09459 21.22004
#
# Velocity S-wave (km/s) = 2.99047 3.26742 3.13201
# Velocity P-wave (km/s) = 5.20066 6.27214 5.76136
#
# Compressibility (1/GPa) = 0.03056749
#
# Stress axis : x y z
#
# Youngs Moduli (GPa) = 64.47660 88.24115 29.93286
#
# Poissons Ratio (x) = 0.36816 0.20910
# Poissons Ratio (y) = 0.26901 0.11026
# Poissons Ratio (z) = 0.45040 0.32505
#
# Static dielectric constant tensor:
#      x y z
#    x 1.823820 0.000000 0.022750 
#    y 0.000000 1.849400 0.000000 
#    z 0.022750 0.000000 2.019000 
# 
# From -- ./inp_files/25471.got.cif
#   From: 2010.05.17/outbox.cif.g08.bks.cpg/sg15_13_cif.got.tgz:25471.got - 2010.06.03 18:47:42.
