data_PCOD9261038
_publ_section_title
;
Structure prediction by ZEFSAII (Michael W. Deem and Ramdas Pophale) SiO2 
 PCOD9261038
Probable space group: C 2/C
;
_chemical_formula_sum "Si O2"
_cell_formula_units_Z 48
_cell_length_a 6.246136
_cell_length_b 28.077717
_cell_length_c 15.370604
_cell_angle_alpha 90.000000
_cell_angle_beta 121.335535
_cell_angle_gamma 90.000000
_cell_volume 2302.456439
_symmetry_space_group_name_H-M "C 2/C"
_symmetry_group_IT_number 15
_symmetry_cell_setting 'monoclinic'
loop_
_space_group_symop_operation_xyz
x,y,z
-x,y,1/2-z
-x,-y,-z
x,-y,1/2+z
1/2+x,1/2+y,z
1/2-x,1/2+y,1/2-z
1/2-x,1/2-y,-z
1/2+x,1/2-y,1/2+z
loop_
_atom_site_type_symbol
_atom_site_label
_atom_site_fract_x
_atom_site_fract_y
_atom_site_fract_z
Si Si1 0.864095 0.240458 0.885853
Si Si2 0.586235 0.107402 0.937663
Si Si3 0.500000 0.802831 0.750000
Si Si4 0.020162 0.187403 0.421373
Si Si5 0.756045 0.516236 0.637668
Si Si6 0.500000 0.839050 0.250000
Si Si7 0.284944 0.037937 0.978673
O O1 0.973149 0.269959 0.829377
O O2 0.658662 0.274922 0.887641
O O3 0.732021 0.194758 0.817082
O O4 0.022307 0.217526 0.998284
O O5 0.716819 0.061831 0.920469
O O6 0.451780 0.131317 0.826716
O O7 0.390403 0.088028 0.967411
O O8 0.787331 0.144555 0.017982
O O9 0.761485 0.829484 0.823102
O O10 0.481287 0.523821 0.620841
O O11 0.750945 0.469857 0.574651
O O12 0.000000 0.515255 0.750000
O O13 0.500000 0.000000 0.000000
#
# Coordination Sequence:
#
# PCOD9261038 Si02
#       7
#     8   8   4   8   8   4   8
#     4  10  21  39  59  88 121 174 218 271 319 385
#     4  10  21  38  62  95 126 162 208 275 312 376
#     4  12  20  38  62  86 119 186 219 260 334 382
#     4  10  22  38  62  84 134 163 219 272 323 379
#     4  10  20  41  70  98 126 159 207 256 320 400
#     4  10  18  40  58  94 125 162 227 270 310 376
#     4   9  21  40  67  94 131 163 200 254 329 389
#
# _framework density 20.847297999999999
#
# number of rings (size 3 to 8) (size 9 to 14) (size 15 to 20)
#    0.000    2.000    2.500    0.500    0.000    4.000 
#    6.000    0.000   44.000    0.000    0.000    0.000 
#    0.000    0.000    0.000    0.000    0.000    0.000 
#
# Total GULP energy -133808.997020 kJ/mol
# GULP energy per Si atom -5575.374876 kJ/mol
# Density = 2.079985 g / cm^3
# Si number density = 20.847298 Si / 1000 Ang^3
#
#
#
# Elastic Constant Matrix: (Units=GPa)
#
#
# Indices 1 2 3 4 5 6 
#
# 1 93.7350 36.9806 74.2946 0.0000 16.3244 0.0000
# 2 36.9806 79.3120 60.3481 0.0000 -3.8717 0.0000
# 3 74.2946 60.3481 142.6616 0.0000 30.4758 0.0000
# 4 0.0000 0.0000 0.0000 21.2391 0.0000 -19.6813
# 5 16.3244 -3.8717 30.4758 0.0000 37.5808 0.0000
# 6 0.0000 0.0000 0.0000 -19.6813 0.0000 16.6458
#
#
#
# Elastic Compliance Matrix: (Units=1/GPa)
#
#
# Indices 1 2 3 4 5 6 
#
# 1 0.018421 -0.002387 -0.008251 0.000000 -0.001557 0.000000
# 2 -0.002387 0.022661 -0.010962 0.000000 0.012261 0.000000
# 3 -0.008251 -0.010962 0.018650 0.000000 -0.012669 0.000000
# 4 0.000000 0.000000 0.000000 -0.492303 0.000000 -0.582079
# 5 -0.001557 0.012261 -0.012669 0.000000 0.038823 0.000000
# 6 0.000000 0.000000 0.000000 -0.582079 0.000000 -0.628150
#
#
# Mechanical properties :
#
#
# Convention : Reuss Voigt Hill
#
# Bulk Modulus (GPa) = 60.48887 73.21723 66.85305
# Shear Modulus (GPa) = -5.13775 24.69881 9.78053
#
# Velocity S-wave (km/s) = -1.57157 3.44575 2.16834
# Velocity P-wave (km/s) = 5.07790 7.14338 6.19730
#
# Compressibility (1/GPa) = 0.01653197
#
# Stress axis : x y z
#
# Youngs Moduli (GPa) = 54.28634 44.12867 53.61906
#
# Poissons Ratio (x) = 0.10533 0.44240
# Poissons Ratio (y) = 0.12958 0.58778
# Poissons Ratio (z) = 0.44791 0.48374
#
# Static dielectric constant tensor:
#      x y z
#    x 1.807240 0.000000 -0.005390 
#    y 0.000000 1.743520 0.000000 
#    z -0.005390 0.000000 1.761290 
# 
# From -- ./inp_files/130454.got.cif
#   From: 2010.05.17/outbox.cif.g08.bks.cpg/sg15_66_cif.got.tgz:130454.got - 2010.06.03 18:47:42.
