data_PCOD9261745
_publ_section_title
;
Structure prediction by ZEFSAII (Michael W. Deem and Ramdas Pophale) SiO2 
 PCOD9261745
Probable space group: C 2/C
;
_chemical_formula_sum "Si O2"
_cell_formula_units_Z 36
_cell_length_a 12.480730
_cell_length_b 31.756957
_cell_length_c 10.058987
_cell_angle_alpha 90.000000
_cell_angle_beta 157.307594
_cell_angle_gamma 90.000000
_cell_volume 1538.073408
_symmetry_space_group_name_H-M "C 2/C"
_symmetry_group_IT_number 15
_symmetry_cell_setting 'monoclinic'
loop_
_space_group_symop_operation_xyz
x,y,z
-x,y,1/2-z
-x,-y,-z
x,-y,1/2+z
1/2+x,1/2+y,z
1/2-x,1/2+y,1/2-z
1/2-x,1/2-y,-z
1/2+x,1/2-y,1/2+z
loop_
_atom_site_type_symbol
_atom_site_label
_atom_site_fract_x
_atom_site_fract_y
_atom_site_fract_z
Si Si1 0.000000 0.964375 0.250000
Si Si2 0.500000 0.200672 0.250000
Si Si3 0.707689 0.091660 0.202452
Si Si4 0.500000 0.974305 0.250000
Si Si5 0.793962 0.852951 0.282522
Si Si6 0.460632 0.226556 0.912413
O O1 0.088627 0.933689 0.468807
O O2 0.250552 0.995079 0.501505
O O3 0.749004 0.170656 0.589304
O O4 0.434150 0.224890 0.311507
O O5 0.903719 0.127054 0.359414
O O6 0.586709 0.057050 0.965708
O O7 0.449448 0.112720 0.982183
O O8 0.703538 0.817208 0.285576
O O9 0.232042 0.263326 0.639527
#
# Coordination Sequence:
#
# PCOD9261745 Si02
#       6
#     4   4   8   4   8   8
#     4  12  24  42  67  90 118 150 194 250 306 353
#     4   8  20  29  51  80 126 146 204 222 314 323
#     4  12  23  42  61  90 120 157 195 249 290 359
#     4  12  26  43  64  88 118 156 200 240 302 360
#     4  10  22  33  57  85 121 160 196 234 297 351
#     4  10  19  31  51  83 127 159 193 242 297 349
#
# _framework density 23.405906000000002
#
# number of rings (size 3 to 8) (size 9 to 14) (size 15 to 20)
#    1.333    0.000    0.000    7.333    0.000    1.778 
#    0.000    0.000    0.000    0.000    0.000   15.556 
#    0.000    0.000    0.000    0.000    0.000    0.000 
#
# Total GULP energy -100598.862767 kJ/mol
# GULP energy per Si atom -5588.825709 kJ/mol
# Density = 2.335263 g / cm^3
# Si number density = 23.405906 Si / 1000 Ang^3
#
#
#
# Elastic Constant Matrix: (Units=GPa)
#
#
# Indices 1 2 3 4 5 6 
#
# 1 54.8970 23.2087 38.6927 -0.0001 17.9452 0.0000
# 2 23.2087 99.1626 29.5299 -0.0001 11.2422 0.0000
# 3 38.6927 29.5299 65.4715 -0.0002 31.1564 0.0002
# 4 -0.0001 -0.0001 -0.0002 -120.5908 -0.0001 108.6908
# 5 17.9452 11.2422 31.1564 -0.0001 49.2600 0.0001
# 6 0.0000 0.0000 0.0002 108.6908 0.0001 -22.7974
#
#
#
# Elastic Compliance Matrix: (Units=1/GPa)
#
#
# Indices 1 2 3 4 5 6 
#
# 1 0.031604 -0.002111 -0.017847 0.000000 0.000257 0.000000
# 2 -0.002111 0.011821 -0.004530 0.000000 0.000936 0.000000
# 3 -0.017847 -0.004530 0.034732 0.000000 -0.014432 0.000000
# 4 0.000000 0.000000 0.000000 0.002515 0.000000 0.011991
# 5 0.000257 0.000936 -0.014432 0.000000 0.029121 0.000000
# 6 0.000000 0.000000 0.000000 0.011991 0.000000 0.013304
#
#
# Mechanical properties :
#
#
# Convention : Reuss Voigt Hill
#
# Bulk Modulus (GPa) = 34.26883 44.71041 39.48962
# Shear Modulus (GPa) = 27.50261 -10.28563 8.60849
#
# Velocity S-wave (km/s) = 3.43159 -2.09857 1.91987
# Velocity P-wave (km/s) = 5.51126 3.64303 4.67149
#
# Compressibility (1/GPa) = 0.02918104
#
# Stress axis : x y z
#
# Youngs Moduli (GPa) = 31.64190 84.59297 28.79148
#
# Poissons Ratio (x) = 0.17858 0.51385
# Poissons Ratio (y) = 0.06680 0.13042
# Poissons Ratio (z) = 0.56473 0.38318
#
# Static dielectric constant tensor:
#      x y z
#    x 1.890710 0.000000 -0.032410 
#    y 0.000000 1.931920 0.000000 
#    z -0.032410 0.000000 1.853010 
# 
# From -- ./inp_files/101734.got.cif
#   From: 2010.05.17/outbox.cif.g08.bks.cpg/sg15_51_cif.got.tgz:101734.got - 2010.06.03 18:47:42.
