data_PCOD9261730
_publ_section_title
;
Structure prediction by ZEFSAII (Michael W. Deem and Ramdas Pophale) SiO2 
 PCOD9261730
Probable space group: C 2/C
;
_chemical_formula_sum "Si O2"
_cell_formula_units_Z 64
_cell_length_a 15.156230
_cell_length_b 17.972297
_cell_length_c 15.187250
_cell_angle_alpha 90.000000
_cell_angle_beta 59.070824
_cell_angle_gamma 90.000000
_cell_volume 3548.637388
_symmetry_space_group_name_H-M "C 2/C"
_symmetry_group_IT_number 15
_symmetry_cell_setting 'monoclinic'
loop_
_space_group_symop_operation_xyz
x,y,z
-x,y,1/2-z
-x,-y,-z
x,-y,1/2+z
1/2+x,1/2+y,z
1/2-x,1/2+y,1/2-z
1/2-x,1/2-y,-z
1/2+x,1/2-y,1/2+z
loop_
_atom_site_type_symbol
_atom_site_label
_atom_site_fract_x
_atom_site_fract_y
_atom_site_fract_z
Si Si1 0.893412 0.386348 0.017076
Si Si2 0.810125 0.589467 0.366885
Si Si3 0.361204 0.481571 0.983423
Si Si4 0.390613 0.891471 0.645393
Si Si5 0.565680 0.420895 0.384724
Si Si6 0.221929 0.246126 0.411625
Si Si7 0.422779 0.266174 0.209753
Si Si8 0.779731 0.996995 0.831552
O O1 0.874288 0.300253 0.054735
O O2 0.808489 0.440640 0.103265
O O3 0.869807 0.388664 0.924552
O O4 0.011078 0.411821 0.964096
O O5 0.740161 0.519766 0.424719
O O6 0.886754 0.576977 0.247035
O O7 0.733114 0.658856 0.383109
O O8 0.457692 0.536787 0.941243
O O9 0.339195 0.475169 0.890857
O O10 0.389705 0.417265 0.038666
O O11 0.403157 0.803396 0.656233
O O12 0.284390 0.923950 0.663274
O O13 0.543762 0.339937 0.356775
O O14 0.643289 0.468053 0.281070
O O15 0.250000 0.250000 0.500000
O O16 0.314966 0.283806 0.311470
O O17 0.500000 0.246555 0.250000
#
# Coordination Sequence:
#
# PCOD9261730 Si02
#       8
#     8   8   8   8   8   8   8   8
#     4  10  19  31  51  78 111 151 187 219 277 333
#     4   9  18  32  51  78 114 143 178 234 279 335
#     4  10  22  37  59  83 110 148 192 237 295 340
#     4  11  21  34  52  81 116 150 185 226 280 342
#     4  11  22  38  59  87 113 145 190 244 293 341
#     4   9  17  28  47  80 114 144 172 229 284 327
#     4  11  21  34  57  87 113 144 188 241 296 334
#     4  11  21  38  55  80 117 152 189 229 282 347
#
# _framework density 18.035091999999999
#
# number of rings (size 3 to 8) (size 9 to 14) (size 15 to 20)
#    0.000    1.750    2.500    4.125    5.250    0.000 
#    0.000    0.625    0.000    0.000    0.000    0.000 
#    0.000    0.000    0.000    0.000    0.000    0.000 
#
# Total GULP energy -178208.963606 kJ/mol
# GULP energy per Si atom -5569.030113 kJ/mol
# Density = 1.799404 g / cm^3
# Si number density = 18.035092 Si / 1000 Ang^3
#
#
#
# Elastic Constant Matrix: (Units=GPa)
#
#
# Indices 1 2 3 4 5 6 
#
# 1 49.8411 16.8864 -5.5311 0.0000 5.9670 0.0000
# 2 16.8864 55.9767 -7.7469 0.0000 11.9447 0.0000
# 3 -5.5311 -7.7469 45.6391 0.0000 -5.9247 0.0000
# 4 0.0000 0.0000 0.0000 21.6822 0.0000 1.9550
# 5 5.9670 11.9447 -5.9247 0.0000 33.0548 0.0000
# 6 0.0000 0.0000 0.0000 1.9550 0.0000 20.4685
#
#
#
# Elastic Compliance Matrix: (Units=1/GPa)
#
#
# Indices 1 2 3 4 5 6 
#
# 1 0.022534 -0.006266 0.001467 0.000000 -0.001541 0.000000
# 2 -0.006266 0.021367 0.002060 0.000000 -0.006221 0.000000
# 3 0.001467 0.002060 0.022839 0.000000 0.003084 0.000000
# 4 0.000000 0.000000 0.000000 0.046522 0.000000 -0.004443
# 5 -0.001541 -0.006221 0.003084 0.000000 0.033332 0.000000
# 6 0.000000 0.000000 0.000000 -0.004443 0.000000 0.049280
#
#
# Mechanical properties :
#
#
# Convention : Reuss Voigt Hill
#
# Bulk Modulus (GPa) = 16.32307 17.63041 16.97674
# Shear Modulus (GPa) = 22.54569 24.89765 23.72167
#
# Velocity S-wave (km/s) = 3.53951 3.71955 3.63065
# Velocity P-wave (km/s) = 5.07687 5.31447 5.19703
#
# Compressibility (1/GPa) = 0.06126300
#
# Stress axis : x y z
#
# Youngs Moduli (GPa) = 44.37742 46.80025 43.78484
#
# Poissons Ratio (x) = 0.29325 -0.06425
# Poissons Ratio (y) = 0.27807 -0.09020
# Poissons Ratio (z) = -0.06512 -0.09641
#
# Static dielectric constant tensor:
#      x y z
#    x 1.614400 0.000000 -0.017930 
#    y 0.000000 1.639810 0.000000 
#    z -0.017930 0.000000 1.657540 
# 
# From -- ./inp_files/155186.got.cif
#   From: 2010.05.17/outbox.cif.g08.bks.cpg/sg15_78_cif.got.tgz:155186.got - 2010.06.03 18:47:42.
