data_PCOD9261783
_publ_section_title
;
Structure prediction by ZEFSAII (Michael W. Deem and Ramdas Pophale) SiO2 
 PCOD9261783
Probable space group: C 2/C
;
_chemical_formula_sum "Si O2"
_cell_formula_units_Z 56
_cell_length_a 7.867887
_cell_length_b 11.965436
_cell_length_c 31.020084
_cell_angle_alpha 90.000000
_cell_angle_beta 50.498616
_cell_angle_gamma 90.000000
_cell_volume 2253.341520
_symmetry_space_group_name_H-M "C 2/C"
_symmetry_group_IT_number 15
_symmetry_cell_setting 'monoclinic'
loop_
_space_group_symop_operation_xyz
x,y,z
-x,y,1/2-z
-x,-y,-z
x,-y,1/2+z
1/2+x,1/2+y,z
1/2-x,1/2+y,1/2-z
1/2-x,1/2-y,-z
1/2+x,1/2-y,1/2+z
loop_
_atom_site_type_symbol
_atom_site_label
_atom_site_fract_x
_atom_site_fract_y
_atom_site_fract_z
Si Si1 0.815956 0.735410 0.806038
Si Si2 0.845065 0.109573 0.021461
Si Si3 0.074898 0.153827 0.394608
Si Si4 0.582372 0.989322 0.690918
Si Si5 0.707447 0.272774 0.417621
Si Si6 0.969994 0.489469 0.116836
Si Si7 0.088590 0.837742 0.187702
O O1 0.943633 0.621489 0.799887
O O2 0.735795 0.775135 0.865169
O O3 0.613483 0.698085 0.809378
O O4 0.000000 0.803156 0.750000
O O5 0.961864 0.187241 0.967576
O O6 0.866632 0.166456 0.064856
O O7 0.597726 0.061927 0.060590
O O8 0.000000 0.000000 0.000000
O O9 0.163326 0.036994 0.361636
O O10 0.232791 0.237509 0.342283
O O11 0.820897 0.181206 0.429723
O O12 0.500000 0.941187 0.750000
O O13 0.461874 0.953756 0.666068
O O14 0.863149 0.382740 0.401956
O O15 0.729686 0.441538 0.146899
O O16 0.000000 0.858932 0.250000
#
# Coordination Sequence:
#
# PCOD9261783 Si02
#       7
#     8   8   8   8   8   8   8
#     4  10  20  35  54  77 108 145 183 226 283 348
#     4   9  17  33  56  79 107 144 190 233 267 326
#     4  10  19  31  53  82 106 138 185 231 276 329
#     4   9  16  30  50  74 104 138 177 224 272 335
#     4   9  17  32  53  77 105 142 183 228 278 329
#     4   8  17  31  51  77 104 140 185 222 269 334
#     4  11  20  34  55  80 110 143 179 232 291 341
#
# _framework density 24.851982
#
# number of rings (size 3 to 8) (size 9 to 14) (size 15 to 20)
#    0.000    2.571    0.000    5.143    0.000    0.000 
#    0.000    4.286    0.000    6.000    0.000    0.000 
#    0.000    0.000    0.000    0.000    0.000    0.000 
#
# Total GULP energy -156284.126237 kJ/mol
# GULP energy per Si atom -5581.575937 kJ/mol
# Density = 2.479542 g / cm^3
# Si number density = 24.851982 Si / 1000 Ang^3
#
#
#
# Elastic Constant Matrix: (Units=GPa)
#
#
# Indices 1 2 3 4 5 6 
#
# 1 85.1254 -0.7671 5.8077 -0.0001 -23.6361 0.0001
# 2 -0.7671 32.5440 13.4151 -0.0001 -17.3871 0.0000
# 3 5.8077 13.4151 92.8676 -0.0001 -25.8684 0.0001
# 4 -0.0001 -0.0001 -0.0001 33.2138 0.0001 -12.6545
# 5 -23.6361 -17.3871 -25.8684 0.0001 35.6856 -0.0001
# 6 0.0001 0.0000 0.0001 -12.6545 -0.0001 25.3805
#
#
#
# Elastic Compliance Matrix: (Units=1/GPa)
#
#
# Indices 1 2 3 4 5 6 
#
# 1 0.016235 0.008204 0.002391 0.000000 0.016484 0.000000
# 2 0.008204 0.045702 0.000753 0.000000 0.028247 0.000000
# 3 0.002391 0.000753 0.013850 0.000000 0.011990 0.000000
# 4 0.000000 0.000000 0.000000 0.037169 0.000000 0.018532
# 5 0.016484 0.028247 0.011990 0.000000 0.061395 0.000000
# 6 0.000000 0.000000 0.000000 0.018532 0.000000 0.048640
#
#
# Mechanical properties :
#
#
# Convention : Reuss Voigt Hill
#
# Bulk Modulus (GPa) = 10.15403 27.49426 18.82415
# Shear Modulus (GPa) = 21.44801 31.66140 26.55471
#
# Velocity S-wave (km/s) = 2.94092 3.57318 3.27236
# Velocity P-wave (km/s) = 3.95307 5.30196 4.67640
#
# Compressibility (1/GPa) = 0.09848305
#
# Stress axis : x y z
#
# Youngs Moduli (GPa) = 61.59525 21.88089 72.20422
#
# Poissons Ratio (x) = -0.17950 -0.17265
# Poissons Ratio (y) = -0.50530 -0.05440
# Poissons Ratio (z) = -0.14729 -0.01649
#
# Static dielectric constant tensor:
#      x y z
#    x 1.958410 0.000000 -0.013390 
#    y 0.000000 2.086070 0.000000 
#    z -0.013390 0.000000 1.877400 
# 
# From -- ./inp_files/264221.got.cif
#   From: 2010.05.17/outbox.cif.g08.bks.cpg/sg15_133_cif.got.tgz:264221.got - 2010.06.03 18:47:42.
