data_PCOD9261511
_publ_section_title
;
Structure prediction by ZEFSAII (Michael W. Deem and Ramdas Pophale) SiO2 
 PCOD9261511
Probable space group: C 2/C
;
_chemical_formula_sum "Si O2"
_cell_formula_units_Z 56
_cell_length_a 22.197701
_cell_length_b 17.620568
_cell_length_c 19.655035
_cell_angle_alpha 90.000000
_cell_angle_beta 21.904392
_cell_angle_gamma 90.000000
_cell_volume 2867.999909
_symmetry_space_group_name_H-M "C 2/C"
_symmetry_group_IT_number 15
_symmetry_cell_setting 'monoclinic'
loop_
_space_group_symop_operation_xyz
x,y,z
-x,y,1/2-z
-x,-y,-z
x,-y,1/2+z
1/2+x,1/2+y,z
1/2-x,1/2+y,1/2-z
1/2-x,1/2-y,-z
1/2+x,1/2-y,1/2+z
loop_
_atom_site_type_symbol
_atom_site_label
_atom_site_fract_x
_atom_site_fract_y
_atom_site_fract_z
Si Si1 0.136127 0.470009 0.409078
Si Si2 0.243927 0.685794 0.798326
Si Si3 0.886447 0.848619 0.562923
Si Si4 0.688635 0.408229 0.706557
Si Si5 0.604209 0.790182 0.073697
Si Si6 0.848811 0.013338 0.561263
Si Si7 0.301309 0.840078 0.314112
O O1 0.121451 0.382827 0.446011
O O2 0.170824 0.529339 0.431578
O O3 0.300275 0.472414 0.191279
O O4 0.000000 0.500000 0.500000
O O5 0.195630 0.769728 0.871319
O O6 0.421789 0.664991 0.637431
O O7 0.239103 0.683559 0.720913
O O8 0.834447 0.867610 0.695620
O O9 0.843447 0.922563 0.562703
O O10 0.744390 0.346354 0.593860
O O11 0.523834 0.452080 0.863502
O O12 0.500000 0.800761 0.250000
O O13 0.480568 0.812331 0.143021
O O14 0.675674 0.706441 0.991498
O O15 0.725807 0.069593 0.651422
#
# Coordination Sequence:
#
# PCOD9261511 Si02
#       7
#     8   8   8   8   8   8   8
#     4  10  19  30  49  78 104 143 184 216 264 333
#     4  11  20  32  51  78 113 141 185 209 270 329
#     4  11  20  32  50  80 108 150 178 216 263 336
#     4  11  18  36  52  67 110 148 182 228 263 318
#     4  12  25  38  55  79 106 146 196 234 271 315
#     4  10  20  35  53  73 108 148 186 216 275 333
#     4  11  21  37  53  74 106 148 183 228 273 320
#
# _framework density 19.525803
#
# number of rings (size 3 to 8) (size 9 to 14) (size 15 to 20)
#    0.000    1.143    5.714    4.714    4.000    0.000 
#    0.000    0.000    0.000    0.000    0.000    0.000 
#    0.000    5.714    0.000    0.000    0.000    0.000 
#
# Total GULP energy -156259.921200 kJ/mol
# GULP energy per Si atom -5580.711471 kJ/mol
# Density = 1.948136 g / cm^3
# Si number density = 19.525803 Si / 1000 Ang^3
#
#
#
# Elastic Constant Matrix: (Units=GPa)
#
#
# Indices 1 2 3 4 5 6 
#
# 1 11.5644 13.0811 10.8696 0.0017 -4.1907 -0.0005
# 2 13.0811 189.9579 40.4807 0.0026 -9.2451 0.0004
# 3 10.8696 40.4807 70.6514 -0.0009 -11.0579 -0.0002
# 4 0.0017 0.0026 -0.0009 34.9068 -0.0039 -10.5321
# 5 -4.1907 -9.2451 -11.0579 -0.0039 24.8934 0.0026
# 6 -0.0005 0.0004 -0.0002 -10.5321 0.0026 10.5656
#
#
#
# Elastic Compliance Matrix: (Units=1/GPa)
#
#
# Indices 1 2 3 4 5 6 
#
# 1 0.106753 -0.004196 -0.012306 -0.000005 0.010947 -0.000002
# 2 -0.004196 0.006175 -0.002841 -0.000001 0.000325 -0.000001
# 3 -0.012306 -0.002841 0.018470 0.000002 0.005078 0.000001
# 4 -0.000005 -0.000001 0.000002 0.040970 0.000002 0.040840
# 5 0.010947 0.000325 0.005078 0.000002 0.044390 -0.000009
# 6 -0.000002 -0.000001 0.000001 0.040840 -0.000009 0.135357
#
#
# Mechanical properties :
#
#
# Convention : Reuss Voigt Hill
#
# Bulk Modulus (GPa) = 10.78636 44.55963 27.67299
# Shear Modulus (GPa) = 11.85662 27.92264 19.88963
#
# Velocity S-wave (km/s) = 2.46687 3.78569 3.19507
# Velocity P-wave (km/s) = 3.69460 6.47912 5.27395
#
# Compressibility (1/GPa) = 0.09270972
#
# Stress axis : x y z
#
# Youngs Moduli (GPa) = 9.36744 161.95373 54.14158
#
# Poissons Ratio (x) = 0.67957 0.66628
# Poissons Ratio (y) = 0.03931 0.15384
# Poissons Ratio (z) = 0.11528 0.46019
#
# Static dielectric constant tensor:
#      x y z
#    x 1.690320 0.000000 -0.030710 
#    y 0.000000 1.780890 0.000010 
#    z -0.030710 0.000010 1.735730 
# 
# From -- ./inp_files/283691.got.cif
#   From: 2010.05.17/outbox.cif.g08.bks.cpg/sg15_142_cif.got.tgz:283691.got - 2010.06.03 18:47:42.
