data_PCOD9261804
_publ_section_title
;
Structure prediction by ZEFSAII (Michael W. Deem and Ramdas Pophale) SiO2 
 PCOD9261804
Probable space group: C 2/C
;
_chemical_formula_sum "Si O2"
_cell_formula_units_Z 60
_cell_length_a 23.549874
_cell_length_b 7.922449
_cell_length_c 24.354050
_cell_angle_alpha 90.000000
_cell_angle_beta 146.935850
_cell_angle_gamma 90.000000
_cell_volume 2478.996071
_symmetry_space_group_name_H-M "C 2/C"
_symmetry_group_IT_number 15
_symmetry_cell_setting 'monoclinic'
loop_
_space_group_symop_operation_xyz
x,y,z
-x,y,1/2-z
-x,-y,-z
x,-y,1/2+z
1/2+x,1/2+y,z
1/2-x,1/2+y,1/2-z
1/2-x,1/2-y,-z
1/2+x,1/2-y,1/2+z
loop_
_atom_site_type_symbol
_atom_site_label
_atom_site_fract_x
_atom_site_fract_y
_atom_site_fract_z
Si Si1 0.127952 0.706232 0.502256
Si Si2 0.300450 0.699405 0.902325
Si Si3 0.103495 0.966573 0.918283
Si Si4 0.605251 0.639028 0.192812
Si Si5 0.802325 0.658949 0.209399
Si Si6 0.079396 0.823370 0.101879
Si Si7 0.014172 0.455253 0.157699
Si Si8 0.000000 0.785029 0.750000
O O1 0.232409 0.707070 0.621710
O O2 0.032701 0.767680 0.465063
O O3 0.094606 0.528190 0.450321
O O4 0.139302 0.846845 0.463470
O O5 0.212869 0.832450 0.813019
O O6 0.256149 0.517215 0.846420
O O7 0.401783 0.715670 0.946166
O O8 0.331569 0.662677 0.990434
O O9 0.983620 0.952226 0.842396
O O10 0.093776 0.902670 0.848267
O O11 0.604168 0.517433 0.139159
O O12 0.565180 0.832137 0.153518
O O13 0.831526 0.718410 0.293563
O O14 0.914950 0.619330 0.274873
O O15 0.018946 0.342209 0.215301
#
# Coordination Sequence:
#
# PCOD9261804 Si02
#       8
#     8   8   8   8   8   8   8   4
#     4   9  19  36  56  81 112 144 180 221 265 324
#     4  10  19  33  53  80 112 146 183 221 262 318
#     4   9  20  36  56  79 107 143 183 226 272 316
#     4   9  19  34  52  79 112 141 177 224 263 314
#     4   9  19  35  53  79 114 145 178 219 265 318
#     4  10  19  31  54  81 111 151 181 212 265 318
#     4   9  19  37  57  80 109 141 180 226 270 314
#     4  10  20  38  60  80 106 142 180 228 276 316
#
# _framework density 24.203346
#
# number of rings (size 3 to 8) (size 9 to 14) (size 15 to 20)
#    0.000    2.667    0.000    0.800    0.000    8.533 
#    0.000   11.333    0.000   17.600    0.000    0.000 
#    0.000    0.000    0.000    0.000    0.000    0.000 
#
# Total GULP energy -167372.375890 kJ/mol
# GULP energy per Si atom -5579.079196 kJ/mol
# Density = 2.414826 g / cm^3
# Si number density = 24.203346 Si / 1000 Ang^3
#
#
#
# Elastic Constant Matrix: (Units=GPa)
#
#
# Indices 1 2 3 4 5 6 
#
# 1 9.5528 -3.6419 12.8119 0.0000 -7.8590 0.0000
# 2 -3.6419 92.4320 28.7905 0.0000 -3.4177 0.0000
# 3 12.8119 28.7905 113.1439 0.0001 -19.8620 0.0001
# 4 0.0000 0.0000 0.0001 40.5530 0.0000 -2.6053
# 5 -7.8590 -3.4177 -19.8620 0.0000 25.0274 0.0000
# 6 0.0000 0.0000 0.0001 -2.6053 0.0000 22.0551
#
#
#
# Elastic Compliance Matrix: (Units=1/GPa)
#
#
# Indices 1 2 3 4 5 6 
#
# 1 0.162667 0.012396 -0.014302 0.000000 0.041422 0.000000
# 2 0.012396 0.012712 -0.004241 0.000000 0.002263 0.000000
# 3 -0.014302 -0.004241 0.012370 0.000000 0.004747 0.000000
# 4 0.000000 0.000000 0.000000 0.024848 0.000000 0.002935
# 5 0.041422 0.002263 0.004747 0.000000 0.057040 0.000000
# 6 0.000000 0.000000 0.000000 0.002935 0.000000 0.045688
#
#
# Mechanical properties :
#
#
# Convention : Reuss Voigt Hill
#
# Bulk Modulus (GPa) = 5.69950 32.33886 19.01918
# Shear Modulus (GPa) = 12.94985 29.33830 21.14408
#
# Velocity S-wave (km/s) = 2.31561 3.48538 2.95888
# Velocity P-wave (km/s) = 3.08372 5.43944 4.42136
#
# Compressibility (1/GPa) = 0.17545398
#
# Stress axis : x y z
#
# Youngs Moduli (GPa) = 6.14751 78.66690 80.83868
#
# Poissons Ratio (x) = -0.97513 1.15618
# Poissons Ratio (y) = -0.07620 0.34284
# Poissons Ratio (z) = 0.08792 0.33363
#
# Static dielectric constant tensor:
#      x y z
#    x 2.019730 0.000000 0.011460 
#    y 0.000000 1.984360 0.000000 
#    z 0.011460 0.000000 1.981860 
# 
# From -- ./inp_files/284299.got.cif
#   From: 2010.05.17/outbox.cif.g08.bks.cpg/sg15_143_cif.got.tgz:284299.got - 2010.06.03 18:47:42.
