data_PCOD9261617
_publ_section_title
;
Structure prediction by ZEFSAII (Michael W. Deem and Ramdas Pophale) SiO2 
 PCOD9261617
Probable space group: C 2/C
;
_chemical_formula_sum "Si O2"
_cell_formula_units_Z 44
_cell_length_a 17.418115
_cell_length_b 19.932026
_cell_length_c 14.113403
_cell_angle_alpha 90.000000
_cell_angle_beta 27.222791
_cell_angle_gamma 90.000000
_cell_volume 2241.452652
_symmetry_space_group_name_H-M "C 2/C"
_symmetry_group_IT_number 15
_symmetry_cell_setting 'monoclinic'
loop_
_space_group_symop_operation_xyz
x,y,z
-x,y,1/2-z
-x,-y,-z
x,-y,1/2+z
1/2+x,1/2+y,z
1/2-x,1/2+y,1/2-z
1/2-x,1/2-y,-z
1/2+x,1/2-y,1/2+z
loop_
_atom_site_type_symbol
_atom_site_label
_atom_site_fract_x
_atom_site_fract_y
_atom_site_fract_z
Si Si1 0.810350 0.931306 0.857402
Si Si2 0.556783 0.190575 0.892547
Si Si3 0.500000 0.858943 0.250000
Si Si4 0.990051 0.046386 0.916453
Si Si5 0.128344 0.561584 0.355264
Si Si6 0.438077 0.662162 0.525430
O O1 0.704170 0.936545 0.877355
O O2 0.953961 0.877017 0.673809
O O3 0.667517 0.903516 0.082966
O O4 0.894928 0.003455 0.780355
O O5 0.491536 0.183992 0.855270
O O6 0.521429 0.266922 0.958428
O O7 0.752181 0.174321 0.691023
O O8 0.460214 0.133428 0.058690
O O9 0.792653 0.051917 0.109772
O O10 0.057687 0.116211 0.884275
O O11 0.000000 0.000000 0.000000
O O12 0.000000 0.500000 0.500000
#
# Coordination Sequence:
#
# PCOD9261617 Si02
#       6
#     8   8   4   8   8   8
#     4   9  18  31  44  62  88 119 156 187 219 267
#     4  11  20  30  44  65  95 123 153 184 225 280
#     4  10  22  32  42  64  94 130 158 180 222 280
#     4   8  15  29  46  63  83 111 153 194 228 257
#     4   9  15  27  46  65  85 113 148 191 231 263
#     4  10  19  31  46  64  89 123 155 193 229 262
#
# _framework density 19.630126000000001
#
# number of rings (size 3 to 8) (size 9 to 14) (size 15 to 20)
#    0.000    2.909    0.000    6.545    0.000    3.636 
#    0.000    0.000    0.000    0.000    0.000    0.000 
#    0.000   23.273    0.000    6.364    0.000   47.636 
#
# Total GULP energy -122513.003615 kJ/mol
# GULP energy per Si atom -5568.772892 kJ/mol
# Density = 1.958545 g / cm^3
# Si number density = 19.630126 Si / 1000 Ang^3
#
#
#
# Elastic Constant Matrix: (Units=GPa)
#
#
# Indices 1 2 3 4 5 6 
#
# 1 31.7204 19.5185 15.5090 -0.0044 -16.3496 0.0083
# 2 19.5185 172.4542 65.1443 -0.0047 -10.6166 0.0071
# 3 15.5090 65.1443 104.7711 -0.0088 -30.7935 0.0167
# 4 -0.0044 -0.0047 -0.0088 30.3988 0.0027 -16.9341
# 5 -16.3496 -10.6166 -30.7935 0.0027 28.3512 -0.0052
# 6 0.0083 0.0071 0.0167 -16.9341 -0.0052 10.1362
#
#
#
# Elastic Compliance Matrix: (Units=1/GPa)
#
#
# Indices 1 2 3 4 5 6 
#
# 1 0.048911 -0.005757 0.005870 -0.000163 0.032426 -0.000302
# 2 -0.005757 0.008479 -0.006555 0.000036 -0.007264 0.000067
# 3 0.005870 -0.006555 0.019133 -0.000116 0.021711 -0.000215
# 4 -0.000163 0.000036 -0.000116 0.474390 -0.000107 0.792538
# 5 0.032426 -0.007264 0.021711 -0.000107 0.074832 -0.000197
# 6 -0.000302 0.000067 -0.000215 0.792538 -0.000197 1.422706
#
#
# Mechanical properties :
#
#
# Convention : Reuss Voigt Hill
#
# Bulk Modulus (GPa) = 15.71380 56.58769 36.15074
# Shear Modulus (GPa) = 2.40090 27.69553 15.04822
#
# Velocity S-wave (km/s) = 1.10713 3.76023 2.77174
# Velocity P-wave (km/s) = 3.10751 6.90956 5.35717
#
# Compressibility (1/GPa) = 0.06363832
#
# Stress axis : x y z
#
# Youngs Moduli (GPa) = 20.44524 117.93610 52.26642
#
# Poissons Ratio (x) = 0.67894 -0.30678
# Poissons Ratio (y) = 0.11770 0.34261
# Poissons Ratio (z) = -0.12001 0.77308
#
# Static dielectric constant tensor:
#      x y z
#    x 1.688840 0.000000 0.038140 
#    y 0.000000 1.747010 0.000000 
#    z 0.038140 0.000000 1.836990 
# 
# From -- ./inp_files/70278.got.cif
#   From: 2010.05.17/outbox.cif.g08.bks.cpg/sg15_36_cif.got.tgz:70278.got - 2010.06.03 18:47:42.
