data_PCOD9261099
_publ_section_title
;
Structure prediction by ZEFSAII (Michael W. Deem and Ramdas Pophale) SiO2 
 PCOD9261099
Probable space group: C 2/C
;
_chemical_formula_sum "Si O2"
_cell_formula_units_Z 60
_cell_length_a 21.785027
_cell_length_b 10.925885
_cell_length_c 11.557435
_cell_angle_alpha 90.000000
_cell_angle_beta 82.550861
_cell_angle_gamma 90.000000
_cell_volume 2727.692025
_symmetry_space_group_name_H-M "C 2/C"
_symmetry_group_IT_number 15
_symmetry_cell_setting 'monoclinic'
loop_
_space_group_symop_operation_xyz
x,y,z
-x,y,1/2-z
-x,-y,-z
x,-y,1/2+z
1/2+x,1/2+y,z
1/2-x,1/2+y,1/2-z
1/2-x,1/2-y,-z
1/2+x,1/2-y,1/2+z
loop_
_atom_site_type_symbol
_atom_site_label
_atom_site_fract_x
_atom_site_fract_y
_atom_site_fract_z
Si Si1 0.436904 0.137261 0.928444
Si Si2 0.627567 0.569979 0.275821
Si Si3 0.973628 0.359667 0.878537
Si Si4 0.758688 0.943108 0.207803
Si Si5 0.146229 0.225498 0.502177
Si Si6 0.192384 0.254263 0.101558
Si Si7 0.743027 0.939309 0.458487
Si Si8 0.000000 0.841751 0.750000
O O1 0.364084 0.167487 0.938360
O O2 0.471383 0.245536 0.849183
O O3 0.448269 0.000129 0.877118
O O4 0.469881 0.138018 0.044361
O O5 0.667038 0.451625 0.301658
O O6 0.636096 0.662233 0.381218
O O7 0.658687 0.631483 0.154133
O O8 0.554996 0.569731 0.275883
O O9 0.919036 0.268391 0.930634
O O10 0.000000 0.321590 0.750000
O O11 0.723872 0.814943 0.206797
O O12 0.735445 0.003445 0.334065
O O13 0.743738 0.999670 0.085423
O O14 0.191752 0.135138 0.562092
O O15 0.186558 0.346458 0.477945
O O16 0.250000 0.250000 0.000000
#
# Coordination Sequence:
#
# PCOD9261099 Si02
#       8
#     8   8   8   8   8   8   8   4
#     4  10  22  38  60  90 126 163 208 266 321 387
#     4  10  21  38  68  88 128 174 214 258 327 386
#     4  11  22  38  60  95 126 165 209 265 333 391
#     4  11  22  41  63  97 131 169 219 266 324 391
#     4  10  20  40  61  90 129 177 207 263 337 393
#     4  11  23  40  63  98 130 167 213 275 322 379
#     4  10  22  39  65  93 130 175 217 269 324 396
#     4  10  18  40  64  86 122 168 220 248 310 400
#
# _framework density 21.996618999999999
#
# number of rings (size 3 to 8) (size 9 to 14) (size 15 to 20)
#    0.000    1.600    3.333    1.600    0.000    1.067 
#   12.000    0.000    4.400    3.200    0.000    0.000 
#    0.000    0.000    0.000    0.000    0.000    0.000 
#
# Total GULP energy -167229.491485 kJ/mol
# GULP energy per Si atom -5574.316383 kJ/mol
# Density = 2.194655 g / cm^3
# Si number density = 21.996619 Si / 1000 Ang^3
#
#
#
# Elastic Constant Matrix: (Units=GPa)
#
#
# Indices 1 2 3 4 5 6 
#
# 1 183.7710 33.8620 41.0426 0.0000 3.5574 0.0000
# 2 33.8620 27.4084 7.9620 0.0000 -2.7880 0.0000
# 3 41.0426 7.9620 129.3195 0.0000 -16.9747 0.0000
# 4 0.0000 0.0000 0.0000 14.7566 0.0000 -8.0196
# 5 3.5574 -2.7880 -16.9747 0.0000 24.9068 0.0000
# 6 0.0000 0.0000 0.0000 -8.0196 0.0000 21.5633
#
#
#
# Elastic Compliance Matrix: (Units=1/GPa)
#
#
# Indices 1 2 3 4 5 6 
#
# 1 0.007756 -0.009273 -0.002386 0.000000 -0.003772 0.000000
# 2 -0.009273 0.048422 0.000930 0.000000 0.007379 0.000000
# 3 -0.002386 0.000930 0.009325 0.000000 0.006800 0.000000
# 4 0.000000 0.000000 0.000000 0.084933 0.000000 0.031587
# 5 -0.003772 0.007379 0.006800 0.000000 0.046149 0.000000
# 6 0.000000 0.000000 0.000000 0.031587 0.000000 0.058122
#
#
# Mechanical properties :
#
#
# Convention : Reuss Voigt Hill
#
# Bulk Modulus (GPa) = 22.70331 56.24802 39.47567
# Shear Modulus (GPa) = 17.19121 29.42081 23.30601
#
# Velocity S-wave (km/s) = 2.79863 3.66117 3.25857
# Velocity P-wave (km/s) = 4.55926 6.59538 5.66947
#
# Compressibility (1/GPa) = 0.04404643
#
# Stress axis : x y z
#
# Youngs Moduli (GPa) = 128.93197 20.65183 107.23508
#
# Poissons Ratio (x) = 0.19150 0.25583
# Poissons Ratio (y) = 1.19557 -0.09975
# Poissons Ratio (z) = 0.30760 -0.01921
#
# Static dielectric constant tensor:
#      x y z
#    x 1.786160 0.000000 -0.004920 
#    y 0.000000 1.899420 0.000000 
#    z -0.004920 0.000000 1.818270 
# 
# From -- ./inp_files/105370.got.cif
#   From: 2010.05.17/outbox.cif.g08.bks.cpg/sg15_53_cif.got.tgz:105370.got - 2010.06.03 18:47:42.
