data_PCOD9261025
_publ_section_title
;
Structure prediction by ZEFSAII (Michael W. Deem and Ramdas Pophale) SiO2 
 PCOD9261025
Probable space group: C 2/C
;
_chemical_formula_sum "Si O2"
_cell_formula_units_Z 48
_cell_length_a 20.721693
_cell_length_b 12.427471
_cell_length_c 18.947593
_cell_angle_alpha 90.000000
_cell_angle_beta 151.125663
_cell_angle_gamma 90.000000
_cell_volume 2356.190727
_symmetry_space_group_name_H-M "C 2/C"
_symmetry_group_IT_number 15
_symmetry_cell_setting 'monoclinic'
loop_
_space_group_symop_operation_xyz
x,y,z
-x,y,1/2-z
-x,-y,-z
x,-y,1/2+z
1/2+x,1/2+y,z
1/2-x,1/2+y,1/2-z
1/2-x,1/2-y,-z
1/2+x,1/2-y,1/2+z
loop_
_atom_site_type_symbol
_atom_site_label
_atom_site_fract_x
_atom_site_fract_y
_atom_site_fract_z
Si Si1 0.492029 0.806560 0.890119
Si Si2 0.778720 0.856671 0.237546
Si Si3 0.155647 0.003858 0.827210
Si Si4 0.500000 0.672671 0.250000
Si Si5 0.000000 0.183119 0.750000
Si Si6 0.421332 0.876574 0.109361
Si Si7 0.911473 0.534284 0.846979
O O1 0.389900 0.736685 0.840970
O O2 0.513219 0.751989 0.833917
O O3 0.418802 0.922127 0.811648
O O4 0.638952 0.817953 0.066517
O O5 0.842103 0.947251 0.247977
O O6 0.726799 0.914608 0.258741
O O7 0.054182 0.906983 0.742839
O O8 0.121328 0.100734 0.848245
O O9 0.296226 0.949339 0.975103
O O10 0.398078 0.755506 0.115068
O O11 0.500000 0.927702 0.250000
O O12 0.512958 0.878306 0.128054
O O13 0.000000 0.500000 0.000000
#
# Coordination Sequence:
#
# PCOD9261025 Si02
#       7
#     8   8   8   4   4   8   8
#     4  10  21  38  59  86 116 156 199 237 298 353
#     4  10  22  39  62  84 116 161 194 242 298 353
#     4  10  18  40  55  83 123 150 191 242 298 340
#     4   9  22  33  58  86 116 155 192 239 292 346
#     4   9  22  33  60  86 116 157 188 247 294 344
#     4  10  21  34  58  88 110 149 197 241 287 347
#     4  10  20  39  57  81 116 156 190 237 294 351
#
# _framework density 20.371866000000001
#
# number of rings (size 3 to 8) (size 9 to 14) (size 15 to 20)
#    0.500    1.667    3.333    0.500    1.167    5.333 
#    0.000    0.833    0.000    0.000    0.000    0.000 
#    0.000    0.000    0.000    0.000    0.000    0.000 
#
# Total GULP energy -133615.487982 kJ/mol
# GULP energy per Si atom -5567.311999 kJ/mol
# Density = 2.032550 g / cm^3
# Si number density = 20.371866 Si / 1000 Ang^3
#
#
#
# Elastic Constant Matrix: (Units=GPa)
#
#
# Indices 1 2 3 4 5 6 
#
# 1 112.8737 45.8214 27.8690 0.0000 27.6469 0.0000
# 2 45.8214 104.2483 -1.6239 -0.0001 10.7516 0.0000
# 3 27.8690 -1.6239 -35.5790 -0.0002 6.3318 -0.0001
# 4 0.0000 -0.0001 -0.0002 83.7222 0.0000 55.2901
# 5 27.6469 10.7516 6.3318 0.0000 25.9910 0.0000
# 6 0.0000 0.0000 -0.0001 55.2901 0.0000 73.6688
#
#
#
# Elastic Compliance Matrix: (Units=1/GPa)
#
#
# Indices 1 2 3 4 5 6 
#
# 1 0.011722 -0.003737 0.007101 0.000000 -0.012653 0.000000
# 2 -0.003737 0.011163 -0.003403 0.000000 0.000186 0.000000
# 3 0.007101 -0.003403 -0.022507 0.000000 -0.000662 0.000000
# 4 0.000000 0.000000 0.000000 0.023682 0.000000 -0.017774
# 5 -0.012653 0.000186 -0.000662 0.000000 0.052019 0.000000
# 6 0.000000 0.000000 0.000000 -0.017774 0.000000 0.026914
#
#
# Mechanical properties :
#
#
# Convention : Reuss Voigt Hill
#
# Bulk Modulus (GPa) = 3337.78183 36.18623 1686.98403
# Shear Modulus (GPa) = 48.46277 43.97483 46.21880
#
# Velocity S-wave (km/s) = 4.88270 4.65112 4.76831
# Velocity P-wave (km/s) = 40.91175 6.82974 29.32931
#
# Compressibility (1/GPa) = 0.00029960
#
# Stress axis : x y z
#
# Youngs Moduli (GPa) = 85.30604 89.58360 -44.43090
#
# Poissons Ratio (x) = 0.33477 0.31550
# Poissons Ratio (y) = 0.31878 -0.15122
# Poissons Ratio (z) = -0.60575 0.30489
#
# Static dielectric constant tensor:
#      x y z
#    x 1.761640 0.000000 0.032070 
#    y 0.000000 1.759680 0.000000 
#    z 0.032070 0.000000 1.734460 
# 
# From -- ./inp_files/252527.got.cif
#   From: 2010.05.17/outbox.cif.g08.bks.cpg/sg15_127_cif.got.tgz:252527.got - 2010.06.03 18:47:42.
