data_PCOD9261939
_publ_section_title
;
Structure prediction by ZEFSAII (Michael W. Deem and Ramdas Pophale) SiO2 
 PCOD9261939
Probable space group: C 2/C
;
_chemical_formula_sum "Si O2"
_cell_formula_units_Z 52
_cell_length_a 29.926585
_cell_length_b 16.657723
_cell_length_c 5.283817
_cell_angle_alpha 90.000000
_cell_angle_beta 70.032768
_cell_angle_gamma 90.000000
_cell_volume 2475.692511
_symmetry_space_group_name_H-M "C 2/C"
_symmetry_group_IT_number 15
_symmetry_cell_setting 'monoclinic'
loop_
_space_group_symop_operation_xyz
x,y,z
-x,y,1/2-z
-x,-y,-z
x,-y,1/2+z
1/2+x,1/2+y,z
1/2-x,1/2+y,1/2-z
1/2-x,1/2-y,-z
1/2+x,1/2-y,1/2+z
loop_
_atom_site_type_symbol
_atom_site_label
_atom_site_fract_x
_atom_site_fract_y
_atom_site_fract_z
Si Si1 0.943833 0.222653 0.346470
Si Si2 0.500000 0.055819 0.250000
Si Si3 0.809008 0.296716 0.170239
Si Si4 0.297191 0.304487 0.194525
Si Si5 0.086061 0.683613 0.095652
Si Si6 0.064618 0.034165 0.029159
Si Si7 0.826893 0.028129 0.665629
O O1 0.920062 0.269063 0.628052
O O2 0.938114 0.127186 0.390916
O O3 0.000000 0.240941 0.250000
O O4 0.924294 0.255957 0.118335
O O5 0.546773 0.113134 0.160490
O O6 0.500000 0.000000 0.500000
O O7 0.757405 0.335115 0.219129
O O8 0.805690 0.260765 0.459644
O O9 0.808444 0.228249 0.951833
O O10 0.858731 0.342467 0.039898
O O11 0.328776 0.380708 0.074639
O O12 0.118984 0.002836 0.891701
O O13 0.044097 0.018899 0.793527
O O14 0.803444 0.978395 0.486099
#
# Coordination Sequence:
#
# PCOD9261939 Si02
#       7
#     8   4   8   8   8   8   8
#     4  12  23  39  62  88 119 160 207 257 294 351
#     4  12  26  46  68  92 124 158 202 270 334 400
#     4  10  21  36  63  85 120 150 192 248 301 359
#     4  10  20  37  56  92 117 153 196 243 295 350
#     4  12  23  43  65  93 118 159 206 256 316 383
#     4  10  21  34  52  82 121 163 202 236 285 336
#     4  10  19  32  50  75 110 152 189 226 271 336
#
# _framework density 21.004225999999999
#
# number of rings (size 3 to 8) (size 9 to 14) (size 15 to 20)
#    0.000    1.231    1.538    5.538    0.000    3.077 
#    0.000    1.538    0.000    0.000    0.000    0.000 
#    0.000    0.000    0.000    0.000    0.000    0.000 
#
# Total GULP energy -145091.234137 kJ/mol
# GULP energy per Si atom -5580.432082 kJ/mol
# Density = 2.095642 g / cm^3
# Si number density = 21.004226 Si / 1000 Ang^3
#
#
#
# Elastic Constant Matrix: (Units=GPa)
#
#
# Indices 1 2 3 4 5 6 
#
# 1 87.2990 7.2309 34.1318 0.0000 -25.0709 0.0000
# 2 7.2309 60.4180 30.0769 0.0000 10.0248 0.0000
# 3 34.1318 30.0769 118.5405 0.0000 13.3429 0.0000
# 4 0.0000 0.0000 0.0000 32.3132 0.0000 7.1085
# 5 -25.0709 10.0248 13.3429 0.0000 45.3394 0.0000
# 6 0.0000 0.0000 0.0000 7.1085 0.0000 -2.9309
#
#
#
# Elastic Compliance Matrix: (Units=1/GPa)
#
#
# Indices 1 2 3 4 5 6 
#
# 1 0.017172 -0.000978 -0.005988 0.000000 0.011474 0.000000
# 2 -0.000978 0.019368 -0.004230 0.000000 -0.003578 0.000000
# 3 -0.005988 -0.004230 0.011895 0.000000 -0.005876 0.000000
# 4 0.000000 0.000000 0.000000 0.020180 0.000000 0.048944
# 5 0.011474 -0.003578 -0.005876 0.000000 0.030921 0.000000
# 6 0.000000 0.000000 0.000000 0.048944 0.000000 -0.222486
#
#
# Mechanical properties :
#
#
# Convention : Reuss Voigt Hill
#
# Bulk Modulus (GPa) = 38.39760 45.45962 41.92861
# Shear Modulus (GPa) = -54.42009 27.93221 -13.24394
#
# Velocity S-wave (km/s) = -5.09562 3.65065 -2.51377
# Velocity P-wave (km/s) = 4.03731 6.28170 3.40293
#
# Compressibility (1/GPa) = 0.02604329
#
# Stress axis : x y z
#
# Youngs Moduli (GPa) = 58.23400 51.63212 84.07171
#
# Poissons Ratio (x) = 0.05051 0.50340
# Poissons Ratio (y) = 0.05696 0.35560
# Poissons Ratio (z) = 0.34869 0.21839
#
# Static dielectric constant tensor:
#      x y z
#    x 1.813150 0.000000 -0.029790 
#    y 0.000000 1.722790 0.000000 
#    z -0.029790 0.000000 1.822810 
# 
# From -- ./inp_files/18197.got.cif
#   From: 2010.05.17/outbox.cif.g08.bks.cpg/sg15_10_cif.got.tgz:18197.got - 2010.06.03 18:47:42.
