data_PCOD9261426
_publ_section_title
;
Structure prediction by ZEFSAII (Michael W. Deem and Ramdas Pophale) SiO2 
 PCOD9261426
Probable space group: C 2/C
;
_chemical_formula_sum "Si O2"
_cell_formula_units_Z 60
_cell_length_a 11.391689
_cell_length_b 20.697200
_cell_length_c 13.561663
_cell_angle_alpha 90.000000
_cell_angle_beta 68.893067
_cell_angle_gamma 90.000000
_cell_volume 2982.994122
_symmetry_space_group_name_H-M "C 2/C"
_symmetry_group_IT_number 15
_symmetry_cell_setting 'monoclinic'
loop_
_space_group_symop_operation_xyz
x,y,z
-x,y,1/2-z
-x,-y,-z
x,-y,1/2+z
1/2+x,1/2+y,z
1/2-x,1/2+y,1/2-z
1/2-x,1/2-y,-z
1/2+x,1/2-y,1/2+z
loop_
_atom_site_type_symbol
_atom_site_label
_atom_site_fract_x
_atom_site_fract_y
_atom_site_fract_z
Si Si1 0.561460 0.620867 0.124737
Si Si2 0.650088 0.512171 0.601861
Si Si3 0.111391 0.504960 0.583376
Si Si4 0.334112 0.013407 0.706292
Si Si5 0.500000 0.381426 0.250000
Si Si6 0.531236 0.250225 0.859495
Si Si7 0.683817 0.153865 0.534447
Si Si8 0.245454 0.339092 0.243430
O O1 0.500000 0.610726 0.250000
O O2 0.583669 0.549781 0.073237
O O3 0.476553 0.676317 0.101474
O O4 0.701599 0.652785 0.077698
O O5 0.779805 0.530997 0.509433
O O6 0.708936 0.489123 0.689809
O O7 0.557656 0.570427 0.650211
O O8 0.149042 0.494656 0.685715
O O9 0.128586 0.581381 0.555656
O O10 0.963756 0.490620 0.616101
O O11 0.319598 0.091453 0.712405
O O12 0.386356 0.341975 0.239072
O O13 0.500000 0.250747 0.750000
O O14 0.426347 0.205910 0.943975
O O15 0.664663 0.215617 0.821090
O O16 0.739931 0.166838 0.626793
#
# Coordination Sequence:
#
# PCOD9261426 Si02
#       8
#     8   8   8   8   4   8   8   8
#     4  10  19  30  43  71 104 131 150 193 258 309
#     4  10  19  31  43  70 107 136 164 197 253 314
#     4   9  16  28  48  71  97 131 172 204 249 294
#     4   9  16  29  48  70  99 134 168 209 244 291
#     4  10  20  34  48  68 108 130 172 204 242 302
#     4   9  16  29  52  73  97 117 164 214 253 290
#     4   9  16  29  48  74  96 119 166 208 251 290
#     4   9  17  31  50  74  92 130 168 215 245 277
#
# _framework density 20.114018999999999
#
# number of rings (size 3 to 8) (size 9 to 14) (size 15 to 20)
#    0.000    2.667    2.000    0.800    0.000    0.000 
#    2.400    2.667    0.000    0.800    0.000   16.800 
#    6.000    0.000    0.000    0.000    0.000    0.000 
#
# Total GULP energy -167186.076022 kJ/mol
# GULP energy per Si atom -5572.869201 kJ/mol
# Density = 2.006824 g / cm^3
# Si number density = 20.114019 Si / 1000 Ang^3
#
#
#
# Elastic Constant Matrix: (Units=GPa)
#
#
# Indices 1 2 3 4 5 6 
#
# 1 103.9100 34.8350 23.7721 0.0000 -24.2094 0.0000
# 2 34.8350 50.9074 8.6304 0.0000 -10.4230 0.0000
# 3 23.7721 8.6304 74.6720 0.0000 -27.1477 0.0000
# 4 0.0000 0.0000 0.0000 3.3418 0.0000 -0.6315
# 5 -24.2094 -10.4230 -27.1477 0.0000 29.7212 0.0000
# 6 0.0000 0.0000 0.0000 -0.6315 0.0000 17.2857
#
#
#
# Elastic Compliance Matrix: (Units=1/GPa)
#
#
# Indices 1 2 3 4 5 6 
#
# 1 0.014407 -0.008044 -0.000623 0.000000 0.008346 0.000000
# 2 -0.008044 0.025662 0.000726 0.000000 0.003109 0.000000
# 3 -0.000623 0.000726 0.020084 0.000000 0.018092 0.000000
# 4 0.000000 0.000000 0.000000 0.301323 0.000000 0.011009
# 5 0.008346 0.003109 0.018092 0.000000 0.058060 0.000000
# 6 0.000000 0.000000 0.000000 0.011009 0.000000 0.058253
#
#
# Mechanical properties :
#
#
# Convention : Reuss Voigt Hill
#
# Bulk Modulus (GPa) = 22.58886 40.44050 31.51468
# Shear Modulus (GPa) = 9.83420 20.88653 15.36037
#
# Velocity S-wave (km/s) = 2.21356 3.22593 2.76645
# Velocity P-wave (km/s) = 4.21757 5.83307 5.08983
#
# Compressibility (1/GPa) = 0.04426961
#
# Stress axis : x y z
#
# Youngs Moduli (GPa) = 69.40875 38.96836 49.79140
#
# Poissons Ratio (x) = 0.31348 0.03101
# Poissons Ratio (y) = 0.55836 -0.03612
# Poissons Ratio (z) = 0.04323 -0.02827
#
# Static dielectric constant tensor:
#      x y z
#    x 1.712500 0.000000 0.001780 
#    y 0.000000 1.728390 0.000000 
#    z 0.001780 0.000000 1.773830 
# 
# From -- ./inp_files/147852.got.cif
#   From: 2010.05.17/outbox.cif.g08.bks.cpg/sg15_74_cif.got.tgz:147852.got - 2010.06.03 18:47:42.
