data_PCOD9261734
_publ_section_title
;
Structure prediction by ZEFSAII (Michael W. Deem and Ramdas Pophale) SiO2 
 PCOD9261734
Probable space group: C 2/C
;
_chemical_formula_sum "Si O2"
_cell_formula_units_Z 64
_cell_length_a 5.832321
_cell_length_b 20.700042
_cell_length_c 27.574662
_cell_angle_alpha 90.000000
_cell_angle_beta 92.565129
_cell_angle_gamma 90.000000
_cell_volume 3325.733606
_symmetry_space_group_name_H-M "C 2/C"
_symmetry_group_IT_number 15
_symmetry_cell_setting 'monoclinic'
loop_
_space_group_symop_operation_xyz
x,y,z
-x,y,1/2-z
-x,-y,-z
x,-y,1/2+z
1/2+x,1/2+y,z
1/2-x,1/2+y,1/2-z
1/2-x,1/2-y,-z
1/2+x,1/2-y,1/2+z
loop_
_atom_site_type_symbol
_atom_site_label
_atom_site_fract_x
_atom_site_fract_y
_atom_site_fract_z
Si Si1 0.457003 0.798286 0.517854
Si Si2 0.162581 0.448108 0.974258
Si Si3 0.389267 0.419776 0.068010
Si Si4 0.744773 0.451463 0.735719
Si Si5 0.275622 0.297268 0.426206
Si Si6 0.252172 0.100733 0.770333
Si Si7 0.787356 0.002154 0.871091
Si Si8 0.974068 0.375142 0.367795
O O1 0.250000 0.750000 0.500000
O O2 0.406162 0.872782 0.527765
O O3 0.571617 0.765953 0.566352
O O4 0.627056 0.797791 0.473709
O O5 0.189576 0.470958 0.919296
O O6 0.378251 0.444070 0.013154
O O7 0.000000 0.500000 0.000000
O O8 0.562196 0.360030 0.071739
O O9 0.466008 0.473561 0.107413
O O10 0.143066 0.394651 0.082688
O O11 0.500000 0.421126 0.750000
O O12 0.749181 0.522843 0.761854
O O13 0.720898 0.460937 0.677525
O O14 0.000000 0.423526 0.750000
O O15 0.110007 0.309291 0.379015
O O16 0.500000 0.122294 0.750000
O O17 0.279078 0.123762 0.825757
O O18 0.000000 0.122821 0.750000
O O19 0.646591 0.067009 0.856346
#
# Coordination Sequence:
#
# PCOD9261734 Si02
#       8
#     8   8   8   8   8   8   8   8
#     4  11  21  41  57  80 119 165 209 252 298 368
#     4  12  22  37  56  87 127 164 201 254 309 369
#     4  11  20  36  54  81 121 162 195 245 297 366
#     4  10  19  34  52  77 115 163 195 249 313 374
#     4  10  21  35  61  79 110 165 210 247 298 365
#     4  10  19  31  51  79 118 159 192 249 314 369
#     4  11  22  32  52  83 121 160 198 249 316 373
#     4  11  19  34  54  84 118 159 199 246 309 370
#
# _framework density 19.243874999999999
#
# number of rings (size 3 to 8) (size 9 to 14) (size 15 to 20)
#    0.000    1.250    6.250    2.625    1.750    0.000 
#    0.000    0.000    0.000    0.000    0.000    0.000 
#    7.500    0.000    0.000    0.000    0.000    0.000 
#
# Total GULP energy -178137.238976 kJ/mol
# GULP energy per Si atom -5566.788718 kJ/mol
# Density = 1.920008 g / cm^3
# Si number density = 19.243875 Si / 1000 Ang^3
#
#
#
# Elastic Constant Matrix: (Units=GPa)
#
#
# Indices 1 2 3 4 5 6 
#
# 1 84.8145 20.9287 15.3950 0.0000 10.2932 0.0000
# 2 20.9287 67.2565 19.4271 0.0000 10.3762 0.0000
# 3 15.3950 19.4271 89.3263 0.0000 21.2872 0.0000
# 4 0.0000 0.0000 0.0000 14.5893 0.0000 2.8922
# 5 10.2932 10.3762 21.2872 0.0000 43.8809 0.0000
# 6 0.0000 0.0000 0.0000 2.8922 0.0000 16.3267
#
#
#
# Elastic Compliance Matrix: (Units=1/GPa)
#
#
# Indices 1 2 3 4 5 6 
#
# 1 0.013055 -0.003485 -0.001084 0.000000 -0.001712 0.000000
# 2 -0.003485 0.017013 -0.002641 0.000000 -0.001924 0.000000
# 3 -0.001084 -0.002641 0.013282 0.000000 -0.005565 0.000000
# 4 0.000000 0.000000 0.000000 0.071038 0.000000 -0.012584
# 5 -0.001712 -0.001924 -0.005565 0.000000 0.026345 0.000000
# 6 0.000000 0.000000 0.000000 -0.012584 0.000000 0.063479
#
#
# Mechanical properties :
#
#
# Convention : Reuss Voigt Hill
#
# Bulk Modulus (GPa) = 34.56608 39.21099 36.88853
# Shear Modulus (GPa) = 21.90343 27.33580 24.61962
#
# Velocity S-wave (km/s) = 3.37739 3.77303 3.58068
# Velocity P-wave (km/s) = 5.76282 6.27703 6.02541
#
# Compressibility (1/GPa) = 0.02893010
#
# Stress axis : x y z
#
# Youngs Moduli (GPa) = 76.59908 58.77988 75.28900
#
# Poissons Ratio (x) = 0.20486 0.08161
# Poissons Ratio (y) = 0.26696 0.19882
# Poissons Ratio (z) = 0.08303 0.15522
#
# Static dielectric constant tensor:
#      x y z
#    x 1.775860 0.000000 0.003460 
#    y 0.000000 1.701360 0.000000 
#    z 0.003460 0.000000 1.736630 
# 
# From -- ./inp_files/286394.got.cif
#   From: 2010.05.17/outbox.cif.g08.bks.cpg/sg15_144_cif.got.tgz:286394.got - 2010.06.03 18:47:42.
