data_PCOD9261276
_publ_section_title
;
Structure prediction by ZEFSAII (Michael W. Deem and Ramdas Pophale) SiO2 
 PCOD9261276
Probable space group: C 2/C
;
_chemical_formula_sum "Si O2"
_cell_formula_units_Z 60
_cell_length_a 21.280403
_cell_length_b 15.090724
_cell_length_c 12.207529
_cell_angle_alpha 90.000000
_cell_angle_beta 137.994492
_cell_angle_gamma 90.000000
_cell_volume 2623.463026
_symmetry_space_group_name_H-M "C 2/C"
_symmetry_group_IT_number 15
_symmetry_cell_setting 'monoclinic'
loop_
_space_group_symop_operation_xyz
x,y,z
-x,y,1/2-z
-x,-y,-z
x,-y,1/2+z
1/2+x,1/2+y,z
1/2-x,1/2+y,1/2-z
1/2-x,1/2-y,-z
1/2+x,1/2-y,1/2+z
loop_
_atom_site_type_symbol
_atom_site_label
_atom_site_fract_x
_atom_site_fract_y
_atom_site_fract_z
Si Si1 0.907524 0.712056 0.876134
Si Si2 0.104502 0.621759 0.056571
Si Si3 0.677918 0.940006 0.089821
Si Si4 0.824303 0.327229 0.623319
Si Si5 0.114506 0.764317 0.889030
Si Si6 0.453501 0.321245 0.339438
Si Si7 0.000000 0.030864 0.750000
Si Si8 0.865457 0.086389 0.933343
O O1 0.849793 0.646978 0.877302
O O2 0.861614 0.744333 0.704557
O O3 0.001332 0.657249 0.958747
O O4 0.941270 0.798375 0.987325
O O5 0.107620 0.520038 0.023586
O O6 0.172565 0.637562 0.248573
O O7 0.134844 0.681564 0.993532
O O8 0.780343 0.965685 0.268179
O O9 0.680981 0.906955 0.969018
O O10 0.750000 0.250000 0.500000
O O11 0.919088 0.269160 0.739612
O O12 0.000000 0.779266 0.750000
O O13 0.161743 0.851273 0.000069
O O14 0.435681 0.401771 0.235180
O O15 0.401952 0.346603 0.386017
O O16 0.945908 0.974965 0.588465
#
# Coordination Sequence:
#
# PCOD9261276 Si02
#       8
#     8   8   8   8   8   8   4   8
#     4  10  22  44  68  96 134 173 229 272 334 412
#     4  10  23  41  66  96 130 178 223 268 340 393
#     4  12  26  38  66 106 132 171 228 282 332 401
#     4  11  22  44  68  90 143 177 213 275 337 400
#     4  10  18  43  69  84 126 179 212 264 336 398
#     4  11  22  46  67  94 127 190 217 266 348 397
#     4  12  26  40  72  96 132 166 238 280 318 424
#     4  12  23  44  65  96 132 173 219 278 346 388
#
# _framework density 22.870532999999998
#
# number of rings (size 3 to 8) (size 9 to 14) (size 15 to 20)
#    0.000    1.067    6.000    1.600    3.733    2.133 
#    9.600    0.000    0.000    0.000    0.000    0.000 
#    0.000    0.000    0.000    0.000    0.000    0.000 
#
# Total GULP energy -167653.370373 kJ/mol
# GULP energy per Si atom -5588.445679 kJ/mol
# Density = 2.281848 g / cm^3
# Si number density = 22.870533 Si / 1000 Ang^3
#
#
#
# Elastic Constant Matrix: (Units=GPa)
#
#
# Indices 1 2 3 4 5 6 
#
# 1 18.6900 -4.2562 14.2333 0.0000 -6.5593 0.0000
# 2 -4.2562 65.7324 17.0972 0.0000 -8.5138 0.0000
# 3 14.2333 17.0972 121.5596 0.0000 -24.8260 0.0000
# 4 0.0000 0.0000 0.0000 20.5246 0.0000 -3.9303
# 5 -6.5593 -8.5138 -24.8260 0.0000 25.3578 0.0000
# 6 0.0000 0.0000 0.0000 -3.9303 0.0000 20.3827
#
#
#
# Elastic Compliance Matrix: (Units=1/GPa)
#
#
# Indices 1 2 3 4 5 6 
#
# 1 0.064352 0.007424 -0.005838 0.000000 0.013423 0.000000
# 2 0.007424 0.016963 -0.002125 0.000000 0.005536 0.000000
# 3 -0.005838 -0.002125 0.010943 0.000000 0.008490 0.000000
# 4 0.000000 0.000000 0.000000 0.050590 0.000000 0.009755
# 5 0.013423 0.005536 0.008490 0.000000 0.053078 0.000000
# 6 0.000000 0.000000 0.000000 0.009755 0.000000 0.050942
#
#
# Mechanical properties :
#
#
# Convention : Reuss Voigt Hill
#
# Bulk Modulus (GPa) = 10.96724 28.90340 19.93532
# Shear Modulus (GPa) = 17.96373 25.18020 21.57197
#
# Velocity S-wave (km/s) = 2.80563 3.32171 3.07452
# Velocity P-wave (km/s) = 3.91168 5.23230 4.61943
#
# Compressibility (1/GPa) = 0.09118068
#
# Stress axis : x y z
#
# Youngs Moduli (GPa) = 15.53962 58.95018 91.38572
#
# Poissons Ratio (x) = -0.43763 0.53348
# Poissons Ratio (y) = -0.11536 0.19416
# Poissons Ratio (z) = 0.09071 0.12524
#
# Static dielectric constant tensor:
#      x y z
#    x 1.920330 0.000000 0.075220 
#    y 0.000000 1.829300 0.000000 
#    z 0.075220 0.000000 1.933570 
# 
# From -- ./inp_files/105393.got.cif
#   From: 2010.05.17/outbox.cif.g08.bks.cpg/sg15_53_cif.got.tgz:105393.got - 2010.06.03 18:47:42.
