data_PCOD9261364
_publ_section_title
;
Structure prediction by ZEFSAII (Michael W. Deem and Ramdas Pophale) SiO2 
 PCOD9261364
Probable space group: C 2/C
;
_chemical_formula_sum "Si O2"
_cell_formula_units_Z 48
_cell_length_a 18.539965
_cell_length_b 8.580656
_cell_length_c 13.170279
_cell_angle_alpha 90.000000
_cell_angle_beta 49.261314
_cell_angle_gamma 90.000000
_cell_volume 1587.516138
_symmetry_space_group_name_H-M "C 2/C"
_symmetry_group_IT_number 15
_symmetry_cell_setting 'monoclinic'
loop_
_space_group_symop_operation_xyz
x,y,z
-x,y,1/2-z
-x,-y,-z
x,-y,1/2+z
1/2+x,1/2+y,z
1/2-x,1/2+y,1/2-z
1/2-x,1/2-y,-z
1/2+x,1/2-y,1/2+z
loop_
_atom_site_type_symbol
_atom_site_label
_atom_site_fract_x
_atom_site_fract_y
_atom_site_fract_z
Si Si1 0.091755 0.126350 0.946473
Si Si2 0.130741 0.907201 0.638070
Si Si3 0.393505 0.033516 0.059065
Si Si4 0.110042 0.243884 0.671263
Si Si5 0.848474 0.428378 0.368645
Si Si6 0.126102 0.199152 0.425626
O O1 0.071206 0.099579 0.087253
O O2 0.988941 0.165176 0.988246
O O3 0.144317 0.292029 0.887004
O O4 0.155510 0.973334 0.864894
O O5 0.117076 0.739463 0.703077
O O6 0.239008 0.909518 0.499415
O O7 0.119389 0.070265 0.706987
O O8 0.344632 0.871395 0.136949
O O9 0.400044 0.039919 0.929551
O O10 0.500000 0.000000 0.000000
O O11 0.139554 0.405214 0.696420
O O12 0.154323 0.218973 0.518644
O O13 0.000000 0.262734 0.750000
#
# Coordination Sequence:
#
# PCOD9261364 Si02
#       6
#     8   8   8   8   8   8
#     4   8  13  23  40  61  81 105 138 185 220 246
#     4   9  17  29  46  68  89 115 151 193 229 261
#     4   8  13  22  38  61  86 103 132 178 221 252
#     4  10  19  29  43  66  93 123 147 180 228 278
#     4   9  17  29  45  67  90 113 150 189 226 263
#     4   8  14  24  38  59  83 108 140 178 214 255
#
# _framework density 30.235913
#
# number of rings (size 3 to 8) (size 9 to 14) (size 15 to 20)
#    0.000    3.333    0.000    0.500    0.000    0.667 
#    0.000    0.000    0.000    0.000   21.667    0.000 
#    0.000    0.000    0.000    0.000    0.000    0.000 
#
# Total GULP energy -134060.454945 kJ/mol
# GULP energy per Si atom -5585.852289 kJ/mol
# Density = 3.016709 g / cm^3
# Si number density = 30.235913 Si / 1000 Ang^3
#
#
#
# Elastic Constant Matrix: (Units=GPa)
#
#
# Indices 1 2 3 4 5 6 
#
# 1 78.3254 27.5448 17.9080 -0.0001 15.1900 0.0000
# 2 27.5448 488.4226 60.1394 0.0000 -8.6326 0.0000
# 3 17.9080 60.1394 41.8702 -0.0001 -16.5838 0.0001
# 4 -0.0001 0.0000 -0.0001 27.6761 -0.0001 -16.8407
# 5 15.1900 -8.6326 -16.5838 -0.0001 40.9530 0.0001
# 6 0.0000 0.0000 0.0001 -16.8407 0.0001 32.8493
#
#
#
# Elastic Compliance Matrix: (Units=1/GPa)
#
#
# Indices 1 2 3 4 5 6 
#
# 1 0.017837 0.000362 -0.012790 0.000000 -0.011719 0.000000
# 2 0.000362 0.002537 -0.004335 0.000000 -0.001355 0.000000
# 3 -0.012790 -0.004335 0.044184 0.000000 0.021723 0.000000
# 4 0.000000 0.000000 0.000000 0.052514 0.000000 0.026922
# 5 -0.011719 -0.001355 0.021723 0.000000 0.037276 0.000000
# 6 0.000000 0.000000 0.000000 0.026922 0.000000 0.044244
#
#
# Mechanical properties :
#
#
# Convention : Reuss Voigt Hill
#
# Bulk Modulus (GPa) = 32.22592 91.08916 61.65754
# Shear Modulus (GPa) = 20.62168 53.83074 37.22621
#
# Velocity S-wave (km/s) = 2.61440 4.22401 3.51264
# Velocity P-wave (km/s) = 4.44913 7.34719 6.07355
#
# Compressibility (1/GPa) = 0.03103092
#
# Stress axis : x y z
#
# Youngs Moduli (GPa) = 56.06307 394.19084 22.63247
#
# Poissons Ratio (x) = -0.14262 0.28948
# Poissons Ratio (y) = -0.02028 0.09812
# Poissons Ratio (z) = 0.71706 1.70888
#
# Static dielectric constant tensor:
#      x y z
#    x 2.457780 0.000000 0.007440 
#    y 0.000000 2.467130 0.000000 
#    z 0.007440 0.000000 2.329560 
# 
# From -- ./inp_files/254632.got.cif
#   From: 2010.05.17/outbox.cif.g08.bks.cpg/sg15_128_cif.got.tgz:254632.got - 2010.06.03 18:47:42.
