data_PCOD9261070
_publ_section_title
;
Structure prediction by ZEFSAII (Michael W. Deem and Ramdas Pophale) SiO2 
 PCOD9261070
Probable space group: C 2/C
;
_chemical_formula_sum "Si O2"
_cell_formula_units_Z 52
_cell_length_a 9.475943
_cell_length_b 17.213780
_cell_length_c 17.492356
_cell_angle_alpha 90.000000
_cell_angle_beta 59.832147
_cell_angle_gamma 90.000000
_cell_volume 2466.837685
_symmetry_space_group_name_H-M "C 2/C"
_symmetry_group_IT_number 15
_symmetry_cell_setting 'monoclinic'
loop_
_space_group_symop_operation_xyz
x,y,z
-x,y,1/2-z
-x,-y,-z
x,-y,1/2+z
1/2+x,1/2+y,z
1/2-x,1/2+y,1/2-z
1/2-x,1/2-y,-z
1/2+x,1/2-y,1/2+z
loop_
_atom_site_type_symbol
_atom_site_label
_atom_site_fract_x
_atom_site_fract_y
_atom_site_fract_z
Si Si1 0.939003 0.176489 0.948839
Si Si2 0.661902 0.061375 0.256278
Si Si3 0.285438 0.233326 0.211474
Si Si4 0.000000 0.330792 0.250000
Si Si5 0.831760 0.300952 0.096144
Si Si6 0.214425 0.052646 0.886109
Si Si7 0.982122 0.456039 0.426173
O O1 0.046498 0.237421 0.870272
O O2 0.050618 0.101958 0.933236
O O3 0.784358 0.160573 0.936509
O O4 0.893209 0.222626 0.038200
O O5 0.500000 0.077836 0.250000
O O6 0.715623 0.141994 0.277252
O O7 0.794158 0.023468 0.163847
O O8 0.605565 0.000128 0.335496
O O9 0.254696 0.276480 0.301330
O O10 0.139440 0.263358 0.198795
O O11 0.859292 0.396657 0.306817
O O12 0.966914 0.365096 0.082634
O O13 0.298978 0.035401 0.943860
O O14 0.000000 0.500000 0.500000
#
# Coordination Sequence:
#
# PCOD9261070 Si02
#       7
#     8   8   8   4   8   8   8
#     4  10  23  38  64  89 121 162 208 252 315 365
#     4  10  20  37  61  87 120 165 204 246 315 374
#     4  11  21  39  63  90 123 160 206 256 307 368
#     4  10  18  40  62  86 122 162 208 248 300 372
#     4  11  22  41  61  92 121 159 208 262 299 376
#     4  10  19  41  62  84 120 170 201 249 314 373
#     4  11  21  37  61  89 123 159 207 256 311 373
#
# _framework density 21.079619999999998
#
# number of rings (size 3 to 8) (size 9 to 14) (size 15 to 20)
#    0.000    1.538    3.846    3.231    0.000    4.308 
#    5.538    1.538    0.000    0.000    0.000    0.000 
#    0.000    0.000    0.000    0.000    0.000    0.000 
#
# Total GULP energy -144759.418753 kJ/mol
# GULP energy per Si atom -5567.669952 kJ/mol
# Density = 2.103164 g / cm^3
# Si number density = 21.079620 Si / 1000 Ang^3
#
#
#
# Elastic Constant Matrix: (Units=GPa)
#
#
# Indices 1 2 3 4 5 6 
#
# 1 49.8234 11.9980 25.1937 0.0000 26.4941 0.0000
# 2 11.9980 76.2127 -4.5506 0.0000 13.1767 0.0000
# 3 25.1937 -4.5506 71.8786 0.0000 31.7565 0.0000
# 4 0.0000 0.0000 0.0000 15.9384 0.0000 2.6710
# 5 26.4941 13.1767 31.7565 0.0000 47.3296 0.0000
# 6 0.0000 0.0000 0.0000 2.6710 0.0000 23.5246
#
#
#
# Elastic Compliance Matrix: (Units=1/GPa)
#
#
# Indices 1 2 3 4 5 6 
#
# 1 0.030052 -0.002869 -0.005167 0.000000 -0.012557 0.000000
# 2 -0.002869 0.014767 0.004331 0.000000 -0.005412 0.000000
# 3 -0.005167 0.004331 0.021679 0.000000 -0.012859 0.000000
# 4 0.000000 0.000000 0.000000 0.063958 0.000000 -0.007262
# 5 -0.012557 -0.005412 -0.012859 0.000000 0.038292 0.000000
# 6 0.000000 0.000000 0.000000 -0.007262 0.000000 0.043333
#
#
# Mechanical properties :
#
#
# Convention : Reuss Voigt Hill
#
# Bulk Modulus (GPa) = 16.92378 29.24411 23.08395
# Shear Modulus (GPa) = 20.90420 28.37676 24.64048
#
# Velocity S-wave (km/s) = 3.15251 3.67300 3.42266
# Velocity P-wave (km/s) = 4.61487 5.64723 5.15695
#
# Compressibility (1/GPa) = 0.05908845
#
# Stress axis : x y z
#
# Youngs Moduli (GPa) = 33.27612 67.71865 46.12769
#
# Poissons Ratio (x) = 0.19425 0.23835
# Poissons Ratio (y) = 0.09545 -0.19979
# Poissons Ratio (z) = 0.17194 -0.29330
#
# Static dielectric constant tensor:
#      x y z
#    x 1.712690 0.000000 -0.138270 
#    y 0.000000 1.768540 0.000000 
#    z -0.138270 0.000000 1.453860 
# 
# From -- ./inp_files/190328.got.cif
#   From: 2010.05.17/outbox.cif.g08.bks.cpg/sg15_96_cif.got.tgz:190328.got - 2010.06.03 18:47:42.
