data_PCOD9261282
_publ_section_title
;
Structure prediction by ZEFSAII (Michael W. Deem and Ramdas Pophale) SiO2 
 PCOD9261282
Probable space group: C 2/C
;
_chemical_formula_sum "Si O2"
_cell_formula_units_Z 52
_cell_length_a 12.124614
_cell_length_b 7.550713
_cell_length_c 26.175139
_cell_angle_alpha 90.000000
_cell_angle_beta 62.528330
_cell_angle_gamma 90.000000
_cell_volume 2126.108986
_symmetry_space_group_name_H-M "C 2/C"
_symmetry_group_IT_number 15
_symmetry_cell_setting 'monoclinic'
loop_
_space_group_symop_operation_xyz
x,y,z
-x,y,1/2-z
-x,-y,-z
x,-y,1/2+z
1/2+x,1/2+y,z
1/2-x,1/2+y,1/2-z
1/2-x,1/2-y,-z
1/2+x,1/2-y,1/2+z
loop_
_atom_site_type_symbol
_atom_site_label
_atom_site_fract_x
_atom_site_fract_y
_atom_site_fract_z
Si Si1 0.661467 0.411062 0.141415
Si Si2 0.063373 0.459670 0.932379
Si Si3 0.192187 0.213806 0.745480
Si Si4 0.500000 0.004833 0.750000
Si Si5 0.615318 0.000410 0.621948
Si Si6 0.893742 0.055123 0.562004
Si Si7 0.587697 0.424481 0.835371
O O1 0.797442 0.466991 0.095500
O O2 0.662003 0.406645 0.202790
O O3 0.628582 0.211856 0.129894
O O4 0.555650 0.544124 0.145293
O O5 0.069934 0.247921 0.925528
O O6 0.985187 0.531218 0.900815
O O7 0.000000 0.500000 0.000000
O O8 0.102532 0.381654 0.756758
O O9 0.333857 0.275607 0.710565
O O10 0.155176 0.105561 0.802540
O O11 0.575801 0.083011 0.685482
O O12 0.751190 0.061959 0.574131
O O13 0.892542 0.915330 0.608640
O O14 0.000000 0.000000 0.500000
#
# Coordination Sequence:
#
# PCOD9261282 Si02
#       7
#     8   8   8   4   8   8   8
#     4  11  24  46  72 106 140 186 241 300 368 430
#     4  12  29  46  73 105 142 195 251 299 358 433
#     4  11  23  42  74 105 144 186 235 297 370 430
#     4  10  18  44  68 102 138 180 228 290 370 424
#     4  11  24  48  75 100 149 192 237 307 366 437
#     4  12  27  47  73 105 145 199 246 295 369 432
#     4  12  24  46  76 105 147 190 237 303 363 441
#
# _framework density 24.457823999999999
#
# number of rings (size 3 to 8) (size 9 to 14) (size 15 to 20)
#    0.000    0.615    7.692    0.923    6.462    3.077 
#    0.000    0.000    0.000    0.000    0.000    0.000 
#    0.000    0.000    0.000    0.000    0.000    0.000 
#
# Total GULP energy -145709.585834 kJ/mol
# GULP energy per Si atom -5604.214840 kJ/mol
# Density = 2.440216 g / cm^3
# Si number density = 24.457824 Si / 1000 Ang^3
#
#
#
# Elastic Constant Matrix: (Units=GPa)
#
#
# Indices 1 2 3 4 5 6 
#
# 1 180.0176 24.8570 68.8041 0.0000 -35.5054 0.0000
# 2 24.8570 57.7676 17.0071 0.0000 -2.6038 0.0000
# 3 68.8041 17.0071 163.1434 0.0000 -24.9530 0.0000
# 4 0.0000 0.0000 0.0000 28.8611 0.0000 -13.7463
# 5 -35.5054 -2.6038 -24.9530 0.0000 44.9621 0.0000
# 6 0.0000 0.0000 0.0000 -13.7463 0.0000 36.2751
#
#
#
# Elastic Compliance Matrix: (Units=1/GPa)
#
#
# Indices 1 2 3 4 5 6 
#
# 1 0.007678 -0.002425 -0.002272 0.000000 0.004661 0.000000
# 2 -0.002425 0.018625 -0.001144 0.000000 -0.001471 0.000000
# 3 -0.002272 -0.001144 0.007565 0.000000 0.002338 0.000000
# 4 0.000000 0.000000 0.000000 0.042280 0.000000 0.016022
# 5 0.004661 -0.001471 0.002338 0.000000 0.027134 0.000000
# 6 0.000000 0.000000 0.000000 0.016022 0.000000 0.033638
#
#
# Mechanical properties :
#
#
# Convention : Reuss Voigt Hill
#
# Bulk Modulus (GPa) = 45.07500 69.14055 57.10777
# Shear Modulus (GPa) = 32.05218 41.37036 36.71127
#
# Velocity S-wave (km/s) = 3.62402 4.11724 3.87848
# Velocity P-wave (km/s) = 5.99842 7.13673 6.59219
#
# Compressibility (1/GPa) = 0.02218525
#
# Stress axis : x y z
#
# Youngs Moduli (GPa) = 130.24816 53.69265 132.19335
#
# Poissons Ratio (x) = 0.13018 0.30038
# Poissons Ratio (y) = 0.31580 0.15123
# Poissons Ratio (z) = 0.29596 0.06142
#
# Static dielectric constant tensor:
#      x y z
#    x 1.932850 0.000000 -0.006550 
#    y 0.000000 2.040000 0.000000 
#    z -0.006550 0.000000 1.940510 
# 
# From -- ./inp_files/291457.got.cif
#   From: 2010.05.17/outbox.cif.g08.bks.cpg/sg15_146_cif.got.tgz:291457.got - 2010.06.03 18:47:42.
