data_PCOD9261094
_publ_section_title
;
Structure prediction by ZEFSAII (Michael W. Deem and Ramdas Pophale) SiO2 
 PCOD9261094
Probable space group: C 2/C
;
_chemical_formula_sum "Si O2"
_cell_formula_units_Z 36
_cell_length_a 30.407372
_cell_length_b 6.983919
_cell_length_c 15.285115
_cell_angle_alpha 90.000000
_cell_angle_beta 155.762081
_cell_angle_gamma 90.000000
_cell_volume 1332.564039
_symmetry_space_group_name_H-M "C 2/C"
_symmetry_group_IT_number 15
_symmetry_cell_setting 'monoclinic'
loop_
_space_group_symop_operation_xyz
x,y,z
-x,y,1/2-z
-x,-y,-z
x,-y,1/2+z
1/2+x,1/2+y,z
1/2-x,1/2+y,1/2-z
1/2-x,1/2-y,-z
1/2+x,1/2-y,1/2+z
loop_
_atom_site_type_symbol
_atom_site_label
_atom_site_fract_x
_atom_site_fract_y
_atom_site_fract_z
Si Si1 0.783291 0.506747 0.005983
Si Si2 0.500000 0.500000 0.000000
Si Si3 0.423404 0.336364 0.179294
Si Si4 0.125096 0.243678 0.472432
Si Si5 0.624818 0.212234 0.169779
O O1 0.837735 0.688325 0.058245
O O2 0.810853 0.334842 0.992522
O O3 0.825757 0.544750 0.180943
O O4 0.657304 0.568652 0.770635
O O5 0.508740 0.417129 0.117499
O O6 0.501473 0.262127 0.961645
O O7 0.500000 0.232940 0.250000
O O8 0.373453 0.516778 0.039143
O O9 0.159483 0.297838 0.632908
O O10 0.000000 0.297974 0.250000
#
# Coordination Sequence:
#
# PCOD9261094 Si02
#       5
#     8   4   8   8   8
#     4  10  24  41  61  93 125 157 206 256 301 360
#     4  10  18  40  64  80 128 158 198 250 302 364
#     4  10  20  39  63  89 120 166 198 251 311 358
#     4  11  22  41  64  94 121 159 212 246 302 374
#     4  10  22  42  63  90 126 163 202 254 309 360
#
# _framework density 27.015588000000001
#
# number of rings (size 3 to 8) (size 9 to 14) (size 15 to 20)
#    0.000    1.778    4.444    0.667    3.111    0.889 
#    4.000   10.000    0.000    0.000    0.000    0.000 
#    0.000    0.000    0.000    0.000    0.000    0.000 
#
# Total GULP energy -100270.562846 kJ/mol
# GULP energy per Si atom -5570.586825 kJ/mol
# Density = 2.695410 g / cm^3
# Si number density = 27.015588 Si / 1000 Ang^3
#
#
#
# Elastic Constant Matrix: (Units=GPa)
#
#
# Indices 1 2 3 4 5 6 
#
# 1 128.9355 40.0700 7.1372 0.0000 -29.2408 0.0000
# 2 40.0700 93.4709 20.6910 0.0000 5.7114 0.0000
# 3 7.1372 20.6910 78.7183 0.0000 -31.8384 0.0000
# 4 0.0000 0.0000 0.0000 19.3881 0.0000 11.1810
# 5 -29.2408 5.7114 -31.8384 0.0000 46.6887 0.0000
# 6 0.0000 0.0000 0.0000 11.1810 0.0000 23.4577
#
#
#
# Elastic Compliance Matrix: (Units=1/GPa)
#
#
# Indices 1 2 3 4 5 6 
#
# 1 0.012767 -0.007640 0.006162 0.000000 0.013133 0.000000
# 2 -0.007640 0.016742 -0.008936 0.000000 -0.012926 0.000000
# 3 0.006162 -0.008936 0.022780 0.000000 0.020487 0.000000
# 4 0.000000 0.000000 0.000000 0.071130 0.000000 -0.033904
# 5 0.013133 -0.012926 0.020487 0.000000 0.045195 0.000000
# 6 0.000000 0.000000 0.000000 -0.033904 0.000000 0.058790
#
#
# Mechanical properties :
#
#
# Convention : Reuss Voigt Hill
#
# Bulk Modulus (GPa) = 31.78508 48.54680 40.16594
# Shear Modulus (GPa) = 19.32610 33.45535 26.39072
#
# Velocity S-wave (km/s) = 2.67754 3.52287 3.12888
# Velocity P-wave (km/s) = 4.62060 5.87847 5.28708
#
# Compressibility (1/GPa) = 0.03146130
#
# Stress axis : x y z
#
# Youngs Moduli (GPa) = 78.32518 59.73161 43.89887
#
# Poissons Ratio (x) = 0.45633 -0.27051
# Poissons Ratio (y) = 0.59838 0.39228
# Poissons Ratio (z) = -0.48266 0.53376
#
# Static dielectric constant tensor:
#      x y z
#    x 0.907180 0.000000 -2.372830 
#    y 0.000000 2.374050 0.000000 
#    z -2.372830 0.000000 -2.417830 
# 
# From -- ./inp_files/150222.got.cif
#   From: 2010.05.17/outbox.cif.g08.bks.cpg/sg15_76_cif.got.tgz:150222.got - 2010.06.03 18:47:42.
