data_PCOD9261986
_publ_section_title
;
Structure prediction by ZEFSAII (Michael W. Deem and Ramdas Pophale) SiO2 
 PCOD9261986
Probable space group: C 2/C
;
_chemical_formula_sum "Si O2"
_cell_formula_units_Z 60
_cell_length_a 6.544043
_cell_length_b 22.525284
_cell_length_c 23.740146
_cell_angle_alpha 90.000000
_cell_angle_beta 87.567270
_cell_angle_gamma 90.000000
_cell_volume 3496.296206
_symmetry_space_group_name_H-M "C 2/C"
_symmetry_group_IT_number 15
_symmetry_cell_setting 'monoclinic'
loop_
_space_group_symop_operation_xyz
x,y,z
-x,y,1/2-z
-x,-y,-z
x,-y,1/2+z
1/2+x,1/2+y,z
1/2-x,1/2+y,1/2-z
1/2-x,1/2-y,-z
1/2+x,1/2-y,1/2+z
loop_
_atom_site_type_symbol
_atom_site_label
_atom_site_fract_x
_atom_site_fract_y
_atom_site_fract_z
Si Si1 0.878070 0.991199 0.694761
Si Si2 0.263913 0.389755 0.615952
Si Si3 0.956130 0.472828 0.560628
Si Si4 0.148736 0.134376 0.041090
Si Si5 0.000000 0.439403 0.250000
Si Si6 0.158226 0.163895 0.547388
Si Si7 0.747350 0.569289 0.642666
Si Si8 0.463254 0.799023 0.943100
O O1 0.668026 0.023278 0.713668
O O2 0.000000 0.979689 0.750000
O O3 0.031537 0.035072 0.658207
O O4 0.822528 0.927750 0.669080
O O5 0.469487 0.362798 0.588460
O O6 0.100238 0.336774 0.611618
O O7 0.161833 0.440553 0.578288
O O8 0.781470 0.423550 0.553100
O O9 0.881994 0.520751 0.607012
O O10 0.000000 0.500000 0.500000
O O11 0.301601 0.189401 0.045317
O O12 0.033244 0.133916 0.982823
O O13 0.861036 0.412071 0.200114
O O14 0.218671 0.124089 0.599960
O O15 0.335628 0.173017 0.497702
O O16 0.094438 0.230868 0.563301
#
# Coordination Sequence:
#
# PCOD9261986 Si02
#       8
#     8   8   8   8   4   8   8   8
#     4  10  21  35  56  82 104 142 188 230 285 334
#     4  10  19  34  53  76 111 139 180 229 264 329
#     4  11  21  30  50  84 117 144 171 218 284 336
#     4  10  19  32  51  77 112 146 176 219 269 327
#     4  10  22  40  56  80 112 148 186 230 288 342
#     4  10  21  35  54  80 116 149 187 224 266 340
#     4  11  21  35  56  83 112 149 185 230 283 338
#     4   9  20  36  53  81 112 153 188 218 273 329
#
# _framework density 17.161019
#
# number of rings (size 3 to 8) (size 9 to 14) (size 15 to 20)
#    0.000    1.867    2.667    2.800    1.867    2.133 
#    0.000    0.000    1.467    0.000    5.200    0.000 
#    0.000    0.000    0.000    0.000    0.000    0.000 
#
# Total GULP energy -167021.403564 kJ/mol
# GULP energy per Si atom -5567.380119 kJ/mol
# Density = 1.712196 g / cm^3
# Si number density = 17.161019 Si / 1000 Ang^3
#
#
#
# Elastic Constant Matrix: (Units=GPa)
#
#
# Indices 1 2 3 4 5 6 
#
# 1 92.9312 21.8558 28.4460 0.0000 4.6779 0.0000
# 2 21.8558 77.4835 51.1589 0.0000 10.5608 0.0000
# 3 28.4460 51.1589 76.3843 0.0000 12.8048 0.0000
# 4 0.0000 0.0000 0.0000 20.6973 0.0000 0.7000
# 5 4.6779 10.5608 12.8048 0.0000 26.8386 0.0000
# 6 0.0000 0.0000 0.0000 0.7000 0.0000 20.2184
#
#
#
# Elastic Compliance Matrix: (Units=1/GPa)
#
#
# Indices 1 2 3 4 5 6 
#
# 1 0.012172 -0.000795 -0.004019 0.000000 0.000109 0.000000
# 2 -0.000795 0.023275 -0.014979 0.000000 -0.001874 0.000000
# 3 -0.004019 -0.014979 0.025559 0.000000 -0.005600 0.000000
# 4 0.000000 0.000000 0.000000 0.048372 0.000000 -0.001675
# 5 0.000109 -0.001874 -0.005600 0.000000 0.040650 0.000000
# 6 0.000000 0.000000 0.000000 -0.001675 0.000000 0.049518
#
#
# Mechanical properties :
#
#
# Convention : Reuss Voigt Hill
#
# Bulk Modulus (GPa) = 46.68098 49.96895 48.32497
# Shear Modulus (GPa) = 20.30274 23.24008 21.77141
#
# Velocity S-wave (km/s) = 3.44331 3.68399 3.56568
# Velocity P-wave (km/s) = 6.56272 6.87580 6.72108
#
# Compressibility (1/GPa) = 0.02142200
#
# Stress axis : x y z
#
# Youngs Moduli (GPa) = 82.15389 42.96403 39.12482
#
# Poissons Ratio (x) = 0.03414 0.15724
# Poissons Ratio (y) = 0.06529 0.58604
# Poissons Ratio (z) = 0.33017 0.64355
#
# Static dielectric constant tensor:
#      x y z
#    x 1.640840 0.000000 0.023860 
#    y 0.000000 1.597720 0.000000 
#    z 0.023860 0.000000 1.600970 
# 
# From -- ./inp_files/228130.got.cif
#   From: 2010.05.17/outbox.cif.g08.bks.cpg/sg15_115_cif.got.tgz:228130.got - 2010.06.03 18:47:42.
