data_PCOD9261816
_publ_section_title
;
Structure prediction by ZEFSAII (Michael W. Deem and Ramdas Pophale) SiO2 
 PCOD9261816
Probable space group: C 2/C
;
_chemical_formula_sum "Si O2"
_cell_formula_units_Z 44
_cell_length_a 5.488146
_cell_length_b 14.882510
_cell_length_c 20.548203
_cell_angle_alpha 90.000000
_cell_angle_beta 101.147941
_cell_angle_gamma 90.000000
_cell_volume 1646.655646
_symmetry_space_group_name_H-M "C 2/C"
_symmetry_group_IT_number 15
_symmetry_cell_setting 'monoclinic'
loop_
_space_group_symop_operation_xyz
x,y,z
-x,y,1/2-z
-x,-y,-z
x,-y,1/2+z
1/2+x,1/2+y,z
1/2-x,1/2+y,1/2-z
1/2-x,1/2-y,-z
1/2+x,1/2-y,1/2+z
loop_
_atom_site_type_symbol
_atom_site_label
_atom_site_fract_x
_atom_site_fract_y
_atom_site_fract_z
Si Si1 0.721768 0.414046 0.491542
Si Si2 0.261509 0.125359 0.484344
Si Si3 0.000000 0.559152 0.250000
Si Si4 0.706053 0.395007 0.187744
Si Si5 0.480618 0.157755 0.123138
Si Si6 0.298199 0.172254 0.835716
O O1 0.714064 0.517864 0.470919
O O2 0.474730 0.354741 0.483641
O O3 0.817867 0.412624 0.572371
O O4 0.961028 0.366986 0.471990
O O5 0.297506 0.174952 0.417259
O O6 0.216217 0.493574 0.285630
O O7 0.912407 0.616607 0.306108
O O8 0.422007 0.394128 0.149951
O O9 0.742154 0.332717 0.254100
O O10 0.918902 0.360949 0.150288
O O11 0.295552 0.235903 0.136776
#
# Coordination Sequence:
#
# PCOD9261816 Si02
#       6
#     8   8   4   8   8   8
#     4   8  16  31  47  73 105 126 154 209 267 293
#     4   8  16  31  47  73 105 126 154 209 267 293
#     4  10  20  36  48  76 112 130 174 196 264 294
#     4   9  20  38  41  64 101 157 148 200 239 319
#     4  10  19  31  54  87  92 134 169 229 223 304
#     4   9  18  33  52  61 100 126 182 187 247 274
#
# _framework density 26.720824
#
# number of rings (size 3 to 8) (size 9 to 14) (size 15 to 20)
#    1.091    2.182    0.000    1.091    2.545    0.000 
#   13.091    0.000    0.000    0.000    0.000   25.455 
#    0.000    0.000    0.000    0.000    0.000    0.000 
#
# Total GULP energy -122690.435831 kJ/mol
# GULP energy per Si atom -5576.837992 kJ/mol
# Density = 2.666001 g / cm^3
# Si number density = 26.720824 Si / 1000 Ang^3
#
#
#
# Elastic Constant Matrix: (Units=GPa)
#
#
# Indices 1 2 3 4 5 6 
#
# 1 256.9132 19.7842 38.6352 0.0000 -39.6029 0.0000
# 2 19.7842 102.5019 33.7872 0.0000 -8.9211 0.0000
# 3 38.6352 33.7872 113.2091 0.0000 -42.6953 0.0000
# 4 0.0000 0.0000 0.0000 64.7481 0.0000 -108.7513
# 5 -39.6029 -8.9211 -42.6953 0.0000 46.6249 0.0000
# 6 0.0000 0.0000 0.0000 -108.7513 0.0000 430.8925
#
#
#
# Elastic Compliance Matrix: (Units=1/GPa)
#
#
# Indices 1 2 3 4 5 6 
#
# 1 0.004509 -0.000558 0.000049 0.000000 0.003768 0.000000
# 2 -0.000558 0.010946 -0.003766 0.000000 -0.001828 0.000000
# 3 0.000049 -0.003766 0.014793 0.000000 0.012867 0.000000
# 4 0.000000 0.000000 0.000000 0.026809 0.000000 0.006766
# 5 0.003768 -0.001828 0.012867 0.000000 0.036081 0.000000
# 6 0.000000 0.000000 0.000000 0.006766 0.000000 0.004028
#
#
# Mechanical properties :
#
#
# Convention : Reuss Voigt Hill
#
# Bulk Modulus (GPa) = 46.08899 73.00415 59.54657
# Shear Modulus (GPa) = 44.26754 133.81428 89.04091
#
# Velocity S-wave (km/s) = 4.07463 7.08430 5.77884
# Velocity P-wave (km/s) = 6.27875 9.71066 8.17678
#
# Compressibility (1/GPa) = 0.02169716
#
# Stress axis : x y z
#
# Youngs Moduli (GPa) = 221.78851 91.35872 67.59864
#
# Poissons Ratio (x) = 0.05102 -0.00330
# Poissons Ratio (y) = 0.12386 0.25456
# Poissons Ratio (z) = -0.01083 0.34403
#
# Static dielectric constant tensor:
#      x y z
#    x 2.213240 0.000000 0.035230 
#    y 0.000000 2.024060 0.000000 
#    z 0.035230 0.000000 2.165670 
# 
# From -- ./inp_files/285455.got.cif
#   From: 2010.05.17/outbox.cif.g08.bks.cpg/sg15_143_cif.got.tgz:285455.got - 2010.06.03 18:47:42.
