data_PCOD9261929
_publ_section_title
;
Structure prediction by ZEFSAII (Michael W. Deem and Ramdas Pophale) SiO2 
 PCOD9261929
Probable space group: C 2/C
;
_chemical_formula_sum "Si O2"
_cell_formula_units_Z 64
_cell_length_a 20.859159
_cell_length_b 8.536029
_cell_length_c 21.079375
_cell_angle_alpha 90.000000
_cell_angle_beta 96.212795
_cell_angle_gamma 90.000000
_cell_volume 3731.231520
_symmetry_space_group_name_H-M "C 2/C"
_symmetry_group_IT_number 15
_symmetry_cell_setting 'monoclinic'
loop_
_space_group_symop_operation_xyz
x,y,z
-x,y,1/2-z
-x,-y,-z
x,-y,1/2+z
1/2+x,1/2+y,z
1/2-x,1/2+y,1/2-z
1/2-x,1/2-y,-z
1/2+x,1/2-y,1/2+z
loop_
_atom_site_type_symbol
_atom_site_label
_atom_site_fract_x
_atom_site_fract_y
_atom_site_fract_z
Si Si1 0.829379 0.803641 0.317631
Si Si2 0.759292 0.903952 0.604933
Si Si3 0.863377 0.598683 0.949139
Si Si4 0.583746 0.280070 0.428257
Si Si5 0.819446 0.217033 0.667881
Si Si6 0.304557 0.600200 0.386876
Si Si7 0.857504 0.091717 0.009577
Si Si8 0.935445 0.690625 0.423187
O O1 0.771436 0.722136 0.351121
O O2 0.824488 0.765888 0.243484
O O3 0.894514 0.739389 0.356850
O O4 0.825490 0.988282 0.331820
O O5 0.809987 0.842701 0.558454
O O6 0.699368 0.987700 0.562508
O O7 0.793392 0.043560 0.647516
O O8 0.848875 0.746896 0.902397
O O9 0.923093 0.492626 0.933841
O O10 0.876739 0.668167 0.019577
O O11 0.613721 0.262178 0.361949
O O12 0.598797 0.456091 0.454197
O O13 0.509119 0.238636 0.424963
O O14 0.766816 0.336099 0.633197
O O15 0.314450 0.496157 0.451303
O O16 0.901410 0.216263 0.977690
#
# Coordination Sequence:
#
# PCOD9261929 Si02
#       8
#     8   8   8   8   8   8   8   8
#     4  10  20  32  49  72  98 131 163 198 241 289
#     4   9  18  32  50  73  97 121 158 205 250 291
#     4   9  18  32  50  73  98 123 159 205 250 287
#     4  10  19  32  50  72  99 131 162 197 240 291
#     4  10  19  32  50  72  98 129 162 198 240 291
#     4   9  18  32  51  73  97 123 159 205 251 289
#     4   9  18  32  51  74  98 123 157 204 253 291
#     4  10  20  32  49  73 100 131 163 198 239 290
#
# _framework density 17.152515000000001
#
# number of rings (size 3 to 8) (size 9 to 14) (size 15 to 20)
#    0.000    2.500    0.000    2.250    0.000    9.000 
#    0.000    0.000    0.000    0.000    0.000   14.000 
#    0.000    0.000    0.000    0.000    0.000    0.000 
#
# Total GULP energy -178467.461745 kJ/mol
# GULP energy per Si atom -5577.108180 kJ/mol
# Density = 1.711347 g / cm^3
# Si number density = 17.152515 Si / 1000 Ang^3
#
#
#
# Elastic Constant Matrix: (Units=GPa)
#
#
# Indices 1 2 3 4 5 6 
#
# 1 96.3370 35.8002 67.9605 0.0000 -17.2065 0.0000
# 2 35.8002 68.7624 36.7519 0.0000 -16.6793 0.0000
# 3 67.9605 36.7519 103.4320 0.0000 -17.3499 0.0000
# 4 0.0000 0.0000 0.0000 12.2810 0.0000 -1.7356
# 5 -17.2065 -16.6793 -17.3499 0.0000 13.3032 0.0000
# 6 0.0000 0.0000 0.0000 -1.7356 0.0000 18.3300
#
#
#
# Elastic Compliance Matrix: (Units=1/GPa)
#
#
# Indices 1 2 3 4 5 6 
#
# 1 0.020965 -0.002688 -0.011311 0.000000 0.008994 0.000000
# 2 -0.002688 0.022534 -0.002669 0.000000 0.021296 0.000000
# 3 -0.011311 -0.002669 0.019243 0.000000 0.007120 0.000000
# 4 0.000000 0.000000 0.000000 0.082531 0.000000 0.007815
# 5 0.008994 0.021296 0.007120 0.000000 0.122790 0.000000
# 6 0.000000 0.000000 0.000000 0.007815 0.000000 0.055295
#
#
# Mechanical properties :
#
#
# Convention : Reuss Voigt Hill
#
# Bulk Modulus (GPa) = 34.00605 61.06184 47.53395
# Shear Modulus (GPa) = 13.64270 17.31744 15.48007
#
# Velocity S-wave (km/s) = 2.82330 3.18089 3.00742
# Velocity P-wave (km/s) = 5.52239 7.01195 6.31127
#
# Compressibility (1/GPa) = 0.02940653
#
# Stress axis : x y z
#
# Youngs Moduli (GPa) = 47.69825 44.37697 51.96684
#
# Poissons Ratio (x) = 0.11928 0.58782
# Poissons Ratio (y) = 0.12820 0.13868
# Poissons Ratio (z) = 0.53954 0.11843
#
# Static dielectric constant tensor:
#      x y z
#    x 1.566860 0.000000 0.007550 
#    y 0.000000 1.607220 0.000000 
#    z 0.007550 0.000000 1.569460 
# 
# From -- ./inp_files/247478.got.cif
#   From: 2010.05.17/outbox.cif.g08.bks.cpg/sg15_124_cif.got.tgz:247478.got - 2010.06.03 18:47:42.
