data_PCOD9261685
_publ_section_title
;
Structure prediction by ZEFSAII (Michael W. Deem and Ramdas Pophale) SiO2 
 PCOD9261685
Probable space group: C 2/C
;
_chemical_formula_sum "Si O2"
_cell_formula_units_Z 48
_cell_length_a 22.833753
_cell_length_b 15.890000
_cell_length_c 5.676626
_cell_angle_alpha 90.000000
_cell_angle_beta 118.323035
_cell_angle_gamma 90.000000
_cell_volume 1813.074331
_symmetry_space_group_name_H-M "C 2/C"
_symmetry_group_IT_number 15
_symmetry_cell_setting 'monoclinic'
loop_
_space_group_symop_operation_xyz
x,y,z
-x,y,1/2-z
-x,-y,-z
x,-y,1/2+z
1/2+x,1/2+y,z
1/2-x,1/2+y,1/2-z
1/2-x,1/2-y,-z
1/2+x,1/2-y,1/2+z
loop_
_atom_site_type_symbol
_atom_site_label
_atom_site_fract_x
_atom_site_fract_y
_atom_site_fract_z
Si Si1 0.397254 0.634757 0.664692
Si Si2 0.655587 0.176998 0.405838
Si Si3 0.575793 0.030287 0.150709
Si Si4 0.309819 0.190683 0.531547
Si Si5 0.099880 0.156095 0.331334
Si Si6 0.289265 0.485139 0.438207
O O1 0.356006 0.723123 0.590864
O O2 0.432442 0.634526 0.479488
O O3 0.347911 0.555648 0.562250
O O4 0.433523 0.635131 0.984735
O O5 0.587093 0.128338 0.224627
O O6 0.680232 0.140833 0.704759
O O7 0.700483 0.161387 0.258324
O O8 0.603252 0.985050 0.439331
O O9 0.500000 0.000000 0.000000
O O10 0.250000 0.250000 0.500000
O O11 0.376955 0.246943 0.632721
O O12 0.169324 0.102271 0.476706
O O13 0.254289 0.502440 0.122601
#
# Coordination Sequence:
#
# PCOD9261685 Si02
#       6
#     8   8   8   8   8   8
#     4   8  14  23  39  62  84 117 156 200 261 312
#     4  10  19  33  53  74 103 139 182 237 290 356
#     4  10  21  38  61  85 108 142 189 254 329 385
#     4  10  19  31  49  75 106 148 188 223 276 344
#     4   8  14  23  37  57  86 125 166 209 250 297
#     4   8  12  20  34  53  80 113 149 193 239 284
#
# _framework density 26.474368999999999
#
# number of rings (size 3 to 8) (size 9 to 14) (size 15 to 20)
#    0.000    3.000    0.000    1.500    0.000    0.000 
#    0.000    0.000    0.000   30.000    0.000    0.000 
#    0.000    0.000    0.000  450.000    0.000    1.333 
#
# Total GULP energy -133892.933238 kJ/mol
# GULP energy per Si atom -5578.872218 kJ/mol
# Density = 2.641411 g / cm^3
# Si number density = 26.474369 Si / 1000 Ang^3
#
#
#
# Elastic Constant Matrix: (Units=GPa)
#
#
# Indices 1 2 3 4 5 6 
#
# 1 101.1941 15.3747 59.6981 0.0000 -23.4553 0.0000
# 2 15.3747 91.5081 14.1685 0.0000 6.6191 0.0000
# 3 59.6981 14.1685 312.3485 0.0000 -79.0732 0.0000
# 4 0.0000 0.0000 0.0000 41.1535 0.0000 -15.1705
# 5 -23.4553 6.6191 -79.0732 0.0000 53.5831 0.0000
# 6 0.0000 0.0000 0.0000 -15.1705 0.0000 -13.8275
#
#
#
# Elastic Compliance Matrix: (Units=1/GPa)
#
#
# Indices 1 2 3 4 5 6 
#
# 1 0.011754 -0.002036 -0.001258 0.000000 0.003540 0.000000
# 2 -0.002036 0.011747 -0.001176 0.000000 -0.004078 0.000000
# 3 -0.001258 -0.001176 0.005416 0.000000 0.007587 0.000000
# 4 0.000000 0.000000 0.000000 0.017302 0.000000 -0.018982
# 5 0.003540 -0.004078 0.007587 0.000000 0.031913 0.000000
# 6 0.000000 0.000000 0.000000 -0.018982 0.000000 -0.051494
#
#
# Mechanical properties :
#
#
# Convention : Reuss Voigt Hill
#
# Bulk Modulus (GPa) = 50.05734 75.94812 63.00273
# Shear Modulus (GPa) = 118.37885 43.90244 81.14065
#
# Velocity S-wave (km/s) = 6.69415 4.07664 5.54214
# Velocity P-wave (km/s) = 8.87117 7.13501 8.05003
#
# Compressibility (1/GPa) = 0.01997709
#
# Stress axis : x y z
#
# Youngs Moduli (GPa) = 85.07710 85.12685 184.63577
#
# Poissons Ratio (x) = 0.17333 0.23224
# Poissons Ratio (y) = 0.17323 0.21714
# Poissons Ratio (z) = 0.10701 0.10011
#
# Static dielectric constant tensor:
#      x y z
#    x 1.990890 0.000000 -0.060050 
#    y 0.000000 2.059320 0.000000 
#    z -0.060050 0.000000 2.187080 
# 
# From -- ./inp_files/15349.got.cif
#   From: 2010.05.17/outbox.cif.g08.bks.cpg/sg15_8_cif.got.tgz:15349.got - 2010.06.03 18:47:42.
