data_PCOD9261393
_publ_section_title
;
Structure prediction by ZEFSAII (Michael W. Deem and Ramdas Pophale) SiO2 
 PCOD9261393
Probable space group: C 2/C
;
_chemical_formula_sum "Si O2"
_cell_formula_units_Z 64
_cell_length_a 12.621238
_cell_length_b 32.049655
_cell_length_c 18.286687
_cell_angle_alpha 90.000000
_cell_angle_beta 32.096516
_cell_angle_gamma 90.000000
_cell_volume 3930.417046
_symmetry_space_group_name_H-M "C 2/C"
_symmetry_group_IT_number 15
_symmetry_cell_setting 'monoclinic'
loop_
_space_group_symop_operation_xyz
x,y,z
-x,y,1/2-z
-x,-y,-z
x,-y,1/2+z
1/2+x,1/2+y,z
1/2-x,1/2+y,1/2-z
1/2-x,1/2-y,-z
1/2+x,1/2-y,1/2+z
loop_
_atom_site_type_symbol
_atom_site_label
_atom_site_fract_x
_atom_site_fract_y
_atom_site_fract_z
Si Si1 0.426554 0.699919 0.457910
Si Si2 0.528131 0.485671 0.316574
Si Si3 0.069279 0.294143 0.047367
Si Si4 0.316238 0.350401 0.800057
Si Si5 0.620432 0.935540 0.323159
Si Si6 0.153782 0.439644 0.870136
Si Si7 0.926106 0.514746 0.371795
Si Si8 0.329964 0.847928 0.286952
O O1 0.244765 0.704344 0.505913
O O2 0.455714 0.747328 0.467079
O O3 0.605580 0.681467 0.306328
O O4 0.365001 0.666510 0.555210
O O5 0.500000 0.470991 0.250000
O O6 0.665913 0.453533 0.279069
O O7 0.661464 0.527879 0.232730
O O8 0.311794 0.489612 0.479826
O O9 0.879589 0.310877 0.201666
O O10 0.140235 0.327453 0.946439
O O11 0.500000 0.358059 0.750000
O O12 0.244441 0.393767 0.808314
O O13 0.477313 0.937396 0.478663
O O14 0.652162 0.890891 0.267583
O O15 0.520772 0.968891 0.327184
O O16 0.015494 0.456940 0.885400
O O17 0.000000 0.530801 0.250000
O O18 0.500000 0.849829 0.250000
#
# Coordination Sequence:
#
# PCOD9261393 Si02
#       8
#     8   8   8   8   8   8   8   8
#     4   9  18  28  44  70 101 137 171 201 252 299
#     4  11  20  37  58  72 100 140 173 210 256 310
#     4   9  16  30  45  65 101 142 169 200 247 309
#     4  10  19  29  49  74 102 139 174 206 247 304
#     4  11  21  35  55  78 101 139 178 210 252 309
#     4  11  21  35  56  77 102 137 181 208 250 313
#     4  11  24  38  54  78 105 133 169 220 264 296
#     4  10  19  30  47  72 106 134 167 214 245 289
#
# _framework density 16.283259999999999
#
# number of rings (size 3 to 8) (size 9 to 14) (size 15 to 20)
#    0.000    1.750    3.750    2.250    0.000    7.000 
#    0.000    0.000    0.000    0.000    0.000    0.000 
#    0.000   20.000    0.000    0.000    0.000    0.000 
#
# Total GULP energy -178339.202684 kJ/mol
# GULP energy per Si atom -5573.100084 kJ/mol
# Density = 1.624620 g / cm^3
# Si number density = 16.283260 Si / 1000 Ang^3
#
#
#
# Elastic Constant Matrix: (Units=GPa)
#
#
# Indices 1 2 3 4 5 6 
#
# 1 46.9066 28.9281 40.5465 0.0000 4.7897 0.0000
# 2 28.9281 103.0486 21.3226 0.0000 4.8792 0.0000
# 3 40.5465 21.3226 85.2122 -0.0001 6.2482 0.0000
# 4 0.0000 0.0000 -0.0001 20.1458 0.0000 9.2869
# 5 4.7897 4.8792 6.2482 0.0000 27.3394 0.0000
# 6 0.0000 0.0000 0.0000 9.2869 0.0000 16.7142
#
#
#
# Elastic Compliance Matrix: (Units=1/GPa)
#
#
# Indices 1 2 3 4 5 6 
#
# 1 0.041752 -0.007963 -0.017739 0.000000 -0.001839 0.000000
# 2 -0.007963 0.011796 0.000905 0.000000 -0.000917 0.000000
# 3 -0.017739 0.000905 0.020070 0.000000 -0.001640 0.000000
# 4 0.000000 0.000000 0.000000 0.066730 0.000000 -0.037077
# 5 -0.001839 -0.000917 -0.001640 0.000000 0.037438 0.000000
# 6 0.000000 0.000000 0.000000 -0.037077 0.000000 0.080431
#
#
# Mechanical properties :
#
#
# Convention : Reuss Voigt Hill
#
# Bulk Modulus (GPa) = 41.62783 46.30689 43.96736
# Shear Modulus (GPa) = 15.83183 22.46455 19.14819
#
# Velocity S-wave (km/s) = 3.12152 3.71834 3.43292
# Velocity P-wave (km/s) = 6.21387 6.85090 6.54014
#
# Compressibility (1/GPa) = 0.02402239
#
# Stress axis : x y z
#
# Youngs Moduli (GPa) = 23.95112 84.77598 49.82513
#
# Poissons Ratio (x) = 0.67507 0.88386
# Poissons Ratio (y) = 0.19072 -0.04507
# Poissons Ratio (z) = 0.42487 -0.07669
#
# Static dielectric constant tensor:
#      x y z
#    x 1.537050 0.000000 0.015090 
#    y 0.000000 1.544900 0.000000 
#    z 0.015090 0.000000 1.557070 
# 
# From -- ./inp_files/64204.got.cif
#   From: 2010.05.17/outbox.cif.g08.bks.cpg/sg15_33_cif.got.tgz:64204.got - 2010.06.03 18:47:42.
