data_PCOD9261144
_publ_section_title
;
Structure prediction by ZEFSAII (Michael W. Deem and Ramdas Pophale) SiO2 
 PCOD9261144
Probable space group: C 2/C
;
_chemical_formula_sum "Si O2"
_cell_formula_units_Z 36
_cell_length_a 9.206800
_cell_length_b 10.475671
_cell_length_c 29.593043
_cell_angle_alpha 90.000000
_cell_angle_beta 34.122895
_cell_angle_gamma 90.000000
_cell_volume 1601.104562
_symmetry_space_group_name_H-M "C 2/C"
_symmetry_group_IT_number 15
_symmetry_cell_setting 'monoclinic'
loop_
_space_group_symop_operation_xyz
x,y,z
-x,y,1/2-z
-x,-y,-z
x,-y,1/2+z
1/2+x,1/2+y,z
1/2-x,1/2+y,1/2-z
1/2-x,1/2-y,-z
1/2+x,1/2-y,1/2+z
loop_
_atom_site_type_symbol
_atom_site_label
_atom_site_fract_x
_atom_site_fract_y
_atom_site_fract_z
Si Si1 0.000000 0.947038 0.250000
Si Si2 0.713774 0.832926 0.876002
Si Si3 0.731978 0.053639 0.659653
Si Si4 0.686459 0.991491 0.995120
Si Si5 0.550717 0.150744 0.617238
O O1 0.884053 0.046148 0.316660
O O2 0.758515 0.860019 0.297808
O O3 0.743272 0.706893 0.837683
O O4 0.818621 0.777601 0.896596
O O5 0.419243 0.880933 0.952002
O O6 0.500000 0.002264 0.750000
O O7 0.013929 0.997746 0.593241
O O8 0.658659 0.046218 0.625444
O O9 0.624963 0.881744 0.047212
O O10 0.500000 0.000000 0.000000
#
# Coordination Sequence:
#
# PCOD9261144 Si02
#       5
#     4   8   8   8   8
#     4  10  18  40  66  96 128 170 212 266 324 382
#     4   9  20  39  62  87 123 168 212 253 314 384
#     4  10  21  40  62  91 119 163 213 262 315 380
#     4  11  23  38  64  90 130 169 209 263 322 381
#     4   9  22  38  65  90 128 167 215 256 322 379
#
# _framework density 22.484476999999998
#
# number of rings (size 3 to 8) (size 9 to 14) (size 15 to 20)
#    1.333    0.889    1.111    1.333    6.222    0.889 
#    0.000    2.222    0.000    0.000    0.000    0.000 
#    0.000    0.000    0.000    0.000    0.000    0.000 
#
# Total GULP energy -100312.167051 kJ/mol
# GULP energy per Si atom -5572.898169 kJ/mol
# Density = 2.243330 g / cm^3
# Si number density = 22.484477 Si / 1000 Ang^3
#
#
#
# Elastic Constant Matrix: (Units=GPa)
#
#
# Indices 1 2 3 4 5 6 
#
# 1 119.3675 6.7032 51.8026 0.0007 -12.4727 -0.0017
# 2 6.7032 39.3212 11.6934 -0.0006 -4.5430 0.0003
# 3 51.8026 11.6934 139.9558 -0.0007 -22.7360 0.0017
# 4 0.0007 -0.0006 -0.0007 6.8140 0.0005 -6.3276
# 5 -12.4727 -4.5430 -22.7360 0.0005 47.6713 0.0011
# 6 -0.0017 0.0003 0.0017 -6.3276 0.0011 28.0923
#
#
#
# Elastic Compliance Matrix: (Units=1/GPa)
#
#
# Indices 1 2 3 4 5 6 
#
# 1 0.010030 -0.000560 -0.003521 -0.000001 0.000892 0.000001
# 2 -0.000560 0.026219 -0.001736 0.000002 0.001524 0.000000
# 3 -0.003521 -0.001736 0.009124 0.000000 0.003265 -0.000001
# 4 -0.000001 0.000002 0.000000 0.185570 -0.000003 0.041798
# 5 0.000892 0.001524 0.003265 -0.000003 0.022913 -0.000002
# 6 0.000001 0.000000 -0.000001 0.041798 -0.000002 0.045012
#
#
# Mechanical properties :
#
#
# Convention : Reuss Voigt Hill
#
# Bulk Modulus (GPa) = 29.63826 48.78255 39.21041
# Shear Modulus (GPa) = 15.54018 31.74522 23.64270
#
# Velocity S-wave (km/s) = 2.63183 3.76157 3.24622
# Velocity P-wave (km/s) = 4.73768 6.37252 5.61492
#
# Compressibility (1/GPa) = 0.03374017
#
# Stress axis : x y z
#
# Youngs Moduli (GPa) = 99.70020 38.13980 109.60458
#
# Poissons Ratio (x) = 0.02135 0.38590
# Poissons Ratio (y) = 0.05581 0.19025
# Poissons Ratio (z) = 0.35103 0.06620
#
# Static dielectric constant tensor:
#      x y z
#    x 1.835200 0.000000 0.060050 
#    y 0.000000 1.880340 0.000000 
#    z 0.060050 0.000000 1.874520 
# 
# From -- ./inp_files/230587.got.cif
#   From: 2010.05.17/outbox.cif.g08.bks.cpg/sg15_116_cif.got.tgz:230587.got - 2010.06.03 18:47:42.
