data_PCOD9261162
_publ_section_title
;
Structure prediction by ZEFSAII (Michael W. Deem and Ramdas Pophale) SiO2 
 PCOD9261162
Probable space group: C 2/C
;
_chemical_formula_sum "Si O2"
_cell_formula_units_Z 60
_cell_length_a 11.369407
_cell_length_b 14.702773
_cell_length_c 18.544352
_cell_angle_alpha 90.000000
_cell_angle_beta 102.033139
_cell_angle_gamma 90.000000
_cell_volume 3031.793755
_symmetry_space_group_name_H-M "C 2/C"
_symmetry_group_IT_number 15
_symmetry_cell_setting 'monoclinic'
loop_
_space_group_symop_operation_xyz
x,y,z
-x,y,1/2-z
-x,-y,-z
x,-y,1/2+z
1/2+x,1/2+y,z
1/2-x,1/2+y,1/2-z
1/2-x,1/2-y,-z
1/2+x,1/2-y,1/2+z
loop_
_atom_site_type_symbol
_atom_site_label
_atom_site_fract_x
_atom_site_fract_y
_atom_site_fract_z
Si Si1 0.000000 0.289888 0.250000
Si Si2 0.785954 0.818788 0.797563
Si Si3 0.147519 0.973486 0.349933
Si Si4 0.797738 0.340394 0.866572
Si Si5 0.861978 0.023819 0.818925
Si Si6 0.530720 0.894404 0.496612
Si Si7 0.778512 0.693795 0.932020
Si Si8 0.190276 0.650269 0.885405
O O1 0.091231 0.225168 0.218312
O O2 0.080038 0.349485 0.314181
O O3 0.696504 0.818990 0.717843
O O4 0.751328 0.758299 0.860693
O O5 0.810107 0.922594 0.821663
O O6 0.164138 0.946775 0.267442
O O7 0.203711 0.898281 0.409331
O O8 0.005536 0.981039 0.345252
O O9 0.215298 0.069940 0.365687
O O10 0.923832 0.357920 0.920804
O O11 0.733874 0.254155 0.894709
O O12 0.797176 0.090763 0.865890
O O13 0.417394 0.837768 0.453295
O O14 0.639939 0.883477 0.454546
O O15 0.500000 0.000000 0.500000
O O16 0.750000 0.750000 0.000000
#
# Coordination Sequence:
#
# PCOD9261162 Si02
#       8
#     4   8   8   8   8   8   8   8
#     4  10  18  40  68  94 124 174 222 278 326 396
#     4  10  21  42  68  97 127 174 222 271 332 402
#     4  10  21  44  64  96 134 175 214 278 333 388
#     4  10  22  43  70  95 129 175 225 275 330 397
#     4  10  22  38  70  99 129 168 231 274 321 393
#     4  12  26  45  66  96 140 177 219 281 344 401
#     4  12  27  45  67  95 141 180 215 277 352 404
#     4  11  23  38  68  98 127 172 229 272 331 396
#
# _framework density 19.790264000000001
#
# number of rings (size 3 to 8) (size 9 to 14) (size 15 to 20)
#    0.000    1.333    2.667    4.400    3.733    0.000 
#    0.000    1.333    0.000    0.000    0.000    0.000 
#    0.000    0.000    0.000    0.000    0.000    0.000 
#
# Total GULP energy -167695.084347 kJ/mol
# GULP energy per Si atom -5589.836145 kJ/mol
# Density = 1.974522 g / cm^3
# Si number density = 19.790264 Si / 1000 Ang^3
#
#
#
# Elastic Constant Matrix: (Units=GPa)
#
#
# Indices 1 2 3 4 5 6 
#
# 1 27.4380 25.1081 24.9187 0.0000 8.9483 0.0000
# 2 25.1081 105.8201 71.7206 0.0000 -14.9935 0.0000
# 3 24.9187 71.7206 91.3708 0.0000 10.3108 0.0000
# 4 0.0000 0.0000 0.0000 14.9691 0.0000 4.3851
# 5 8.9483 -14.9935 10.3108 0.0000 37.0457 0.0000
# 6 0.0000 0.0000 0.0000 4.3851 0.0000 22.7989
#
#
#
# Elastic Compliance Matrix: (Units=1/GPa)
#
#
# Indices 1 2 3 4 5 6 
#
# 1 0.058853 -0.016121 -0.001090 0.000000 -0.020437 0.000000
# 2 -0.016121 0.033260 -0.024436 0.000000 0.024156 0.000000
# 3 -0.001090 -0.024436 0.032531 0.000000 -0.018681 0.000000
# 4 0.000000 0.000000 0.000000 0.070793 0.000000 -0.013616
# 5 -0.020437 0.024156 -0.018681 0.000000 0.046906 0.000000
# 6 0.000000 0.000000 0.000000 -0.013616 0.000000 0.046481
#
#
# Mechanical properties :
#
#
# Convention : Reuss Voigt Hill
#
# Bulk Modulus (GPa) = 24.18462 52.01374 38.09918
# Shear Modulus (GPa) = 12.95667 21.82151 17.38909
#
# Velocity S-wave (km/s) = 2.56148 3.32420 2.96745
# Velocity P-wave (km/s) = 4.58206 6.40885 5.57084
#
# Compressibility (1/GPa) = 0.04134859
#
# Stress axis : x y z
#
# Youngs Moduli (GPa) = 16.99150 30.06637 30.73992
#
# Poissons Ratio (x) = 0.48469 0.03352
# Poissons Ratio (y) = 0.27392 0.75117
# Poissons Ratio (z) = 0.01853 0.73471
#
# Static dielectric constant tensor:
#      x y z
#    x 1.670650 0.000000 0.019270 
#    y 0.000000 1.674830 0.000000 
#    z 0.019270 0.000000 1.721000 
# 
# From -- ./inp_files/197907.got.cif
#   From: 2010.05.17/outbox.cif.g08.bks.cpg/sg15_99_cif.got.tgz:197907.got - 2010.06.03 18:47:42.
