data_PCOD9261477
_publ_section_title
;
Structure prediction by ZEFSAII (Michael W. Deem and Ramdas Pophale) SiO2 
 PCOD9261477
Probable space group: C 2/C
;
_chemical_formula_sum "Si O2"
_cell_formula_units_Z 52
_cell_length_a 21.092422
_cell_length_b 26.403468
_cell_length_c 17.272922
_cell_angle_alpha 90.000000
_cell_angle_beta 160.532593
_cell_angle_gamma 90.000000
_cell_volume 3205.901782
_symmetry_space_group_name_H-M "C 2/C"
_symmetry_group_IT_number 15
_symmetry_cell_setting 'monoclinic'
loop_
_space_group_symop_operation_xyz
x,y,z
-x,y,1/2-z
-x,-y,-z
x,-y,1/2+z
1/2+x,1/2+y,z
1/2-x,1/2+y,1/2-z
1/2-x,1/2-y,-z
1/2+x,1/2-y,1/2+z
loop_
_atom_site_type_symbol
_atom_site_label
_atom_site_fract_x
_atom_site_fract_y
_atom_site_fract_z
Si Si1 0.000000 0.949030 0.250000
Si Si2 0.287773 0.296946 0.935211
Si Si3 0.226145 0.602639 0.307094
Si Si4 0.179222 0.412008 0.087994
Si Si5 0.268252 0.685156 0.585515
Si Si6 0.709925 0.011087 0.016690
Si Si7 0.059002 0.057385 0.090130
O O1 0.113843 0.914903 0.444451
O O2 0.839663 0.985754 0.100299
O O3 0.200737 0.336465 0.775040
O O4 0.276229 0.236534 0.919033
O O5 0.508450 0.310531 0.176476
O O6 0.194575 0.311321 0.911861
O O7 0.300227 0.579051 0.313098
O O8 0.019753 0.585578 0.097092
O O9 0.207493 0.364742 0.061533
O O10 0.182155 0.463113 0.041450
O O11 0.361629 0.412174 0.354910
O O12 0.832467 0.052753 0.203863
O O13 0.500000 0.028155 0.750000
O O14 0.000000 0.000000 0.000000
#
# Coordination Sequence:
#
# PCOD9261477 Si02
#       7
#     4   8   8   8   8   8   8
#     4  12  20  32  52  74 100 136 184 214 252 320
#     4  10  19  30  48  72 108 145 179 219 247 299
#     4  12  21  33  54  74 105 145 182 213 262 309
#     4  11  21  33  53  72 103 142 175 217 260 310
#     4  10  19  32  46  75 108 141 184 216 249 299
#     4  11  22  36  53  74  99 136 176 221 266 311
#     4  10  22  38  51  74 105 135 180 224 266 310
#
# _framework density 16.220085000000001
#
# number of rings (size 3 to 8) (size 9 to 14) (size 15 to 20)
#    0.000    1.231    6.154    2.769    0.000    4.923 
#    0.000    0.000    0.000    0.000    0.000    0.000 
#    0.000    1.231    0.000    0.154    0.000    0.000 
#
# Total GULP energy -144840.047160 kJ/mol
# GULP energy per Si atom -5570.771045 kJ/mol
# Density = 1.618317 g / cm^3
# Si number density = 16.220085 Si / 1000 Ang^3
#
#
#
# Elastic Constant Matrix: (Units=GPa)
#
#
# Indices 1 2 3 4 5 6 
#
# 1 34.5877 20.6849 23.4853 -0.0002 8.3429 0.0001
# 2 20.6849 58.3971 11.0151 -0.0004 -0.5945 0.0000
# 3 23.4853 11.0151 96.7128 -0.0007 8.0496 0.0001
# 4 -0.0002 -0.0004 -0.0007 15.0373 -0.0002 0.5993
# 5 8.3429 -0.5945 8.0496 -0.0002 29.4118 0.0000
# 6 0.0001 0.0000 0.0001 0.5993 0.0000 27.5544
#
#
#
# Elastic Compliance Matrix: (Units=1/GPa)
#
#
# Indices 1 2 3 4 5 6 
#
# 1 0.046368 -0.014907 -0.008639 0.000000 -0.011090 0.000000
# 2 -0.014907 0.022317 0.000705 0.000001 0.004487 0.000000
# 3 -0.008639 0.000705 0.012436 0.000000 -0.000939 0.000000
# 4 0.000000 0.000001 0.000000 0.066559 0.000000 -0.001448
# 5 -0.011090 0.004487 -0.000939 0.000000 0.037493 0.000000
# 6 0.000000 0.000000 0.000000 -0.001448 0.000000 0.036323
#
#
# Mechanical properties :
#
#
# Convention : Reuss Voigt Hill
#
# Bulk Modulus (GPa) = 28.21847 33.34091 30.77969
# Shear Modulus (GPa) = 17.92164 23.36818 20.64491
#
# Velocity S-wave (km/s) = 3.32762 3.79977 3.57150
# Velocity P-wave (km/s) = 5.67442 6.31276 6.00208
#
# Compressibility (1/GPa) = 0.03543779
#
# Stress axis : x y z
#
# Youngs Moduli (GPa) = 21.56652 44.80842 80.41436
#
# Poissons Ratio (x) = 0.66798 0.69469
# Poissons Ratio (y) = 0.32150 -0.05668
# Poissons Ratio (z) = 0.18631 -0.03158
#
# Static dielectric constant tensor:
#      x y z
#    x 1.593690 0.000000 0.058440 
#    y 0.000000 1.569830 0.000000 
#    z 0.058440 0.000000 1.732210 
# 
# From -- ./inp_files/216823.got.cif
#   From: 2010.05.17/outbox.cif.g08.bks.cpg/sg15_109_cif.got.tgz:216823.got - 2010.06.03 18:47:42.
