data_PCOD9261709
_publ_section_title
;
Structure prediction by ZEFSAII (Michael W. Deem and Ramdas Pophale) SiO2 
 PCOD9261709
Probable space group: C 2/C
;
_chemical_formula_sum "Si O2"
_cell_formula_units_Z 40
_cell_length_a 12.786170
_cell_length_b 8.570463
_cell_length_c 13.139418
_cell_angle_alpha 90.000000
_cell_angle_beta 83.631802
_cell_angle_gamma 90.000000
_cell_volume 1430.977586
_symmetry_space_group_name_H-M "C 2/C"
_symmetry_group_IT_number 15
_symmetry_cell_setting 'monoclinic'
loop_
_space_group_symop_operation_xyz
x,y,z
-x,y,1/2-z
-x,-y,-z
x,-y,1/2+z
1/2+x,1/2+y,z
1/2-x,1/2+y,1/2-z
1/2-x,1/2-y,-z
1/2+x,1/2-y,1/2+z
loop_
_atom_site_type_symbol
_atom_site_label
_atom_site_fract_x
_atom_site_fract_y
_atom_site_fract_z
Si Si1 0.406839 0.837558 0.341794
Si Si2 0.448797 0.734182 0.854945
Si Si3 0.238454 0.439519 0.723535
Si Si4 0.928156 0.828419 0.576104
Si Si5 0.629953 0.040030 0.427844
O O1 0.500000 0.889776 0.250000
O O2 0.305149 0.884285 0.288517
O O3 0.461447 0.682661 0.377470
O O4 0.372025 0.911085 0.454980
O O5 0.500000 0.658119 0.750000
O O6 0.535583 0.860613 0.885890
O O7 0.346373 0.826853 0.824753
O O8 0.429945 0.630842 0.956967
O O9 0.346409 0.418798 0.653952
O O10 0.229676 0.422030 0.846253
O O11 0.891698 0.644844 0.573366
#
# Coordination Sequence:
#
# PCOD9261709 Si02
#       5
#     8   8   8   8   8
#     4  11  19  34  56  75 118 152 177 242 291 322
#     4   9  16  29  49  76 109 143 185 229 281 338
#     4  11  19  29  50  81 113 144 192 231 279 345
#     4  11  19  28  50  85 112 144 192 234 278 341
#     4  10  19  31  50  79 112 145 189 232 280 342
#
# _framework density 27.952919999999999
#
# number of rings (size 3 to 8) (size 9 to 14) (size 15 to 20)
#    0.000    1.600    6.000    2.400    0.000    0.000 
#    0.000    1.000    0.000    0.000    0.000   18.200 
#    0.000    0.000    0.000    0.000    0.000    0.000 
#
# Total GULP energy -111743.604276 kJ/mol
# GULP energy per Si atom -5587.180214 kJ/mol
# Density = 2.788930 g / cm^3
# Si number density = 27.952920 Si / 1000 Ang^3
#
#
#
# Elastic Constant Matrix: (Units=GPa)
#
#
# Indices 1 2 3 4 5 6 
#
# 1 111.1943 34.8890 67.0958 0.0000 -14.8080 0.0000
# 2 34.8890 92.5298 56.5523 0.0000 -20.1649 0.0000
# 3 67.0958 56.5523 327.6324 0.0000 -21.8653 0.0000
# 4 0.0000 0.0000 0.0000 38.2205 0.0000 0.4627
# 5 -14.8080 -20.1649 -21.8653 0.0000 47.2888 0.0000
# 6 0.0000 0.0000 0.0000 0.4627 0.0000 26.2763
#
#
#
# Elastic Compliance Matrix: (Units=1/GPa)
#
#
# Indices 1 2 3 4 5 6 
#
# 1 0.011096 -0.002830 -0.001685 0.000000 0.001489 0.000000
# 2 -0.002830 0.013724 -0.001504 0.000000 0.004271 0.000000
# 3 -0.001685 -0.001504 0.003693 0.000000 0.000538 0.000000
# 4 0.000000 0.000000 0.000000 0.026170 0.000000 -0.000461
# 5 0.001489 0.004271 0.000538 0.000000 0.023683 0.000000
# 6 0.000000 0.000000 0.000000 -0.000461 0.000000 0.038065
#
#
# Mechanical properties :
#
#
# Convention : Reuss Voigt Hill
#
# Bulk Modulus (GPa) = 60.69528 94.27007 77.48268
# Shear Modulus (GPa) = 37.32449 47.21175 42.26812
#
# Velocity S-wave (km/s) = 3.65809 4.11417 3.89282
# Velocity P-wave (km/s) = 6.29307 7.50775 6.92709
#
# Compressibility (1/GPa) = 0.01647575
#
# Stress axis : x y z
#
# Youngs Moduli (GPa) = 90.12341 72.86244 270.79797
#
# Poissons Ratio (x) = 0.20618 0.45616
# Poissons Ratio (y) = 0.25503 0.40740
# Poissons Ratio (z) = 0.15181 0.10962
#
# Static dielectric constant tensor:
#      x y z
#    x 2.216140 0.000000 0.032910 
#    y 0.000000 2.289130 0.000000 
#    z 0.032910 0.000000 2.156960 
# 
# From -- ./inp_files/150567.got.cif
#   From: 2010.05.17/outbox.cif.g08.bks.cpg/sg15_76_cif.got.tgz:150567.got - 2010.06.03 18:47:42.
