data_PCOD9261839
_publ_section_title
;
Structure prediction by ZEFSAII (Michael W. Deem and Ramdas Pophale) SiO2 
 PCOD9261839
Probable space group: C 2/C
;
_chemical_formula_sum "Si O2"
_cell_formula_units_Z 48
_cell_length_a 23.530684
_cell_length_b 6.785532
_cell_length_c 12.166654
_cell_angle_alpha 90.000000
_cell_angle_beta 93.994820
_cell_angle_gamma 90.000000
_cell_volume 1937.907956
_symmetry_space_group_name_H-M "C 2/C"
_symmetry_group_IT_number 15
_symmetry_cell_setting 'monoclinic'
loop_
_space_group_symop_operation_xyz
x,y,z
-x,y,1/2-z
-x,-y,-z
x,-y,1/2+z
1/2+x,1/2+y,z
1/2-x,1/2+y,1/2-z
1/2-x,1/2-y,-z
1/2+x,1/2-y,1/2+z
loop_
_atom_site_type_symbol
_atom_site_label
_atom_site_fract_x
_atom_site_fract_y
_atom_site_fract_z
Si Si1 0.186784 0.485033 0.931853
Si Si2 0.921183 0.611539 0.212853
Si Si3 0.483629 0.202892 0.437207
Si Si4 0.821458 0.114961 0.151060
Si Si5 0.949096 0.848396 0.664343
Si Si6 0.777165 0.711002 0.864923
O O1 0.142991 0.397855 0.837745
O O2 0.181051 0.718987 0.944327
O O3 0.249428 0.413255 0.904686
O O4 0.176691 0.374839 0.045299
O O5 0.934111 0.675631 0.339209
O O6 0.939634 0.381171 0.201024
O O7 0.960785 0.733320 0.132366
O O8 0.465918 0.338990 0.537589
O O9 0.500000 0.000000 0.500000
O O10 0.886994 0.054463 0.172083
O O11 0.803687 0.247898 0.252337
O O12 0.774620 0.945451 0.141396
O O13 0.000000 0.918277 0.750000
#
# Coordination Sequence:
#
# PCOD9261839 Si02
#       6
#     8   8   8   8   8   8
#     4  10  23  39  66  92 124 171 210 269 321 375
#     4   9  17  31  56  89 118 161 205 260 310 373
#     4   9  15  30  51  87 124 149 211 257 305 383
#     4  11  23  40  66  91 129 170 213 268 318 387
#     4  10  19  31  56  92 121 165 208 258 324 371
#     4  11  23  44  60  95 129 165 221 260 323 386
#
# _framework density 24.768979999999999
#
# number of rings (size 3 to 8) (size 9 to 14) (size 15 to 20)
#    0.000    2.000    5.000    0.500    2.333    4.000 
#    3.000    0.000    3.667    1.000    0.000    0.000 
#    0.000    0.000    0.000    0.000    0.000    0.000 
#
# Total GULP energy -134195.488242 kJ/mol
# GULP energy per Si atom -5591.478677 kJ/mol
# Density = 2.471260 g / cm^3
# Si number density = 24.768980 Si / 1000 Ang^3
#
#
#
# Elastic Constant Matrix: (Units=GPa)
#
#
# Indices 1 2 3 4 5 6 
#
# 1 120.0692 46.3511 64.4087 0.0000 13.9214 0.0000
# 2 46.3511 82.5412 33.9826 0.0000 6.9462 0.0000
# 3 64.4087 33.9826 163.9696 0.0000 16.0557 0.0000
# 4 0.0000 0.0000 0.0000 31.4320 0.0000 -0.5365
# 5 13.9214 6.9462 16.0557 0.0000 32.7328 0.0000
# 6 0.0000 0.0000 0.0000 -0.5365 0.0000 46.2612
#
#
#
# Elastic Compliance Matrix: (Units=1/GPa)
#
#
# Indices 1 2 3 4 5 6 
#
# 1 0.012631 -0.005404 -0.003601 0.000000 -0.002459 0.000000
# 2 -0.005404 0.015631 -0.001068 0.000000 -0.000495 0.000000
# 3 -0.003601 -0.001068 0.007944 0.000000 -0.002138 0.000000
# 4 0.000000 0.000000 0.000000 0.031821 0.000000 0.000369
# 5 -0.002459 -0.000495 -0.002138 0.000000 0.032750 0.000000
# 6 0.000000 0.000000 0.000000 0.000369 0.000000 0.021621
#
#
# Mechanical properties :
#
#
# Convention : Reuss Voigt Hill
#
# Bulk Modulus (GPa) = 62.26567 72.89609 67.58088
# Shear Modulus (GPa) = 33.80707 36.87436 35.34072
#
# Velocity S-wave (km/s) = 3.69846 3.86259 3.78142
# Velocity P-wave (km/s) = 6.59024 7.02760 6.81243
#
# Compressibility (1/GPa) = 0.01606021
#
# Stress axis : x y z
#
# Youngs Moduli (GPa) = 79.16810 63.97489 125.88068
#
# Poissons Ratio (x) = 0.34570 0.45330
# Poissons Ratio (y) = 0.42780 0.13450
# Poissons Ratio (z) = 0.28509 0.06836
#
# Static dielectric constant tensor:
#      x y z
#    x 1.926480 0.000000 0.014760 
#    y 0.000000 2.088270 0.000000 
#    z 0.014760 0.000000 1.969990 
# 
# From -- ./inp_files/116470.got.cif
#   From: 2010.05.17/outbox.cif.g08.bks.cpg/sg15_59_cif.got.tgz:116470.got - 2010.06.03 18:47:42.
