data_PCOD9261432
_publ_section_title
;
Structure prediction by ZEFSAII (Michael W. Deem and Ramdas Pophale) SiO2 
 PCOD9261432
Probable space group: C 2/C
;
_chemical_formula_sum "Si O2"
_cell_formula_units_Z 48
_cell_length_a 7.793572
_cell_length_b 23.972153
_cell_length_c 11.477427
_cell_angle_alpha 90.000000
_cell_angle_beta 111.232608
_cell_angle_gamma 90.000000
_cell_volume 1998.752195
_symmetry_space_group_name_H-M "C 2/C"
_symmetry_group_IT_number 15
_symmetry_cell_setting 'monoclinic'
loop_
_space_group_symop_operation_xyz
x,y,z
-x,y,1/2-z
-x,-y,-z
x,-y,1/2+z
1/2+x,1/2+y,z
1/2-x,1/2+y,1/2-z
1/2-x,1/2-y,-z
1/2+x,1/2-y,1/2+z
loop_
_atom_site_type_symbol
_atom_site_label
_atom_site_fract_x
_atom_site_fract_y
_atom_site_fract_z
Si Si1 0.351288 0.369768 0.406497
Si Si2 0.081346 0.709608 0.909945
Si Si3 0.827332 0.207925 0.424350
Si Si4 0.930739 0.376657 0.575219
Si Si5 0.809218 0.925546 0.647346
Si Si6 0.097255 0.961235 0.422361
O O1 0.178288 0.330688 0.339168
O O2 0.517499 0.327910 0.472755
O O3 0.307824 0.400177 0.517705
O O4 0.433343 0.418439 0.348013
O O5 0.921919 0.755142 0.848892
O O6 0.250000 0.750000 0.000000
O O7 0.996347 0.666209 0.986365
O O8 0.750000 0.250000 0.500000
O O9 0.668800 0.164498 0.358126
O O10 0.771809 0.422402 0.502895
O O11 0.115729 0.408923 0.654584
O O12 0.000000 0.904104 0.750000
O O13 0.826339 0.992106 0.645251
O O14 0.000000 0.000000 0.500000
#
# Coordination Sequence:
#
# PCOD9261432 Si02
#       6
#     8   8   8   8   8   8
#     4   8  15  27  43  66  93 118 149 192 228 261
#     4   8  13  23  43  71  92 108 139 184 224 264
#     4   8  13  23  42  69  90 108 140 184 222 266
#     4   9  16  27  45  68  94 120 151 192 231 268
#     4  10  19  30  44  65  95 126 155 190 237 285
#     4   9  17  30  45  63  90 122 156 190 223 266
#
# _framework density 24.014983000000001
#
# number of rings (size 3 to 8) (size 9 to 14) (size 15 to 20)
#    0.000    3.333    0.000    0.500    0.000    0.000 
#    0.000    7.500    0.000    0.000    0.000  116.667 
#    0.000    0.000    0.000    0.000    0.000    0.000 
#
# Total GULP energy -133610.001757 kJ/mol
# GULP energy per Si atom -5567.083407 kJ/mol
# Density = 2.396032 g / cm^3
# Si number density = 24.014983 Si / 1000 Ang^3
#
#
#
# Elastic Constant Matrix: (Units=GPa)
#
#
# Indices 1 2 3 4 5 6 
#
# 1 169.3156 102.8901 47.1709 0.0000 39.4497 0.0000
# 2 102.8901 184.8040 40.2014 0.0000 25.1174 0.0000
# 3 47.1709 40.2014 57.0556 0.0000 24.6757 0.0000
# 4 0.0000 0.0000 0.0000 28.9821 0.0000 8.6661
# 5 39.4497 25.1174 24.6757 0.0000 45.0071 0.0000
# 6 0.0000 0.0000 0.0000 8.6661 0.0000 63.2789
#
#
#
# Elastic Compliance Matrix: (Units=1/GPa)
#
#
# Indices 1 2 3 4 5 6 
#
# 1 0.010853 -0.004585 -0.003585 0.000000 -0.004989 0.000000
# 2 -0.004585 0.008399 -0.002410 0.000000 0.000652 0.000000
# 3 -0.003585 -0.002410 0.026541 0.000000 -0.010064 0.000000
# 4 0.000000 0.000000 0.000000 0.035977 0.000000 -0.004927
# 5 -0.004989 0.000652 -0.010064 0.000000 0.031746 0.000000
# 6 0.000000 0.000000 0.000000 -0.004927 0.000000 0.016478
#
#
# Mechanical properties :
#
#
# Convention : Reuss Voigt Hill
#
# Bulk Modulus (GPa) = 40.59273 87.96664 64.27969
# Shear Modulus (GPa) = 31.37445 42.18116 36.77780
#
# Velocity S-wave (km/s) = 3.61841 4.19555 3.91762
# Velocity P-wave (km/s) = 5.86489 7.75755 6.87665
#
# Compressibility (1/GPa) = 0.02463495
#
# Stress axis : x y z
#
# Youngs Moduli (GPa) = 92.13733 119.05847 37.67705
#
# Poissons Ratio (x) = 0.54585 0.13507
# Poissons Ratio (y) = 0.42242 0.09080
# Poissons Ratio (z) = 0.33031 0.28691
#
# Static dielectric constant tensor:
#      x y z
#    x 1.956800 0.000000 0.020240 
#    y 0.000000 1.920190 0.000000 
#    z 0.020240 0.000000 1.907270 
# 
# From -- ./inp_files/136944.got.cif
#   From: 2010.05.17/outbox.cif.g08.bks.cpg/sg15_69_cif.got.tgz:136944.got - 2010.06.03 18:47:42.
