data_PCOD9261406
_publ_section_title
;
Structure prediction by ZEFSAII (Michael W. Deem and Ramdas Pophale) SiO2 
 PCOD9261406
Probable space group: C 2/C
;
_chemical_formula_sum "Si O2"
_cell_formula_units_Z 48
_cell_length_a 21.377504
_cell_length_b 12.116997
_cell_length_c 20.409781
_cell_angle_alpha 90.000000
_cell_angle_beta 149.213522
_cell_angle_gamma 90.000000
_cell_volume 2705.980590
_symmetry_space_group_name_H-M "C 2/C"
_symmetry_group_IT_number 15
_symmetry_cell_setting 'monoclinic'
loop_
_space_group_symop_operation_xyz
x,y,z
-x,y,1/2-z
-x,-y,-z
x,-y,1/2+z
1/2+x,1/2+y,z
1/2-x,1/2+y,1/2-z
1/2-x,1/2-y,-z
1/2+x,1/2-y,1/2+z
loop_
_atom_site_type_symbol
_atom_site_label
_atom_site_fract_x
_atom_site_fract_y
_atom_site_fract_z
Si Si1 0.894545 0.081833 0.428007
Si Si2 0.423088 0.569484 0.599499
Si Si3 0.813591 0.450873 0.864844
Si Si4 0.305293 0.480687 0.118967
Si Si5 0.030292 0.335130 0.989047
Si Si6 0.072427 0.327133 0.880999
O O1 0.866429 0.051341 0.477735
O O2 0.786114 0.068756 0.279885
O O3 0.935095 0.209412 0.466665
O O4 0.000000 0.000000 0.500000
O O5 0.571127 0.559024 0.732159
O O6 0.362503 0.491351 0.599616
O O7 0.400820 0.696609 0.600008
O O8 0.758875 0.435170 0.888420
O O9 0.926901 0.375427 0.945834
O O10 0.859164 0.578039 0.902993
O O11 0.198638 0.392575 0.006223
O O12 0.997105 0.343156 0.881404
O O13 0.000000 0.360739 0.750000
#
# Coordination Sequence:
#
# PCOD9261406 Si02
#       6
#     8   8   8   8   8   8
#     4  11  22  34  59  86 109 148 197 228 285 342
#     4  10  20  31  50  81 111 142 180 233 286 339
#     4  10  21  40  56  80 117 152 186 235 282 337
#     4  10  19  33  49  75 113 144 179 224 278 336
#     4   9  23  37  56  84 117 151 185 234 286 338
#     4  10  19  29  51  80 114 143 174 222 297 354
#
# _framework density 17.738486000000002
#
# number of rings (size 3 to 8) (size 9 to 14) (size 15 to 20)
#    0.000    2.000    3.333    0.500    4.667    2.667 
#    0.000    0.000    0.000    1.000    4.333    0.000 
#    0.000    0.000    0.000    0.000    0.000    0.000 
#
# Total GULP energy -133631.525371 kJ/mol
# GULP energy per Si atom -5567.980224 kJ/mol
# Density = 1.769811 g / cm^3
# Si number density = 17.738486 Si / 1000 Ang^3
#
#
#
# Elastic Constant Matrix: (Units=GPa)
#
#
# Indices 1 2 3 4 5 6 
#
# 1 140.0979 41.5019 48.8511 0.0000 -10.0440 0.0000
# 2 41.5019 51.0174 23.4798 0.0000 -10.9863 0.0000
# 3 48.8511 23.4798 71.1906 0.0000 -12.1480 0.0000
# 4 0.0000 0.0000 0.0000 13.9926 0.0000 -8.2884
# 5 -10.0440 -10.9863 -12.1480 0.0000 30.3242 0.0000
# 6 0.0000 0.0000 0.0000 -8.2884 0.0000 19.1290
#
#
#
# Elastic Compliance Matrix: (Units=1/GPa)
#
#
# Indices 1 2 3 4 5 6 
#
# 1 0.010933 -0.006570 -0.005499 0.000000 -0.000962 0.000000
# 2 -0.006570 0.028016 -0.003619 0.000000 0.006524 0.000000
# 3 -0.005499 -0.003619 0.019835 0.000000 0.004814 0.000000
# 4 0.000000 0.000000 0.000000 0.096142 0.000000 0.041658
# 5 -0.000962 0.006524 0.004814 0.000000 0.036950 0.000000
# 6 0.000000 0.000000 0.000000 0.041658 0.000000 0.070327
#
#
# Mechanical properties :
#
#
# Convention : Reuss Voigt Hill
#
# Bulk Modulus (GPa) = 36.48506 54.44128 45.46317
# Shear Modulus (GPa) = 16.51720 22.58734 19.55227
#
# Velocity S-wave (km/s) = 3.05479 3.57228 3.32362
# Velocity P-wave (km/s) = 5.74937 6.91177 6.35719
#
# Compressibility (1/GPa) = 0.02740848
#
# Stress axis : x y z
#
# Youngs Moduli (GPa) = 91.46879 35.69389 50.41498
#
# Poissons Ratio (x) = 0.23450 0.27725
# Poissons Ratio (y) = 0.60093 0.18243
# Poissons Ratio (z) = 0.50302 0.12916
#
# Static dielectric constant tensor:
#      x y z
#    x 1.678230 0.000000 0.013220 
#    y 0.000000 1.569160 0.000000 
#    z 0.013220 0.000000 1.636350 
# 
# From -- ./inp_files/110676.got.cif
#   From: 2010.05.17/outbox.cif.g08.bks.cpg/sg15_56_cif.got.tgz:110676.got - 2010.06.03 18:47:42.
