data_PCOD9261764
_publ_section_title
;
Structure prediction by ZEFSAII (Michael W. Deem and Ramdas Pophale) SiO2 
 PCOD9261764
Probable space group: C 2/C
;
_chemical_formula_sum "Si O2"
_cell_formula_units_Z 56
_cell_length_a 8.841095
_cell_length_b 22.518016
_cell_length_c 17.240203
_cell_angle_alpha 90.000000
_cell_angle_beta 40.909173
_cell_angle_gamma 90.000000
_cell_volume 2247.647619
_symmetry_space_group_name_H-M "C 2/C"
_symmetry_group_IT_number 15
_symmetry_cell_setting 'monoclinic'
loop_
_space_group_symop_operation_xyz
x,y,z
-x,y,1/2-z
-x,-y,-z
x,-y,1/2+z
1/2+x,1/2+y,z
1/2-x,1/2+y,1/2-z
1/2-x,1/2-y,-z
1/2+x,1/2-y,1/2+z
loop_
_atom_site_type_symbol
_atom_site_label
_atom_site_fract_x
_atom_site_fract_y
_atom_site_fract_z
Si Si1 0.712444 0.454583 0.126957
Si Si2 0.910303 0.131419 0.447471
Si Si3 0.425117 0.819276 0.924025
Si Si4 0.301121 0.915691 0.617404
Si Si5 0.411646 0.834645 0.205872
Si Si6 0.306649 0.746974 0.115752
Si Si7 0.495473 0.591530 0.929186
O O1 0.500000 0.421207 0.250000
O O2 0.749172 0.516201 0.157481
O O3 0.617330 0.461732 0.075937
O O4 0.956388 0.423008 0.024929
O O5 0.889589 0.107099 0.368807
O O6 0.648351 0.145129 0.574821
O O7 0.002333 0.087189 0.478965
O O8 0.051871 0.192065 0.403381
O O9 0.453019 0.780209 0.990362
O O10 0.180166 0.854049 0.022220
O O11 0.621935 0.869279 0.847188
O O12 0.398544 0.779659 0.858257
O O13 0.500000 0.801695 0.250000
O O14 0.281575 0.794678 0.193586
O O15 0.245040 0.887430 0.300997
#
# Coordination Sequence:
#
# PCOD9261764 Si02
#       7
#     8   8   8   8   8   8   8
#     4  10  21  37  59  85 109 149 191 244 291 343
#     4  10  19  34  55  81 114 147 185 235 281 349
#     4   9  19  34  56  80 111 153 186 229 268 354
#     4  10  20  36  61  83 112 151 194 235 295 338
#     4  10  19  31  52  84 118 145 188 245 285 329
#     4  10  19  33  55  80 112 153 185 223 281 343
#     4   9  20  34  55  84 110 139 192 243 285 325
#
# _framework density 24.914936999999998
#
# number of rings (size 3 to 8) (size 9 to 14) (size 15 to 20)
#    0.000    2.286    1.429    1.286    2.000    0.571 
#    0.000    0.714    3.143    0.000    0.000    0.000 
#    0.000    0.000    0.000    0.000    0.000    0.000 
#
# Total GULP energy -156424.312113 kJ/mol
# GULP energy per Si atom -5586.582575 kJ/mol
# Density = 2.485823 g / cm^3
# Si number density = 24.914937 Si / 1000 Ang^3
#
#
#
# Elastic Constant Matrix: (Units=GPa)
#
#
# Indices 1 2 3 4 5 6 
#
# 1 140.4502 47.3865 12.6432 0.0002 16.8712 -0.0001
# 2 47.3865 63.2866 -3.4147 0.0000 10.0129 0.0000
# 3 12.6432 -3.4147 56.3304 0.0008 -2.8671 -0.0003
# 4 0.0002 0.0000 0.0008 13.1144 -0.0003 4.3607
# 5 16.8712 10.0129 -2.8671 -0.0003 50.4018 0.0001
# 6 -0.0001 0.0000 -0.0003 4.3607 0.0001 49.8902
#
#
#
# Elastic Compliance Matrix: (Units=1/GPa)
#
#
# Indices 1 2 3 4 5 6 
#
# 1 0.010121 -0.007402 -0.002826 0.000000 -0.002078 0.000000
# 2 -0.007402 0.021766 0.002895 0.000000 -0.001682 0.000000
# 3 -0.002826 0.002895 0.018635 -0.000001 0.001431 0.000000
# 4 0.000000 0.000000 -0.000001 0.078534 0.000000 -0.006864
# 5 -0.002078 -0.001682 0.001431 0.000000 0.020952 0.000000
# 6 0.000000 0.000000 0.000000 -0.006864 0.000000 0.020644
#
#
# Mechanical properties :
#
#
# Convention : Reuss Voigt Hill
#
# Bulk Modulus (GPa) = 27.88932 41.47747 34.68340
# Shear Modulus (GPa) = 25.34584 36.24477 30.79531
#
# Velocity S-wave (km/s) = 3.19297 3.81824 3.51952
# Velocity P-wave (km/s) = 4.98111 6.01019 5.51969
#
# Compressibility (1/GPa) = 0.03585601
#
# Stress axis : x y z
#
# Youngs Moduli (GPa) = 98.79993 45.94345 53.66220
#
# Poissons Ratio (x) = 0.34008 0.15166
# Poissons Ratio (y) = 0.73134 -0.15537
# Poissons Ratio (z) = 0.27923 -0.13302
#
# Static dielectric constant tensor:
#      x y z
#    x 1.980760 0.000000 0.016540 
#    y 0.000000 1.982360 0.000000 
#    z 0.016540 0.000000 2.043790 
# 
# From -- ./inp_files/137262.got.cif
#   From: 2010.05.17/outbox.cif.g08.bks.cpg/sg15_69_cif.got.tgz:137262.got - 2010.06.03 18:47:42.
