data_PCOD9261725
_publ_section_title
;
Structure prediction by ZEFSAII (Michael W. Deem and Ramdas Pophale) SiO2 
 PCOD9261725
Probable space group: C 2/C
;
_chemical_formula_sum "Si O2"
_cell_formula_units_Z 48
_cell_length_a 5.199629
_cell_length_b 13.832981
_cell_length_c 27.950191
_cell_angle_alpha 90.000000
_cell_angle_beta 112.212408
_cell_angle_gamma 90.000000
_cell_volume 1861.164718
_symmetry_space_group_name_H-M "C 2/C"
_symmetry_group_IT_number 15
_symmetry_cell_setting 'monoclinic'
loop_
_space_group_symop_operation_xyz
x,y,z
-x,y,1/2-z
-x,-y,-z
x,-y,1/2+z
1/2+x,1/2+y,z
1/2-x,1/2+y,1/2-z
1/2-x,1/2-y,-z
1/2+x,1/2-y,1/2+z
loop_
_atom_site_type_symbol
_atom_site_label
_atom_site_fract_x
_atom_site_fract_y
_atom_site_fract_z
Si Si1 0.193680 0.608360 0.305851
Si Si2 0.159071 0.843131 0.308990
Si Si3 0.704399 0.661723 0.626127
Si Si4 0.691288 0.893902 0.636697
Si Si5 0.277630 0.093021 0.469160
Si Si6 0.355301 0.617255 0.508221
O O1 0.166275 0.725568 0.305225
O O2 0.512952 0.585469 0.318301
O O3 0.000000 0.570696 0.250000
O O4 0.066557 0.578749 0.348189
O O5 0.479518 0.868731 0.341058
O O6 0.000000 0.877095 0.250000
O O7 0.984495 0.871790 0.343159
O O8 0.690138 0.778479 0.627303
O O9 0.572327 0.631684 0.566273
O O10 0.712372 0.936031 0.585293
O O11 0.548327 0.159822 0.496286
O O12 0.994152 0.142874 0.467378
O O13 0.247658 0.995110 0.497932
#
# Coordination Sequence:
#
# PCOD9261725 Si02
#       6
#     8   8   8   8   8   8
#     4   9  17  30  49  75 105 132 161 202 253 306
#     4   9  17  30  49  75 105 132 161 202 253 306
#     4  10  19  31  51  77 101 130 168 209 252 298
#     4  10  19  31  51  77 101 130 168 209 252 298
#     4  10  21  36  52  71  98 134 171 207 254 307
#     4  10  21  36  52  71  98 134 171 207 254 307
#
# _framework density 25.790303000000002
#
# number of rings (size 3 to 8) (size 9 to 14) (size 15 to 20)
#    0.000    2.333    0.000    3.000    0.000    5.333 
#    0.000    0.000    0.000    4.000    0.000    0.000 
#    0.000    0.000    0.000    0.000    0.000    0.000 
#
# Total GULP energy -134234.247312 kJ/mol
# GULP energy per Si atom -5593.093638 kJ/mol
# Density = 2.573160 g / cm^3
# Si number density = 25.790303 Si / 1000 Ang^3
#
#
#
# Elastic Constant Matrix: (Units=GPa)
#
#
# Indices 1 2 3 4 5 6 
#
# 1 191.0101 -14.4561 48.7011 0.0000 4.6321 0.0000
# 2 -14.4561 59.0240 -0.4490 0.0000 -2.5483 0.0000
# 3 48.7011 -0.4490 144.5783 0.0000 8.7286 0.0000
# 4 0.0000 0.0000 0.0000 17.2735 0.0000 0.3370
# 5 4.6321 -2.5483 8.7286 0.0000 47.5073 0.0000
# 6 0.0000 0.0000 0.0000 0.3370 0.0000 -7.4738
#
#
#
# Elastic Compliance Matrix: (Units=1/GPa)
#
#
# Indices 1 2 3 4 5 6 
#
# 1 0.005844 0.001411 -0.001956 0.000000 -0.000135 0.000000
# 2 0.001411 0.017322 -0.000474 0.000000 0.000879 0.000000
# 3 -0.001956 -0.000474 0.007649 0.000000 -0.001240 0.000000
# 4 0.000000 0.000000 0.000000 0.057841 0.000000 0.002608
# 5 -0.000135 0.000879 -0.001240 0.000000 0.021338 0.000000
# 6 0.000000 0.000000 0.000000 0.002608 0.000000 -0.133682
#
#
# Mechanical properties :
#
#
# Convention : Reuss Voigt Hill
#
# Bulk Modulus (GPa) = 34.75192 51.35605 43.05398
# Shear Modulus (GPa) = -414.69749 35.51582 -189.59084
#
# Velocity S-wave (km/s) = -12.69429 3.71496 -8.58324
# Velocity P-wave (km/s) = 14.18999 6.19333 9.02770
#
# Compressibility (1/GPa) = 0.02877539
#
# Stress axis : x y z
#
# Youngs Moduli (GPa) = 171.11332 57.72983 130.73682
#
# Poissons Ratio (x) = -0.08144 0.25573
# Poissons Ratio (y) = -0.24138 0.06202
# Poissons Ratio (z) = 0.33471 0.02739
#
# Static dielectric constant tensor:
#      x y z
#    x 2.170770 0.000000 0.082440 
#    y 0.000000 2.182920 0.000000 
#    z 0.082440 0.000000 1.970340 
# 
# From -- ./inp_files/285942.got.cif
#   From: 2010.05.17/outbox.cif.g08.bks.cpg/sg15_143_cif.got.tgz:285942.got - 2010.06.03 18:47:42.
