data_PCOD9261292
_publ_section_title
;
Structure prediction by ZEFSAII (Michael W. Deem and Ramdas Pophale) SiO2 
 PCOD9261292
Probable space group: C 2/C
;
_chemical_formula_sum "Si O2"
_cell_formula_units_Z 44
_cell_length_a 20.814421
_cell_length_b 13.307977
_cell_length_c 9.258522
_cell_angle_alpha 90.000000
_cell_angle_beta 140.960936
_cell_angle_gamma 90.000000
_cell_volume 1615.307618
_symmetry_space_group_name_H-M "C 2/C"
_symmetry_group_IT_number 15
_symmetry_cell_setting 'monoclinic'
loop_
_space_group_symop_operation_xyz
x,y,z
-x,y,1/2-z
-x,-y,-z
x,-y,1/2+z
1/2+x,1/2+y,z
1/2-x,1/2+y,1/2-z
1/2-x,1/2-y,-z
1/2+x,1/2-y,1/2+z
loop_
_atom_site_type_symbol
_atom_site_label
_atom_site_fract_x
_atom_site_fract_y
_atom_site_fract_z
Si Si1 0.716367 0.650083 0.520463
Si Si2 0.491826 0.630517 0.032128
Si Si3 0.000000 0.682677 0.750000
Si Si4 0.216681 0.681930 0.573673
Si Si5 0.123209 0.515767 0.817617
Si Si6 0.000000 0.959737 0.250000
Si Si7 0.500000 0.861627 0.750000
O O1 0.750000 0.750000 0.500000
O O2 0.614332 0.611817 0.266162
O O3 0.703563 0.688883 0.659981
O O4 0.810788 0.572318 0.687853
O O5 0.486505 0.743393 0.088414
O O6 0.443477 0.543380 0.049797
O O7 0.459514 0.610149 0.810685
O O8 0.091098 0.605146 0.870540
O O9 0.250000 0.750000 0.500000
O O10 0.206304 0.566126 0.511548
O O11 0.102864 0.701848 0.438286
O O12 0.025048 0.437988 0.658248
#
# Coordination Sequence:
#
# PCOD9261292 Si02
#       7
#     8   8   4   8   8   4   4
#     4  12  25  43  73 111 154 203 260 328 394 475
#     4  10  22  43  75 107 153 207 266 322 399 462
#     4  10  18  46  76 108 150 203 259 334 393 479
#     4  10  24  49  75 118 155 206 262 331 404 484
#     4   9  21  45  75 111 151 202 265 323 405 464
#     4   9  22  45  73 105 150 216 259 320 387 492
#     4   7  20  47  75 111 152 197 264 318 398 475
#
# _framework density 27.239393
#
# number of rings (size 3 to 8) (size 9 to 14) (size 15 to 20)
#    1.091    1.091    1.818    0.000    2.545    2.182 
#    3.273    0.909    0.000    0.000    0.000    0.000 
#    0.000    0.000    0.000    0.000    0.000    0.000 
#
# Total GULP energy -122562.029389 kJ/mol
# GULP energy per Si atom -5571.001336 kJ/mol
# Density = 2.717739 g / cm^3
# Si number density = 27.239393 Si / 1000 Ang^3
#
#
#
# Elastic Constant Matrix: (Units=GPa)
#
#
# Indices 1 2 3 4 5 6 
#
# 1 131.6736 55.5808 77.8328 0.0000 8.1468 0.0000
# 2 55.5808 183.0123 69.9042 0.0000 -24.1636 0.0000
# 3 77.8328 69.9042 94.3047 0.0000 -15.1593 0.0000
# 4 0.0000 0.0000 0.0000 29.7362 0.0000 3.8476
# 5 8.1468 -24.1636 -15.1593 0.0000 73.8437 0.0000
# 6 0.0000 0.0000 0.0000 3.8476 0.0000 69.1120
#
#
#
# Elastic Compliance Matrix: (Units=1/GPa)
#
#
# Indices 1 2 3 4 5 6 
#
# 1 0.016276 -0.000205 -0.014044 0.000000 -0.004746 0.000000
# 2 -0.000205 0.007763 -0.005350 0.000000 0.001465 0.000000
# 3 -0.014044 -0.005350 0.027020 0.000000 0.005346 0.000000
# 4 0.000000 0.000000 0.000000 0.033873 0.000000 -0.001886
# 5 -0.004746 0.001465 0.005346 0.000000 0.015642 0.000000
# 6 0.000000 0.000000 0.000000 -0.001886 0.000000 0.014574
#
#
# Mechanical properties :
#
#
# Convention : Reuss Voigt Hill
#
# Bulk Modulus (GPa) = 84.30858 90.62512 87.46685
# Shear Modulus (GPa) = 31.58543 48.24991 39.91767
#
# Velocity S-wave (km/s) = 3.40891 4.21328 3.83226
# Velocity P-wave (km/s) = 6.82000 7.55057 7.19456
#
# Compressibility (1/GPa) = 0.01186119
#
# Stress axis : x y z
#
# Youngs Moduli (GPa) = 61.43868 128.81213 37.01008
#
# Poissons Ratio (x) = 0.02646 0.51977
# Poissons Ratio (y) = 0.01262 0.19799
# Poissons Ratio (z) = 0.86285 0.68909
#
# Static dielectric constant tensor:
#      x y z
#    x 2.265490 0.000000 0.066630 
#    y 0.000000 2.165890 0.000000 
#    z 0.066630 0.000000 2.030190 
# 
# From -- ./inp_files/55488.got.cif
#   From: 2010.05.17/outbox.cif.g08.bks.cpg/sg15_28_cif.got.tgz:55488.got - 2010.06.03 18:47:42.
