data_PCOD9261164
_publ_section_title
;
Structure prediction by ZEFSAII (Michael W. Deem and Ramdas Pophale) SiO2 
 PCOD9261164
Probable space group: C 2/C
;
_chemical_formula_sum "Si O2"
_cell_formula_units_Z 32
_cell_length_a 7.808538
_cell_length_b 31.924406
_cell_length_c 7.680547
_cell_angle_alpha 90.000000
_cell_angle_beta 123.182961
_cell_angle_gamma 90.000000
_cell_volume 1602.405189
_symmetry_space_group_name_H-M "C 2/C"
_symmetry_group_IT_number 15
_symmetry_cell_setting 'monoclinic'
loop_
_space_group_symop_operation_xyz
x,y,z
-x,y,1/2-z
-x,-y,-z
x,-y,1/2+z
1/2+x,1/2+y,z
1/2-x,1/2+y,1/2-z
1/2-x,1/2-y,-z
1/2+x,1/2-y,1/2+z
loop_
_atom_site_type_symbol
_atom_site_label
_atom_site_fract_x
_atom_site_fract_y
_atom_site_fract_z
Si Si1 0.272650 0.538249 0.055659
Si Si2 0.171260 0.555237 0.597400
Si Si3 0.084210 0.203456 0.615236
Si Si4 0.500000 0.234647 0.750000
Si Si5 0.500000 0.623165 0.750000
O O1 0.500000 0.548720 0.250000
O O2 0.243590 0.487870 0.048435
O O3 0.236687 0.550951 0.836455
O O4 0.075903 0.556809 0.050057
O O5 0.302524 0.594516 0.608822
O O6 0.325723 0.204614 0.726045
O O7 0.024450 0.233120 0.423555
O O8 0.000000 0.222364 0.750000
O O9 0.018090 0.155297 0.597174
#
# Coordination Sequence:
#
# PCOD9261164 Si02
#       5
#     8   8   8   4   4
#     4  10  20  36  61  79 109 166 219 249 311 374
#     4  10  21  37  57  84 118 157 212 266 308 366
#     4   9  21  37  67  91 127 159 200 262 308 374
#     4  10  18  40  68  95 116 168 214 225 318 410
#     4  10  22  38  54  87 132 154 192 281 324 338
#
# _framework density 19.96998
#
# number of rings (size 3 to 8) (size 9 to 14) (size 15 to 20)
#    0.750    1.500    1.250    1.500    0.000    2.000 
#    2.250    0.000   11.000    0.000    0.000    0.000 
#    0.000    0.000    0.000    0.000    0.000    0.000 
#
# Total GULP energy -89069.051311 kJ/mol
# GULP energy per Si atom -5566.815707 kJ/mol
# Density = 1.992453 g / cm^3
# Si number density = 19.969980 Si / 1000 Ang^3
#
#
#
# Elastic Constant Matrix: (Units=GPa)
#
#
# Indices 1 2 3 4 5 6 
#
# 1 164.7788 70.7509 57.1531 0.0000 16.2420 0.0000
# 2 70.7509 110.5678 16.3432 0.0000 8.1792 0.0000
# 3 57.1531 16.3432 69.8093 0.0000 13.7157 0.0000
# 4 0.0000 0.0000 0.0000 156.5598 0.0000 -24.2497
# 5 16.2420 8.1792 13.7157 0.0000 40.8640 0.0000
# 6 0.0000 0.0000 0.0000 -24.2497 0.0000 -165.7361
#
#
#
# Elastic Compliance Matrix: (Units=1/GPa)
#
#
# Indices 1 2 3 4 5 6 
#
# 1 0.011493 -0.006144 -0.007832 0.000000 -0.000710 0.000000
# 2 -0.006144 0.012710 0.002221 0.000000 -0.000847 0.000000
# 3 -0.007832 0.002221 0.021083 0.000000 -0.004408 0.000000
# 4 0.000000 0.000000 0.000000 0.006246 0.000000 -0.000914
# 5 -0.000710 -0.000847 -0.004408 0.000000 0.026403 0.000000
# 6 0.000000 0.000000 0.000000 -0.000914 0.000000 -0.005900
#
#
# Mechanical properties :
#
#
# Convention : Reuss Voigt Hill
#
# Bulk Modulus (GPa) = 45.92083 70.40560 58.16322
# Shear Modulus (GPa) = 48.63678 19.73147 34.18412
#
# Velocity S-wave (km/s) = 4.94043 3.14675 4.14185
# Velocity P-wave (km/s) = 7.45578 6.96670 7.21538
#
# Compressibility (1/GPa) = 0.02177661
#
# Stress axis : x y z
#
# Youngs Moduli (GPa) = 87.00753 78.67681 47.43247
#
# Poissons Ratio (x) = 0.48341 0.37148
# Poissons Ratio (y) = 0.53460 -0.10536
# Poissons Ratio (z) = 0.68142 -0.17476
#
# Static dielectric constant tensor:
#      x y z
#    x 1.753420 0.000000 0.025180 
#    y 0.000000 1.669900 0.000000 
#    z 0.025180 0.000000 1.763230 
# 
# From -- ./inp_files/25911.got.cif
#   From: 2010.05.17/outbox.cif.g08.bks.cpg/sg15_13_cif.got.tgz:25911.got - 2010.06.03 18:47:42.
