data_PCOD9261113
_publ_section_title
;
Structure prediction by ZEFSAII (Michael W. Deem and Ramdas Pophale) SiO2 
 PCOD9261113
Probable space group: C 2/C
;
_chemical_formula_sum "Si O2"
_cell_formula_units_Z 60
_cell_length_a 21.596788
_cell_length_b 9.590626
_cell_length_c 21.694050
_cell_angle_alpha 90.000000
_cell_angle_beta 38.119378
_cell_angle_gamma 90.000000
_cell_volume 2773.795464
_symmetry_space_group_name_H-M "C 2/C"
_symmetry_group_IT_number 15
_symmetry_cell_setting 'monoclinic'
loop_
_space_group_symop_operation_xyz
x,y,z
-x,y,1/2-z
-x,-y,-z
x,-y,1/2+z
1/2+x,1/2+y,z
1/2-x,1/2+y,1/2-z
1/2-x,1/2-y,-z
1/2+x,1/2-y,1/2+z
loop_
_atom_site_type_symbol
_atom_site_label
_atom_site_fract_x
_atom_site_fract_y
_atom_site_fract_z
Si Si1 0.167635 0.937870 0.029295
Si Si2 0.842419 0.391864 0.972166
Si Si3 0.389000 0.723544 0.191588
Si Si4 0.966477 0.518463 0.099761
Si Si5 0.165270 0.956541 0.203682
Si Si6 0.424042 0.421190 0.012988
Si Si7 0.500000 0.452955 0.250000
Si Si8 0.812977 0.764052 0.201341
O O1 0.283013 0.958668 0.960174
O O2 0.090827 0.015361 0.136979
O O3 0.146339 0.772018 0.051631
O O4 0.137971 0.981204 0.984159
O O5 0.759699 0.413395 0.090111
O O6 0.941393 0.453655 0.925833
O O7 0.355878 0.622210 0.273607
O O8 0.298503 0.703218 0.213798
O O9 0.405243 0.888602 0.176065
O O10 0.497400 0.667824 0.087775
O O11 0.893277 0.649869 0.157290
O O12 0.000000 0.500000 0.000000
O O13 0.180356 0.894682 0.258904
O O14 0.068233 0.884177 0.249022
O O15 0.347453 0.321208 0.108200
O O16 0.500000 0.500000 0.000000
#
# Coordination Sequence:
#
# PCOD9261113 Si02
#       8
#     8   8   8   8   8   8   4   8
#     4  10  22  41  71 104 132 182 228 289 341 410
#     4  10  23  43  68 100 138 178 229 281 347 405
#     4  12  25  41  61  99 132 177 223 271 346 400
#     4  12  24  40  64  95 138 174 221 285 338 394
#     4  11  23  40  67  93 132 173 224 273 340 406
#     4  12  23  41  68  98 136 174 232 278 344 406
#     4  10  18  40  64  98 128 170 224 274 330 418
#     4  12  25  41  66  99 132 176 228 287 336 406
#
# _framework density 21.631011000000001
#
# number of rings (size 3 to 8) (size 9 to 14) (size 15 to 20)
#    0.000    0.800    4.000    4.000    1.867    0.000 
#    0.000    3.333    0.000    0.800    0.000    0.000 
#    0.000    0.000    0.000    0.000    0.000    0.000 
#
# Total GULP energy -167220.852790 kJ/mol
# GULP energy per Si atom -5574.028426 kJ/mol
# Density = 2.158178 g / cm^3
# Si number density = 21.631011 Si / 1000 Ang^3
#
#
#
# Elastic Constant Matrix: (Units=GPa)
#
#
# Indices 1 2 3 4 5 6 
#
# 1 170.5711 39.8578 32.2102 0.0000 -28.4462 0.0000
# 2 39.8578 83.1839 21.8716 0.0000 0.1255 0.0001
# 3 32.2102 21.8716 50.1329 0.0000 -14.1186 0.0000
# 4 0.0000 0.0000 0.0000 17.9638 0.0000 -1.4853
# 5 -28.4462 0.1255 -14.1186 0.0000 36.9033 0.0000
# 6 0.0000 0.0001 0.0000 -1.4853 0.0000 22.9791
#
#
#
# Elastic Compliance Matrix: (Units=1/GPa)
#
#
# Indices 1 2 3 4 5 6 
#
# 1 0.007908 -0.003221 -0.002192 0.000000 0.005268 0.000000
# 2 -0.003221 0.015116 -0.005872 0.000000 -0.004780 0.000000
# 3 -0.002192 -0.005872 0.026278 0.000000 0.008384 0.000000
# 4 0.000000 0.000000 0.000000 0.055967 0.000000 0.003617
# 5 0.005268 -0.004780 0.008384 0.000000 0.034382 0.000000
# 6 0.000000 0.000000 0.000000 0.003617 0.000000 0.043752
#
#
# Mechanical properties :
#
#
# Convention : Reuss Voigt Hill
#
# Bulk Modulus (GPa) = 37.40702 54.64080 46.02391
# Shear Modulus (GPa) = 23.26866 29.56580 26.41723
#
# Velocity S-wave (km/s) = 3.28336 3.70107 3.49845
# Velocity P-wave (km/s) = 5.63069 6.60145 6.13530
#
# Compressibility (1/GPa) = 0.02673295
#
# Stress axis : x y z
#
# Youngs Moduli (GPa) = 126.45950 66.15616 38.05454
#
# Poissons Ratio (x) = 0.21306 0.08342
# Poissons Ratio (y) = 0.40727 0.22344
# Poissons Ratio (z) = 0.27721 0.38844
#
# Static dielectric constant tensor:
#      x y z
#    x 1.775290 0.000000 -0.029870 
#    y 0.000000 1.838640 0.000000 
#    z -0.029870 0.000000 1.787660 
# 
# From -- ./inp_files/279694.got.cif
#   From: 2010.05.17/outbox.cif.g08.bks.cpg/sg15_140_cif.got.tgz:279694.got - 2010.06.03 18:47:42.
