data_PCOD9261622
_publ_section_title
;
Structure prediction by ZEFSAII (Michael W. Deem and Ramdas Pophale) SiO2 
 PCOD9261622
Probable space group: C 2/C
;
_chemical_formula_sum "Si O2"
_cell_formula_units_Z 36
_cell_length_a 11.462445
_cell_length_b 25.739498
_cell_length_c 11.156819
_cell_angle_alpha 90.000000
_cell_angle_beta 153.426132
_cell_angle_gamma 90.000000
_cell_volume 1472.537480
_symmetry_space_group_name_H-M "C 2/C"
_symmetry_group_IT_number 15
_symmetry_cell_setting 'monoclinic'
loop_
_space_group_symop_operation_xyz
x,y,z
-x,y,1/2-z
-x,-y,-z
x,-y,1/2+z
1/2+x,1/2+y,z
1/2-x,1/2+y,1/2-z
1/2-x,1/2-y,-z
1/2+x,1/2-y,1/2+z
loop_
_atom_site_type_symbol
_atom_site_label
_atom_site_fract_x
_atom_site_fract_y
_atom_site_fract_z
Si Si1 0.000000 0.285451 0.750000
Si Si2 0.939507 0.940645 0.067580
Si Si3 0.293200 0.392359 0.694531
Si Si4 0.794610 0.450541 0.179504
Si Si5 0.092884 0.714527 0.068175
O O1 0.750000 0.250000 0.500000
O O2 0.044980 0.308188 0.658964
O O3 0.000000 0.915137 0.250000
O O4 0.201412 0.955175 0.234067
O O5 0.787825 0.906102 0.832462
O O6 0.784607 0.994093 0.946420
O O7 0.090020 0.432613 0.450321
O O8 0.192370 0.334348 0.583011
O O9 0.596691 0.405596 0.951220
O O10 0.824626 0.742649 0.784069
#
# Coordination Sequence:
#
# PCOD9261622 Si02
#       5
#     4   8   8   8   8
#     4   8  16  28  38  56  88 120 154 202 228 254
#     4   9  20  34  53  75 101 136 166 200 252 303
#     4  10  19  35  50  69 105 134 165 208 250 284
#     4   9  20  35  49  74 103 132 161 216 244 289
#     4  10  19  31  46  67  94 131 170 202 237 288
#
# _framework density 24.447593000000001
#
# number of rings (size 3 to 8) (size 9 to 14) (size 15 to 20)
#    1.333    1.333    0.000    2.000    0.000    2.667 
#    8.000    0.000    0.000    0.000    0.000    0.000 
#    0.000   17.778    0.000    0.000    0.000    0.000 
#
# Total GULP energy -100452.923019 kJ/mol
# GULP energy per Si atom -5580.717946 kJ/mol
# Density = 2.439195 g / cm^3
# Si number density = 24.447593 Si / 1000 Ang^3
#
#
#
# Elastic Constant Matrix: (Units=GPa)
#
#
# Indices 1 2 3 4 5 6 
#
# 1 63.3330 11.1816 35.1458 0.0000 16.4489 0.0000
# 2 11.1816 70.8299 6.7434 0.0000 28.7523 0.0000
# 3 35.1458 6.7434 119.7957 0.0003 23.6401 0.0003
# 4 0.0000 0.0000 0.0003 20.4117 0.0001 8.0606
# 5 16.4489 28.7523 23.6401 0.0001 53.8137 0.0001
# 6 0.0000 0.0000 0.0003 8.0606 0.0001 28.1041
#
#
#
# Elastic Compliance Matrix: (Units=1/GPa)
#
#
# Indices 1 2 3 4 5 6 
#
# 1 0.019644 -0.001388 -0.005088 0.000000 -0.003028 0.000000
# 2 -0.001388 0.018230 0.001335 0.000000 -0.009903 0.000000
# 3 -0.005088 0.001335 0.010510 0.000000 -0.003775 0.000000
# 4 0.000000 0.000000 0.000000 0.055249 0.000000 -0.015846
# 5 -0.003028 -0.009903 -0.003775 0.000000 0.026458 0.000000
# 6 0.000000 0.000000 0.000000 -0.015846 0.000000 0.040127
#
#
# Mechanical properties :
#
#
# Convention : Reuss Voigt Hill
#
# Bulk Modulus (GPa) = 26.24381 40.01114 33.12748
# Shear Modulus (GPa) = 25.87999 33.85842 29.86920
#
# Velocity S-wave (km/s) = 3.25713 3.72551 3.49917
# Velocity P-wave (km/s) = 4.99031 5.90826 5.46858
#
# Compressibility (1/GPa) = 0.03810422
#
# Stress axis : x y z
#
# Youngs Moduli (GPa) = 50.90528 54.85443 95.14766
#
# Poissons Ratio (x) = 0.07611 0.48407
# Poissons Ratio (y) = 0.07063 -0.12703
# Poissons Ratio (z) = 0.25898 -0.07323
#
# Static dielectric constant tensor:
#      x y z
#    x 2.322700 0.000000 -0.044390 
#    y 0.000000 1.875270 0.000000 
#    z -0.044390 0.000000 1.881390 
# 
# From -- ./inp_files/156713.got.cif
#   From: 2010.05.17/outbox.cif.g08.bks.cpg/sg15_79_cif.got.tgz:156713.got - 2010.06.03 18:47:42.
