data_PCOD9261126
_publ_section_title
;
Structure prediction by ZEFSAII (Michael W. Deem and Ramdas Pophale) SiO2 
 PCOD9261126
Probable space group: C 2/C
;
_chemical_formula_sum "Si O2"
_cell_formula_units_Z 56
_cell_length_a 30.130202
_cell_length_b 13.888661
_cell_length_c 8.707068
_cell_angle_alpha 90.000000
_cell_angle_beta 53.264472
_cell_angle_gamma 90.000000
_cell_volume 2920.023579
_symmetry_space_group_name_H-M "C 2/C"
_symmetry_group_IT_number 15
_symmetry_cell_setting 'monoclinic'
loop_
_space_group_symop_operation_xyz
x,y,z
-x,y,1/2-z
-x,-y,-z
x,-y,1/2+z
1/2+x,1/2+y,z
1/2-x,1/2+y,1/2-z
1/2-x,1/2-y,-z
1/2+x,1/2-y,1/2+z
loop_
_atom_site_type_symbol
_atom_site_label
_atom_site_fract_x
_atom_site_fract_y
_atom_site_fract_z
Si Si1 0.000000 0.526153 0.250000
Si Si2 0.638165 0.226573 0.584686
Si Si3 0.572192 0.403296 0.817437
Si Si4 0.697268 0.601374 0.062885
Si Si5 0.422070 0.053389 0.657497
Si Si6 0.662215 0.901547 0.764732
Si Si7 0.500000 0.458463 0.250000
Si Si8 0.266910 0.976718 0.145271
O O1 0.957375 0.586121 0.438952
O O2 0.964077 0.461233 0.210080
O O3 0.586072 0.299688 0.711132
O O4 0.686719 0.284883 0.568675
O O5 0.623803 0.129638 0.703477
O O6 0.651989 0.195442 0.381996
O O7 0.635116 0.439800 0.719492
O O8 0.540867 0.473191 0.764437
O O9 0.536353 0.400629 0.048336
O O10 0.738193 0.561057 0.105898
O O11 0.720916 0.569394 0.849534
O O12 0.394196 0.951092 0.676252
O O13 0.703974 0.903529 0.534116
O O14 0.688173 0.976399 0.834189
#
# Coordination Sequence:
#
# PCOD9261126 Si02
#       8
#     4   8   8   8   8   8   4   8
#     4  10  22  34  66  76 106 164 194 218 300 358
#     4  10  22  36  59  85 123 143 199 254 280 334
#     4   9  21  36  63  86 119 145 200 238 289 354
#     4   9  21  38  59  87 115 146 199 247 286 357
#     4  11  20  40  57  85 116 156 193 245 288 349
#     4  11  20  38  60  83 119 159 196 241 296 347
#     4  10  18  40  66  84 114 166 176 236 316 354
#     4  10  20  37  65  79 114 167 189 230 314 355
#
# _framework density 19.177925999999999
#
# number of rings (size 3 to 8) (size 9 to 14) (size 15 to 20)
#    0.857    1.143    2.857    0.857    0.000    2.286 
#    0.000    0.000   12.571    0.000    0.000    0.000 
#    0.000    0.000    0.000    0.000    0.000    0.000 
#
# Total GULP energy -155938.798086 kJ/mol
# GULP energy per Si atom -5569.242789 kJ/mol
# Density = 1.913428 g / cm^3
# Si number density = 19.177926 Si / 1000 Ang^3
#
#
#
# Elastic Constant Matrix: (Units=GPa)
#
#
# Indices 1 2 3 4 5 6 
#
# 1 80.1286 6.4667 22.3242 0.0000 1.8152 0.0000
# 2 6.4667 32.4953 17.1247 0.0000 -3.0774 0.0000
# 3 22.3242 17.1247 151.2643 0.0000 -6.6290 0.0000
# 4 0.0000 0.0000 0.0000 26.8892 0.0000 -4.3164
# 5 1.8152 -3.0774 -6.6290 0.0000 26.7404 0.0000
# 6 0.0000 0.0000 0.0000 -4.3164 0.0000 11.3253
#
#
#
# Elastic Compliance Matrix: (Units=1/GPa)
#
#
# Indices 1 2 3 4 5 6 
#
# 1 0.013165 -0.001815 -0.001805 0.000000 -0.001550 0.000000
# 2 -0.001815 0.033197 -0.003354 0.000000 0.003112 0.000000
# 3 -0.001805 -0.003354 0.007325 0.000000 0.001552 0.000000
# 4 0.000000 0.000000 0.000000 0.039613 0.000000 0.015098
# 5 -0.001550 0.003112 0.001552 0.000000 0.038245 0.000000
# 6 0.000000 0.000000 0.000000 0.015098 0.000000 0.094052
#
#
# Mechanical properties :
#
#
# Convention : Reuss Voigt Hill
#
# Bulk Modulus (GPa) = 25.16499 39.52439 32.34469
# Shear Modulus (GPa) = 19.77915 27.52250 23.65082
#
# Velocity S-wave (km/s) = 3.21495 3.79240 3.51555
# Velocity P-wave (km/s) = 5.18956 6.31114 5.77763
#
# Compressibility (1/GPa) = 0.03973775
#
# Stress axis : x y z
#
# Youngs Moduli (GPa) = 75.96177 30.12309 136.51657
#
# Poissons Ratio (x) = 0.05468 0.24645
# Poissons Ratio (y) = 0.13789 0.45787
# Poissons Ratio (z) = 0.13713 0.10103
#
# Static dielectric constant tensor:
#      x y z
#    x 1.662580 0.000000 -0.024290 
#    y 0.000000 1.664810 0.000000 
#    z -0.024290 0.000000 1.714490 
# 
# From -- ./inp_files/69705.got.cif
#   From: 2010.05.17/outbox.cif.g08.bks.cpg/sg15_35_cif.got.tgz:69705.got - 2010.06.03 18:47:42.
