data_PCOD9261230
_publ_section_title
;
Structure prediction by ZEFSAII (Michael W. Deem and Ramdas Pophale) SiO2 
 PCOD9261230
Probable space group: C 2/C
;
_chemical_formula_sum "Si O2"
_cell_formula_units_Z 36
_cell_length_a 11.611235
_cell_length_b 15.229667
_cell_length_c 13.755085
_cell_angle_alpha 90.000000
_cell_angle_beta 35.773045
_cell_angle_gamma 90.000000
_cell_volume 1421.913291
_symmetry_space_group_name_H-M "C 2/C"
_symmetry_group_IT_number 15
_symmetry_cell_setting 'monoclinic'
loop_
_space_group_symop_operation_xyz
x,y,z
-x,y,1/2-z
-x,-y,-z
x,-y,1/2+z
1/2+x,1/2+y,z
1/2-x,1/2+y,1/2-z
1/2-x,1/2-y,-z
1/2+x,1/2-y,1/2+z
loop_
_atom_site_type_symbol
_atom_site_label
_atom_site_fract_x
_atom_site_fract_y
_atom_site_fract_z
Si Si1 0.500000 0.540419 0.250000
Si Si2 0.894514 0.474587 0.223848
Si Si3 0.199430 0.742029 0.920229
Si Si4 0.127184 0.622887 0.420284
Si Si5 0.981516 0.103991 0.606714
O O1 0.348859 0.603622 0.298482
O O2 0.433631 0.470139 0.378353
O O3 0.927721 0.550243 0.122097
O O4 0.671794 0.440774 0.362519
O O5 0.000000 0.500319 0.250000
O O6 0.019088 0.393126 0.096733
O O7 0.346284 0.671851 0.767459
O O8 0.250000 0.750000 0.000000
O O9 0.978651 0.707466 0.049335
O O10 0.158285 0.845827 0.929272
#
# Coordination Sequence:
#
# PCOD9261230 Si02
#       5
#     4   8   8   8   8
#     4  10  18  42  60  86 128 162 196 254 310 368
#     4   9  19  39  59  84 119 165 202 249 306 370
#     4  11  20  38  60  93 117 157 204 259 303 358
#     4   9  21  37  62  87 123 160 203 252 310 360
#     4  10  21  37  62  87 122 159 206 253 311 360
#
# _framework density 25.317999
#
# number of rings (size 3 to 8) (size 9 to 14) (size 15 to 20)
#    0.000    2.222    2.222    1.333    0.000    1.778 
#    6.000    4.444    0.000    0.000    0.000    0.000 
#    0.000    0.000    0.000    0.000    0.000    0.000 
#
# Total GULP energy -100312.764594 kJ/mol
# GULP energy per Si atom -5572.931366 kJ/mol
# Density = 2.526037 g / cm^3
# Si number density = 25.317999 Si / 1000 Ang^3
#
#
#
# Elastic Constant Matrix: (Units=GPa)
#
#
# Indices 1 2 3 4 5 6 
#
# 1 193.9484 21.0247 33.1962 -0.0042 7.8886 0.0029
# 2 21.0247 27.0009 36.3456 -0.0062 0.3043 0.0041
# 3 33.1962 36.3456 76.4911 -0.0114 7.1682 0.0077
# 4 -0.0042 -0.0062 -0.0114 51.6506 0.0062 -1.5782
# 5 7.8886 0.3043 7.1682 0.0062 21.4022 -0.0038
# 6 0.0029 0.0041 0.0077 -1.5782 -0.0038 43.4905
#
#
#
# Elastic Compliance Matrix: (Units=1/GPa)
#
#
# Indices 1 2 3 4 5 6 
#
# 1 0.005727 -0.003687 -0.000558 0.000000 -0.001872 0.000000
# 2 -0.003687 0.110287 -0.052430 -0.000001 0.017351 0.000001
# 3 -0.000558 -0.052430 0.039375 0.000004 -0.012237 -0.000003
# 4 0.000000 -0.000001 0.000004 0.019382 -0.000007 0.000703
# 5 -0.001872 0.017351 -0.012237 -0.000007 0.051266 0.000005
# 6 0.000000 0.000001 -0.000003 0.000703 0.000005 0.023019
#
#
# Mechanical properties :
#
#
# Convention : Reuss Voigt Hill
#
# Bulk Modulus (GPa) = 23.78763 53.17483 38.48123
# Shear Modulus (GPa) = 13.28302 37.10024 25.19163
#
# Velocity S-wave (km/s) = 2.29300 3.83217 3.15780
# Velocity P-wave (km/s) = 4.05295 6.37409 5.34114
#
# Compressibility (1/GPa) = 0.04203866
#
# Stress axis : x y z
#
# Youngs Moduli (GPa) = 174.59971 9.06725 25.39675
#
# Poissons Ratio (x) = 0.03343 0.01418
# Poissons Ratio (y) = 0.64380 1.33155
# Poissons Ratio (z) = 0.09745 0.47540
#
# Static dielectric constant tensor:
#      x y z
#    x 1.968490 -0.000010 -0.007530 
#    y -0.000010 2.098310 0.000000 
#    z -0.007530 0.000000 2.150020 
# 
# From -- ./inp_files/56909.got.cif
#   From: 2010.05.17/outbox.cif.g08.bks.cpg/sg15_29_cif.got.tgz:56909.got - 2010.06.03 18:47:42.
