data_PCOD9261873
_publ_section_title
;
Structure prediction by ZEFSAII (Michael W. Deem and Ramdas Pophale) SiO2 
 PCOD9261873
Probable space group: C 2/C
;
_chemical_formula_sum "Si O2"
_cell_formula_units_Z 64
_cell_length_a 21.333444
_cell_length_b 18.172781
_cell_length_c 21.260458
_cell_angle_alpha 90.000000
_cell_angle_beta 156.976207
_cell_angle_gamma 90.000000
_cell_volume 3223.722278
_symmetry_space_group_name_H-M "C 2/C"
_symmetry_group_IT_number 15
_symmetry_cell_setting 'monoclinic'
loop_
_space_group_symop_operation_xyz
x,y,z
-x,y,1/2-z
-x,-y,-z
x,-y,1/2+z
1/2+x,1/2+y,z
1/2-x,1/2+y,1/2-z
1/2-x,1/2-y,-z
1/2+x,1/2-y,1/2+z
loop_
_atom_site_type_symbol
_atom_site_label
_atom_site_fract_x
_atom_site_fract_y
_atom_site_fract_z
Si Si1 0.400561 0.398176 0.534847
Si Si2 0.881701 0.990888 0.202381
Si Si3 0.545864 0.669962 0.719958
Si Si4 0.331748 0.900183 0.060304
Si Si5 0.719975 0.705189 0.118266
Si Si6 0.480441 0.244231 0.659431
Si Si7 0.305296 0.827382 0.239883
Si Si8 0.564086 0.205774 0.075229
O O1 0.529825 0.461734 0.662414
O O2 0.294811 0.402344 0.500311
O O3 0.470527 0.315833 0.606955
O O4 0.298741 0.397677 0.376790
O O5 0.858857 0.906471 0.199234
O O6 0.000000 0.988543 0.250000
O O7 0.724091 0.036198 0.037974
O O8 0.500000 0.682072 0.750000
O O9 0.380249 0.662344 0.527322
O O10 0.657739 0.736534 0.800125
O O11 0.500000 0.912656 0.250000
O O12 0.344899 0.820045 0.038993
O O13 0.827498 0.665886 0.271455
O O14 0.577327 0.749408 0.020919
O O15 0.500000 0.266948 0.750000
O O16 0.628399 0.201127 0.765828
O O17 0.462266 0.837466 0.428362
O O18 0.186724 0.765500 0.158608
#
# Coordination Sequence:
#
# PCOD9261873 Si02
#       8
#     8   8   8   8   8   8   8   8
#     4  11  20  31  46  76 117 158 194 236 280 316
#     4   9  21  35  52  79 124 157 175 212 294 365
#     4  10  19  38  66  98 112 133 170 219 297 379
#     4  10  19  32  46  73 118 160 189 232 283 322
#     4   9  19  38  63  84 113 134 171 238 291 344
#     4  11  20  28  47  78 113 151 207 253 277 297
#     4  11  19  30  50  79 109 153 206 241 266 319
#     4   9  20  34  52  83 108 148 192 238 280 319
#
# _framework density 19.852827000000001
#
# number of rings (size 3 to 8) (size 9 to 14) (size 15 to 20)
#    0.000    2.000    3.750    1.875    1.750    0.000 
#    0.000    8.125    0.000    7.500    0.000    0.000 
#    0.000    0.000    0.000    0.000    0.000    0.000 
#
# Total GULP energy -178175.627916 kJ/mol
# GULP energy per Si atom -5567.988372 kJ/mol
# Density = 1.980764 g / cm^3
# Si number density = 19.852827 Si / 1000 Ang^3
#
#
#
# Elastic Constant Matrix: (Units=GPa)
#
#
# Indices 1 2 3 4 5 6 
#
# 1 55.3627 -2.6377 22.9882 0.0010 -9.0134 -0.0033
# 2 -2.6377 49.4875 12.8400 0.0096 -5.1163 -0.0030
# 3 22.9882 12.8400 97.9820 0.0126 -23.4217 -0.0026
# 4 0.0010 0.0096 0.0126 19.7380 0.0017 2.9363
# 5 -9.0134 -5.1163 -23.4217 0.0017 38.1956 -0.0035
# 6 -0.0033 -0.0030 -0.0026 2.9363 -0.0035 -1.2770
#
#
#
# Elastic Compliance Matrix: (Units=1/GPa)
#
#
# Indices 1 2 3 4 5 6 
#
# 1 0.020464 0.002520 -0.004566 0.000007 0.002367 -0.000040
# 2 0.002520 0.021285 -0.002996 0.000000 0.001609 -0.000056
# 3 -0.004566 -0.002996 0.013260 -0.000003 0.006652 -0.000032
# 4 0.000007 0.000000 -0.000003 0.037750 0.000006 0.086804
# 5 0.002367 0.001609 0.006652 0.000006 0.031034 -0.000094
# 6 -0.000040 -0.000056 -0.000032 0.086804 -0.000094 -0.583503
#
#
# Mechanical properties :
#
#
# Convention : Reuss Voigt Hill
#
# Bulk Modulus (GPa) = 22.25894 29.91257 26.08576
# Shear Modulus (GPa) = -11.50348 22.64078 5.56865
#
# Velocity S-wave (km/s) = -2.40976 3.38069 1.67662
# Velocity P-wave (km/s) = 1.86915 5.50805 4.11293
#
# Compressibility (1/GPa) = 0.04492576
#
# Stress axis : x y z
#
# Youngs Moduli (GPa) = 48.86653 46.98120 75.41523
#
# Poissons Ratio (x) = -0.11839 0.34432
# Poissons Ratio (y) = -0.12315 0.22595
# Poissons Ratio (z) = 0.22311 0.14076
#
# Static dielectric constant tensor:
#      x y z
#    x 1.726200 0.000000 -0.044250 
#    y 0.000000 1.709210 0.000000 
#    z -0.044250 0.000000 1.801260 
# 
# From -- ./inp_files/282254.got.cif
#   From: 2010.05.17/outbox.cif.g08.bks.cpg/sg15_142_cif.got.tgz:282254.got - 2010.06.03 18:47:42.
