data_PCOD9261654
_publ_section_title
;
Structure prediction by ZEFSAII (Michael W. Deem and Ramdas Pophale) SiO2 
 PCOD9261654
Probable space group: C 2/C
;
_chemical_formula_sum "Si O2"
_cell_formula_units_Z 64
_cell_length_a 23.701006
_cell_length_b 27.391575
_cell_length_c 5.413355
_cell_angle_alpha 90.000000
_cell_angle_beta 95.967556
_cell_angle_gamma 90.000000
_cell_volume 3495.347986
_symmetry_space_group_name_H-M "C 2/C"
_symmetry_group_IT_number 15
_symmetry_cell_setting 'monoclinic'
loop_
_space_group_symop_operation_xyz
x,y,z
-x,y,1/2-z
-x,-y,-z
x,-y,1/2+z
1/2+x,1/2+y,z
1/2-x,1/2+y,1/2-z
1/2-x,1/2-y,-z
1/2+x,1/2-y,1/2+z
loop_
_atom_site_type_symbol
_atom_site_label
_atom_site_fract_x
_atom_site_fract_y
_atom_site_fract_z
Si Si1 0.174190 0.297438 0.310543
Si Si2 0.935266 0.174200 0.701920
Si Si3 0.840099 0.125276 0.950724
Si Si4 0.235196 0.379458 0.090749
Si Si5 0.850213 0.023325 0.138832
Si Si6 0.725565 0.700175 0.260710
Si Si7 0.064476 0.762161 0.800830
Si Si8 0.220542 0.484721 0.005828
O O1 0.184324 0.349643 0.191790
O O2 0.214010 0.295949 0.572436
O O3 0.202419 0.252567 0.170125
O O4 0.110339 0.280691 0.313578
O O5 0.886760 0.136068 0.762304
O O6 0.926985 0.200247 0.430247
O O7 0.000000 0.154649 0.750000
O O8 0.931605 0.212398 0.928967
O O9 0.781803 0.104597 0.810784
O O10 0.858472 0.081691 0.140234
O O11 0.819478 0.175453 0.070223
O O12 0.221650 0.427720 0.935390
O O13 0.267401 0.338799 0.948160
O O14 0.874142 0.001141 0.895944
O O15 0.783366 0.007052 0.092094
O O16 0.000000 0.744395 0.750000
O O17 0.192857 0.487771 0.263975
#
# Coordination Sequence:
#
# PCOD9261654 Si02
#       8
#     8   8   8   8   8   8   8   8
#     4  10  21  32  48  79 111 140 173 210 262 317
#     4  10  22  37  55  76  97 133 185 227 259 304
#     4  11  20  31  54  73 100 141 177 223 263 315
#     4  11  21  30  52  76 107 145 171 213 265 318
#     4  10  19  31  48  72  96 130 177 214 262 313
#     4  10  20  32  47  75 113 140 172 206 268 318
#     4  10  21  39  57  73 104 144 180 218 255 302
#     4  10  19  34  49  70 103 134 178 211 250 312
#
# _framework density 18.310051000000001
#
# number of rings (size 3 to 8) (size 9 to 14) (size 15 to 20)
#    0.000    1.750    3.750    2.625    3.500    0.000 
#    0.000    0.000    0.000    0.750    0.000    0.000 
#    0.000    1.000    0.000    0.125    0.000    0.000 
#
# Total GULP energy -178315.987930 kJ/mol
# GULP energy per Si atom -5572.374623 kJ/mol
# Density = 1.826838 g / cm^3
# Si number density = 18.310051 Si / 1000 Ang^3
#
#
#
# Elastic Constant Matrix: (Units=GPa)
#
#
# Indices 1 2 3 4 5 6 
#
# 1 73.7540 23.4819 5.6705 0.0000 -10.3180 0.0000
# 2 23.4819 79.0719 5.3777 0.0000 -7.5504 0.0000
# 3 5.6705 5.3777 78.0015 0.0000 -2.2503 0.0000
# 4 0.0000 0.0000 0.0000 23.3820 0.0000 -4.6402
# 5 -10.3180 -7.5504 -2.2503 0.0000 16.7758 0.0000
# 6 0.0000 0.0000 0.0000 -4.6402 0.0000 8.1096
#
#
#
# Elastic Compliance Matrix: (Units=1/GPa)
#
#
# Indices 1 2 3 4 5 6 
#
# 1 0.015978 -0.003939 -0.000660 0.000000 0.007966 0.000000
# 2 -0.003939 0.014229 -0.000582 0.000000 0.003903 0.000000
# 3 -0.000660 -0.000582 0.012939 0.000000 0.001068 0.000000
# 4 0.000000 0.000000 0.000000 0.048246 0.000000 0.027606
# 5 0.007966 0.003903 0.001068 0.000000 0.066409 0.000000
# 6 0.000000 0.000000 0.000000 0.027606 0.000000 0.139107
#
#
# Mechanical properties :
#
#
# Convention : Reuss Voigt Hill
#
# Bulk Modulus (GPa) = 30.50372 33.32083 31.91227
# Shear Modulus (GPa) = 15.71341 22.73997 19.22669
#
# Velocity S-wave (km/s) = 2.93266 3.52794 3.24398
# Velocity P-wave (km/s) = 5.30688 5.90193 5.61230
#
# Compressibility (1/GPa) = 0.03278289
#
# Stress axis : x y z
#
# Youngs Moduli (GPa) = 62.58624 70.27959 77.28460
#
# Poissons Ratio (x) = 0.27686 0.05102
# Poissons Ratio (y) = 0.24655 0.04498
# Poissons Ratio (z) = 0.04132 0.04090
#
# Static dielectric constant tensor:
#      x y z
#    x 1.631380 0.000000 -0.024070 
#    y 0.000000 1.665320 0.000000 
#    z -0.024070 0.000000 1.760620 
# 
# From -- ./inp_files/16160.got.cif
#   From: 2010.05.17/outbox.cif.g08.bks.cpg/sg15_9_cif.got.tgz:16160.got - 2010.06.03 18:47:42.
