data_PCOD9261609
_publ_section_title
;
Structure prediction by ZEFSAII (Michael W. Deem and Ramdas Pophale) SiO2 
 PCOD9261609
Probable space group: C 2/C
;
_chemical_formula_sum "Si O2"
_cell_formula_units_Z 56
_cell_length_a 21.556789
_cell_length_b 5.572322
_cell_length_c 20.304093
_cell_angle_alpha 90.000000
_cell_angle_beta 123.409347
_cell_angle_gamma 90.000000
_cell_volume 2035.937701
_symmetry_space_group_name_H-M "C 2/C"
_symmetry_group_IT_number 15
_symmetry_cell_setting 'monoclinic'
loop_
_space_group_symop_operation_xyz
x,y,z
-x,y,1/2-z
-x,-y,-z
x,-y,1/2+z
1/2+x,1/2+y,z
1/2-x,1/2+y,1/2-z
1/2-x,1/2-y,-z
1/2+x,1/2-y,1/2+z
loop_
_atom_site_type_symbol
_atom_site_label
_atom_site_fract_x
_atom_site_fract_y
_atom_site_fract_z
Si Si1 0.800814 0.464522 0.604950
Si Si2 0.794318 0.036384 0.120367
Si Si3 0.845376 0.552025 0.274139
Si Si4 0.898817 0.611083 0.035481
Si Si5 0.327608 0.553184 0.294710
Si Si6 0.042458 0.049949 0.841977
Si Si7 0.556197 0.386893 0.980719
O O1 0.757066 0.216825 0.585584
O O2 0.858043 0.457711 0.701976
O O3 0.841650 0.467413 0.559111
O O4 0.757152 0.712314 0.583104
O O5 0.811600 0.047759 0.207220
O O6 0.871903 0.010917 0.126509
O O7 0.753797 0.551305 0.220351
O O8 0.866770 0.795866 0.324971
O O9 0.864944 0.311179 0.325045
O O10 0.965362 0.694823 0.125214
O O11 0.889711 0.877861 0.996976
O O12 0.913670 0.385981 0.996144
O O13 0.019605 0.871006 0.886168
O O14 0.000000 0.035697 0.750000
O O15 0.500000 0.500000 0.000000
#
# Coordination Sequence:
#
# PCOD9261609 Si02
#       7
#     8   8   8   8   8   8   8
#     4   9  13  24  35  52  72  99 126 156 190 235
#     4   9  15  24  35  49  75 100 130 155 192 229
#     4   8  13  18  31  46  67  92 126 147 180 225
#     4   9  17  29  42  58  78 104 134 164 203 239
#     4   8  13  20  29  46  66  96 124 149 179 226
#     4   9  19  29  43  61  81 108 140 170 201 238
#     4  10  19  31  45  59  78 107 138 169 205 241
#
# _framework density 27.505754
#
# number of rings (size 3 to 8) (size 9 to 14) (size 15 to 20)
#    0.857    2.286    1.429    0.429    0.000    0.571 
#    0.000    0.000    0.000    0.000    0.000    0.000 
#    0.000    0.000    0.000    2.571    2.571    1.000 
#
# Total GULP energy -156059.141933 kJ/mol
# GULP energy per Si atom -5573.540783 kJ/mol
# Density = 2.744315 g / cm^3
# Si number density = 27.505754 Si / 1000 Ang^3
#
#
#
# Elastic Constant Matrix: (Units=GPa)
#
#
# Indices 1 2 3 4 5 6 
#
# 1 55.0026 43.4812 17.0935 -0.0005 -27.3368 -0.0007
# 2 43.4812 303.4418 17.5325 -0.0015 0.2054 -0.0027
# 3 17.0935 17.5325 58.0488 -0.0003 -11.4118 0.0000
# 4 -0.0005 -0.0015 -0.0003 32.3403 0.0001 -16.0409
# 5 -27.3368 0.2054 -11.4118 0.0001 39.7925 0.0001
# 6 -0.0007 -0.0027 0.0000 -16.0409 0.0001 24.6906
#
#
#
# Elastic Compliance Matrix: (Units=1/GPa)
#
#
# Indices 1 2 3 4 5 6 
#
# 1 0.034352 -0.004689 -0.004297 0.000001 0.022391 0.000001
# 2 -0.004689 0.003998 -0.000492 0.000000 -0.003383 0.000001
# 3 -0.004297 -0.000492 0.019140 0.000000 0.002539 0.000000
# 4 0.000001 0.000000 0.000000 0.045623 0.000000 0.029640
# 5 0.022391 -0.003383 0.002539 0.000000 0.041258 0.000000
# 6 0.000001 0.000001 0.000000 0.029640 0.000000 0.059757
#
#
# Mechanical properties :
#
#
# Convention : Reuss Voigt Hill
#
# Bulk Modulus (GPa) = 25.95160 63.63420 44.79290
# Shear Modulus (GPa) = 21.19270 41.92376 31.55823
#
# Velocity S-wave (km/s) = 2.77877 3.90831 3.39090
# Velocity P-wave (km/s) = 4.44419 6.59937 5.62594
#
# Compressibility (1/GPa) = 0.03853328
#
# Stress axis : x y z
#
# Youngs Moduli (GPa) = 29.11027 250.11412 52.24636
#
# Poissons Ratio (x) = 1.17286 0.22453
# Poissons Ratio (y) = 0.13651 0.02570
# Poissons Ratio (z) = 0.12510 0.12301
#
# Static dielectric constant tensor:
#      x y z
#    x 2.167980 0.000000 0.035980 
#    y 0.000000 2.279530 0.000000 
#    z 0.035980 0.000000 2.166060 
# 
# From -- ./inp_files/282801.got.cif
#   From: 2010.05.17/outbox.cif.g08.bks.cpg/sg15_142_cif.got.tgz:282801.got - 2010.06.03 18:47:42.
