data_PCOD9261695
_publ_section_title
;
Structure prediction by ZEFSAII (Michael W. Deem and Ramdas Pophale) SiO2 
 PCOD9261695
Probable space group: C 2/C
;
_chemical_formula_sum "Si O2"
_cell_formula_units_Z 64
_cell_length_a 27.742528
_cell_length_b 13.533426
_cell_length_c 8.099586
_cell_angle_alpha 90.000000
_cell_angle_beta 104.730881
_cell_angle_gamma 90.000000
_cell_volume 2941.046157
_symmetry_space_group_name_H-M "C 2/C"
_symmetry_group_IT_number 15
_symmetry_cell_setting 'monoclinic'
loop_
_space_group_symop_operation_xyz
x,y,z
-x,y,1/2-z
-x,-y,-z
x,-y,1/2+z
1/2+x,1/2+y,z
1/2-x,1/2+y,1/2-z
1/2-x,1/2-y,-z
1/2+x,1/2-y,1/2+z
loop_
_atom_site_type_symbol
_atom_site_label
_atom_site_fract_x
_atom_site_fract_y
_atom_site_fract_z
Si Si1 0.458401 0.362984 0.475481
Si Si2 0.061010 0.933722 0.684643
Si Si3 0.661220 0.959264 0.923008
Si Si4 0.874982 0.270639 0.780340
Si Si5 0.712299 0.650108 0.638002
Si Si6 0.723129 0.455752 0.499557
Si Si7 0.354721 0.665624 0.411041
Si Si8 0.671246 0.148799 0.784255
O O1 0.517026 0.364753 0.569987
O O2 0.433500 0.401525 0.622956
O O3 0.453095 0.451332 0.338751
O O4 0.428005 0.266410 0.395963
O O5 0.108884 0.918957 0.615224
O O6 0.631093 0.884323 0.779897
O O7 0.718566 0.961408 0.912535
O O8 0.648730 0.075185 0.900633
O O9 0.663697 0.913332 0.107260
O O10 0.829160 0.232980 0.858753
O O11 0.868672 0.212019 0.600357
O O12 0.698987 0.563903 0.496685
O O13 0.770011 0.677018 0.648058
O O14 0.716078 0.589450 0.813408
O O15 0.699377 0.379220 0.606034
O O16 0.356447 0.749694 0.274518
#
# Coordination Sequence:
#
# PCOD9261695 Si02
#       8
#     8   8   8   8   8   8   8   8
#     4  10  21  36  53  74 100 127 155 192 239 289
#     4  10  21  36  53  74 100 127 155 192 239 289
#     4   9  18  32  48  68  97 132 166 200 238 279
#     4  10  19  31  50  73  97 128 164 200 239 284
#     4   9  17  29  45  68  99 131 161 194 234 281
#     4   9  17  29  45  68  99 131 161 194 234 281
#     4  10  19  31  50  73  97 128 164 200 239 284
#     4   9  18  32  48  68  97 132 166 200 238 279
#
# _framework density 21.760964000000001
#
# number of rings (size 3 to 8) (size 9 to 14) (size 15 to 20)
#    0.000    2.500    0.000    2.250    0.000    8.500 
#    0.000    0.000    0.000    8.250    0.000    0.000 
#    0.000    0.000    0.000    0.000    0.000    0.000 
#
# Total GULP energy -178684.626350 kJ/mol
# GULP energy per Si atom -5583.894573 kJ/mol
# Density = 2.171144 g / cm^3
# Si number density = 21.760964 Si / 1000 Ang^3
#
#
#
# Elastic Constant Matrix: (Units=GPa)
#
#
# Indices 1 2 3 4 5 6 
#
# 1 31.0767 -7.6346 2.9814 0.0000 2.2269 0.0000
# 2 -7.6346 63.1340 28.5093 0.0000 12.6565 0.0000
# 3 2.9814 28.5093 67.4474 0.0000 0.1355 0.0000
# 4 0.0000 0.0000 0.0000 36.2024 0.0000 6.6357
# 5 2.2269 12.6565 0.1355 0.0000 23.1254 0.0000
# 6 0.0000 0.0000 0.0000 6.6357 0.0000 21.1091
#
#
#
# Elastic Compliance Matrix: (Units=1/GPa)
#
#
# Indices 1 2 3 4 5 6 
#
# 1 0.035183 0.008040 -0.004938 0.000000 -0.007759 0.000000
# 2 0.008040 0.024452 -0.010663 0.000000 -0.014094 0.000000
# 3 -0.004938 -0.010663 0.019539 0.000000 0.006197 0.000000
# 4 0.000000 0.000000 0.000000 0.029311 0.000000 -0.009214
# 5 -0.007759 -0.014094 0.006197 0.000000 0.051667 0.000000
# 6 0.000000 0.000000 0.000000 -0.009214 0.000000 0.050269
#
#
# Mechanical properties :
#
#
# Convention : Reuss Voigt Hill
#
# Bulk Modulus (GPa) = 15.61203 23.26335 19.43769
# Shear Modulus (GPa) = 20.25153 25.27419 22.76286
#
# Velocity S-wave (km/s) = 3.05394 3.41170 3.23776
# Velocity P-wave (km/s) = 4.43005 5.12183 4.78845
#
# Compressibility (1/GPa) = 0.06405317
#
# Stress axis : x y z
#
# Youngs Moduli (GPa) = 28.42250 40.89646 51.17917
#
# Poissons Ratio (x) = -0.32881 0.25273
# Poissons Ratio (y) = -0.22852 0.54571
# Poissons Ratio (z) = 0.14035 0.43607
#
# Static dielectric constant tensor:
#      x y z
#    x 1.764970 0.000000 -0.022910 
#    y 0.000000 1.815460 0.000000 
#    z -0.022910 0.000000 1.853910 
# 
# From -- ./inp_files/66179.got.cif
#   From: 2010.05.17/outbox.cif.g08.bks.cpg/sg15_34_cif.got.tgz:66179.got - 2010.06.03 18:47:42.
