data_PCOD9261541
_publ_section_title
;
Structure prediction by ZEFSAII (Michael W. Deem and Ramdas Pophale) SiO2 
 PCOD9261541
Probable space group: C 2/C
;
_chemical_formula_sum "Si O2"
_cell_formula_units_Z 48
_cell_length_a 14.417717
_cell_length_b 23.821178
_cell_length_c 8.956797
_cell_angle_alpha 90.000000
_cell_angle_beta 41.302780
_cell_angle_gamma 90.000000
_cell_volume 2030.399417
_symmetry_space_group_name_H-M "C 2/C"
_symmetry_group_IT_number 15
_symmetry_cell_setting 'monoclinic'
loop_
_space_group_symop_operation_xyz
x,y,z
-x,y,1/2-z
-x,-y,-z
x,-y,1/2+z
1/2+x,1/2+y,z
1/2-x,1/2+y,1/2-z
1/2-x,1/2-y,-z
1/2+x,1/2-y,1/2+z
loop_
_atom_site_type_symbol
_atom_site_label
_atom_site_fract_x
_atom_site_fract_y
_atom_site_fract_z
Si Si1 0.512078 0.720794 0.057165
Si Si2 0.710401 0.632829 0.159879
Si Si3 0.343998 0.056792 0.396345
Si Si4 0.599545 0.534314 0.492633
Si Si5 0.728536 0.621687 0.801565
Si Si6 0.049144 0.656868 0.434636
O O1 0.500000 0.734173 0.250000
O O2 0.359566 0.692902 0.219084
O O3 0.623150 0.671667 0.885151
O O4 0.554530 0.776096 0.916945
O O5 0.638944 0.588849 0.353387
O O6 0.871465 0.638329 0.010943
O O7 0.681308 0.610775 0.028723
O O8 0.500000 0.033291 0.250000
O O9 0.250076 0.020301 0.394642
O O10 0.251047 0.072134 0.654642
O O11 0.378726 0.117360 0.277636
O O12 0.500000 0.547768 0.750000
O O13 0.500000 0.500000 0.500000
O O14 0.885724 0.643985 0.630965
#
# Coordination Sequence:
#
# PCOD9261541 Si02
#       6
#     8   8   8   8   8   8
#     4  10  19  30  51  85 126 169 215 259 305 360
#     4  10  21  37  60  90 123 164 212 261 312 366
#     4   9  21  41  63  91 127 165 210 261 315 376
#     4  11  25  45  69  95 123 159 206 261 322 381
#     4  10  19  34  57  85 124 170 211 256 308 363
#     4  10  19  33  55  88 128 171 213 254 303 364
#
# _framework density 23.640668999999999
#
# number of rings (size 3 to 8) (size 9 to 14) (size 15 to 20)
#    0.000    2.000    0.000    3.500    0.000    6.667 
#    0.000    8.333    0.000    2.000    0.000    0.000 
#    0.000    0.000    0.000    0.000    0.000    0.000 
#
# Total GULP energy -133929.300746 kJ/mol
# GULP energy per Si atom -5580.387531 kJ/mol
# Density = 2.358686 g / cm^3
# Si number density = 23.640669 Si / 1000 Ang^3
#
#
#
# Elastic Constant Matrix: (Units=GPa)
#
#
# Indices 1 2 3 4 5 6 
#
# 1 161.3610 48.1369 46.4405 0.0000 -20.8143 0.0000
# 2 48.1369 64.6934 28.5213 0.0000 -5.3688 0.0000
# 3 46.4405 28.5213 117.8202 0.0000 -3.9970 0.0000
# 4 0.0000 0.0000 0.0000 8.2385 0.0000 3.4552
# 5 -20.8143 -5.3688 -3.9970 0.0000 40.3165 0.0000
# 6 0.0000 0.0000 0.0000 3.4552 0.0000 16.1349
#
#
#
# Elastic Compliance Matrix: (Units=1/GPa)
#
#
# Indices 1 2 3 4 5 6 
#
# 1 0.008871 -0.005385 -0.002069 0.000000 0.003658 0.000000
# 2 -0.005385 0.020719 -0.002903 0.000000 -0.000309 0.000000
# 3 -0.002069 -0.002903 0.009990 0.000000 -0.000464 0.000000
# 4 0.000000 0.000000 0.000000 0.133358 0.000000 -0.028558
# 5 0.003658 -0.000309 -0.000464 0.000000 0.026605 0.000000
# 6 0.000000 0.000000 0.000000 -0.028558 0.000000 0.068093
#
#
# Mechanical properties :
#
#
# Convention : Reuss Voigt Hill
#
# Bulk Modulus (GPa) = 53.00789 65.56353 59.28571
# Shear Modulus (GPa) = 16.96995 27.65638 22.31316
#
# Velocity S-wave (km/s) = 2.68214 3.42404 3.07554
# Velocity P-wave (km/s) = 5.66241 6.58981 6.14363
#
# Compressibility (1/GPa) = 0.01886512
#
# Stress axis : x y z
#
# Youngs Moduli (GPa) = 112.72684 48.26544 100.09902
#
# Poissons Ratio (x) = 0.25991 0.20710
# Poissons Ratio (y) = 0.60704 0.29063
# Poissons Ratio (z) = 0.23323 0.14013
#
# Static dielectric constant tensor:
#      x y z
#    x 1.972080 0.000000 -0.020360 
#    y 0.000000 1.886400 0.000000 
#    z -0.020360 0.000000 1.873240 
# 
# From -- ./inp_files/44423.got.cif
#   From: 2010.05.17/outbox.cif.g08.bks.cpg/sg15_23_cif.got.tgz:44423.got - 2010.06.03 18:47:42.
