data_PCOD9261361
_publ_section_title
;
Structure prediction by ZEFSAII (Michael W. Deem and Ramdas Pophale) SiO2 
 PCOD9261361
Probable space group: C 2/C
;
_chemical_formula_sum "Si O2"
_cell_formula_units_Z 44
_cell_length_a 17.829496
_cell_length_b 28.995098
_cell_length_c 5.240427
_cell_angle_alpha 90.000000
_cell_angle_beta 106.646170
_cell_angle_gamma 90.000000
_cell_volume 2595.598772
_symmetry_space_group_name_H-M "C 2/C"
_symmetry_group_IT_number 15
_symmetry_cell_setting 'monoclinic'
loop_
_space_group_symop_operation_xyz
x,y,z
-x,y,1/2-z
-x,-y,-z
x,-y,1/2+z
1/2+x,1/2+y,z
1/2-x,1/2+y,1/2-z
1/2-x,1/2-y,-z
1/2+x,1/2-y,1/2+z
loop_
_atom_site_type_symbol
_atom_site_label
_atom_site_fract_x
_atom_site_fract_y
_atom_site_fract_z
Si Si1 0.825821 0.031961 0.086475
Si Si2 0.793319 0.677213 0.097424
Si Si3 0.082436 0.182338 0.397893
Si Si4 0.500000 0.468228 0.750000
Si Si5 0.752880 0.872027 0.450026
Si Si6 0.372917 0.731260 0.556237
O O1 0.914006 0.053887 0.166272
O O2 0.765753 0.073885 0.004683
O O3 0.818561 0.002787 0.339820
O O4 0.784535 0.641711 0.856074
O O5 0.712223 0.706430 0.024461
O O6 0.795673 0.651192 0.368369
O O7 0.859376 0.715323 0.108267
O O8 0.160010 0.151024 0.461087
O O9 0.080897 0.205620 0.673616
O O10 0.000000 0.158470 0.250000
O O11 0.093469 0.221190 0.190133
O O12 0.500000 0.500000 0.500000
#
# Coordination Sequence:
#
# PCOD9261361 Si02
#       6
#     8   8   8   4   8   8
#     4  10  19  31  43  58  81 112 146 181 225 258
#     4   9  17  30  45  63  79 107 147 179 216 250
#     4  10  19  29  43  65  88 113 143 179 219 251
#     4   8  16  28  40  52  70 104 142 172 208 258
#     4  10  19  29  45  63  83 110 149 192 212 249
#     4   9  17  30  45  60  85 111 138 178 214 260
#
# _framework density 16.951772999999999
#
# number of rings (size 3 to 8) (size 9 to 14) (size 15 to 20)
#    0.000    2.545    0.000    2.727    1.273    4.364 
#    0.000    0.000    0.000    0.000    0.000    0.000 
#    0.000    0.000    0.000    0.000    0.000  229.091 
#
# Total GULP energy -122556.546889 kJ/mol
# GULP energy per Si atom -5570.752131 kJ/mol
# Density = 1.691319 g / cm^3
# Si number density = 16.951773 Si / 1000 Ang^3
#
#
#
# Elastic Constant Matrix: (Units=GPa)
#
#
# Indices 1 2 3 4 5 6 
#
# 1 13.2705 4.6640 8.0328 0.0000 -11.3443 0.0000
# 2 4.6640 56.9708 0.7056 0.0000 -7.1139 0.0000
# 3 8.0328 0.7056 66.5138 0.0000 -23.3836 0.0000
# 4 0.0000 0.0000 0.0000 13.5621 0.0000 0.2849
# 5 -11.3443 -7.1139 -23.3836 0.0000 23.9706 0.0000
# 6 0.0000 0.0000 0.0000 0.2849 0.0000 12.1373
#
#
#
# Elastic Compliance Matrix: (Units=1/GPa)
#
#
# Indices 1 2 3 4 5 6 
#
# 1 0.130255 -0.002086 0.008744 0.000000 0.069555 0.000000
# 2 -0.002086 0.018562 0.002503 0.000000 0.006963 0.000000
# 3 0.008744 0.002503 0.023846 0.000000 0.028143 0.000000
# 4 0.000000 0.000000 0.000000 0.073771 0.000000 -0.001731
# 5 0.069555 0.006963 0.028143 0.000000 0.104156 0.000000
# 6 0.000000 0.000000 0.000000 -0.001731 0.000000 0.082431
#
#
# Mechanical properties :
#
#
# Convention : Reuss Voigt Hill
#
# Bulk Modulus (GPa) = 5.23604 18.17332 11.70468
# Shear Modulus (GPa) = 10.45237 18.15752 14.30494
#
# Velocity S-wave (km/s) = 2.48583 3.27636 2.90808
# Velocity P-wave (km/s) = 3.36669 5.00566 4.26563
#
# Compressibility (1/GPa) = 0.19098410
#
# Stress axis : x y z
#
# Youngs Moduli (GPa) = 7.67726 53.87310 41.93608
#
# Poissons Ratio (x) = 0.11241 -0.36669
# Poissons Ratio (y) = 0.01602 -0.10497
# Poissons Ratio (z) = -0.06713 -0.13485
#
# Static dielectric constant tensor:
#      x y z
#    x 1.595200 0.000000 0.006730 
#    y 0.000000 1.557150 0.000000 
#    z 0.006730 0.000000 1.565310 
# 
# From -- ./inp_files/10630.got.cif
#   From: 2010.05.17/outbox.cif.g08.bks.cpg/sg15_6_cif.got.tgz:10630.got - 2010.06.03 18:47:42.
