data_PCOD9261237
_publ_section_title
;
Structure prediction by ZEFSAII (Michael W. Deem and Ramdas Pophale) SiO2 
 PCOD9261237
Probable space group: C 2/C
;
_chemical_formula_sum "Si O2"
_cell_formula_units_Z 52
_cell_length_a 14.278064
_cell_length_b 7.444589
_cell_length_c 32.490844
_cell_angle_alpha 90.000000
_cell_angle_beta 142.512275
_cell_angle_gamma 90.000000
_cell_volume 2101.826622
_symmetry_space_group_name_H-M "C 2/C"
_symmetry_group_IT_number 15
_symmetry_cell_setting 'monoclinic'
loop_
_space_group_symop_operation_xyz
x,y,z
-x,y,1/2-z
-x,-y,-z
x,-y,1/2+z
1/2+x,1/2+y,z
1/2-x,1/2+y,1/2-z
1/2-x,1/2-y,-z
1/2+x,1/2-y,1/2+z
loop_
_atom_site_type_symbol
_atom_site_label
_atom_site_fract_x
_atom_site_fract_y
_atom_site_fract_z
Si Si1 0.135068 0.675238 0.228240
Si Si2 0.163732 0.094325 0.658652
Si Si3 0.636408 0.473317 0.990198
Si Si4 0.775559 0.467725 0.392322
Si Si5 0.306440 0.955305 0.630242
Si Si6 0.500000 0.553759 0.750000
Si Si7 0.603413 0.946793 0.476146
O O1 0.289432 0.577548 0.296852
O O2 0.982803 0.547990 0.176442
O O3 0.089119 0.826035 0.246458
O O4 0.158716 0.750388 0.190757
O O5 0.286296 0.067822 0.664685
O O6 0.002642 0.080821 0.578362
O O7 0.794524 0.531280 0.023550
O O8 0.679618 0.482969 0.052965
O O9 0.598612 0.266403 0.967124
O O10 0.741399 0.253673 0.379001
O O11 0.627176 0.552116 0.319756
O O12 0.805708 0.520315 0.449636
O O13 0.930849 0.511824 0.422325
#
# Coordination Sequence:
#
# PCOD9261237 Si02
#       7
#     8   8   8   8   8   4   8
#     4  11  24  44  73  95 141 183 234 284 362 413
#     4  12  24  45  71 102 133 192 229 290 356 422
#     4  11  23  42  67  97 139 174 232 289 347 413
#     4  10  20  39  67  88 133 180 223 279 356 398
#     4  11  23  46  70  97 139 180 227 294 346 421
#     4  10  18  42  64  88 128 184 214 286 338 408
#     4  10  22  38  61  98 134 173 224 287 346 409
#
# _framework density 24.740386000000001
#
# number of rings (size 3 to 8) (size 9 to 14) (size 15 to 20)
#    0.000    1.231    4.615    2.308    0.000    6.154 
#    5.538    0.000    0.000    0.000    0.000    0.000 
#    0.000    0.000    0.000    0.000    0.000    0.000 
#
# Total GULP energy -145480.469240 kJ/mol
# GULP energy per Si atom -5595.402663 kJ/mol
# Density = 2.468408 g / cm^3
# Si number density = 24.740386 Si / 1000 Ang^3
#
#
#
# Elastic Constant Matrix: (Units=GPa)
#
#
# Indices 1 2 3 4 5 6 
#
# 1 93.1775 10.2590 22.2426 0.0000 -24.1437 0.0000
# 2 10.2590 51.0343 -6.9518 0.0002 -5.6419 -0.0001
# 3 22.2426 -6.9518 131.0910 0.0001 -4.9072 0.0000
# 4 0.0000 0.0002 0.0001 32.0297 -0.0001 -8.6057
# 5 -24.1437 -5.6419 -4.9072 -0.0001 30.6615 0.0000
# 6 0.0000 -0.0001 0.0000 -8.6057 0.0000 21.1111
#
#
#
# Elastic Compliance Matrix: (Units=1/GPa)
#
#
# Indices 1 2 3 4 5 6 
#
# 1 0.014163 -0.001980 -0.002117 0.000000 0.010449 0.000000
# 2 -0.001980 0.020470 0.001513 0.000000 0.002449 0.000000
# 3 -0.002117 0.001513 0.008064 0.000000 -0.000098 0.000000
# 4 0.000000 0.000000 0.000000 0.035061 0.000000 0.014292
# 5 0.010449 0.002449 -0.000098 0.000000 0.041277 0.000000
# 6 0.000000 0.000000 0.000000 0.014292 0.000000 0.053195
#
#
# Mechanical properties :
#
#
# Convention : Reuss Voigt Hill
#
# Bulk Modulus (GPa) = 26.64626 36.26696 31.45661
# Shear Modulus (GPa) = 26.32863 33.41066 29.86965
#
# Velocity S-wave (km/s) = 3.26574 3.67883 3.47843
# Velocity P-wave (km/s) = 5.00138 5.72153 5.37353
#
# Compressibility (1/GPa) = 0.03752872
#
# Stress axis : x y z
#
# Youngs Moduli (GPa) = 70.60579 48.85283 124.00696
#
# Poissons Ratio (x) = 0.09674 0.26252
# Poissons Ratio (y) = 0.13982 -0.18765
# Poissons Ratio (z) = 0.14947 -0.07392
#
# Static dielectric constant tensor:
#      x y z
#    x 1.976330 0.000000 0.012300 
#    y 0.000000 1.995510 0.000000 
#    z 0.012300 0.000000 1.937590 
# 
# From -- ./inp_files/313213.got.cif
#   From: 2010.05.17/outbox.cif.g08.bks.cpg/sg15_157_cif.got.tgz:313213.got - 2010.06.03 18:47:42.
