data_PCOD9261351
_publ_section_title
;
Structure prediction by ZEFSAII (Michael W. Deem and Ramdas Pophale) SiO2 
 PCOD9261351
Probable space group: C 2/C
;
_chemical_formula_sum "Si O2"
_cell_formula_units_Z 64
_cell_length_a 11.472399
_cell_length_b 13.943348
_cell_length_c 18.511533
_cell_angle_alpha 90.000000
_cell_angle_beta 51.702609
_cell_angle_gamma 90.000000
_cell_volume 2323.941709
_symmetry_space_group_name_H-M "C 2/C"
_symmetry_group_IT_number 15
_symmetry_cell_setting 'monoclinic'
loop_
_space_group_symop_operation_xyz
x,y,z
-x,y,1/2-z
-x,-y,-z
x,-y,1/2+z
1/2+x,1/2+y,z
1/2-x,1/2+y,1/2-z
1/2-x,1/2-y,-z
1/2+x,1/2-y,1/2+z
loop_
_atom_site_type_symbol
_atom_site_label
_atom_site_fract_x
_atom_site_fract_y
_atom_site_fract_z
Si Si1 0.642949 0.734158 0.107051
Si Si2 0.857354 0.738244 0.141788
Si Si3 0.866568 0.456078 0.383432
Si Si4 0.359071 0.261756 0.641788
Si Si5 0.896880 0.042745 0.601608
Si Si6 0.343070 0.462098 0.406930
Si Si7 0.387789 0.242163 0.362211
Si Si8 0.899905 0.457255 0.101608
O O1 0.745040 0.687804 0.129457
O O2 0.496045 0.687804 0.129457
O O3 0.750000 0.750000 0.000000
O O4 0.606181 0.843282 0.143819
O O5 0.756533 0.759260 0.250000
O O6 0.896592 0.841600 0.092918
O O7 0.010745 0.695929 0.114093
O O8 0.770583 0.489357 0.351614
O O9 0.756165 0.482892 0.493835
O O10 0.026189 0.489357 0.351614
O O11 0.261068 0.304071 0.614093
O O12 0.417573 0.158400 0.592918
O O13 0.984092 0.020684 0.641678
O O14 0.000000 0.000000 0.500000
O O15 0.337752 0.345519 0.412248
O O16 0.267449 0.479316 0.358321
O O17 0.500000 0.254733 0.250000
O O18 0.000000 0.500000 0.000000
#
# Coordination Sequence:
#
# PCOD9261351 Si02
#       8
#     8   8   8   8   8   8   8   8
#     4  10  19  29  40  56  81 116 153 191 224 249
#     4   9  16  27  43  62  82 107 140 179 220 263
#     4   8  14  23  35  51  74 104 135 164 199 243
#     4   9  16  27  43  62  82 107 140 179 220 263
#     4   8  13  21  35  57  82 105 127 156 199 254
#     4   8  12  20  35  55  79 102 121 150 194 250
#     4   8  14  24  41  64  85 100 121 161 216 268
#     4   8  13  21  35  57  82 105 127 156 199 254
#
# _framework density 27.539418000000001
#
# number of rings (size 3 to 8) (size 9 to 14) (size 15 to 20)
#    0.000    3.500    0.000    0.375    0.000    0.000 
#    0.000    0.625    0.000    1.500    0.000   10.500 
#    0.000    0.000    0.000  122.000    0.000    0.000 
#
# Total GULP energy -178482.154364 kJ/mol
# GULP energy per Si atom -5577.567324 kJ/mol
# Density = 2.747674 g / cm^3
# Si number density = 27.539418 Si / 1000 Ang^3
#
#
#
# Elastic Constant Matrix: (Units=GPa)
#
#
# Indices 1 2 3 4 5 6 
#
# 1 442.8181 11.3950 26.3985 0.0000 5.8817 0.0000
# 2 11.3950 134.4201 -21.5110 0.0000 0.4881 0.0000
# 3 26.3985 -21.5110 98.5668 0.0000 -0.7756 0.0000
# 4 0.0000 0.0000 0.0000 -81.8590 0.0000 0.7915
# 5 5.8817 0.4881 -0.7756 0.0000 10.0385 0.0000
# 6 0.0000 0.0000 0.0000 0.7915 0.0000 -28.5036
#
#
#
# Elastic Compliance Matrix: (Units=1/GPa)
#
#
# Indices 1 2 3 4 5 6 
#
# 1 0.002326 -0.000304 -0.000701 0.000000 -0.001402 0.000000
# 2 -0.000304 0.007749 0.001772 0.000000 -0.000062 0.000000
# 3 -0.000701 0.001772 0.010729 0.000000 0.001153 0.000000
# 4 0.000000 0.000000 0.000000 -0.012219 0.000000 -0.000339
# 5 -0.001402 -0.000062 0.001153 0.000000 0.100531 0.000000
# 6 0.000000 0.000000 0.000000 -0.000339 0.000000 -0.035093
#
#
# Mechanical properties :
#
#
# Convention : Reuss Voigt Hill
#
# Bulk Modulus (GPa) = 44.76470 78.70777 61.73624
# Shear Modulus (GPa) = 62.55130 23.90334 43.22732
#
# Velocity S-wave (km/s) = 4.77103 2.94933 3.96618
# Velocity P-wave (km/s) = 6.82937 6.34351 6.59092
#
# Compressibility (1/GPa) = 0.02233903
#
# Stress axis : x y z
#
# Youngs Moduli (GPa) = 429.83361 129.04948 93.20670
#
# Poissons Ratio (x) = 0.03926 0.06529
# Poissons Ratio (y) = 0.13077 -0.16517
# Poissons Ratio (z) = 0.30111 -0.22869
#
# Static dielectric constant tensor:
#      x y z
#    x 2.240840 0.000000 0.003310 
#    y 0.000000 2.066410 0.000000 
#    z 0.003310 0.000000 2.017510 
# 
# From -- ./inp_files/200775.got.cif
#   From: 2010.05.17/outbox.cif.g08.bks.cpg/sg15_101_cif.got.tgz:200775.got - 2010.06.03 18:47:42.
