data_PCOD9261606
_publ_section_title
;
Structure prediction by ZEFSAII (Michael W. Deem and Ramdas Pophale) SiO2 
 PCOD9261606
Probable space group: C 2/C
;
_chemical_formula_sum "Si O2"
_cell_formula_units_Z 48
_cell_length_a 14.295829
_cell_length_b 5.044611
_cell_length_c 27.598479
_cell_angle_alpha 90.000000
_cell_angle_beta 73.253095
_cell_angle_gamma 90.000000
_cell_volume 1905.901201
_symmetry_space_group_name_H-M "C 2/C"
_symmetry_group_IT_number 15
_symmetry_cell_setting 'monoclinic'
loop_
_space_group_symop_operation_xyz
x,y,z
-x,y,1/2-z
-x,-y,-z
x,-y,1/2+z
1/2+x,1/2+y,z
1/2-x,1/2+y,1/2-z
1/2-x,1/2-y,-z
1/2+x,1/2-y,1/2+z
loop_
_atom_site_type_symbol
_atom_site_label
_atom_site_fract_x
_atom_site_fract_y
_atom_site_fract_z
Si Si1 0.697524 0.896496 0.050643
Si Si2 0.507790 0.882289 0.552622
Si Si3 0.240769 0.594124 0.142712
Si Si4 0.686345 0.477708 0.270342
Si Si5 0.999987 0.124953 0.390666
Si Si6 0.887381 0.092811 0.317747
O O1 0.761449 0.007705 0.084899
O O2 0.615840 0.692513 0.081903
O O3 0.750000 0.750000 0.000000
O O4 0.624839 0.125685 0.043550
O O5 0.541324 0.908019 0.402352
O O6 0.500000 0.000000 0.500000
O O7 0.471718 0.598459 0.575029
O O8 0.324014 0.545239 0.170804
O O9 0.197586 0.887541 0.152612
O O10 0.152441 0.393402 0.171127
O O11 0.775280 0.677927 0.241459
O O12 0.608429 0.533985 0.240092
O O13 0.981840 0.048771 0.337406
#
# Coordination Sequence:
#
# PCOD9261606 Si02
#       6
#     8   8   8   8   8   8
#     4   9  19  29  44  62  87 118 142 172 208 256
#     4  10  19  31  44  59  83 114 143 179 212 244
#     4   9  15  25  35  56  82 110 135 161 204 252
#     4   8  14  20  36  52  77 107 130 157 203 256
#     4   9  17  29  44  60  84 111 140 173 211 251
#     4   9  13  25  37  57  78 108 132 165 209 253
#
# _framework density 25.184937000000001
#
# number of rings (size 3 to 8) (size 9 to 14) (size 15 to 20)
#    1.000    2.000    1.667    0.500    0.000    0.667 
#    0.000    0.000    0.000    0.000    0.000    0.000 
#    0.000    1.333    1.000    0.167    0.000    0.000 
#
# Total GULP energy -133778.384934 kJ/mol
# GULP energy per Si atom -5574.099372 kJ/mol
# Density = 2.512761 g / cm^3
# Si number density = 25.184937 Si / 1000 Ang^3
#
#
#
# Elastic Constant Matrix: (Units=GPa)
#
#
# Indices 1 2 3 4 5 6 
#
# 1 81.9835 -7.1293 11.8744 -0.0001 44.6597 -0.0003
# 2 -7.1293 91.5720 -25.3714 -0.0002 7.3654 -0.0012
# 3 11.8744 -25.3714 120.1788 0.0006 32.9471 0.0001
# 4 -0.0001 -0.0002 0.0006 31.9986 0.0002 15.6048
# 5 44.6597 7.3654 32.9471 0.0002 54.2867 -0.0001
# 6 -0.0003 -0.0012 0.0001 15.6048 -0.0001 -3.8329
#
#
#
# Elastic Compliance Matrix: (Units=1/GPa)
#
#
# Indices 1 2 3 4 5 6 
#
# 1 0.025587 0.005552 0.005544 0.000001 -0.025167 -0.000001
# 2 0.005552 0.013447 0.004850 0.000001 -0.009335 -0.000001
# 3 0.005544 0.004850 0.012269 0.000000 -0.012665 -0.000001
# 4 0.000001 0.000001 0.000000 0.010468 -0.000001 0.042618
# 5 -0.025167 -0.009335 -0.012665 -0.000001 0.048078 0.000001
# 6 -0.000001 -0.000001 -0.000001 0.042618 0.000001 -0.087390
#
#
# Mechanical properties :
#
#
# Convention : Reuss Voigt Hill
#
# Bulk Modulus (GPa) = 12.02002 28.05353 20.03678
# Shear Modulus (GPa) = 273.22962 37.44785 155.33874
#
# Velocity S-wave (km/s) = 10.42712 3.86024 7.86213
# Velocity P-wave (km/s) = 12.23722 5.57062 9.50740
#
# Compressibility (1/GPa) = 0.08319452
#
# Stress axis : x y z
#
# Youngs Moduli (GPa) = 39.08211 74.36512 81.50588
#
# Poissons Ratio (x) = -0.41290 -0.45184
# Poissons Ratio (y) = -0.21700 -0.39527
# Poissons Ratio (z) = -0.21666 -0.36064
#
# Static dielectric constant tensor:
#      x y z
#    x 2.158750 0.000000 -0.016530 
#    y 0.000000 1.932580 0.000000 
#    z -0.016530 0.000000 2.117210 
# 
# From -- ./inp_files/297308.got.cif
#   From: 2010.05.17/outbox.cif.g08.bks.cpg/sg15_149_cif.got.tgz:297308.got - 2010.06.03 18:47:42.
