data_PCOD9261566
_publ_section_title
;
Structure prediction by ZEFSAII (Michael W. Deem and Ramdas Pophale) SiO2 
 PCOD9261566
Probable space group: C 2/C
;
_chemical_formula_sum "Si O2"
_cell_formula_units_Z 32
_cell_length_a 10.320697
_cell_length_b 31.006390
_cell_length_c 5.249501
_cell_angle_alpha 90.000000
_cell_angle_beta 89.749633
_cell_angle_gamma 90.000000
_cell_volume 1679.863948
_symmetry_space_group_name_H-M "C 2/C"
_symmetry_group_IT_number 15
_symmetry_cell_setting 'monoclinic'
loop_
_space_group_symop_operation_xyz
x,y,z
-x,y,1/2-z
-x,-y,-z
x,-y,1/2+z
1/2+x,1/2+y,z
1/2-x,1/2+y,1/2-z
1/2-x,1/2-y,-z
1/2+x,1/2-y,1/2+z
loop_
_atom_site_type_symbol
_atom_site_label
_atom_site_fract_x
_atom_site_fract_y
_atom_site_fract_z
Si Si1 0.000000 0.727781 0.250000
Si Si2 0.647437 0.982707 0.449627
Si Si3 0.349339 0.115878 0.730901
Si Si4 0.736975 0.162133 0.275258
Si Si5 0.000000 0.214277 0.250000
O O1 0.875934 0.697795 0.198566
O O2 0.976733 0.756567 0.500494
O O3 0.649526 0.934359 0.345906
O O4 0.500000 0.000000 0.500000
O O5 0.707897 0.987855 0.727974
O O6 0.500000 0.129409 0.750000
O O7 0.281696 0.141185 0.501886
O O8 0.285677 0.127283 0.001165
O O9 0.874496 0.185002 0.298351
#
# Coordination Sequence:
#
# PCOD9261566 Si02
#       5
#     4   8   8   8   4
#     4  12  22  42  66  88 116 150 210 260 302 344
#     4  10  19  30  53  86 129 149 183 242 308 340
#     4  12  21  37  59  91 128 154 193 246 305 352
#     4  12  25  40  63  89 122 159 201 249 301 359
#     4  12  26  44  60  88 120 162 202 246 306 362
#
# _framework density 19.049163
#
# number of rings (size 3 to 8) (size 9 to 14) (size 15 to 20)
#    0.000    0.500    5.000    6.000    3.500    0.000 
#    0.000    0.000    0.000    0.000    0.000   17.500 
#    0.000    0.000    0.000    0.000    0.000    0.000 
#
# Total GULP energy -89395.937856 kJ/mol
# GULP energy per Si atom -5587.246116 kJ/mol
# Density = 1.900581 g / cm^3
# Si number density = 19.049163 Si / 1000 Ang^3
#
#
#
# Elastic Constant Matrix: (Units=GPa)
#
#
# Indices 1 2 3 4 5 6 
#
# 1 74.5954 39.1899 17.7833 0.0000 -17.3998 0.0000
# 2 39.1899 88.5787 27.9175 0.0000 0.0542 0.0000
# 3 17.7833 27.9175 136.8609 0.0000 20.9420 0.0000
# 4 0.0000 0.0000 0.0000 53.4063 0.0000 5.6418
# 5 -17.3998 0.0542 20.9420 0.0000 20.8643 0.0000
# 6 0.0000 0.0000 0.0000 5.6418 0.0000 -25.9204
#
#
#
# Elastic Compliance Matrix: (Units=1/GPa)
#
#
# Indices 1 2 3 4 5 6 
#
# 1 0.026451 -0.009936 -0.005659 0.000000 0.027764 0.000000
# 2 -0.009936 0.015946 -0.000812 0.000000 -0.007513 0.000000
# 3 -0.005659 -0.000812 0.010550 0.000000 -0.015306 0.000000
# 4 0.000000 0.000000 0.000000 0.018304 0.000000 0.003984
# 5 0.027764 -0.007513 -0.015306 0.000000 0.086465 0.000000
# 6 0.000000 0.000000 0.000000 0.003984 0.000000 -0.037713
#
#
# Mechanical properties :
#
#
# Convention : Reuss Voigt Hill
#
# Bulk Modulus (GPa) = 49.66998 52.20182 50.93590
# Shear Modulus (GPa) = 31.34248 24.01300 27.67774
#
# Velocity S-wave (km/s) = 4.06069 3.55432 3.81591
# Velocity P-wave (km/s) = 6.93663 6.65638 6.79795
#
# Compressibility (1/GPa) = 0.02013288
#
# Stress axis : x y z
#
# Youngs Moduli (GPa) = 37.80572 62.71140 94.79007
#
# Poissons Ratio (x) = 0.62312 0.53637
# Poissons Ratio (y) = 0.37565 0.07698
# Poissons Ratio (z) = 0.21392 0.05093
#
# Static dielectric constant tensor:
#      x y z
#    x 1.714580 0.000000 0.079070 
#    y 0.000000 1.676550 0.000000 
#    z 0.079070 0.000000 1.723310 
# 
# From -- ./inp_files/2404.got.cif
#   From: 2010.05.17/outbox.cif.g08.bks.cpg/sg15_2_cif.got.tgz:2404.got - 2010.06.03 18:47:42.
