data_PCOD9261710
_publ_section_title
;
Structure prediction by ZEFSAII (Michael W. Deem and Ramdas Pophale) SiO2 
 PCOD9261710
Probable space group: C 2/C
;
_chemical_formula_sum "Si O2"
_cell_formula_units_Z 60
_cell_length_a 9.179307
_cell_length_b 18.130368
_cell_length_c 23.070605
_cell_angle_alpha 90.000000
_cell_angle_beta 126.288620
_cell_angle_gamma 90.000000
_cell_volume 3094.818930
_symmetry_space_group_name_H-M "C 2/C"
_symmetry_group_IT_number 15
_symmetry_cell_setting 'monoclinic'
loop_
_space_group_symop_operation_xyz
x,y,z
-x,y,1/2-z
-x,-y,-z
x,-y,1/2+z
1/2+x,1/2+y,z
1/2-x,1/2+y,1/2-z
1/2-x,1/2-y,-z
1/2+x,1/2-y,1/2+z
loop_
_atom_site_type_symbol
_atom_site_label
_atom_site_fract_x
_atom_site_fract_y
_atom_site_fract_z
Si Si1 0.977711 0.217906 0.923902
Si Si2 0.517640 0.074344 0.966283
Si Si3 0.709733 0.210361 0.583609
Si Si4 0.000000 0.406998 0.750000
Si Si5 0.025638 0.455706 0.883443
Si Si6 0.122306 0.165109 0.147412
Si Si7 0.073104 0.082830 0.015043
Si Si8 0.754824 0.853295 0.615360
O O1 0.085019 0.221718 0.888544
O O2 0.806433 0.270907 0.882345
O O3 0.097832 0.255415 0.003353
O O4 0.967309 0.134293 0.944528
O O5 0.341837 0.125099 0.925196
O O6 0.543162 0.039229 0.909641
O O7 0.673258 0.123319 0.032689
O O8 0.500000 0.000000 0.000000
O O9 0.644934 0.253125 0.625617
O O10 0.022091 0.452362 0.813865
O O11 0.180349 0.359031 0.786028
O O12 0.211443 0.416458 0.948817
O O13 0.853179 0.410763 0.868550
O O14 0.067435 0.117221 0.077806
O O15 0.969459 0.148894 0.158823
O O16 0.000000 0.000000 0.000000
#
# Coordination Sequence:
#
# PCOD9261710 Si02
#       8
#     8   8   8   4   8   8   8   8
#     4   9  16  29  49  77 111 141 166 205 264 332
#     4   9  17  30  54  86 115 137 167 218 278 331
#     4   9  17  31  51  76 110 144 173 208 265 328
#     4  10  22  40  56  70 100 146 196 228 258 320
#     4  10  20  35  55  78 109 147 181 220 266 323
#     4  10  21  34  53  77 102 141 185 227 268 317
#     4  10  19  31  50  79 113 144 173 214 275 330
#     4  10  19  32  54  85 110 133 173 226 285 331
#
# _framework density 19.387239999999998
#
# number of rings (size 3 to 8) (size 9 to 14) (size 15 to 20)
#    0.000    2.400    0.000    5.600    0.000    7.467 
#    0.000    0.000    0.000   11.200    0.000    0.000 
#    0.000    0.000    0.000    0.000    0.000    0.000 
#
# Total GULP energy -167137.961731 kJ/mol
# GULP energy per Si atom -5571.265391 kJ/mol
# Density = 1.934311 g / cm^3
# Si number density = 19.387240 Si / 1000 Ang^3
#
#
#
# Elastic Constant Matrix: (Units=GPa)
#
#
# Indices 1 2 3 4 5 6 
#
# 1 130.9280 35.1021 21.9385 0.0000 13.9273 0.0000
# 2 35.1021 111.1944 12.9350 0.0000 -2.8618 0.0000
# 3 21.9385 12.9350 39.3462 0.0000 -3.7707 0.0000
# 4 0.0000 0.0000 0.0000 11.5241 0.0000 -4.8481
# 5 13.9273 -2.8618 -3.7707 0.0000 22.9712 0.0000
# 6 0.0000 0.0000 0.0000 -4.8481 0.0000 29.3222
#
#
#
# Elastic Compliance Matrix: (Units=1/GPa)
#
#
# Indices 1 2 3 4 5 6 
#
# 1 0.010057 -0.002734 -0.005411 0.000000 -0.007326 0.000000
# 2 -0.002734 0.010104 -0.001542 0.000000 0.002663 0.000000
# 3 -0.005411 -0.001542 0.029703 0.000000 0.007964 0.000000
# 4 0.000000 0.000000 0.000000 0.093262 0.000000 0.015420
# 5 -0.007326 0.002663 0.007964 0.000000 0.049614 0.000000
# 6 0.000000 0.000000 0.000000 0.015420 0.000000 0.036653
#
#
# Mechanical properties :
#
#
# Convention : Reuss Voigt Hill
#
# Bulk Modulus (GPa) = 32.79773 46.82444 39.81108
# Shear Modulus (GPa) = 19.31033 26.86303 23.08668
#
# Velocity S-wave (km/s) = 3.15942 3.72641 3.45457
# Velocity P-wave (km/s) = 5.50120 6.53601 6.04080
#
# Compressibility (1/GPa) = 0.03048991
#
# Stress axis : x y z
#
# Youngs Moduli (GPa) = 99.43661 98.96848 33.66719
#
# Poissons Ratio (x) = 0.27056 0.18216
# Poissons Ratio (y) = 0.27184 0.05192
# Poissons Ratio (z) = 0.53802 0.15263
#
# Static dielectric constant tensor:
#      x y z
#    x 1.757150 0.000000 -0.018630 
#    y 0.000000 1.702490 0.000000 
#    z -0.018630 0.000000 1.695800 
# 
# From -- ./inp_files/265549.got.cif
#   From: 2010.05.17/outbox.cif.g08.bks.cpg/sg15_133_cif.got.tgz:265549.got - 2010.06.03 18:47:42.
