data_PCOD9261791
_publ_section_title
;
Structure prediction by ZEFSAII (Michael W. Deem and Ramdas Pophale) SiO2 
 PCOD9261791
Probable space group: C 2/C
;
_chemical_formula_sum "Si O2"
_cell_formula_units_Z 64
_cell_length_a 11.579439
_cell_length_b 18.172535
_cell_length_c 26.011191
_cell_angle_alpha 90.000000
_cell_angle_beta 32.711172
_cell_angle_gamma 90.000000
_cell_volume 2957.890848
_symmetry_space_group_name_H-M "C 2/C"
_symmetry_group_IT_number 15
_symmetry_cell_setting 'monoclinic'
loop_
_space_group_symop_operation_xyz
x,y,z
-x,y,1/2-z
-x,-y,-z
x,-y,1/2+z
1/2+x,1/2+y,z
1/2-x,1/2+y,1/2-z
1/2-x,1/2-y,-z
1/2+x,1/2-y,1/2+z
loop_
_atom_site_type_symbol
_atom_site_label
_atom_site_fract_x
_atom_site_fract_y
_atom_site_fract_z
Si Si1 0.484676 0.611978 0.853179
Si Si2 0.993439 0.351327 0.504743
Si Si3 0.815892 0.470985 0.396107
Si Si4 0.599729 0.520435 0.379322
Si Si5 0.113178 0.388781 0.796845
Si Si6 0.605213 0.112878 0.860010
Si Si7 0.257734 0.465176 0.843419
Si Si8 0.996450 0.252780 0.598108
O O1 0.235856 0.624145 0.931576
O O2 0.526426 0.530653 0.859405
O O3 0.651539 0.629512 0.745572
O O4 0.558696 0.669253 0.869326
O O5 0.006320 0.333164 0.439495
O O6 0.926564 0.287453 0.569935
O O7 0.825759 0.416843 0.578424
O O8 0.749104 0.473224 0.361808
O O9 0.606703 0.460678 0.509657
O O10 0.915470 0.553285 0.367825
O O11 0.979733 0.409345 0.355250
O O12 0.734820 0.589613 0.307503
O O13 0.233664 0.413625 0.803059
O O14 0.055381 0.305514 0.833364
O O15 0.610937 0.035336 0.888586
O O16 0.500000 0.490087 0.750000
O O17 0.250000 0.250000 0.500000
#
# Coordination Sequence:
#
# PCOD9261791 Si02
#       8
#     8   8   8   8   8   8   8   8
#     4  11  20  37  62  86 119 160 197 255 308 364
#     4  10  21  35  57  88 122 150 202 244 309 367
#     4  10  22  37  57  92 116 165 202 258 305 355
#     4  11  21  37  63  85 124 156 215 251 305 365
#     4  10  20  37  60  90 119 152 214 255 302 371
#     4  11  21  33  57  86 122 149 199 247 303 366
#     4  10  19  31  53  87 118 152 181 241 308 354
#     4   9  20  39  60  86 122 161 203 255 313 365
#
# _framework density 21.637039000000001
#
# number of rings (size 3 to 8) (size 9 to 14) (size 15 to 20)
#    0.000    1.750    2.500    4.875    1.750    0.000 
#    0.000    7.500   11.000    1.500    0.000    0.000 
#    0.000    0.000    0.000    0.000    0.000    0.000 
#
# Total GULP energy -178371.510630 kJ/mol
# GULP energy per Si atom -5574.109707 kJ/mol
# Density = 2.158779 g / cm^3
# Si number density = 21.637039 Si / 1000 Ang^3
#
#
#
# Elastic Constant Matrix: (Units=GPa)
#
#
# Indices 1 2 3 4 5 6 
#
# 1 54.7033 -11.7741 -5.8803 0.0109 -4.8928 -0.0009
# 2 -11.7741 35.8681 -4.1814 0.0112 -7.0193 -0.0062
# 3 -5.8803 -4.1814 94.4918 0.0169 0.6354 -0.0167
# 4 0.0109 0.0112 0.0169 25.6825 -0.0033 1.9751
# 5 -4.8928 -7.0193 0.6354 -0.0033 26.3706 -0.0029
# 6 -0.0009 -0.0062 -0.0167 1.9751 -0.0029 15.5870
#
#
#
# Elastic Compliance Matrix: (Units=1/GPa)
#
#
# Indices 1 2 3 4 5 6 
#
# 1 0.020748 0.008170 0.001612 -0.000013 0.005985 0.000009
# 2 0.008170 0.032777 0.001890 -0.000019 0.010195 0.000020
# 3 0.001612 0.001890 0.010763 -0.000010 0.000543 0.000014
# 4 -0.000013 -0.000019 -0.000010 0.039320 -0.000003 -0.004982
# 5 0.005985 0.010195 0.000543 -0.000003 0.041732 0.000013
# 6 0.000009 0.000020 0.000014 -0.004982 0.000013 0.064787
#
#
# Mechanical properties :
#
#
# Convention : Reuss Voigt Hill
#
# Bulk Modulus (GPa) = 11.41118 15.71017 13.56068
# Shear Modulus (GPa) = 23.14884 27.32129 25.23506
#
# Velocity S-wave (km/s) = 3.27444 3.55732 3.41880
# Velocity P-wave (km/s) = 4.42507 4.91418 4.67603
#
# Compressibility (1/GPa) = 0.08763334
#
# Stress axis : x y z
#
# Youngs Moduli (GPa) = 48.19842 30.50899 92.90851
#
# Poissons Ratio (x) = -0.24925 -0.14981
# Poissons Ratio (y) = -0.39378 -0.17563
# Poissons Ratio (z) = -0.07772 -0.05767
#
# Static dielectric constant tensor:
#      x y z
#    x 1.843250 0.000000 0.018320 
#    y 0.000000 1.818060 0.000010 
#    z 0.018320 0.000010 1.827310 
# 
# From -- ./inp_files/293742.got.cif
#   From: 2010.05.17/outbox.cif.g08.bks.cpg/sg15_147_cif.got.tgz:293742.got - 2010.06.03 18:47:42.
