data_PCOD9261729
_publ_section_title
;
Structure prediction by ZEFSAII (Michael W. Deem and Ramdas Pophale) SiO2 
 PCOD9261729
Probable space group: C 2/C
;
_chemical_formula_sum "Si O2"
_cell_formula_units_Z 64
_cell_length_a 9.652845
_cell_length_b 30.724777
_cell_length_c 17.731430
_cell_angle_alpha 90.000000
_cell_angle_beta 137.546398
_cell_angle_gamma 90.000000
_cell_volume 3549.662518
_symmetry_space_group_name_H-M "C 2/C"
_symmetry_group_IT_number 15
_symmetry_cell_setting 'monoclinic'
loop_
_space_group_symop_operation_xyz
x,y,z
-x,y,1/2-z
-x,-y,-z
x,-y,1/2+z
1/2+x,1/2+y,z
1/2-x,1/2+y,1/2-z
1/2-x,1/2-y,-z
1/2+x,1/2-y,1/2+z
loop_
_atom_site_type_symbol
_atom_site_label
_atom_site_fract_x
_atom_site_fract_y
_atom_site_fract_z
Si Si1 0.230738 0.763545 0.865188
Si Si2 0.900045 0.051824 0.514905
Si Si3 0.767460 0.513565 0.188047
Si Si4 0.585750 0.809249 0.421132
Si Si5 0.519402 0.004537 0.919590
Si Si6 0.610405 0.721853 0.717581
Si Si7 0.985299 0.401922 0.332564
Si Si8 0.479915 0.374425 0.330407
O O1 0.197375 0.719318 0.901139
O O2 0.365229 0.753265 0.844889
O O3 0.000000 0.776931 0.750000
O O4 0.325973 0.797440 0.961849
O O5 0.840960 0.052329 0.402371
O O6 0.895960 0.095942 0.561027
O O7 0.726088 0.020075 0.478252
O O8 0.118086 0.027400 0.612830
O O9 0.820374 0.516168 0.297351
O O10 0.000000 0.508344 0.250000
O O11 0.346661 0.793802 0.326626
O O12 0.610367 0.859634 0.409564
O O13 0.528862 0.054584 0.896488
O O14 0.500000 0.000000 0.000000
O O15 0.500000 0.738546 0.750000
O O16 0.490387 0.677227 0.648594
O O17 0.753639 0.386479 0.248912
O O18 0.000000 0.409920 0.250000
O O19 0.500000 0.385233 0.250000
#
# Coordination Sequence:
#
# PCOD9261729 Si02
#       8
#     8   8   8   8   8   8   8   8
#     4   9  17  34  54  79 112 143 171 210 271 332
#     4  10  19  31  52  71 101 140 178 222 275 312
#     4   9  19  34  47  72  98 134 180 224 268 317
#     4   9  18  32  56  81 106 141 176 220 272 315
#     4  11  22  34  52  76 109 144 181 226 272 319
#     4   9  18  31  50  84 110 134 177 221 258 323
#     4  11  20  34  57  81 105 130 185 230 263 310
#     4  10  19  31  51  78 108 136 175 227 275 308
#
# _framework density 18.029883999999999
#
# number of rings (size 3 to 8) (size 9 to 14) (size 15 to 20)
#    0.000    2.250    1.250    3.750    1.750    0.500 
#    0.000    0.000    2.750    1.500    0.000    2.625 
#    0.000    0.000    0.000    0.000    0.000    0.000 
#
# Total GULP energy -178212.270270 kJ/mol
# GULP energy per Si atom -5569.133446 kJ/mol
# Density = 1.798885 g / cm^3
# Si number density = 18.029884 Si / 1000 Ang^3
#
#
#
# Elastic Constant Matrix: (Units=GPa)
#
#
# Indices 1 2 3 4 5 6 
#
# 1 105.6799 16.6374 31.7216 0.0000 -27.0205 0.0000
# 2 16.6374 70.0233 36.5626 0.0000 -23.2341 0.0000
# 3 31.7216 36.5626 113.4650 0.0000 -31.5733 0.0000
# 4 0.0000 0.0000 0.0000 31.4056 0.0000 -6.7076
# 5 -27.0205 -23.2341 -31.5733 0.0000 36.6838 0.0000
# 6 0.0000 0.0000 0.0000 -6.7076 0.0000 19.0120
#
#
#
# Elastic Compliance Matrix: (Units=1/GPa)
#
#
# Indices 1 2 3 4 5 6 
#
# 1 0.011784 0.000475 -0.001247 0.000000 0.007907 0.000000
# 2 0.000475 0.019203 -0.003733 0.000000 0.009299 0.000000
# 3 -0.001247 -0.003733 0.012428 0.000000 0.007413 0.000000
# 4 0.000000 0.000000 0.000000 0.034436 0.000000 0.012150
# 5 0.007907 0.009299 0.007413 0.000000 0.045355 0.000000
# 6 0.000000 0.000000 0.000000 0.012150 0.000000 0.056885
#
#
# Mechanical properties :
#
#
# Convention : Reuss Voigt Hill
#
# Bulk Modulus (GPa) = 29.06635 51.00125 40.03380
# Shear Modulus (GPa) = 24.92912 31.03672 27.98292
#
# Velocity S-wave (km/s) = 3.72244 4.15348 3.94385
# Velocity P-wave (km/s) = 5.88486 7.16592 6.55675
#
# Compressibility (1/GPa) = 0.03440405
#
# Stress axis : x y z
#
# Youngs Moduli (GPa) = 84.86201 52.07564 80.46487
#
# Poissons Ratio (x) = -0.02474 0.10036
# Poissons Ratio (y) = -0.04031 0.30038
# Poissons Ratio (z) = 0.10584 0.19440
#
# Static dielectric constant tensor:
#      x y z
#    x 1.666900 0.000000 -0.023670 
#    y 0.000000 1.631880 0.000000 
#    z -0.023670 0.000000 1.645440 
# 
# From -- ./inp_files/194254.got.cif
#   From: 2010.05.17/outbox.cif.g08.bks.cpg/sg15_98_cif.got.tgz:194254.got - 2010.06.03 18:47:42.
