data_PCOD9261642
_publ_section_title
;
Structure prediction by ZEFSAII (Michael W. Deem and Ramdas Pophale) SiO2 
 PCOD9261642
Probable space group: C 2/C
;
_chemical_formula_sum "Si O2"
_cell_formula_units_Z 64
_cell_length_a 22.635935
_cell_length_b 7.160606
_cell_length_c 13.579594
_cell_angle_alpha 90.000000
_cell_angle_beta 90.216543
_cell_angle_gamma 90.000000
_cell_volume 2201.060095
_symmetry_space_group_name_H-M "C 2/C"
_symmetry_group_IT_number 15
_symmetry_cell_setting 'monoclinic'
loop_
_space_group_symop_operation_xyz
x,y,z
-x,y,1/2-z
-x,-y,-z
x,-y,1/2+z
1/2+x,1/2+y,z
1/2-x,1/2+y,1/2-z
1/2-x,1/2-y,-z
1/2+x,1/2-y,1/2+z
loop_
_atom_site_type_symbol
_atom_site_label
_atom_site_fract_x
_atom_site_fract_y
_atom_site_fract_z
Si Si1 0.202116 0.462984 0.312028
Si Si2 0.546848 0.978679 0.119679
Si Si3 0.170175 0.989435 0.631275
Si Si4 0.828499 0.573591 0.917312
Si Si5 0.202247 0.911806 0.935943
Si Si6 0.421611 0.997720 0.653355
Si Si7 0.921778 0.937192 0.602613
Si Si8 0.954288 0.973676 0.877239
O O1 0.269177 0.535265 0.309745
O O2 0.180945 0.448552 0.200471
O O3 0.208803 0.267491 0.367859
O O4 0.146393 0.565935 0.363870
O O5 0.607223 0.016651 0.059943
O O6 0.561786 0.037278 0.232159
O O7 0.481542 0.058513 0.095358
O O8 0.541916 0.752510 0.121519
O O9 0.164228 0.795396 0.571962
O O10 0.106664 0.020865 0.680145
O O11 0.181480 0.141519 0.546456
O O12 0.764094 0.515033 0.954819
O O13 0.144723 0.012674 0.890171
O O14 0.418021 0.223420 0.639710
O O15 0.979416 0.030885 0.651273
O O16 0.939848 0.949060 0.486671
#
# Coordination Sequence:
#
# PCOD9261642 Si02
#       8
#     8   8   8   8   8   8   8   8
#     4  10  19  31  48  69  93 121 153 190 231 274
#     4   8  14  25  42  63  84 110 149 190 221 258
#     4  10  19  31  48  70  96 124 154 189 229 274
#     4  10  19  31  48  69  93 121 153 190 231 274
#     4  10  19  31  48  70  96 124 154 189 229 274
#     4   8  14  25  42  63  84 110 149 190 221 258
#     4   8  14  25  42  64  88 114 146 185 226 266
#     4   8  14  25  42  64  88 114 146 185 226 266
#
# _framework density 29.076898
#
# number of rings (size 3 to 8) (size 9 to 14) (size 15 to 20)
#    0.000    3.000    0.000    1.500    0.000    1.000 
#    0.000    0.000    0.000    2.250    0.000    0.000 
#    0.000    0.000    0.000    0.000    0.000    0.000 
#
# Total GULP energy -178811.429671 kJ/mol
# GULP energy per Si atom -5587.857177 kJ/mol
# Density = 2.901072 g / cm^3
# Si number density = 29.076898 Si / 1000 Ang^3
#
#
#
# Elastic Constant Matrix: (Units=GPa)
#
#
# Indices 1 2 3 4 5 6 
#
# 1 398.5508 36.4644 45.2699 0.0000 -18.4759 0.0000
# 2 36.4644 93.1125 3.0721 0.0000 -6.2983 0.0000
# 3 45.2699 3.0721 80.5100 0.0000 -0.3424 0.0000
# 4 0.0000 0.0000 0.0000 25.6478 0.0000 -1.5484
# 5 -18.4759 -6.2983 -0.3424 0.0000 55.8280 0.0000
# 6 0.0000 0.0000 0.0000 -1.5484 0.0000 23.4356
#
#
#
# Elastic Compliance Matrix: (Units=1/GPa)
#
#
# Indices 1 2 3 4 5 6 
#
# 1 0.002813 -0.000996 -0.001540 0.000000 0.000809 0.000000
# 2 -0.000996 0.011188 0.000137 0.000000 0.000933 0.000000
# 3 -0.001540 0.000137 0.013280 0.000000 -0.000413 0.000000
# 4 0.000000 0.000000 0.000000 0.039146 0.000000 0.002586
# 5 0.000809 0.000933 -0.000413 0.000000 0.018283 0.000000
# 6 0.000000 0.000000 0.000000 0.002586 0.000000 0.042841
#
#
# Mechanical properties :
#
#
# Convention : Reuss Voigt Hill
#
# Bulk Modulus (GPa) = 44.47834 82.42069 63.44951
# Shear Modulus (GPa) = 35.75449 53.47340 44.61395
#
# Velocity S-wave (km/s) = 3.51044 4.29305 3.92132
# Velocity P-wave (km/s) = 5.63569 7.27880 6.50930
#
# Compressibility (1/GPa) = 0.02248286
#
# Stress axis : x y z
#
# Youngs Moduli (GPa) = 355.53692 89.37875 75.30230
#
# Poissons Ratio (x) = 0.08902 0.11597
# Poissons Ratio (y) = 0.35409 -0.01032
# Poissons Ratio (z) = 0.54755 -0.01225
#
# Static dielectric constant tensor:
#      x y z
#    x 2.372270 0.000000 -0.002020 
#    y 0.000000 2.223070 0.000000 
#    z -0.002020 0.000000 2.412110 
# 
# From -- ./inp_files/214558.got.cif
#   From: 2010.05.17/outbox.cif.g08.bks.cpg/sg15_108_cif.got.tgz:214558.got - 2010.06.03 18:47:42.
