data_PCOD9261952
_publ_section_title
;
Structure prediction by ZEFSAII (Michael W. Deem and Ramdas Pophale) SiO2 
 PCOD9261952
Probable space group: C 2/C
;
_chemical_formula_sum "Si O2"
_cell_formula_units_Z 40
_cell_length_a 9.716542
_cell_length_b 21.047654
_cell_length_c 15.714958
_cell_angle_alpha 90.000000
_cell_angle_beta 144.129520
_cell_angle_gamma 90.000000
_cell_volume 1883.184470
_symmetry_space_group_name_H-M "C 2/C"
_symmetry_group_IT_number 15
_symmetry_cell_setting 'monoclinic'
loop_
_space_group_symop_operation_xyz
x,y,z
-x,y,1/2-z
-x,-y,-z
x,-y,1/2+z
1/2+x,1/2+y,z
1/2-x,1/2+y,1/2-z
1/2-x,1/2-y,-z
1/2+x,1/2-y,1/2+z
loop_
_atom_site_type_symbol
_atom_site_label
_atom_site_fract_x
_atom_site_fract_y
_atom_site_fract_z
Si Si1 0.477188 0.090785 0.562927
Si Si2 0.109306 0.827483 0.958047
Si Si3 0.500000 0.744128 0.250000
Si Si4 0.709968 0.946356 0.015337
Si Si5 0.500000 0.961794 0.750000
Si Si6 0.646604 0.428708 0.117148
O O1 0.272435 0.140836 0.466685
O O2 0.647957 0.091335 0.568452
O O3 0.628391 0.101952 0.723563
O O4 0.360181 0.020391 0.505622
O O5 0.273901 0.783111 0.100196
O O6 0.045062 0.885220 0.990528
O O7 0.930854 0.791472 0.805310
O O8 0.966447 0.940303 0.103981
O O9 0.535938 0.923784 0.853436
O O10 0.731384 0.006537 0.855800
#
# Coordination Sequence:
#
# PCOD9261952 Si02
#       6
#     8   8   4   8   4   8
#     4  10  20  37  53  88 120 153 189 235 273 364
#     4  11  20  40  62  85 110 147 201 244 292 339
#     4  10  23  38  64  84 106 148 202 259 288 332
#     4  10  21  32  55  83 123 156 183 218 294 347
#     4  10  19  32  50  80 124 158 186 225 260 350
#     4  11  18  36  58  80 117 160 183 233 290 338
#
# _framework density 21.240618000000001
#
# number of rings (size 3 to 8) (size 9 to 14) (size 15 to 20)
#    0.000    1.600    6.000    1.200    0.000    1.600 
#    7.200    0.000    0.000    7.200    0.000    0.000 
#    0.000    0.000    0.000    0.000    0.000    0.000 
#
# Total GULP energy -111356.186340 kJ/mol
# GULP energy per Si atom -5567.809317 kJ/mol
# Density = 2.119227 g / cm^3
# Si number density = 21.240618 Si / 1000 Ang^3
#
#
#
# Elastic Constant Matrix: (Units=GPa)
#
#
# Indices 1 2 3 4 5 6 
#
# 1 145.8606 24.9322 21.1433 -0.0009 -13.6642 -0.0003
# 2 24.9322 40.8581 22.7993 -0.0006 -12.5005 -0.0004
# 3 21.1433 22.7993 96.8842 -0.0024 -32.7044 -0.0015
# 4 -0.0009 -0.0006 -0.0024 34.2680 -0.0015 -15.1178
# 5 -13.6642 -12.5005 -32.7044 -0.0015 38.0206 -0.0009
# 6 -0.0003 -0.0004 -0.0015 -15.1178 -0.0009 21.6767
#
#
#
# Elastic Compliance Matrix: (Units=1/GPa)
#
#
# Indices 1 2 3 4 5 6 
#
# 1 0.007724 -0.004191 -0.000321 0.000000 0.001122 0.000000
# 2 -0.004191 0.031145 -0.004885 0.000001 0.004532 0.000001
# 3 -0.000321 -0.004885 0.015445 0.000003 0.011564 0.000004
# 4 0.000000 0.000001 0.000003 0.042150 0.000005 0.029397
# 5 0.001122 0.004532 0.011564 0.000005 0.038142 0.000006
# 6 0.000000 0.000001 0.000004 0.029397 0.000006 0.066634
#
#
# Mechanical properties :
#
#
# Convention : Reuss Voigt Hill
#
# Bulk Modulus (GPa) = 28.15275 46.81694 37.48484
# Shear Modulus (GPa) = 21.56361 33.10826 27.33594
#
# Velocity S-wave (km/s) = 3.18969 3.95235 3.59132
# Velocity P-wave (km/s) = 5.18155 6.55112 5.90617
#
# Compressibility (1/GPa) = 0.03552051
#
# Stress axis : x y z
#
# Youngs Moduli (GPa) = 129.46955 32.10827 64.74776
#
# Poissons Ratio (x) = 0.13457 0.02075
# Poissons Ratio (y) = 0.54260 0.31628
# Poissons Ratio (z) = 0.04150 0.15684
#
# Static dielectric constant tensor:
#      x y z
#    x 1.794840 0.000000 0.016740 
#    y 0.000000 1.859010 0.000000 
#    z 0.016740 0.000000 1.886100 
# 
# From -- ./inp_files/137030.got.cif
#   From: 2010.05.17/outbox.cif.g08.bks.cpg/sg15_69_cif.got.tgz:137030.got - 2010.06.03 18:47:42.
