data_PCOD9261604
_publ_section_title
;
Structure prediction by ZEFSAII (Michael W. Deem and Ramdas Pophale) SiO2 
 PCOD9261604
Probable space group: C 2/C
;
_chemical_formula_sum "Si O2"
_cell_formula_units_Z 64
_cell_length_a 23.210299
_cell_length_b 15.886645
_cell_length_c 10.013313
_cell_angle_alpha 90.000000
_cell_angle_beta 65.823874
_cell_angle_gamma 90.000000
_cell_volume 3368.402910
_symmetry_space_group_name_H-M "C 2/C"
_symmetry_group_IT_number 15
_symmetry_cell_setting 'monoclinic'
loop_
_space_group_symop_operation_xyz
x,y,z
-x,y,1/2-z
-x,-y,-z
x,-y,1/2+z
1/2+x,1/2+y,z
1/2-x,1/2+y,1/2-z
1/2-x,1/2-y,-z
1/2+x,1/2-y,1/2+z
loop_
_atom_site_type_symbol
_atom_site_label
_atom_site_fract_x
_atom_site_fract_y
_atom_site_fract_z
Si Si1 0.321221 0.716484 0.896469
Si Si2 0.200921 0.075351 0.803295
Si Si3 0.679699 0.610901 0.361059
Si Si4 0.312918 0.308114 0.934005
Si Si5 0.877219 0.651424 0.916631
Si Si6 0.346891 0.060123 0.681292
Si Si7 0.457507 0.006496 0.409061
Si Si8 0.825830 0.382607 0.751802
O O1 0.320186 0.645046 0.783410
O O2 0.350852 0.801388 0.805636
O O3 0.250000 0.750000 0.000000
O O4 0.351060 0.671078 0.997556
O O5 0.275043 0.059869 0.699459
O O6 0.163985 0.986721 0.846514
O O7 0.197310 0.117069 0.952312
O O8 0.679118 0.658615 0.222100
O O9 0.751728 0.605014 0.347502
O O10 0.373578 0.252223 0.919515
O O11 0.250000 0.250000 0.000000
O O12 0.854593 0.628650 0.788817
O O13 0.935039 0.588245 0.889531
O O14 0.832615 0.629378 0.085319
O O15 0.396611 0.060134 0.514170
O O16 0.358551 0.971399 0.746839
O O17 0.500000 0.041882 0.250000
O O18 0.500000 0.000000 0.500000
#
# Coordination Sequence:
#
# PCOD9261604 Si02
#       8
#     8   8   8   8   8   8   8   8
#     4  10  19  31  43  67 105 142 182 239 271 311
#     4  11  20  34  51  74 114 155 193 230 279 351
#     4  10  20  30  45  70 104 148 189 225 276 326
#     4  12  19  33  52  77 112 149 195 242 270 346
#     4  11  20  35  55  77 104 152 188 236 296 337
#     4  10  21  32  56  78 104 149 198 225 287 349
#     4  11  23  42  56  79 109 148 198 255 285 335
#     4   9  18  31  44  70 101 142 185 223 268 331
#
# _framework density 19.000102999999999
#
# number of rings (size 3 to 8) (size 9 to 14) (size 15 to 20)
#    0.000    1.500    5.000    1.500    0.000    8.000 
#    0.000    0.000    0.000    0.000    0.000    0.000 
#    0.000    1.000    0.000    0.000    0.000    0.000 
#
# Total GULP energy -178260.107756 kJ/mol
# GULP energy per Si atom -5570.628367 kJ/mol
# Density = 1.895686 g / cm^3
# Si number density = 19.000103 Si / 1000 Ang^3
#
#
#
# Elastic Constant Matrix: (Units=GPa)
#
#
# Indices 1 2 3 4 5 6 
#
# 1 20.3827 2.9175 5.1940 0.0000 -0.5127 0.0000
# 2 2.9175 105.0449 28.1133 0.0000 1.2681 0.0000
# 3 5.1940 28.1133 105.6062 0.0000 2.9505 0.0000
# 4 0.0000 0.0000 0.0000 38.6948 0.0000 6.9393
# 5 -0.5127 1.2681 2.9505 0.0000 22.3382 0.0000
# 6 0.0000 0.0000 0.0000 6.9393 0.0000 18.6417
#
#
#
# Elastic Compliance Matrix: (Units=1/GPa)
#
#
# Indices 1 2 3 4 5 6 
#
# 1 0.049793 -0.000791 -0.002280 0.000000 0.001489 0.000000
# 2 -0.000791 0.010264 -0.002687 0.000000 -0.000246 0.000000
# 3 -0.002280 -0.002687 0.010332 0.000000 -0.001264 0.000000
# 4 0.000000 0.000000 0.000000 0.027692 0.000000 -0.010308
# 5 0.001489 -0.000246 -0.001264 0.000000 0.044981 0.000000
# 6 0.000000 0.000000 0.000000 -0.010308 0.000000 0.057480
#
#
# Mechanical properties :
#
#
# Convention : Reuss Voigt Hill
#
# Bulk Modulus (GPa) = 16.98551 33.72037 25.35294
# Shear Modulus (GPa) = 21.58138 28.92221 25.25179
#
# Velocity S-wave (km/s) = 3.37390 3.90579 3.64955
# Velocity P-wave (km/s) = 4.91291 6.17464 5.57956
#
# Compressibility (1/GPa) = 0.05887372
#
# Stress axis : x y z
#
# Youngs Moduli (GPa) = 20.08322 97.43116 96.78868
#
# Poissons Ratio (x) = 0.07704 0.22069
# Poissons Ratio (y) = 0.01588 0.26002
# Poissons Ratio (z) = 0.04579 0.26175
#
# Static dielectric constant tensor:
#      x y z
#    x 1.691890 0.000000 -0.000070 
#    y 0.000000 1.731380 0.000000 
#    z -0.000070 0.000000 1.705380 
# 
# From -- ./inp_files/66199.got.cif
#   From: 2010.05.17/outbox.cif.g08.bks.cpg/sg15_34_cif.got.tgz:66199.got - 2010.06.03 18:47:42.
