data_PCOD9261166
_publ_section_title
;
Structure prediction by ZEFSAII (Michael W. Deem and Ramdas Pophale) SiO2 
 PCOD9261166
Probable space group: C 2/C
;
_chemical_formula_sum "Si O2"
_cell_formula_units_Z 52
_cell_length_a 8.126231
_cell_length_b 26.921273
_cell_length_c 14.587072
_cell_angle_alpha 90.000000
_cell_angle_beta 40.883594
_cell_angle_gamma 90.000000
_cell_volume 2088.712640
_symmetry_space_group_name_H-M "C 2/C"
_symmetry_group_IT_number 15
_symmetry_cell_setting 'monoclinic'
loop_
_space_group_symop_operation_xyz
x,y,z
-x,y,1/2-z
-x,-y,-z
x,-y,1/2+z
1/2+x,1/2+y,z
1/2-x,1/2+y,1/2-z
1/2-x,1/2-y,-z
1/2+x,1/2-y,1/2+z
loop_
_atom_site_type_symbol
_atom_site_label
_atom_site_fract_x
_atom_site_fract_y
_atom_site_fract_z
Si Si1 0.021347 0.580532 0.071703
Si Si2 0.000000 0.482277 0.750000
Si Si3 0.346936 0.067263 0.685665
Si Si4 0.526126 0.248448 0.339313
Si Si5 0.500000 0.242039 0.750000
Si Si6 0.500000 0.621915 0.250000
Si Si7 0.742479 0.346087 0.465354
Si Si8 0.450264 0.356235 0.407994
O O1 0.117073 0.552529 0.122110
O O2 0.722961 0.588539 0.199159
O O3 0.094690 0.555233 0.944612
O O4 0.157972 0.634374 0.014032
O O5 0.840861 0.519997 0.754234
O O6 0.564639 0.107351 0.621485
O O7 0.091813 0.096821 0.806864
O O8 0.500000 0.225230 0.250000
O O9 0.250000 0.250000 0.500000
O O10 0.570681 0.307800 0.312469
O O11 0.762204 0.231771 0.300754
O O12 0.622823 0.204756 0.622085
O O13 0.370180 0.652037 0.386478
O O14 0.522879 0.353292 0.483716
#
# Coordination Sequence:
#
# PCOD9261166 Si02
#       8
#     8   4   8   8   4   4   8   8
#     4  11  25  40  60  95 135 183 225 298 347 404
#     4  12  23  42  58  96 139 178 233 294 350 395
#     4  11  20  41  67  95 123 183 238 282 338 414
#     4  11  25  47  74 112 143 183 237 296 356 442
#     4  10  21  44  77  98 146 188 234 282 356 430
#     4  10  24  40  59  98 139 168 237 286 348 399
#     4  10  18  40  68  99 125 182 227 281 342 412
#     4  11  21  44  74  94 131 181 239 278 349 424
#
# _framework density 24.895717999999999
#
# number of rings (size 3 to 8) (size 9 to 14) (size 15 to 20)
#    0.000    1.231    4.615    2.769    2.154    1.231 
#   15.231    0.769    0.000    0.000    0.000    0.000 
#    0.000    0.000    0.000    0.000    0.000    0.000 
#
# Total GULP energy -145443.952802 kJ/mol
# GULP energy per Si atom -5593.998185 kJ/mol
# Density = 2.483905 g / cm^3
# Si number density = 24.895718 Si / 1000 Ang^3
#
#
#
# Elastic Constant Matrix: (Units=GPa)
#
#
# Indices 1 2 3 4 5 6 
#
# 1 179.6265 27.5286 75.5596 0.0000 5.7247 0.0000
# 2 27.5286 51.5434 16.1157 0.0000 0.3707 0.0000
# 3 75.5596 16.1157 141.7748 0.0000 19.5285 0.0000
# 4 0.0000 0.0000 0.0000 16.8303 0.0000 5.4028
# 5 5.7247 0.3707 19.5285 0.0000 66.7855 0.0000
# 6 0.0000 0.0000 0.0000 5.4028 0.0000 14.9944
#
#
#
# Elastic Compliance Matrix: (Units=1/GPa)
#
#
# Indices 1 2 3 4 5 6 
#
# 1 0.007582 -0.002871 -0.003779 0.000000 0.000471 0.000000
# 2 -0.002871 0.021225 -0.000938 0.000000 0.000403 0.000000
# 3 -0.003779 -0.000938 0.009512 0.000000 -0.002452 0.000000
# 4 0.000000 0.000000 0.000000 0.067188 0.000000 -0.024209
# 5 0.000471 0.000403 -0.002452 0.000000 0.015648 0.000000
# 6 0.000000 0.000000 0.000000 -0.024209 0.000000 0.075415
#
#
# Mechanical properties :
#
#
# Convention : Reuss Voigt Hill
#
# Bulk Modulus (GPa) = 43.21134 67.92806 55.56970
# Shear Modulus (GPa) = 22.78317 36.63809 29.71063
#
# Velocity S-wave (km/s) = 3.02842 3.84039 3.45831
# Velocity P-wave (km/s) = 5.44270 6.85631 6.18999
#
# Compressibility (1/GPa) = 0.02314207
#
# Stress axis : x y z
#
# Youngs Moduli (GPa) = 131.89360 47.11450 105.12991
#
# Poissons Ratio (x) = 0.13527 0.39732
# Poissons Ratio (y) = 0.37868 0.09860
# Poissons Ratio (z) = 0.49847 0.04419
#
# Static dielectric constant tensor:
#      x y z
#    x 2.021110 0.000000 0.000230 
#    y 0.000000 2.028860 0.000000 
#    z 0.000230 0.000000 1.953950 
# 
# From -- ./inp_files/139782.got.cif
#   From: 2010.05.17/outbox.cif.g08.bks.cpg/sg15_70_cif.got.tgz:139782.got - 2010.06.03 18:47:42.
