data_PCOD9261413
_publ_section_title
;
Structure prediction by ZEFSAII (Michael W. Deem and Ramdas Pophale) SiO2 
 PCOD9261413
Probable space group: C 2/C
;
_chemical_formula_sum "Si O2"
_cell_formula_units_Z 60
_cell_length_a 28.083755
_cell_length_b 21.507381
_cell_length_c 13.867391
_cell_angle_alpha 90.000000
_cell_angle_beta 156.776155
_cell_angle_gamma 90.000000
_cell_volume 3302.867194
_symmetry_space_group_name_H-M "C 2/C"
_symmetry_group_IT_number 15
_symmetry_cell_setting 'monoclinic'
loop_
_space_group_symop_operation_xyz
x,y,z
-x,y,1/2-z
-x,-y,-z
x,-y,1/2+z
1/2+x,1/2+y,z
1/2-x,1/2+y,1/2-z
1/2-x,1/2-y,-z
1/2+x,1/2-y,1/2+z
loop_
_atom_site_type_symbol
_atom_site_label
_atom_site_fract_x
_atom_site_fract_y
_atom_site_fract_z
Si Si1 0.824562 0.031835 0.838731
Si Si2 0.685574 0.660326 0.747366
Si Si3 0.581569 0.626833 0.756999
Si Si4 0.191341 0.090773 0.287478
Si Si5 0.000000 0.212816 0.250000
Si Si6 0.709043 0.221159 0.026044
Si Si7 0.637125 0.738937 0.996123
Si Si8 0.107760 0.018312 0.320040
O O1 0.762846 0.091627 0.677524
O O2 0.769780 0.965298 0.709620
O O3 0.837632 0.038684 0.976908
O O4 0.962668 0.028533 0.054260
O O5 0.621238 0.657643 0.730551
O O6 0.587318 0.672439 0.480201
O O7 0.783283 0.714421 0.919847
O O8 0.436392 0.619187 0.487369
O O9 0.627548 0.555766 0.847064
O O10 0.629332 0.671290 0.930589
O O11 0.284206 0.146775 0.470135
O O12 0.161276 0.058074 0.333109
O O13 0.082007 0.253272 0.329626
O O14 0.801511 0.237809 0.284725
O O15 0.750000 0.250000 0.000000
O O16 0.500000 0.761032 0.750000
#
# Coordination Sequence:
#
# PCOD9261413 Si02
#       8
#     8   8   8   8   4   8   8   8
#     4  10  19  31  53  85 115 151 183 249 304 346
#     4  11  21  37  58  83 119 151 194 245 294 352
#     4  11  19  36  55  88 115 149 196 246 306 354
#     4  11  19  35  58  85 118 151 190 245 302 356
#     4  10  24  38  56  92 118 158 206 244 300 356
#     4  11  24  40  63  86 123 162 198 252 296 360
#     4  11  24  38  57  84 118 158 196 241 297 357
#     4  10  19  29  55  84 118 143 187 247 302 356
#
# _framework density 18.166035000000001
#
# number of rings (size 3 to 8) (size 9 to 14) (size 15 to 20)
#    0.000    1.333    4.000    3.600    5.600    0.000 
#    0.000    0.000    1.467    0.000    0.000    6.533 
#    0.000    0.000    0.000    0.000    0.000    0.000 
#
# Total GULP energy -167511.130804 kJ/mol
# GULP energy per Si atom -5583.704360 kJ/mol
# Density = 1.812469 g / cm^3
# Si number density = 18.166035 Si / 1000 Ang^3
#
#
#
# Elastic Constant Matrix: (Units=GPa)
#
#
# Indices 1 2 3 4 5 6 
#
# 1 103.5139 41.5331 21.8459 0.0000 -13.4153 0.0000
# 2 41.5331 121.9893 30.2227 0.0000 1.4510 0.0000
# 3 21.8459 30.2227 34.6552 0.0000 0.1255 0.0000
# 4 0.0000 0.0000 0.0000 20.4461 0.0000 -10.8721
# 5 -13.4153 1.4510 0.1255 0.0000 21.2449 0.0000
# 6 0.0000 0.0000 0.0000 -10.8721 0.0000 30.7083
#
#
#
# Elastic Compliance Matrix: (Units=1/GPa)
#
#
# Indices 1 2 3 4 5 6 
#
# 1 0.013250 -0.003236 -0.005562 0.000000 0.008621 0.000000
# 2 -0.003236 0.011256 -0.007767 0.000000 -0.002766 0.000000
# 3 -0.005562 -0.007767 0.039147 0.000000 -0.003213 0.000000
# 4 0.000000 0.000000 0.000000 0.060252 0.000000 0.021332
# 5 0.008621 -0.002766 -0.003213 0.000000 0.052722 0.000000
# 6 0.000000 0.000000 0.000000 0.021332 0.000000 0.040117
#
#
# Mechanical properties :
#
#
# Convention : Reuss Voigt Hill
#
# Bulk Modulus (GPa) = 32.76084 49.70687 41.23386
# Shear Modulus (GPa) = 19.22732 25.58364 22.40548
#
# Velocity S-wave (km/s) = 3.25687 3.75683 3.51575
# Velocity P-wave (km/s) = 5.67593 6.80002 6.26325
#
# Compressibility (1/GPa) = 0.03052425
#
# Stress axis : x y z
#
# Youngs Moduli (GPa) = 75.47283 88.83998 25.54493
#
# Poissons Ratio (x) = 0.28746 0.14207
# Poissons Ratio (y) = 0.24421 0.19840
# Poissons Ratio (z) = 0.41976 0.69000
#
# Static dielectric constant tensor:
#      x y z
#    x 1.637870 0.000000 -0.017030 
#    y 0.000000 1.659360 0.000000 
#    z -0.017030 0.000000 1.606630 
# 
# From -- ./inp_files/145645.got.cif
#   From: 2010.05.17/outbox.cif.g08.bks.cpg/sg15_73_cif.got.tgz:145645.got - 2010.06.03 18:47:42.
