data_PCOD9261123
_publ_section_title
;
Structure prediction by ZEFSAII (Michael W. Deem and Ramdas Pophale) SiO2 
 PCOD9261123
Probable space group: C 2/C
;
_chemical_formula_sum "Si O2"
_cell_formula_units_Z 40
_cell_length_a 10.160024
_cell_length_b 13.699967
_cell_length_c 15.773103
_cell_angle_alpha 90.000000
_cell_angle_beta 131.572187
_cell_angle_gamma 90.000000
_cell_volume 1642.490356
_symmetry_space_group_name_H-M "C 2/C"
_symmetry_group_IT_number 15
_symmetry_cell_setting 'monoclinic'
loop_
_space_group_symop_operation_xyz
x,y,z
-x,y,1/2-z
-x,-y,-z
x,-y,1/2+z
1/2+x,1/2+y,z
1/2-x,1/2+y,1/2-z
1/2-x,1/2-y,-z
1/2+x,1/2-y,1/2+z
loop_
_atom_site_type_symbol
_atom_site_label
_atom_site_fract_x
_atom_site_fract_y
_atom_site_fract_z
Si Si1 0.000000 0.715381 0.250000
Si Si2 0.977426 0.563574 0.638883
Si Si3 0.250000 0.250000 0.000000
Si Si4 0.252069 0.902141 0.774763
Si Si5 0.077795 0.275821 0.515572
Si Si6 0.904547 0.058985 0.033071
O O1 0.100613 0.774822 0.363451
O O2 0.147112 0.649444 0.262987
O O3 0.973737 0.666913 0.591211
O O4 0.788239 0.513106 0.535270
O O5 0.000000 0.568368 0.750000
O O6 0.133349 0.499745 0.666447
O O7 0.406703 0.228389 0.999924
O O8 0.279011 0.835018 0.868431
O O9 0.051970 0.927623 0.667422
O O10 0.134877 0.166939 0.518784
O O11 0.000000 0.000000 0.000000
#
# Coordination Sequence:
#
# PCOD9261123 Si02
#       6
#     4   8   4   8   8   8
#     4  10  18  40  66 102 144 190 244 306 368 450
#     4  12  26  47  74 108 154 195 253 316 376 453
#     4  10  22  40  74 102 146 188 252 302 380 444
#     4  11  23  47  72 104 153 193 248 309 377 449
#     4  11  27  46  75 110 143 199 256 310 377 457
#     4  12  25  46  75 105 146 201 245 309 390 443
#
# _framework density 24.353265
#
# number of rings (size 3 to 8) (size 9 to 14) (size 15 to 20)
#    0.000    0.800    5.000    1.200    5.600    0.800 
#    0.000    0.000    0.000    0.000    0.000    0.000 
#    0.000    0.000    0.000    0.000    0.000    0.000 
#
# Total GULP energy -111497.716814 kJ/mol
# GULP energy per Si atom -5574.885841 kJ/mol
# Density = 2.429784 g / cm^3
# Si number density = 24.353265 Si / 1000 Ang^3
#
#
#
# Elastic Constant Matrix: (Units=GPa)
#
#
# Indices 1 2 3 4 5 6 
#
# 1 96.9577 9.5630 48.6858 0.0000 26.1417 0.0000
# 2 9.5630 75.0939 30.8366 0.0000 -16.8371 0.0000
# 3 48.6858 30.8366 213.8768 0.0000 18.0880 0.0000
# 4 0.0000 0.0000 0.0000 42.8698 0.0000 -28.2547
# 5 26.1417 -16.8371 18.0880 0.0000 42.0933 0.0000
# 6 0.0000 0.0000 0.0000 -28.2547 0.0000 51.9334
#
#
#
# Elastic Compliance Matrix: (Units=1/GPa)
#
#
# Indices 1 2 3 4 5 6 
#
# 1 0.014061 -0.003004 -0.002000 0.000000 -0.009075 0.000000
# 2 -0.003004 0.016948 -0.002585 0.000000 0.009755 0.000000
# 3 -0.002000 -0.002585 0.005693 0.000000 -0.002238 0.000000
# 4 0.000000 0.000000 0.000000 0.036367 0.000000 0.019785
# 5 -0.009075 0.009755 -0.002238 0.000000 0.034256 0.000000
# 6 0.000000 0.000000 0.000000 0.019785 0.000000 0.030020
#
#
# Mechanical properties :
#
#
# Convention : Reuss Voigt Hill
#
# Bulk Modulus (GPa) = 46.45970 62.67768 54.56869
# Shear Modulus (GPa) = 31.30930 47.16884 39.23907
#
# Velocity S-wave (km/s) = 3.58946 4.40575 4.01839
# Velocity P-wave (km/s) = 6.02476 7.18843 6.63217
#
# Compressibility (1/GPa) = 0.02152403
#
# Stress axis : x y z
#
# Youngs Moduli (GPa) = 71.11815 59.00443 175.65887
#
# Poissons Ratio (x) = 0.17724 0.35136
# Poissons Ratio (y) = 0.21363 0.45404
# Poissons Ratio (z) = 0.14225 0.15251
#
# Static dielectric constant tensor:
#      x y z
#    x 1.965610 0.000000 0.033360 
#    y 0.000000 1.966840 0.000000 
#    z 0.033360 0.000000 1.930940 
# 
# From -- ./inp_files/198134.got.cif
#   From: 2010.05.17/outbox.cif.g08.bks.cpg/sg15_100_cif.got.tgz:198134.got - 2010.06.03 18:47:42.
