data_PCOD9261882
_publ_section_title
;
Structure prediction by ZEFSAII (Michael W. Deem and Ramdas Pophale) SiO2 
 PCOD9261882
Probable space group: C 2/C
;
_chemical_formula_sum "Si O2"
_cell_formula_units_Z 64
_cell_length_a 21.417827
_cell_length_b 18.059695
_cell_length_c 25.662108
_cell_angle_alpha 90.000000
_cell_angle_beta 21.416177
_cell_angle_gamma 90.000000
_cell_volume 3624.408466
_symmetry_space_group_name_H-M "C 2/C"
_symmetry_group_IT_number 15
_symmetry_cell_setting 'monoclinic'
loop_
_space_group_symop_operation_xyz
x,y,z
-x,y,1/2-z
-x,-y,-z
x,-y,1/2+z
1/2+x,1/2+y,z
1/2-x,1/2+y,1/2-z
1/2-x,1/2-y,-z
1/2+x,1/2-y,1/2+z
loop_
_atom_site_type_symbol
_atom_site_label
_atom_site_fract_x
_atom_site_fract_y
_atom_site_fract_z
Si Si1 0.924766 0.148934 0.890456
Si Si2 0.260275 0.897909 0.070093
Si Si3 0.555699 0.723990 0.464704
Si Si4 0.753875 0.488622 0.653064
Si Si5 0.057751 0.975195 0.040569
Si Si6 0.438199 0.111818 0.583948
Si Si7 0.330055 0.409884 0.122802
Si Si8 0.549578 0.213142 0.345836
O O1 0.806481 0.122235 0.935171
O O2 0.883570 0.096100 0.971633
O O3 0.119350 0.136124 0.719169
O O4 0.935028 0.235409 0.896515
O O5 0.257093 0.982343 0.091233
O O6 0.445343 0.862208 0.934023
O O7 0.571704 0.803689 0.425510
O O8 0.441642 0.663444 0.523310
O O9 0.459673 0.740258 0.593604
O O10 0.752936 0.699965 0.321516
O O11 0.566902 0.481686 0.822661
O O12 0.841571 0.554948 0.619387
O O13 0.868449 0.416618 0.568230
O O14 0.943643 0.945104 0.081420
O O15 0.182529 0.032852 0.915212
O O16 0.348852 0.104637 0.709604
#
# Coordination Sequence:
#
# PCOD9261882 Si02
#       8
#     8   8   8   8   8   8   8   8
#     4  10  19  35  50  71 102 134 172 207 241 284
#     4  10  20  33  52  71  99 138 171 206 241 285
#     4  12  21  32  52  73 103 134 165 205 248 295
#     4   9  18  32  49  71  93 130 169 202 242 293
#     4   9  18  32  49  70  94 128 167 205 243 291
#     4  10  19  32  48  69 100 127 164 204 248 296
#     4  10  20  32  49  70  98 129 161 206 254 289
#     4  12  20  34  48  72 104 136 173 200 236 295
#
# _framework density 17.658054
#
# number of rings (size 3 to 8) (size 9 to 14) (size 15 to 20)
#    0.000    1.750    5.000    1.125    1.750    2.000 
#    0.000    0.000    0.000    0.000    0.000    0.875 
#    0.000    0.000    0.000    0.000    0.000    0.000 
#
# Total GULP energy -178233.325947 kJ/mol
# GULP energy per Si atom -5569.791436 kJ/mol
# Density = 1.761786 g / cm^3
# Si number density = 17.658054 Si / 1000 Ang^3
#
#
#
# Elastic Constant Matrix: (Units=GPa)
#
#
# Indices 1 2 3 4 5 6 
#
# 1 31.6939 11.1847 10.0540 0.0015 16.2132 0.0090
# 2 11.1847 47.8093 29.5991 -0.0140 9.5364 -0.0027
# 3 10.0540 29.5991 64.6696 0.0175 7.0559 -0.0026
# 4 0.0015 -0.0140 0.0175 24.7894 -0.0042 3.3376
# 5 16.2132 9.5364 7.0559 -0.0042 18.4174 -0.0040
# 6 0.0090 -0.0027 -0.0026 3.3376 -0.0040 12.5299
#
#
#
# Elastic Compliance Matrix: (Units=1/GPa)
#
#
# Indices 1 2 3 4 5 6 
#
# 1 0.058346 -0.002152 -0.002717 -0.000003 -0.049208 -0.000058
# 2 -0.002152 0.031322 -0.012981 0.000026 -0.009350 -0.000004
# 3 -0.002717 -0.012981 0.021741 -0.000024 0.000784 0.000010
# 4 -0.000003 0.000026 -0.000024 0.041840 0.000006 -0.011145
# 5 -0.049208 -0.009350 0.000784 0.000006 0.102156 0.000064
# 6 -0.000058 -0.000004 0.000010 -0.011145 0.000064 0.082778
#
#
# Mechanical properties :
#
#
# Convention : Reuss Voigt Hill
#
# Bulk Modulus (GPa) = 13.20855 27.31648 20.26252
# Shear Modulus (GPa) = 12.52756 17.36968 14.94862
#
# Velocity S-wave (km/s) = 2.66645 3.13975 2.91273
# Velocity P-wave (km/s) = 4.12023 5.35232 4.77617
#
# Compressibility (1/GPa) = 0.07570853
#
# Stress axis : x y z
#
# Youngs Moduli (GPa) = 17.13919 31.92679 45.99500
#
# Poissons Ratio (x) = 0.06872 0.12496
# Poissons Ratio (y) = 0.03689 0.59706
# Poissons Ratio (z) = 0.04656 0.41444
#
# Static dielectric constant tensor:
#      x y z
#    x 1.617480 0.000000 0.012880 
#    y 0.000000 1.636550 0.000010 
#    z 0.012880 0.000010 1.620560 
# 
# From -- ./inp_files/302429.got.cif
#   From: 2010.05.17/outbox.cif.g08.bks.cpg/sg15_152_cif.got.tgz:302429.got - 2010.06.03 18:47:42.
