data_PCOD9261069
_publ_section_title
;
Structure prediction by ZEFSAII (Michael W. Deem and Ramdas Pophale) SiO2 
 PCOD9261069
Probable space group: C 2/C
;
_chemical_formula_sum "Si O2"
_cell_formula_units_Z 48
_cell_length_a 20.446029
_cell_length_b 11.695939
_cell_length_c 28.520197
_cell_angle_alpha 90.000000
_cell_angle_beta 162.485822
_cell_angle_gamma 90.000000
_cell_volume 2052.480729
_symmetry_space_group_name_H-M "C 2/C"
_symmetry_group_IT_number 15
_symmetry_cell_setting 'monoclinic'
loop_
_space_group_symop_operation_xyz
x,y,z
-x,y,1/2-z
-x,-y,-z
x,-y,1/2+z
1/2+x,1/2+y,z
1/2-x,1/2+y,1/2-z
1/2-x,1/2-y,-z
1/2+x,1/2-y,1/2+z
loop_
_atom_site_type_symbol
_atom_site_label
_atom_site_fract_x
_atom_site_fract_y
_atom_site_fract_z
Si Si1 0.246434 0.825559 0.422126
Si Si2 0.500000 0.111066 0.250000
Si Si3 0.000000 0.164888 0.250000
Si Si4 0.970247 0.494310 0.142192
Si Si5 0.516749 0.776221 0.410843
Si Si6 0.988673 0.052706 0.340654
Si Si7 0.637894 0.883289 0.100676
O O1 0.341841 0.821365 0.435146
O O2 0.000000 0.876989 0.250000
O O3 0.182057 0.698729 0.395007
O O4 0.400302 0.905160 0.558450
O O5 0.602104 0.041578 0.276574
O O6 0.931750 0.092593 0.248833
O O7 0.219966 0.230836 0.413098
O O8 0.048539 0.383945 0.166928
O O9 0.745686 0.460150 0.014087
O O10 0.422378 0.657321 0.328449
O O11 0.450575 0.806570 0.418166
O O12 0.872752 0.935382 0.273796
O O13 0.500000 0.000000 0.000000
#
# Coordination Sequence:
#
# PCOD9261069 Si02
#       7
#     8   4   4   8   8   8   8
#     4  10  21  40  67  88 117 169 218 250 303 381
#     4  10  24  38  62  96 126 164 204 266 318 370
#     4  10  18  40  62  86 122 158 218 246 300 376
#     4  11  20  41  64  92 126 163 216 256 314 377
#     4  11  25  36  66  97 122 170 207 266 318 375
#     4  11  22  39  63  93 123 166 211 260 316 377
#     4  12  21  42  64  90 124 164 215 260 306 380
#
# _framework density 23.386333
#
# number of rings (size 3 to 8) (size 9 to 14) (size 15 to 20)
#    0.500    0.667    5.000    3.500    1.167    4.000 
#    3.000    0.000    0.000    3.000    0.000    0.000 
#    0.000    0.000    0.000    0.000    0.000    0.000 
#
# Total GULP energy -134098.975209 kJ/mol
# GULP energy per Si atom -5587.457300 kJ/mol
# Density = 2.333311 g / cm^3
# Si number density = 23.386333 Si / 1000 Ang^3
#
#
#
# Elastic Constant Matrix: (Units=GPa)
#
#
# Indices 1 2 3 4 5 6 
#
# 1 154.2204 46.0612 1.1925 -0.0030 -0.6535 -0.0012
# 2 46.0612 65.5519 0.5349 0.0202 -16.3335 -0.0048
# 3 1.1925 0.5349 23.9512 0.0175 -0.5066 -0.0019
# 4 -0.0030 0.0202 0.0175 13.2951 0.0044 -6.8521
# 5 -0.6535 -16.3335 -0.5066 0.0044 30.5975 0.0016
# 6 -0.0012 -0.0048 -0.0019 -6.8521 0.0016 28.0340
#
#
#
# Elastic Compliance Matrix: (Units=1/GPa)
#
#
# Indices 1 2 3 4 5 6 
#
# 1 0.008518 -0.006850 -0.000345 0.000016 -0.003480 0.000003
# 2 -0.006850 0.023104 0.000083 -0.000045 0.012189 -0.000008
# 3 -0.000345 0.000083 0.041782 -0.000062 0.000729 -0.000012
# 4 0.000016 -0.000045 -0.000062 0.086056 -0.000038 0.021034
# 5 -0.003480 0.012189 0.000729 -0.000038 0.039127 -0.000010
# 6 0.000003 -0.000008 -0.000012 0.021034 -0.000010 0.040812
#
#
# Mechanical properties :
#
#
# Convention : Reuss Voigt Hill
#
# Bulk Modulus (GPa) = 16.89713 37.70010 27.29862
# Shear Modulus (GPa) = 18.29159 27.44766 22.86963
#
# Velocity S-wave (km/s) = 2.79973 3.42959 3.13054
# Velocity P-wave (km/s) = 4.20621 5.64255 4.97647
#
# Compressibility (1/GPa) = 0.05918164
#
# Stress axis : x y z
#
# Youngs Moduli (GPa) = 117.39939 43.28166 23.93358
#
# Poissons Ratio (x) = 0.29646 0.00825
# Poissons Ratio (y) = 0.80414 -0.00198
# Poissons Ratio (z) = 0.04047 -0.00359
#
# Static dielectric constant tensor:
#      x y z
#    x 1.853710 0.000000 -0.039500 
#    y 0.000000 1.912540 -0.000030 
#    z -0.039500 -0.000030 2.047800 
# 
# From -- ./inp_files/219358.got.cif
#   From: 2010.05.17/outbox.cif.g08.bks.cpg/sg15_110_cif.got.tgz:219358.got - 2010.06.03 18:47:42.
