data_PCOD9261711
_publ_section_title
;
Structure prediction by ZEFSAII (Michael W. Deem and Ramdas Pophale) SiO2 
 PCOD9261711
Probable space group: C 2/C
;
_chemical_formula_sum "Si O2"
_cell_formula_units_Z 48
_cell_length_a 15.934805
_cell_length_b 24.217160
_cell_length_c 7.902496
_cell_angle_alpha 90.000000
_cell_angle_beta 40.054164
_cell_angle_gamma 90.000000
_cell_volume 1962.413659
_symmetry_space_group_name_H-M "C 2/C"
_symmetry_group_IT_number 15
_symmetry_cell_setting 'monoclinic'
loop_
_space_group_symop_operation_xyz
x,y,z
-x,y,1/2-z
-x,-y,-z
x,-y,1/2+z
1/2+x,1/2+y,z
1/2-x,1/2+y,1/2-z
1/2-x,1/2-y,-z
1/2+x,1/2-y,1/2+z
loop_
_atom_site_type_symbol
_atom_site_label
_atom_site_fract_x
_atom_site_fract_y
_atom_site_fract_z
Si Si1 0.369126 0.052888 0.881644
Si Si2 0.431029 0.149907 0.536430
Si Si3 0.313599 0.845573 0.704489
Si Si4 0.423146 0.450130 0.697397
Si Si5 0.057881 0.828686 0.974788
Si Si6 0.291017 0.698163 0.817028
O O1 0.500000 0.022315 0.750000
O O2 0.398185 0.092471 0.676678
O O3 0.341347 0.096132 0.076118
O O4 0.227324 0.029040 0.057225
O O5 0.543010 0.178016 0.478573
O O6 0.304694 0.186109 0.690153
O O7 0.500000 0.141233 0.250000
O O8 0.210953 0.813010 0.744797
O O9 0.241418 0.850981 0.996965
O O10 0.500000 0.436144 0.750000
O O11 0.500000 0.500000 0.500000
O O12 0.432679 0.394178 0.573195
O O13 0.000000 0.814637 0.250000
O O14 0.942644 0.804640 0.038056
O O15 0.250000 0.750000 0.000000
#
# Coordination Sequence:
#
# PCOD9261711 Si02
#       6
#     8   8   8   8   8   8
#     4   9  18  37  60  82 111 150 193 240 292 349
#     4   9  17  31  53  79 106 144 189 233 280 335
#     4   8  17  30  50  76 104 142 185 232 281 327
#     4  11  22  37  60  88 116 149 189 238 298 364
#     4   9  18  34  54  77 109 146 186 233 284 337
#     4  10  19  31  50  80 114 151 190 232 282 342
#
# _framework density 24.459675000000001
#
# number of rings (size 3 to 8) (size 9 to 14) (size 15 to 20)
#    0.000    2.667    0.000    1.500    0.000    6.000 
#    0.000    3.333    0.000   20.000    0.000    0.000 
#    0.000    0.000    0.000    0.000    0.000    0.000 
#
# Total GULP energy -133696.583570 kJ/mol
# GULP energy per Si atom -5570.690982 kJ/mol
# Density = 2.440400 g / cm^3
# Si number density = 24.459675 Si / 1000 Ang^3
#
#
#
# Elastic Constant Matrix: (Units=GPa)
#
#
# Indices 1 2 3 4 5 6 
#
# 1 169.8046 17.7374 79.8515 0.0000 -79.1585 0.0000
# 2 17.7374 48.2103 18.6049 0.0000 -4.6415 0.0000
# 3 79.8515 18.6049 92.0274 0.0000 -51.8006 0.0000
# 4 0.0000 0.0000 0.0000 12.4217 0.0000 0.1593
# 5 -79.1585 -4.6415 -51.8006 0.0000 85.7921 0.0000
# 6 0.0000 0.0000 0.0000 0.1593 0.0000 -11.7111
#
#
#
# Elastic Compliance Matrix: (Units=1/GPa)
#
#
# Indices 1 2 3 4 5 6 
#
# 1 0.012618 -0.001472 -0.006275 0.000000 0.007774 0.000000
# 2 -0.001472 0.022978 -0.005200 0.000000 -0.003255 0.000000
# 3 -0.006275 -0.005200 0.021124 0.000000 0.006684 0.000000
# 4 0.000000 0.000000 0.000000 0.080490 0.000000 0.001095
# 5 0.007774 -0.003255 0.006684 0.000000 0.022688 0.000000
# 6 0.000000 0.000000 0.000000 0.001095 0.000000 -0.085374
#
#
# Mechanical properties :
#
#
# Convention : Reuss Voigt Hill
#
# Bulk Modulus (GPa) = 32.44111 60.27001 46.35556
# Shear Modulus (GPa) = 45.16977 30.22375 37.69676
#
# Velocity S-wave (km/s) = 4.30199 3.51900 3.93005
# Velocity P-wave (km/s) = 6.16182 6.41913 6.29179
#
# Compressibility (1/GPa) = 0.03082509
#
# Stress axis : x y z
#
# Youngs Moduli (GPa) = 79.25468 43.52081 47.33850
#
# Poissons Ratio (x) = 0.06407 0.29705
# Poissons Ratio (y) = 0.11668 0.24616
# Poissons Ratio (z) = 0.49732 0.22631
#
# Static dielectric constant tensor:
#      x y z
#    x -3.576920 0.000000 1.087450 
#    y 0.000000 1.548280 0.000000 
#    z 1.087450 0.000000 1.777370 
# 
# From -- ./inp_files/44412.got.cif
#   From: 2010.05.17/outbox.cif.g08.bks.cpg/sg15_23_cif.got.tgz:44412.got - 2010.06.03 18:47:42.
