data_PCOD9261146
_publ_section_title
;
Structure prediction by ZEFSAII (Michael W. Deem and Ramdas Pophale) SiO2 
 PCOD9261146
Probable space group: C 2/C
;
_chemical_formula_sum "Si O2"
_cell_formula_units_Z 44
_cell_length_a 19.425155
_cell_length_b 13.502533
_cell_length_c 15.352514
_cell_angle_alpha 90.000000
_cell_angle_beta 27.913787
_cell_angle_gamma 90.000000
_cell_volume 1885.112509
_symmetry_space_group_name_H-M "C 2/C"
_symmetry_group_IT_number 15
_symmetry_cell_setting 'monoclinic'
loop_
_space_group_symop_operation_xyz
x,y,z
-x,y,1/2-z
-x,-y,-z
x,-y,1/2+z
1/2+x,1/2+y,z
1/2-x,1/2+y,1/2-z
1/2-x,1/2-y,-z
1/2+x,1/2-y,1/2+z
loop_
_atom_site_type_symbol
_atom_site_label
_atom_site_fract_x
_atom_site_fract_y
_atom_site_fract_z
Si Si1 0.809038 0.550177 0.943344
Si Si2 0.656334 0.770574 0.963789
Si Si3 0.583982 0.124818 0.856831
Si Si4 0.000000 0.892023 0.750000
Si Si5 0.901626 0.213405 0.783456
Si Si6 0.848572 0.379144 0.032460
O O1 0.832722 0.653865 0.967290
O O2 0.635393 0.543450 0.128382
O O3 0.861334 0.460580 0.943356
O O4 0.124031 0.560428 0.727322
O O5 0.809165 0.721258 0.767508
O O6 0.578380 0.832383 0.975234
O O7 0.556958 0.680051 0.109656
O O8 0.624875 0.075486 0.901930
O O9 0.819928 0.160562 0.793235
O O10 0.000000 0.162087 0.750000
O O11 0.019365 0.298046 0.623370
O O12 0.750000 0.250000 0.000000
#
# Coordination Sequence:
#
# PCOD9261146 Si02
#       6
#     8   8   8   4   8   8
#     4  11  23  39  69 103 139 179 230 285 340 412
#     4  11  19  40  67  97 137 179 217 283 362 404
#     4  11  22  39  67 101 139 176 223 290 343 399
#     4  10  18  40  66  98 138 178 220 276 366 406
#     4   9  21  44  69  88 135 185 220 269 334 402
#     4  11  24  43  70 104 132 183 236 275 337 405
#
# _framework density 23.340782999999998
#
# number of rings (size 3 to 8) (size 9 to 14) (size 15 to 20)
#    0.000    1.455    3.636    2.182    1.273    5.091 
#    0.000    9.091    0.000    0.000    0.000    0.000 
#    0.000    0.000    0.000    0.000    0.000    0.000 
#
# Total GULP energy -122877.301891 kJ/mol
# GULP energy per Si atom -5585.331904 kJ/mol
# Density = 2.328766 g / cm^3
# Si number density = 23.340783 Si / 1000 Ang^3
#
#
#
# Elastic Constant Matrix: (Units=GPa)
#
#
# Indices 1 2 3 4 5 6 
#
# 1 193.7061 59.1448 47.7259 0.0000 -28.1331 0.0000
# 2 59.1448 90.1438 37.4861 0.0001 -4.8779 0.0000
# 3 47.7259 37.4861 106.9019 0.0003 -42.0481 -0.0001
# 4 0.0000 0.0001 0.0003 22.6502 -0.0001 -6.1805
# 5 -28.1331 -4.8779 -42.0481 -0.0001 41.9689 0.0000
# 6 0.0000 0.0000 -0.0001 -6.1805 0.0000 32.2079
#
#
#
# Elastic Compliance Matrix: (Units=1/GPa)
#
#
# Indices 1 2 3 4 5 6 
#
# 1 0.007144 -0.004495 0.000107 0.000000 0.004374 0.000000
# 2 -0.004495 0.016495 -0.006946 0.000000 -0.008055 0.000000
# 3 0.000107 -0.006946 0.018901 0.000000 0.018202 0.000000
# 4 0.000000 0.000000 0.000000 0.046589 0.000000 0.008940
# 5 0.004374 -0.008055 0.018202 0.000000 0.044059 0.000000
# 6 0.000000 0.000000 0.000000 0.008940 0.000000 0.032764
#
#
# Mechanical properties :
#
#
# Convention : Reuss Voigt Hill
#
# Bulk Modulus (GPa) = 50.31818 75.49614 62.90716
# Shear Modulus (GPa) = 25.60911 35.79175 30.70043
#
# Velocity S-wave (km/s) = 3.31597 3.92017 3.63066
# Velocity P-wave (km/s) = 6.02210 7.27363 6.67725
#
# Compressibility (1/GPa) = 0.01987353
#
# Stress axis : x y z
#
# Youngs Moduli (GPa) = 139.98281 60.62414 52.90640
#
# Poissons Ratio (x) = 0.27251 -0.00567
# Poissons Ratio (y) = 0.62923 0.36746
# Poissons Ratio (z) = -0.01501 0.42107
#
# Static dielectric constant tensor:
#      x y z
#    x 1.948630 0.000000 -0.007150 
#    y 0.000000 1.925070 0.000000 
#    z -0.007150 0.000000 1.891010 
# 
# From -- ./inp_files/255636.got.cif
#   From: 2010.05.17/outbox.cif.g08.bks.cpg/sg15_128_cif.got.tgz:255636.got - 2010.06.03 18:47:42.
