data_PCOD9261602
_publ_section_title
;
Structure prediction by ZEFSAII (Michael W. Deem and Ramdas Pophale) SiO2 
 PCOD9261602
Probable space group: C 2/C
;
_chemical_formula_sum "Si O2"
_cell_formula_units_Z 56
_cell_length_a 28.002627
_cell_length_b 19.726145
_cell_length_c 5.398815
_cell_angle_alpha 90.000000
_cell_angle_beta 60.836581
_cell_angle_gamma 90.000000
_cell_volume 2604.172629
_symmetry_space_group_name_H-M "C 2/C"
_symmetry_group_IT_number 15
_symmetry_cell_setting 'monoclinic'
loop_
_space_group_symop_operation_xyz
x,y,z
-x,y,1/2-z
-x,-y,-z
x,-y,1/2+z
1/2+x,1/2+y,z
1/2-x,1/2+y,1/2-z
1/2-x,1/2-y,-z
1/2+x,1/2-y,1/2+z
loop_
_atom_site_type_symbol
_atom_site_label
_atom_site_fract_x
_atom_site_fract_y
_atom_site_fract_z
Si Si1 0.322370 0.956212 0.194903
Si Si2 0.646393 0.596526 0.537977
Si Si3 0.826703 0.753464 0.552522
Si Si4 0.794180 0.104045 0.615944
Si Si5 0.022768 0.076235 0.940997
Si Si6 0.801211 0.267214 0.617602
Si Si7 0.056673 0.543681 0.170686
O O1 0.268408 0.911870 0.285205
O O2 0.319245 0.987960 0.479532
O O3 0.383131 0.924979 0.012909
O O4 0.638514 0.678642 0.550127
O O5 0.687185 0.578654 0.660707
O O6 0.587476 0.569014 0.756507
O O7 0.669636 0.578536 0.208163
O O8 0.828689 0.709929 0.300069
O O9 0.763299 0.782492 0.718871
O O10 0.831291 0.712990 0.793258
O O11 0.803311 0.185080 0.609247
O O12 0.000000 0.110488 0.750000
O O13 0.000000 0.109045 0.250000
O O14 0.000000 0.000000 0.000000
O O15 0.055153 0.514015 0.455078
O O16 0.000000 0.582588 0.250000
#
# Coordination Sequence:
#
# PCOD9261602 Si02
#       7
#     8   8   8   8   8   8   8
#     4  10  19  31  40  62  94 120 154 186 217 269
#     4  10  19  33  50  67  89 115 157 196 244 300
#     4   8  14  25  44  67  86 110 134 177 219 277
#     4  10  19  31  45  69  95 123 147 187 244 295
#     4  10  21  38  50  64  85 118 166 217 247 279
#     4   8  14  25  42  64  93 112 135 166 221 280
#     4   8  14  25  42  57  76 108 145 179 202 229
#
# _framework density 21.503952000000002
#
# number of rings (size 3 to 8) (size 9 to 14) (size 15 to 20)
#    0.000    2.857    0.000    1.714    0.000    0.000 
#   15.429    0.000    0.000    0.000    0.000    1.000 
#    0.000    9.143    0.000    0.857    0.000    2.429 
#
# Total GULP energy -156065.039454 kJ/mol
# GULP energy per Si atom -5573.751409 kJ/mol
# Density = 2.145501 g / cm^3
# Si number density = 21.503952 Si / 1000 Ang^3
#
#
#
# Elastic Constant Matrix: (Units=GPa)
#
#
# Indices 1 2 3 4 5 6 
#
# 1 105.0697 8.2545 59.5312 0.0000 3.0027 0.0000
# 2 8.2545 31.1807 18.8054 0.0000 -7.4159 0.0000
# 3 59.5312 18.8054 150.2798 0.0000 22.9009 0.0000
# 4 0.0000 0.0000 0.0000 12.1082 0.0000 -5.8997
# 5 3.0027 -7.4159 22.9009 0.0000 66.0221 0.0000
# 6 0.0000 0.0000 0.0000 -5.8997 0.0000 -12.9808
#
#
#
# Elastic Compliance Matrix: (Units=1/GPa)
#
#
# Indices 1 2 3 4 5 6 
#
# 1 0.012361 0.000088 -0.005093 0.000000 0.001214 0.000000
# 2 0.000088 0.036851 -0.005571 0.000000 0.006068 0.000000
# 3 -0.005093 -0.005571 0.009955 0.000000 -0.003847 0.000000
# 4 0.000000 0.000000 0.000000 0.067615 0.000000 -0.030731
# 5 0.001214 0.006068 -0.003847 0.000000 0.017107 0.000000
# 6 0.000000 0.000000 0.000000 -0.030731 0.000000 -0.063070
#
#
# Mechanical properties :
#
#
# Convention : Reuss Voigt Hill
#
# Bulk Modulus (GPa) = 26.30488 51.07915 38.69201
# Shear Modulus (GPa) = 43.61373 26.35919 34.98646
#
# Velocity S-wave (km/s) = 4.50841 3.50492 4.03796
# Velocity P-wave (km/s) = 6.27377 6.33910 6.30652
#
# Compressibility (1/GPa) = 0.03801576
#
# Stress axis : x y z
#
# Youngs Moduli (GPa) = 80.89684 27.13650 100.45127
#
# Poissons Ratio (x) = -0.00238 0.51158
# Poissons Ratio (y) = -0.00711 0.55959
# Poissons Ratio (z) = 0.41199 0.15117
#
# Static dielectric constant tensor:
#      x y z
#    x 1.836780 0.000000 0.068060 
#    y 0.000000 1.825490 0.000000 
#    z 0.068060 0.000000 1.833480 
# 
# From -- ./inp_files/17779.got.cif
#   From: 2010.05.17/outbox.cif.g08.bks.cpg/sg15_9_cif.got.tgz:17779.got - 2010.06.03 18:47:42.
