data_PCOD9261540
_publ_section_title
;
Structure prediction by ZEFSAII (Michael W. Deem and Ramdas Pophale) SiO2 
 PCOD9261540
Probable space group: C 2/C
;
_chemical_formula_sum "Si O2"
_cell_formula_units_Z 40
_cell_length_a 16.513881
_cell_length_b 13.456797
_cell_length_c 12.361662
_cell_angle_alpha 90.000000
_cell_angle_beta 31.615214
_cell_angle_gamma 90.000000
_cell_volume 1440.040533
_symmetry_space_group_name_H-M "C 2/C"
_symmetry_group_IT_number 15
_symmetry_cell_setting 'monoclinic'
loop_
_space_group_symop_operation_xyz
x,y,z
-x,y,1/2-z
-x,-y,-z
x,-y,1/2+z
1/2+x,1/2+y,z
1/2-x,1/2+y,1/2-z
1/2-x,1/2-y,-z
1/2+x,1/2-y,1/2+z
loop_
_atom_site_type_symbol
_atom_site_label
_atom_site_fract_x
_atom_site_fract_y
_atom_site_fract_z
Si Si1 0.120058 0.681891 0.700224
Si Si2 0.841672 0.854946 0.442245
Si Si3 0.208012 0.451373 0.375961
Si Si4 0.590079 0.851308 0.888553
Si Si5 0.613298 0.438538 0.525942
O O1 0.250000 0.750000 0.500000
O O2 0.214763 0.588246 0.631603
O O3 0.000000 0.648877 0.750000
O O4 0.011534 0.721800 0.919752
O O5 0.756524 0.912384 0.439769
O O6 0.714776 0.805354 0.665057
O O7 0.000000 0.793138 0.250000
O O8 0.907610 0.945147 0.440156
O O9 0.174573 0.567408 0.373987
O O10 0.043980 0.403525 0.529233
O O11 0.356485 0.417418 0.134033
O O12 0.500000 0.395275 0.750000
#
# Coordination Sequence:
#
# PCOD9261540 Si02
#       5
#     8   8   8   8   8
#     4  11  22  36  54  76 102 138 185 230 272 313
#     4  10  19  30  51  85 118 145 172 213 278 339
#     4   9  17  31  51  79 114 148 177 211 271 337
#     4   9  19  33  52  77 109 147 181 220 271 329
#     4   9  19  32  50  80 114 145 178 218 268 324
#
# _framework density 27.776994999999999
#
# number of rings (size 3 to 8) (size 9 to 14) (size 15 to 20)
#    0.000    2.400    0.000    3.600    0.000    8.800 
#    0.000    0.000    0.000    0.000    0.000   44.800 
#    0.000    0.000    0.000    0.000    0.000    0.000 
#
# Total GULP energy -111446.785816 kJ/mol
# GULP energy per Si atom -5572.339291 kJ/mol
# Density = 2.771377 g / cm^3
# Si number density = 27.776995 Si / 1000 Ang^3
#
#
#
# Elastic Constant Matrix: (Units=GPa)
#
#
# Indices 1 2 3 4 5 6 
#
# 1 148.1133 16.8892 61.9935 0.0000 -0.7803 0.0000
# 2 16.8892 57.8448 30.2288 0.0000 -0.8194 0.0000
# 3 61.9935 30.2288 298.0330 0.0000 19.3609 0.0000
# 4 0.0000 0.0000 0.0000 43.0037 0.0000 -3.7406
# 5 -0.7803 -0.8194 19.3609 0.0000 42.9395 0.0000
# 6 0.0000 0.0000 0.0000 -3.7406 0.0000 10.9690
#
#
#
# Elastic Compliance Matrix: (Units=1/GPa)
#
#
# Indices 1 2 3 4 5 6 
#
# 1 0.007534 -0.001419 -0.001474 0.000000 0.000774 0.000000
# 2 -0.001419 0.018585 -0.001660 0.000000 0.001077 0.000000
# 3 -0.001474 -0.001660 0.003950 0.000000 -0.001839 0.000000
# 4 0.000000 0.000000 0.000000 0.023965 0.000000 0.008172
# 5 0.000774 0.001077 -0.001839 0.000000 0.024153 0.000000
# 6 0.000000 0.000000 0.000000 0.008172 0.000000 0.093953
#
#
# Mechanical properties :
#
#
# Convention : Reuss Voigt Hill
#
# Bulk Modulus (GPa) = 47.70062 80.24602 63.97332
# Shear Modulus (GPa) = 26.56309 45.70774 36.13542
#
# Velocity S-wave (km/s) = 3.09576 4.06091 3.61073
# Velocity P-wave (km/s) = 5.47616 7.13723 6.36115
#
# Compressibility (1/GPa) = 0.02096409
#
# Stress axis : x y z
#
# Youngs Moduli (GPa) = 132.72774 53.80808 253.18420
#
# Poissons Ratio (x) = 0.07634 0.37309
# Poissons Ratio (y) = 0.18831 0.42025
# Poissons Ratio (z) = 0.19559 0.08931
#
# Static dielectric constant tensor:
#      x y z
#    x 2.167690 0.000000 0.078760 
#    y 0.000000 2.138210 0.000000 
#    z 0.078760 0.000000 2.439400 
# 
# From -- ./inp_files/107438.got.cif
#   From: 2010.05.17/outbox.cif.g08.bks.cpg/sg15_54_cif.got.tgz:107438.got - 2010.06.03 18:47:42.
