data_PCOD9261885
_publ_section_title
;
Structure prediction by ZEFSAII (Michael W. Deem and Ramdas Pophale) SiO2 
 PCOD9261885
Probable space group: C 2/C
;
_chemical_formula_sum "Si O2"
_cell_formula_units_Z 64
_cell_length_a 21.689217
_cell_length_b 17.558276
_cell_length_c 27.899754
_cell_angle_alpha 90.000000
_cell_angle_beta 19.545471
_cell_angle_gamma 90.000000
_cell_volume 3554.622225
_symmetry_space_group_name_H-M "C 2/C"
_symmetry_group_IT_number 15
_symmetry_cell_setting 'monoclinic'
loop_
_space_group_symop_operation_xyz
x,y,z
-x,y,1/2-z
-x,-y,-z
x,-y,1/2+z
1/2+x,1/2+y,z
1/2-x,1/2+y,1/2-z
1/2-x,1/2-y,-z
1/2+x,1/2-y,1/2+z
loop_
_atom_site_type_symbol
_atom_site_label
_atom_site_fract_x
_atom_site_fract_y
_atom_site_fract_z
Si Si1 0.262231 0.142559 0.623513
Si Si2 0.226519 0.333419 0.493432
Si Si3 0.029172 0.809523 0.926797
Si Si4 0.781769 0.408396 0.906703
Si Si5 0.336418 0.819779 0.625128
Si Si6 0.781579 0.512453 0.158946
Si Si7 0.815742 0.303401 0.798286
Si Si8 0.981739 0.978988 0.957492
O O1 0.206947 0.154021 0.608917
O O2 0.479678 0.160335 0.477390
O O3 0.163418 0.212797 0.722517
O O4 0.215066 0.058539 0.676043
O O5 0.250000 0.250000 0.500000
O O6 0.288455 0.393246 0.488257
O O7 0.006733 0.343516 0.648270
O O8 0.174166 0.789454 0.778531
O O9 0.157497 0.828378 0.878569
O O10 0.932814 0.889788 0.986629
O O11 0.900672 0.740913 0.038513
O O12 0.765669 0.329116 0.888664
O O13 0.000000 0.426614 0.750000
O O14 0.667280 0.469195 0.960516
O O15 0.263883 0.899487 0.656351
O O16 0.675797 0.508516 0.287299
O O17 0.000000 0.500000 0.000000
O O18 0.000000 0.000000 0.000000
#
# Coordination Sequence:
#
# PCOD9261885 Si02
#       8
#     8   8   8   8   8   8   8   8
#     4  10  19  32  52  74 116 155 190 229 279 335
#     4  11  21  32  49  73 117 163 200 214 272 339
#     4  10  19  34  58  80 111 142 191 242 294 340
#     4  10  22  36  50  81 117 150 198 243 273 341
#     4   9  19  35  53  83 109 143 187 241 295 342
#     4   9  21  36  53  84 118 148 188 248 294 343
#     4  10  19  32  48  75 109 155 194 231 263 327
#     4  11  22  37  61  83 111 155 203 241 294 349
#
# _framework density 18.004726000000002
#
# number of rings (size 3 to 8) (size 9 to 14) (size 15 to 20)
#    0.000    2.000    3.750    0.000    1.750    3.000 
#    0.000    0.000    0.000    0.000    0.000    7.875 
#    0.000    0.000    0.000    0.000    0.000    0.000 
#
# Total GULP energy -178257.608715 kJ/mol
# GULP energy per Si atom -5570.550272 kJ/mol
# Density = 1.796375 g / cm^3
# Si number density = 18.004726 Si / 1000 Ang^3
#
#
#
# Elastic Constant Matrix: (Units=GPa)
#
#
# Indices 1 2 3 4 5 6 
#
# 1 66.5819 55.1269 20.5209 -0.0070 6.8214 -0.0034
# 2 55.1269 129.0956 51.6203 0.0121 11.7354 0.0052
# 3 20.5209 51.6203 70.3497 0.0347 9.5231 0.0117
# 4 -0.0070 0.0121 0.0347 23.6487 0.0094 0.6607
# 5 6.8214 11.7354 9.5231 0.0094 28.9088 -0.0036
# 6 -0.0034 0.0052 0.0117 0.6607 -0.0036 32.0778
#
#
#
# Elastic Compliance Matrix: (Units=1/GPa)
#
#
# Indices 1 2 3 4 5 6 
#
# 1 0.023335 -0.010163 0.000877 0.000011 -0.001669 0.000003
# 2 -0.010163 0.015488 -0.008241 0.000002 -0.001174 -0.000001
# 3 0.000877 -0.008241 0.020495 -0.000024 -0.003613 -0.000006
# 4 0.000011 0.000002 -0.000024 0.042310 -0.000009 -0.000871
# 5 -0.001669 -0.001174 -0.003613 -0.000009 0.036652 0.000006
# 6 0.000003 -0.000001 -0.000006 -0.000871 0.000006 0.031192
#
#
# Mechanical properties :
#
#
# Convention : Reuss Voigt Hill
#
# Bulk Modulus (GPa) = 41.21567 57.84037 49.52802
# Shear Modulus (GPa) = 23.51663 26.17767 24.84715
#
# Velocity S-wave (km/s) = 3.61797 3.81718 3.71891
# Velocity P-wave (km/s) = 6.35565 7.18489 6.78295
#
# Compressibility (1/GPa) = 0.02426262
#
# Stress axis : x y z
#
# Youngs Moduli (GPa) = 42.85470 64.56506 48.79202
#
# Poissons Ratio (x) = 0.65619 -0.04278
# Poissons Ratio (y) = 0.43555 0.40210
# Poissons Ratio (z) = -0.03757 0.53209
#
# Static dielectric constant tensor:
#      x y z
#    x 1.620260 -0.000010 0.043600 
#    y -0.000010 1.650520 0.000030 
#    z 0.043600 0.000030 1.623760 
# 
# From -- ./inp_files/301347.got.cif
#   From: 2010.05.17/outbox.cif.g08.bks.cpg/sg15_151_cif.got.tgz:301347.got - 2010.06.03 18:47:42.
