data_PCOD9261481
_publ_section_title
;
Structure prediction by ZEFSAII (Michael W. Deem and Ramdas Pophale) SiO2 
 PCOD9261481
Probable space group: C 2/C
;
_chemical_formula_sum "Si O2"
_cell_formula_units_Z 48
_cell_length_a 14.138139
_cell_length_b 30.891872
_cell_length_c 5.175556
_cell_angle_alpha 90.000000
_cell_angle_beta 109.865917
_cell_angle_gamma 90.000000
_cell_volume 2125.924666
_symmetry_space_group_name_H-M "C 2/C"
_symmetry_group_IT_number 15
_symmetry_cell_setting 'monoclinic'
loop_
_space_group_symop_operation_xyz
x,y,z
-x,y,1/2-z
-x,-y,-z
x,-y,1/2+z
1/2+x,1/2+y,z
1/2-x,1/2+y,1/2-z
1/2-x,1/2-y,-z
1/2+x,1/2-y,1/2+z
loop_
_atom_site_type_symbol
_atom_site_label
_atom_site_fract_x
_atom_site_fract_y
_atom_site_fract_z
Si Si1 0.309768 0.797581 0.847382
Si Si2 0.207033 0.613263 0.308580
Si Si3 0.829182 0.794408 0.282056
Si Si4 0.388849 0.520105 0.900661
Si Si5 0.658778 0.616608 0.566681
Si Si6 0.879596 0.477646 0.653481
O O1 0.356916 0.844196 0.827589
O O2 0.218524 0.795678 0.549346
O O3 0.372550 0.753719 0.863611
O O4 0.261380 0.796861 0.088256
O O5 0.251697 0.616855 0.638286
O O6 0.152977 0.567685 0.253668
O O7 0.297274 0.614460 0.181373
O O8 0.892877 0.837270 0.413660
O O9 0.339076 0.505061 0.590633
O O10 0.396850 0.571384 0.938065
O O11 0.500000 0.500000 0.000000
O O12 0.848932 0.485083 0.328195
O O13 0.000000 0.477522 0.750000
#
# Coordination Sequence:
#
# PCOD9261481 Si02
#       6
#     8   8   8   8   8   8
#     4   8  14  25  41  64  94 118 142 182 240 281
#     4  10  19  30  48  73  96 122 155 202 240 279
#     4   8  14  25  41  64  94 118 142 185 234 287
#     4  10  21  35  48  65  93 128 165 196 240 290
#     4  10  19  30  48  73  96 120 161 199 242 279
#     4  10  21  35  48  65  94 130 161 186 234 289
#
# _framework density 22.578413000000001
#
# number of rings (size 3 to 8) (size 9 to 14) (size 15 to 20)
#    0.000    2.667    0.000    2.000    0.000    4.000 
#    0.000    0.000    0.000    0.000    4.333    0.000 
#   10.000    0.000    0.000    0.000    0.000    0.000 
#
# Total GULP energy -133761.468396 kJ/mol
# GULP energy per Si atom -5573.394517 kJ/mol
# Density = 2.252702 g / cm^3
# Si number density = 22.578413 Si / 1000 Ang^3
#
#
#
# Elastic Constant Matrix: (Units=GPa)
#
#
# Indices 1 2 3 4 5 6 
#
# 1 28.2373 18.0873 12.3859 0.0000 -3.9068 0.0000
# 2 18.0873 234.9518 9.8933 0.0000 -13.2014 0.0000
# 3 12.3859 9.8933 127.8988 0.0000 -26.3578 0.0000
# 4 0.0000 0.0000 0.0000 34.8815 0.0000 -13.0281
# 5 -3.9068 -13.2014 -26.3578 0.0000 12.6390 0.0000
# 6 0.0000 0.0000 0.0000 -13.0281 0.0000 -7.1862
#
#
#
# Elastic Compliance Matrix: (Units=1/GPa)
#
#
# Indices 1 2 3 4 5 6 
#
# 1 0.038848 -0.002692 -0.002909 0.000000 0.003130 0.000000
# 2 -0.002692 0.004797 0.001317 0.000000 0.006924 0.000000
# 3 -0.002909 0.001317 0.014199 0.000000 0.030087 0.000000
# 4 0.000000 0.000000 0.000000 0.017094 0.000000 -0.030990
# 5 0.003130 0.006924 0.030087 0.000000 0.150065 0.000000
# 6 0.000000 0.000000 0.000000 -0.030990 0.000000 -0.082973
#
#
# Mechanical properties :
#
#
# Convention : Reuss Voigt Hill
#
# Bulk Modulus (GPa) = 20.29432 52.42453 36.35943
# Shear Modulus (GPa) = 29.93599 31.44828 30.69214
#
# Velocity S-wave (km/s) = 3.64520 3.73614 3.69095
# Velocity P-wave (km/s) = 5.16957 6.47154 5.85685
#
# Compressibility (1/GPa) = 0.04927487
#
# Stress axis : x y z
#
# Youngs Moduli (GPa) = 25.74157 208.46152 70.42770
#
# Poissons Ratio (x) = 0.56123 0.20485
# Poissons Ratio (y) = 0.06930 -0.09272
# Poissons Ratio (z) = 0.07487 -0.27445
#
# Static dielectric constant tensor:
#      x y z
#    x 1.731940 0.000000 -0.065630 
#    y 0.000000 1.954370 0.000000 
#    z -0.065630 0.000000 2.000730 
# 
# From -- ./inp_files/8670.got.cif
#   From: 2010.05.17/outbox.cif.g08.bks.cpg/sg15_5_cif.got.tgz:8670.got - 2010.06.03 18:47:42.
