data_PCOD9261795
_publ_section_title
;
Structure prediction by ZEFSAII (Michael W. Deem and Ramdas Pophale) SiO2 
 PCOD9261795
Probable space group: C 2/C
;
_chemical_formula_sum "Si O2"
_cell_formula_units_Z 64
_cell_length_a 21.206369
_cell_length_b 12.621684
_cell_length_c 23.787751
_cell_angle_alpha 90.000000
_cell_angle_beta 35.640259
_cell_angle_gamma 90.000000
_cell_volume 3710.032049
_symmetry_space_group_name_H-M "C 2/C"
_symmetry_group_IT_number 15
_symmetry_cell_setting 'monoclinic'
loop_
_space_group_symop_operation_xyz
x,y,z
-x,y,1/2-z
-x,-y,-z
x,-y,1/2+z
1/2+x,1/2+y,z
1/2-x,1/2+y,1/2-z
1/2-x,1/2-y,-z
1/2+x,1/2-y,1/2+z
loop_
_atom_site_type_symbol
_atom_site_label
_atom_site_fract_x
_atom_site_fract_y
_atom_site_fract_z
Si Si1 0.721784 0.566237 0.808662
Si Si2 0.218852 0.870823 0.887179
Si Si3 0.874061 0.746581 0.358172
Si Si4 0.905024 0.045956 0.779037
Si Si5 0.879662 0.277450 0.136893
Si Si6 0.034846 0.192966 0.597806
Si Si7 0.408936 0.221055 0.089691
Si Si8 0.811972 0.097961 0.258698
O O1 0.747745 0.483358 0.839055
O O2 0.822233 0.619046 0.703105
O O3 0.645997 0.663955 0.881322
O O4 0.665132 0.492636 0.803579
O O5 0.304935 0.832549 0.870780
O O6 0.198038 0.782947 0.852810
O O7 0.104658 0.873222 0.002574
O O8 0.842632 0.865584 0.360708
O O9 0.881948 0.747264 0.420081
O O10 0.000000 0.731548 0.250000
O O11 0.000000 0.003215 0.750000
O O12 0.963147 0.116153 0.688339
O O13 0.837481 0.953608 0.799790
O O14 0.884363 0.196572 0.185992
O O15 0.992838 0.297373 0.024357
O O16 0.960085 0.270688 0.615217
O O17 0.311992 0.137244 0.155785
#
# Coordination Sequence:
#
# PCOD9261795 Si02
#       8
#     8   8   8   8   8   8   8   8
#     4  10  20  31  52  77 106 135 180 207 263 323
#     4  10  19  31  54  76 107 143 169 215 264 311
#     4   9  19  31  52  75 112 137 165 214 262 317
#     4   9  18  32  53  77  99 132 178 214 255 312
#     4   9  21  33  50  79 108 136 172 224 259 315
#     4   9  18  31  52  80 108 130 171 216 259 323
#     4  10  20  34  51  82 107 137 171 217 276 302
#     4  10  19  31  57  72 106 138 168 225 256 313
#
# _framework density 17.250525
#
# number of rings (size 3 to 8) (size 9 to 14) (size 15 to 20)
#    0.000    2.750    1.250    1.125   10.500    2.000 
#    0.000    0.000    5.500    3.750    0.000    0.000 
#    0.000    0.000    0.000    0.000    0.000    0.000 
#
# Total GULP energy -178205.417502 kJ/mol
# GULP energy per Si atom -5568.919297 kJ/mol
# Density = 1.721126 g / cm^3
# Si number density = 17.250525 Si / 1000 Ang^3
#
#
#
# Elastic Constant Matrix: (Units=GPa)
#
#
# Indices 1 2 3 4 5 6 
#
# 1 120.4595 46.1089 22.5632 0.0000 6.0390 0.0000
# 2 46.1089 54.1288 7.5197 0.0000 6.9221 0.0000
# 3 22.5632 7.5197 76.1921 0.0000 6.9100 0.0000
# 4 0.0000 0.0000 0.0000 16.5657 0.0000 5.1966
# 5 6.0390 6.9221 6.9100 0.0000 14.6932 0.0000
# 6 0.0000 0.0000 0.0000 5.1966 0.0000 33.1167
#
#
#
# Elastic Compliance Matrix: (Units=1/GPa)
#
#
# Indices 1 2 3 4 5 6 
#
# 1 0.012885 -0.010719 -0.002857 0.000000 0.001098 0.000000
# 2 -0.010719 0.028673 0.001222 0.000000 -0.009677 0.000000
# 3 -0.002857 0.001222 0.014411 0.000000 -0.006178 0.000000
# 4 0.000000 0.000000 0.000000 0.063491 0.000000 -0.009963
# 5 0.001098 -0.009677 -0.006178 0.000000 0.075072 0.000000
# 6 0.000000 0.000000 0.000000 -0.009963 0.000000 0.031760
#
#
# Mechanical properties :
#
#
# Convention : Reuss Voigt Hill
#
# Bulk Modulus (GPa) = 31.98997 44.79602 38.39299
# Shear Modulus (GPa) = 19.12633 24.51436 21.82035
#
# Velocity S-wave (km/s) = 3.33339 3.77381 3.56041
# Velocity P-wave (km/s) = 5.77926 6.70918 6.26151
#
# Compressibility (1/GPa) = 0.03125980
#
# Stress axis : x y z
#
# Youngs Moduli (GPa) = 77.61139 34.87585 69.39342
#
# Poissons Ratio (x) = 0.37384 0.19828
# Poissons Ratio (y) = 0.83193 -0.08480
# Poissons Ratio (z) = 0.22176 -0.04262
#
# Static dielectric constant tensor:
#      x y z
#    x 1.628260 0.000000 0.007010 
#    y 0.000000 1.587610 0.000000 
#    z 0.007010 0.000000 1.628860 
# 
# From -- ./inp_files/279879.got.cif
#   From: 2010.05.17/outbox.cif.g08.bks.cpg/sg15_140_cif.got.tgz:279879.got - 2010.06.03 18:47:42.
