data_PCOD9261204
_publ_section_title
;
Structure prediction by ZEFSAII (Michael W. Deem and Ramdas Pophale) SiO2 
 PCOD9261204
Probable space group: C 2/C
;
_chemical_formula_sum "Si O2"
_cell_formula_units_Z 48
_cell_length_a 30.153718
_cell_length_b 15.305077
_cell_length_c 14.703316
_cell_angle_alpha 90.000000
_cell_angle_beta 158.697372
_cell_angle_gamma 90.000000
_cell_volume 2465.186958
_symmetry_space_group_name_H-M "C 2/C"
_symmetry_group_IT_number 15
_symmetry_cell_setting 'monoclinic'
loop_
_space_group_symop_operation_xyz
x,y,z
-x,y,1/2-z
-x,-y,-z
x,-y,1/2+z
1/2+x,1/2+y,z
1/2-x,1/2+y,1/2-z
1/2-x,1/2-y,-z
1/2+x,1/2-y,1/2+z
loop_
_atom_site_type_symbol
_atom_site_label
_atom_site_fract_x
_atom_site_fract_y
_atom_site_fract_z
Si Si1 0.626303 0.292632 0.227693
Si Si2 0.234125 0.291149 0.367970
Si Si3 0.055994 0.849299 0.456436
Si Si4 0.371540 0.482797 0.306204
Si Si5 0.041629 0.303046 0.229709
Si Si6 0.873710 0.447707 0.242344
O O1 0.750000 0.250000 0.500000
O O2 0.543022 0.322486 0.154786
O O3 0.638384 0.380664 0.190770
O O4 0.559765 0.222310 0.037569
O O5 0.250000 0.250000 0.500000
O O6 0.371791 0.282897 0.596596
O O7 0.164526 0.381738 0.249210
O O8 0.156293 0.226026 0.158382
O O9 0.118312 0.942517 0.598085
O O10 0.000000 0.850817 0.250000
O O11 0.500000 0.500000 0.500000
O O12 0.250288 0.499150 0.014118
O O13 0.000000 0.326400 0.250000
O O14 0.107221 0.385896 0.309185
O O15 0.000000 0.500000 0.500000
#
# Coordination Sequence:
#
# PCOD9261204 Si02
#       6
#     8   8   8   8   8   8
#     4  11  23  39  62  96 132 163 214 274 328 389
#     4  10  18  41  66  85 126 173 218 262 332 392
#     4  11  22  39  66  92 126 174 222 264 325 396
#     4  10  21  39  62  92 126 167 214 269 329 389
#     4  11  23  41  67  92 128 178 220 264 335 402
#     4  11  21  41  71  93 127 174 220 276 334 392
#
# _framework density 19.471139000000001
#
# number of rings (size 3 to 8) (size 9 to 14) (size 15 to 20)
#    0.000    1.333    6.667    2.000    2.333    0.667 
#    0.000    2.500    0.000    0.000    0.000    0.000 
#    0.000    0.000    0.000    0.000    0.000    0.000 
#
# Total GULP energy -133701.513631 kJ/mol
# GULP energy per Si atom -5570.896401 kJ/mol
# Density = 1.942682 g / cm^3
# Si number density = 19.471139 Si / 1000 Ang^3
#
#
#
# Elastic Constant Matrix: (Units=GPa)
#
#
# Indices 1 2 3 4 5 6 
#
# 1 55.9325 1.1307 16.7195 0.0000 -7.4355 0.0000
# 2 1.1307 50.3405 29.0123 0.0000 1.4125 0.0000
# 3 16.7195 29.0123 151.2707 0.0000 -2.9522 0.0000
# 4 0.0000 0.0000 0.0000 47.6825 0.0000 5.0859
# 5 -7.4355 1.4125 -2.9522 0.0000 30.7483 0.0000
# 6 0.0000 0.0000 0.0000 5.0859 0.0000 13.8972
#
#
#
# Elastic Compliance Matrix: (Units=1/GPa)
#
#
# Indices 1 2 3 4 5 6 
#
# 1 0.019092 0.000692 -0.002157 0.000000 0.004378 0.000000
# 2 0.000692 0.022422 -0.004402 0.000000 -0.001285 0.000000
# 3 -0.002157 -0.004402 0.007702 0.000000 0.000420 0.000000
# 4 0.000000 0.000000 0.000000 0.021824 0.000000 -0.007987
# 5 0.004378 -0.001285 0.000420 0.000000 0.033680 0.000000
# 6 0.000000 0.000000 0.000000 -0.007987 0.000000 0.074880
#
#
# Mechanical properties :
#
#
# Convention : Reuss Voigt Hill
#
# Bulk Modulus (GPa) = 26.68079 39.02984 32.85531
# Shear Modulus (GPa) = 24.53053 32.51103 28.52078
#
# Velocity S-wave (km/s) = 3.55327 4.09063 3.83139
# Velocity P-wave (km/s) = 5.52873 6.51149 6.04013
#
# Compressibility (1/GPa) = 0.03748015
#
# Stress axis : x y z
#
# Youngs Moduli (GPa) = 52.37916 44.59874 129.84410
#
# Poissons Ratio (x) = -0.03085 0.28012
# Poissons Ratio (y) = -0.03623 0.57156
# Poissons Ratio (z) = 0.11300 0.19632
#
# Static dielectric constant tensor:
#      x y z
#    x 1.647390 0.000000 0.086590 
#    y 0.000000 1.729070 0.000000 
#    z 0.086590 0.000000 1.704310 
# 
# From -- ./inp_files/182511.got.cif
#   From: 2010.05.17/outbox.cif.g08.bks.cpg/sg15_92_cif.got.tgz:182511.got - 2010.06.03 18:47:42.
