data_PCOD9261988
_publ_section_title
;
Structure prediction by ZEFSAII (Michael W. Deem and Ramdas Pophale) SiO2 
 PCOD9261988
Probable space group: C 2/C
;
_chemical_formula_sum "Si O2"
_cell_formula_units_Z 48
_cell_length_a 14.970102
_cell_length_b 26.373086
_cell_length_c 9.171858
_cell_angle_alpha 90.000000
_cell_angle_beta 32.827509
_cell_angle_gamma 90.000000
_cell_volume 1963.052125
_symmetry_space_group_name_H-M "C 2/C"
_symmetry_group_IT_number 15
_symmetry_cell_setting 'monoclinic'
loop_
_space_group_symop_operation_xyz
x,y,z
-x,y,1/2-z
-x,-y,-z
x,-y,1/2+z
1/2+x,1/2+y,z
1/2-x,1/2+y,1/2-z
1/2-x,1/2-y,-z
1/2+x,1/2-y,1/2+z
loop_
_atom_site_type_symbol
_atom_site_label
_atom_site_fract_x
_atom_site_fract_y
_atom_site_fract_z
Si Si1 0.015317 0.649440 0.893646
Si Si2 0.725918 0.471179 0.103054
Si Si3 0.174050 0.177933 0.508807
Si Si4 0.662763 0.790354 0.434600
Si Si5 0.041925 0.926362 0.848071
Si Si6 0.152544 0.442588 0.879378
O O1 0.000000 0.669002 0.750000
O O2 0.149970 0.679259 0.802180
O O3 0.843007 0.655357 0.217341
O O4 0.019134 0.588143 0.878595
O O5 0.624232 0.428935 0.329891
O O6 0.595101 0.515276 0.242540
O O7 0.845189 0.501997 0.048913
O O8 0.799538 0.450484 0.853904
O O9 0.195383 0.194767 0.648061
O O10 0.158950 0.229546 0.433138
O O11 0.000000 0.149423 0.750000
O O12 0.500000 0.804038 0.750000
O O13 0.000000 0.901393 0.750000
O O14 0.201084 0.912810 0.729548
#
# Coordination Sequence:
#
# PCOD9261988 Si02
#       6
#     8   8   8   8   8   8
#     4  11  24  40  58  93 142 170 203 271 333 391
#     4   9  15  29  52  79 114 161 212 271 318 362
#     4   9  18  39  70  97 113 156 221 260 309 397
#     4   8  17  39  68  91 125 165 200 255 333 395
#     4   9  14  28  52  82 114 153 209 281 322 349
#     4  10  19  32  51  79 118 171 219 253 317 382
#
# _framework density 24.451720000000002
#
# number of rings (size 3 to 8) (size 9 to 14) (size 15 to 20)
#    1.000    1.667    1.667    1.500    0.000    2.000 
#    0.000   13.333    0.000    0.000    0.000    0.000 
#    0.000    0.000    0.000    0.000    0.000    0.000 
#
# Total GULP energy -133797.585407 kJ/mol
# GULP energy per Si atom -5574.899392 kJ/mol
# Density = 2.439607 g / cm^3
# Si number density = 24.451720 Si / 1000 Ang^3
#
#
#
# Elastic Constant Matrix: (Units=GPa)
#
#
# Indices 1 2 3 4 5 6 
#
# 1 95.1684 56.5134 14.1973 0.0000 22.7611 0.0000
# 2 56.5134 63.3723 12.6814 0.0000 10.6392 0.0000
# 3 14.1973 12.6814 83.2082 0.0000 15.2941 0.0000
# 4 0.0000 0.0000 0.0000 5.1313 0.0000 6.8857
# 5 22.7611 10.6392 15.2941 0.0000 40.5382 0.0000
# 6 0.0000 0.0000 0.0000 6.8857 0.0000 28.3947
#
#
#
# Elastic Compliance Matrix: (Units=1/GPa)
#
#
# Indices 1 2 3 4 5 6 
#
# 1 0.024881 -0.020833 0.000529 0.000000 -0.008702 0.000000
# 2 -0.020833 0.034220 -0.002321 0.000000 0.003592 0.000000
# 3 0.000529 -0.002321 0.013135 0.000000 -0.004644 0.000000
# 4 0.000000 0.000000 0.000000 0.288887 0.000000 -0.070055
# 5 -0.008702 0.003592 -0.004644 0.000000 0.030363 0.000000
# 6 0.000000 0.000000 0.000000 -0.070055 0.000000 0.052206
#
#
# Mechanical properties :
#
#
# Convention : Reuss Voigt Hill
#
# Bulk Modulus (GPa) = 37.05601 45.39255 41.22428
# Shear Modulus (GPa) = 10.04142 25.36998 17.70570
#
# Velocity S-wave (km/s) = 2.02868 3.22460 2.69385
# Velocity P-wave (km/s) = 4.54698 5.69812 5.15478
#
# Compressibility (1/GPa) = 0.02698618
#
# Stress axis : x y z
#
# Youngs Moduli (GPa) = 40.19068 29.22296 76.13265
#
# Poissons Ratio (x) = 0.60881 -0.04029
# Poissons Ratio (y) = 0.83731 0.17669
# Poissons Ratio (z) = -0.02127 0.06782
#
# Static dielectric constant tensor:
#      x y z
#    x 2.009990 0.000000 -0.015000 
#    y 0.000000 1.998970 0.000000 
#    z -0.015000 0.000000 1.968820 
# 
# From -- ./inp_files/43813.got.cif
#   From: 2010.05.17/outbox.cif.g08.bks.cpg/sg15_22_cif.got.tgz:43813.got - 2010.06.03 18:47:42.
