data_PCOD9261346
_publ_section_title
;
Structure prediction by ZEFSAII (Michael W. Deem and Ramdas Pophale) SiO2 
 PCOD9261346
Probable space group: C 2/C
;
_chemical_formula_sum "Si O2"
_cell_formula_units_Z 56
_cell_length_a 7.102645
_cell_length_b 18.734462
_cell_length_c 19.184402
_cell_angle_alpha 90.000000
_cell_angle_beta 56.019919
_cell_angle_gamma 90.000000
_cell_volume 2116.828216
_symmetry_space_group_name_H-M "C 2/C"
_symmetry_group_IT_number 15
_symmetry_cell_setting 'monoclinic'
loop_
_space_group_symop_operation_xyz
x,y,z
-x,y,1/2-z
-x,-y,-z
x,-y,1/2+z
1/2+x,1/2+y,z
1/2-x,1/2+y,1/2-z
1/2-x,1/2-y,-z
1/2+x,1/2-y,1/2+z
loop_
_atom_site_type_symbol
_atom_site_label
_atom_site_fract_x
_atom_site_fract_y
_atom_site_fract_z
Si Si1 0.495992 0.888399 0.987392
Si Si2 0.151096 0.512181 0.866101
Si Si3 0.772030 0.837968 0.714390
Si Si4 0.553539 0.266575 0.952283
Si Si5 0.943992 0.774892 0.178943
Si Si6 0.459981 0.389773 0.070338
Si Si7 0.849126 0.997837 0.185549
O O1 0.615963 0.931132 0.900195
O O2 0.548445 0.807598 0.999196
O O3 0.232504 0.893713 0.019186
O O4 0.509434 0.937020 0.054815
O O5 0.408301 0.529402 0.836268
O O6 0.156214 0.520839 0.782093
O O7 0.500000 0.846248 0.750000
O O8 0.923222 0.788308 0.632980
O O9 0.735599 0.788992 0.789021
O O10 0.861012 0.916926 0.689344
O O11 0.826571 0.252493 0.906710
O O12 0.438300 0.334541 0.012017
O O13 0.000000 0.790997 0.250000
O O14 0.867782 0.845294 0.155941
O O15 0.350398 0.467169 0.106576
#
# Coordination Sequence:
#
# PCOD9261346 Si02
#       7
#     8   8   8   8   8   8   8
#     4   9  17  32  52  77 101 124 170 207 258 293
#     4   9  20  32  51  76 104 131 160 209 256 303
#     4   9  20  34  52  72 100 135 169 207 245 290
#     4   9  18  30  50  77  98 130 164 209 245 288
#     4   8  16  28  50  76  98 122 164 213 251 277
#     4  10  19  28  52  78 103 131 160 211 254 292
#     4  10  21  33  49  74 104 135 165 200 254 303
#
# _framework density 26.454673
#
# number of rings (size 3 to 8) (size 9 to 14) (size 15 to 20)
#    0.000    3.143    0.000    1.714   14.000    0.571 
#    0.000    0.714    0.000    1.714    0.000    0.000 
#    0.000    0.000    0.000    0.000    0.000    0.000 
#
# Total GULP energy -156128.938707 kJ/mol
# GULP energy per Si atom -5576.033525 kJ/mol
# Density = 2.639446 g / cm^3
# Si number density = 26.454673 Si / 1000 Ang^3
#
#
#
# Elastic Constant Matrix: (Units=GPa)
#
#
# Indices 1 2 3 4 5 6 
#
# 1 63.0405 -1.4644 22.3536 0.0000 -9.5329 0.0000
# 2 -1.4644 105.4952 58.9357 0.0000 -9.5825 0.0000
# 3 22.3536 58.9357 152.1403 0.0000 1.8747 0.0000
# 4 0.0000 0.0000 0.0000 36.9594 0.0000 -14.9822
# 5 -9.5329 -9.5825 1.8747 0.0000 27.6584 0.0000
# 6 0.0000 0.0000 0.0000 -14.9822 0.0000 13.8839
#
#
#
# Elastic Compliance Matrix: (Units=1/GPa)
#
#
# Indices 1 2 3 4 5 6 
#
# 1 0.018565 0.003246 -0.004081 0.000000 0.007800 0.000000
# 2 0.003246 0.013255 -0.005687 0.000000 0.006097 0.000000
# 3 -0.004081 -0.005687 0.009425 0.000000 -0.004016 0.000000
# 4 0.000000 0.000000 0.000000 0.048095 0.000000 0.051900
# 5 0.007800 0.006097 -0.004016 0.000000 0.041228 0.000000
# 6 0.000000 0.000000 0.000000 0.051900 0.000000 0.128032
#
#
# Mechanical properties :
#
#
# Convention : Reuss Voigt Hill
#
# Bulk Modulus (GPa) = 35.45954 53.36953 44.41453
# Shear Modulus (GPa) = 17.79080 31.75707 24.77393
#
# Velocity S-wave (km/s) = 2.59608 3.46849 3.06350
# Velocity P-wave (km/s) = 4.73488 6.02148 5.41652
#
# Compressibility (1/GPa) = 0.02820116
#
# Stress axis : x y z
#
# Youngs Moduli (GPa) = 53.86498 75.44383 106.10139
#
# Poissons Ratio (x) = -0.24491 0.43304
# Poissons Ratio (y) = -0.17486 0.60337
# Poissons Ratio (z) = 0.21984 0.42903
#
# Static dielectric constant tensor:
#      x y z
#    x 2.294050 0.000000 0.079620 
#    y 0.000000 2.140290 0.000000 
#    z 0.079620 0.000000 2.087990 
# 
# From -- ./inp_files/239361.got.cif
#   From: 2010.05.17/outbox.cif.g08.bks.cpg/sg15_120_cif.got.tgz:239361.got - 2010.06.03 18:47:42.
