data_PCOD9261648
_publ_section_title
;
Structure prediction by ZEFSAII (Michael W. Deem and Ramdas Pophale) SiO2 
 PCOD9261648
Probable space group: C 2/C
;
_chemical_formula_sum "Si O2"
_cell_formula_units_Z 48
_cell_length_a 20.109360
_cell_length_b 13.489124
_cell_length_c 9.056928
_cell_angle_alpha 90.000000
_cell_angle_beta 63.231643
_cell_angle_gamma 90.000000
_cell_volume 2193.481457
_symmetry_space_group_name_H-M "C 2/C"
_symmetry_group_IT_number 15
_symmetry_cell_setting 'monoclinic'
loop_
_space_group_symop_operation_xyz
x,y,z
-x,y,1/2-z
-x,-y,-z
x,-y,1/2+z
1/2+x,1/2+y,z
1/2-x,1/2+y,1/2-z
1/2-x,1/2-y,-z
1/2+x,1/2-y,1/2+z
loop_
_atom_site_type_symbol
_atom_site_label
_atom_site_fract_x
_atom_site_fract_y
_atom_site_fract_z
Si Si1 0.583363 0.324194 0.843618
Si Si2 0.416638 0.675806 0.510344
Si Si3 0.768235 0.866818 0.647760
Si Si4 0.382097 0.902744 0.194138
Si Si5 0.117903 0.597255 0.458333
Si Si6 0.268235 0.366817 0.315771
O O1 0.596344 0.332062 0.653656
O O2 0.649655 0.375880 0.866422
O O3 0.586931 0.206009 0.877215
O O4 0.500000 0.360261 0.959920
O O5 0.413070 0.793992 0.551074
O O6 0.350346 0.624122 0.665732
O O7 0.704357 0.900681 0.823230
O O8 0.750000 0.750000 0.653179
O O9 0.762425 0.909163 0.487575
O O10 0.390219 0.913170 0.359780
O O11 0.295642 0.900681 0.231945
O O12 0.415188 0.999999 0.084811
#
# Coordination Sequence:
#
# PCOD9261648 Si02
#       6
#     8   8   8   8   8   8
#     4   9  18  32  49  70  97 128 159 192 234 282
#     4   9  18  32  49  70  97 128 159 192 234 282
#     4   9  17  30  48  69  92 121 160 200 234 274
#     4  10  19  31  48  70  97 128 160 195 235 279
#     4  10  19  31  48  70  97 128 160 195 235 279
#     4   9  17  30  48  69  92 121 160 200 234 274
#
# _framework density 21.883020999999999
#
# number of rings (size 3 to 8) (size 9 to 14) (size 15 to 20)
#    0.000    2.667    0.000    2.000    0.000    6.667 
#    0.000    0.000    0.000    1.000    0.000    0.000 
#    0.000    0.000    0.000    0.000    0.000    0.000 
#
# Total GULP energy -133967.816268 kJ/mol
# GULP energy per Si atom -5581.992345 kJ/mol
# Density = 2.183321 g / cm^3
# Si number density = 21.883021 Si / 1000 Ang^3
#
#
#
# Elastic Constant Matrix: (Units=GPa)
#
#
# Indices 1 2 3 4 5 6 
#
# 1 105.9017 -10.1443 32.0231 0.0000 -29.4125 0.0000
# 2 -10.1443 40.2354 0.5363 0.0000 7.6942 0.0000
# 3 32.0231 0.5363 48.4263 0.0000 -11.9827 0.0000
# 4 0.0000 0.0000 0.0000 19.7170 0.0000 11.1915
# 5 -29.4125 7.6942 -11.9827 0.0000 29.0733 0.0000
# 6 0.0000 0.0000 0.0000 11.1915 0.0000 4.1784
#
#
#
# Elastic Compliance Matrix: (Units=1/GPa)
#
#
# Indices 1 2 3 4 5 6 
#
# 1 0.015014 0.001608 -0.007008 0.000000 0.011875 0.000000
# 2 0.001608 0.026569 -0.003001 0.000000 -0.006642 0.000000
# 3 -0.007008 -0.003001 0.026458 0.000000 0.004609 0.000000
# 4 0.000000 0.000000 0.000000 -0.097481 0.000000 0.261094
# 5 0.011875 -0.006642 0.004609 0.000000 0.050067 0.000000
# 6 0.000000 0.000000 0.000000 0.261094 0.000000 -0.459991
#
#
# Mechanical properties :
#
#
# Convention : Reuss Voigt Hill
#
# Bulk Modulus (GPa) = 19.51626 26.59930 23.05778
# Shear Modulus (GPa) = -12.33097 22.07030 4.86967
#
# Velocity S-wave (km/s) = -2.37638 3.17923 1.49337
# Velocity P-wave (km/s) = 1.18669 5.06540 3.67876
#
# Compressibility (1/GPa) = 0.05123934
#
# Stress axis : x y z
#
# Youngs Moduli (GPa) = 66.60474 37.63757 37.79608
#
# Poissons Ratio (x) = -0.06052 0.26486
# Poissons Ratio (y) = -0.10709 0.11342
# Poissons Ratio (z) = 0.46675 0.11295
#
# Static dielectric constant tensor:
#      x y z
#    x 1.779330 0.000000 -0.015970 
#    y 0.000000 1.886800 0.000000 
#    z -0.015970 0.000000 1.757160 
# 
# From -- ./inp_files/48694.got.cif
#   From: 2010.05.17/outbox.cif.g08.bks.cpg/sg15_25_cif.got.tgz:48694.got - 2010.06.03 18:47:42.
