data_PCOD9261300
_publ_section_title
;
Structure prediction by ZEFSAII (Michael W. Deem and Ramdas Pophale) SiO2 
 PCOD9261300
Probable space group: C 2/C
;
_chemical_formula_sum "Si O2"
_cell_formula_units_Z 40
_cell_length_a 24.166750
_cell_length_b 14.175323
_cell_length_c 8.771073
_cell_angle_alpha 90.000000
_cell_angle_beta 41.250256
_cell_angle_gamma 90.000000
_cell_volume 1981.159335
_symmetry_space_group_name_H-M "C 2/C"
_symmetry_group_IT_number 15
_symmetry_cell_setting 'monoclinic'
loop_
_space_group_symop_operation_xyz
x,y,z
-x,y,1/2-z
-x,-y,-z
x,-y,1/2+z
1/2+x,1/2+y,z
1/2-x,1/2+y,1/2-z
1/2-x,1/2-y,-z
1/2+x,1/2-y,1/2+z
loop_
_atom_site_type_symbol
_atom_site_label
_atom_site_fract_x
_atom_site_fract_y
_atom_site_fract_z
Si Si1 0.344470 0.357854 0.256579
Si Si2 0.614948 0.435307 0.754124
Si Si3 0.855221 0.275387 0.342893
Si Si4 0.000000 0.764485 0.750000
Si Si5 0.500000 0.459951 0.250000
Si Si6 0.791114 0.249292 0.157331
O O1 0.340038 0.471081 0.278424
O O2 0.262981 0.319923 0.336139
O O3 0.341985 0.314022 0.431851
O O4 0.429440 0.320749 0.996635
O O5 0.658521 0.339262 0.617799
O O6 0.560215 0.476095 0.729173
O O7 0.553231 0.403599 0.017647
O O8 0.943382 0.291543 0.244066
O O9 0.843983 0.295303 0.186864
O O10 0.779920 0.312573 0.605662
#
# Coordination Sequence:
#
# PCOD9261300 Si02
#       6
#     8   8   8   4   4   8
#     4  10  19  32  47  69  99 132 161 192 230 280
#     4  11  18  28  46  68  98 129 158 182 224 283
#     4  10  19  32  47  69  99 132 161 192 230 280
#     4  10  19  30  48  72 100 128 159 188 225 286
#     4  10  19  26  40  74 104 122 147 186 221 278
#     4   9  20  33  44  62 102 133 158 199 234 264
#
# _framework density 20.190199
#
# number of rings (size 3 to 8) (size 9 to 14) (size 15 to 20)
#    0.000    2.000    0.000    7.200    0.000    0.800 
#    0.000    0.000    0.000    0.000    0.000    0.000 
#    0.000  361.600    0.000    0.000    0.000    0.000 
#
# Total GULP energy -111389.367838 kJ/mol
# GULP energy per Si atom -5569.468392 kJ/mol
# Density = 2.014425 g / cm^3
# Si number density = 20.190199 Si / 1000 Ang^3
#
#
#
# Elastic Constant Matrix: (Units=GPa)
#
#
# Indices 1 2 3 4 5 6 
#
# 1 166.4851 3.7988 16.9286 0.0000 11.9407 0.0000
# 2 3.7988 20.1201 15.3451 0.0000 1.4305 0.0000
# 3 16.9286 15.3451 116.5205 0.0000 25.8732 0.0000
# 4 0.0000 0.0000 0.0000 15.4260 0.0000 5.8538
# 5 11.9407 1.4305 25.8732 0.0000 38.5406 0.0000
# 6 0.0000 0.0000 0.0000 5.8538 0.0000 23.9590
#
#
#
# Elastic Compliance Matrix: (Units=1/GPa)
#
#
# Indices 1 2 3 4 5 6 
#
# 1 0.006182 -0.000709 -0.000453 0.000000 -0.001585 0.000000
# 2 -0.000709 0.055698 -0.008017 0.000000 0.003534 0.000000
# 3 -0.000453 -0.008017 0.011289 0.000000 -0.007141 0.000000
# 4 0.000000 0.000000 0.000000 0.071450 0.000000 -0.017457
# 5 -0.001585 0.003534 -0.007141 0.000000 0.031101 0.000000
# 6 0.000000 0.000000 0.000000 -0.017457 0.000000 0.046003
#
#
# Mechanical properties :
#
#
# Convention : Reuss Voigt Hill
#
# Bulk Modulus (GPa) = 18.24408 41.69674 29.97041
# Shear Modulus (GPa) = 19.35337 33.38867 26.37102
#
# Velocity S-wave (km/s) = 3.09941 4.07099 3.61796
# Velocity P-wave (km/s) = 4.67591 6.54172 5.68587
#
# Compressibility (1/GPa) = 0.05481229
#
# Stress axis : x y z
#
# Youngs Moduli (GPa) = 161.74789 17.95385 88.57877
#
# Poissons Ratio (x) = 0.01273 0.04011
# Poissons Ratio (y) = 0.11471 0.71013
# Poissons Ratio (z) = 0.07325 0.14393
#
# Static dielectric constant tensor:
#      x y z
#    x 1.830850 0.000000 0.013470 
#    y 0.000000 1.704830 0.000000 
#    z 0.013470 0.000000 1.778430 
# 
# From -- ./inp_files/46683.got.cif
#   From: 2010.05.17/outbox.cif.g08.bks.cpg/sg15_24_cif.got.tgz:46683.got - 2010.06.03 18:47:42.
