data_PCOD9261266
_publ_section_title
;
Structure prediction by ZEFSAII (Michael W. Deem and Ramdas Pophale) SiO2 
 PCOD9261266
Probable space group: C 2/C
;
_chemical_formula_sum "Si O2"
_cell_formula_units_Z 24
_cell_length_a 8.583825
_cell_length_b 5.038996
_cell_length_c 26.353949
_cell_angle_alpha 90.000000
_cell_angle_beta 46.859772
_cell_angle_gamma 90.000000
_cell_volume 831.772234
_symmetry_space_group_name_H-M "C 2/C"
_symmetry_group_IT_number 15
_symmetry_cell_setting 'monoclinic'
loop_
_space_group_symop_operation_xyz
x,y,z
-x,y,1/2-z
-x,-y,-z
x,-y,1/2+z
1/2+x,1/2+y,z
1/2-x,1/2+y,1/2-z
1/2-x,1/2-y,-z
1/2+x,1/2-y,1/2+z
loop_
_atom_site_type_symbol
_atom_site_label
_atom_site_fract_x
_atom_site_fract_y
_atom_site_fract_z
Si Si1 0.250000 0.250000 0.000000
Si Si2 0.788096 0.430501 0.606261
Si Si3 0.500000 0.500000 0.000000
Si Si4 0.664543 0.676716 0.796730
O O1 0.382733 0.541370 0.973277
O O2 0.288318 0.292706 0.060848
O O3 0.585864 0.620863 0.646702
O O4 0.765369 0.289703 0.664931
O O5 0.991807 0.616957 0.553571
O O6 0.774489 0.399784 0.757802
#
# Coordination Sequence:
#
# PCOD9261266 Si02
#       4
#     4   8   4   8
#     4   8  14  32  72 108 136 196 236 348 368 460
#     4  10  18  42  72 109 150 190 270 308 400 450
#     4   8  14  32  72 108 136 196 236 348 368 460
#     4  12  27  44  72 105 158 212 255 312 381 478
#
# _framework density 28.854053
#
# number of rings (size 3 to 8) (size 9 to 14) (size 15 to 20)
#    2.000    0.000    3.333    1.000    0.000    5.333 
#    0.000    0.000    0.000   40.000    0.000    0.000 
#    0.000    0.000    0.000    0.000    0.000    0.000 
#
# Total GULP energy -66850.412312 kJ/mol
# GULP energy per Si atom -5570.867693 kJ/mol
# Density = 2.878838 g / cm^3
# Si number density = 28.854053 Si / 1000 Ang^3
#
#
#
# Elastic Constant Matrix: (Units=GPa)
#
#
# Indices 1 2 3 4 5 6 
#
# 1 242.3964 54.0627 78.7911 -0.0007 5.7986 0.0011
# 2 54.0627 136.9799 25.8854 0.0112 -20.0059 0.0055
# 3 78.7911 25.8854 103.2031 0.0078 -0.9611 0.0050
# 4 -0.0007 0.0112 0.0078 60.8121 0.0044 -26.5697
# 5 5.7986 -20.0059 -0.9611 0.0044 36.3928 0.0014
# 6 0.0011 0.0055 0.0050 -26.5697 0.0014 71.0176
#
#
#
# Elastic Compliance Matrix: (Units=1/GPa)
#
#
# Indices 1 2 3 4 5 6 
#
# 1 0.005913 -0.001869 -0.004065 0.000001 -0.002077 0.000001
# 2 -0.001869 0.008941 -0.000767 -0.000003 0.005193 -0.000002
# 3 -0.004065 -0.000767 0.012991 -0.000002 0.000569 -0.000002
# 4 0.000001 -0.000003 -0.000002 0.019657 -0.000004 0.007354
# 5 -0.002077 0.005193 0.000569 -0.000004 0.030679 -0.000003
# 6 0.000001 -0.000002 -0.000002 0.007354 -0.000003 0.016832
#
#
# Mechanical properties :
#
#
# Convention : Reuss Voigt Hill
#
# Bulk Modulus (GPa) = 69.23962 88.89531 79.06746
# Shear Modulus (GPa) = 44.15726 55.23385 49.69556
#
# Velocity S-wave (km/s) = 3.91623 4.37996 4.15457
# Velocity P-wave (km/s) = 6.67066 7.51360 7.10465
#
# Compressibility (1/GPa) = 0.01444260
#
# Stress axis : x y z
#
# Youngs Moduli (GPa) = 169.10735 111.83894 76.97634
#
# Poissons Ratio (x) = 0.20903 0.31292
# Poissons Ratio (y) = 0.31606 0.05907
# Poissons Ratio (z) = 0.68745 0.08583
#
# Static dielectric constant tensor:
#      x y z
#    x 2.349200 0.000000 0.024140 
#    y 0.000000 1.500860 -0.000010 
#    z 0.024140 -0.000010 2.058960 
# 
# From -- ./inp_files/235002.got.cif
#   From: 2010.05.17/outbox.cif.g08.bks.cpg/sg15_118_cif.got.tgz:235002.got - 2010.06.03 18:47:42.
