data_PCOD9261727
_publ_section_title
;
Structure prediction by ZEFSAII (Michael W. Deem and Ramdas Pophale) SiO2 
 PCOD9261727
Probable space group: C 2/C
;
_chemical_formula_sum "Si O2"
_cell_formula_units_Z 52
_cell_length_a 22.533981
_cell_length_b 6.057002
_cell_length_c 24.674953
_cell_angle_alpha 90.000000
_cell_angle_beta 137.782706
_cell_angle_gamma 90.000000
_cell_volume 2263.003155
_symmetry_space_group_name_H-M "C 2/C"
_symmetry_group_IT_number 15
_symmetry_cell_setting 'monoclinic'
loop_
_space_group_symop_operation_xyz
x,y,z
-x,y,1/2-z
-x,-y,-z
x,-y,1/2+z
1/2+x,1/2+y,z
1/2-x,1/2+y,1/2-z
1/2-x,1/2-y,-z
1/2+x,1/2-y,1/2+z
loop_
_atom_site_type_symbol
_atom_site_label
_atom_site_fract_x
_atom_site_fract_y
_atom_site_fract_z
Si Si1 0.580764 0.084490 0.861171
Si Si2 0.090284 0.935872 0.998411
Si Si3 0.401569 0.677730 0.234302
Si Si4 0.000000 0.199266 0.750000
Si Si5 0.185474 0.694672 0.505021
Si Si6 0.563056 0.815016 0.069530
Si Si7 0.216595 0.440579 0.632539
O O1 0.573932 0.851196 0.826184
O O2 0.621806 0.250628 0.844399
O O3 0.478899 0.151657 0.801471
O O4 0.631729 0.023371 0.949485
O O5 0.127708 0.083608 0.975027
O O6 0.076240 0.124157 0.034239
O O7 0.997392 0.807874 0.926863
O O8 0.160100 0.764162 0.070876
O O9 0.453650 0.450104 0.263384
O O10 0.314351 0.649416 0.210318
O O11 0.250000 0.750000 0.500000
O O12 0.226581 0.619646 0.590280
O O13 0.657273 0.939106 0.138578
O O14 0.500000 0.000000 0.000000
#
# Coordination Sequence:
#
# PCOD9261727 Si02
#       7
#     8   8   8   4   8   8   8
#     4   9  19  31  43  67 105 141 182 206 260 324
#     4   9  18  31  49  73 108 130 168 221 272 315
#     4   9  18  31  47  67 100 144 176 219 250 321
#     4   8  16  32  48  60 100 144 176 206 246 312
#     4  11  21  30  47  77 113 148 175 217 273 330
#     4   8  16  32  50  72 103 124 169 223 266 317
#     4  10  19  31  51  77 107 133 180 222 271 313
#
# _framework density 22.978316
#
# number of rings (size 3 to 8) (size 9 to 14) (size 15 to 20)
#    0.000    3.077    0.000    1.846    0.000    8.615 
#    0.000    0.000    0.000    0.000    0.000    0.000 
#  383.077    0.000    0.000    0.000    0.000    0.000 
#
# Total GULP energy -144928.763039 kJ/mol
# GULP energy per Si atom -5574.183194 kJ/mol
# Density = 2.292602 g / cm^3
# Si number density = 22.978316 Si / 1000 Ang^3
#
#
#
# Elastic Constant Matrix: (Units=GPa)
#
#
# Indices 1 2 3 4 5 6 
#
# 1 124.5562 43.9106 20.5656 0.0011 39.7657 -0.0017
# 2 43.9106 98.9928 5.4355 0.0020 14.4547 -0.0151
# 3 20.5656 5.4355 34.2926 -0.0003 21.2571 0.0009
# 4 0.0011 0.0020 -0.0003 23.7202 0.0005 2.9874
# 5 39.7657 14.4547 21.2571 0.0005 43.5428 0.0015
# 6 -0.0017 -0.0151 0.0009 2.9874 0.0015 41.4102
#
#
#
# Elastic Compliance Matrix: (Units=1/GPa)
#
#
# Indices 1 2 3 4 5 6 
#
# 1 0.012803 -0.004189 -0.000901 0.000000 -0.009861 -0.000001
# 2 -0.004189 0.012000 0.001015 -0.000001 -0.000653 0.000004
# 3 -0.000901 0.001015 0.041927 0.000001 -0.019982 0.000000
# 4 0.000000 -0.000001 0.000001 0.042545 0.000000 -0.003069
# 5 -0.009861 -0.000653 -0.019982 0.000000 0.041944 -0.000002
# 6 -0.000001 0.000004 0.000000 -0.003069 -0.000002 0.024370
#
#
# Mechanical properties :
#
#
# Convention : Reuss Voigt Hill
#
# Bulk Modulus (GPa) = 17.07105 44.18501 30.62803
# Shear Modulus (GPa) = 24.59855 34.26330 29.43092
#
# Velocity S-wave (km/s) = 3.27542 3.86568 3.58273
# Velocity P-wave (km/s) = 4.66367 6.26063 5.52020
#
# Compressibility (1/GPa) = 0.05857872
#
# Stress axis : x y z
#
# Youngs Moduli (GPa) = 78.10947 83.33549 23.85114
#
# Poissons Ratio (x) = 0.34913 0.02149
# Poissons Ratio (y) = 0.32724 -0.02422
# Poissons Ratio (z) = 0.07037 -0.08461
#
# Static dielectric constant tensor:
#      x y z
#    x 1.912620 0.000000 -0.015640 
#    y 0.000000 1.879220 0.000000 
#    z -0.015640 0.000000 1.945860 
# 
# From -- ./inp_files/318299.got.cif
#   From: 2010.05.17/outbox.cif.g08.bks.cpg/sg15_160_cif.got.tgz:318299.got - 2010.06.03 18:47:42.
