data_PCOD9261071
_publ_section_title
;
Structure prediction by ZEFSAII (Michael W. Deem and Ramdas Pophale) SiO2 
 PCOD9261071
Probable space group: C 2/C
;
_chemical_formula_sum "Si O2"
_cell_formula_units_Z 48
_cell_length_a 6.784462
_cell_length_b 12.722725
_cell_length_c 24.009341
_cell_angle_alpha 90.000000
_cell_angle_beta 56.835404
_cell_angle_gamma 90.000000
_cell_volume 1734.820056
_symmetry_space_group_name_H-M "C 2/C"
_symmetry_group_IT_number 15
_symmetry_cell_setting 'monoclinic'
loop_
_space_group_symop_operation_xyz
x,y,z
-x,y,1/2-z
-x,-y,-z
x,-y,1/2+z
1/2+x,1/2+y,z
1/2-x,1/2+y,1/2-z
1/2-x,1/2-y,-z
1/2+x,1/2-y,1/2+z
loop_
_atom_site_type_symbol
_atom_site_label
_atom_site_fract_x
_atom_site_fract_y
_atom_site_fract_z
Si Si1 0.578387 0.494171 0.626844
Si Si2 0.750000 0.250000 0.000000
Si Si3 0.846229 0.767323 0.367924
Si Si4 0.000000 0.391307 0.750000
Si Si5 0.250594 0.012450 0.489935
Si Si6 0.065209 0.544436 0.650801
Si Si7 0.371107 0.727766 0.327583
O O1 0.638233 0.607233 0.645822
O O2 0.744278 0.454024 0.549674
O O3 0.321256 0.518517 0.639120
O O4 0.570981 0.390638 0.665156
O O5 0.833910 0.231302 0.056321
O O6 0.746391 0.129545 0.989276
O O7 0.090127 0.741031 0.364725
O O8 0.862127 0.692548 0.311282
O O9 0.904866 0.474622 0.717362
O O10 0.432343 0.994432 0.412607
O O11 0.000000 0.000000 0.500000
O O12 0.048340 0.670591 0.649597
O O13 0.500000 0.749545 0.250000
#
# Coordination Sequence:
#
# PCOD9261071 Si02
#       7
#     8   4   8   4   8   8   8
#     4   9  21  39  60  88 118 157 203 253 307 363
#     4  10  18  40  62  86 124 154 196 260 304 352
#     4  10  23  38  65  88 122 162 202 259 308 364
#     4  12  20  38  60  88 116 164 208 244 316 376
#     4   9  18  36  62  87 117 158 200 248 306 357
#     4  10  20  37  61  87 119 159 201 252 306 364
#     4  11  22  40  60  88 128 160 202 258 305 366
#
# _framework density 27.668575000000001
#
# number of rings (size 3 to 8) (size 9 to 14) (size 15 to 20)
#    0.000    2.000    2.500    2.000    1.167    0.667 
#    0.000    3.333    0.000    0.000    0.000    0.000 
#    0.000    0.000    0.000    0.000    0.000    0.000 
#
# Total GULP energy -133663.722349 kJ/mol
# GULP energy per Si atom -5569.321765 kJ/mol
# Density = 2.760560 g / cm^3
# Si number density = 27.668575 Si / 1000 Ang^3
#
#
#
# Elastic Constant Matrix: (Units=GPa)
#
#
# Indices 1 2 3 4 5 6 
#
# 1 87.2299 30.0858 -15.0858 -0.0001 0.2848 0.0000
# 2 30.0858 153.5710 4.4214 -0.0001 -12.4099 0.0001
# 3 -15.0858 4.4214 118.8644 0.0000 24.0550 0.0002
# 4 -0.0001 -0.0001 0.0000 44.4873 0.0001 12.9756
# 5 0.2848 -12.4099 24.0550 0.0001 19.4062 -0.0001
# 6 0.0000 0.0001 0.0002 12.9756 -0.0001 42.8171
#
#
#
# Elastic Compliance Matrix: (Units=1/GPa)
#
#
# Indices 1 2 3 4 5 6 
#
# 1 0.013071 -0.003119 0.002960 0.000000 -0.005855 0.000000
# 2 -0.003119 0.007825 -0.002281 0.000000 0.007877 0.000000
# 3 0.002960 -0.002281 0.012250 0.000000 -0.016687 0.000000
# 4 0.000000 0.000000 0.000000 0.024658 0.000000 -0.007472
# 5 -0.005855 0.007877 -0.016687 0.000000 0.077338 0.000000
# 6 0.000000 0.000000 0.000000 -0.007472 0.000000 0.025620
#
#
# Mechanical properties :
#
#
# Convention : Reuss Voigt Hill
#
# Bulk Modulus (GPa) = 35.37858 44.27867 39.82862
# Shear Modulus (GPa) = 28.56103 44.02504 36.29303
#
# Velocity S-wave (km/s) = 3.21636 3.99326 3.62568
# Velocity P-wave (km/s) = 5.15825 6.10733 5.65274
#
# Compressibility (1/GPa) = 0.02826569
#
# Stress axis : x y z
#
# Youngs Moduli (GPa) = 76.50690 127.79721 81.62937
#
# Poissons Ratio (x) = 0.39860 -0.24161
# Poissons Ratio (y) = 0.23863 0.18620
# Poissons Ratio (z) = -0.22645 0.29151
#
# Static dielectric constant tensor:
#      x y z
#    x 2.334700 0.000000 -0.092730 
#    y 0.000000 1.953150 0.000000 
#    z -0.092730 0.000000 2.427090 
# 
# From -- ./inp_files/291950.got.cif
#   From: 2010.05.17/outbox.cif.g08.bks.cpg/sg15_146_cif.got.tgz:291950.got - 2010.06.03 18:47:42.
