data_PCOD9261529
_publ_section_title
;
Structure prediction by ZEFSAII (Michael W. Deem and Ramdas Pophale) SiO2 
 PCOD9261529
Probable space group: C 2/C
;
_chemical_formula_sum "Si O2"
_cell_formula_units_Z 64
_cell_length_a 22.549516
_cell_length_b 21.404517
_cell_length_c 8.358131
_cell_angle_alpha 90.000000
_cell_angle_beta 122.706327
_cell_angle_gamma 90.000000
_cell_volume 3394.538380
_symmetry_space_group_name_H-M "C 2/C"
_symmetry_group_IT_number 15
_symmetry_cell_setting 'monoclinic'
loop_
_space_group_symop_operation_xyz
x,y,z
-x,y,1/2-z
-x,-y,-z
x,-y,1/2+z
1/2+x,1/2+y,z
1/2-x,1/2+y,1/2-z
1/2-x,1/2-y,-z
1/2+x,1/2-y,1/2+z
loop_
_atom_site_type_symbol
_atom_site_label
_atom_site_fract_x
_atom_site_fract_y
_atom_site_fract_z
Si Si1 0.567587 0.206288 0.083407
Si Si2 0.840874 0.363913 0.056567
Si Si3 0.910284 0.743668 0.828428
Si Si4 0.650321 0.719040 0.934075
Si Si5 0.242961 0.344509 0.093471
Si Si6 0.289738 0.315503 0.512354
Si Si7 0.073165 0.471233 0.435930
Si Si8 0.399222 0.089780 0.183355
O O1 0.606111 0.265686 0.212088
O O2 0.563922 0.155504 0.222264
O O3 0.619043 0.173173 0.029280
O O4 0.490718 0.225783 0.915003
O O5 0.869820 0.323562 0.250134
O O6 0.756362 0.359414 0.936784
O O7 0.867326 0.434220 0.077286
O O8 0.869934 0.793843 0.657167
O O9 0.899061 0.775621 0.984345
O O10 0.699043 0.660496 0.962265
O O11 0.702431 0.777936 0.034101
O O12 0.277529 0.344294 0.319524
O O13 0.182828 0.394561 0.965954
O O14 0.250000 0.250000 0.500000
O O15 0.076072 0.545693 0.423554
O O16 0.083875 0.450654 0.633413
O O17 0.000000 0.449000 0.250000
#
# Coordination Sequence:
#
# PCOD9261529 Si02
#       8
#     8   8   8   8   8   8   8   8
#     4  10  21  35  50  79 114 147 181 230 286 332
#     4  10  20  34  52  74 105 147 186 233 272 323
#     4  11  20  31  53  81 103 145 185 229 276 348
#     4  10  19  30  51  71 108 136 181 225 283 338
#     4  10  20  35  51  76 105 145 184 240 283 331
#     4  10  19  33  53  76 101 141 191 229 284 339
#     4  11  23  38  54  76 109 152 197 241 272 315
#     4  10  24  37  56  75 111 154 197 235 279 316
#
# _framework density 18.853815999999998
#
# number of rings (size 3 to 8) (size 9 to 14) (size 15 to 20)
#    0.000    1.750    2.500    4.125    7.000    2.000 
#    0.000    0.000    0.000    0.000    0.000    0.000 
#    0.000    1.000    0.750    0.125    0.000    0.000 
#
# Total GULP energy -178257.526511 kJ/mol
# GULP energy per Si atom -5570.547703 kJ/mol
# Density = 1.881090 g / cm^3
# Si number density = 18.853816 Si / 1000 Ang^3
#
#
#
# Elastic Constant Matrix: (Units=GPa)
#
#
# Indices 1 2 3 4 5 6 
#
# 1 64.1808 18.9673 33.8293 0.0000 -3.5734 0.0000
# 2 18.9673 33.1826 21.7123 0.0000 7.3841 0.0000
# 3 33.8293 21.7123 93.6030 0.0000 4.2258 0.0000
# 4 0.0000 0.0000 0.0000 21.4935 0.0000 0.4332
# 5 -3.5734 7.3841 4.2258 0.0000 28.5282 0.0000
# 6 0.0000 0.0000 0.0000 0.4332 0.0000 27.4235
#
#
#
# Elastic Compliance Matrix: (Units=1/GPa)
#
#
# Indices 1 2 3 4 5 6 
#
# 1 0.022029 -0.010126 -0.005895 0.000000 0.006253 0.000000
# 2 -0.010126 0.042109 -0.005596 0.000000 -0.011339 0.000000
# 3 -0.005895 -0.005596 0.014175 0.000000 -0.001390 0.000000
# 4 0.000000 0.000000 0.000000 0.046540 0.000000 -0.000735
# 5 0.006253 -0.011339 -0.001390 0.000000 0.038977 0.000000
# 6 0.000000 0.000000 0.000000 -0.000735 0.000000 0.036477
#
#
# Mechanical properties :
#
#
# Convention : Reuss Voigt Hill
#
# Bulk Modulus (GPa) = 28.50751 37.77604 33.14178
# Shear Modulus (GPa) = 19.58983 23.25289 21.42136
#
# Velocity S-wave (km/s) = 3.22691 3.51568 3.37439
# Velocity P-wave (km/s) = 5.38860 6.04647 5.72699
#
# Compressibility (1/GPa) = 0.03507847
#
# Stress axis : x y z
#
# Youngs Moduli (GPa) = 45.39485 23.74771 70.54805
#
# Poissons Ratio (x) = 0.24047 0.41588
# Poissons Ratio (y) = 0.45968 0.39479
# Poissons Ratio (z) = 0.26760 0.13289
#
# Static dielectric constant tensor:
#      x y z
#    x 1.785740 0.000000 -0.033450 
#    y 0.000000 1.654290 0.000000 
#    z -0.033450 0.000000 1.768970 
# 
# From -- ./inp_files/58477.got.cif
#   From: 2010.05.17/outbox.cif.g08.bks.cpg/sg15_30_cif.got.tgz:58477.got - 2010.06.03 18:47:42.
