data_PCOD9261577
_publ_section_title
;
Structure prediction by ZEFSAII (Michael W. Deem and Ramdas Pophale) SiO2 
 PCOD9261577
Probable space group: C 2/C
;
_chemical_formula_sum "Si O2"
_cell_formula_units_Z 52
_cell_length_a 18.779912
_cell_length_b 13.097865
_cell_length_c 10.778947
_cell_angle_alpha 90.000000
_cell_angle_beta 120.748711
_cell_angle_gamma 90.000000
_cell_volume 2278.635196
_symmetry_space_group_name_H-M "C 2/C"
_symmetry_group_IT_number 15
_symmetry_cell_setting 'monoclinic'
loop_
_space_group_symop_operation_xyz
x,y,z
-x,y,1/2-z
-x,-y,-z
x,-y,1/2+z
1/2+x,1/2+y,z
1/2-x,1/2+y,1/2-z
1/2-x,1/2-y,-z
1/2+x,1/2-y,1/2+z
loop_
_atom_site_type_symbol
_atom_site_label
_atom_site_fract_x
_atom_site_fract_y
_atom_site_fract_z
Si Si1 0.000000 0.313739 0.250000
Si Si2 0.948490 0.602456 0.467743
Si Si3 0.182588 0.100859 0.761739
Si Si4 0.634083 0.668347 0.362732
Si Si5 0.786994 0.296934 0.837995
Si Si6 0.646846 0.468611 0.499175
Si Si7 0.997937 0.811857 0.102763
O O1 0.937004 0.236600 0.259079
O O2 0.052058 0.383590 0.385249
O O3 0.853172 0.621569 0.344680
O O4 0.000000 0.500000 0.500000
O O5 0.995248 0.701192 0.454215
O O6 0.230497 0.206833 0.775460
O O7 0.195527 0.072211 0.918840
O O8 0.084280 0.127791 0.657363
O O9 0.195530 0.020721 0.658544
O O10 0.707456 0.654849 0.331020
O O11 0.670080 0.732270 0.511468
O O12 0.600954 0.563873 0.390578
O O13 0.581575 0.384486 0.488812
O O14 0.000000 0.790045 0.250000
#
# Coordination Sequence:
#
# PCOD9261577 Si02
#       7
#     4   8   8   8   8   8   8
#     4  10  22  34  56  92 104 142 202 252 270 346
#     4  10  21  37  59  79 112 154 200 237 283 342
#     4   9  18  31  52  80 113 149 187 227 292 354
#     4   9  18  33  59  79 115 143 189 239 293 350
#     4   8  17  38  54  77 109 158 188 228 290 360
#     4  10  19  30  54  85 114 144 181 236 296 347
#     4   9  19  33  52  81 115 147 179 232 289 346
#
# _framework density 22.820678999999998
#
# number of rings (size 3 to 8) (size 9 to 14) (size 15 to 20)
#    0.000    2.769    0.000    1.385    6.462    0.000 
#    2.769    0.000    0.000    1.846    0.000    0.000 
#    0.000    0.000    0.000    0.000    0.000    0.000 
#
# Total GULP energy -144770.924937 kJ/mol
# GULP energy per Si atom -5568.112498 kJ/mol
# Density = 2.276874 g / cm^3
# Si number density = 22.820679 Si / 1000 Ang^3
#
#
#
# Elastic Constant Matrix: (Units=GPa)
#
#
# Indices 1 2 3 4 5 6 
#
# 1 92.0654 52.2668 21.2379 0.0000 -20.3966 0.0000
# 2 52.2668 109.1195 33.5923 0.0000 -4.0148 0.0000
# 3 21.2379 33.5923 54.3031 0.0000 -21.6454 0.0000
# 4 0.0000 0.0000 0.0000 25.5744 0.0000 -12.8047
# 5 -20.3966 -4.0148 -21.6454 0.0000 25.0161 0.0000
# 6 0.0000 0.0000 0.0000 -12.8047 0.0000 25.6505
#
#
#
# Elastic Compliance Matrix: (Units=1/GPa)
#
#
# Indices 1 2 3 4 5 6 
#
# 1 0.020152 -0.011161 0.007416 0.000000 0.021056 0.000000
# 2 -0.011161 0.018233 -0.014310 0.000000 -0.018556 0.000000
# 3 0.007416 -0.014310 0.039478 0.000000 0.037908 0.000000
# 4 0.000000 0.000000 0.000000 0.052131 0.000000 0.026024
# 5 0.021056 -0.018556 0.037908 0.000000 0.086965 0.000000
# 6 0.000000 0.000000 0.000000 0.026024 0.000000 0.051977
#
#
# Mechanical properties :
#
#
# Convention : Reuss Voigt Hill
#
# Bulk Modulus (GPa) = 23.95114 52.18691 38.06902
# Shear Modulus (GPa) = 15.67577 25.14094 20.40836
#
# Velocity S-wave (km/s) = 2.62374 3.32275 2.99372
# Velocity P-wave (km/s) = 4.43811 6.13504 5.35423
#
# Compressibility (1/GPa) = 0.04175167
#
# Stress axis : x y z
#
# Youngs Moduli (GPa) = 49.62237 54.84596 25.33075
#
# Poissons Ratio (x) = 0.61213 -0.18785
# Poissons Ratio (y) = 0.55383 0.36249
# Poissons Ratio (z) = -0.36799 0.78487
#
# Static dielectric constant tensor:
#      x y z
#    x 1.881610 0.000000 -0.013550 
#    y 0.000000 1.916300 0.000000 
#    z -0.013550 0.000000 1.888500 
# 
# From -- ./inp_files/111174.got.cif
#   From: 2010.05.17/outbox.cif.g08.bks.cpg/sg15_56_cif.got.tgz:111174.got - 2010.06.03 18:47:42.
