data_PCOD9261027
_publ_section_title
;
Structure prediction by ZEFSAII (Michael W. Deem and Ramdas Pophale) SiO2 
 PCOD9261027
Probable space group: C 2/C
;
_chemical_formula_sum "Si O2"
_cell_formula_units_Z 44
_cell_length_a 10.628703
_cell_length_b 9.723285
_cell_length_c 20.680762
_cell_angle_alpha 90.000000
_cell_angle_beta 57.763438
_cell_angle_gamma 90.000000
_cell_volume 1807.817944
_symmetry_space_group_name_H-M "C 2/C"
_symmetry_group_IT_number 15
_symmetry_cell_setting 'monoclinic'
loop_
_space_group_symop_operation_xyz
x,y,z
-x,y,1/2-z
-x,-y,-z
x,-y,1/2+z
1/2+x,1/2+y,z
1/2-x,1/2+y,1/2-z
1/2-x,1/2-y,-z
1/2+x,1/2-y,1/2+z
loop_
_atom_site_type_symbol
_atom_site_label
_atom_site_fract_x
_atom_site_fract_y
_atom_site_fract_z
Si Si1 0.000000 0.022961 0.750000
Si Si2 0.087217 0.825234 0.421867
Si Si3 0.286876 0.566770 0.194680
Si Si4 0.463898 0.202207 0.571255
Si Si5 0.016440 0.427009 0.859814
Si Si6 0.823785 0.179091 0.907384
O O1 0.108295 0.949527 0.770590
O O2 0.103912 0.112144 0.675210
O O3 0.081374 0.794395 0.499534
O O4 0.921638 0.870979 0.441551
O O5 0.108284 0.676537 0.382305
O O6 0.191232 0.937250 0.359740
O O7 0.356912 0.700651 0.142423
O O8 0.120830 0.567951 0.268234
O O9 0.349444 0.146786 0.547152
O O10 0.512378 0.074482 0.600924
O O11 0.866656 0.340005 0.890863
#
# Coordination Sequence:
#
# PCOD9261027 Si02
#       6
#     4   8   8   8   8   8
#     4  10  18  40  56  86 116 170 206 250 312 374
#     4   9  22  38  60  92 124 167 203 255 329 371
#     4  11  21  37  63  87 123 169 209 261 317 375
#     4  12  20  38  63  92 130 154 210 269 310 378
#     4  10  21  37  63  92 115 168 212 254 309 378
#     4   9  20  36  64  86 121 161 210 245 315 375
#
# _framework density 24.338733000000001
#
# number of rings (size 3 to 8) (size 9 to 14) (size 15 to 20)
#    1.091    0.727    1.818    3.818    0.000    0.000 
#    0.000    4.545    0.000    3.273    0.000    0.000 
#    0.000    0.000    0.000    0.000    0.000    0.000 
#
# Total GULP energy -122836.929522 kJ/mol
# GULP energy per Si atom -5583.496796 kJ/mol
# Density = 2.428334 g / cm^3
# Si number density = 24.338733 Si / 1000 Ang^3
#
#
#
# Elastic Constant Matrix: (Units=GPa)
#
#
# Indices 1 2 3 4 5 6 
#
# 1 56.8898 19.5577 15.9199 0.0000 5.8277 0.0000
# 2 19.5577 97.0856 26.3544 0.0000 11.1838 0.0000
# 3 15.9199 26.3544 100.0793 0.0000 -5.1436 0.0000
# 4 0.0000 0.0000 0.0000 32.4566 0.0000 24.0610
# 5 5.8277 11.1838 -5.1436 0.0000 24.0653 0.0000
# 6 0.0000 0.0000 0.0000 24.0610 0.0000 15.4087
#
#
#
# Elastic Compliance Matrix: (Units=1/GPa)
#
#
# Indices 1 2 3 4 5 6 
#
# 1 0.019679 -0.002795 -0.002601 0.000000 -0.004023 0.000000
# 2 -0.002795 0.012367 -0.003107 0.000000 -0.005735 0.000000
# 3 -0.002601 -0.003107 0.011456 0.000000 0.004522 0.000000
# 4 0.000000 0.000000 0.000000 -0.195498 0.000000 0.305274
# 5 -0.004023 -0.005735 0.004522 0.000000 0.046159 0.000000
# 6 0.000000 0.000000 0.000000 0.305274 0.000000 -0.411793
#
#
# Mechanical properties :
#
#
# Convention : Reuss Voigt Hill
#
# Bulk Modulus (GPa) = 37.74055 41.96876 39.85466
# Shear Modulus (GPa) = -10.16691 27.20095 8.51702
#
# Velocity S-wave (km/s) = -2.04605 3.34668 1.87269
# Velocity P-wave (km/s) = 3.15567 5.67580 4.59200
#
# Compressibility (1/GPa) = 0.02649670
#
# Stress axis : x y z
#
# Youngs Moduli (GPa) = 50.81663 80.85919 87.28723
#
# Poissons Ratio (x) = 0.22598 0.22705
# Poissons Ratio (y) = 0.14202 0.27119
# Poissons Ratio (z) = 0.13218 0.25122
#
# Static dielectric constant tensor:
#      x y z
#    x 2.023370 0.000000 0.086600 
#    y 0.000000 1.917050 0.000000 
#    z 0.086600 0.000000 2.009080 
# 
# From -- ./inp_files/202696.got.cif
#   From: 2010.05.17/outbox.cif.g08.bks.cpg/sg15_102_cif.got.tgz:202696.got - 2010.06.03 18:47:42.
