data_PCOD9261559
_publ_section_title
;
Structure prediction by ZEFSAII (Michael W. Deem and Ramdas Pophale) SiO2 
 PCOD9261559
Probable space group: C 2/C
;
_chemical_formula_sum "Si O2"
_cell_formula_units_Z 60
_cell_length_a 13.720089
_cell_length_b 17.302368
_cell_length_c 23.746077
_cell_angle_alpha 90.000000
_cell_angle_beta 148.396290
_cell_angle_gamma 90.000000
_cell_volume 2954.062352
_symmetry_space_group_name_H-M "C 2/C"
_symmetry_group_IT_number 15
_symmetry_cell_setting 'monoclinic'
loop_
_space_group_symop_operation_xyz
x,y,z
-x,y,1/2-z
-x,-y,-z
x,-y,1/2+z
1/2+x,1/2+y,z
1/2-x,1/2+y,1/2-z
1/2-x,1/2-y,-z
1/2+x,1/2-y,1/2+z
loop_
_atom_site_type_symbol
_atom_site_label
_atom_site_fract_x
_atom_site_fract_y
_atom_site_fract_z
Si Si1 0.259628 0.172280 0.686243
Si Si2 0.545263 0.382978 0.179450
Si Si3 0.208099 0.412371 0.603364
Si Si4 0.922367 0.928986 0.499593
Si Si5 0.284459 0.906037 0.409636
Si Si6 0.476712 0.973881 0.173377
Si Si7 0.500000 0.302580 0.750000
Si Si8 0.803428 0.050106 0.275529
O O1 0.119595 0.176491 0.669725
O O2 0.150322 0.136971 0.578671
O O3 0.414764 0.107519 0.777553
O O4 0.371894 0.247869 0.725153
O O5 0.671593 0.383532 0.297837
O O6 0.333821 0.374660 0.096113
O O7 0.587130 0.468004 0.174327
O O8 0.214660 0.500121 0.584448
O O9 0.350123 0.355291 0.643081
O O10 0.287963 0.417073 0.705967
O O11 0.997494 0.383890 0.504510
O O12 0.739697 0.959715 0.442498
O O13 0.083069 0.903981 0.621538
O O14 0.000000 0.000000 0.500000
O O15 0.500000 0.999043 0.250000
O O16 0.593209 0.031070 0.191759
#
# Coordination Sequence:
#
# PCOD9261559 Si02
#       8
#     8   8   8   8   8   8   4   8
#     4  10  20  36  56  83 121 162 190 232 301 370
#     4   9  17  34  60  86 107 148 195 256 297 344
#     4  10  22  37  57  83 120 163 189 257 292 350
#     4  11  17  30  53  85 120 147 193 248 293 340
#     4   9  19  39  61  88 113 141 217 259 295 330
#     4   9  16  30  49  83 114 142 182 244 287 335
#     4  12  22  44  56  82 138 158 198 228 302 386
#     4  10  19  30  52  86 115 146 195 238 303 338
#
# _framework density 20.311012999999999
#
# number of rings (size 3 to 8) (size 9 to 14) (size 15 to 20)
#    0.000    2.133    6.000    1.600    1.867    0.000 
#    4.800    3.333    0.000    0.000    3.467    0.000 
#    0.000    0.000    0.000    0.000    0.000    0.000 
#
# Total GULP energy -167378.814747 kJ/mol
# GULP energy per Si atom -5579.293825 kJ/mol
# Density = 2.026478 g / cm^3
# Si number density = 20.311013 Si / 1000 Ang^3
#
#
#
# Elastic Constant Matrix: (Units=GPa)
#
#
# Indices 1 2 3 4 5 6 
#
# 1 110.8271 17.2915 31.4166 0.0004 31.5620 0.0001
# 2 17.2915 38.1533 15.9458 0.0002 12.9921 0.0001
# 3 31.4166 15.9458 95.3038 0.0008 28.4931 0.0003
# 4 0.0004 0.0002 0.0008 19.9992 0.0004 15.7562
# 5 31.5620 12.9921 28.4931 0.0004 33.1231 0.0002
# 6 0.0001 0.0001 0.0003 15.7562 0.0002 19.0633
#
#
#
# Elastic Compliance Matrix: (Units=1/GPa)
#
#
# Indices 1 2 3 4 5 6 
#
# 1 0.012525 -0.001769 -0.000636 0.000000 -0.010694 0.000000
# 2 -0.001769 0.030797 -0.001968 0.000000 -0.008701 0.000000
# 3 -0.000636 -0.001968 0.014297 -0.000001 -0.010920 0.000000
# 4 0.000000 0.000000 -0.000001 0.143340 0.000000 -0.118473
# 5 -0.010694 -0.008701 -0.010920 0.000000 0.053187 0.000000
# 6 0.000000 0.000000 0.000000 -0.118473 0.000000 0.150377
#
#
# Mechanical properties :
#
#
# Convention : Reuss Voigt Hill
#
# Bulk Modulus (GPa) = 20.46151 41.51023 30.98587
# Shear Modulus (GPa) = 11.63984 26.41246 19.02615
#
# Velocity S-wave (km/s) = 2.39651 3.61002 3.06394
# Velocity P-wave (km/s) = 4.21350 6.15288 5.27312
#
# Compressibility (1/GPa) = 0.04887225
#
# Stress axis : x y z
#
# Youngs Moduli (GPa) = 79.84230 32.47025 69.94715
#
# Poissons Ratio (x) = 0.05745 0.04446
# Poissons Ratio (y) = 0.14126 0.13768
# Poissons Ratio (z) = 0.05075 0.06391
#
# Static dielectric constant tensor:
#      x y z
#    x 1.786590 0.000000 0.008160 
#    y 0.000000 1.739390 0.000000 
#    z 0.008160 0.000000 1.738450 
# 
# From -- ./inp_files/296822.got.cif
#   From: 2010.05.17/outbox.cif.g08.bks.cpg/sg15_149_cif.got.tgz:296822.got - 2010.06.03 18:47:42.
