data_PCOD9261613
_publ_section_title
;
Structure prediction by ZEFSAII (Michael W. Deem and Ramdas Pophale) SiO2 
 PCOD9261613
Probable space group: C 2/C
;
_chemical_formula_sum "Si O2"
_cell_formula_units_Z 60
_cell_length_a 5.599440
_cell_length_b 28.188478
_cell_length_c 18.715362
_cell_angle_alpha 90.000000
_cell_angle_beta 76.015940
_cell_angle_gamma 90.000000
_cell_volume 2866.478441
_symmetry_space_group_name_H-M "C 2/C"
_symmetry_group_IT_number 15
_symmetry_cell_setting 'monoclinic'
loop_
_space_group_symop_operation_xyz
x,y,z
-x,y,1/2-z
-x,-y,-z
x,-y,1/2+z
1/2+x,1/2+y,z
1/2-x,1/2+y,1/2-z
1/2-x,1/2-y,-z
1/2+x,1/2-y,1/2+z
loop_
_atom_site_type_symbol
_atom_site_label
_atom_site_fract_x
_atom_site_fract_y
_atom_site_fract_z
Si Si1 0.888684 0.848744 0.464588
Si Si2 0.238351 0.899884 0.873568
Si Si3 0.143287 0.696999 0.500281
Si Si4 0.641598 0.951186 0.007567
Si Si5 0.862258 0.988681 0.124254
Si Si6 0.232254 0.917549 0.139124
Si Si7 0.000000 0.568363 0.750000
Si Si8 0.258364 0.123753 0.125500
O O1 0.813646 0.878315 0.542456
O O2 0.651458 0.813482 0.467512
O O3 0.930079 0.879864 0.390667
O O4 0.159311 0.829301 0.463129
O O5 0.519598 0.886399 0.837010
O O6 0.029493 0.878853 0.836833
O O7 0.197380 0.956269 0.876381
O O8 0.250000 0.750000 0.500000
O O9 0.192787 0.672843 0.419474
O O10 0.858078 0.965619 0.045755
O O11 0.462490 0.919914 0.068993
O O12 0.709170 0.919948 0.934583
O O13 0.500000 0.000000 0.000000
O O14 0.647186 0.964676 0.185112
O O15 0.107508 0.969716 0.145183
O O16 0.312086 0.904403 0.212611
#
# Coordination Sequence:
#
# PCOD9261613 Si02
#       8
#     8   8   8   8   8   8   4   8
#     4  10  20  34  54  81 107 146 176 213 271 343
#     4  10  19  31  50  74 104 134 179 216 254 318
#     4  10  19  33  52  79 115 142 162 206 269 336
#     4  11  18  28  48  74 102 137 173 210 254 314
#     4  11  21  33  49  67 101 147 183 226 269 299
#     4  11  21  35  49  68 105 148 188 225 262 318
#     4  10  26  36  46  70 100 150 194 238 264 298
#     4  10  19  31  45  80 105 138 169 205 260 317
#
# _framework density 20.931605999999999
#
# number of rings (size 3 to 8) (size 9 to 14) (size 15 to 20)
#    0.000    1.600    4.000    3.200    3.733    1.600 
#    0.000    0.000    0.000    0.000    0.000    0.000 
#    0.000   17.067    0.000    0.000    0.000    0.000 
#
# Total GULP energy -167246.673671 kJ/mol
# GULP energy per Si atom -5574.889122 kJ/mol
# Density = 2.088396 g / cm^3
# Si number density = 20.931606 Si / 1000 Ang^3
#
#
#
# Elastic Constant Matrix: (Units=GPa)
#
#
# Indices 1 2 3 4 5 6 
#
# 1 151.2009 17.9466 22.9466 0.0000 25.1330 0.0000
# 2 17.9466 73.8923 11.2832 0.0000 13.7743 0.0000
# 3 22.9466 11.2832 56.2710 0.0000 19.6768 0.0000
# 4 0.0000 0.0000 0.0000 5.3373 0.0000 5.6903
# 5 25.1330 13.7743 19.6768 0.0000 34.9915 0.0000
# 6 0.0000 0.0000 0.0000 5.6903 0.0000 34.6289
#
#
#
# Elastic Compliance Matrix: (Units=1/GPa)
#
#
# Indices 1 2 3 4 5 6 
#
# 1 0.007655 -0.000827 -0.001428 0.000000 -0.004370 0.000000
# 2 -0.000827 0.014753 -0.000993 0.000000 -0.004655 0.000000
# 3 -0.001428 -0.000993 0.022477 0.000000 -0.011223 0.000000
# 4 0.000000 0.000000 0.000000 0.227156 0.000000 -0.037327
# 5 -0.004370 -0.004655 -0.011223 0.000000 0.039861 0.000000
# 6 0.000000 0.000000 0.000000 -0.037327 0.000000 0.035011
#
#
# Mechanical properties :
#
#
# Convention : Reuss Voigt Hill
#
# Bulk Modulus (GPa) = 26.04845 42.85748 34.45296
# Shear Modulus (GPa) = 13.65353 30.27072 21.96213
#
# Velocity S-wave (km/s) = 2.55677 3.80698 3.24270
# Velocity P-wave (km/s) = 4.60301 6.31218 5.52410
#
# Compressibility (1/GPa) = 0.03839000
#
# Stress axis : x y z
#
# Youngs Moduli (GPa) = 130.63544 67.78079 44.48997
#
# Poissons Ratio (x) = 0.05603 0.06352
# Poissons Ratio (y) = 0.10798 0.04419
# Poissons Ratio (z) = 0.18651 0.06733
#
# Static dielectric constant tensor:
#      x y z
#    x 1.925220 0.000000 0.026780 
#    y 0.000000 1.784920 0.000000 
#    z 0.026780 0.000000 1.754620 
# 
# From -- ./inp_files/186195.got.cif
#   From: 2010.05.17/outbox.cif.g08.bks.cpg/sg15_94_cif.got.tgz:186195.got - 2010.06.03 18:47:42.
