data_PCOD9261216
_publ_section_title
;
Structure prediction by ZEFSAII (Michael W. Deem and Ramdas Pophale) SiO2 
 PCOD9261216
Probable space group: C 2/C
;
_chemical_formula_sum "Si O2"
_cell_formula_units_Z 44
_cell_length_a 7.196228
_cell_length_b 17.426868
_cell_length_c 21.071503
_cell_angle_alpha 90.000000
_cell_angle_beta 48.162172
_cell_angle_gamma 90.000000
_cell_volume 1968.778686
_symmetry_space_group_name_H-M "C 2/C"
_symmetry_group_IT_number 15
_symmetry_cell_setting 'monoclinic'
loop_
_space_group_symop_operation_xyz
x,y,z
-x,y,1/2-z
-x,-y,-z
x,-y,1/2+z
1/2+x,1/2+y,z
1/2-x,1/2+y,1/2-z
1/2-x,1/2-y,-z
1/2+x,1/2-y,1/2+z
loop_
_atom_site_type_symbol
_atom_site_label
_atom_site_fract_x
_atom_site_fract_y
_atom_site_fract_z
Si Si1 0.257849 0.091418 0.085410
Si Si2 0.096167 0.117205 0.927893
Si Si3 0.317343 0.997255 0.951382
Si Si4 0.531951 0.298529 0.313503
Si Si5 0.065405 0.739051 0.982424
Si Si6 0.500000 0.691485 0.250000
O O1 0.078194 0.137848 0.172930
O O2 0.410745 0.030046 0.092164
O O3 0.186902 0.043251 0.039570
O O4 0.443249 0.156427 0.015387
O O5 0.304396 0.054164 0.895106
O O6 0.052384 0.137861 0.864606
O O7 0.138177 0.195267 0.958527
O O8 0.848006 0.079148 0.014312
O O9 0.500000 0.330130 0.250000
O O10 0.265352 0.254191 0.381334
O O11 0.766447 0.243511 0.278430
O O12 0.250000 0.750000 0.000000
#
# Coordination Sequence:
#
# PCOD9261216 Si02
#       6
#     8   8   8   8   8   4
#     4  11  22  42  68  99 135 178 229 280 336 416
#     4  10  20  43  67  97 129 177 229 269 336 414
#     4  10  22  39  70  98 132 178 224 273 344 415
#     4  11  24  41  67 102 139 172 231 295 338 394
#     4  10  18  41  68  90 129 176 227 274 320 408
#     4  12  24  44  66 104 138 176 236 290 342 404
#
# _framework density 22.348880999999999
#
# number of rings (size 3 to 8) (size 9 to 14) (size 15 to 20)
#    0.000    1.455    7.273    0.000    2.545    2.182 
#    1.636    0.000    0.000    0.000    0.000    0.000 
#    0.000    0.000    0.000    0.000    0.000    0.000 
#
# Total GULP energy -122627.862624 kJ/mol
# GULP energy per Si atom -5573.993756 kJ/mol
# Density = 2.229801 g / cm^3
# Si number density = 22.348881 Si / 1000 Ang^3
#
#
#
# Elastic Constant Matrix: (Units=GPa)
#
#
# Indices 1 2 3 4 5 6 
#
# 1 61.0918 32.4946 40.4498 0.0003 16.7589 -0.0003
# 2 32.4946 102.3054 31.3735 0.0001 14.2551 -0.0001
# 3 40.4498 31.3735 79.0516 0.0000 5.4745 -0.0001
# 4 0.0003 0.0001 0.0000 33.7354 -0.0001 7.9391
# 5 16.7589 14.2551 5.4745 -0.0001 28.5897 0.0002
# 6 -0.0003 -0.0001 -0.0001 7.9391 0.0002 25.1151
#
#
#
# Elastic Compliance Matrix: (Units=1/GPa)
#
#
# Indices 1 2 3 4 5 6 
#
# 1 0.031060 -0.003838 -0.013420 0.000000 -0.013724 0.000001
# 2 -0.003838 0.012283 -0.002678 0.000000 -0.003362 0.000000
# 3 -0.013420 -0.002678 0.020210 0.000000 0.005332 0.000000
# 4 0.000000 0.000000 0.000000 0.032025 0.000000 -0.010123
# 5 -0.013724 -0.003362 0.005332 0.000000 0.043678 -0.000001
# 6 0.000001 0.000000 0.000000 -0.010123 -0.000001 0.043017
#
#
# Mechanical properties :
#
#
# Convention : Reuss Voigt Hill
#
# Bulk Modulus (GPa) = 42.22551 50.12052 46.17301
# Shear Modulus (GPa) = 21.73540 26.69674 24.21607
#
# Velocity S-wave (km/s) = 3.12196 3.45997 3.29530
# Velocity P-wave (km/s) = 5.65069 6.19975 5.93158
#
# Compressibility (1/GPa) = 0.02368237
#
# Stress axis : x y z
#
# Youngs Moduli (GPa) = 32.19550 81.41008 49.47954
#
# Poissons Ratio (x) = 0.31244 0.66400
# Poissons Ratio (y) = 0.12356 0.13252
# Poissons Ratio (z) = 0.43205 0.21805
#
# Static dielectric constant tensor:
#      x y z
#    x 1.903070 0.000000 -0.029620 
#    y 0.000000 1.857960 0.000000 
#    z -0.029620 0.000000 1.919440 
# 
# From -- ./inp_files/231987.got.cif
#   From: 2010.05.17/outbox.cif.g08.bks.cpg/sg15_116_cif.got.tgz:231987.got - 2010.06.03 18:47:42.
