data_PCOD9261548
_publ_section_title
;
Structure prediction by ZEFSAII (Michael W. Deem and Ramdas Pophale) SiO2 
 PCOD9261548
Probable space group: C 2/C
;
_chemical_formula_sum "Si O2"
_cell_formula_units_Z 48
_cell_length_a 19.313053
_cell_length_b 12.578187
_cell_length_c 10.385978
_cell_angle_alpha 90.000000
_cell_angle_beta 70.581572
_cell_angle_gamma 90.000000
_cell_volume 2379.476322
_symmetry_space_group_name_H-M "C 2/C"
_symmetry_group_IT_number 15
_symmetry_cell_setting 'monoclinic'
loop_
_space_group_symop_operation_xyz
x,y,z
-x,y,1/2-z
-x,-y,-z
x,-y,1/2+z
1/2+x,1/2+y,z
1/2-x,1/2+y,1/2-z
1/2-x,1/2-y,-z
1/2+x,1/2-y,1/2+z
loop_
_atom_site_type_symbol
_atom_site_label
_atom_site_fract_x
_atom_site_fract_y
_atom_site_fract_z
Si Si1 0.704635 0.883530 0.958181
Si Si2 0.311482 0.444108 0.675842
Si Si3 0.782573 0.823262 0.171781
Si Si4 0.642057 0.772738 0.420279
Si Si5 0.841243 0.578594 0.376246
Si Si6 0.454088 0.047622 0.647255
O O1 0.778069 0.918112 0.836742
O O2 0.674900 0.783584 0.894959
O O3 0.727886 0.843411 0.084632
O O4 0.656791 0.987676 0.013351
O O5 0.328368 0.569124 0.660645
O O6 0.367328 0.352126 0.601086
O O7 0.241366 0.426064 0.625211
O O8 0.725489 0.802386 0.322627
O O9 0.637593 0.811479 0.570227
O O10 0.586541 0.845337 0.373480
O O11 0.894295 0.538361 0.232418
O O12 0.500000 0.068150 0.750000
O O13 0.500000 0.000000 0.500000
#
# Coordination Sequence:
#
# PCOD9261548 Si02
#       6
#     8   8   8   8   8   8
#     4   9  16  28  48  74 110 148 180 222 285 353
#     4  10  19  30  52  78 120 149 178 241 303 352
#     4   9  17  29  49  76 112 146 177 227 290 351
#     4  11  20  34  51  82 117 150 189 237 295 361
#     4  11  19  35  53  81 119 148 193 238 299 352
#     4  12  24  38  60  81 120 163 202 245 287 350
#
# _framework density 20.172508000000001
#
# number of rings (size 3 to 8) (size 9 to 14) (size 15 to 20)
#    0.000    1.667    6.667    0.500    0.000    0.000 
#    0.000    0.000    0.000    0.000    0.000    1.167 
#    5.000    0.167    0.000    0.000    0.000    0.000 
#
# Total GULP energy -133870.353462 kJ/mol
# GULP energy per Si atom -5577.931394 kJ/mol
# Density = 2.012659 g / cm^3
# Si number density = 20.172508 Si / 1000 Ang^3
#
#
#
# Elastic Constant Matrix: (Units=GPa)
#
#
# Indices 1 2 3 4 5 6 
#
# 1 51.0100 9.1607 6.4992 0.0000 8.0578 0.0000
# 2 9.1607 142.7663 28.4986 0.0000 -17.0515 0.0000
# 3 6.4992 28.4986 87.9244 0.0000 -0.2931 0.0000
# 4 0.0000 0.0000 0.0000 24.5763 0.0000 5.7978
# 5 8.0578 -17.0515 -0.2931 0.0000 16.5937 0.0000
# 6 0.0000 0.0000 0.0000 5.7978 0.0000 23.2784
#
#
#
# Elastic Compliance Matrix: (Units=1/GPa)
#
#
# Indices 1 2 3 4 5 6 
#
# 1 0.022433 -0.002956 -0.000747 0.000000 -0.013944 0.000000
# 2 -0.002956 0.008995 -0.002662 0.000000 0.010632 0.000000
# 3 -0.000747 -0.002662 0.012284 0.000000 -0.002156 0.000000
# 4 0.000000 0.000000 0.000000 0.043230 0.000000 -0.010767
# 5 -0.013944 0.010632 -0.002156 0.000000 0.077922 0.000000
# 6 0.000000 0.000000 0.000000 -0.010767 0.000000 0.045640
#
#
# Mechanical properties :
#
#
# Convention : Reuss Voigt Hill
#
# Bulk Modulus (GPa) = 32.27488 41.11307 36.69397
# Shear Modulus (GPa) = 21.40782 28.72581 25.06681
#
# Velocity S-wave (km/s) = 3.26120 3.77770 3.52891
# Velocity P-wave (km/s) = 5.49679 6.28116 5.90202
#
# Compressibility (1/GPa) = 0.03098385
#
# Stress axis : x y z
#
# Youngs Moduli (GPa) = 44.57812 111.16984 81.40581
#
# Poissons Ratio (x) = 0.32859 0.06078
# Poissons Ratio (y) = 0.13176 0.21668
# Poissons Ratio (z) = 0.03328 0.29590
#
# Static dielectric constant tensor:
#      x y z
#    x 1.721410 0.000000 0.043340 
#    y 0.000000 1.823300 0.000000 
#    z 0.043340 0.000000 1.742330 
# 
# From -- ./inp_files/110872.got.cif
#   From: 2010.05.17/outbox.cif.g08.bks.cpg/sg15_56_cif.got.tgz:110872.got - 2010.06.03 18:47:42.
