data_PCOD9261015
_publ_section_title
;
Structure prediction by ZEFSAII (Michael W. Deem and Ramdas Pophale) SiO2 
 PCOD9261015
Probable space group: C 2/C
;
_chemical_formula_sum "Si O2"
_cell_formula_units_Z 56
_cell_length_a 13.770517
_cell_length_b 7.693619
_cell_length_c 28.308406
_cell_angle_alpha 90.000000
_cell_angle_beta 47.699848
_cell_angle_gamma 90.000000
_cell_volume 2218.249793
_symmetry_space_group_name_H-M "C 2/C"
_symmetry_group_IT_number 15
_symmetry_cell_setting 'monoclinic'
loop_
_space_group_symop_operation_xyz
x,y,z
-x,y,1/2-z
-x,-y,-z
x,-y,1/2+z
1/2+x,1/2+y,z
1/2-x,1/2+y,1/2-z
1/2-x,1/2-y,-z
1/2+x,1/2-y,1/2+z
loop_
_atom_site_type_symbol
_atom_site_label
_atom_site_fract_x
_atom_site_fract_y
_atom_site_fract_z
Si Si1 0.452850 0.538716 0.176182
Si Si2 0.509777 0.537103 0.055570
Si Si3 0.298062 0.601788 0.350918
Si Si4 0.252314 0.309879 0.289582
Si Si5 0.213060 0.393290 0.550136
Si Si6 0.354551 0.855764 0.499694
Si Si7 0.795154 0.496488 0.844701
O O1 0.538420 0.514217 0.101419
O O2 0.559241 0.529776 0.182014
O O3 0.346429 0.389386 0.219113
O O4 0.376236 0.720852 0.191782
O O5 0.636631 0.458985 0.989702
O O6 0.362633 0.476419 0.101765
O O7 0.518374 0.736767 0.036647
O O8 0.238275 0.473353 0.330733
O O9 0.208822 0.604933 0.428518
O O10 0.333678 0.802403 0.326171
O O11 0.315844 0.146896 0.297331
O O12 0.250000 0.250000 0.500000
O O13 0.114257 0.496297 0.547964
O O14 0.158402 0.408209 0.621075
O O15 0.250000 0.750000 0.500000
#
# Coordination Sequence:
#
# PCOD9261015 Si02
#       7
#     8   8   8   8   8   8   8
#     4  11  25  53  73  99 153 190 248 315 364 438
#     4  10  21  42  68  99 143 189 227 303 364 433
#     4  12  23  50  77 107 151 191 245 312 370 449
#     4  11  29  49  72 110 140 194 258 303 366 446
#     4  11  20  37  66 103 141 188 239 290 370 448
#     4  10  18  39  70 101 145 189 227 295 380 431
#     4  11  24  44  70 109 146 188 251 295 371 444
#
# _framework density 25.245128999999999
#
# number of rings (size 3 to 8) (size 9 to 14) (size 15 to 20)
#    0.000    1.143    5.714    1.714    4.000    0.000 
#   12.857    3.571    0.000    0.000    0.000    0.000 
#    0.000    0.000    0.000    0.000    0.000    0.000 
#
# Total GULP energy -155964.020125 kJ/mol
# GULP energy per Si atom -5570.143576 kJ/mol
# Density = 2.518767 g / cm^3
# Si number density = 25.245129 Si / 1000 Ang^3
#
#
#
# Elastic Constant Matrix: (Units=GPa)
#
#
# Indices 1 2 3 4 5 6 
#
# 1 45.8698 18.3773 13.6344 -0.0001 4.8742 0.0000
# 2 18.3773 77.5216 8.5599 -0.0001 9.3312 0.0000
# 3 13.6344 8.5599 107.0989 0.0000 25.9445 0.0000
# 4 -0.0001 -0.0001 0.0000 42.6581 0.0000 8.5030
# 5 4.8742 9.3312 25.9445 0.0000 33.6373 0.0000
# 6 0.0000 0.0000 0.0000 8.5030 0.0000 37.4632
#
#
#
# Elastic Compliance Matrix: (Units=1/GPa)
#
#
# Indices 1 2 3 4 5 6 
#
# 1 0.024848 -0.005596 -0.002730 0.000000 0.000057 0.000000
# 2 -0.005596 0.014609 0.000406 0.000000 -0.003555 0.000000
# 3 -0.002730 0.000406 0.011786 0.000000 -0.008807 0.000000
# 4 0.000000 0.000000 0.000000 0.024553 0.000000 -0.005573
# 5 0.000057 -0.003555 -0.008807 0.000000 0.037500 0.000000
# 6 0.000000 0.000000 0.000000 -0.005573 0.000000 0.027958
#
#
# Mechanical properties :
#
#
# Convention : Reuss Voigt Hill
#
# Bulk Modulus (GPa) = 28.24599 34.62595 31.43597
# Shear Modulus (GPa) = 29.60414 35.41296 32.50855
#
# Velocity S-wave (km/s) = 3.42814 3.74941 3.59237
# Velocity P-wave (km/s) = 5.18483 5.69998 5.44850
#
# Compressibility (1/GPa) = 0.03540326
#
# Stress axis : x y z
#
# Youngs Moduli (GPa) = 40.24437 68.44959 84.84743
#
# Poissons Ratio (x) = 0.38304 0.23163
# Poissons Ratio (y) = 0.22521 -0.03444
# Poissons Ratio (z) = 0.10987 -0.02779
#
# Static dielectric constant tensor:
#      x y z
#    x 2.055250 0.000000 -0.182030 
#    y 0.000000 1.819990 0.000000 
#    z -0.182030 0.000000 0.855930 
# 
# From -- ./inp_files/312867.got.cif
#   From: 2010.05.17/outbox.cif.g08.bks.cpg/sg15_157_cif.got.tgz:312867.got - 2010.06.03 18:47:42.
