data_PCOD9261128
_publ_section_title
;
Structure prediction by ZEFSAII (Michael W. Deem and Ramdas Pophale) SiO2 
 PCOD9261128
Probable space group: C 2/C
;
_chemical_formula_sum "Si O2"
_cell_formula_units_Z 52
_cell_length_a 20.330255
_cell_length_b 6.844609
_cell_length_c 17.093205
_cell_angle_alpha 90.000000
_cell_angle_beta 104.965453
_cell_angle_gamma 90.000000
_cell_volume 2297.887858
_symmetry_space_group_name_H-M "C 2/C"
_symmetry_group_IT_number 15
_symmetry_cell_setting 'monoclinic'
loop_
_space_group_symop_operation_xyz
x,y,z
-x,y,1/2-z
-x,-y,-z
x,-y,1/2+z
1/2+x,1/2+y,z
1/2-x,1/2+y,1/2-z
1/2-x,1/2-y,-z
1/2+x,1/2-y,1/2+z
loop_
_atom_site_type_symbol
_atom_site_label
_atom_site_fract_x
_atom_site_fract_y
_atom_site_fract_z
Si Si1 0.248514 0.971477 0.665899
Si Si2 0.376129 0.340805 0.465305
Si Si3 0.000000 0.404355 0.250000
Si Si4 0.122337 0.414299 0.385023
Si Si5 0.311309 0.578956 0.694299
Si Si6 0.440263 0.750195 0.828291
Si Si7 0.585750 0.374642 0.397591
O O1 0.260873 0.746651 0.648025
O O2 0.189228 0.074545 0.599495
O O3 0.317438 0.079085 0.660204
O O4 0.231503 0.964413 0.753450
O O5 0.359241 0.186424 0.527830
O O6 0.423035 0.241488 0.414201
O O7 0.412406 0.525293 0.517596
O O8 0.944151 0.314777 0.175283
O O9 0.956086 0.543760 0.293540
O O10 0.103946 0.642834 0.398370
O O11 0.374490 0.666425 0.764200
O O12 0.353967 0.514895 0.631860
O O13 0.508934 0.622497 0.841145
#
# Coordination Sequence:
#
# PCOD9261128 Si02
#       7
#     8   8   4   8   8   8   8
#     4  10  22  40  59  93 126 167 209 255 310 377
#     4  11  24  38  62  99 128 158 212 256 319 368
#     4  10  18  40  66  86 124 168 214 248 320 358
#     4  10  22  42  61  92 128 168 205 265 303 376
#     4  10  20  38  63  88 123 167 210 254 311 363
#     4  10  18  41  65  87 125 165 202 265 304 368
#     4  10  21  40  65  88 124 166 203 258 318 362
#
# _framework density 22.629477000000001
#
# number of rings (size 3 to 8) (size 9 to 14) (size 15 to 20)
#    0.000    1.846    4.615    0.923    2.154    4.923 
#    8.308    1.538    0.000    0.000    0.000    0.000 
#    0.000    0.000    0.000    0.000    0.000    0.000 
#
# Total GULP energy -145059.090317 kJ/mol
# GULP energy per Si atom -5579.195781 kJ/mol
# Density = 2.257797 g / cm^3
# Si number density = 22.629477 Si / 1000 Ang^3
#
#
#
# Elastic Constant Matrix: (Units=GPa)
#
#
# Indices 1 2 3 4 5 6 
#
# 1 91.3478 20.5863 32.8974 0.0000 -16.8074 0.0000
# 2 20.5863 56.0800 23.0538 0.0000 -7.7604 0.0000
# 3 32.8974 23.0538 98.2652 0.0000 -21.1577 0.0000
# 4 0.0000 0.0000 0.0000 34.3745 0.0000 2.1113
# 5 -16.8074 -7.7604 -21.1577 0.0000 42.1492 0.0000
# 6 0.0000 0.0000 0.0000 2.1113 0.0000 16.8180
#
#
#
# Elastic Compliance Matrix: (Units=1/GPa)
#
#
# Indices 1 2 3 4 5 6 
#
# 1 0.013352 -0.003213 -0.003024 0.000000 0.003215 0.000000
# 2 -0.003213 0.020590 -0.003604 0.000000 0.000701 0.000000
# 3 -0.003024 -0.003604 0.013041 0.000000 0.004677 0.000000
# 4 0.000000 0.000000 0.000000 0.029317 0.000000 -0.003680
# 5 0.003215 0.000701 0.004677 0.000000 0.027484 0.000000
# 6 0.000000 0.000000 0.000000 -0.003680 0.000000 0.059922
#
#
# Mechanical properties :
#
#
# Convention : Reuss Voigt Hill
#
# Bulk Modulus (GPa) = 36.62927 44.30758 40.46842
# Shear Modulus (GPa) = 25.97552 29.94538 27.96045
#
# Velocity S-wave (km/s) = 3.39169 3.64165 3.51889
# Velocity P-wave (km/s) = 5.61780 6.10772 5.86788
#
# Compressibility (1/GPa) = 0.02730057
#
# Stress axis : x y z
#
# Youngs Moduli (GPa) = 74.89618 48.56798 76.67865
#
# Poissons Ratio (x) = 0.15607 0.23187
# Poissons Ratio (y) = 0.24067 0.27634
# Poissons Ratio (z) = 0.22648 0.17503
#
# Static dielectric constant tensor:
#      x y z
#    x 1.864110 0.000000 -0.022390 
#    y 0.000000 1.906140 0.000000 
#    z -0.022390 0.000000 1.827760 
# 
# From -- ./inp_files/213507.got.cif
#   From: 2010.05.17/outbox.cif.g08.bks.cpg/sg15_107_cif.got.tgz:213507.got - 2010.06.03 18:47:42.
