data_PCOD9261583
_publ_section_title
;
Structure prediction by ZEFSAII (Michael W. Deem and Ramdas Pophale) SiO2 
 PCOD9261583
Probable space group: C 2/C
;
_chemical_formula_sum "Si O2"
_cell_formula_units_Z 56
_cell_length_a 19.747767
_cell_length_b 6.962923
_cell_length_c 17.741001
_cell_angle_alpha 90.000000
_cell_angle_beta 99.091293
_cell_angle_gamma 90.000000
_cell_volume 2408.781843
_symmetry_space_group_name_H-M "C 2/C"
_symmetry_group_IT_number 15
_symmetry_cell_setting 'monoclinic'
loop_
_space_group_symop_operation_xyz
x,y,z
-x,y,1/2-z
-x,-y,-z
x,-y,1/2+z
1/2+x,1/2+y,z
1/2-x,1/2+y,1/2-z
1/2-x,1/2-y,-z
1/2+x,1/2-y,1/2+z
loop_
_atom_site_type_symbol
_atom_site_label
_atom_site_fract_x
_atom_site_fract_y
_atom_site_fract_z
Si Si1 0.386473 0.460709 0.466041
Si Si2 0.305310 0.058203 0.819527
Si Si3 0.172695 0.005380 0.696726
Si Si4 0.907121 0.138529 0.191045
Si Si5 0.551847 0.008790 0.203448
Si Si6 0.495532 0.273160 0.576692
Si Si7 0.217044 0.898758 0.935921
O O1 0.344970 0.400064 0.385164
O O2 0.432329 0.285915 0.507475
O O3 0.440405 0.624308 0.451104
O O4 0.332729 0.527626 0.520123
O O5 0.326856 0.279555 0.824843
O O6 0.371245 0.933404 0.806436
O O7 0.245610 0.048321 0.746333
O O8 0.272397 0.001950 0.893539
O O9 0.115930 0.019564 0.752751
O O10 0.930569 0.324834 0.240423
O O11 0.966121 0.095542 0.140792
O O12 0.838021 0.190041 0.132533
O O13 0.500000 0.122546 0.250000
O O14 0.515435 0.925877 0.120967
O O15 0.250000 0.750000 0.000000
#
# Coordination Sequence:
#
# PCOD9261583 Si02
#       7
#     8   8   8   8   8   8   8
#     4  10  19  30  55  82 115 148 191 238 282 330
#     4  10  21  37  57  87 114 148 201 238 290 349
#     4  10  20  34  57  88 112 152 194 245 291 339
#     4   8  16  31  52  80 106 142 194 228 278 340
#     4   9  16  32  59  80 111 149 194 234 291 347
#     4   9  16  31  52  84 110 145 192 240 273 340
#     4  10  22  35  53  81 117 154 188 233 297 351
#
# _framework density 23.248263999999999
#
# number of rings (size 3 to 8) (size 9 to 14) (size 15 to 20)
#    0.000    2.571    2.857    0.000    6.000    0.571 
#    0.000    0.000    0.000   16.286    0.000    0.000 
#    0.000    0.000    0.000    0.000    0.000    0.000 
#
# Total GULP energy -156141.014393 kJ/mol
# GULP energy per Si atom -5576.464800 kJ/mol
# Density = 2.319535 g / cm^3
# Si number density = 23.248264 Si / 1000 Ang^3
#
#
#
# Elastic Constant Matrix: (Units=GPa)
#
#
# Indices 1 2 3 4 5 6 
#
# 1 167.7850 7.2885 71.0723 0.0000 -36.8331 0.0000
# 2 7.2885 22.7939 18.7356 0.0000 -6.2973 0.0000
# 3 71.0723 18.7356 156.5705 0.0000 -2.6313 0.0000
# 4 0.0000 0.0000 0.0000 21.9365 0.0000 -5.5447
# 5 -36.8331 -6.2973 -2.6313 0.0000 53.8074 0.0000
# 6 0.0000 0.0000 0.0000 -5.5447 0.0000 21.3643
#
#
#
# Elastic Compliance Matrix: (Units=1/GPa)
#
#
# Indices 1 2 3 4 5 6 
#
# 1 0.009046 0.002357 -0.004283 0.000000 0.006259 0.000000
# 2 0.002357 0.050900 -0.007039 0.000000 0.007226 0.000000
# 3 -0.004283 -0.007039 0.009118 0.000000 -0.003310 0.000000
# 4 0.000000 0.000000 0.000000 0.048786 0.000000 0.012662
# 5 0.006259 0.007226 -0.003310 0.000000 0.023553 0.000000
# 6 0.000000 0.000000 0.000000 0.012662 0.000000 0.050093
#
#
# Mechanical properties :
#
#
# Convention : Reuss Voigt Hill
#
# Bulk Modulus (GPa) = 19.55677 60.14914 39.85295
# Shear Modulus (GPa) = 22.07784 36.09184 29.08484
#
# Velocity S-wave (km/s) = 3.08499 3.94439 3.54086
# Velocity P-wave (km/s) = 4.59565 6.83176 5.82207
#
# Compressibility (1/GPa) = 0.05113320
#
# Stress axis : x y z
#
# Youngs Moduli (GPa) = 110.54859 19.64627 109.67515
#
# Poissons Ratio (x) = -0.04631 0.46974
# Poissons Ratio (y) = -0.26057 0.77204
# Poissons Ratio (z) = 0.47348 0.13830
#
# Static dielectric constant tensor:
#      x y z
#    x 1.992780 0.000000 -0.031020 
#    y 0.000000 1.886890 0.000000 
#    z -0.031020 0.000000 1.912830 
# 
# From -- ./inp_files/213455.got.cif
#   From: 2010.05.17/outbox.cif.g08.bks.cpg/sg15_107_cif.got.tgz:213455.got - 2010.06.03 18:47:42.
