data_PCOD9261731
_publ_section_title
;
Structure prediction by ZEFSAII (Michael W. Deem and Ramdas Pophale) SiO2 
 PCOD9261731
Probable space group: C 2/C
;
_chemical_formula_sum "Si O2"
_cell_formula_units_Z 48
_cell_length_a 17.240767
_cell_length_b 25.734947
_cell_length_c 5.291042
_cell_angle_alpha 90.000000
_cell_angle_beta 127.560031
_cell_angle_gamma 90.000000
_cell_volume 1860.964938
_symmetry_space_group_name_H-M "C 2/C"
_symmetry_group_IT_number 15
_symmetry_cell_setting 'monoclinic'
loop_
_space_group_symop_operation_xyz
x,y,z
-x,y,1/2-z
-x,-y,-z
x,-y,1/2+z
1/2+x,1/2+y,z
1/2-x,1/2+y,1/2-z
1/2-x,1/2-y,-z
1/2+x,1/2-y,1/2+z
loop_
_atom_site_type_symbol
_atom_site_label
_atom_site_fract_x
_atom_site_fract_y
_atom_site_fract_z
Si Si1 0.368516 0.311353 0.816314
Si Si2 0.890637 0.522143 0.271539
Si Si3 0.362422 0.633475 0.803460
Si Si4 0.127554 0.641761 0.357633
Si Si5 0.370419 0.802825 0.140123
Si Si6 0.885860 0.022119 0.579965
O O1 0.397251 0.353312 0.656850
O O2 0.399103 0.254832 0.780033
O O3 0.249016 0.307236 0.594567
O O4 0.399729 0.326912 0.160976
O O5 0.842206 0.503802 0.432698
O O6 0.898895 0.583307 0.264031
O O7 0.000000 0.500000 0.500000
O O8 0.245790 0.641729 0.591940
O O9 0.376997 0.576917 0.708759
O O10 0.095723 0.657724 0.574210
O O11 0.098060 0.681087 0.077091
O O12 0.000000 0.012177 0.750000
O O13 0.847603 0.018698 0.215143
#
# Coordination Sequence:
#
# PCOD9261731 Si02
#       6
#     8   8   8   8   8   8
#     4   9  17  30  49  77 109 134 167 203 271 314
#     4  10  21  36  52  73  98 135 181 217 263 318
#     4  10  19  31  51  79 105 138 167 217 258 309
#     4  10  19  31  51  79 105 131 176 214 266 305
#     4   9  17  30  49  77 109 135 161 215 260 322
#     4  10  21  36  52  73 101 139 176 204 253 308
#
# _framework density 25.793068000000002
#
# number of rings (size 3 to 8) (size 9 to 14) (size 15 to 20)
#    0.000    2.333    0.000    3.000    0.000    5.333 
#    0.000    0.000    0.000    0.000   43.333    0.000 
#    0.000    0.000    0.000    0.000    0.000    0.000 
#
# Total GULP energy -134362.440670 kJ/mol
# GULP energy per Si atom -5598.435028 kJ/mol
# Density = 2.573436 g / cm^3
# Si number density = 25.793068 Si / 1000 Ang^3
#
#
#
# Elastic Constant Matrix: (Units=GPa)
#
#
# Indices 1 2 3 4 5 6 
#
# 1 132.4385 1.8683 30.3694 0.0000 -24.9133 0.0000
# 2 1.8683 113.6335 20.6284 0.0000 -34.8306 0.0000
# 3 30.3694 20.6284 131.9897 0.0000 -42.5676 0.0000
# 4 0.0000 0.0000 0.0000 39.8694 0.0000 -9.2588
# 5 -24.9133 -34.8306 -42.5676 0.0000 55.8129 0.0000
# 6 0.0000 0.0000 0.0000 -9.2588 0.0000 41.0827
#
#
#
# Elastic Compliance Matrix: (Units=1/GPa)
#
#
# Indices 1 2 3 4 5 6 
#
# 1 0.008462 0.001202 -0.000895 0.000000 0.003845 0.000000
# 2 0.001202 0.011094 0.000524 0.000000 0.007860 0.000000
# 3 -0.000895 0.000524 0.010181 0.000000 0.007693 0.000000
# 4 0.000000 0.000000 0.000000 0.026467 0.000000 0.005965
# 5 0.003845 0.007860 0.007693 0.000000 0.030406 0.000000
# 6 0.000000 0.000000 0.000000 0.005965 0.000000 0.025685
#
#
# Mechanical properties :
#
#
# Convention : Reuss Voigt Hill
#
# Bulk Modulus (GPa) = 31.84644 53.75488 42.80066
# Shear Modulus (GPa) = 41.28805 49.03271 45.16038
#
# Velocity S-wave (km/s) = 4.00527 4.36478 4.18888
# Velocity P-wave (km/s) = 5.81062 6.80351 6.32657
#
# Compressibility (1/GPa) = 0.03140068
#
# Stress axis : x y z
#
# Youngs Moduli (GPa) = 118.17294 90.13478 98.21903
#
# Poissons Ratio (x) = -0.10832 0.08790
# Poissons Ratio (y) = -0.14202 -0.05151
# Poissons Ratio (z) = 0.10576 -0.04727
#
# Static dielectric constant tensor:
#      x y z
#    x 2.048270 0.000000 -0.011700 
#    y 0.000000 1.969940 0.000000 
#    z -0.011700 0.000000 2.256520 
# 
# From -- ./inp_files/10682.got.cif
#   From: 2010.05.17/outbox.cif.g08.bks.cpg/sg15_6_cif.got.tgz:10682.got - 2010.06.03 18:47:42.
