data_PCOD9261944
_publ_section_title
;
Structure prediction by ZEFSAII (Michael W. Deem and Ramdas Pophale) SiO2 
 PCOD9261944
Probable space group: C 2/C
;
_chemical_formula_sum "Si O2"
_cell_formula_units_Z 56
_cell_length_a 14.669544
_cell_length_b 26.085575
_cell_length_c 8.892487
_cell_angle_alpha 90.000000
_cell_angle_beta 121.974826
_cell_angle_gamma 90.000000
_cell_volume 2886.555601
_symmetry_space_group_name_H-M "C 2/C"
_symmetry_group_IT_number 15
_symmetry_cell_setting 'monoclinic'
loop_
_space_group_symop_operation_xyz
x,y,z
-x,y,1/2-z
-x,-y,-z
x,-y,1/2+z
1/2+x,1/2+y,z
1/2-x,1/2+y,1/2-z
1/2-x,1/2-y,-z
1/2+x,1/2-y,1/2+z
loop_
_atom_site_type_symbol
_atom_site_label
_atom_site_fract_x
_atom_site_fract_y
_atom_site_fract_z
Si Si1 0.105613 0.844402 0.449718
Si Si2 0.111279 0.039823 0.939468
Si Si3 0.795270 0.047821 0.785485
Si Si4 0.953678 0.548722 0.876091
Si Si5 0.208921 0.835222 0.238378
Si Si6 0.015108 0.228535 0.443223
Si Si7 0.041292 0.338872 0.113893
O O1 0.118134 0.903120 0.515189
O O2 0.198745 0.830452 0.411333
O O3 0.000000 0.843916 0.250000
O O4 0.078267 0.804704 0.556929
O O5 0.201909 0.037054 0.889661
O O6 0.000000 0.036124 0.750000
O O7 0.129944 0.993354 0.067910
O O8 0.674827 0.044608 0.739671
O O9 0.831305 0.106817 0.833656
O O10 0.981426 0.604569 0.971463
O O11 0.000000 0.548440 0.750000
O O12 0.000000 0.500000 0.000000
O O13 0.330322 0.830936 0.287087
O O14 0.128025 0.796303 0.088854
O O15 0.000000 0.227428 0.250000
O O16 0.010305 0.287229 0.495412
O O17 0.000000 0.341123 0.250000
#
# Coordination Sequence:
#
# PCOD9261944 Si02
#       7
#     8   8   8   8   8   8   8
#     4   8  17  34  51  72 106 140 166 206 263 308
#     4  10  19  32  50  77 110 139 172 213 256 312
#     4  10  20  33  53  77 104 141 175 209 264 314
#     4  10  20  38  58  77 105 137 173 217 260 307
#     4   9  19  36  53  72 106 141 168 212 267 311
#     4  10  20  34  54  78 101 134 179 216 254 310
#     4   9  20  36  55  77 105 139 171 210 267 311
#
# _framework density 19.400283000000002
#
# number of rings (size 3 to 8) (size 9 to 14) (size 15 to 20)
#    0.000    2.571    0.000    2.143    0.000    4.571 
#    0.000    3.571    0.000    0.000    0.000    0.000 
#    0.000    0.000    0.000    0.000    0.000    0.000 
#
# Total GULP energy -156073.124683 kJ/mol
# GULP energy per Si atom -5574.040167 kJ/mol
# Density = 1.935613 g / cm^3
# Si number density = 19.400283 Si / 1000 Ang^3
#
#
#
# Elastic Constant Matrix: (Units=GPa)
#
#
# Indices 1 2 3 4 5 6 
#
# 1 127.2606 35.1076 11.2193 0.0000 -11.0520 0.0000
# 2 35.1076 186.8328 56.3266 0.0000 -1.8425 0.0000
# 3 11.2193 56.3266 28.4932 0.0000 -4.8469 0.0000
# 4 0.0000 0.0000 0.0000 25.9831 0.0000 10.9378
# 5 -11.0520 -1.8425 -4.8469 0.0000 15.9108 0.0000
# 6 0.0000 0.0000 0.0000 10.9378 0.0000 6.2123
#
#
#
# Elastic Compliance Matrix: (Units=1/GPa)
#
#
# Indices 1 2 3 4 5 6 
#
# 1 0.008853 -0.002181 0.001929 0.000000 0.006484 0.000000
# 2 -0.002181 0.014521 -0.029338 0.000000 -0.008771 0.000000
# 3 0.001929 -0.029338 0.097011 0.000000 0.027495 0.000000
# 4 0.000000 0.000000 0.000000 0.148692 0.000000 -0.261798
# 5 0.006484 -0.008771 0.027495 0.000000 0.074715 0.000000
# 6 0.000000 0.000000 0.000000 -0.261798 0.000000 0.621911
#
#
# Mechanical properties :
#
#
# Convention : Reuss Voigt Hill
#
# Bulk Modulus (GPa) = 16.33899 60.87707 38.60803
# Shear Modulus (GPa) = 4.78339 25.61678 15.20008
#
# Velocity S-wave (km/s) = 1.57194 3.63772 2.80214
# Velocity P-wave (km/s) = 3.42563 7.00654 5.51482
#
# Compressibility (1/GPa) = 0.06120330
#
# Stress axis : x y z
#
# Youngs Moduli (GPa) = 112.96031 68.86735 10.30812
#
# Poissons Ratio (x) = 0.15020 -0.01988
# Poissons Ratio (y) = 0.24637 0.30242
# Poissons Ratio (z) = -0.21789 2.02045
#
# Static dielectric constant tensor:
#      x y z
#    x 1.722200 0.000000 -0.012880 
#    y 0.000000 1.715040 0.000000 
#    z -0.012880 0.000000 1.644210 
# 
# From -- ./inp_files/42716.got.cif
#   From: 2010.05.17/outbox.cif.g08.bks.cpg/sg15_22_cif.got.tgz:42716.got - 2010.06.03 18:47:42.
