data_PCOD9261827
_publ_section_title
;
Structure prediction by ZEFSAII (Michael W. Deem and Ramdas Pophale) SiO2 
 PCOD9261827
Probable space group: C 2/C
;
_chemical_formula_sum "Si O2"
_cell_formula_units_Z 48
_cell_length_a 11.618891
_cell_length_b 27.423950
_cell_length_c 8.883533
_cell_angle_alpha 90.000000
_cell_angle_beta 79.016088
_cell_angle_gamma 90.000000
_cell_volume 2778.757630
_symmetry_space_group_name_H-M "C 2/C"
_symmetry_group_IT_number 15
_symmetry_cell_setting 'monoclinic'
loop_
_space_group_symop_operation_xyz
x,y,z
-x,y,1/2-z
-x,-y,-z
x,-y,1/2+z
1/2+x,1/2+y,z
1/2-x,1/2+y,1/2-z
1/2-x,1/2-y,-z
1/2+x,1/2-y,1/2+z
loop_
_atom_site_type_symbol
_atom_site_label
_atom_site_fract_x
_atom_site_fract_y
_atom_site_fract_z
Si Si1 0.150837 0.457279 0.871994
Si Si2 0.155704 0.657610 0.858887
Si Si3 0.725947 0.133470 0.521034
Si Si4 0.390176 0.688753 0.680325
Si Si5 0.872018 0.441749 0.970029
Si Si6 0.050494 0.299794 0.900707
O O1 0.167923 0.450615 0.690515
O O2 0.014442 0.442845 0.936939
O O3 0.226643 0.419933 0.951398
O O4 0.167154 0.512892 0.917996
O O5 0.144254 0.636962 0.691379
O O6 0.274972 0.688837 0.815813
O O7 0.169293 0.610086 0.958871
O O8 0.049664 0.688692 0.951903
O O9 0.848216 0.154429 0.553667
O O10 0.664401 0.169170 0.416791
O O11 0.500000 0.670883 0.750000
O O12 0.418636 0.742863 0.616074
O O13 0.000000 0.314716 0.750000
#
# Coordination Sequence:
#
# PCOD9261827 Si02
#       6
#     8   8   8   8   8   8
#     4  10  19  31  55  87 121 145 172 232 288 358
#     4  10  21  34  59  79 116 150 187 235 287 339
#     4  10  20  35  55  82 114 152 186 232 288 338
#     4   9  23  38  56  78 112 156 202 238 275 333
#     4  10  19  32  53  89 121 142 178 224 299 350
#     4  11  20  35  56  82 114 145 191 237 293 339
#
# _framework density 17.273906
#
# number of rings (size 3 to 8) (size 9 to 14) (size 15 to 20)
#    1.000    1.000    1.667    3.000    0.000    4.000 
#    0.000    0.000    0.000    1.000    0.000    0.000 
#    0.000    0.000    0.000    0.000    0.000    0.000 
#
# Total GULP energy -133707.856462 kJ/mol
# GULP energy per Si atom -5571.160686 kJ/mol
# Density = 1.723459 g / cm^3
# Si number density = 17.273906 Si / 1000 Ang^3
#
#
#
# Elastic Constant Matrix: (Units=GPa)
#
#
# Indices 1 2 3 4 5 6 
#
# 1 65.0486 39.4609 14.1907 0.0000 12.9325 0.0000
# 2 39.4609 115.1280 49.9416 0.0000 4.4130 0.0000
# 3 14.1907 49.9416 80.6312 0.0000 11.4823 0.0000
# 4 0.0000 0.0000 0.0000 28.1884 0.0000 6.6703
# 5 12.9325 4.4130 11.4823 0.0000 22.8142 0.0000
# 6 0.0000 0.0000 0.0000 6.6703 0.0000 23.3184
#
#
#
# Elastic Compliance Matrix: (Units=1/GPa)
#
#
# Indices 1 2 3 4 5 6 
#
# 1 0.022386 -0.008560 0.003160 0.000000 -0.012625 0.000000
# 2 -0.008560 0.015199 -0.008811 0.000000 0.006347 0.000000
# 3 0.003160 -0.008811 0.018653 0.000000 -0.009475 0.000000
# 4 0.000000 0.000000 0.000000 0.038051 0.000000 -0.010885
# 5 -0.012625 0.006347 -0.009475 0.000000 0.054530 0.000000
# 6 0.000000 0.000000 0.000000 -0.010885 0.000000 0.045998
#
#
# Mechanical properties :
#
#
# Convention : Reuss Voigt Hill
#
# Bulk Modulus (GPa) = 35.95133 51.99937 43.97535
# Shear Modulus (GPa) = 21.50426 25.34517 23.42472
#
# Velocity S-wave (km/s) = 3.53214 3.83463 3.68649
# Velocity P-wave (km/s) = 6.12310 7.05507 6.60554
#
# Compressibility (1/GPa) = 0.02781538
#
# Stress axis : x y z
#
# Youngs Moduli (GPa) = 44.66982 65.79408 53.61106
#
# Poissons Ratio (x) = 0.56319 -0.16940
# Poissons Ratio (y) = 0.38237 0.47238
# Poissons Ratio (z) = -0.14115 0.57973
#
# Static dielectric constant tensor:
#      x y z
#    x 1.592720 0.000000 0.015030 
#    y 0.000000 1.579970 0.000000 
#    z 0.015030 0.000000 1.600640 
# 
# From -- ./inp_files/33020.got.cif
#   From: 2010.05.17/outbox.cif.g08.bks.cpg/sg15_17_cif.got.tgz:33020.got - 2010.06.03 18:47:42.
