data_PCOD9261616
_publ_section_title
;
Structure prediction by ZEFSAII (Michael W. Deem and Ramdas Pophale) SiO2 
 PCOD9261616
Probable space group: C 2/C
;
_chemical_formula_sum "Si O2"
_cell_formula_units_Z 48
_cell_length_a 5.252989
_cell_length_b 14.295775
_cell_length_c 27.441761
_cell_angle_alpha 90.000000
_cell_angle_beta 84.507721
_cell_angle_gamma 90.000000
_cell_volume 2051.293398
_symmetry_space_group_name_H-M "C 2/C"
_symmetry_group_IT_number 15
_symmetry_cell_setting 'monoclinic'
loop_
_space_group_symop_operation_xyz
x,y,z
-x,y,1/2-z
-x,-y,-z
x,-y,1/2+z
1/2+x,1/2+y,z
1/2-x,1/2+y,1/2-z
1/2-x,1/2-y,-z
1/2+x,1/2-y,1/2+z
loop_
_atom_site_type_symbol
_atom_site_label
_atom_site_fract_x
_atom_site_fract_y
_atom_site_fract_z
Si Si1 0.162113 0.263935 0.945961
Si Si2 0.317481 0.739632 0.108293
Si Si3 0.675775 0.510368 0.391707
Si Si4 0.262106 0.739103 0.220270
Si Si5 0.767624 0.010897 0.220270
Si Si6 0.141927 0.486066 0.945961
O O1 0.398940 0.228519 0.910217
O O2 0.155126 0.375000 0.939750
O O3 0.890719 0.231228 0.928897
O O4 0.250000 0.250000 0.000000
O O5 0.320935 0.625000 0.108128
O O6 0.261784 0.770687 0.164232
O O7 0.676016 0.479312 0.335768
O O8 0.430386 0.481227 0.428897
O O9 0.940844 0.478518 0.410217
O O10 0.500000 0.766696 0.250000
O O11 0.265751 0.625000 0.218497
O O12 0.000000 0.767427 0.250000
O O13 0.500000 0.983304 0.250000
O O14 0.000000 0.982573 0.250000
O O15 0.000000 0.500000 0.000000
#
# Coordination Sequence:
#
# PCOD9261616 Si02
#       6
#     8   8   8   8   8   8
#     4  10  19  31  46  64  89 120 152 187 225 267
#     4   9  17  28  42  62  89 119 148 181 224 269
#     4   9  17  28  42  62  89 119 148 181 224 269
#     4   9  15  23  37  58  85 115 143 172 213 268
#     4   9  15  23  37  58  85 115 143 172 213 268
#     4  10  19  31  46  64  89 120 152 187 225 267
#
# _framework density 23.399871000000001
#
# number of rings (size 3 to 8) (size 9 to 14) (size 15 to 20)
#    0.000    2.667    0.000    3.000    0.000    8.000 
#    0.000    0.000    0.000    0.000    0.000    0.000 
#    0.000   20.000    0.000    0.000    0.000    0.000 
#
# Total GULP energy -134081.649352 kJ/mol
# GULP energy per Si atom -5586.735390 kJ/mol
# Density = 2.334661 g / cm^3
# Si number density = 23.399871 Si / 1000 Ang^3
#
#
#
# Elastic Constant Matrix: (Units=GPa)
#
#
# Indices 1 2 3 4 5 6 
#
# 1 185.3586 -5.2950 73.2021 0.0000 -0.3596 0.0000
# 2 -5.2950 86.5286 -5.0429 0.0000 0.0054 0.0000
# 3 73.2021 -5.0429 173.8106 0.0000 0.1134 0.0000
# 4 0.0000 0.0000 0.0000 0.2558 0.0000 0.5818
# 5 -0.3596 0.0054 0.1134 0.0000 47.6507 0.0000
# 6 0.0000 0.0000 0.0000 0.5818 0.0000 -27.0443
#
#
#
# Elastic Compliance Matrix: (Units=1/GPa)
#
#
# Indices 1 2 3 4 5 6 
#
# 1 0.006476 0.000238 -0.002721 0.000000 0.000055 0.000000
# 2 0.000238 0.011585 0.000236 0.000000 0.000000 0.000000
# 3 -0.002721 0.000236 0.006906 0.000000 -0.000037 0.000000
# 4 0.000000 0.000000 0.000000 3.726975 0.000000 0.080176
# 5 0.000055 0.000000 -0.000037 0.000000 0.020987 0.000000
# 6 0.000000 0.000000 0.000000 0.080176 0.000000 -0.035252
#
#
# Mechanical properties :
#
#
# Convention : Reuss Voigt Hill
#
# Bulk Modulus (GPa) = 48.84319 63.49179 56.16749
# Shear Modulus (GPa) = 1.33369 29.69468 15.51419
#
# Velocity S-wave (km/s) = 0.75577 3.56618 2.57768
# Velocity P-wave (km/s) = 4.65620 6.64448 5.73713
#
# Compressibility (1/GPa) = 0.02047368
#
# Stress axis : x y z
#
# Youngs Moduli (GPa) = 154.40890 86.31723 144.79924
#
# Poissons Ratio (x) = -0.02052 0.39396
# Poissons Ratio (y) = -0.03671 -0.03417
# Poissons Ratio (z) = 0.42010 -0.02037
#
# Static dielectric constant tensor:
#      x y z
#    x 1.829040 0.000000 0.005710 
#    y 0.000000 1.930540 0.000000 
#    z 0.005710 0.000000 2.097340 
# 
# From -- ./inp_files/227710.got.cif
#   From: 2010.05.17/outbox.cif.g08.bks.cpg/sg15_114_cif.got.tgz:227710.got - 2010.06.03 18:47:42.
