data_PCOD9261345
_publ_section_title
;
Structure prediction by ZEFSAII (Michael W. Deem and Ramdas Pophale) SiO2 
 PCOD9261345
Probable space group: C 2/C
;
_chemical_formula_sum "Si O2"
_cell_formula_units_Z 64
_cell_length_a 24.855602
_cell_length_b 13.393351
_cell_length_c 9.133252
_cell_angle_alpha 90.000000
_cell_angle_beta 114.217392
_cell_angle_gamma 90.000000
_cell_volume 2772.884249
_symmetry_space_group_name_H-M "C 2/C"
_symmetry_group_IT_number 15
_symmetry_cell_setting 'monoclinic'
loop_
_space_group_symop_operation_xyz
x,y,z
-x,y,1/2-z
-x,-y,-z
x,-y,1/2+z
1/2+x,1/2+y,z
1/2-x,1/2+y,1/2-z
1/2-x,1/2-y,-z
1/2+x,1/2-y,1/2+z
loop_
_atom_site_type_symbol
_atom_site_label
_atom_site_fract_x
_atom_site_fract_y
_atom_site_fract_z
Si Si1 0.607303 0.186173 0.993596
Si Si2 0.679977 0.008516 0.180055
Si Si3 0.514492 0.837803 0.606364
Si Si4 0.183007 0.980610 0.668552
Si Si5 0.191710 0.327010 0.033605
Si Si6 0.809644 0.219167 0.149954
Si Si7 0.170150 0.138720 0.873339
Si Si8 0.068994 0.558512 0.705796
O O1 0.637116 0.253071 0.901314
O O2 0.566179 0.105489 0.862532
O O3 0.659694 0.120740 0.125148
O O4 0.561521 0.225064 0.063323
O O5 0.748441 0.999098 0.293100
O O6 0.667898 0.937487 0.027370
O O7 0.637363 0.956878 0.246855
O O8 0.500000 0.795317 0.750000
O O9 0.458007 0.865031 0.443328
O O10 0.542008 0.948432 0.664370
O O11 0.186462 0.896912 0.800211
O O12 0.154443 0.930586 0.494359
O O13 0.156022 0.080966 0.708154
O O14 0.192769 0.274988 0.195030
O O15 0.153801 0.252418 0.891916
O O16 0.258266 0.346611 0.051687
O O17 0.750000 0.250000 0.000000
#
# Coordination Sequence:
#
# PCOD9261345 Si02
#       8
#     8   8   8   8   8   8   8   8
#     4  11  21  34  54  77 107 153 190 228 279 331
#     4  10  19  28  50  78 106 144 185 228 272 329
#     4  10  20  36  51  78 109 144 183 237 286 337
#     4  10  21  33  53  70 106 145 193 227 274 318
#     4   9  19  34  48  71 104 136 188 233 274 321
#     4  11  21  35  50  77 108 147 195 238 261 329
#     4   9  20  34  51  70  94 145 181 238 272 313
#     4  10  19  32  54  75 106 143 191 225 271 345
#
# _framework density 23.080662
#
# number of rings (size 3 to 8) (size 9 to 14) (size 15 to 20)
#    0.000    2.000    2.500    2.625    7.000    0.000 
#    0.000    0.000    0.000    0.000    0.000    0.000 
#    0.000    1.000    0.250    0.000    0.000    0.000 
#
# Total GULP energy -178774.560859 kJ/mol
# GULP energy per Si atom -5586.705027 kJ/mol
# Density = 2.302813 g / cm^3
# Si number density = 23.080662 Si / 1000 Ang^3
#
#
#
# Elastic Constant Matrix: (Units=GPa)
#
#
# Indices 1 2 3 4 5 6 
#
# 1 71.9640 7.0656 26.1254 0.0000 -28.1410 0.0000
# 2 7.0656 55.0155 18.3533 0.0000 -11.8910 0.0000
# 3 26.1254 18.3533 96.4749 0.0000 -14.5854 0.0000
# 4 0.0000 0.0000 0.0000 35.6240 0.0000 -12.7031
# 5 -28.1410 -11.8910 -14.5854 0.0000 34.7181 0.0000
# 6 0.0000 0.0000 0.0000 -12.7031 0.0000 16.5491
#
#
#
# Elastic Compliance Matrix: (Units=1/GPa)
#
#
# Indices 1 2 3 4 5 6 
#
# 1 0.021533 0.002061 -0.003714 0.000000 0.016599 0.000000
# 2 0.002061 0.020619 -0.003375 0.000000 0.007315 0.000000
# 3 -0.003714 -0.003375 0.012155 0.000000 0.000941 0.000000
# 4 0.000000 0.000000 0.000000 0.038650 0.000000 0.029668
# 5 0.016599 0.007315 0.000941 0.000000 0.045159 0.000000
# 6 0.000000 0.000000 0.000000 0.029668 0.000000 0.083200
#
#
# Mechanical properties :
#
#
# Convention : Reuss Voigt Hill
#
# Bulk Modulus (GPa) = 22.59769 36.28256 29.44012
# Shear Modulus (GPa) = 20.31527 28.83892 24.57709
#
# Velocity S-wave (km/s) = 2.97001 3.53864 3.26672
# Velocity P-wave (km/s) = 4.64471 5.69649 5.19727
#
# Compressibility (1/GPa) = 0.04425231
#
# Stress axis : x y z
#
# Youngs Moduli (GPa) = 46.44109 48.49928 82.26896
#
# Poissons Ratio (x) = -0.09997 0.30552
# Poissons Ratio (y) = -0.09572 0.27764
# Poissons Ratio (z) = 0.17246 0.16368
#
# Static dielectric constant tensor:
#      x y z
#    x 1.919870 0.000000 -0.063330 
#    y 0.000000 1.916400 0.000000 
#    z -0.063330 0.000000 1.929420 
# 
# From -- ./inp_files/66253.got.cif
#   From: 2010.05.17/outbox.cif.g08.bks.cpg/sg15_34_cif.got.tgz:66253.got - 2010.06.03 18:47:42.
