data_PCOD9261973
_publ_section_title
;
Structure prediction by ZEFSAII (Michael W. Deem and Ramdas Pophale) SiO2 
 PCOD9261973
Probable space group: C 2/C
;
_chemical_formula_sum "Si O2"
_cell_formula_units_Z 48
_cell_length_a 20.986839
_cell_length_b 6.324552
_cell_length_c 23.107126
_cell_angle_alpha 90.000000
_cell_angle_beta 145.690605
_cell_angle_gamma 90.000000
_cell_volume 1728.785466
_symmetry_space_group_name_H-M "C 2/C"
_symmetry_group_IT_number 15
_symmetry_cell_setting 'monoclinic'
loop_
_space_group_symop_operation_xyz
x,y,z
-x,y,1/2-z
-x,-y,-z
x,-y,1/2+z
1/2+x,1/2+y,z
1/2-x,1/2+y,1/2-z
1/2-x,1/2-y,-z
1/2+x,1/2-y,1/2+z
loop_
_atom_site_type_symbol
_atom_site_label
_atom_site_fract_x
_atom_site_fract_y
_atom_site_fract_z
Si Si1 0.430371 0.068027 0.370239
Si Si2 0.905409 0.118922 0.466850
Si Si3 0.581460 0.301853 0.260773
Si Si4 0.763352 0.448694 0.939196
Si Si5 0.917453 0.868155 0.595605
Si Si6 0.758689 0.304298 0.195674
O O1 0.548195 0.141899 0.489398
O O2 0.429873 0.179795 0.307226
O O3 0.332852 0.173129 0.337006
O O4 0.379806 0.834674 0.318320
O O5 0.793061 0.038714 0.351562
O O6 0.905677 0.009095 0.529704
O O7 0.000000 0.000000 0.500000
O O8 0.500000 0.210663 0.250000
O O9 0.712123 0.328418 0.378379
O O10 0.528725 0.536261 0.208776
O O11 0.680705 0.418159 0.931842
O O12 0.739997 0.296320 0.867030
O O13 0.886823 0.372969 0.054220
#
# Coordination Sequence:
#
# PCOD9261973 Si02
#       6
#     8   8   8   8   8   8
#     4  10  19  33  51  72  99 130 165 205 249 295
#     4   8  16  31  51  72  98 134 167 198 245 301
#     4   9  17  31  50  69  94 130 164 196 244 299
#     4   9  16  29  49  72  94 124 165 203 240 289
#     4   8  15  28  49  70  95 129 163 195 238 299
#     4  10  19  32  51  74  99 128 166 208 248 294
#
# _framework density 27.765156999999999
#
# number of rings (size 3 to 8) (size 9 to 14) (size 15 to 20)
#    0.000    3.000    0.000    1.000    0.000    0.000 
#    0.000    5.000    0.000   34.000    0.000    0.000 
#    0.000    0.000    0.000    0.000    0.000    0.000 
#
# Total GULP energy -134017.573381 kJ/mol
# GULP energy per Si atom -5584.065558 kJ/mol
# Density = 2.770196 g / cm^3
# Si number density = 27.765157 Si / 1000 Ang^3
#
#
#
# Elastic Constant Matrix: (Units=GPa)
#
#
# Indices 1 2 3 4 5 6 
#
# 1 163.9516 64.6561 52.7564 -0.0001 -20.4812 0.0000
# 2 64.6561 69.6996 26.2517 -0.0001 -6.6982 -0.0011
# 3 52.7564 26.2517 127.1790 0.0002 10.9153 0.0001
# 4 -0.0001 -0.0001 0.0002 69.2443 0.0001 -11.7703
# 5 -20.4812 -6.6982 10.9153 0.0001 43.4476 0.0000
# 6 0.0000 -0.0011 0.0001 -11.7703 0.0000 37.9924
#
#
#
# Elastic Compliance Matrix: (Units=1/GPa)
#
#
# Indices 1 2 3 4 5 6 
#
# 1 0.011154 -0.008670 -0.003244 0.000000 0.004736 0.000000
# 2 -0.008670 0.022766 -0.001076 0.000000 -0.000307 0.000001
# 3 -0.003244 -0.001076 0.009787 0.000000 -0.004154 0.000000
# 4 0.000000 0.000000 0.000000 0.015244 0.000000 0.004723
# 5 0.004736 -0.000307 -0.004154 0.000000 0.026245 0.000000
# 6 0.000000 0.000001 0.000000 0.004723 0.000000 0.027784
#
#
# Mechanical properties :
#
#
# Convention : Reuss Voigt Hill
#
# Bulk Modulus (GPa) = 56.41201 72.01763 64.21482
# Shear Modulus (GPa) = 34.51378 44.61458 39.56418
#
# Velocity S-wave (km/s) = 3.52953 4.01291 3.77896
# Velocity P-wave (km/s) = 6.08044 6.88953 6.49759
#
# Compressibility (1/GPa) = 0.01772672
#
# Stress axis : x y z
#
# Youngs Moduli (GPa) = 89.65512 43.92559 102.17423
#
# Poissons Ratio (x) = 0.38083 0.33143
# Poissons Ratio (y) = 0.77730 0.10998
# Poissons Ratio (z) = 0.29082 0.04728
#
# Static dielectric constant tensor:
#      x y z
#    x 2.179200 0.000000 0.059820 
#    y 0.000000 2.183920 0.000000 
#    z 0.059820 0.000000 2.153990 
# 
# From -- ./inp_files/251686.got.cif
#   From: 2010.05.17/outbox.cif.g08.bks.cpg/sg15_126_cif.got.tgz:251686.got - 2010.06.03 18:47:42.
