data_PCOD9261018
_publ_section_title
;
Structure prediction by ZEFSAII (Michael W. Deem and Ramdas Pophale) SiO2 
 PCOD9261018
Probable space group: C 2/C
;
_chemical_formula_sum "Si O2"
_cell_formula_units_Z 40
_cell_length_a 24.566163
_cell_length_b 9.264887
_cell_length_c 14.064551
_cell_angle_alpha 90.000000
_cell_angle_beta 31.552842
_cell_angle_gamma 90.000000
_cell_volume 1675.102429
_symmetry_space_group_name_H-M "C 2/C"
_symmetry_group_IT_number 15
_symmetry_cell_setting 'monoclinic'
loop_
_space_group_symop_operation_xyz
x,y,z
-x,y,1/2-z
-x,-y,-z
x,-y,1/2+z
1/2+x,1/2+y,z
1/2-x,1/2+y,1/2-z
1/2-x,1/2-y,-z
1/2+x,1/2-y,1/2+z
loop_
_atom_site_type_symbol
_atom_site_label
_atom_site_fract_x
_atom_site_fract_y
_atom_site_fract_z
Si Si1 0.550565 0.348060 0.900622
Si Si2 0.383873 0.737731 0.390008
Si Si3 0.098944 0.392656 0.857180
Si Si4 0.200573 0.347201 0.299795
Si Si5 0.882579 0.584172 0.385109
O O1 0.626764 0.340983 0.696239
O O2 0.612847 0.265795 0.892100
O O3 0.500000 0.500000 0.000000
O O4 0.451540 0.247821 0.023757
O O5 0.500000 0.702599 0.250000
O O6 0.301419 0.690268 0.590166
O O7 0.375269 0.910367 0.389872
O O8 0.175568 0.486932 0.806426
O O9 0.132808 0.362733 0.699125
O O10 0.000000 0.500000 0.000000
O O11 0.196116 0.350405 0.420278
O O12 0.000000 0.614372 0.250000
#
# Coordination Sequence:
#
# PCOD9261018 Si02
#       5
#     8   8   8   8   8
#     4  11  23  43  69 101 141 173 221 295 354 404
#     4  11  24  44  67  98 135 179 234 288 334 404
#     4  10  18  39  70  98 129 184 226 260 345 420
#     4  11  23  43  72  98 135 188 227 274 351 417
#     4  11  19  39  72  97 130 181 230 271 328 430
#
# _framework density 23.879135999999999
#
# number of rings (size 3 to 8) (size 9 to 14) (size 15 to 20)
#    0.000    1.200    8.000    1.800    0.000    1.600 
#    7.200    1.000    0.000    0.000    0.000    0.000 
#    0.000    0.000    0.000    0.000    0.000    0.000 
#
# Total GULP energy -111933.085601 kJ/mol
# GULP energy per Si atom -5596.654280 kJ/mol
# Density = 2.382479 g / cm^3
# Si number density = 23.879136 Si / 1000 Ang^3
#
#
#
# Elastic Constant Matrix: (Units=GPa)
#
#
# Indices 1 2 3 4 5 6 
#
# 1 79.4655 16.6153 44.3161 0.0000 31.7023 0.0000
# 2 16.6153 107.5460 44.8093 0.0001 -2.9311 -0.0002
# 3 44.3161 44.8093 187.1512 0.0000 39.1813 -0.0001
# 4 0.0000 0.0001 0.0000 37.3653 0.0000 8.3000
# 5 31.7023 -2.9311 39.1813 0.0000 53.6716 0.0000
# 6 0.0000 -0.0002 -0.0001 8.3000 0.0000 14.7743
#
#
#
# Elastic Compliance Matrix: (Units=1/GPa)
#
#
# Indices 1 2 3 4 5 6 
#
# 1 0.017746 -0.002293 -0.001691 0.000000 -0.009373 0.000000
# 2 -0.002293 0.010993 -0.002949 0.000000 0.004107 0.000000
# 3 -0.001691 -0.002949 0.007406 0.000000 -0.004569 0.000000
# 4 0.000000 0.000000 0.000000 0.030579 0.000000 -0.017179
# 5 -0.009373 0.004107 -0.004569 0.000000 0.027728 0.000000
# 6 0.000000 0.000000 0.000000 -0.017179 0.000000 0.077336
#
#
# Mechanical properties :
#
#
# Convention : Reuss Voigt Hill
#
# Bulk Modulus (GPa) = 44.88337 65.07157 54.97747
# Shear Modulus (GPa) = 25.89614 39.05705 32.47660
#
# Velocity S-wave (km/s) = 3.29670 4.04866 3.69187
# Velocity P-wave (km/s) = 5.77302 7.01178 6.42234
#
# Compressibility (1/GPa) = 0.02227997
#
# Stress axis : x y z
#
# Youngs Moduli (GPa) = 56.35212 90.96498 135.01941
#
# Poissons Ratio (x) = 0.20854 0.22831
# Poissons Ratio (y) = 0.12919 0.39819
# Poissons Ratio (z) = 0.09529 0.26827
#
# Static dielectric constant tensor:
#      x y z
#    x 1.968480 0.000000 -0.048840 
#    y 0.000000 1.592300 0.000000 
#    z -0.048840 0.000000 1.872410 
# 
# From -- ./inp_files/181004.got.cif
#   From: 2010.05.17/outbox.cif.g08.bks.cpg/sg15_91_cif.got.tgz:181004.got - 2010.06.03 18:47:42.
