data_PCOD9261788
_publ_section_title
;
Structure prediction by ZEFSAII (Michael W. Deem and Ramdas Pophale) SiO2 
 PCOD9261788
Probable space group: C 2/C
;
_chemical_formula_sum "Si O2"
_cell_formula_units_Z 56
_cell_length_a 20.061975
_cell_length_b 4.972737
_cell_length_c 24.098779
_cell_angle_alpha 90.000000
_cell_angle_beta 114.263047
_cell_angle_gamma 90.000000
_cell_volume 2191.801203
_symmetry_space_group_name_H-M "C 2/C"
_symmetry_group_IT_number 15
_symmetry_cell_setting 'monoclinic'
loop_
_space_group_symop_operation_xyz
x,y,z
-x,y,1/2-z
-x,-y,-z
x,-y,1/2+z
1/2+x,1/2+y,z
1/2-x,1/2+y,1/2-z
1/2-x,1/2-y,-z
1/2+x,1/2-y,1/2+z
loop_
_atom_site_type_symbol
_atom_site_label
_atom_site_fract_x
_atom_site_fract_y
_atom_site_fract_z
Si Si1 0.267382 0.279286 0.155028
Si Si2 0.035538 0.840040 0.708149
Si Si3 0.445635 0.935982 0.920837
Si Si4 0.540844 0.584879 0.429153
Si Si5 0.198997 0.771765 0.091648
Si Si6 0.622589 0.141986 0.219223
Si Si7 0.699412 0.453108 0.448332
O O1 0.239157 0.582607 0.151423
O O2 0.302022 0.160183 0.222021
O O3 0.319670 0.305776 0.117906
O O4 0.204074 0.078083 0.112105
O O5 0.072450 0.560609 0.737674
O O6 0.000000 0.964986 0.750000
O O7 0.976842 0.813496 0.639391
O O8 0.095730 0.051336 0.708162
O O9 0.397128 0.975121 0.847983
O O10 0.492894 0.201528 0.948357
O O11 0.382831 0.837818 0.941227
O O12 0.502432 0.700158 0.926342
O O13 0.627638 0.537061 0.457548
O O14 0.250049 0.696619 0.057166
O O15 0.750000 0.250000 0.500000
#
# Coordination Sequence:
#
# PCOD9261788 Si02
#       7
#     8   8   8   8   8   8   8
#     4  10  22  37  64  90 126 161 213 253 311 369
#     4  10  19  31  53  84 126 159 201 247 308 364
#     4  10  22  41  61  94 129 164 201 253 314 381
#     4  10  22  38  64  89 124 162 210 257 309 375
#     4  10  23  41  64  87 132 160 208 258 312 376
#     4  10  20  33  55  91 121 164 200 247 303 377
#     4  10  25  45  68  92 124 166 216 271 316 362
#
# _framework density 25.549765000000001
#
# number of rings (size 3 to 8) (size 9 to 14) (size 15 to 20)
#    0.857    1.143    0.000    3.000    4.000    2.857 
#    0.000    1.429    0.000    0.000    0.000    0.000 
#    0.000    0.000    0.000    0.000    0.000    0.000 
#
# Total GULP energy -156373.512882 kJ/mol
# GULP energy per Si atom -5584.768317 kJ/mol
# Density = 2.549161 g / cm^3
# Si number density = 25.549765 Si / 1000 Ang^3
#
#
#
# Elastic Constant Matrix: (Units=GPa)
#
#
# Indices 1 2 3 4 5 6 
#
# 1 105.7804 -3.8103 32.1328 0.0036 8.1752 -0.0045
# 2 -3.8103 89.0854 0.2680 0.0022 4.4832 -0.0056
# 3 32.1328 0.2680 98.9617 -0.0012 8.5392 0.0007
# 4 0.0036 0.0022 -0.0012 24.7621 -0.0009 0.8023
# 5 8.1752 4.4832 8.5392 -0.0009 27.8731 0.0009
# 6 -0.0045 -0.0056 0.0007 0.8023 0.0009 34.2979
#
#
#
# Elastic Compliance Matrix: (Units=1/GPa)
#
#
# Indices 1 2 3 4 5 6 
#
# 1 0.010637 0.000576 -0.003264 -0.000002 -0.002212 0.000002
# 2 0.000576 0.011350 -0.000047 -0.000001 -0.001980 0.000002
# 3 -0.003264 -0.000047 0.011383 0.000001 -0.002522 -0.000001
# 4 -0.000002 -0.000001 0.000001 0.040415 0.000002 -0.000945
# 5 -0.002212 -0.001980 -0.002522 0.000002 0.037617 -0.000002
# 6 0.000002 0.000002 -0.000001 -0.000945 -0.000002 0.029178
#
#
# Mechanical properties :
#
#
# Convention : Reuss Voigt Hill
#
# Bulk Modulus (GPa) = 35.84405 39.00092 37.42249
# Shear Modulus (GPa) = 32.18546 35.06908 33.62727
#
# Velocity S-wave (km/s) = 3.55310 3.70885 3.63181
# Velocity P-wave (km/s) = 5.55808 5.79988 5.68027
#
# Compressibility (1/GPa) = 0.02789863
#
# Stress axis : x y z
#
# Youngs Moduli (GPa) = 94.01213 88.10867 87.85307
#
# Poissons Ratio (x) = -0.05076 0.28679
# Poissons Ratio (y) = -0.05416 0.00412
# Poissons Ratio (z) = 0.30690 0.00414
#
# Static dielectric constant tensor:
#      x y z
#    x 2.080220 0.000000 -0.105310 
#    y 0.000000 1.971570 0.000000 
#    z -0.105310 0.000000 2.134060 
# 
# From -- ./inp_files/301623.got.cif
#   From: 2010.05.17/outbox.cif.g08.bks.cpg/sg15_151_cif.got.tgz:301623.got - 2010.06.03 18:47:42.
