data_PCOD9261561
_publ_section_title
;
Structure prediction by ZEFSAII (Michael W. Deem and Ramdas Pophale) SiO2 
 PCOD9261561
Probable space group: C 2/C
;
_chemical_formula_sum "Si O2"
_cell_formula_units_Z 56
_cell_length_a 31.294289
_cell_length_b 15.773525
_cell_length_c 9.737146
_cell_angle_alpha 90.000000
_cell_angle_beta 39.760762
_cell_angle_gamma 90.000000
_cell_volume 3074.133442
_symmetry_space_group_name_H-M "C 2/C"
_symmetry_group_IT_number 15
_symmetry_cell_setting 'monoclinic'
loop_
_space_group_symop_operation_xyz
x,y,z
-x,y,1/2-z
-x,-y,-z
x,-y,1/2+z
1/2+x,1/2+y,z
1/2-x,1/2+y,1/2-z
1/2-x,1/2-y,-z
1/2+x,1/2-y,1/2+z
loop_
_atom_site_type_symbol
_atom_site_label
_atom_site_fract_x
_atom_site_fract_y
_atom_site_fract_z
Si Si1 0.578607 0.917328 0.578396
Si Si2 0.682244 0.696534 0.526217
Si Si3 0.420570 0.719070 0.951278
Si Si4 0.713795 0.851677 0.940875
Si Si5 0.180358 0.840058 0.581530
Si Si6 0.645818 0.988534 0.670593
Si Si7 0.767296 0.870065 0.328965
O O1 0.500000 0.927657 0.750000
O O2 0.595211 0.820202 0.493253
O O3 0.599705 0.932995 0.683915
O O4 0.615884 0.985826 0.390904
O O5 0.614871 0.696146 0.605175
O O6 0.735684 0.641034 0.309976
O O7 0.715405 0.790580 0.441235
O O8 0.681507 0.660947 0.681081
O O9 0.500000 0.708772 0.750000
O O10 0.384788 0.664380 0.160003
O O11 0.757842 0.860514 0.970369
O O12 0.656921 0.920456 0.072768
O O13 0.686807 0.756660 0.013316
O O14 0.193837 0.890897 0.408076
O O15 0.718606 0.945372 0.495546
#
# Coordination Sequence:
#
# PCOD9261561 Si02
#       7
#     8   8   8   8   8   8   8
#     4  11  23  35  48  72 113 151 181 204 239 308
#     4   9  18  34  48  75 104 135 168 228 263 303
#     4  10  19  36  56  72  99 149 188 206 242 317
#     4   9  17  29  53  73 103 132 175 210 268 298
#     4   9  17  34  52  76  98 138 174 227 251 310
#     4  12  20  34  53  81 104 147 172 215 259 323
#     4  10  19  30  53  77 107 129 171 223 286 291
#
# _framework density 18.216515999999999
#
# number of rings (size 3 to 8) (size 9 to 14) (size 15 to 20)
#    0.000    2.000    2.857    3.000    0.000    0.000 
#    0.000    0.714    0.000    0.000    0.000   16.000 
#    0.000    0.000    0.000    0.000    0.000    0.000 
#
# Total GULP energy -155989.264857 kJ/mol
# GULP energy per Si atom -5571.045173 kJ/mol
# Density = 1.817505 g / cm^3
# Si number density = 18.216516 Si / 1000 Ang^3
#
#
#
# Elastic Constant Matrix: (Units=GPa)
#
#
# Indices 1 2 3 4 5 6 
#
# 1 69.7226 -3.6007 27.7285 0.0000 -4.6028 0.0000
# 2 -3.6007 20.4956 1.9158 0.0000 -2.4602 0.0000
# 3 27.7285 1.9158 66.0536 0.0000 1.9790 0.0000
# 4 0.0000 0.0000 0.0000 24.6645 0.0000 -7.2996
# 5 -4.6028 -2.4602 1.9790 0.0000 24.0236 0.0000
# 6 0.0000 0.0000 0.0000 -7.2996 0.0000 10.4741
#
#
#
# Elastic Compliance Matrix: (Units=1/GPa)
#
#
# Indices 1 2 3 4 5 6 
#
# 1 0.017978 0.004434 -0.007812 0.000000 0.004542 0.000000
# 2 0.004434 0.050659 -0.003520 0.000000 0.006327 0.000000
# 3 -0.007812 -0.003520 0.018622 0.000000 -0.003391 0.000000
# 4 0.000000 0.000000 0.000000 0.051080 0.000000 0.035598
# 5 0.004542 0.006327 -0.003391 0.000000 0.043423 0.000000
# 6 0.000000 0.000000 0.000000 0.035598 0.000000 0.120282
#
#
# Mechanical properties :
#
#
# Convention : Reuss Voigt Hill
#
# Bulk Modulus (GPa) = 13.61233 23.15100 18.38166
# Shear Modulus (GPa) = 14.69173 20.51432 17.60302
#
# Velocity S-wave (km/s) = 2.84299 3.35944 3.11194
# Velocity P-wave (km/s) = 4.27382 5.27107 4.79842
#
# Compressibility (1/GPa) = 0.07346281
#
# Stress axis : x y z
#
# Youngs Moduli (GPa) = 55.62346 19.74002 53.69951
#
# Poissons Ratio (x) = -0.08752 0.41948
# Poissons Ratio (y) = -0.24663 0.18903
# Poissons Ratio (z) = 0.43451 0.06949
#
# Static dielectric constant tensor:
#      x y z
#    x 1.620530 0.000000 0.036360 
#    y 0.000000 1.654600 0.000000 
#    z 0.036360 0.000000 1.645090 
# 
# From -- ./inp_files/56471.got.cif
#   From: 2010.05.17/outbox.cif.g08.bks.cpg/sg15_29_cif.got.tgz:56471.got - 2010.06.03 18:47:42.
