data_PCOD9261195
_publ_section_title
;
Structure prediction by ZEFSAII (Michael W. Deem and Ramdas Pophale) SiO2 
 PCOD9261195
Probable space group: C 2/C
;
_chemical_formula_sum "Si O2"
_cell_formula_units_Z 64
_cell_length_a 22.368112
_cell_length_b 21.973856
_cell_length_c 18.321646
_cell_angle_alpha 90.000000
_cell_angle_beta 158.469010
_cell_angle_gamma 90.000000
_cell_volume 3304.999357
_symmetry_space_group_name_H-M "C 2/C"
_symmetry_group_IT_number 15
_symmetry_cell_setting 'monoclinic'
loop_
_space_group_symop_operation_xyz
x,y,z
-x,y,1/2-z
-x,-y,-z
x,-y,1/2+z
1/2+x,1/2+y,z
1/2-x,1/2+y,1/2-z
1/2-x,1/2-y,-z
1/2+x,1/2-y,1/2+z
loop_
_atom_site_type_symbol
_atom_site_label
_atom_site_fract_x
_atom_site_fract_y
_atom_site_fract_z
Si Si1 0.671452 0.467473 0.468913
Si Si2 0.727874 0.046567 0.796157
Si Si3 0.121436 0.517405 0.033823
Si Si4 0.400711 0.765833 0.974336
Si Si5 0.695490 0.072819 0.981609
Si Si6 0.698118 0.699354 0.382614
Si Si7 0.510763 0.106700 0.176286
Si Si8 0.860407 0.327494 0.367022
O O1 0.500000 0.441274 0.250000
O O2 0.645976 0.513905 0.507608
O O3 0.744245 0.513454 0.491618
O O4 0.805280 0.415134 0.634211
O O5 0.554931 0.043089 0.643079
O O6 0.737653 0.114455 0.776987
O O7 0.709410 0.002298 0.706614
O O8 0.220161 0.562407 0.095507
O O9 0.088304 0.456041 0.949896
O O10 0.321167 0.798892 0.953559
O O11 0.262698 0.729249 0.773171
O O12 0.525909 0.717953 0.153037
O O13 0.500139 0.809506 0.033095
O O14 0.786761 0.133899 0.062493
O O15 0.500000 0.079333 0.750000
O O16 0.750000 0.750000 0.500000
O O17 0.500000 0.123982 0.250000
O O18 0.439000 0.152981 0.034009
#
# Coordination Sequence:
#
# PCOD9261195 Si02
#       8
#     8   8   8   8   8   8   8   8
#     4  11  23  34  54  90 128 149 194 243 302 365
#     4   9  18  32  57  81 110 155 191 232 293 355
#     4   9  16  33  56  84 108 146 201 231 286 360
#     4  10  23  42  54  86 118 154 215 250 292 342
#     4  12  20  34  57  81 119 157 197 239 292 349
#     4  11  24  36  57  83 121 168 205 244 287 351
#     4  10  18  41  64  87 111 158 195 247 312 373
#     4  10  22  39  66  81 118 157 202 255 304 350
#
# _framework density 19.364602999999999
#
# number of rings (size 3 to 8) (size 9 to 14) (size 15 to 20)
#    0.000    1.750    3.750    2.625    5.250    0.000 
#    0.000    5.000    0.000    0.000    0.000    0.000 
#    0.000    0.000    0.000    0.000    0.000    0.000 
#
# Total GULP energy -178496.670743 kJ/mol
# GULP energy per Si atom -5578.020961 kJ/mol
# Density = 1.932053 g / cm^3
# Si number density = 19.364603 Si / 1000 Ang^3
#
#
#
# Elastic Constant Matrix: (Units=GPa)
#
#
# Indices 1 2 3 4 5 6 
#
# 1 55.6646 6.3793 26.8143 0.0000 -21.7433 0.0000
# 2 6.3793 35.9577 17.8565 0.0000 0.8440 0.0000
# 3 26.8143 17.8565 85.1006 0.0000 -9.3579 0.0000
# 4 0.0000 0.0000 0.0000 23.0167 0.0000 -8.4755
# 5 -21.7433 0.8440 -9.3579 0.0000 20.3497 0.0000
# 6 0.0000 0.0000 0.0000 -8.4755 0.0000 21.5149
#
#
#
# Elastic Compliance Matrix: (Units=1/GPa)
#
#
# Indices 1 2 3 4 5 6 
#
# 1 0.035025 -0.003837 -0.006423 0.000000 0.034629 0.000000
# 2 -0.003837 0.031864 -0.006397 0.000000 -0.008363 0.000000
# 3 -0.006423 -0.006397 0.015158 0.000000 0.000373 0.000000
# 4 0.000000 0.000000 0.000000 0.050819 0.000000 0.020019
# 5 0.034629 -0.008363 0.000373 0.000000 0.086660 0.000000
# 6 0.000000 0.000000 0.000000 0.020019 0.000000 0.054366
#
#
# Mechanical properties :
#
#
# Convention : Reuss Voigt Hill
#
# Bulk Modulus (GPa) = 20.51967 30.98036 25.75002
# Shear Modulus (GPa) = 15.45838 21.35443 18.40640
#
# Velocity S-wave (km/s) = 2.82845 3.32438 3.08639
# Velocity P-wave (km/s) = 4.61371 5.54694 5.10171
#
# Compressibility (1/GPa) = 0.04873372
#
# Stress axis : x y z
#
# Youngs Moduli (GPa) = 28.55090 31.38332 65.97262
#
# Poissons Ratio (x) = 0.12042 0.42374
# Poissons Ratio (y) = 0.10955 0.42200
# Poissons Ratio (z) = 0.18338 0.20075
#
# Static dielectric constant tensor:
#      x y z
#    x 1.699920 0.000000 -0.007700 
#    y 0.000000 1.655890 0.000000 
#    z -0.007700 0.000000 1.700080 
# 
# From -- ./inp_files/220426.got.cif
#   From: 2010.05.17/outbox.cif.g08.bks.cpg/sg15_111_cif.got.tgz:220426.got - 2010.06.03 18:47:42.
