data_PCOD9261722
_publ_section_title
;
Structure prediction by ZEFSAII (Michael W. Deem and Ramdas Pophale) SiO2 
 PCOD9261722
Probable space group: C 2/C
;
_chemical_formula_sum "Si O2"
_cell_formula_units_Z 56
_cell_length_a 21.940612
_cell_length_b 13.076079
_cell_length_c 24.489314
_cell_angle_alpha 90.000000
_cell_angle_beta 160.924806
_cell_angle_gamma 90.000000
_cell_volume 2296.130550
_symmetry_space_group_name_H-M "C 2/C"
_symmetry_group_IT_number 15
_symmetry_cell_setting 'monoclinic'
loop_
_space_group_symop_operation_xyz
x,y,z
-x,y,1/2-z
-x,-y,-z
x,-y,1/2+z
1/2+x,1/2+y,z
1/2-x,1/2+y,1/2-z
1/2-x,1/2-y,-z
1/2+x,1/2-y,1/2+z
loop_
_atom_site_type_symbol
_atom_site_label
_atom_site_fract_x
_atom_site_fract_y
_atom_site_fract_z
Si Si1 0.297523 0.358314 0.107556
Si Si2 0.922526 0.893323 0.862578
Si Si3 0.278943 0.570108 0.966807
Si Si4 0.916614 0.842901 0.065072
Si Si5 0.033056 0.391620 0.496508
Si Si6 0.380691 0.366303 0.362341
Si Si7 0.408119 0.067914 0.581973
O O1 0.500000 0.371905 0.250000
O O2 0.375338 0.355776 0.234878
O O3 0.197335 0.252745 0.009802
O O4 0.153128 0.448820 0.974893
O O5 0.715805 0.850184 0.681426
O O6 0.899023 0.013125 0.859666
O O7 0.060226 0.854141 0.025364
O O8 0.032563 0.884725 0.898703
O O9 0.236415 0.604291 0.992797
O O10 0.105203 0.587685 0.778861
O O11 0.308481 0.447000 0.987141
O O12 0.955961 0.818885 0.035588
O O13 0.083513 0.398338 0.474177
O O14 0.000000 0.500000 0.500000
O O15 0.832697 0.339390 0.328800
#
# Coordination Sequence:
#
# PCOD9261722 Si02
#       7
#     8   8   8   8   8   8   8
#     4  12  23  36  47  70 100 144 194 232 256 306
#     4   9  17  31  51  71  96 123 169 215 268 316
#     4  10  20  33  50  73 100 142 171 222 267 309
#     4  11  23  36  50  66 101 139 185 231 262 298
#     4  10  19  31  51  75  94 133 173 216 269 326
#     4   9  18  35  48  71  96 127 175 221 266 319
#     4  11  21  32  51  72 107 138 179 218 269 314
#
# _framework density 24.388857000000002
#
# number of rings (size 3 to 8) (size 9 to 14) (size 15 to 20)
#    0.000    1.714    2.857    3.857    4.000    0.000 
#    2.571    0.000    0.000    0.000    0.000    0.000 
#    0.000    0.000    0.000   11.571    0.286    0.714 
#
# Total GULP energy -156329.118352 kJ/mol
# GULP energy per Si atom -5583.182798 kJ/mol
# Density = 2.433335 g / cm^3
# Si number density = 24.388857 Si / 1000 Ang^3
#
#
#
# Elastic Constant Matrix: (Units=GPa)
#
#
# Indices 1 2 3 4 5 6 
#
# 1 133.8193 7.9870 13.7904 0.0000 -2.5974 -0.0017
# 2 7.9870 32.4040 20.3389 0.0074 6.4852 0.0018
# 3 13.7904 20.3389 113.4063 0.0199 3.5231 0.0048
# 4 0.0000 0.0074 0.0199 30.6059 0.0050 -7.5601
# 5 -2.5974 6.4852 3.5231 0.0050 37.6454 -0.0003
# 6 -0.0017 0.0018 0.0048 -7.5601 -0.0003 8.7347
#
#
#
# Elastic Compliance Matrix: (Units=1/GPa)
#
#
# Indices 1 2 3 4 5 6 
#
# 1 0.007656 -0.001646 -0.000663 0.000002 0.000874 0.000004
# 2 -0.001646 0.036269 -0.006125 -0.000006 -0.005788 -0.000010
# 3 -0.000663 -0.006125 0.009995 -0.000008 0.000074 -0.000011
# 4 0.000002 -0.000006 -0.000008 0.041559 -0.000003 0.035970
# 5 0.000874 -0.005788 0.000074 -0.000003 0.027614 -0.000001
# 6 0.000004 -0.000010 -0.000011 0.035970 -0.000001 0.145620
#
#
# Mechanical properties :
#
#
# Convention : Reuss Voigt Hill
#
# Bulk Modulus (GPa) = 26.98867 40.42912 33.70890
# Shear Modulus (GPa) = 16.78246 31.23143 24.00694
#
# Velocity S-wave (km/s) = 2.62605 3.58238 3.14082
# Velocity P-wave (km/s) = 4.50387 5.80724 5.19658
#
# Compressibility (1/GPa) = 0.03705259
#
# Stress axis : x y z
#
# Youngs Moduli (GPa) = 130.61169 27.57192 100.05391
#
# Poissons Ratio (x) = 0.04538 0.06633
# Poissons Ratio (y) = 0.21497 0.61280
# Poissons Ratio (z) = 0.08659 0.16887
#
# Static dielectric constant tensor:
#      x y z
#    x 2.106610 -0.000010 -0.065410 
#    y -0.000010 1.981540 -0.000010 
#    z -0.065410 -0.000010 1.874990 
# 
# From -- ./inp_files/280442.got.cif
#   From: 2010.05.17/outbox.cif.g08.bks.cpg/sg15_141_cif.got.tgz:280442.got - 2010.06.03 18:47:42.
