data_PCOD9261142
_publ_section_title
;
Structure prediction by ZEFSAII (Michael W. Deem and Ramdas Pophale) SiO2 
 PCOD9261142
Probable space group: C 2/C
;
_chemical_formula_sum "Si O2"
_cell_formula_units_Z 48
_cell_length_a 13.879300
_cell_length_b 28.800582
_cell_length_c 9.017316
_cell_angle_alpha 90.000000
_cell_angle_beta 44.864253
_cell_angle_gamma 90.000000
_cell_volume 2542.726987
_symmetry_space_group_name_H-M "C 2/C"
_symmetry_group_IT_number 15
_symmetry_cell_setting 'monoclinic'
loop_
_space_group_symop_operation_xyz
x,y,z
-x,y,1/2-z
-x,-y,-z
x,-y,1/2+z
1/2+x,1/2+y,z
1/2-x,1/2+y,1/2-z
1/2-x,1/2-y,-z
1/2+x,1/2-y,1/2+z
loop_
_atom_site_type_symbol
_atom_site_label
_atom_site_fract_x
_atom_site_fract_y
_atom_site_fract_z
Si Si1 0.357321 0.548555 0.314485
Si Si2 0.619291 0.196147 0.729823
Si Si3 0.027436 0.116834 0.545439
Si Si4 0.109094 0.199759 0.261644
Si Si5 0.241134 0.608030 0.703855
Si Si6 0.394498 0.979361 0.994962
O O1 0.500000 0.534831 0.250000
O O2 0.286496 0.588296 0.493182
O O3 0.236668 0.510992 0.414170
O O4 0.403195 0.572009 0.109065
O O5 0.500000 0.183227 0.750000
O O6 0.750173 0.199383 0.480497
O O7 0.588087 0.246610 0.832696
O O8 0.648083 0.153328 0.803997
O O9 0.879613 0.120613 0.633851
O O10 0.000000 0.113122 0.750000
O O11 0.103359 0.162897 0.400847
O O12 0.000000 0.188575 0.250000
O O13 0.170287 0.566084 0.864311
O O14 0.500000 0.968512 0.750000
O O15 0.500000 0.000000 0.000000
#
# Coordination Sequence:
#
# PCOD9261142 Si02
#       6
#     8   8   8   8   8   8
#     4  10  23  45  68  89 124 176 224 258 307 387
#     4  10  21  35  70  95 121 164 217 255 307 383
#     4  11  23  39  67  96 130 163 216 267 317 368
#     4  10  18  40  66  95 123 164 216 258 305 380
#     4  11  23  43  65  92 128 172 213 261 309 387
#     4  12  27  44  65  95 133 168 210 271 329 378
#
# _framework density 18.877369999999999
#
# number of rings (size 3 to 8) (size 9 to 14) (size 15 to 20)
#    0.000    1.333    5.000    0.500    4.667    3.333 
#    0.000    1.667    0.000    0.000    0.000    0.000 
#    0.000    0.000    0.000    0.000    0.000    0.000 
#
# Total GULP energy -133771.527437 kJ/mol
# GULP energy per Si atom -5573.813643 kJ/mol
# Density = 1.883440 g / cm^3
# Si number density = 18.877370 Si / 1000 Ang^3
#
#
#
# Elastic Constant Matrix: (Units=GPa)
#
#
# Indices 1 2 3 4 5 6 
#
# 1 63.1797 32.7512 32.7309 0.0000 -8.9808 0.0000
# 2 32.7512 92.9260 30.5804 0.0000 7.6299 0.0000
# 3 32.7309 30.5804 97.7837 0.0000 12.0578 0.0000
# 4 0.0000 0.0000 0.0000 33.9662 0.0000 -1.9617
# 5 -8.9808 7.6299 12.0578 0.0000 37.7280 0.0000
# 6 0.0000 0.0000 0.0000 -1.9617 0.0000 22.6185
#
#
#
# Elastic Compliance Matrix: (Units=1/GPa)
#
#
# Indices 1 2 3 4 5 6 
#
# 1 0.024593 -0.007086 -0.007198 0.000000 0.009588 0.000000
# 2 -0.007086 0.014097 -0.001538 0.000000 -0.004046 0.000000
# 3 -0.007198 -0.001538 0.013835 0.000000 -0.005824 0.000000
# 4 0.000000 0.000000 0.000000 0.029589 0.000000 0.002566
# 5 0.009588 -0.004046 -0.005824 0.000000 0.031467 0.000000
# 6 0.000000 0.000000 0.000000 0.002566 0.000000 0.044434
#
#
# Mechanical properties :
#
#
# Convention : Reuss Voigt Hill
#
# Bulk Modulus (GPa) = 47.89006 49.55715 48.72360
# Shear Modulus (GPa) = 25.42967 29.38433 27.40700
#
# Velocity S-wave (km/s) = 3.67427 3.94965 3.81444
# Velocity P-wave (km/s) = 6.58972 6.86358 6.72804
#
# Compressibility (1/GPa) = 0.02088116
#
# Stress axis : x y z
#
# Youngs Moduli (GPa) = 40.66172 70.93715 72.27948
#
# Poissons Ratio (x) = 0.50267 0.52028
# Poissons Ratio (y) = 0.28813 0.11115
# Poissons Ratio (z) = 0.29269 0.10908
#
# Static dielectric constant tensor:
#      x y z
#    x 1.674580 0.000000 0.022800 
#    y 0.000000 1.694700 0.000000 
#    z 0.022800 0.000000 1.651320 
# 
# From -- ./inp_files/43846.got.cif
#   From: 2010.05.17/outbox.cif.g08.bks.cpg/sg15_22_cif.got.tgz:43846.got - 2010.06.03 18:47:42.
