data_PCOD9261526
_publ_section_title
;
Structure prediction by ZEFSAII (Michael W. Deem and Ramdas Pophale) SiO2 
 PCOD9261526
Probable space group: C 2/C
;
_chemical_formula_sum "Si O2"
_cell_formula_units_Z 60
_cell_length_a 15.647141
_cell_length_b 10.155882
_cell_length_c 17.686562
_cell_angle_alpha 90.000000
_cell_angle_beta 102.922109
_cell_angle_gamma 90.000000
_cell_volume 2739.402696
_symmetry_space_group_name_H-M "C 2/C"
_symmetry_group_IT_number 15
_symmetry_cell_setting 'monoclinic'
loop_
_space_group_symop_operation_xyz
x,y,z
-x,y,1/2-z
-x,-y,-z
x,-y,1/2+z
1/2+x,1/2+y,z
1/2-x,1/2+y,1/2-z
1/2-x,1/2-y,-z
1/2+x,1/2-y,1/2+z
loop_
_atom_site_type_symbol
_atom_site_label
_atom_site_fract_x
_atom_site_fract_y
_atom_site_fract_z
Si Si1 0.948970 0.347821 0.314664
Si Si2 0.716698 0.963432 0.136516
Si Si3 0.829146 0.091482 0.268246
Si Si4 0.828614 0.306957 0.674532
Si Si5 0.002413 0.200540 0.463681
Si Si6 0.500000 0.722787 0.750000
Si Si7 0.662027 0.835496 0.988832
Si Si8 0.041749 0.921404 0.119429
O O1 0.871034 0.439798 0.331268
O O2 0.013083 0.305008 0.397339
O O3 0.000000 0.392570 0.250000
O O4 0.896369 0.212594 0.282862
O O5 0.779851 0.076508 0.179046
O O6 0.778877 0.833862 0.157272
O O7 0.684030 0.961589 0.044054
O O8 0.879452 0.964958 0.310427
O O9 0.750279 0.106604 0.311213
O O10 0.911180 0.300957 0.746327
O O11 0.863754 0.361290 0.601841
O O12 0.909418 0.247986 0.481090
O O13 0.058767 0.174502 0.551274
O O14 0.994629 0.057416 0.422794
O O15 0.521869 0.641396 0.830387
O O16 0.750000 0.750000 0.000000
#
# Coordination Sequence:
#
# PCOD9261526 Si02
#       8
#     8   8   8   8   8   4   8   8
#     4   9  19  34  52  76 105 142 177 216 264 324
#     4   9  18  33  54  74 108 141 172 223 269 315
#     4  10  20  34  51  79 109 138 178 221 267 316
#     4  10  20  34  52  81 111 138 179 224 269 322
#     4   9  18  30  48  78 112 132 173 225 269 313
#     4  12  20  32  58  80 108 142 182 226 268 316
#     4   9  16  31  50  76 110 142 171 218 278 320
#     4  10  19  30  50  80 108 138 170 224 270 312
#
# _framework density 21.902584999999998
#
# number of rings (size 3 to 8) (size 9 to 14) (size 15 to 20)
#    0.000    2.400    2.667    2.400    3.733    0.000 
#    6.000    0.000    0.000    3.200    0.000    0.000 
#    0.000    0.000    0.000    0.000    0.000    0.000 
#
# Total GULP energy -167061.447125 kJ/mol
# GULP energy per Si atom -5568.714904 kJ/mol
# Density = 2.185273 g / cm^3
# Si number density = 21.902585 Si / 1000 Ang^3
#
#
#
# Elastic Constant Matrix: (Units=GPa)
#
#
# Indices 1 2 3 4 5 6 
#
# 1 60.8072 -2.0858 3.8522 0.0000 -9.6373 0.0000
# 2 -2.0858 16.4271 3.8030 0.0000 0.0286 0.0000
# 3 3.8522 3.8030 88.8847 0.0000 -10.7719 0.0000
# 4 0.0000 0.0000 0.0000 8.2213 0.0000 -3.0910
# 5 -9.6373 0.0286 -10.7719 0.0000 30.8606 0.0000
# 6 0.0000 0.0000 0.0000 -3.0910 0.0000 12.5676
#
#
#
# Elastic Compliance Matrix: (Units=1/GPa)
#
#
# Indices 1 2 3 4 5 6 
#
# 1 0.017384 0.002244 -0.000200 0.000000 0.005357 0.000000
# 2 0.002244 0.061804 -0.002781 0.000000 -0.000327 0.000000
# 3 -0.000200 -0.002781 0.011873 0.000000 0.004084 0.000000
# 4 0.000000 0.000000 0.000000 0.134030 0.000000 0.032965
# 5 0.005357 -0.000327 0.004084 0.000000 0.035503 0.000000
# 6 0.000000 0.000000 0.000000 0.032965 0.000000 0.087677
#
#
# Mechanical properties :
#
#
# Convention : Reuss Voigt Hill
#
# Bulk Modulus (GPa) = 11.16228 19.69531 15.42880
# Shear Modulus (GPa) = 13.17147 21.03321 17.10234
#
# Velocity S-wave (km/s) = 2.45494 3.10224 2.79738
# Velocity P-wave (km/s) = 3.62533 4.67372 4.18250
#
# Compressibility (1/GPa) = 0.08958739
#
# Stress axis : x y z
#
# Youngs Moduli (GPa) = 57.52387 16.18005 84.22332
#
# Poissons Ratio (x) = -0.03631 0.01687
# Poissons Ratio (y) = -0.12910 0.23425
# Poissons Ratio (z) = 0.01152 0.04500
#
# Static dielectric constant tensor:
#      x y z
#    x 1.774060 0.000000 0.032370 
#    y 0.000000 1.864790 0.000000 
#    z 0.032370 0.000000 1.870860 
# 
# From -- ./inp_files/204048.got.cif
#   From: 2010.05.17/outbox.cif.g08.bks.cpg/sg15_103_cif.got.tgz:204048.got - 2010.06.03 18:47:42.
