data_PCOD9261089
_publ_section_title
;
Structure prediction by ZEFSAII (Michael W. Deem and Ramdas Pophale) SiO2 
 PCOD9261089
Probable space group: C 2/C
;
_chemical_formula_sum "Si O2"
_cell_formula_units_Z 44
_cell_length_a 12.858419
_cell_length_b 6.568930
_cell_length_c 28.013759
_cell_angle_alpha 90.000000
_cell_angle_beta 49.818362
_cell_angle_gamma 90.000000
_cell_volume 1807.792460
_symmetry_space_group_name_H-M "C 2/C"
_symmetry_group_IT_number 15
_symmetry_cell_setting 'monoclinic'
loop_
_space_group_symop_operation_xyz
x,y,z
-x,y,1/2-z
-x,-y,-z
x,-y,1/2+z
1/2+x,1/2+y,z
1/2-x,1/2+y,1/2-z
1/2-x,1/2-y,-z
1/2+x,1/2-y,1/2+z
loop_
_atom_site_type_symbol
_atom_site_label
_atom_site_fract_x
_atom_site_fract_y
_atom_site_fract_z
Si Si1 0.000000 0.662686 0.750000
Si Si2 0.767568 0.406892 0.676765
Si Si3 0.472236 0.169166 0.658175
Si Si4 0.517147 0.403084 0.102653
Si Si5 0.056982 0.734114 0.528673
Si Si6 0.218782 0.582840 0.929521
O O1 0.129599 0.791154 0.727838
O O2 0.960645 0.574284 0.813900
O O3 0.822824 0.569999 0.698095
O O4 0.740808 0.527771 0.636013
O O5 0.889077 0.242427 0.634705
O O6 0.479839 0.414597 0.651199
O O7 0.535224 0.121576 0.586604
O O8 0.553253 0.531377 0.044544
O O9 0.657784 0.309778 0.080242
O O10 0.926260 0.690438 0.534113
O O11 0.186340 0.631386 0.465879
#
# Coordination Sequence:
#
# PCOD9261089 Si02
#       6
#     4   8   8   8   8   8
#     4  12  24  42  64  82 120 162 200 256 308 342
#     4  11  24  41  62  89 119 158 204 248 302 360
#     4   9  23  41  57  90 120 150 205 249 289 367
#     4  10  21  39  62  89 120 157 199 241 299 355
#     4   8  19  37  64  90 127 157 196 244 298 362
#     4  10  18  40  63  91 129 157 190 255 297 350
#
# _framework density 24.339078000000001
#
# number of rings (size 3 to 8) (size 9 to 14) (size 15 to 20)
#    1.091    1.091    1.818    0.545    2.545    2.182 
#    0.000   10.000    0.000    0.000    0.000    0.000 
#    0.000    0.000    0.000    0.000    0.000    0.000 
#
# Total GULP energy -122632.733048 kJ/mol
# GULP energy per Si atom -5574.215139 kJ/mol
# Density = 2.428368 g / cm^3
# Si number density = 24.339078 Si / 1000 Ang^3
#
#
#
# Elastic Constant Matrix: (Units=GPa)
#
#
# Indices 1 2 3 4 5 6 
#
# 1 135.7085 41.8423 21.3402 0.0010 -7.0660 -0.0006
# 2 41.8423 53.0224 8.7884 0.0025 1.0212 -0.0003
# 3 21.3402 8.7884 36.7265 0.0010 12.2223 0.0000
# 4 0.0010 0.0025 0.0010 31.9889 0.0004 -0.4544
# 5 -7.0660 1.0212 12.2223 0.0004 46.4465 -0.0002
# 6 -0.0006 -0.0003 0.0000 -0.4544 -0.0002 22.5998
#
#
#
# Elastic Compliance Matrix: (Units=1/GPa)
#
#
# Indices 1 2 3 4 5 6 
#
# 1 0.010760 -0.007641 -0.005507 0.000000 0.003254 0.000000
# 2 -0.007641 0.025098 -0.001091 -0.000002 -0.001427 0.000000
# 3 -0.005507 -0.001091 0.033931 -0.000001 -0.009743 0.000000
# 4 0.000000 -0.000002 -0.000001 0.031270 0.000000 0.000629
# 5 0.003254 -0.001427 -0.009743 0.000000 0.024620 0.000000
# 6 0.000000 0.000000 0.000000 0.000629 0.000000 0.044261
#
#
# Mechanical properties :
#
#
# Convention : Reuss Voigt Hill
#
# Bulk Modulus (GPa) = 24.20594 41.04434 32.62514
# Shear Modulus (GPa) = 23.56393 30.43948 27.00171
#
# Velocity S-wave (km/s) = 3.11489 3.54028 3.33438
# Velocity P-wave (km/s) = 4.78577 5.79755 5.31579
#
# Compressibility (1/GPa) = 0.04131217
#
# Stress axis : x y z
#
# Youngs Moduli (GPa) = 92.93649 39.84348 29.47128
#
# Poissons Ratio (x) = 0.30445 0.16229
# Poissons Ratio (y) = 0.71014 0.03215
# Poissons Ratio (z) = 0.51177 0.04347
#
# Static dielectric constant tensor:
#      x y z
#    x 1.956120 0.000000 0.085940 
#    y 0.000000 1.989170 0.000000 
#    z 0.085940 0.000000 2.078820 
# 
# From -- ./inp_files/309857.got.cif
#   From: 2010.05.17/outbox.cif.g08.bks.cpg/sg15_155_cif.got.tgz:309857.got - 2010.06.03 18:47:42.
