data_PCOD9261373
_publ_section_title
;
Structure prediction by ZEFSAII (Michael W. Deem and Ramdas Pophale) SiO2 
 PCOD9261373
Probable space group: C 2/C
;
_chemical_formula_sum "Si O2"
_cell_formula_units_Z 56
_cell_length_a 14.847762
_cell_length_b 22.091360
_cell_length_c 7.228110
_cell_angle_alpha 90.000000
_cell_angle_beta 70.622019
_cell_angle_gamma 90.000000
_cell_volume 2236.563162
_symmetry_space_group_name_H-M "C 2/C"
_symmetry_group_IT_number 15
_symmetry_cell_setting 'monoclinic'
loop_
_space_group_symop_operation_xyz
x,y,z
-x,y,1/2-z
-x,-y,-z
x,-y,1/2+z
1/2+x,1/2+y,z
1/2-x,1/2+y,1/2-z
1/2-x,1/2-y,-z
1/2+x,1/2-y,1/2+z
loop_
_atom_site_type_symbol
_atom_site_label
_atom_site_fract_x
_atom_site_fract_y
_atom_site_fract_z
Si Si1 0.181343 0.121020 0.881387
Si Si2 0.586109 0.117069 0.449777
Si Si3 0.115836 0.236915 0.442214
Si Si4 0.378887 0.878893 0.148148
Si Si5 0.286214 0.384092 0.717601
Si Si6 0.986365 0.070382 0.040811
Si Si7 0.596118 0.740150 0.897947
O O1 0.268993 0.102863 0.690236
O O2 0.173811 0.193455 0.916149
O O3 0.200441 0.098125 0.075338
O O4 0.077514 0.101490 0.883070
O O5 0.602311 0.100205 0.653156
O O6 0.476028 0.102798 0.475945
O O7 0.675554 0.098466 0.260658
O O8 0.596387 0.190021 0.449827
O O9 0.125792 0.305552 0.366029
O O10 0.193770 0.187761 0.328586
O O11 0.110212 0.238702 0.667811
O O12 0.008158 0.217092 0.463828
O O13 0.378839 0.412668 0.558771
O O14 0.000000 0.084347 0.250000
O O15 0.000000 0.000000 0.000000
#
# Coordination Sequence:
#
# PCOD9261373 Si02
#       7
#     8   8   8   8   8   8   8
#     4  10  19  33  52  71  95 129 166 206 247 291
#     4   9  18  31  48  71 100 134 168 198 234 287
#     4  10  19  29  44  71 105 137 167 200 241 290
#     4   9  18  31  48  71 100 134 168 198 234 287
#     4  10  19  33  52  71  95 129 166 206 247 291
#     4  10  22  38  56  76  96 122 164 214 261 302
#     4  10  19  29  44  71 105 137 167 200 241 290
#
# _framework density 25.038416999999999
#
# number of rings (size 3 to 8) (size 9 to 14) (size 15 to 20)
#    0.000    2.286    1.429    1.714    0.000    6.857 
#    0.000    0.000    0.000    0.857    0.000    0.000 
#    0.000    0.000    0.000    0.000    0.000    0.000 
#
# Total GULP energy -156279.713502 kJ/mol
# GULP energy per Si atom -5581.418339 kJ/mol
# Density = 2.498143 g / cm^3
# Si number density = 25.038417 Si / 1000 Ang^3
#
#
#
# Elastic Constant Matrix: (Units=GPa)
#
#
# Indices 1 2 3 4 5 6 
#
# 1 148.8454 10.8350 72.5366 0.0000 -75.1627 0.0000
# 2 10.8350 13.2965 -3.6317 0.0000 -8.7508 0.0000
# 3 72.5366 -3.6317 143.7604 0.0000 -35.8501 0.0000
# 4 0.0000 0.0000 0.0000 -8.0875 0.0000 -19.7985
# 5 -75.1627 -8.7508 -35.8501 0.0000 68.0742 0.0000
# 6 0.0000 0.0000 0.0000 -19.7985 0.0000 -14.4079
#
#
#
# Elastic Compliance Matrix: (Units=1/GPa)
#
#
# Indices 1 2 3 4 5 6 
#
# 1 0.017795 -0.005123 -0.005034 0.000000 0.016338 0.000000
# 2 -0.005123 0.087475 0.007124 0.000000 0.009340 0.000000
# 3 -0.005034 0.007124 0.009806 0.000000 0.000522 0.000000
# 4 0.000000 0.000000 0.000000 0.052305 0.000000 -0.071875
# 5 0.016338 0.009340 0.000522 0.000000 0.034205 0.000000
# 6 0.000000 0.000000 0.000000 -0.071875 0.000000 0.029360
#
#
# Mechanical properties :
#
#
# Convention : Reuss Voigt Hill
#
# Bulk Modulus (GPa) = 9.17346 51.70911 30.44128
# Shear Modulus (GPa) = 18.29172 24.19325 21.24248
#
# Velocity S-wave (km/s) = 2.70579 3.11182 2.91588
# Velocity P-wave (km/s) = 3.66517 5.79724 4.84982
#
# Compressibility (1/GPa) = 0.10901017
#
# Stress axis : x y z
#
# Youngs Moduli (GPa) = 56.19676 11.43188 101.97857
#
# Poissons Ratio (x) = 0.05856 0.51332
# Poissons Ratio (y) = 0.28788 -0.72647
# Poissons Ratio (z) = 0.28287 -0.08144
#
# Static dielectric constant tensor:
#      x y z
#    x 2.107150 0.000000 -0.033490 
#    y 0.000000 1.951550 0.000000 
#    z -0.033490 0.000000 1.995380 
# 
# From -- ./inp_files/43444.got.cif
#   From: 2010.05.17/outbox.cif.g08.bks.cpg/sg15_22_cif.got.tgz:43444.got - 2010.06.03 18:47:42.
