data_PCOD9261976
_publ_section_title
;
Structure prediction by ZEFSAII (Michael W. Deem and Ramdas Pophale) SiO2 
 PCOD9261976
Probable space group: C 2/C
;
_chemical_formula_sum "Si O2"
_cell_formula_units_Z 56
_cell_length_a 21.753705
_cell_length_b 24.818988
_cell_length_c 14.245872
_cell_angle_alpha 90.000000
_cell_angle_beta 157.633957
_cell_angle_gamma 90.000000
_cell_volume 2926.756091
_symmetry_space_group_name_H-M "C 2/C"
_symmetry_group_IT_number 15
_symmetry_cell_setting 'monoclinic'
loop_
_space_group_symop_operation_xyz
x,y,z
-x,y,1/2-z
-x,-y,-z
x,-y,1/2+z
1/2+x,1/2+y,z
1/2-x,1/2+y,1/2-z
1/2-x,1/2-y,-z
1/2+x,1/2-y,1/2+z
loop_
_atom_site_type_symbol
_atom_site_label
_atom_site_fract_x
_atom_site_fract_y
_atom_site_fract_z
Si Si1 0.197716 0.518975 0.229588
Si Si2 0.309991 0.237614 0.479545
Si Si3 0.153580 0.126573 0.280210
Si Si4 0.689382 0.649825 0.619745
Si Si5 0.824459 0.574578 0.961668
Si Si6 0.490637 0.452468 0.410011
Si Si7 0.378847 0.072252 0.743009
O O1 0.177192 0.474328 0.117012
O O2 0.386065 0.533628 0.497251
O O3 0.161693 0.487256 0.274736
O O4 0.073633 0.567722 0.029809
O O5 0.500000 0.227485 0.750000
O O6 0.250000 0.250000 0.500000
O O7 0.221026 0.181992 0.334722
O O8 0.284883 0.288549 0.375448
O O9 0.073645 0.095890 0.082250
O O10 0.295576 0.090116 0.527960
O O11 0.004097 0.137764 0.142621
O O12 0.764246 0.628134 0.822744
O O13 0.787787 0.613862 0.683632
O O14 0.696496 0.560748 0.862615
O O15 0.000000 0.580723 0.250000
O O16 0.500000 0.500000 0.500000
#
# Coordination Sequence:
#
# PCOD9261976 Si02
#       7
#     8   8   8   8   8   8   8
#     4   9  20  33  49  82 112 144 194 224 278 330
#     4  12  22  36  57  89 116 146 184 234 298 348
#     4  11  22  34  57  84 115 149 186 226 294 344
#     4  10  20  38  53  79 115 148 190 233 288 341
#     4   9  19  36  57  77 106 149 194 233 274 344
#     4   9  20  35  53  79 109 144 189 232 275 334
#     4  10  19  32  51  75 116 150 179 227 275 347
#
# _framework density 19.133811999999999
#
# number of rings (size 3 to 8) (size 9 to 14) (size 15 to 20)
#    0.000    2.000    2.857    1.286    6.000    0.000 
#    0.000    0.000    0.000    3.429    0.000    0.000 
#    0.000    0.000    0.000    0.000    0.000    0.000 
#
# Total GULP energy -155994.374155 kJ/mol
# GULP energy per Si atom -5571.227648 kJ/mol
# Density = 1.909026 g / cm^3
# Si number density = 19.133812 Si / 1000 Ang^3
#
#
#
# Elastic Constant Matrix: (Units=GPa)
#
#
# Indices 1 2 3 4 5 6 
#
# 1 48.6221 13.2835 30.8740 0.0000 25.2463 0.0000
# 2 13.2835 106.6266 55.2073 0.0000 7.3152 0.0000
# 3 30.8740 55.2073 134.8770 0.0000 25.8357 0.0000
# 4 0.0000 0.0000 0.0000 36.8785 0.0000 4.7465
# 5 25.2463 7.3152 25.8357 0.0000 34.3880 0.0000
# 6 0.0000 0.0000 0.0000 4.7465 0.0000 27.4000
#
#
#
# Elastic Compliance Matrix: (Units=1/GPa)
#
#
# Indices 1 2 3 4 5 6 
#
# 1 0.034762 -0.001158 -0.003086 0.000000 -0.022956 0.000000
# 2 -0.001158 0.011991 -0.005043 0.000000 0.002088 0.000000
# 3 -0.003086 -0.005043 0.011150 0.000000 -0.005038 0.000000
# 4 0.000000 0.000000 0.000000 0.027734 0.000000 -0.004804
# 5 -0.022956 0.002088 -0.005038 0.000000 0.049275 0.000000
# 6 0.000000 0.000000 0.000000 -0.004804 0.000000 0.037329
#
#
# Mechanical properties :
#
#
# Convention : Reuss Voigt Hill
#
# Bulk Modulus (GPa) = 25.42643 54.31725 39.87184
# Shear Modulus (GPa) = 24.51897 32.45069 28.48483
#
# Velocity S-wave (km/s) = 3.58361 4.12270 3.86258
# Velocity P-wave (km/s) = 5.51730 7.14926 6.38563
#
# Compressibility (1/GPa) = 0.03932915
#
# Stress axis : x y z
#
# Youngs Moduli (GPa) = 28.76669 83.39935 89.68784
#
# Poissons Ratio (x) = 0.09657 0.27678
# Poissons Ratio (y) = 0.03331 0.45228
# Poissons Ratio (z) = 0.08878 0.42057
#
# Static dielectric constant tensor:
#      x y z
#    x 1.740260 0.000000 0.038350 
#    y 0.000000 1.758650 0.000000 
#    z 0.038350 0.000000 1.703300 
# 
# From -- ./inp_files/174887.got.cif
#   From: 2010.05.17/outbox.cif.g08.bks.cpg/sg15_88_cif.got.tgz:174887.got - 2010.06.03 18:47:42.
