data_PCOD9261768
_publ_section_title
;
Structure prediction by ZEFSAII (Michael W. Deem and Ramdas Pophale) SiO2 
 PCOD9261768
Probable space group: C 2/C
;
_chemical_formula_sum "Si O2"
_cell_formula_units_Z 48
_cell_length_a 23.710455
_cell_length_b 18.102030
_cell_length_c 5.618617
_cell_angle_alpha 90.000000
_cell_angle_beta 55.708428
_cell_angle_gamma 90.000000
_cell_volume 1992.378718
_symmetry_space_group_name_H-M "C 2/C"
_symmetry_group_IT_number 15
_symmetry_cell_setting 'monoclinic'
loop_
_space_group_symop_operation_xyz
x,y,z
-x,y,1/2-z
-x,-y,-z
x,-y,1/2+z
1/2+x,1/2+y,z
1/2-x,1/2+y,1/2-z
1/2-x,1/2-y,-z
1/2+x,1/2-y,1/2+z
loop_
_atom_site_type_symbol
_atom_site_label
_atom_site_fract_x
_atom_site_fract_y
_atom_site_fract_z
Si Si1 0.765534 0.676424 0.221131
Si Si2 0.505476 0.760425 0.488037
Si Si3 0.817358 0.935087 0.277203
Si Si4 0.345676 0.304892 0.898711
Si Si5 0.310982 0.031372 0.945475
Si Si6 0.461148 0.598171 0.593034
O O1 0.738714 0.623020 0.488892
O O2 0.700102 0.701037 0.226492
O O3 0.811049 0.747240 0.165775
O O4 0.810243 0.619890 0.952981
O O5 0.500000 0.801280 0.250000
O O6 0.578819 0.721779 0.320519
O O7 0.455422 0.688307 0.600296
O O8 0.500000 0.802171 0.750000
O O9 0.886400 0.939304 0.267819
O O10 0.769489 0.005330 0.346734
O O11 0.844196 0.889083 0.986621
O O12 0.339354 0.000897 0.627754
O O13 0.500000 0.581777 0.750000
O O14 0.500000 0.580093 0.250000
#
# Coordination Sequence:
#
# PCOD9261768 Si02
#       6
#     8   8   8   8   8   8
#     4  10  22  35  54  84 114 148 195 238 292 345
#     4  10  19  33  52  78 111 145 182 232 275 326
#     4  11  20  35  58  79 116 156 192 233 291 340
#     4  11  20  35  57  84 112 153 190 242 290 337
#     4  10  21  37  56  76 111 152 189 228 288 336
#     4  10  19  31  53  77 108 146 190 234 267 320
#
# _framework density 24.091804
#
# number of rings (size 3 to 8) (size 9 to 14) (size 15 to 20)
#    0.000    1.667    5.000    2.500    0.000    0.000 
#    0.000    0.000    0.000   23.000    0.000    0.000 
#    0.000   16.000    0.000    0.000    0.000    0.000 
#
# Total GULP energy -133992.076023 kJ/mol
# GULP energy per Si atom -5583.003168 kJ/mol
# Density = 2.403697 g / cm^3
# Si number density = 24.091804 Si / 1000 Ang^3
#
#
#
# Elastic Constant Matrix: (Units=GPa)
#
#
# Indices 1 2 3 4 5 6 
#
# 1 45.4186 12.2185 23.5480 0.0000 26.7941 0.0000
# 2 12.2185 83.8131 -3.6314 0.0000 5.4703 0.0000
# 3 23.5480 -3.6314 100.0585 0.0000 41.2127 0.0000
# 4 0.0000 0.0000 0.0000 13.4057 0.0000 5.9056
# 5 26.7941 5.4703 41.2127 0.0000 42.9843 0.0000
# 6 0.0000 0.0000 0.0000 5.9056 0.0000 17.4827
#
#
#
# Elastic Compliance Matrix: (Units=1/GPa)
#
#
# Indices 1 2 3 4 5 6 
#
# 1 0.036025 -0.003740 0.000726 0.000000 -0.022676 0.000000
# 2 -0.003740 0.012611 0.001717 0.000000 -0.000919 0.000000
# 3 0.000726 0.001717 0.016794 0.000000 -0.016773 0.000000
# 4 0.000000 0.000000 0.000000 0.087636 0.000000 -0.029603
# 5 -0.022676 -0.000919 -0.016773 0.000000 0.053598 0.000000
# 6 0.000000 0.000000 0.000000 -0.029603 0.000000 0.067199
#
#
# Mechanical properties :
#
#
# Convention : Reuss Voigt Hill
#
# Bulk Modulus (GPa) = 15.91488 32.61781 24.26634
# Shear Modulus (GPa) = 16.81218 27.91821 22.36519
#
# Velocity S-wave (km/s) = 2.64453 3.40785 3.05016
# Velocity P-wave (km/s) = 3.99312 5.39008 4.74331
#
# Compressibility (1/GPa) = 0.06283428
#
# Stress axis : x y z
#
# Youngs Moduli (GPa) = 27.75886 79.29621 59.54455
#
# Poissons Ratio (x) = 0.29659 -0.04323
# Poissons Ratio (y) = 0.10383 -0.10221
# Poissons Ratio (z) = -0.02015 -0.13612
#
# Static dielectric constant tensor:
#      x y z
#    x 1.952670 0.000000 0.102030 
#    y 0.000000 1.916960 0.000000 
#    z 0.102030 0.000000 2.148420 
# 
# From -- ./inp_files/15531.got.cif
#   From: 2010.05.17/outbox.cif.g08.bks.cpg/sg15_8_cif.got.tgz:15531.got - 2010.06.03 18:47:42.
