data_PCOD9261383
_publ_section_title
;
Structure prediction by ZEFSAII (Michael W. Deem and Ramdas Pophale) SiO2 
 PCOD9261383
Probable space group: C 2/C
;
_chemical_formula_sum "Si O2"
_cell_formula_units_Z 48
_cell_length_a 14.703889
_cell_length_b 13.630588
_cell_length_c 15.916026
_cell_angle_alpha 90.000000
_cell_angle_beta 33.821650
_cell_angle_gamma 90.000000
_cell_volume 1775.546780
_symmetry_space_group_name_H-M "C 2/C"
_symmetry_group_IT_number 15
_symmetry_cell_setting 'monoclinic'
loop_
_space_group_symop_operation_xyz
x,y,z
-x,y,1/2-z
-x,-y,-z
x,-y,1/2+z
1/2+x,1/2+y,z
1/2-x,1/2+y,1/2-z
1/2-x,1/2-y,-z
1/2+x,1/2-y,1/2+z
loop_
_atom_site_type_symbol
_atom_site_label
_atom_site_fract_x
_atom_site_fract_y
_atom_site_fract_z
Si Si1 0.550760 0.841714 0.115624
Si Si2 0.154645 0.109840 0.471862
Si Si3 0.470856 0.203975 0.154586
Si Si4 0.045179 0.061538 0.365541
Si Si5 0.648674 0.972137 0.447533
Si Si6 0.763501 0.242040 0.322625
O O1 0.500000 0.830291 0.250000
O O2 0.369454 0.834169 0.213562
O O3 0.631558 0.943912 0.031078
O O4 0.662413 0.759862 0.985290
O O5 0.339251 0.151424 0.317692
O O6 0.071618 0.099200 0.441422
O O7 0.054709 0.190221 0.602645
O O8 0.121157 0.997200 0.524819
O O9 0.615226 0.130432 0.017466
O O10 0.361354 0.215192 0.154467
O O11 0.103822 0.155508 0.268935
O O12 0.185617 0.983975 0.231210
O O13 0.500000 0.000000 0.500000
#
# Coordination Sequence:
#
# PCOD9261383 Si02
#       6
#     8   8   8   8   8   8
#     4  11  23  37  55  80 116 156 183 218 275 340
#     4  10  19  29  46  77 113 138 173 222 291 326
#     4  11  20  31  52  80 109 144 180 236 282 312
#     4   9  19  30  48  74 110 142 178 225 276 323
#     4  11  20  36  53  79 111 145 189 234 275 323
#     4  10  20  33  53  78 111 146 186 222 272 330
#
# _framework density 27.033925
#
# number of rings (size 3 to 8) (size 9 to 14) (size 15 to 20)
#    0.000    1.667    5.000    3.500    2.333    1.333 
#    0.000    0.000    0.000    0.000    0.000   11.667 
#    0.000    0.000    0.000    0.000    0.000    0.000 
#
# Total GULP energy -134171.899489 kJ/mol
# GULP energy per Si atom -5590.495812 kJ/mol
# Density = 2.697239 g / cm^3
# Si number density = 27.033925 Si / 1000 Ang^3
#
#
#
# Elastic Constant Matrix: (Units=GPa)
#
#
# Indices 1 2 3 4 5 6 
#
# 1 58.6208 10.2398 43.1343 -0.0004 3.7029 0.0003
# 2 10.2398 86.2786 45.1953 -0.0003 -13.6593 0.0003
# 3 43.1343 45.1953 158.4498 -0.0007 1.8239 0.0007
# 4 -0.0004 -0.0003 -0.0007 62.2406 0.0004 -8.2886
# 5 3.7029 -13.6593 1.8239 0.0004 28.5713 -0.0003
# 6 0.0003 0.0003 0.0007 -8.2886 -0.0003 5.7720
#
#
#
# Elastic Compliance Matrix: (Units=1/GPa)
#
#
# Indices 1 2 3 4 5 6 
#
# 1 0.021498 0.000153 -0.005869 0.000000 -0.002339 -0.000001
# 2 0.000153 0.015074 -0.004427 0.000000 0.007469 0.000000
# 3 -0.005869 -0.004427 0.009194 0.000000 -0.001943 -0.000001
# 4 0.000000 0.000000 0.000000 0.019866 0.000000 0.028527
# 5 -0.002339 0.007469 -0.001943 0.000000 0.038998 0.000002
# 6 -0.000001 0.000000 -0.000001 0.028527 0.000002 0.214213
#
#
# Mechanical properties :
#
#
# Convention : Reuss Voigt Hill
#
# Bulk Modulus (GPa) = 39.24768 55.60977 47.42872
# Shear Modulus (GPa) = 14.38338 32.96876 23.67607
#
# Velocity S-wave (km/s) = 2.30912 3.49597 2.96259
# Velocity P-wave (km/s) = 4.65391 6.07542 5.41154
#
# Compressibility (1/GPa) = 0.02547921
#
# Stress axis : x y z
#
# Youngs Moduli (GPa) = 46.51503 66.34024 108.76666
#
# Poissons Ratio (x) = -0.01013 0.63836
# Poissons Ratio (y) = -0.00710 0.48152
# Poissons Ratio (z) = 0.27300 0.29370
#
# Static dielectric constant tensor:
#      x y z
#    x 2.227160 0.000000 -0.007880 
#    y 0.000000 2.104190 0.000000 
#    z -0.007880 0.000000 2.088970 
# 
# From -- ./inp_files/211309.got.cif
#   From: 2010.05.17/outbox.cif.g08.bks.cpg/sg15_106_cif.got.tgz:211309.got - 2010.06.03 18:47:42.
