data_PCOD9261271
_publ_section_title
;
Structure prediction by ZEFSAII (Michael W. Deem and Ramdas Pophale) SiO2 
 PCOD9261271
Probable space group: C 2/C
;
_chemical_formula_sum "Si O2"
_cell_formula_units_Z 40
_cell_length_a 10.830155
_cell_length_b 14.024389
_cell_length_c 12.443860
_cell_angle_alpha 90.000000
_cell_angle_beta 89.099585
_cell_angle_gamma 90.000000
_cell_volume 1889.818550
_symmetry_space_group_name_H-M "C 2/C"
_symmetry_group_IT_number 15
_symmetry_cell_setting 'monoclinic'
loop_
_space_group_symop_operation_xyz
x,y,z
-x,y,1/2-z
-x,-y,-z
x,-y,1/2+z
1/2+x,1/2+y,z
1/2-x,1/2+y,1/2-z
1/2-x,1/2-y,-z
1/2+x,1/2-y,1/2+z
loop_
_atom_site_type_symbol
_atom_site_label
_atom_site_fract_x
_atom_site_fract_y
_atom_site_fract_z
Si Si1 0.637713 0.815566 0.263223
Si Si2 0.978869 0.127683 0.874726
Si Si3 0.715058 0.047108 0.947590
Si Si4 0.817151 0.299287 0.896301
Si Si5 0.743987 0.641859 0.961661
O O1 0.500000 0.778917 0.250000
O O2 0.641804 0.896362 0.356028
O O3 0.729543 0.730824 0.299220
O O4 0.687103 0.860060 0.153146
O O5 0.858602 0.072916 0.920221
O O6 0.942456 0.240267 0.880064
O O7 0.000000 0.102207 0.750000
O O8 0.102180 0.113175 0.940181
O O9 0.677738 0.093024 0.063659
O O10 0.700300 0.934551 0.956885
O O11 0.750000 0.250000 0.000000
O O12 0.750000 0.750000 0.000000
#
# Coordination Sequence:
#
# PCOD9261271 Si02
#       5
#     8   8   8   8   8
#     4  10  22  42  61  93 129 156 208 257 307 375
#     4  10  18  43  64  92 124 155 207 268 299 362
#     4  10  23  43  65  89 125 172 203 245 322 368
#     4   8  18  38  67  80 120 166 195 241 316 360
#     4  12  26  39  62  96 127 160 213 260 302 361
#
# _framework density 21.166053000000002
#
# number of rings (size 3 to 8) (size 9 to 14) (size 15 to 20)
#    0.000    2.400    4.000    0.600    8.400    2.400 
#    0.000    0.000    0.000    0.000    0.000    0.000 
#    0.000    0.000    0.000    0.000    0.000    0.000 
#
# Total GULP energy -111572.690310 kJ/mol
# GULP energy per Si atom -5578.634515 kJ/mol
# Density = 2.111788 g / cm^3
# Si number density = 21.166053 Si / 1000 Ang^3
#
#
#
# Elastic Constant Matrix: (Units=GPa)
#
#
# Indices 1 2 3 4 5 6 
#
# 1 37.8071 -18.9192 1.5904 0.0000 -0.8080 0.0000
# 2 -18.9192 115.7429 33.4802 0.0000 -1.6584 0.0000
# 3 1.5904 33.4802 72.2858 0.0000 -2.6136 0.0000
# 4 0.0000 0.0000 0.0000 21.0184 0.0000 -5.8060
# 5 -0.8080 -1.6584 -2.6136 0.0000 22.2649 0.0000
# 6 0.0000 0.0000 0.0000 -5.8060 0.0000 -0.8039
#
#
#
# Elastic Compliance Matrix: (Units=1/GPa)
#
#
# Indices 1 2 3 4 5 6 
#
# 1 0.029511 0.005792 -0.003292 0.000000 0.001116 0.000000
# 2 0.005792 0.011114 -0.005260 0.000000 0.000421 0.000000
# 3 -0.003292 -0.005260 0.016394 0.000000 0.001413 0.000000
# 4 0.000000 0.000000 0.000000 0.015885 0.000000 -0.114728
# 5 0.001116 0.000421 0.001413 0.000000 0.045151 0.000000
# 6 0.000000 0.000000 0.000000 -0.114728 0.000000 -0.415326
#
#
# Mechanical properties :
#
#
# Convention : Reuss Voigt Hill
#
# Bulk Modulus (GPa) = 19.41767 28.68205 24.04986
# Shear Modulus (GPa) = -18.20929 22.47484 2.13278
#
# Velocity S-wave (km/s) = -2.93628 3.26212 1.00490
# Velocity P-wave (km/s) = 1.51716 5.26962 3.56841
#
# Compressibility (1/GPa) = 0.05149948
#
# Stress axis : x y z
#
# Youngs Moduli (GPa) = 33.88601 89.97587 60.99917
#
# Poissons Ratio (x) = -0.52113 0.20078
# Poissons Ratio (y) = -0.19626 0.32085
# Poissons Ratio (z) = 0.11154 0.47326
#
# Static dielectric constant tensor:
#      x y z
#    x 1.795560 0.000000 0.022580 
#    y 0.000000 1.830120 0.000000 
#    z 0.022580 0.000000 1.785000 
# 
# From -- ./inp_files/85645.got.cif
#   From: 2010.05.17/outbox.cif.g08.bks.cpg/sg15_43_cif.got.tgz:85645.got - 2010.06.03 18:47:42.
