data_PCOD9261633
_publ_section_title
;
Structure prediction by ZEFSAII (Michael W. Deem and Ramdas Pophale) SiO2 
 PCOD9261633
Probable space group: C 2/C
;
_chemical_formula_sum "Si O2"
_cell_formula_units_Z 32
_cell_length_a 12.157883
_cell_length_b 28.451231
_cell_length_c 13.987410
_cell_angle_alpha 90.000000
_cell_angle_beta 159.606168
_cell_angle_gamma 90.000000
_cell_volume 1686.021658
_symmetry_space_group_name_H-M "C 2/C"
_symmetry_group_IT_number 15
_symmetry_cell_setting 'monoclinic'
loop_
_space_group_symop_operation_xyz
x,y,z
-x,y,1/2-z
-x,-y,-z
x,-y,1/2+z
1/2+x,1/2+y,z
1/2-x,1/2+y,1/2-z
1/2-x,1/2-y,-z
1/2+x,1/2-y,1/2+z
loop_
_atom_site_type_symbol
_atom_site_label
_atom_site_fract_x
_atom_site_fract_y
_atom_site_fract_z
Si Si1 0.083781 0.425749 0.025272
Si Si2 0.129051 0.475586 0.459716
Si Si3 0.655423 0.276140 0.270236
Si Si4 0.188303 0.869777 0.561017
O O1 0.446370 0.408379 0.321360
O O2 0.998733 0.440558 0.063516
O O3 0.046817 0.472060 0.929906
O O4 0.840931 0.387773 0.783946
O O5 0.000000 0.466830 0.250000
O O6 0.500000 0.472039 0.750000
O O7 0.500000 0.275795 0.250000
O O8 0.014626 0.265663 0.590034
O O9 0.530969 0.323606 0.120794
O O10 0.500000 0.861948 0.750000
#
# Coordination Sequence:
#
# PCOD9261633 Si02
#       4
#     8   8   8   8
#     4  11  23  35  53  79 102 136 181 212 249 309
#     4  11  22  38  55  73 105 139 171 217 263 298
#     4  10  19  31  47  71 105 143 172 199 249 309
#     4  12  21  33  52  76 109 141 173 211 248 300
#
# _framework density 18.979589000000001
#
# number of rings (size 3 to 8) (size 9 to 14) (size 15 to 20)
#    0.000    1.000    0.000   11.250    0.000    4.000 
#    0.000    0.000    0.000    0.000    0.000    0.000 
#    0.000   70.000    0.000    0.000    0.000    0.000 
#
# Total GULP energy -89329.529136 kJ/mol
# GULP energy per Si atom -5583.095571 kJ/mol
# Density = 1.893639 g / cm^3
# Si number density = 18.979589 Si / 1000 Ang^3
#
#
#
# Elastic Constant Matrix: (Units=GPa)
#
#
# Indices 1 2 3 4 5 6 
#
# 1 98.2265 29.9375 39.6230 0.0005 -24.0942 0.0007
# 2 29.9375 65.2272 33.0969 -0.0003 -13.8411 0.0001
# 3 39.6230 33.0969 93.3686 0.0020 -41.7537 0.0021
# 4 0.0005 -0.0003 0.0020 24.9875 0.0014 -11.3236
# 5 -24.0942 -13.8411 -41.7537 0.0014 34.7287 0.0010
# 6 0.0007 0.0001 0.0021 -11.3236 0.0010 20.1072
#
#
#
# Elastic Compliance Matrix: (Units=1/GPa)
#
#
# Indices 1 2 3 4 5 6 
#
# 1 0.013527 -0.004119 -0.001768 -0.000001 0.005617 -0.000001
# 2 -0.004119 0.019968 -0.006595 0.000002 -0.002829 0.000002
# 3 -0.001768 -0.006595 0.026115 -0.000007 0.027543 -0.000008
# 4 -0.000001 0.000002 -0.000007 0.053733 -0.000012 0.030260
# 5 0.005617 -0.002829 0.027543 -0.000012 0.064678 -0.000013
# 6 -0.000001 0.000002 -0.000008 0.030260 -0.000013 0.066775
#
#
# Mechanical properties :
#
#
# Convention : Reuss Voigt Hill
#
# Bulk Modulus (GPa) = 28.86440 51.34858 40.10649
# Shear Modulus (GPa) = 17.77393 26.24233 22.00813
#
# Velocity S-wave (km/s) = 3.06351 3.72245 3.40894
# Velocity P-wave (km/s) = 5.26826 6.75195 6.05572
#
# Compressibility (1/GPa) = 0.03464475
#
# Stress axis : x y z
#
# Youngs Moduli (GPa) = 73.92483 50.08066 38.29158
#
# Poissons Ratio (x) = 0.20630 0.06772
# Poissons Ratio (y) = 0.30452 0.25253
# Poissons Ratio (z) = 0.13073 0.33028
#
# Static dielectric constant tensor:
#      x y z
#    x 1.623190 0.000000 -0.006790 
#    y 0.000000 1.754920 0.000000 
#    z -0.006790 0.000000 1.649530 
# 
# From -- ./inp_files/4592.got.cif
#   From: 2010.05.17/outbox.cif.g08.bks.cpg/sg15_3_cif.got.tgz:4592.got - 2010.06.03 18:47:42.
