data_PCOD9261485
_publ_section_title
;
Structure prediction by ZEFSAII (Michael W. Deem and Ramdas Pophale) SiO2 
 PCOD9261485
Probable space group: C 2/C
;
_chemical_formula_sum "Si O2"
_cell_formula_units_Z 64
_cell_length_a 19.121964
_cell_length_b 20.059748
_cell_length_c 9.193591
_cell_angle_alpha 90.000000
_cell_angle_beta 96.202303
_cell_angle_gamma 90.000000
_cell_volume 3505.852090
_symmetry_space_group_name_H-M "C 2/C"
_symmetry_group_IT_number 15
_symmetry_cell_setting 'monoclinic'
loop_
_space_group_symop_operation_xyz
x,y,z
-x,y,1/2-z
-x,-y,-z
x,-y,1/2+z
1/2+x,1/2+y,z
1/2-x,1/2+y,1/2-z
1/2-x,1/2-y,-z
1/2+x,1/2-y,1/2+z
loop_
_atom_site_type_symbol
_atom_site_label
_atom_site_fract_x
_atom_site_fract_y
_atom_site_fract_z
Si Si1 0.006287 0.916158 0.415312
Si Si2 0.932356 0.225227 0.670199
Si Si3 0.739606 0.493208 0.322285
Si Si4 0.716545 0.909694 0.423645
Si Si5 0.677457 0.769167 0.400970
Si Si6 0.153165 0.926959 0.560517
Si Si7 0.871595 0.154843 0.936342
Si Si8 0.319938 0.731939 0.429332
O O1 0.032800 0.839928 0.395249
O O2 0.070126 0.944353 0.524464
O O3 0.000000 0.945184 0.250000
O O4 0.930017 0.902593 0.464801
O O5 0.883573 0.193398 0.786033
O O6 0.884509 0.259604 0.540082
O O7 0.000000 0.263074 0.750000
O O8 0.789281 0.449868 0.228202
O O9 0.782218 0.542181 0.437809
O O10 0.691258 0.449298 0.419313
O O11 0.689213 0.534768 0.202222
O O12 0.665637 0.846730 0.431068
O O13 0.795989 0.879504 0.429691
O O14 0.750000 0.750000 0.500000
O O15 0.623155 0.713610 0.444357
O O16 0.685513 0.761453 0.231589
O O17 0.167508 0.847910 0.580671
O O18 0.250000 0.750000 0.500000
#
# Coordination Sequence:
#
# PCOD9261485 Si02
#       8
#     8   8   8   8   8   8   8   8
#     4   8  15  29  47  63  90 128 162 197 242 288
#     4   8  16  30  46  66  96 133 157 187 247 308
#     4  10  20  32  47  61  94 139 172 200 234 285
#     4  10  19  33  45  65  94 126 165 205 248 292
#     4  10  19  30  48  74  97 118 157 218 270 298
#     4  10  19  33  46  67  94 132 171 202 242 285
#     4   9  16  31  50  67  93 126 164 216 256 283
#     4  11  19  30  52  73  92 128 172 211 259 311
#
# _framework density 18.255192000000001
#
# number of rings (size 3 to 8) (size 9 to 14) (size 15 to 20)
#    0.000    2.750    0.000    6.000    0.000    0.000 
#    0.000   16.875    0.000    0.000    0.000    0.000 
#    0.000    0.000    0.000  380.250    0.000    0.250 
#
# Total GULP energy -178344.354182 kJ/mol
# GULP energy per Si atom -5573.261068 kJ/mol
# Density = 1.821364 g / cm^3
# Si number density = 18.255192 Si / 1000 Ang^3
#
#
#
# Elastic Constant Matrix: (Units=GPa)
#
#
# Indices 1 2 3 4 5 6 
#
# 1 27.9770 8.4109 13.3769 0.0000 5.9816 0.0000
# 2 8.4109 77.9147 27.5651 0.0000 -2.7302 0.0000
# 3 13.3769 27.5651 97.7470 0.0000 9.5219 0.0000
# 4 0.0000 0.0000 0.0000 22.6765 0.0000 -0.4615
# 5 5.9816 -2.7302 9.5219 0.0000 22.7248 0.0000
# 6 0.0000 0.0000 0.0000 -0.4615 0.0000 11.6890
#
#
#
# Elastic Compliance Matrix: (Units=1/GPa)
#
#
# Indices 1 2 3 4 5 6 
#
# 1 0.040563 -0.003420 -0.003656 0.000000 -0.009556 0.000000
# 2 -0.003420 0.014824 -0.004143 0.000000 0.004417 0.000000
# 3 -0.003656 -0.004143 0.012358 0.000000 -0.004714 0.000000
# 4 0.000000 0.000000 0.000000 0.044134 0.000000 0.001742
# 5 -0.009556 0.004417 -0.004714 0.000000 0.049026 0.000000
# 6 0.000000 0.000000 0.000000 0.001742 0.000000 0.085619
#
#
# Mechanical properties :
#
#
# Convention : Reuss Voigt Hill
#
# Bulk Modulus (GPa) = 22.07117 33.59384 27.83250
# Shear Modulus (GPa) = 17.60164 21.70378 19.65271
#
# Velocity S-wave (km/s) = 3.10852 3.45180 3.28465
# Velocity P-wave (km/s) = 5.00005 5.85908 5.44653
#
# Compressibility (1/GPa) = 0.04530798
#
# Stress axis : x y z
#
# Youngs Moduli (GPa) = 24.65303 67.45739 80.91773
#
# Poissons Ratio (x) = 0.23072 0.29581
# Poissons Ratio (y) = 0.08432 0.33522
# Poissons Ratio (z) = 0.09012 0.27946
#
# Static dielectric constant tensor:
#      x y z
#    x 1.688150 0.000000 0.020390 
#    y 0.000000 1.692700 0.000000 
#    z 0.020390 0.000000 1.670680 
# 
# From -- ./inp_files/57553.got.cif
#   From: 2010.05.17/outbox.cif.g08.bks.cpg/sg15_29_cif.got.tgz:57553.got - 2010.06.03 18:47:42.
