data_PCOD9261172
_publ_section_title
;
Structure prediction by ZEFSAII (Michael W. Deem and Ramdas Pophale) SiO2 
 PCOD9261172
Probable space group: C 2/C
;
_chemical_formula_sum "Si O2"
_cell_formula_units_Z 36
_cell_length_a 22.171431
_cell_length_b 14.867483
_cell_length_c 13.551349
_cell_angle_alpha 90.000000
_cell_angle_beta 158.929870
_cell_angle_gamma 90.000000
_cell_volume 1605.924570
_symmetry_space_group_name_H-M "C 2/C"
_symmetry_group_IT_number 15
_symmetry_cell_setting 'monoclinic'
loop_
_space_group_symop_operation_xyz
x,y,z
-x,y,1/2-z
-x,-y,-z
x,-y,1/2+z
1/2+x,1/2+y,z
1/2-x,1/2+y,1/2-z
1/2-x,1/2-y,-z
1/2+x,1/2-y,1/2+z
loop_
_atom_site_type_symbol
_atom_site_label
_atom_site_fract_x
_atom_site_fract_y
_atom_site_fract_z
Si Si1 0.529589 0.118265 0.008930
Si Si2 0.365722 0.091996 0.960038
Si Si3 0.000000 0.655655 0.750000
Si Si4 0.862308 0.773062 0.857048
Si Si5 0.376798 0.549283 0.478324
O O1 0.725933 0.099125 0.307220
O O2 0.440761 0.070966 0.965311
O O3 0.474250 0.101216 0.812067
O O4 0.475495 0.221541 0.949616
O O5 0.341581 0.199443 0.912850
O O6 0.202723 0.028520 0.711528
O O7 0.500000 0.076501 0.250000
O O8 0.826279 0.708561 0.469131
O O9 0.941863 0.867221 0.012510
O O10 0.500000 0.512924 0.750000
#
# Coordination Sequence:
#
# PCOD9261172 Si02
#       5
#     8   8   4   8   8
#     4   9  22  41  69  90 136 174 211 269 335 385
#     4  10  23  43  66  97 132 177 210 267 339 386
#     4  10  18  40  70 102 122 172 228 262 320 392
#     4   9  22  39  68  93 133 173 212 270 326 383
#     4  11  23  42  66  97 131 172 227 267 313 397
#
# _framework density 22.416993999999999
#
# number of rings (size 3 to 8) (size 9 to 14) (size 15 to 20)
#    1.333    0.889    0.000    2.000    7.778    0.889 
#    4.000    1.111    0.000    0.000    0.000    0.000 
#    0.000    0.000    0.000    0.000    0.000    0.000 
#
# Total GULP energy -100237.025693 kJ/mol
# GULP energy per Si atom -5568.723650 kJ/mol
# Density = 2.236597 g / cm^3
# Si number density = 22.416994 Si / 1000 Ang^3
#
#
#
# Elastic Constant Matrix: (Units=GPa)
#
#
# Indices 1 2 3 4 5 6 
#
# 1 74.7849 26.4610 11.6906 0.0000 -22.0716 0.0000
# 2 26.4610 91.3957 39.9271 0.0000 -33.9948 0.0000
# 3 11.6906 39.9271 148.8540 0.0000 -43.6467 0.0000
# 4 0.0000 0.0000 0.0000 29.5349 0.0000 -16.6996
# 5 -22.0716 -33.9948 -43.6467 0.0000 35.7341 0.0000
# 6 0.0000 0.0000 0.0000 -16.6996 0.0000 37.0903
#
#
#
# Elastic Compliance Matrix: (Units=1/GPa)
#
#
# Indices 1 2 3 4 5 6 
#
# 1 0.017167 -0.001515 0.002718 0.000000 0.012482 0.000000
# 2 -0.001515 0.017075 0.000043 0.000000 0.015360 0.000000
# 3 0.002718 0.000043 0.010902 0.000000 0.015035 0.000000
# 4 0.000000 0.000000 0.000000 0.045421 0.000000 0.020451
# 5 0.012482 0.015360 0.015035 0.000000 0.068672 0.000000
# 6 0.000000 0.000000 0.000000 0.020451 0.000000 0.036169
#
#
# Mechanical properties :
#
#
# Convention : Reuss Voigt Hill
#
# Bulk Modulus (GPa) = 20.99282 52.35466 36.67374
# Shear Modulus (GPa) = 23.94744 36.26892 30.10818
#
# Velocity S-wave (km/s) = 3.27199 4.02670 3.66880
# Velocity P-wave (km/s) = 4.86411 6.71005 5.86022
#
# Compressibility (1/GPa) = 0.04763534
#
# Stress axis : x y z
#
# Youngs Moduli (GPa) = 58.25248 58.56675 91.72950
#
# Poissons Ratio (x) = 0.08872 -0.24933
# Poissons Ratio (y) = 0.08824 -0.00395
# Poissons Ratio (z) = -0.15833 -0.00252
#
# Static dielectric constant tensor:
#      x y z
#    x 1.904710 0.000000 0.007670 
#    y 0.000000 1.973570 0.000000 
#    z 0.007670 0.000000 1.812970 
# 
# From -- ./inp_files/178262.got.cif
#   From: 2010.05.17/outbox.cif.g08.bks.cpg/sg15_90_cif.got.tgz:178262.got - 2010.06.03 18:47:42.
