data_PCOD9261220
_publ_section_title
;
Structure prediction by ZEFSAII (Michael W. Deem and Ramdas Pophale) SiO2 
 PCOD9261220
Probable space group: C 2/C
;
_chemical_formula_sum "Si O2"
_cell_formula_units_Z 52
_cell_length_a 8.019343
_cell_length_b 27.338967
_cell_length_c 12.370518
_cell_angle_alpha 90.000000
_cell_angle_beta 110.004105
_cell_angle_gamma 90.000000
_cell_volume 2548.491948
_symmetry_space_group_name_H-M "C 2/C"
_symmetry_group_IT_number 15
_symmetry_cell_setting 'monoclinic'
loop_
_space_group_symop_operation_xyz
x,y,z
-x,y,1/2-z
-x,-y,-z
x,-y,1/2+z
1/2+x,1/2+y,z
1/2-x,1/2+y,1/2-z
1/2-x,1/2-y,-z
1/2+x,1/2-y,1/2+z
loop_
_atom_site_type_symbol
_atom_site_label
_atom_site_fract_x
_atom_site_fract_y
_atom_site_fract_z
Si Si1 0.287130 0.581169 0.892408
Si Si2 0.000000 0.974307 0.750000
Si Si3 0.282142 0.196776 0.885213
Si Si4 0.840248 0.691691 0.133493
Si Si5 0.294994 0.011080 0.989238
Si Si6 0.500000 0.623591 0.750000
Si Si7 0.637414 0.406436 0.596386
Si Si8 0.000000 0.648935 0.750000
O O1 0.369964 0.590191 0.792192
O O2 0.112633 0.613916 0.853143
O O3 0.245436 0.526779 0.921725
O O4 0.439114 0.598568 0.006683
O O5 0.144760 0.000909 0.862530
O O6 0.118580 0.940006 0.698052
O O7 0.238182 0.253902 0.873159
O O8 0.110787 0.160937 0.850152
O O9 0.376423 0.181734 0.796397
O O10 0.390330 0.186708 0.018243
O O11 0.712169 0.646997 0.132747
O O12 0.000000 0.688198 0.250000
O O13 0.500000 0.000000 0.000000
O O14 0.253918 0.064132 0.032071
#
# Coordination Sequence:
#
# PCOD9261220 Si02
#       8
#     8   4   8   8   8   4   8   4
#     4  10  22  40  64  99 127 172 218 274 328 381
#     4  10  24  46  64  92 134 176 219 275 336 394
#     4  10  22  43  66 103 128 173 223 272 334 391
#     4  11  24  41  71  96 135 179 218 269 339 404
#     4  11  27  43  65  95 135 173 226 272 333 401
#     4  10  18  41  70  90 132 164 222 277 318 386
#     4  11  25  43  64  95 133 175 221 271 334 400
#     4  10  24  39  72 102 134 170 229 282 324 392
#
# _framework density 20.404225
#
# number of rings (size 3 to 8) (size 9 to 14) (size 15 to 20)
#    0.000    1.538    2.308    1.846    4.308    6.769 
#    0.000    1.538    0.000    0.000    0.000    0.000 
#    0.000    0.000    0.000    0.000    0.000    0.000 
#
# Total GULP energy -145144.440912 kJ/mol
# GULP energy per Si atom -5582.478497 kJ/mol
# Density = 2.035778 g / cm^3
# Si number density = 20.404225 Si / 1000 Ang^3
#
#
#
# Elastic Constant Matrix: (Units=GPa)
#
#
# Indices 1 2 3 4 5 6 
#
# 1 66.3274 42.5316 13.5760 0.0000 10.0449 0.0000
# 2 42.5316 129.1730 44.3987 0.0000 4.2028 0.0000
# 3 13.5760 44.3987 92.6042 0.0000 11.5287 0.0000
# 4 0.0000 0.0000 0.0000 30.9555 0.0000 -0.4937
# 5 10.0449 4.2028 11.5287 0.0000 28.9975 0.0000
# 6 0.0000 0.0000 0.0000 -0.4937 0.0000 13.1142
#
#
#
# Elastic Compliance Matrix: (Units=1/GPa)
#
#
# Indices 1 2 3 4 5 6 
#
# 1 0.020202 -0.006825 0.001114 0.000000 -0.006452 0.000000
# 2 -0.006825 0.011580 -0.004878 0.000000 0.002625 0.000000
# 3 0.001114 -0.004878 0.013608 0.000000 -0.005089 0.000000
# 4 0.000000 0.000000 0.000000 0.032324 0.000000 0.001217
# 5 -0.006452 0.002625 -0.005089 0.000000 0.038363 0.000000
# 6 0.000000 0.000000 0.000000 0.001217 0.000000 0.076299
#
#
# Mechanical properties :
#
#
# Convention : Reuss Voigt Hill
#
# Bulk Modulus (GPa) = 41.30322 54.34633 47.82477
# Shear Modulus (GPa) = 22.56065 27.12001 24.84033
#
# Velocity S-wave (km/s) = 3.32879 3.64969 3.49293
# Velocity P-wave (km/s) = 5.92122 6.66731 6.30531
#
# Compressibility (1/GPa) = 0.02421119
#
# Stress axis : x y z
#
# Youngs Moduli (GPa) = 49.49995 86.35623 73.48727
#
# Poissons Ratio (x) = 0.58934 -0.08183
# Poissons Ratio (y) = 0.33782 0.35849
# Poissons Ratio (z) = -0.05512 0.42127
#
# Static dielectric constant tensor:
#      x y z
#    x 1.748460 0.000000 -0.006060 
#    y 0.000000 1.752220 0.000000 
#    z -0.006060 0.000000 1.744540 
# 
# From -- ./inp_files/81533.got.cif
#   From: 2010.05.17/outbox.cif.g08.bks.cpg/sg15_41_cif.got.tgz:81533.got - 2010.06.03 18:47:42.
