data_PCOD9261498
_publ_section_title
;
Structure prediction by ZEFSAII (Michael W. Deem and Ramdas Pophale) SiO2 
 PCOD9261498
Probable space group: C 2/C
;
_chemical_formula_sum "Si O2"
_cell_formula_units_Z 60
_cell_length_a 22.119251
_cell_length_b 5.579676
_cell_length_c 19.399844
_cell_angle_alpha 90.000000
_cell_angle_beta 77.729542
_cell_angle_gamma 90.000000
_cell_volume 2339.597887
_symmetry_space_group_name_H-M "C 2/C"
_symmetry_group_IT_number 15
_symmetry_cell_setting 'monoclinic'
loop_
_space_group_symop_operation_xyz
x,y,z
-x,y,1/2-z
-x,-y,-z
x,-y,1/2+z
1/2+x,1/2+y,z
1/2-x,1/2+y,1/2-z
1/2-x,1/2-y,-z
1/2+x,1/2-y,1/2+z
loop_
_atom_site_type_symbol
_atom_site_label
_atom_site_fract_x
_atom_site_fract_y
_atom_site_fract_z
Si Si1 0.800855 0.010908 0.949145
Si Si2 0.493161 0.097494 0.355328
Si Si3 0.734907 0.937217 0.218219
Si Si4 0.589878 0.983424 0.934010
Si Si5 0.333308 0.993661 0.450554
Si Si6 0.346758 0.482944 0.593702
Si Si7 0.500000 0.475504 0.250000
Si Si8 0.091683 0.622982 0.727446
O O1 0.824453 0.258209 0.911001
O O2 0.834158 0.014718 0.015259
O O3 0.821130 0.756435 0.914435
O O4 0.727392 0.006652 0.981796
O O5 0.482613 0.361728 0.329055
O O6 0.520069 0.044234 0.423251
O O7 0.434290 0.949819 0.341990
O O8 0.549895 0.033589 0.289516
O O9 0.754336 0.664335 0.233359
O O10 0.662073 0.922575 0.224111
O O11 0.780776 0.011955 0.145876
O O12 0.609801 0.991368 0.009647
O O13 0.616854 0.236636 0.898796
O O14 0.619616 0.734284 0.899112
O O15 0.436684 0.618320 0.250770
#
# Coordination Sequence:
#
# PCOD9261498 Si02
#       8
#     8   8   8   8   8   8   4   8
#     4   8  14  26  43  61  93 121 148 175 231 275
#     4   9  18  31  49  66  86 121 153 202 231 276
#     4  12  25  35  49  68  97 127 161 194 227 274
#     4  10  19  30  49  72  97 117 157 189 240 272
#     4   8  14  25  42  67  90 118 143 188 223 281
#     4  10  20  32  45  70  97 128 152 189 229 285
#     4   8  18  32  50  60  86 116 162 196 236 264
#     4   9  20  33  46  65  86 123 159 192 234 271
#
# _framework density 25.645434999999999
#
# number of rings (size 3 to 8) (size 9 to 14) (size 15 to 20)
#    0.000    2.933    0.000    2.400    9.333    0.000 
#    0.000    0.000    0.000    0.000    0.000    0.933 
#    0.000    1.067    0.000    0.667    0.000    0.000 
#
# Total GULP energy -167520.539735 kJ/mol
# GULP energy per Si atom -5584.017991 kJ/mol
# Density = 2.558706 g / cm^3
# Si number density = 25.645435 Si / 1000 Ang^3
#
#
#
# Elastic Constant Matrix: (Units=GPa)
#
#
# Indices 1 2 3 4 5 6 
#
# 1 202.4935 55.3254 10.1809 0.0000 7.6556 0.0000
# 2 55.3254 162.0992 0.2994 0.0000 -4.3687 0.0000
# 3 10.1809 0.2994 49.7858 0.0000 8.5255 0.0000
# 4 0.0000 0.0000 0.0000 19.2481 0.0000 17.9816
# 5 7.6556 -4.3687 8.5255 0.0000 34.5228 0.0000
# 6 0.0000 0.0000 0.0000 17.9816 0.0000 -52.0732
#
#
#
# Elastic Compliance Matrix: (Units=1/GPa)
#
#
# Indices 1 2 3 4 5 6 
#
# 1 0.005559 -0.001929 -0.000911 0.000000 -0.001252 0.000000
# 2 -0.001929 0.006861 0.000137 0.000000 0.001262 0.000000
# 3 -0.000911 0.000137 0.021127 0.000000 -0.004998 0.000000
# 4 0.000000 0.000000 0.000000 0.039281 0.000000 0.013564
# 5 -0.001252 0.001262 -0.004998 0.000000 0.030638 0.000000
# 6 0.000000 0.000000 0.000000 0.013564 0.000000 -0.014520
#
#
# Mechanical properties :
#
#
# Convention : Reuss Voigt Hill
#
# Bulk Modulus (GPa) = 35.53465 60.66556 48.10010
# Shear Modulus (GPa) = 48.20055 23.57771 35.88913
#
# Velocity S-wave (km/s) = 4.34002 3.03540 3.74496
# Velocity P-wave (km/s) = 6.24505 5.99931 6.12341
#
# Compressibility (1/GPa) = 0.02814155
#
# Stress axis : x y z
#
# Youngs Moduli (GPa) = 179.89935 145.74502 47.33198
#
# Poissons Ratio (x) = 0.28118 0.04311
# Poissons Ratio (y) = 0.34707 -0.00649
# Poissons Ratio (z) = 0.16384 -0.01998
#
# Static dielectric constant tensor:
#      x y z
#    x 2.005510 0.000000 -0.006400 
#    y 0.000000 2.234350 0.000000 
#    z -0.006400 0.000000 2.171080 
# 
# From -- ./inp_files/299911.got.cif
#   From: 2010.05.17/outbox.cif.g08.bks.cpg/sg15_150_cif.got.tgz:299911.got - 2010.06.03 18:47:42.
