data_PCOD9261255
_publ_section_title
;
Structure prediction by ZEFSAII (Michael W. Deem and Ramdas Pophale) SiO2 
 PCOD9261255
Probable space group: C 2/C
;
_chemical_formula_sum "Si O2"
_cell_formula_units_Z 56
_cell_length_a 8.750964
_cell_length_b 29.264149
_cell_length_c 11.860444
_cell_angle_alpha 90.000000
_cell_angle_beta 57.082684
_cell_angle_gamma 90.000000
_cell_volume 2549.708369
_symmetry_space_group_name_H-M "C 2/C"
_symmetry_group_IT_number 15
_symmetry_cell_setting 'monoclinic'
loop_
_space_group_symop_operation_xyz
x,y,z
-x,y,1/2-z
-x,-y,-z
x,-y,1/2+z
1/2+x,1/2+y,z
1/2-x,1/2+y,1/2-z
1/2-x,1/2-y,-z
1/2+x,1/2-y,1/2+z
loop_
_atom_site_type_symbol
_atom_site_label
_atom_site_fract_x
_atom_site_fract_y
_atom_site_fract_z
Si Si1 0.488775 0.068723 0.889172
Si Si2 0.285532 0.747918 0.853584
Si Si3 0.985638 0.887810 0.431227
Si Si4 0.712534 0.430052 0.692354
Si Si5 0.151057 0.977980 0.283928
Si Si6 0.131529 0.838843 0.801615
Si Si7 0.207417 0.352764 0.360501
O O1 0.500000 0.060179 0.750000
O O2 0.676751 0.044599 0.847405
O O3 0.524405 0.121628 0.899611
O O4 0.322703 0.055140 0.035895
O O5 0.500000 0.741211 0.750000
O O6 0.221373 0.793216 0.814845
O O7 0.185576 0.701089 0.862282
O O8 0.250000 0.750000 0.000000
O O9 0.978928 0.863907 0.553887
O O10 0.799295 0.873495 0.439035
O O11 0.055271 0.941046 0.405371
O O12 0.142700 0.865637 0.292858
O O13 0.500000 0.423315 0.750000
O O14 0.719131 0.470620 0.783094
O O15 0.770773 0.379764 0.710704
O O16 0.000000 0.984325 0.250000
O O17 0.000000 0.827147 0.750000
#
# Coordination Sequence:
#
# PCOD9261255 Si02
#       7
#     8   8   8   8   8   8   8
#     4  11  24  42  69 105 145 180 240 300 359 424
#     4  12  24  45  73 102 136 185 239 290 354 428
#     4  10  18  42  69 100 129 189 236 288 333 439
#     4  10  25  44  63 103 148 187 231 300 364 422
#     4  10  20  43  74  95 134 191 247 279 348 431
#     4  11  26  42  66 103 152 174 233 296 363 409
#     4  10  20  40  72  97 132 184 243 280 343 431
#
# _framework density 21.963297000000001
#
# number of rings (size 3 to 8) (size 9 to 14) (size 15 to 20)
#    0.000    1.429    5.714    0.429   10.000    1.143 
#    2.571    3.571    0.000    0.000    0.000    0.000 
#    0.000    0.000    0.000    0.000    0.000    0.000 
#
# Total GULP energy -156008.870191 kJ/mol
# GULP energy per Si atom -5571.745364 kJ/mol
# Density = 2.191331 g / cm^3
# Si number density = 21.963297 Si / 1000 Ang^3
#
#
#
# Elastic Constant Matrix: (Units=GPa)
#
#
# Indices 1 2 3 4 5 6 
#
# 1 31.3185 13.5627 26.2614 0.0000 3.4212 0.0000
# 2 13.5627 168.9410 10.4482 0.0000 9.2895 0.0000
# 3 26.2614 10.4482 119.2038 0.0000 4.4324 0.0000
# 4 0.0000 0.0000 0.0000 28.3886 0.0000 42.8647
# 5 3.4212 9.2895 4.4324 0.0000 32.0900 0.0000
# 6 0.0000 0.0000 0.0000 42.8647 0.0000 166.6854
#
#
#
# Elastic Compliance Matrix: (Units=1/GPa)
#
#
# Indices 1 2 3 4 5 6 
#
# 1 0.040536 -0.002590 -0.008615 0.000000 -0.002382 0.000000
# 2 -0.002590 0.006206 0.000084 0.000000 -0.001532 0.000000
# 3 -0.008615 0.000084 0.010299 0.000000 -0.000528 0.000000
# 4 0.000000 0.000000 0.000000 0.057585 0.000000 -0.014809
# 5 -0.002382 -0.001532 -0.000528 0.000000 0.031933 0.000000
# 6 0.000000 0.000000 0.000000 -0.014809 0.000000 0.009807
#
#
# Mechanical properties :
#
#
# Convention : Reuss Voigt Hill
#
# Bulk Modulus (GPa) = 28.73716 46.66753 37.70235
# Shear Modulus (GPa) = 26.28690 63.37887 44.83289
#
# Velocity S-wave (km/s) = 3.46331 5.37767 4.52294
# Velocity P-wave (km/s) = 5.39493 7.73649 6.66928
#
# Compressibility (1/GPa) = 0.03479815
#
# Stress axis : x y z
#
# Youngs Moduli (GPa) = 24.66970 161.12782 97.09521
#
# Poissons Ratio (x) = 0.41740 0.83644
# Poissons Ratio (y) = 0.06391 -0.00813
# Poissons Ratio (z) = 0.21252 -0.01348
#
# Static dielectric constant tensor:
#      x y z
#    x 1.953510 0.000000 0.104530 
#    y 0.000000 1.985610 0.000000 
#    z 0.104530 0.000000 1.878350 
# 
# From -- ./inp_files/82491.got.cif
#   From: 2010.05.17/outbox.cif.g08.bks.cpg/sg15_42_cif.got.tgz:82491.got - 2010.06.03 18:47:42.
