data_PCOD9261074
_publ_section_title
;
Structure prediction by ZEFSAII (Michael W. Deem and Ramdas Pophale) SiO2 
 PCOD9261074
Probable space group: C 2/C
;
_chemical_formula_sum "Si O2"
_cell_formula_units_Z 60
_cell_length_a 19.332922
_cell_length_b 10.372660
_cell_length_c 27.017101
_cell_angle_alpha 90.000000
_cell_angle_beta 146.624921
_cell_angle_gamma 90.000000
_cell_volume 2980.450423
_symmetry_space_group_name_H-M "C 2/C"
_symmetry_group_IT_number 15
_symmetry_cell_setting 'monoclinic'
loop_
_space_group_symop_operation_xyz
x,y,z
-x,y,1/2-z
-x,-y,-z
x,-y,1/2+z
1/2+x,1/2+y,z
1/2-x,1/2+y,1/2-z
1/2-x,1/2-y,-z
1/2+x,1/2-y,1/2+z
loop_
_atom_site_type_symbol
_atom_site_label
_atom_site_fract_x
_atom_site_fract_y
_atom_site_fract_z
Si Si1 0.381689 0.908160 0.750786
Si Si2 0.051265 0.122769 0.728711
Si Si3 0.341836 0.900001 0.403938
Si Si4 0.984813 0.503801 0.076038
Si Si5 0.500000 0.116614 0.750000
Si Si6 0.890702 0.106877 0.444478
Si Si7 0.685028 0.619200 0.984026
Si Si8 0.847253 0.357922 0.070559
O O1 0.424033 0.776113 0.750906
O O2 0.232555 0.926455 0.661632
O O3 0.449100 0.906237 0.844052
O O4 0.430126 0.024638 0.746773
O O5 0.194761 0.082917 0.803979
O O6 0.000000 0.070491 0.750000
O O7 0.944288 0.099060 0.623862
O O8 0.415903 0.980774 0.407701
O O9 0.405655 0.757597 0.438985
O O10 0.365374 0.943059 0.474667
O O11 0.945329 0.379277 0.084436
O O12 0.593667 0.187263 0.842194
O O13 0.850159 0.117628 0.478428
O O14 0.000000 0.000000 0.500000
O O15 0.750000 0.750000 0.000000
O O16 0.781471 0.498826 0.036391
O O17 0.750000 0.250000 0.000000
#
# Coordination Sequence:
#
# PCOD9261074 Si02
#       8
#     8   8   8   8   4   8   8   8
#     4  10  19  37  64  91 121 164 209 259 318 383
#     4  11  21  36  66  98 127 153 223 274 321 373
#     4  10  23  41  60  93 126 171 204 267 321 396
#     4  10  22  41  63  84 130 168 213 244 334 393
#     4  10  18  40  62  88 118 166 208 248 320 384
#     4  11  24  38  65  92 131 158 219 270 326 379
#     4  12  23  42  72  99 129 170 226 278 332 389
#     4  11  24  41  67  92 129 168 216 270 327 390
#
# _framework density 20.131184000000001
#
# number of rings (size 3 to 8) (size 9 to 14) (size 15 to 20)
#    0.000    1.333    2.000    5.600    3.733    0.000 
#    3.600    0.000    0.000    0.000    0.000    0.000 
#    0.000    0.000    0.000    0.000    0.000    0.000 
#
# Total GULP energy -167171.385134 kJ/mol
# GULP energy per Si atom -5572.379504 kJ/mol
# Density = 2.008536 g / cm^3
# Si number density = 20.131184 Si / 1000 Ang^3
#
#
#
# Elastic Constant Matrix: (Units=GPa)
#
#
# Indices 1 2 3 4 5 6 
#
# 1 76.3362 8.0010 29.3537 0.0000 -2.6897 0.0000
# 2 8.0010 25.6214 9.1370 0.0000 0.3119 0.0000
# 3 29.3537 9.1370 156.1745 0.0000 -14.3830 0.0000
# 4 0.0000 0.0000 0.0000 36.7723 0.0000 2.9656
# 5 -2.6897 0.3119 -14.3830 0.0000 22.8355 0.0000
# 6 0.0000 0.0000 0.0000 2.9656 0.0000 11.8903
#
#
#
# Elastic Compliance Matrix: (Units=1/GPa)
#
#
# Indices 1 2 3 4 5 6 
#
# 1 0.014442 -0.003626 -0.002485 0.000000 0.000185 0.000000
# 2 -0.003626 0.040870 -0.001911 0.000000 -0.002189 0.000000
# 3 -0.002485 -0.001911 0.007386 0.000000 0.004385 0.000000
# 4 0.000000 0.000000 0.000000 0.027753 0.000000 -0.006922
# 5 0.000185 -0.002189 0.004385 0.000000 0.046605 0.000000
# 6 0.000000 0.000000 0.000000 -0.006922 0.000000 0.085828
#
#
# Mechanical properties :
#
#
# Convention : Reuss Voigt Hill
#
# Bulk Modulus (GPa) = 21.43454 39.01282 30.22368
# Shear Modulus (GPa) = 19.64783 28.40898 24.02841
#
# Velocity S-wave (km/s) = 3.12747 3.76066 3.45859
# Velocity P-wave (km/s) = 4.86950 6.18693 5.56732
#
# Compressibility (1/GPa) = 0.04665367
#
# Stress axis : x y z
#
# Youngs Moduli (GPa) = 69.24162 24.46754 135.39288
#
# Poissons Ratio (x) = 0.08872 0.33649
# Poissons Ratio (y) = 0.25107 0.25877
# Poissons Ratio (z) = 0.17208 0.04676
#
# Static dielectric constant tensor:
#      x y z
#    x 1.713880 0.000000 0.015810 
#    y 0.000000 1.723090 0.000000 
#    z 0.015810 0.000000 1.859070 
# 
# From -- ./inp_files/298964.got.cif
#   From: 2010.05.17/outbox.cif.g08.bks.cpg/sg15_150_cif.got.tgz:298964.got - 2010.06.03 18:47:42.
