data_PCOD9261754
_publ_section_title
;
Structure prediction by ZEFSAII (Michael W. Deem and Ramdas Pophale) SiO2 
 PCOD9261754
Probable space group: C 2/C
;
_chemical_formula_sum "Si O2"
_cell_formula_units_Z 56
_cell_length_a 24.754187
_cell_length_b 12.983471
_cell_length_c 8.482446
_cell_angle_alpha 90.000000
_cell_angle_beta 108.451325
_cell_angle_gamma 90.000000
_cell_volume 2586.070986
_symmetry_space_group_name_H-M "C 2/C"
_symmetry_group_IT_number 15
_symmetry_cell_setting 'monoclinic'
loop_
_space_group_symop_operation_xyz
x,y,z
-x,y,1/2-z
-x,-y,-z
x,-y,1/2+z
1/2+x,1/2+y,z
1/2-x,1/2+y,1/2-z
1/2-x,1/2-y,-z
1/2+x,1/2-y,1/2+z
loop_
_atom_site_type_symbol
_atom_site_label
_atom_site_fract_x
_atom_site_fract_y
_atom_site_fract_z
Si Si1 0.078477 0.657538 0.013105
Si Si2 0.793088 0.379254 0.479556
Si Si3 0.025320 0.257143 0.938664
Si Si4 0.082356 0.451977 0.856438
Si Si5 0.848372 0.794199 0.872800
Si Si6 0.808696 0.689772 0.532062
Si Si7 0.757777 0.042752 0.238943
O O1 0.082412 0.591316 0.178774
O O2 0.025960 0.735415 0.984476
O O3 0.069325 0.571607 0.869322
O O4 0.139239 0.712135 0.039822
O O5 0.855186 0.430619 0.518631
O O6 0.810608 0.258831 0.476687
O O7 0.749485 0.421721 0.304442
O O8 0.770206 0.414358 0.627987
O O9 0.042159 0.376578 0.919330
O O10 0.000000 0.216767 0.750000
O O11 0.084678 0.201556 0.031410
O O12 0.839293 0.710548 0.725590
O O13 0.819361 0.902141 0.795591
O O14 0.750000 0.750000 0.500000
O O15 0.780826 0.586697 0.438697
#
# Coordination Sequence:
#
# PCOD9261754 Si02
#       7
#     8   8   8   8   8   8   8
#     4  11  20  34  52  77 117 156 195 229 290 351
#     4  11  19  34  58  82 120 163 191 244 309 353
#     4   9  21  37  54  80 118 160 202 237 292 347
#     4  10  19  31  52  80 112 156 192 230 273 363
#     4  10  23  38  57  87 122 157 206 252 289 360
#     4  10  21  35  52  79 118 152 192 246 288 346
#     4  11  21  37  58  87 123 156 199 246 305 363
#
# _framework density 21.65447
#
# number of rings (size 3 to 8) (size 9 to 14) (size 15 to 20)
#    0.000    1.714    2.857    1.714    4.000    0.571 
#    0.000    0.000    0.000    0.000    0.000    1.000 
#    0.000    0.143    0.000    0.000    0.000    0.000 
#
# Total GULP energy -155980.865035 kJ/mol
# GULP energy per Si atom -5570.745180 kJ/mol
# Density = 2.160518 g / cm^3
# Si number density = 21.654470 Si / 1000 Ang^3
#
#
#
# Elastic Constant Matrix: (Units=GPa)
#
#
# Indices 1 2 3 4 5 6 
#
# 1 150.6413 30.2759 35.1396 0.0000 29.5059 0.0000
# 2 30.2759 36.6542 10.8792 0.0000 15.6780 0.0000
# 3 35.1396 10.8792 84.8086 0.0000 21.5069 0.0000
# 4 0.0000 0.0000 0.0000 11.5192 0.0000 7.8286
# 5 29.5059 15.6780 21.5069 0.0000 45.7798 0.0000
# 6 0.0000 0.0000 0.0000 7.8286 0.0000 29.4456
#
#
#
# Elastic Compliance Matrix: (Units=1/GPa)
#
#
# Indices 1 2 3 4 5 6 
#
# 1 0.008791 -0.005415 -0.002249 0.000000 -0.002755 0.000000
# 2 -0.005415 0.035470 -0.000126 0.000000 -0.008598 0.000000
# 3 -0.002249 -0.000126 0.014033 0.000000 -0.005100 0.000000
# 4 0.000000 0.000000 0.000000 0.105956 0.000000 -0.028170
# 5 -0.002755 -0.008598 -0.005100 0.000000 0.028959 0.000000
# 6 0.000000 0.000000 0.000000 -0.028170 0.000000 0.041450
#
#
# Mechanical properties :
#
#
# Convention : Reuss Voigt Hill
#
# Bulk Modulus (GPa) = 23.41240 47.18815 35.30027
# Shear Modulus (GPa) = 18.90523 30.40289 24.65406
#
# Velocity S-wave (km/s) = 2.95793 3.75106 3.37786
# Velocity P-wave (km/s) = 4.74353 6.37176 5.61696
#
# Compressibility (1/GPa) = 0.04271242
#
# Stress axis : x y z
#
# Youngs Moduli (GPa) = 113.75445 28.19295 71.26285
#
# Poissons Ratio (x) = 0.15267 0.16028
# Poissons Ratio (y) = 0.61602 0.00898
# Poissons Ratio (z) = 0.25585 0.00355
#
# Static dielectric constant tensor:
#      x y z
#    x 1.840860 0.000000 -0.037240 
#    y 0.000000 1.948930 0.000000 
#    z -0.037240 0.000000 1.890720 
# 
# From -- ./inp_files/61471.got.cif
#   From: 2010.05.17/outbox.cif.g08.bks.cpg/sg15_31_cif.got.tgz:61471.got - 2010.06.03 18:47:42.
