data_PCOD9261979
_publ_section_title
;
Structure prediction by ZEFSAII (Michael W. Deem and Ramdas Pophale) SiO2 
 PCOD9261979
Probable space group: C 2/C
;
_chemical_formula_sum "Si O2"
_cell_formula_units_Z 56
_cell_length_a 24.642339
_cell_length_b 12.378923
_cell_length_c 10.662792
_cell_angle_alpha 90.000000
_cell_angle_beta 138.293036
_cell_angle_gamma 90.000000
_cell_volume 2164.048668
_symmetry_space_group_name_H-M "C 2/C"
_symmetry_group_IT_number 15
_symmetry_cell_setting 'monoclinic'
loop_
_space_group_symop_operation_xyz
x,y,z
-x,y,1/2-z
-x,-y,-z
x,-y,1/2+z
1/2+x,1/2+y,z
1/2-x,1/2+y,1/2-z
1/2-x,1/2-y,-z
1/2+x,1/2-y,1/2+z
loop_
_atom_site_type_symbol
_atom_site_label
_atom_site_fract_x
_atom_site_fract_y
_atom_site_fract_z
Si Si1 0.777908 0.617339 0.163256
Si Si2 0.838677 0.865909 0.266405
Si Si3 0.310180 0.676763 0.982171
Si Si4 0.014634 0.829737 0.143262
Si Si5 0.174707 0.831160 0.720221
Si Si6 0.063328 0.404423 0.681591
Si Si7 0.435711 0.872905 0.240068
O O1 0.812921 0.739568 0.229420
O O2 0.718832 0.608081 0.181015
O O3 0.864983 0.562158 0.293722
O O4 0.728071 0.598230 0.949970
O O5 0.841692 0.890999 0.419141
O O6 0.926897 0.884371 0.356992
O O7 0.307639 0.621022 0.112155
O O8 0.361937 0.788440 0.096046
O O9 0.218958 0.715048 0.793265
O O10 0.062383 0.714162 0.246554
O O11 0.000000 0.887802 0.250000
O O12 0.921581 0.818256 0.943600
O O13 0.076799 0.499109 0.806312
O O14 0.983941 0.386268 0.455755
O O15 0.500000 0.829768 0.250000
#
# Coordination Sequence:
#
# PCOD9261979 Si02
#       7
#     8   8   8   8   8   8   8
#     4   9  17  34  49  74 102 138 184 226 275 314
#     4   9  18  30  50  72 105 136 172 228 276 317
#     4  10  21  33  50  74 108 148 180 217 275 329
#     4  11  18  30  50  79 103 135 180 226 265 318
#     4  10  19  32  51  76 104 140 178 230 275 316
#     4  10  22  33  53  74 111 154 186 221 263 333
#     4  11  20  36  49  76 112 156 188 213 263 337
#
# _framework density 25.877421999999999
#
# number of rings (size 3 to 8) (size 9 to 14) (size 15 to 20)
#    0.000    2.000    2.857    3.000    2.000    0.000 
#    0.000    0.000    0.000    0.000    0.000    1.000 
#    0.000    3.143    0.000    0.286    0.000    0.000 
#
# Total GULP energy -155980.419709 kJ/mol
# GULP energy per Si atom -5570.729275 kJ/mol
# Density = 2.581852 g / cm^3
# Si number density = 25.877422 Si / 1000 Ang^3
#
#
#
# Elastic Constant Matrix: (Units=GPa)
#
#
# Indices 1 2 3 4 5 6 
#
# 1 200.8241 20.9952 72.0340 0.0000 -2.2674 0.0000
# 2 20.9952 68.0624 3.0974 0.0000 11.3814 0.0000
# 3 72.0340 3.0974 126.2845 0.0000 13.1307 0.0000
# 4 0.0000 0.0000 0.0000 -61.5789 0.0000 28.3201
# 5 -2.2674 11.3814 13.1307 0.0000 56.9235 0.0000
# 6 0.0000 0.0000 0.0000 28.3201 0.0000 -10.3939
#
#
#
# Elastic Compliance Matrix: (Units=1/GPa)
#
#
# Indices 1 2 3 4 5 6 
#
# 1 0.006613 -0.002128 -0.003885 0.000000 0.001585 0.000000
# 2 -0.002128 0.015886 0.001192 0.000000 -0.003536 0.000000
# 3 -0.003885 0.001192 0.010396 0.000000 -0.002791 0.000000
# 4 0.000000 0.000000 0.000000 0.064168 0.000000 0.174836
# 5 0.001585 -0.003536 -0.002791 0.000000 0.018981 0.000000
# 6 0.000000 0.000000 0.000000 0.174836 0.000000 0.380163
#
#
# Mechanical properties :
#
#
# Convention : Reuss Voigt Hill
#
# Bulk Modulus (GPa) = 43.00610 65.26936 54.13773
# Shear Modulus (GPa) = 9.73520 16.92642 13.33081
#
# Velocity S-wave (km/s) = 1.94170 2.56031 2.27216
# Velocity P-wave (km/s) = 4.65641 5.83246 5.27730
#
# Compressibility (1/GPa) = 0.02325251
#
# Stress axis : x y z
#
# Youngs Moduli (GPa) = 151.20846 62.94866 96.19430
#
# Poissons Ratio (x) = 0.13397 0.37371
# Poissons Ratio (y) = 0.32182 -0.11467
# Poissons Ratio (z) = 0.58744 -0.07504
#
# Static dielectric constant tensor:
#      x y z
#    x 2.157830 0.000000 -0.052200 
#    y 0.000000 3.896430 0.000000 
#    z -0.052200 0.000000 2.184640 
# 
# From -- ./inp_files/119281.got.cif
#   From: 2010.05.17/outbox.cif.g08.bks.cpg/sg15_60_cif.got.tgz:119281.got - 2010.06.03 18:47:42.
