data_PCOD9261109
_publ_section_title
;
Structure prediction by ZEFSAII (Michael W. Deem and Ramdas Pophale) SiO2 
 PCOD9261109
Probable space group: C 2/C
;
_chemical_formula_sum "Si O2"
_cell_formula_units_Z 52
_cell_length_a 13.874824
_cell_length_b 13.186915
_cell_length_c 18.002157
_cell_angle_alpha 90.000000
_cell_angle_beta 141.008342
_cell_angle_gamma 90.000000
_cell_volume 2072.473293
_symmetry_space_group_name_H-M "C 2/C"
_symmetry_group_IT_number 15
_symmetry_cell_setting 'monoclinic'
loop_
_space_group_symop_operation_xyz
x,y,z
-x,y,1/2-z
-x,-y,-z
x,-y,1/2+z
1/2+x,1/2+y,z
1/2-x,1/2+y,1/2-z
1/2-x,1/2-y,-z
1/2+x,1/2-y,1/2+z
loop_
_atom_site_type_symbol
_atom_site_label
_atom_site_fract_x
_atom_site_fract_y
_atom_site_fract_z
Si Si1 0.000000 0.659073 0.750000
Si Si2 0.665960 0.351180 0.062512
Si Si3 0.222868 0.419345 0.655598
Si Si4 0.447950 0.984292 0.083994
Si Si5 0.202519 0.922151 0.525497
Si Si6 0.672785 0.288401 0.651420
Si Si7 0.615019 0.390337 0.205973
O O1 0.171751 0.703482 0.858898
O O2 0.985912 0.588081 0.813469
O O3 0.649318 0.386632 0.138252
O O4 0.663942 0.458481 0.016983
O O5 0.511681 0.287225 0.955191
O O6 0.166012 0.421801 0.537541
O O7 0.266489 0.323683 0.731782
O O8 0.359554 0.499310 0.745357
O O9 0.082695 0.469532 0.616727
O O10 0.355926 0.073478 0.070016
O O11 0.215131 0.869526 0.613159
O O12 0.065149 0.867737 0.398927
O O13 0.761311 0.185611 0.685203
#
# Coordination Sequence:
#
# PCOD9261109 Si02
#       7
#     4   8   8   8   8   8   8
#     4  10  18  40  64  94 122 178 228 266 332 416
#     4  10  19  40  69  89 127 183 223 265 336 404
#     4  11  21  42  62  99 131 174 218 286 330 389
#     4  10  22  35  69  90 133 174 221 271 339 383
#     4  10  20  42  66  95 127 188 220 264 335 410
#     4  11  22  39  69  98 131 174 228 270 336 402
#     4  11  21  39  67  98 135 173 222 274 331 407
#
# _framework density 25.090793999999999
#
# number of rings (size 3 to 8) (size 9 to 14) (size 15 to 20)
#    0.000    1.538    4.615    1.846    0.000    5.538 
#    0.000    5.385    3.385    0.000    0.000    0.000 
#    0.000    0.000    0.000    0.000    0.000    0.000 
#
# Total GULP energy -145478.586088 kJ/mol
# GULP energy per Si atom -5595.330234 kJ/mol
# Density = 2.503369 g / cm^3
# Si number density = 25.090794 Si / 1000 Ang^3
#
#
#
# Elastic Constant Matrix: (Units=GPa)
#
#
# Indices 1 2 3 4 5 6 
#
# 1 74.0534 -3.7534 37.0190 0.0002 -5.8598 0.0001
# 2 -3.7534 52.2669 2.0438 0.0001 -12.9180 0.0000
# 3 37.0190 2.0438 113.4994 0.0003 4.2159 0.0002
# 4 0.0002 0.0001 0.0003 19.4145 0.0002 -1.7973
# 5 -5.8598 -12.9180 4.2159 0.0002 25.1018 0.0001
# 6 0.0001 0.0000 0.0002 -1.7973 0.0001 7.6275
#
#
#
# Elastic Compliance Matrix: (Units=1/GPa)
#
#
# Indices 1 2 3 4 5 6 
#
# 1 0.017122 0.003084 -0.005884 0.000000 0.006572 0.000000
# 2 0.003084 0.022552 -0.001882 0.000000 0.012642 0.000000
# 3 -0.005884 -0.001882 0.010919 0.000000 -0.004176 0.000000
# 4 0.000000 0.000000 0.000000 0.052657 -0.000001 0.012408
# 5 0.006572 0.012642 -0.004176 -0.000001 0.048579 -0.000001
# 6 0.000000 0.000000 0.000000 0.012408 -0.000001 0.134028
#
#
# Mechanical properties :
#
#
# Convention : Reuss Voigt Hill
#
# Bulk Modulus (GPa) = 24.25470 34.49319 29.37394
# Shear Modulus (GPa) = 16.18317 24.06277 20.12297
#
# Velocity S-wave (km/s) = 2.54241 3.10018 2.83504
# Velocity P-wave (km/s) = 4.27858 5.15674 4.73805
#
# Compressibility (1/GPa) = 0.04122913
#
# Stress axis : x y z
#
# Youngs Moduli (GPa) = 58.40604 44.34179 91.58570
#
# Poissons Ratio (x) = -0.13675 0.53889
# Poissons Ratio (y) = -0.18012 0.17232
# Poissons Ratio (z) = 0.34366 0.08343
#
# Static dielectric constant tensor:
#      x y z
#    x 1.955060 0.000000 0.032740 
#    y 0.000000 2.022650 0.000000 
#    z 0.032740 0.000000 1.991320 
# 
# From -- ./inp_files/205770.got.cif
#   From: 2010.05.17/outbox.cif.g08.bks.cpg/sg15_103_cif.got.tgz:205770.got - 2010.06.03 18:47:42.
