data_PCOD9261185
_publ_section_title
;
Structure prediction by ZEFSAII (Michael W. Deem and Ramdas Pophale) SiO2 
 PCOD9261185
Probable space group: C 2/C
;
_chemical_formula_sum "Si O2"
_cell_formula_units_Z 44
_cell_length_a 27.244417
_cell_length_b 7.367268
_cell_length_c 23.464289
_cell_angle_alpha 90.000000
_cell_angle_beta 161.027846
_cell_angle_gamma 90.000000
_cell_volume 1531.157376
_symmetry_space_group_name_H-M "C 2/C"
_symmetry_group_IT_number 15
_symmetry_cell_setting 'monoclinic'
loop_
_space_group_symop_operation_xyz
x,y,z
-x,y,1/2-z
-x,-y,-z
x,-y,1/2+z
1/2+x,1/2+y,z
1/2-x,1/2+y,1/2-z
1/2-x,1/2-y,-z
1/2+x,1/2-y,1/2+z
loop_
_atom_site_type_symbol
_atom_site_label
_atom_site_fract_x
_atom_site_fract_y
_atom_site_fract_z
Si Si1 0.543319 0.844702 0.999630
Si Si2 0.000000 0.938484 0.250000
Si Si3 0.256635 0.111974 0.341716
Si Si4 0.175705 0.193276 0.359415
Si Si5 0.272632 0.093542 0.124058
Si Si6 0.917096 0.034118 0.979211
O O1 0.687922 0.935942 0.129568
O O2 0.818184 0.781189 0.372669
O O3 0.417031 0.810806 0.811980
O O4 0.500000 0.000000 0.000000
O O5 0.946481 0.055665 0.246205
O O6 0.154935 0.844861 0.445224
O O7 0.313071 0.117289 0.469174
O O8 0.068274 0.137661 0.048949
O O9 0.084240 0.105692 0.175474
O O10 0.250000 0.250000 0.500000
O O11 0.154590 0.397717 0.310522
O O12 0.168356 0.069150 0.064657
#
# Coordination Sequence:
#
# PCOD9261185 Si02
#       6
#     8   4   8   8   8   8
#     4  12  29  52  76 118 165 221 274 342 420 501
#     4  10  18  40  76 116 156 208 270 330 416 490
#     4  11  23  48  79 115 161 217 273 347 409 495
#     4   9  19  35  73 110 153 206 262 325 412 491
#     4  10  22  44  74 112 155 206 272 333 398 490
#     4  11  24  50  81 111 165 206 277 336 412 492
#
# _framework density 28.736432000000001
#
# number of rings (size 3 to 8) (size 9 to 14) (size 15 to 20)
#    0.000    1.455    1.818    3.273    5.091    0.727 
#   19.636    0.909    4.000    3.273    0.000    0.000 
#    0.000    0.000    0.000    0.000    0.000    0.000 
#
# Total GULP energy -122599.518076 kJ/mol
# GULP energy per Si atom -5572.705367 kJ/mol
# Density = 2.867103 g / cm^3
# Si number density = 28.736432 Si / 1000 Ang^3
#
#
#
# Elastic Constant Matrix: (Units=GPa)
#
#
# Indices 1 2 3 4 5 6 
#
# 1 108.2748 60.9118 13.0987 0.0001 -6.8992 0.0001
# 2 60.9118 197.7743 59.8414 0.0001 12.7933 0.0001
# 3 13.0987 59.8414 134.6474 0.0001 37.4094 0.0002
# 4 0.0001 0.0001 0.0001 34.8688 0.0001 16.6665
# 5 -6.8992 12.7933 37.4094 0.0001 44.6187 0.0001
# 6 0.0001 0.0001 0.0002 16.6665 0.0001 50.4931
#
#
#
# Elastic Compliance Matrix: (Units=1/GPa)
#
#
# Indices 1 2 3 4 5 6 
#
# 1 0.011529 -0.003640 -0.000377 0.000000 0.003142 0.000000
# 2 -0.003640 0.007006 -0.002666 0.000000 -0.000336 0.000000
# 3 -0.000377 -0.002666 0.011019 0.000000 -0.008532 0.000000
# 4 0.000000 0.000000 0.000000 0.034051 0.000000 -0.011239
# 5 0.003142 -0.000336 -0.008532 0.000000 0.030148 0.000000
# 6 0.000000 0.000000 0.000000 -0.011239 0.000000 0.023515
#
#
# Mechanical properties :
#
#
# Convention : Reuss Voigt Hill
#
# Bulk Modulus (GPa) = 61.77412 78.71114 70.24263
# Shear Modulus (GPa) = 36.75657 46.45243 41.60450
#
# Velocity S-wave (km/s) = 3.58032 4.02493 3.80912
# Velocity P-wave (km/s) = 6.21571 7.00359 6.62138
#
# Compressibility (1/GPa) = 0.01618801
#
# Stress axis : x y z
#
# Youngs Moduli (GPa) = 86.73465 142.73858 90.75314
#
# Poissons Ratio (x) = 0.51959 0.03420
# Poissons Ratio (y) = 0.31573 0.24195
# Poissons Ratio (z) = 0.03269 0.38055
#
# Static dielectric constant tensor:
#      x y z
#    x 2.591410 0.000000 -0.387600 
#    y 0.000000 3.061790 0.000000 
#    z -0.387600 0.000000 2.611370 
# 
# From -- ./inp_files/257950.got.cif
#   From: 2010.05.17/outbox.cif.g08.bks.cpg/sg15_129_cif.got.tgz:257950.got - 2010.06.03 18:47:42.
