data_PCOD9261235
_publ_section_title
;
Structure prediction by ZEFSAII (Michael W. Deem and Ramdas Pophale) SiO2 
 PCOD9261235
Probable space group: C 2/C
;
_chemical_formula_sum "Si O2"
_cell_formula_units_Z 52
_cell_length_a 26.829432
_cell_length_b 17.418944
_cell_length_c 13.412331
_cell_angle_alpha 90.000000
_cell_angle_beta 160.141225
_cell_angle_gamma 90.000000
_cell_volume 2129.299911
_symmetry_space_group_name_H-M "C 2/C"
_symmetry_group_IT_number 15
_symmetry_cell_setting 'monoclinic'
loop_
_space_group_symop_operation_xyz
x,y,z
-x,y,1/2-z
-x,-y,-z
x,-y,1/2+z
1/2+x,1/2+y,z
1/2-x,1/2+y,1/2-z
1/2-x,1/2-y,-z
1/2+x,1/2-y,1/2+z
loop_
_atom_site_type_symbol
_atom_site_label
_atom_site_fract_x
_atom_site_fract_y
_atom_site_fract_z
Si Si1 0.240986 0.420840 0.594640
Si Si2 0.359214 0.787909 0.624764
Si Si3 0.610086 0.608066 0.334564
Si Si4 0.500000 0.750841 0.250000
Si Si5 0.775326 0.154337 0.357091
Si Si6 0.783195 0.075857 0.761414
Si Si7 0.461570 0.912173 0.958839
O O1 0.333260 0.404720 0.669277
O O2 0.319181 0.389800 0.840270
O O3 0.205495 0.508131 0.557459
O O4 0.081658 0.388420 0.267271
O O5 0.250000 0.750000 0.500000
O O6 0.393337 0.711146 0.627817
O O7 0.277260 0.845213 0.395509
O O8 0.468993 0.845294 0.888338
O O9 0.571762 0.694169 0.300624
O O10 0.721324 0.576286 0.627781
O O11 0.453663 0.567157 0.052917
O O12 0.636261 0.794949 0.556140
O O13 0.700626 0.097706 0.298356
O O14 0.500000 0.000000 0.000000
#
# Coordination Sequence:
#
# PCOD9261235 Si02
#       7
#     8   8   8   4   8   8   8
#     4  12  24  39  69 102 135 180 235 289 352 428
#     4  10  21  40  70  93 134 189 226 285 361 422
#     4  10  23  40  69  94 128 175 229 285 345 414
#     4  10  18  42  64  84 126 168 230 276 340 402
#     4  11  22  43  67  98 137 190 233 288 351 425
#     4  10  21  43  66  94 135 176 228 291 352 413
#     4  11  23  40  67 104 138 180 230 290 361 426
#
# _framework density 24.421171999999999
#
# number of rings (size 3 to 8) (size 9 to 14) (size 15 to 20)
#    0.000    1.538    6.154    0.462    2.154    0.615 
#    0.000    0.769    3.385    0.000    0.000    0.000 
#    0.000    0.000    0.000    0.000    0.000    0.000 
#
# Total GULP energy -145188.279377 kJ/mol
# GULP energy per Si atom -5584.164591 kJ/mol
# Density = 2.436559 g / cm^3
# Si number density = 24.421172 Si / 1000 Ang^3
#
#
#
# Elastic Constant Matrix: (Units=GPa)
#
#
# Indices 1 2 3 4 5 6 
#
# 1 137.3581 40.5704 -10.6777 0.0000 -3.0296 0.0000
# 2 40.5704 127.5402 14.6021 0.0000 -9.3339 0.0000
# 3 -10.6777 14.6021 36.2389 0.0000 -13.7564 0.0000
# 4 0.0000 0.0000 0.0000 43.6965 0.0000 -17.0648
# 5 -3.0296 -9.3339 -13.7564 0.0000 29.2796 0.0000
# 6 0.0000 0.0000 0.0000 -17.0648 0.0000 28.4276
#
#
#
# Elastic Compliance Matrix: (Units=1/GPa)
#
#
# Indices 1 2 3 4 5 6 
#
# 1 0.008598 -0.003108 0.004560 0.000000 0.002042 0.000000
# 2 -0.003108 0.009384 -0.004483 0.000000 0.000564 0.000000
# 3 0.004560 -0.004483 0.036976 0.000000 0.016415 0.000000
# 4 0.000000 0.000000 0.000000 0.029893 0.000000 0.017944
# 5 0.002042 0.000564 0.016415 0.000000 0.042257 0.000000
# 6 0.000000 0.000000 0.000000 0.017944 0.000000 0.045949
#
#
# Mechanical properties :
#
#
# Convention : Reuss Voigt Hill
#
# Bulk Modulus (GPa) = 20.45095 43.34743 31.89919
# Shear Modulus (GPa) = 25.58657 37.39023 31.48840
#
# Velocity S-wave (km/s) = 3.24036 3.91712 3.59470
# Velocity P-wave (km/s) = 4.73206 6.18441 5.50633
#
# Compressibility (1/GPa) = 0.04889749
#
# Stress axis : x y z
#
# Youngs Moduli (GPa) = 116.31076 106.56792 27.04459
#
# Poissons Ratio (x) = 0.33117 -0.12334
# Poissons Ratio (y) = 0.36145 0.12123
# Poissons Ratio (z) = -0.53043 0.47772
#
# Static dielectric constant tensor:
#      x y z
#    x 2.002880 0.000000 0.004170 
#    y 0.000000 2.349150 0.000000 
#    z 0.004170 0.000000 1.972520 
# 
# From -- ./inp_files/182913.got.cif
#   From: 2010.05.17/outbox.cif.g08.bks.cpg/sg15_92_cif.got.tgz:182913.got - 2010.06.03 18:47:42.
