data_PCOD9261205
_publ_section_title
;
Structure prediction by ZEFSAII (Michael W. Deem and Ramdas Pophale) SiO2 
 PCOD9261205
Probable space group: C 2/C
;
_chemical_formula_sum "Si O2"
_cell_formula_units_Z 36
_cell_length_a 9.607011
_cell_length_b 24.512981
_cell_length_c 7.350069
_cell_angle_alpha 90.000000
_cell_angle_beta 110.424555
_cell_angle_gamma 90.000000
_cell_volume 1622.097072
_symmetry_space_group_name_H-M "C 2/C"
_symmetry_group_IT_number 15
_symmetry_cell_setting 'monoclinic'
loop_
_space_group_symop_operation_xyz
x,y,z
-x,y,1/2-z
-x,-y,-z
x,-y,1/2+z
1/2+x,1/2+y,z
1/2-x,1/2+y,1/2-z
1/2-x,1/2-y,-z
1/2+x,1/2-y,1/2+z
loop_
_atom_site_type_symbol
_atom_site_label
_atom_site_fract_x
_atom_site_fract_y
_atom_site_fract_z
Si Si1 0.707340 0.542512 0.204881
Si Si2 0.101636 0.817231 0.968810
Si Si3 0.061090 0.697676 0.980621
Si Si4 0.000000 0.390875 0.750000
Si Si5 0.886096 0.930341 0.429696
O O1 0.855099 0.570919 0.199848
O O2 0.675002 0.564260 0.391979
O O3 0.561258 0.555384 0.017253
O O4 0.706078 0.476584 0.216121
O O5 0.036858 0.761215 0.021313
O O6 0.121515 0.866721 0.118255
O O7 0.000000 0.833253 0.750000
O O8 0.261855 0.807596 0.952484
O O9 0.000000 0.691306 0.750000
O O10 0.996648 0.650907 0.078826
#
# Coordination Sequence:
#
# PCOD9261205 Si02
#       5
#     8   8   8   4   8
#     4  10  22  36  64  89 128 167 223 265 328 388
#     4  10  18  41  66  85 129 182 207 268 335 391
#     4  10  23  39  67  99 130 171 216 273 342 387
#     4  12  22  44  62 106 134 168 220 290 324 402
#     4  10  19  41  60  87 125 181 210 266 324 399
#
# _framework density 22.193491999999999
#
# number of rings (size 3 to 8) (size 9 to 14) (size 15 to 20)
#    0.000    1.778    4.444    0.000    0.000    2.667 
#    2.000   22.222    0.000    0.000    0.000    0.000 
#    0.000    0.000    0.000    0.000    0.000    0.000 
#
# Total GULP energy -100523.624011 kJ/mol
# GULP energy per Si atom -5584.645778 kJ/mol
# Density = 2.214298 g / cm^3
# Si number density = 22.193492 Si / 1000 Ang^3
#
#
#
# Elastic Constant Matrix: (Units=GPa)
#
#
# Indices 1 2 3 4 5 6 
#
# 1 131.1613 70.0478 35.5381 0.0000 -0.9056 0.0000
# 2 70.0478 195.6847 55.1717 0.0000 -4.5914 0.0000
# 3 35.5381 55.1717 54.0095 0.0000 0.8563 0.0000
# 4 0.0000 0.0000 0.0000 28.6168 0.0000 2.9590
# 5 -0.9056 -4.5914 0.8563 0.0000 20.7176 0.0000
# 6 0.0000 0.0000 0.0000 2.9590 0.0000 25.3662
#
#
#
# Elastic Compliance Matrix: (Units=1/GPa)
#
#
# Indices 1 2 3 4 5 6 
#
# 1 0.010040 -0.002429 -0.004126 0.000000 0.000071 0.000000
# 2 -0.002429 0.007840 -0.006441 0.000000 0.001898 0.000000
# 3 -0.004126 -0.006441 0.027853 0.000000 -0.002759 0.000000
# 4 0.000000 0.000000 0.000000 0.035371 0.000000 -0.004126
# 5 0.000071 0.001898 -0.002759 0.000000 0.048806 0.000000
# 6 0.000000 0.000000 0.000000 -0.004126 0.000000 0.039904
#
#
# Mechanical properties :
#
#
# Convention : Reuss Voigt Hill
#
# Bulk Modulus (GPa) = 50.65406 78.04120 64.34763
# Shear Modulus (GPa) = 24.70523 29.61331 27.15927
#
# Velocity S-wave (km/s) = 3.34005 3.65680 3.50201
# Velocity P-wave (km/s) = 6.14393 7.28491 6.73862
#
# Compressibility (1/GPa) = 0.01974176
#
# Stress axis : x y z
#
# Youngs Moduli (GPa) = 99.60316 127.54857 35.90228
#
# Poissons Ratio (x) = 0.30980 0.14814
# Poissons Ratio (y) = 0.24192 0.23124
# Poissons Ratio (z) = 0.41098 0.82151
#
# Static dielectric constant tensor:
#      x y z
#    x 1.832300 0.000000 0.041490 
#    y 0.000000 1.935590 0.000000 
#    z 0.041490 0.000000 1.897180 
# 
# From -- ./inp_files/23838.got.cif
#   From: 2010.05.17/outbox.cif.g08.bks.cpg/sg15_12_cif.got.tgz:23838.got - 2010.06.03 18:47:42.
