data_PCOD9261718
_publ_section_title
;
Structure prediction by ZEFSAII (Michael W. Deem and Ramdas Pophale) SiO2 
 PCOD9261718
Probable space group: C 2/C
;
_chemical_formula_sum "Si O2"
_cell_formula_units_Z 64
_cell_length_a 17.051089
_cell_length_b 16.410766
_cell_length_c 10.908594
_cell_angle_alpha 90.000000
_cell_angle_beta 115.491304
_cell_angle_gamma 90.000000
_cell_volume 2755.303441
_symmetry_space_group_name_H-M "C 2/C"
_symmetry_group_IT_number 15
_symmetry_cell_setting 'monoclinic'
loop_
_space_group_symop_operation_xyz
x,y,z
-x,y,1/2-z
-x,-y,-z
x,-y,1/2+z
1/2+x,1/2+y,z
1/2-x,1/2+y,1/2-z
1/2-x,1/2-y,-z
1/2+x,1/2-y,1/2+z
loop_
_atom_site_type_symbol
_atom_site_label
_atom_site_fract_x
_atom_site_fract_y
_atom_site_fract_z
Si Si1 0.931761 0.923592 0.112487
Si Si2 0.967861 0.902184 0.534468
Si Si3 0.110869 0.250000 0.403539
Si Si4 0.196136 0.078941 0.761364
Si Si5 0.931760 0.576407 0.112487
Si Si6 0.032139 0.402184 0.465532
Si Si7 0.758632 0.750000 0.717506
Si Si8 0.196136 0.578941 0.261363
O O1 0.842721 0.930059 0.127190
O O2 0.000000 0.880703 0.250000
O O3 0.967926 0.013900 0.107951
O O4 0.945698 0.885559 0.987690
O O5 0.943745 0.829415 0.605220
O O6 0.887342 0.913322 0.384923
O O7 0.056254 0.329414 0.394781
O O8 0.152957 0.250000 0.299124
O O9 0.185859 0.250000 0.559617
O O10 0.244675 0.165678 0.781063
O O11 0.250000 1.000000 0.750000
O O12 0.842721 0.569941 0.127190
O O13 0.000000 0.619296 0.250000
O O14 0.945698 0.614440 0.987690
O O15 0.967925 0.486099 0.107951
O O16 0.112658 0.413322 0.615077
O O17 0.744674 0.834322 0.781062
#
# Coordination Sequence:
#
# PCOD9261718 Si02
#       8
#     8   8   8   8   8   8   8   8
#     4   9  18  32  49  70  96 128 162 194 236 288
#     4   9  18  32  50  71  96 126 163 200 236 285
#     4   9  16  29  48  69  95 125 158 202 240 274
#     4  10  19  31  51  74  98 129 159 198 245 283
#     4   9  18  32  49  70  96 128 162 194 236 288
#     4   9  18  32  50  71  96 126 163 200 236 285
#     4   9  18  29  45  74  99 122 163 198 235 292
#     4  10  19  31  51  74  98 129 159 198 245 283
#
# _framework density 23.227931000000002
#
# number of rings (size 3 to 8) (size 9 to 14) (size 15 to 20)
#    0.000    2.750    0.000    1.500    0.000    4.000 
#    0.000    5.625    0.000   15.000    0.000    0.000 
#    0.000    0.000    0.000    0.000    0.000    0.000 
#
# Total GULP energy -178598.808528 kJ/mol
# GULP energy per Si atom -5581.212767 kJ/mol
# Density = 2.317506 g / cm^3
# Si number density = 23.227931 Si / 1000 Ang^3
#
#
#
# Elastic Constant Matrix: (Units=GPa)
#
#
# Indices 1 2 3 4 5 6 
#
# 1 160.0045 75.6411 77.0371 0.0000 -65.2292 0.0000
# 2 75.6411 134.1023 25.4976 0.0000 -47.0663 0.0000
# 3 77.0371 25.4976 84.4652 0.0000 -36.1476 0.0000
# 4 0.0000 0.0000 0.0000 10.3295 0.0000 -3.8931
# 5 -65.2292 -47.0663 -36.1476 0.0000 75.6778 0.0000
# 6 0.0000 0.0000 0.0000 -3.8931 0.0000 35.3848
#
#
#
# Elastic Compliance Matrix: (Units=1/GPa)
#
#
# Indices 1 2 3 4 5 6 
#
# 1 0.016117 -0.005082 -0.010776 0.000000 0.005584 0.000000
# 2 -0.005082 0.011154 0.002969 0.000000 0.003975 0.000000
# 3 -0.010776 0.002969 0.022105 0.000000 0.003117 0.000000
# 4 0.000000 0.000000 0.000000 0.100998 0.000000 0.011112
# 5 0.005584 0.003975 0.003117 0.000000 0.021988 0.000000
# 6 0.000000 0.000000 0.000000 0.011112 0.000000 0.029483
#
#
# Mechanical properties :
#
#
# Convention : Reuss Voigt Hill
#
# Bulk Modulus (GPa) = 42.37537 81.65817 62.01677
# Shear Modulus (GPa) = 21.23238 37.63818 29.43528
#
# Velocity S-wave (km/s) = 3.02667 4.02977 3.56369
# Velocity P-wave (km/s) = 5.52243 7.54212 6.60987
#
# Compressibility (1/GPa) = 0.02359861
#
# Stress axis : x y z
#
# Youngs Moduli (GPa) = 62.04615 89.65274 45.23856
#
# Poissons Ratio (x) = 0.45564 0.48748
# Poissons Ratio (y) = 0.31533 -0.13432
# Poissons Ratio (z) = 0.66860 -0.26620
#
# Static dielectric constant tensor:
#      x y z
#    x 1.926110 0.000000 0.029360 
#    y 0.000000 1.844410 0.000000 
#    z 0.029360 0.000000 1.963770 
# 
# From -- ./inp_files/105719.got.cif
#   From: 2010.05.17/outbox.cif.g08.bks.cpg/sg15_53_cif.got.tgz:105719.got - 2010.06.03 18:47:42.
