data_PCOD9261334
_publ_section_title
;
Structure prediction by ZEFSAII (Michael W. Deem and Ramdas Pophale) SiO2 
 PCOD9261334
Probable space group: C 2/C
;
_chemical_formula_sum "Si O2"
_cell_formula_units_Z 60
_cell_length_a 20.713202
_cell_length_b 31.245947
_cell_length_c 14.754872
_cell_angle_alpha 90.000000
_cell_angle_beta 158.322000
_cell_angle_gamma 90.000000
_cell_volume 3527.454950
_symmetry_space_group_name_H-M "C 2/C"
_symmetry_group_IT_number 15
_symmetry_cell_setting 'monoclinic'
loop_
_space_group_symop_operation_xyz
x,y,z
-x,y,1/2-z
-x,-y,-z
x,-y,1/2+z
1/2+x,1/2+y,z
1/2-x,1/2+y,1/2-z
1/2-x,1/2-y,-z
1/2+x,1/2-y,1/2+z
loop_
_atom_site_type_symbol
_atom_site_label
_atom_site_fract_x
_atom_site_fract_y
_atom_site_fract_z
Si Si1 0.954630 0.199424 0.326877
Si Si2 0.334393 0.515709 0.159596
Si Si3 0.495365 0.932152 0.942257
Si Si4 0.986587 0.363403 0.384159
Si Si5 0.500000 0.958116 0.750000
Si Si6 0.278627 0.613461 0.120765
Si Si7 0.717634 0.497561 0.122823
Si Si8 0.288734 0.219374 0.667108
O O1 0.926831 0.149501 0.309022
O O2 0.866100 0.233305 0.278935
O O3 0.157898 0.208206 0.577244
O O4 0.840735 0.212175 0.088488
O O5 0.331301 0.564039 0.192739
O O6 0.529490 0.496961 0.423777
O O7 0.305343 0.515645 0.012632
O O8 0.170868 0.488634 0.983887
O O9 0.508573 0.889210 0.016368
O O10 0.669118 0.960088 0.185431
O O11 0.471582 0.930650 0.803416
O O12 0.335819 0.960031 0.775705
O O13 0.942925 0.314201 0.348213
O O14 0.156644 0.372675 0.545517
O O15 0.832674 0.380691 0.117260
#
# Coordination Sequence:
#
# PCOD9261334 Si02
#       8
#     8   8   8   8   4   8   8   8
#     4   9  17  28  42  66  97 128 163 182 241 283
#     4  10  19  33  49  73  95 132 165 206 251 305
#     4  10  20  36  48  70  94 134 169 218 251 293
#     4  10  19  31  47  67  97 127 167 200 250 284
#     4  10  22  36  52  64  98 132 178 220 254 284
#     4  10  19  28  46  70  97 128 161 203 234 306
#     4   9  20  32  51  66  99 126 170 208 253 294
#     4   9  17  28  45  63  95 134 156 195 226 300
#
# _framework density 17.009430999999999
#
# number of rings (size 3 to 8) (size 9 to 14) (size 15 to 20)
#    0.000    2.400    1.333    1.600    5.600    4.800 
#    0.000    0.000    0.000    0.000    0.000    0.000 
#    0.000    4.267    0.000    0.000    0.000    0.133 
#
# Total GULP energy -167152.660142 kJ/mol
# GULP energy per Si atom -5571.755338 kJ/mol
# Density = 1.697072 g / cm^3
# Si number density = 17.009431 Si / 1000 Ang^3
#
#
#
# Elastic Constant Matrix: (Units=GPa)
#
#
# Indices 1 2 3 4 5 6 
#
# 1 48.9162 27.1556 17.9298 0.0000 14.8243 0.0000
# 2 27.1556 46.9730 9.8206 0.0000 2.7538 0.0000
# 3 17.9298 9.8206 51.0517 0.0000 19.6472 0.0000
# 4 0.0000 0.0000 0.0000 5.3964 0.0000 1.7204
# 5 14.8243 2.7538 19.6472 0.0000 26.5371 0.0000
# 6 0.0000 0.0000 0.0000 1.7204 0.0000 16.2944
#
#
#
# Elastic Compliance Matrix: (Units=1/GPa)
#
#
# Indices 1 2 3 4 5 6 
#
# 1 0.037916 -0.020323 -0.002891 0.000000 -0.016931 0.000000
# 2 -0.020323 0.033101 -0.003185 0.000000 0.010275 0.000000
# 3 -0.002891 -0.003185 0.028623 0.000000 -0.019246 0.000000
# 4 0.000000 0.000000 0.000000 0.191764 0.000000 -0.020247
# 5 -0.016931 0.010275 -0.019246 0.000000 0.060324 0.000000
# 6 0.000000 0.000000 0.000000 -0.020247 0.000000 0.063508
#
#
# Mechanical properties :
#
#
# Convention : Reuss Voigt Hill
#
# Bulk Modulus (GPa) = 21.34776 28.52812 24.93794
# Shear Modulus (GPa) = 10.33813 15.78123 13.05968
#
# Velocity S-wave (km/s) = 2.46801 3.04927 2.77391
# Velocity P-wave (km/s) = 4.54964 5.40424 4.99525
#
# Compressibility (1/GPa) = 0.04684333
#
# Stress axis : x y z
#
# Youngs Moduli (GPa) = 26.37408 30.21059 34.93735
#
# Poissons Ratio (x) = 0.61396 0.10100
# Poissons Ratio (y) = 0.53599 0.11126
# Poissons Ratio (z) = 0.07625 0.09621
#
# Static dielectric constant tensor:
#      x y z
#    x 1.614770 0.000000 0.022270 
#    y 0.000000 1.562710 0.000000 
#    z 0.022270 0.000000 1.576130 
# 
# From -- ./inp_files/44309.got.cif
#   From: 2010.05.17/outbox.cif.g08.bks.cpg/sg15_23_cif.got.tgz:44309.got - 2010.06.03 18:47:42.
