data_PCOD9261914
_publ_section_title
;
Structure prediction by ZEFSAII (Michael W. Deem and Ramdas Pophale) SiO2 
 PCOD9261914
Probable space group: C 2/C
;
_chemical_formula_sum "Si O2"
_cell_formula_units_Z 56
_cell_length_a 5.398109
_cell_length_b 28.138101
_cell_length_c 18.153696
_cell_angle_alpha 90.000000
_cell_angle_beta 69.076312
_cell_angle_gamma 90.000000
_cell_volume 2575.578723
_symmetry_space_group_name_H-M "C 2/C"
_symmetry_group_IT_number 15
_symmetry_cell_setting 'monoclinic'
loop_
_space_group_symop_operation_xyz
x,y,z
-x,y,1/2-z
-x,-y,-z
x,-y,1/2+z
1/2+x,1/2+y,z
1/2-x,1/2+y,1/2-z
1/2-x,1/2-y,-z
1/2+x,1/2-y,1/2+z
loop_
_atom_site_type_symbol
_atom_site_label
_atom_site_fract_x
_atom_site_fract_y
_atom_site_fract_z
Si Si1 0.500000 0.917842 0.250000
Si Si2 0.507641 0.359312 0.002060
Si Si3 0.233940 0.509193 0.900212
Si Si4 0.439112 0.740789 0.550450
Si Si5 0.000000 0.920723 0.250000
Si Si6 0.872926 0.659364 0.098449
Si Si7 0.788148 0.958543 0.078292
Si Si8 0.804440 0.427021 0.702677
O O1 0.751908 0.889914 0.251604
O O2 0.625820 0.949952 0.172172
O O3 0.337785 0.353341 0.944226
O O4 0.823355 0.353805 0.956235
O O5 0.419959 0.315670 0.064617
O O6 0.438698 0.410130 0.042781
O O7 0.375290 0.544647 0.825240
O O8 0.482959 0.502928 0.928404
O O9 0.130993 0.461891 0.871442
O O10 0.957179 0.534142 0.951690
O O11 0.250000 0.750000 0.500000
O O12 0.362364 0.783845 0.612642
O O13 0.750000 0.750000 0.500000
O O14 0.815484 0.626946 0.174547
O O15 0.500000 0.439205 0.750000
O O16 0.000000 0.435042 0.750000
#
# Coordination Sequence:
#
# PCOD9261914 Si02
#       8
#     4   8   8   8   4   8   8   8
#     4   8  16  26  44  70  99 132 175 212 252 298
#     4  10  19  36  59  85 113 148 182 224 285 341
#     4  10  19  32  49  77 104 143 188 224 261 327
#     4   8  16  32  58  82 104 139 181 219 262 333
#     4   8  14  26  44  62  91 122 179 220 236 292
#     4  10  21  38  57  85 112 141 191 236 275 341
#     4  10  19  32  53  80 112 143 182 229 267 320
#     4  12  24  38  59  82 107 149 194 238 281 322
#
# _framework density 21.742685000000002
#
# number of rings (size 3 to 8) (size 9 to 14) (size 15 to 20)
#    0.000    2.286    0.714    2.571    4.000    0.000 
#    0.000    4.286    1.571    0.000    7.429    0.000 
#    0.000    0.000    0.000    0.000    0.000    0.000 
#
# Total GULP energy -155989.773278 kJ/mol
# GULP energy per Si atom -5571.063331 kJ/mol
# Density = 2.169320 g / cm^3
# Si number density = 21.742685 Si / 1000 Ang^3
#
#
#
# Elastic Constant Matrix: (Units=GPa)
#
#
# Indices 1 2 3 4 5 6 
#
# 1 208.6641 16.5818 26.1627 0.0000 -11.4403 0.0000
# 2 16.5818 84.9428 -0.7487 0.0000 7.5573 0.0000
# 3 26.1627 -0.7487 36.9265 0.0000 3.4139 0.0000
# 4 0.0000 0.0000 0.0000 26.0015 0.0000 1.7483
# 5 -11.4403 7.5573 3.4139 0.0000 34.7999 0.0000
# 6 0.0000 0.0000 0.0000 1.7483 0.0000 32.4032
#
#
#
# Elastic Compliance Matrix: (Units=1/GPa)
#
#
# Indices 1 2 3 4 5 6 
#
# 1 0.005566 -0.001349 -0.004205 0.000000 0.002535 0.000000
# 2 -0.001349 0.012340 0.001509 0.000000 -0.003271 0.000000
# 3 -0.004205 0.001509 0.030526 0.000000 -0.004705 0.000000
# 4 0.000000 0.000000 0.000000 0.038599 0.000000 -0.002083
# 5 0.002535 -0.003271 -0.004705 0.000000 0.030741 0.000000
# 6 0.000000 0.000000 0.000000 -0.002083 0.000000 0.030974
#
#
# Mechanical properties :
#
#
# Convention : Reuss Voigt Hill
#
# Bulk Modulus (GPa) = 24.78907 46.05833 35.42370
# Shear Modulus (GPa) = 29.36265 37.87676 33.61971
#
# Velocity S-wave (km/s) = 3.67885 4.17831 3.93651
# Velocity P-wave (km/s) = 5.42873 6.67136 6.08186
#
# Compressibility (1/GPa) = 0.04034035
#
# Stress axis : x y z
#
# Youngs Moduli (GPa) = 179.66678 81.03505 32.75922
#
# Poissons Ratio (x) = 0.10933 0.13776
# Poissons Ratio (y) = 0.24240 -0.04942
# Poissons Ratio (z) = 0.75553 -0.12224
#
# Static dielectric constant tensor:
#      x y z
#    x 1.930100 0.000000 0.140540 
#    y 0.000000 1.796120 0.000000 
#    z 0.140540 0.000000 1.886790 
# 
# From -- ./inp_files/261649.got.cif
#   From: 2010.05.17/outbox.cif.g08.bks.cpg/sg15_131_cif.got.tgz:261649.got - 2010.06.03 18:47:42.
