data_PCOD9261562
_publ_section_title
;
Structure prediction by ZEFSAII (Michael W. Deem and Ramdas Pophale) SiO2 
 PCOD9261562
Probable space group: C 2/C
;
_chemical_formula_sum "Si O2"
_cell_formula_units_Z 40
_cell_length_a 17.460798
_cell_length_b 17.833257
_cell_length_c 9.340829
_cell_angle_alpha 90.000000
_cell_angle_beta 42.729686
_cell_angle_gamma 90.000000
_cell_volume 1973.585100
_symmetry_space_group_name_H-M "C 2/C"
_symmetry_group_IT_number 15
_symmetry_cell_setting 'monoclinic'
loop_
_space_group_symop_operation_xyz
x,y,z
-x,y,1/2-z
-x,-y,-z
x,-y,1/2+z
1/2+x,1/2+y,z
1/2-x,1/2+y,1/2-z
1/2-x,1/2-y,-z
1/2+x,1/2-y,1/2+z
loop_
_atom_site_type_symbol
_atom_site_label
_atom_site_fract_x
_atom_site_fract_y
_atom_site_fract_z
Si Si1 0.876267 0.720548 0.491480
Si Si2 0.967139 0.879604 0.960748
Si Si3 0.517111 0.211140 0.557472
Si Si4 0.106654 0.034406 0.494029
Si Si5 0.718935 0.861127 0.629542
O O1 0.804686 0.794894 0.559489
O O2 0.816047 0.654569 0.485750
O O3 0.000000 0.730005 0.250000
O O4 0.902383 0.706275 0.622003
O O5 0.934842 0.795100 0.045336
O O6 0.000000 0.873197 0.750000
O O7 0.883497 0.950448 0.080911
O O8 0.070427 0.908995 0.916725
O O9 0.500000 0.204605 0.750000
O O10 0.606490 0.151480 0.376733
O O11 0.215915 0.063225 0.425335
O O12 0.000000 0.035866 0.750000
#
# Coordination Sequence:
#
# PCOD9261562 Si02
#       5
#     8   8   8   8   8
#     4   9  18  31  47  75 109 138 181 221 259 311
#     4   9  19  34  49  74 117 139 166 221 277 317
#     4  10  20  34  49  77 116 140 173 225 272 321
#     4  10  19  33  54  77 110 142 178 221 265 323
#     4  10  19  30  53  78 104 146 187 218 265 314
#
# _framework density 20.267685
#
# number of rings (size 3 to 8) (size 9 to 14) (size 15 to 20)
#    0.000    2.400    2.000    0.600    5.600    0.800 
#    0.000    0.000    0.000    0.000    0.000    8.400 
#    0.000    0.000    0.000    0.000    0.000    0.000 
#
# Total GULP energy -111555.201944 kJ/mol
# GULP energy per Si atom -5577.760097 kJ/mol
# Density = 2.022155 g / cm^3
# Si number density = 20.267685 Si / 1000 Ang^3
#
#
#
# Elastic Constant Matrix: (Units=GPa)
#
#
# Indices 1 2 3 4 5 6 
#
# 1 158.9673 30.2474 35.5252 0.0000 24.0051 0.0000
# 2 30.2474 62.3418 9.2216 0.0000 -2.3561 0.0000
# 3 35.5252 9.2216 44.8367 0.0000 13.1782 0.0000
# 4 0.0000 0.0000 0.0000 7.2154 0.0000 13.5160
# 5 24.0051 -2.3561 13.1782 0.0000 35.2901 0.0000
# 6 0.0000 0.0000 0.0000 13.5160 0.0000 4.4999
#
#
#
# Elastic Compliance Matrix: (Units=1/GPa)
#
#
# Indices 1 2 3 4 5 6 
#
# 1 0.008743 -0.003685 -0.004886 0.000000 -0.004369 0.000000
# 2 -0.003685 0.018323 -0.002185 0.000000 0.004546 0.000000
# 3 -0.004886 -0.002185 0.028857 0.000000 -0.007598 0.000000
# 4 0.000000 0.000000 0.000000 -0.029957 0.000000 0.089979
# 5 -0.004369 0.004546 -0.007598 0.000000 0.034449 0.000000
# 6 0.000000 0.000000 0.000000 0.089979 0.000000 -0.048034
#
#
# Mechanical properties :
#
#
# Convention : Reuss Voigt Hill
#
# Bulk Modulus (GPa) = 29.05908 46.23714 37.64811
# Shear Modulus (GPa) = 110.22170 22.14453 66.18311
#
# Velocity S-wave (km/s) = 7.38248 3.30904 5.72061
# Velocity P-wave (km/s) = 9.32935 6.12066 7.88984
#
# Compressibility (1/GPa) = 0.03441265
#
# Stress axis : x y z
#
# Youngs Moduli (GPa) = 114.37450 54.57525 34.65382
#
# Poissons Ratio (x) = 0.20108 0.16930
# Poissons Ratio (y) = 0.42142 0.07573
# Poissons Ratio (z) = 0.55878 0.11926
#
# Static dielectric constant tensor:
#      x y z
#    x 1.774410 0.000000 0.022450 
#    y 0.000000 1.739120 0.000000 
#    z 0.022450 0.000000 1.743610 
# 
# From -- ./inp_files/40410.got.cif
#   From: 2010.05.17/outbox.cif.g08.bks.cpg/sg15_21_cif.got.tgz:40410.got - 2010.06.03 18:47:42.
