data_PCOD9261657
_publ_section_title
;
Structure prediction by ZEFSAII (Michael W. Deem and Ramdas Pophale) SiO2 
 PCOD9261657
Probable space group: C 2/C
;
_chemical_formula_sum "Si O2"
_cell_formula_units_Z 64
_cell_length_a 18.548050
_cell_length_b 22.990249
_cell_length_c 13.266844
_cell_angle_alpha 90.000000
_cell_angle_beta 136.200721
_cell_angle_gamma 90.000000
_cell_volume 3915.613314
_symmetry_space_group_name_H-M "C 2/C"
_symmetry_group_IT_number 15
_symmetry_cell_setting 'monoclinic'
loop_
_space_group_symop_operation_xyz
x,y,z
-x,y,1/2-z
-x,-y,-z
x,-y,1/2+z
1/2+x,1/2+y,z
1/2-x,1/2+y,1/2-z
1/2-x,1/2-y,-z
1/2+x,1/2-y,1/2+z
loop_
_atom_site_type_symbol
_atom_site_label
_atom_site_fract_x
_atom_site_fract_y
_atom_site_fract_z
Si Si1 0.072568 0.478138 0.232180
Si Si2 0.069952 0.576620 0.514295
Si Si3 0.553463 0.823734 0.693687
Si Si4 0.043498 0.026614 0.185368
Si Si5 0.523908 0.597271 0.969751
Si Si6 0.410945 0.307556 0.244768
Si Si7 0.714578 0.362166 0.538533
Si Si8 0.252788 0.028024 0.951260
O O1 0.082996 0.438228 0.144719
O O2 0.177650 0.494708 0.395866
O O3 0.000000 0.455278 0.250000
O O4 0.016773 0.535595 0.128587
O O5 0.172931 0.558749 0.556267
O O6 0.027257 0.641526 0.457243
O O7 0.500000 0.827799 0.750000
O O8 0.573089 0.755829 0.692503
O O9 0.666849 0.854069 0.807684
O O10 0.166411 0.012502 0.314542
O O11 0.000000 0.042848 0.250000
O O12 0.023224 0.076846 0.084073
O O13 0.990398 0.964965 0.100775
O O14 0.630014 0.630378 0.042241
O O15 0.430923 0.640808 0.843905
O O16 0.500000 0.316599 0.250000
O O17 0.310135 0.313671 0.071830
O O18 0.699533 0.420904 0.460027
#
# Coordination Sequence:
#
# PCOD9261657 Si02
#       8
#     8   8   8   8   8   8   8   8
#     4   9  19  32  47  69 104 133 164 201 244 287
#     4  10  19  31  48  74 100 136 163 202 240 298
#     4  11  19  31  52  76 103 135 165 196 247 300
#     4  11  21  34  52  73  98 135 169 201 248 298
#     4  10  21  34  51  73 102 132 165 206 249 293
#     4   9  19  34  50  74 103 130 163 206 247 294
#     4  11  18  32  48  75 106 129 158 199 249 299
#     4  11  19  30  49  73 105 127 161 200 246 295
#
# _framework density 16.344821
#
# number of rings (size 3 to 8) (size 9 to 14) (size 15 to 20)
#    0.000    1.750    5.000    1.125    1.750    1.000 
#    0.000    0.000    0.000    0.750    0.000    1.750 
#    0.000    0.000    0.000    0.000    0.000    0.000 
#
# Total GULP energy -178217.654623 kJ/mol
# GULP energy per Si atom -5569.301707 kJ/mol
# Density = 1.630762 g / cm^3
# Si number density = 16.344821 Si / 1000 Ang^3
#
#
#
# Elastic Constant Matrix: (Units=GPa)
#
#
# Indices 1 2 3 4 5 6 
#
# 1 63.1170 27.9706 47.0791 0.0000 -10.4695 0.0000
# 2 27.9706 59.8116 25.0707 0.0000 -15.9532 0.0000
# 3 47.0791 25.0707 75.1880 0.0000 -12.8983 0.0000
# 4 0.0000 0.0000 0.0000 21.9573 0.0000 -2.7498
# 5 -10.4695 -15.9532 -12.8983 0.0000 30.5774 0.0000
# 6 0.0000 0.0000 0.0000 -2.7498 0.0000 14.6316
#
#
#
# Elastic Compliance Matrix: (Units=1/GPa)
#
#
# Indices 1 2 3 4 5 6 
#
# 1 0.032568 -0.007879 -0.017849 0.000000 -0.000489 0.000000
# 2 -0.007879 0.023335 -0.001317 0.000000 0.008922 0.000000
# 3 -0.017849 -0.001317 0.025602 0.000000 0.004001 0.000000
# 4 0.000000 0.000000 0.000000 0.046641 0.000000 0.008766
# 5 -0.000489 0.008922 0.004001 0.000000 0.038879 0.000000
# 6 0.000000 0.000000 0.000000 0.008766 0.000000 0.069993
#
#
# Mechanical properties :
#
#
# Convention : Reuss Voigt Hill
#
# Bulk Modulus (GPa) = 36.47679 44.26192 40.36936
# Shear Modulus (GPa) = 16.65306 19.96634 18.30970
#
# Velocity S-wave (km/s) = 3.19542 3.49889 3.35059
# Velocity P-wave (km/s) = 5.99831 6.59256 6.30244
#
# Compressibility (1/GPa) = 0.02741469
#
# Stress axis : x y z
#
# Youngs Moduli (GPa) = 30.70524 42.85350 39.05991
#
# Poissons Ratio (x) = 0.33764 0.69718
# Poissons Ratio (y) = 0.24192 0.05145
# Poissons Ratio (z) = 0.54806 0.05644
#
# Static dielectric constant tensor:
#      x y z
#    x 1.565660 0.000000 0.037660 
#    y 0.000000 1.564770 0.000000 
#    z 0.037660 0.000000 1.579420 
# 
# From -- ./inp_files/114635.got.cif
#   From: 2010.05.17/outbox.cif.g08.bks.cpg/sg15_58_cif.got.tgz:114635.got - 2010.06.03 18:47:42.
