data_PCOD9261917
_publ_section_title
;
Structure prediction by ZEFSAII (Michael W. Deem and Ramdas Pophale) SiO2 
 PCOD9261917
Probable space group: C 2/C
;
_chemical_formula_sum "Si O2"
_cell_formula_units_Z 40
_cell_length_a 15.487234
_cell_length_b 7.929338
_cell_length_c 20.297138
_cell_angle_alpha 90.000000
_cell_angle_beta 143.825501
_cell_angle_gamma 90.000000
_cell_volume 1471.224604
_symmetry_space_group_name_H-M "C 2/C"
_symmetry_group_IT_number 15
_symmetry_cell_setting 'monoclinic'
loop_
_space_group_symop_operation_xyz
x,y,z
-x,y,1/2-z
-x,-y,-z
x,-y,1/2+z
1/2+x,1/2+y,z
1/2-x,1/2+y,1/2-z
1/2-x,1/2-y,-z
1/2+x,1/2-y,1/2+z
loop_
_atom_site_type_symbol
_atom_site_label
_atom_site_fract_x
_atom_site_fract_y
_atom_site_fract_z
Si Si1 0.807400 0.083111 0.169887
Si Si2 0.858368 0.570458 0.038234
Si Si3 0.755318 0.052468 0.898125
Si Si4 0.476515 0.714072 0.385646
Si Si5 0.662899 0.146903 0.212497
O O1 0.816209 0.262129 0.137965
O O2 0.946793 0.093854 0.303719
O O3 0.677673 0.097678 0.144526
O O4 0.765066 0.935607 0.094236
O O5 0.790202 0.561353 0.068359
O O6 0.939789 0.387834 0.077046
O O7 0.994431 0.698165 0.117174
O O8 0.698269 0.978307 0.794897
O O9 0.925115 0.101790 0.006107
O O10 0.312444 0.756005 0.309310
#
# Coordination Sequence:
#
# PCOD9261917 Si02
#       5
#     8   8   8   8   8
#     4   9  20  32  51  77 110 135 168 206 263 308
#     4  11  20  34  55  81 104 132 173 220 256 296
#     4  11  20  34  55  81 104 132 173 220 256 296
#     4   9  20  32  51  77 110 135 168 206 263 308
#     4  10  19  32  49  78 110 136 166 206 265 312
#
# _framework density 27.188233
#
# number of rings (size 3 to 8) (size 9 to 14) (size 15 to 20)
#    1.200    0.800    2.000    4.200    0.000    2.400 
#    0.000    0.000    0.000    0.000    0.000  123.200 
#    0.000    0.000    0.000    0.000    0.000    0.000 
#
# Total GULP energy -111580.035577 kJ/mol
# GULP energy per Si atom -5579.001779 kJ/mol
# Density = 2.712635 g / cm^3
# Si number density = 27.188233 Si / 1000 Ang^3
#
#
#
# Elastic Constant Matrix: (Units=GPa)
#
#
# Indices 1 2 3 4 5 6 
#
# 1 114.9335 31.5904 16.4598 0.0000 -3.0399 0.0000
# 2 31.5904 65.8520 16.8731 0.0000 5.9773 0.0000
# 3 16.4598 16.8731 113.5311 0.0000 -11.8580 0.0000
# 4 0.0000 0.0000 0.0000 1.4301 0.0000 -2.2334
# 5 -3.0399 5.9773 -11.8580 0.0000 38.1561 0.0000
# 6 0.0000 0.0000 0.0000 -2.2334 0.0000 29.9737
#
#
#
# Elastic Compliance Matrix: (Units=1/GPa)
#
#
# Indices 1 2 3 4 5 6 
#
# 1 0.010155 -0.004841 -0.000609 0.000000 0.001378 0.000000
# 2 -0.004841 0.018509 -0.002472 0.000000 -0.004054 0.000000
# 3 -0.000609 -0.002472 0.009611 0.000000 0.003326 0.000000
# 4 0.000000 0.000000 0.000000 0.791367 0.000000 0.058967
# 5 0.001378 -0.004054 0.003326 0.000000 0.027986 0.000000
# 6 0.000000 0.000000 0.000000 0.058967 0.000000 0.037756
#
#
# Mechanical properties :
#
#
# Convention : Reuss Voigt Hill
#
# Bulk Modulus (GPa) = 44.58032 47.12926 45.85479
# Shear Modulus (GPa) = 5.44244 29.20486 17.32365
#
# Velocity S-wave (km/s) = 1.41637 3.28101 2.52697
# Velocity P-wave (km/s) = 4.37119 5.63254 5.04147
#
# Compressibility (1/GPa) = 0.02243142
#
# Stress axis : x y z
#
# Youngs Moduli (GPa) = 98.47575 54.02754 104.04462
#
# Poissons Ratio (x) = 0.26152 0.06335
# Poissons Ratio (y) = 0.47667 0.25724
# Poissons Ratio (z) = 0.05996 0.13358
#
# Static dielectric constant tensor:
#      x y z
#    x 2.083950 0.000000 0.061950 
#    y 0.000000 2.224290 0.000000 
#    z 0.061950 0.000000 2.121640 
# 
# From -- ./inp_files/243500.got.cif
#   From: 2010.05.17/outbox.cif.g08.bks.cpg/sg15_122_cif.got.tgz:243500.got - 2010.06.03 18:47:42.
