data_PCOD9261072
_publ_section_title
;
Structure prediction by ZEFSAII (Michael W. Deem and Ramdas Pophale) SiO2 
 PCOD9261072
Probable space group: C 2/C
;
_chemical_formula_sum "Si O2"
_cell_formula_units_Z 60
_cell_length_a 14.011563
_cell_length_b 20.076777
_cell_length_c 26.144726
_cell_angle_alpha 90.000000
_cell_angle_beta 159.295877
_cell_angle_gamma 90.000000
_cell_volume 2600.194776
_symmetry_space_group_name_H-M "C 2/C"
_symmetry_group_IT_number 15
_symmetry_cell_setting 'monoclinic'
loop_
_space_group_symop_operation_xyz
x,y,z
-x,y,1/2-z
-x,-y,-z
x,-y,1/2+z
1/2+x,1/2+y,z
1/2-x,1/2+y,1/2-z
1/2-x,1/2-y,-z
1/2+x,1/2-y,1/2+z
loop_
_atom_site_type_symbol
_atom_site_label
_atom_site_fract_x
_atom_site_fract_y
_atom_site_fract_z
Si Si1 0.277362 0.260082 0.257891
Si Si2 0.880002 0.639358 0.614554
Si Si3 0.133204 0.960206 0.371750
Si Si4 0.500000 0.356890 0.750000
Si Si5 0.582248 0.740448 0.523405
Si Si6 0.892865 0.519533 0.825961
Si Si7 0.157764 0.883046 0.720689
Si Si8 0.205881 0.811735 0.401732
O O1 0.320685 0.185707 0.299977
O O2 0.542770 0.295863 0.371051
O O3 0.088627 0.304450 0.199539
O O4 0.105581 0.248088 0.119986
O O5 0.741600 0.671186 0.595724
O O6 0.627778 0.632434 0.449124
O O7 0.022944 0.567967 0.678294
O O8 0.355402 0.009598 0.508271
O O9 0.287354 0.889298 0.444068
O O10 0.000000 0.974836 0.250000
O O11 0.873600 0.952484 0.279064
O O12 0.273003 0.305124 0.617457
O O13 0.599648 0.397276 0.751076
O O14 0.407287 0.752299 0.486257
O O15 0.803370 0.444650 0.766727
O O16 0.000000 0.812176 0.250000
#
# Coordination Sequence:
#
# PCOD9261072 Si02
#       8
#     8   8   8   4   8   8   8   8
#     4  10  18  40  62  87 118 170 214 259 315 372
#     4  11  20  41  62  84 126 176 212 249 320 383
#     4  11  23  38  56  87 136 171 208 248 317 384
#     4  12  20  34  56  94 128 152 206 254 306 370
#     4  10  20  35  60  90 116 159 210 263 309 370
#     4  12  24  38  58  91 127 177 209 251 312 389
#     4  11  23  36  61  93 127 167 214 256 307 387
#     4   9  19  35  61  87 117 155 208 268 312 357
#
# _framework density 23.075194
#
# number of rings (size 3 to 8) (size 9 to 14) (size 15 to 20)
#    0.000    1.333    5.333    2.000    0.933    1.067 
#    0.000    4.000    0.000    0.800    5.200    0.000 
#    0.000    0.000    0.000    0.000    0.000    0.000 
#
# Total GULP energy -167613.302574 kJ/mol
# GULP energy per Si atom -5587.110086 kJ/mol
# Density = 2.302267 g / cm^3
# Si number density = 23.075194 Si / 1000 Ang^3
#
#
#
# Elastic Constant Matrix: (Units=GPa)
#
#
# Indices 1 2 3 4 5 6 
#
# 1 70.6349 42.8859 17.3410 0.0134 21.8268 -0.0038
# 2 42.8859 162.8427 26.4370 0.0211 18.6634 -0.0109
# 3 17.3410 26.4370 86.6577 0.0909 9.2389 -0.0369
# 4 0.0134 0.0211 0.0909 37.3385 -0.0338 13.5118
# 5 21.8268 18.6634 9.2389 -0.0338 36.0491 0.0159
# 6 -0.0038 -0.0109 -0.0369 13.5118 0.0159 43.3100
#
#
#
# Elastic Compliance Matrix: (Units=1/GPa)
#
#
# Indices 1 2 3 4 5 6 
#
# 1 0.019899 -0.003851 -0.001784 -0.000012 -0.009597 0.000006
# 2 -0.003851 0.007520 -0.001395 -0.000001 -0.001204 0.000001
# 3 -0.001784 -0.001395 0.012471 -0.000038 -0.001394 0.000023
# 4 -0.000012 -0.000001 -0.000038 0.030191 0.000050 -0.009419
# 5 -0.009597 -0.001204 -0.001394 0.000050 0.034531 -0.000031
# 6 0.000006 0.000001 0.000023 -0.009419 -0.000031 0.026028
#
#
# Mechanical properties :
#
#
# Convention : Reuss Voigt Hill
#
# Bulk Modulus (GPa) = 38.71532 54.82924 46.77228
# Shear Modulus (GPa) = 32.61383 38.90429 35.75906
#
# Velocity S-wave (km/s) = 3.76356 4.11052 3.94086
# Velocity P-wave (km/s) = 5.97496 6.80744 6.40474
#
# Compressibility (1/GPa) = 0.02582957
#
# Stress axis : x y z
#
# Youngs Moduli (GPa) = 50.25356 132.98690 80.18682
#
# Poissons Ratio (x) = 0.51213 0.14305
# Poissons Ratio (y) = 0.19353 0.11186
# Poissons Ratio (z) = 0.08965 0.18552
#
# Static dielectric constant tensor:
#      x y z
#    x 1.832300 0.000000 0.013190 
#    y 0.000000 1.911230 -0.000040 
#    z 0.013190 -0.000040 1.983570 
# 
# From -- ./inp_files/314468.got.cif
#   From: 2010.05.17/outbox.cif.g08.bks.cpg/sg15_158_cif.got.tgz:314468.got - 2010.06.03 18:47:42.
