data_PCOD9261374
_publ_section_title
;
Structure prediction by ZEFSAII (Michael W. Deem and Ramdas Pophale) SiO2 
 PCOD9261374
Probable space group: C 2/C
;
_chemical_formula_sum "Si O2"
_cell_formula_units_Z 48
_cell_length_a 5.224487
_cell_length_b 21.727062
_cell_length_c 17.936709
_cell_angle_alpha 90.000000
_cell_angle_beta 99.123761
_cell_angle_gamma 90.000000
_cell_volume 2010.285443
_symmetry_space_group_name_H-M "C 2/C"
_symmetry_group_IT_number 15
_symmetry_cell_setting 'monoclinic'
loop_
_space_group_symop_operation_xyz
x,y,z
-x,y,1/2-z
-x,-y,-z
x,-y,1/2+z
1/2+x,1/2+y,z
1/2-x,1/2+y,1/2-z
1/2-x,1/2-y,-z
1/2+x,1/2-y,1/2+z
loop_
_atom_site_type_symbol
_atom_site_label
_atom_site_fract_x
_atom_site_fract_y
_atom_site_fract_z
Si Si1 0.990090 0.291513 0.484785
Si Si2 0.272309 0.577916 0.777825
Si Si3 0.433605 0.751385 0.329864
Si Si4 0.699209 0.038394 0.161307
Si Si5 0.054659 0.330520 0.640842
Si Si6 0.649524 0.499649 0.584609
O O1 0.250000 0.250000 0.500000
O O2 0.750000 0.250000 0.500000
O O3 0.944965 0.303195 0.395265
O O4 0.993071 0.342793 0.549484
O O5 0.500000 0.615099 0.750000
O O6 0.241619 0.513774 0.726655
O O7 0.345912 0.562366 0.865773
O O8 0.000000 0.606471 0.750000
O O9 0.500000 0.771316 0.250000
O O10 0.171535 0.711115 0.332529
O O11 0.677322 0.705895 0.352358
O O12 0.616763 0.105571 0.183179
O O13 0.452689 0.017303 0.099790
O O14 0.965939 0.043330 0.127649
O O15 0.500000 0.500000 0.500000
#
# Coordination Sequence:
#
# PCOD9261374 Si02
#       6
#     8   8   8   8   8   8
#     4   8  16  30  44  62  92 127 159 187 226 277
#     4   8  16  28  42  61  87 114 142 174 222 274
#     4  10  19  29  45  70  96 127 162 195 233 279
#     4  10  19  31  47  69  93 122 155 191 239 286
#     4  10  19  31  47  68  98 128 156 196 239 284
#     4  10  19  31  46  66  93 122 154 189 229 288
#
# _framework density 23.877206000000001
#
# number of rings (size 3 to 8) (size 9 to 14) (size 15 to 20)
#    0.000    2.667    0.000    2.000    0.000    6.000 
#    0.000    0.000    0.000    0.000    0.000   10.500 
#    0.000    8.000    0.000    0.000    0.000    0.000 
#
# Total GULP energy -133690.005124 kJ/mol
# GULP energy per Si atom -5570.416880 kJ/mol
# Density = 2.382286 g / cm^3
# Si number density = 23.877206 Si / 1000 Ang^3
#
#
#
# Elastic Constant Matrix: (Units=GPa)
#
#
# Indices 1 2 3 4 5 6 
#
# 1 167.3332 -4.2445 4.5274 0.0000 11.8287 0.0000
# 2 -4.2445 45.8869 9.5479 0.0000 -3.4884 0.0000
# 3 4.5274 9.5479 148.9788 0.0000 4.7134 0.0000
# 4 0.0000 0.0000 0.0000 7.3547 0.0000 2.0175
# 5 11.8287 -3.4884 4.7134 0.0000 40.3000 0.0000
# 6 0.0000 0.0000 0.0000 2.0175 0.0000 0.7312
#
#
#
# Elastic Compliance Matrix: (Units=1/GPa)
#
#
# Indices 1 2 3 4 5 6 
#
# 1 0.006115 0.000467 -0.000161 0.000000 -0.001736 0.000000
# 2 0.000467 0.022299 -0.001506 0.000000 0.001969 0.000000
# 3 -0.000161 -0.001506 0.006842 0.000000 -0.000883 0.000000
# 4 0.000000 0.000000 0.000000 0.559213 0.000000 -1.542947
# 5 -0.001736 0.001969 -0.000883 0.000000 0.025597 0.000000
# 6 0.000000 0.000000 0.000000 -1.542947 0.000000 5.624828
#
#
# Mechanical properties :
#
#
# Convention : Reuss Voigt Hill
#
# Bulk Modulus (GPa) = 30.43496 42.42894 36.43195
# Shear Modulus (GPa) = 0.79895 33.16840 16.98367
#
# Velocity S-wave (km/s) = 0.57908 3.73114 2.66990
# Velocity P-wave (km/s) = 3.63610 6.03076 4.97952
#
# Compressibility (1/GPa) = 0.03285695
#
# Stress axis : x y z
#
# Youngs Moduli (GPa) = 163.53251 44.84528 146.16267
#
# Poissons Ratio (x) = -0.02095 0.02351
# Poissons Ratio (y) = -0.07640 0.22007
# Poissons Ratio (z) = 0.02631 0.06752
#
# Static dielectric constant tensor:
#      x y z
#    x 1.961640 0.000000 0.044720 
#    y 0.000000 1.897970 0.000000 
#    z 0.044720 0.000000 2.116330 
# 
# From -- ./inp_files/130444.got.cif
#   From: 2010.05.17/outbox.cif.g08.bks.cpg/sg15_66_cif.got.tgz:130444.got - 2010.06.03 18:47:42.
