data_PCOD9261013
_publ_section_title
;
Structure prediction by ZEFSAII (Michael W. Deem and Ramdas Pophale) SiO2 
 PCOD9261013
Probable space group: C 2/C
;
_chemical_formula_sum "Si O2"
_cell_formula_units_Z 44
_cell_length_a 18.437669
_cell_length_b 8.490977
_cell_length_c 13.033893
_cell_angle_alpha 90.000000
_cell_angle_beta 125.361241
_cell_angle_gamma 90.000000
_cell_volume 1664.072209
_symmetry_space_group_name_H-M "C 2/C"
_symmetry_group_IT_number 15
_symmetry_cell_setting 'monoclinic'
loop_
_space_group_symop_operation_xyz
x,y,z
-x,y,1/2-z
-x,-y,-z
x,-y,1/2+z
1/2+x,1/2+y,z
1/2-x,1/2+y,1/2-z
1/2-x,1/2-y,-z
1/2+x,1/2-y,1/2+z
loop_
_atom_site_type_symbol
_atom_site_label
_atom_site_fract_x
_atom_site_fract_y
_atom_site_fract_z
Si Si1 0.335376 0.325171 0.168265
Si Si2 0.000000 0.637592 0.250000
Si Si3 0.160673 0.813188 0.593995
Si Si4 0.705095 0.674817 0.357575
Si Si5 0.050081 0.359872 0.148731
Si Si6 0.882071 0.844872 0.450023
O O1 0.244150 0.229331 0.095109
O O2 0.313289 0.502104 0.115375
O O3 0.369779 0.324163 0.316351
O O4 0.413045 0.244472 0.166099
O O5 0.021332 0.525081 0.170986
O O6 0.209006 0.868008 0.739134
O O7 0.107815 0.659007 0.591449
O O8 0.105255 0.968306 0.522300
O O9 0.617639 0.784558 0.287554
O O10 0.795550 0.775891 0.441610
O O11 0.966402 0.250391 0.058418
#
# Coordination Sequence:
#
# PCOD9261013 Si02
#       6
#     8   4   8   8   8   8
#     4  10  21  39  63  89 132 164 207 259 315 369
#     4  12  26  40  56  98 136 164 202 272 322 364
#     4   8  18  36  64  91 116 158 208 255 300 379
#     4   8  19  36  63  91 121 158 208 260 304 365
#     4  10  22  38  65  94 123 165 213 262 317 371
#     4  10  18  39  69  94 113 169 222 256 298 387
#
# _framework density 26.441158999999999
#
# number of rings (size 3 to 8) (size 9 to 14) (size 15 to 20)
#    1.091    1.455    0.000    1.636    5.091    1.455 
#    0.000    4.545    0.000    0.000    0.000    0.000 
#    0.000    0.000    0.000    0.000    0.000    0.000 
#
# Total GULP energy -123013.158241 kJ/mol
# GULP energy per Si atom -5591.507193 kJ/mol
# Density = 2.638098 g / cm^3
# Si number density = 26.441159 Si / 1000 Ang^3
#
#
#
# Elastic Constant Matrix: (Units=GPa)
#
#
# Indices 1 2 3 4 5 6 
#
# 1 155.2518 71.3642 29.9389 0.0000 15.9786 0.0000
# 2 71.3642 156.3342 42.9118 0.0000 8.9125 0.0000
# 3 29.9389 42.9118 106.3820 0.0000 20.9901 0.0000
# 4 0.0000 0.0000 0.0000 59.3124 0.0000 -1.0944
# 5 15.9786 8.9125 20.9901 0.0000 50.7470 0.0000
# 6 0.0000 0.0000 0.0000 -1.0944 0.0000 49.5795
#
#
#
# Elastic Compliance Matrix: (Units=1/GPa)
#
#
# Indices 1 2 3 4 5 6 
#
# 1 0.008372 -0.003565 -0.000568 0.000000 -0.001775 0.000000
# 2 -0.003565 0.008711 -0.002646 0.000000 0.000687 0.000000
# 3 -0.000568 -0.002646 0.011433 0.000000 -0.004086 0.000000
# 4 0.000000 0.000000 0.000000 0.016867 0.000000 0.000372
# 5 -0.001775 0.000687 -0.004086 0.000000 0.021834 0.000000
# 6 0.000000 0.000000 0.000000 0.000372 0.000000 0.020178
#
#
# Mechanical properties :
#
#
# Convention : Reuss Voigt Hill
#
# Bulk Modulus (GPa) = 66.85012 78.48866 72.66939
# Shear Modulus (GPa) = 47.19737 50.17799 48.68768
#
# Velocity S-wave (km/s) = 4.22951 4.36101 4.29576
# Velocity P-wave (km/s) = 7.01349 7.42338 7.22135
#
# Compressibility (1/GPa) = 0.01495884
#
# Stress axis : x y z
#
# Youngs Moduli (GPa) = 119.44763 114.79907 87.46279
#
# Poissons Ratio (x) = 0.40920 0.04968
# Poissons Ratio (y) = 0.42577 0.23144
# Poissons Ratio (z) = 0.06785 0.30377
#
# Static dielectric constant tensor:
#      x y z
#    x 2.175770 0.000000 -0.169380 
#    y 0.000000 1.994610 0.000000 
#    z -0.169380 0.000000 2.222540 
# 
# From -- ./inp_files/209749.got.cif
#   From: 2010.05.17/outbox.cif.g08.bks.cpg/sg15_105_cif.got.tgz:209749.got - 2010.06.03 18:47:42.
