data_PCOD9261079
_publ_section_title
;
Structure prediction by ZEFSAII (Michael W. Deem and Ramdas Pophale) SiO2 
 PCOD9261079
Probable space group: C 2/C
;
_chemical_formula_sum "Si O2"
_cell_formula_units_Z 44
_cell_length_a 10.779580
_cell_length_b 20.800369
_cell_length_c 11.883386
_cell_angle_alpha 90.000000
_cell_angle_beta 45.037356
_cell_angle_gamma 90.000000
_cell_volume 1885.302550
_symmetry_space_group_name_H-M "C 2/C"
_symmetry_group_IT_number 15
_symmetry_cell_setting 'monoclinic'
loop_
_space_group_symop_operation_xyz
x,y,z
-x,y,1/2-z
-x,-y,-z
x,-y,1/2+z
1/2+x,1/2+y,z
1/2-x,1/2+y,1/2-z
1/2-x,1/2-y,-z
1/2+x,1/2-y,1/2+z
loop_
_atom_site_type_symbol
_atom_site_label
_atom_site_fract_x
_atom_site_fract_y
_atom_site_fract_z
Si Si1 0.928176 0.665998 0.171781
Si Si2 0.166523 0.172184 0.958997
Si Si3 0.727681 0.465210 0.797496
Si Si4 0.463262 0.580422 0.641528
Si Si5 0.888826 0.271265 0.146381
Si Si6 0.500000 0.405140 0.750000
O O1 0.875920 0.590002 0.195326
O O2 0.760328 0.714773 0.265694
O O3 0.000000 0.676055 0.250000
O O4 0.077307 0.687719 0.987795
O O5 0.048576 0.142666 0.931133
O O6 0.341089 0.184104 0.780631
O O7 0.147676 0.132303 0.084484
O O8 0.071835 0.237592 0.051726
O O9 0.716934 0.541337 0.775930
O O10 0.597107 0.444043 0.782273
O O11 0.631038 0.456413 0.979457
O O12 0.500000 0.590941 0.750000
#
# Coordination Sequence:
#
# PCOD9261079 Si02
#       6
#     8   8   8   8   8   4
#     4  11  22  39  62  90 131 164 206 259 312 368
#     4  10  22  38  63  92 122 167 206 258 313 366
#     4  10  21  39  61  97 115 166 206 262 308 367
#     4  10  20  36  66  90 119 155 214 255 310 369
#     4  10  22  40  57  94 125 164 213 248 316 372
#     4  10  18  40  62  90 128 154 218 254 302 382
#
# _framework density 23.338429000000001
#
# number of rings (size 3 to 8) (size 9 to 14) (size 15 to 20)
#    0.000    1.818    4.545    0.545    2.545    3.636 
#    0.000    0.909    0.000    0.000    0.000    0.000 
#    0.000    0.000    0.000    0.000    0.000    0.000 
#
# Total GULP energy -122586.016520 kJ/mol
# GULP energy per Si atom -5572.091660 kJ/mol
# Density = 2.328531 g / cm^3
# Si number density = 23.338429 Si / 1000 Ang^3
#
#
#
# Elastic Constant Matrix: (Units=GPa)
#
#
# Indices 1 2 3 4 5 6 
#
# 1 68.0564 2.3713 34.5776 0.0000 22.4176 0.0000
# 2 2.3713 68.1363 46.9955 0.0000 4.8378 0.0000
# 3 34.5776 46.9955 165.8816 0.0000 36.8420 0.0000
# 4 0.0000 0.0000 0.0000 22.5441 0.0000 8.6274
# 5 22.4176 4.8378 36.8420 0.0000 38.3526 0.0000
# 6 0.0000 0.0000 0.0000 8.6274 0.0000 4.0561
#
#
#
# Elastic Compliance Matrix: (Units=1/GPa)
#
#
# Indices 1 2 3 4 5 6 
#
# 1 0.018783 0.001638 -0.002409 0.000000 -0.008871 0.000001
# 2 0.001638 0.018736 -0.006244 0.000000 0.002678 -0.000001
# 3 -0.002409 -0.006244 0.009931 0.000000 -0.007344 0.000001
# 4 0.000000 0.000000 0.000000 0.238459 0.000001 -0.507205
# 5 -0.008871 0.002678 -0.007344 0.000001 0.037976 -0.000002
# 6 0.000001 -0.000001 0.000001 -0.507205 -0.000002 1.325372
#
#
# Mechanical properties :
#
#
# Convention : Reuss Voigt Hill
#
# Bulk Modulus (GPa) = 29.92337 52.21812 41.07074
# Shear Modulus (GPa) = 2.98610 27.53255 15.25932
#
# Velocity S-wave (km/s) = 1.13237 3.43842 2.55978
# Velocity P-wave (km/s) = 3.81563 6.17952 5.13544
#
# Compressibility (1/GPa) = 0.03341870
#
# Stress axis : x y z
#
# Youngs Moduli (GPa) = 53.24046 53.37281 100.69904
#
# Poissons Ratio (x) = -0.08741 0.24257
# Poissons Ratio (y) = -0.08719 0.62878
# Poissons Ratio (z) = 0.12825 0.33327
#
# Static dielectric constant tensor:
#      x y z
#    x 1.866930 0.000000 -0.039340 
#    y 0.000000 2.055260 0.000000 
#    z -0.039340 0.000000 1.914610 
# 
# From -- ./inp_files/91126.got.cif
#   From: 2010.05.17/outbox.cif.g08.bks.cpg/sg15_46_cif.got.tgz:91126.got - 2010.06.03 18:47:42.
