data_PCOD9261781
_publ_section_title
;
Structure prediction by ZEFSAII (Michael W. Deem and Ramdas Pophale) SiO2 
 PCOD9261781
Probable space group: C 2/C
;
_chemical_formula_sum "Si O2"
_cell_formula_units_Z 32
_cell_length_a 8.431270
_cell_length_b 13.206883
_cell_length_c 10.347062
_cell_angle_alpha 90.000000
_cell_angle_beta 69.087865
_cell_angle_gamma 90.000000
_cell_volume 1076.259967
_symmetry_space_group_name_H-M "C 2/C"
_symmetry_group_IT_number 15
_symmetry_cell_setting 'monoclinic'
loop_
_space_group_symop_operation_xyz
x,y,z
-x,y,1/2-z
-x,-y,-z
x,-y,1/2+z
1/2+x,1/2+y,z
1/2-x,1/2+y,1/2-z
1/2-x,1/2-y,-z
1/2+x,1/2-y,1/2+z
loop_
_atom_site_type_symbol
_atom_site_label
_atom_site_fract_x
_atom_site_fract_y
_atom_site_fract_z
Si Si1 0.500000 0.105520 0.750000
Si Si2 0.387710 0.209884 0.020895
Si Si3 0.357810 0.573000 0.365736
Si Si4 0.500000 0.776238 0.750000
Si Si5 0.771797 0.938356 0.614212
O O1 0.479951 0.172910 0.627895
O O2 0.662652 0.036487 0.680825
O O3 0.348940 0.096050 0.103362
O O4 0.430488 0.273178 0.139502
O O5 0.331251 0.314985 0.947066
O O6 0.349584 0.471432 0.455039
O O7 0.586726 0.575077 0.309772
O O8 0.658484 0.839769 0.644703
#
# Coordination Sequence:
#
# PCOD9261781 Si02
#       5
#     4   8   8   4   8
#     4   9  18  34  56  78 104 139 180 220 262 319
#     4  10  21  35  56  75 109 147 180 218 259 312
#     4  10  19  31  53  81 112 137 168 218 273 318
#     4   9  18  36  58  82 102 137 186 222 260 315
#     4   9  17  32  56  82 105 134 173 222 270 312
#
# _framework density 29.732596000000001
#
# number of rings (size 3 to 8) (size 9 to 14) (size 15 to 20)
#    0.000    2.500    0.000    2.250    1.750    6.000 
#    0.000    1.250   22.000    0.000    0.000    0.000 
#    0.000    0.000    0.000    0.000    0.000    0.000 
#
# Total GULP energy -89350.519330 kJ/mol
# GULP energy per Si atom -5584.407458 kJ/mol
# Density = 2.966492 g / cm^3
# Si number density = 29.732596 Si / 1000 Ang^3
#
#
#
# Elastic Constant Matrix: (Units=GPa)
#
#
# Indices 1 2 3 4 5 6 
#
# 1 145.2564 30.3628 59.8189 0.0000 19.9097 0.0000
# 2 30.3628 101.8616 47.2191 0.0000 -7.7760 0.0000
# 3 59.8189 47.2191 213.9009 0.0000 10.0099 0.0000
# 4 0.0000 0.0000 0.0000 49.2114 0.0000 -10.0885
# 5 19.9097 -7.7760 10.0099 0.0000 80.9029 0.0000
# 6 0.0000 0.0000 0.0000 -10.0885 0.0000 53.3998
#
#
#
# Elastic Compliance Matrix: (Units=1/GPa)
#
#
# Indices 1 2 3 4 5 6 
#
# 1 0.008280 -0.001770 -0.001832 0.000000 -0.001981 0.000000
# 2 -0.001770 0.011465 -0.002120 0.000000 0.001800 0.000000
# 3 -0.001832 -0.002120 0.005677 0.000000 -0.000455 0.000000
# 4 0.000000 0.000000 0.000000 0.021139 0.000000 0.003994
# 5 -0.001981 0.001800 -0.000455 0.000000 0.013077 0.000000
# 6 0.000000 0.000000 0.000000 0.003994 0.000000 0.019481
#
#
# Mechanical properties :
#
#
# Convention : Reuss Voigt Hill
#
# Bulk Modulus (GPa) = 71.54421 81.75782 76.65102
# Shear Modulus (GPa) = 52.50765 58.27738 55.39251
#
# Velocity S-wave (km/s) = 4.20693 4.43205 4.32096
# Velocity P-wave (km/s) = 6.90742 7.33131 7.12252
#
# Compressibility (1/GPa) = 0.01397737
#
# Stress axis : x y z
#
# Youngs Moduli (GPa) = 120.76592 87.22118 176.15601
#
# Poissons Ratio (x) = 0.15439 0.32276
# Poissons Ratio (y) = 0.21377 0.37348
# Poissons Ratio (z) = 0.22127 0.18492
#
# Static dielectric constant tensor:
#      x y z
#    x 2.496700 0.000000 0.083480 
#    y 0.000000 2.120590 0.000000 
#    z 0.083480 0.000000 2.425850 
# 
# From -- ./inp_files/75563.got.cif
#   From: 2010.05.17/outbox.cif.g08.bks.cpg/sg15_38_cif.got.tgz:75563.got - 2010.06.03 18:47:42.
