data_PCOD9261726
_publ_section_title
;
Structure prediction by ZEFSAII (Michael W. Deem and Ramdas Pophale) SiO2 
 PCOD9261726
Probable space group: C 2/C
;
_chemical_formula_sum "Si O2"
_cell_formula_units_Z 44
_cell_length_a 9.769164
_cell_length_b 28.504328
_cell_length_c 13.607418
_cell_angle_alpha 90.000000
_cell_angle_beta 140.874395
_cell_angle_gamma 90.000000
_cell_volume 2391.050862
_symmetry_space_group_name_H-M "C 2/C"
_symmetry_group_IT_number 15
_symmetry_cell_setting 'monoclinic'
loop_
_space_group_symop_operation_xyz
x,y,z
-x,y,1/2-z
-x,-y,-z
x,-y,1/2+z
1/2+x,1/2+y,z
1/2-x,1/2+y,1/2-z
1/2-x,1/2-y,-z
1/2+x,1/2-y,1/2+z
loop_
_atom_site_type_symbol
_atom_site_label
_atom_site_fract_x
_atom_site_fract_y
_atom_site_fract_z
Si Si1 0.000000 0.755372 0.250000
Si Si2 0.717705 0.923644 0.437917
Si Si3 0.310949 0.030227 0.062902
Si Si4 0.063874 0.593665 0.538818
Si Si5 0.820671 0.319225 0.508019
Si Si6 0.023455 0.113460 0.588679
O O1 0.797198 0.790283 0.143724
O O2 0.040524 0.719957 0.360890
O O3 0.500000 0.925120 0.250000
O O4 0.636926 0.908161 0.499549
O O5 0.878846 0.890566 0.466467
O O6 0.786342 0.977960 0.487266
O O7 0.500000 0.032960 0.250000
O O8 0.402053 0.046898 0.007264
O O9 0.129752 0.068370 0.985571
O O10 0.044033 0.636758 0.452896
O O11 0.280990 0.605416 0.723871
O O12 0.627065 0.341980 0.467128
#
# Coordination Sequence:
#
# PCOD9261726 Si02
#       6
#     4   8   8   8   8   8
#     4  10  20  34  58  80  96 122 168 220 252 316
#     4   9  19  33  51  74 107 145 174 206 247 300
#     4  10  19  31  51  77 104 140 181 216 240 282
#     4  10  19  34  53  75 106 139 174 207 253 303
#     4  10  19  34  57  79  98 126 169 211 262 296
#     4  10  19  34  53  75 106 139 174 207 253 303
#
# _framework density 18.401952000000001
#
# number of rings (size 3 to 8) (size 9 to 14) (size 15 to 20)
#    0.000    2.182    1.818    2.727    5.091    0.000 
#    0.000    2.727    0.000    6.545    0.000    0.000 
#    0.000    0.000    0.000    0.000    0.000    0.000 
#
# Total GULP energy -122540.623777 kJ/mol
# GULP energy per Si atom -5570.028353 kJ/mol
# Density = 1.836007 g / cm^3
# Si number density = 18.401952 Si / 1000 Ang^3
#
#
#
# Elastic Constant Matrix: (Units=GPa)
#
#
# Indices 1 2 3 4 5 6 
#
# 1 111.9402 27.1524 7.5867 0.0000 -17.3047 0.0000
# 2 27.1524 89.3398 14.0081 0.0000 -0.5244 0.0000
# 3 7.5867 14.0081 31.0401 0.0000 -6.1805 0.0000
# 4 0.0000 0.0000 0.0000 27.5561 0.0000 -5.9648
# 5 -17.3047 -0.5244 -6.1805 0.0000 18.6765 0.0000
# 6 0.0000 0.0000 0.0000 -5.9648 0.0000 4.1534
#
#
#
# Elastic Compliance Matrix: (Units=1/GPa)
#
#
# Indices 1 2 3 4 5 6 
#
# 1 0.011396 -0.003551 0.000963 0.000000 0.010778 0.000000
# 2 -0.003551 0.013195 -0.006068 0.000000 -0.004928 0.000000
# 3 0.000963 -0.006068 0.037322 0.000000 0.013073 0.000000
# 4 0.000000 0.000000 0.000000 0.052659 0.000000 0.075625
# 5 0.010778 -0.004928 0.013073 0.000000 0.067717 0.000000
# 6 0.000000 0.000000 0.000000 0.075625 0.000000 0.349372
#
#
# Mechanical properties :
#
#
# Convention : Reuss Voigt Hill
#
# Bulk Modulus (GPa) = 22.42097 36.64608 29.53352
# Shear Modulus (GPa) = 8.86776 22.31541 15.59159
#
# Velocity S-wave (km/s) = 2.19759 3.48611 2.91396
# Velocity P-wave (km/s) = 4.31852 6.01344 5.23503
#
# Compressibility (1/GPa) = 0.04460111
#
# Stress axis : x y z
#
# Youngs Moduli (GPa) = 87.75381 75.78624 26.79362
#
# Poissons Ratio (x) = 0.26913 -0.02581
# Poissons Ratio (y) = 0.31163 0.16258
# Poissons Ratio (z) = -0.08453 0.45987
#
# Static dielectric constant tensor:
#      x y z
#    x 1.665110 0.000000 -0.026930 
#    y 0.000000 1.620670 0.000000 
#    z -0.026930 0.000000 1.703460 
# 
# From -- ./inp_files/25654.got.cif
#   From: 2010.05.17/outbox.cif.g08.bks.cpg/sg15_13_cif.got.tgz:25654.got - 2010.06.03 18:47:42.
