data_PCOD9261200
_publ_section_title
;
Structure prediction by ZEFSAII (Michael W. Deem and Ramdas Pophale) SiO2 
 PCOD9261200
Probable space group: C 2/C
;
_chemical_formula_sum "Si O2"
_cell_formula_units_Z 48
_cell_length_a 15.436817
_cell_length_b 9.974438
_cell_length_c 16.367367
_cell_angle_alpha 90.000000
_cell_angle_beta 113.116605
_cell_angle_gamma 90.000000
_cell_volume 2317.794136
_symmetry_space_group_name_H-M "C 2/C"
_symmetry_group_IT_number 15
_symmetry_cell_setting 'monoclinic'
loop_
_space_group_symop_operation_xyz
x,y,z
-x,y,1/2-z
-x,-y,-z
x,-y,1/2+z
1/2+x,1/2+y,z
1/2-x,1/2+y,1/2-z
1/2-x,1/2-y,-z
1/2+x,1/2-y,1/2+z
loop_
_atom_site_type_symbol
_atom_site_label
_atom_site_fract_x
_atom_site_fract_y
_atom_site_fract_z
Si Si1 0.171426 0.140065 0.489739
Si Si2 0.393826 0.870163 0.686144
Si Si3 0.312561 0.575460 0.651202
Si Si4 0.971795 0.850253 0.960299
Si Si5 0.843025 0.667354 0.003696
Si Si6 0.297162 0.478689 0.827855
O O1 0.250000 0.250000 0.500000
O O2 0.067141 0.203680 0.457013
O O3 0.164441 0.030021 0.413382
O O4 0.192868 0.072969 0.587210
O O5 0.500000 0.897814 0.750000
O O6 0.375675 0.710121 0.669077
O O7 0.371086 0.928438 0.587698
O O8 0.308607 0.921245 0.710614
O O9 0.201549 0.600936 0.592117
O O10 0.320321 0.535814 0.748073
O O11 0.932392 0.758199 0.017518
O O12 0.878433 0.867975 0.871687
O O13 0.000000 0.000000 0.000000
O O14 0.750000 0.750000 0.000000
#
# Coordination Sequence:
#
# PCOD9261200 Si02
#       6
#     8   8   8   8   8   8
#     4  11  26  44  64 100 140 173 220 285 340 394
#     4  11  23  40  67  97 127 168 226 271 327 399
#     4  11  24  41  70  92 134 177 223 278 328 397
#     4  10  20  38  69  93 126 169 222 275 324 384
#     4  10  18  41  64  93 128 166 216 276 326 389
#     4  11  23  43  65  96 130 175 226 271 331 400
#
# _framework density 20.709346
#
# number of rings (size 3 to 8) (size 9 to 14) (size 15 to 20)
#    0.000    1.333    5.000    3.000    9.333    0.000 
#    3.000    1.667    0.000    0.000    0.000    0.000 
#    0.000    0.000    0.000    0.000    0.000    0.000 
#
# Total GULP energy -133626.604826 kJ/mol
# GULP energy per Si atom -5567.775201 kJ/mol
# Density = 2.066221 g / cm^3
# Si number density = 20.709346 Si / 1000 Ang^3
#
#
#
# Elastic Constant Matrix: (Units=GPa)
#
#
# Indices 1 2 3 4 5 6 
#
# 1 164.1419 23.6843 25.2082 0.0000 12.3084 0.0000
# 2 23.6843 19.6738 1.7566 0.0000 -14.6218 0.0000
# 3 25.2082 1.7566 109.2536 0.0000 -12.4340 0.0000
# 4 0.0000 0.0000 0.0000 11.6535 0.0000 -0.2651
# 5 12.3084 -14.6218 -12.4340 0.0000 44.1850 0.0000
# 6 0.0000 0.0000 0.0000 -0.2651 0.0000 42.9477
#
#
#
# Elastic Compliance Matrix: (Units=1/GPa)
#
#
# Indices 1 2 3 4 5 6 
#
# 1 0.010164 -0.019524 -0.003191 0.000000 -0.010190 0.000000
# 2 -0.019524 0.105152 0.007638 0.000000 0.042385 0.000000
# 3 -0.003191 0.007638 0.010491 0.000000 0.006369 0.000000
# 4 0.000000 0.000000 0.000000 0.085824 0.000000 0.000530
# 5 -0.010190 0.042385 0.006369 0.000000 0.041289 0.000000
# 6 0.000000 0.000000 0.000000 0.000530 0.000000 0.023287
#
#
# Mechanical properties :
#
#
# Convention : Reuss Voigt Hill
#
# Bulk Modulus (GPa) = 10.45447 43.81861 27.13654
# Shear Modulus (GPa) = 14.78222 35.91859 25.35040
#
# Velocity S-wave (km/s) = 2.67459 4.16915 3.50252
# Velocity P-wave (km/s) = 3.82061 6.66187 5.43036
#
# Compressibility (1/GPa) = 0.09565290
#
# Stress axis : x y z
#
# Youngs Moduli (GPa) = 98.39083 9.51008 95.31752
#
# Poissons Ratio (x) = 0.18567 0.30414
# Poissons Ratio (y) = 1.92096 -0.72802
# Poissons Ratio (z) = 0.31395 -0.07264
#
# Static dielectric constant tensor:
#      x y z
#    x 1.803600 0.000000 -0.048020 
#    y 0.000000 1.822730 0.000000 
#    z -0.048020 0.000000 1.944200 
# 
# From -- ./inp_files/152194.got.cif
#   From: 2010.05.17/outbox.cif.g08.bks.cpg/sg15_77_cif.got.tgz:152194.got - 2010.06.03 18:47:42.
