data_PCOD9261217
_publ_section_title
;
Structure prediction by ZEFSAII (Michael W. Deem and Ramdas Pophale) SiO2 
 PCOD9261217
Probable space group: C 2/C
;
_chemical_formula_sum "Si O2"
_cell_formula_units_Z 60
_cell_length_a 17.786603
_cell_length_b 7.696141
_cell_length_c 19.818983
_cell_angle_alpha 90.000000
_cell_angle_beta 124.710426
_cell_angle_gamma 90.000000
_cell_volume 2230.183374
_symmetry_space_group_name_H-M "C 2/C"
_symmetry_group_IT_number 15
_symmetry_cell_setting 'monoclinic'
loop_
_space_group_symop_operation_xyz
x,y,z
-x,y,1/2-z
-x,-y,-z
x,-y,1/2+z
1/2+x,1/2+y,z
1/2-x,1/2+y,1/2-z
1/2-x,1/2-y,-z
1/2+x,1/2-y,1/2+z
loop_
_atom_site_type_symbol
_atom_site_label
_atom_site_fract_x
_atom_site_fract_y
_atom_site_fract_z
Si Si1 0.969373 0.373421 0.116214
Si Si2 0.889368 0.284462 0.933683
Si Si3 0.350272 0.003482 0.296933
Si Si4 0.226320 0.185416 0.061473
Si Si5 0.000000 0.961126 0.250000
Si Si6 0.293779 0.193505 0.594552
Si Si7 0.537620 0.711388 0.912094
Si Si8 0.821076 0.118510 0.723177
O O1 0.902105 0.286586 0.136779
O O2 0.949329 0.580343 0.094436
O O3 0.075215 0.369847 0.192659
O O4 0.941546 0.287077 0.031062
O O5 0.891272 0.464579 0.893224
O O6 0.780706 0.264688 0.890692
O O7 0.946941 0.168061 0.910114
O O8 0.245345 0.952440 0.252427
O O9 0.356684 0.188612 0.262740
O O10 0.255204 0.331218 0.127910
O O11 0.281388 0.010518 0.101456
O O12 0.250000 0.250000 0.000000
O O13 0.119491 0.146601 0.001397
O O14 0.040617 0.867229 0.338668
O O15 0.098116 0.002830 0.263157
O O16 0.250000 0.250000 0.500000
#
# Coordination Sequence:
#
# PCOD9261217 Si02
#       8
#     8   8   8   8   4   8   8   8
#     4  10  18  41  68  95 127 177 225 263 343 415
#     4  10  21  39  68  99 134 171 225 282 336 400
#     4  11  25  44  69  94 137 176 229 281 341 408
#     4  12  23  39  68 100 135 177 233 271 337 412
#     4  12  22  40  64  98 132 178 224 274 338 406
#     4  10  23  38  66 104 134 171 226 284 339 396
#     4  11  21  39  65  97 128 182 224 276 327 413
#     4  12  26  44  69 100 135 182 229 283 341 405
#
# _framework density 26.903618000000002
#
# number of rings (size 3 to 8) (size 9 to 14) (size 15 to 20)
#    0.000    1.067    5.333    3.200    3.733    0.533 
#    0.000    4.000    0.000    0.000    0.000    0.000 
#    0.000    0.000    0.000    0.000    0.000    0.000 
#
# Total GULP energy -167404.697877 kJ/mol
# GULP energy per Si atom -5580.156596 kJ/mol
# Density = 2.684238 g / cm^3
# Si number density = 26.903618 Si / 1000 Ang^3
#
#
#
# Elastic Constant Matrix: (Units=GPa)
#
#
# Indices 1 2 3 4 5 6 
#
# 1 261.1796 30.4746 36.8562 0.0000 27.8429 0.0000
# 2 30.4746 70.7035 2.4432 0.0000 -11.7579 0.0000
# 3 36.8562 2.4432 78.3018 0.0000 -11.2861 0.0000
# 4 0.0000 0.0000 0.0000 17.0318 0.0000 -5.0481
# 5 27.8429 -11.7579 -11.2861 0.0000 49.3862 0.0000
# 6 0.0000 0.0000 0.0000 -5.0481 0.0000 43.7770
#
#
#
# Elastic Compliance Matrix: (Units=1/GPa)
#
#
# Indices 1 2 3 4 5 6 
#
# 1 0.004990 -0.002737 -0.002857 0.000000 -0.004118 0.000000
# 2 -0.002737 0.016228 0.001614 0.000000 0.005776 0.000000
# 3 -0.002857 0.001614 0.014842 0.000000 0.005387 0.000000
# 4 0.000000 0.000000 0.000000 0.060792 0.000000 0.007010
# 5 -0.004118 0.005776 0.005387 0.000000 0.025176 0.000000
# 6 0.000000 0.000000 0.000000 0.007010 0.000000 0.023651
#
#
# Mechanical properties :
#
#
# Convention : Reuss Voigt Hill
#
# Bulk Modulus (GPa) = 35.58604 61.08143 48.33373
# Shear Modulus (GPa) = 30.67376 44.73304 37.70340
#
# Velocity S-wave (km/s) = 3.38025 4.08206 3.74762
# Velocity P-wave (km/s) = 5.33767 6.70602 6.06059
#
# Compressibility (1/GPa) = 0.02810091
#
# Stress axis : x y z
#
# Youngs Moduli (GPa) = 200.38861 61.62206 67.37651
#
# Poissons Ratio (x) = 0.16866 0.19250
# Poissons Ratio (y) = 0.54846 -0.10877
# Poissons Ratio (z) = 0.57252 -0.09948
#
# Static dielectric constant tensor:
#      x y z
#    x 2.196230 0.000000 0.108720 
#    y 0.000000 2.124820 0.000000 
#    z 0.108720 0.000000 2.248280 
# 
# From -- ./inp_files/247854.got.cif
#   From: 2010.05.17/outbox.cif.g08.bks.cpg/sg15_124_cif.got.tgz:247854.got - 2010.06.03 18:47:42.
