data_PCOD9261293
_publ_section_title
;
Structure prediction by ZEFSAII (Michael W. Deem and Ramdas Pophale) SiO2 
 PCOD9261293
Probable space group: C 2/C
;
_chemical_formula_sum "Si O2"
_cell_formula_units_Z 48
_cell_length_a 8.382642
_cell_length_b 27.916163
_cell_length_c 13.441196
_cell_angle_alpha 90.000000
_cell_angle_beta 42.389301
_cell_angle_gamma 90.000000
_cell_volume 2120.510497
_symmetry_space_group_name_H-M "C 2/C"
_symmetry_group_IT_number 15
_symmetry_cell_setting 'monoclinic'
loop_
_space_group_symop_operation_xyz
x,y,z
-x,y,1/2-z
-x,-y,-z
x,-y,1/2+z
1/2+x,1/2+y,z
1/2-x,1/2+y,1/2-z
1/2-x,1/2-y,-z
1/2+x,1/2-y,1/2+z
loop_
_atom_site_type_symbol
_atom_site_label
_atom_site_fract_x
_atom_site_fract_y
_atom_site_fract_z
Si Si1 0.500000 0.592660 0.250000
Si Si2 0.500000 0.787879 0.250000
Si Si3 0.689434 0.774572 0.746983
Si Si4 0.000000 0.157375 0.750000
Si Si5 0.501091 0.145685 0.050746
Si Si6 0.979643 0.051380 0.057465
Si Si7 0.537322 0.341829 0.463032
Si Si8 0.500000 0.090766 0.250000
O O1 0.737296 0.625180 0.151216
O O2 0.572838 0.558904 0.124834
O O3 0.615219 0.757675 0.287395
O O4 0.285898 0.820700 0.386149
O O5 0.500000 0.756574 0.750000
O O6 0.537784 0.798310 0.906515
O O7 0.839069 0.816815 0.623465
O O8 0.273061 0.136157 0.623384
O O9 0.000590 0.174435 0.865619
O O10 0.574984 0.122005 0.121717
O O11 0.701685 0.057851 0.198352
O O12 0.050060 0.100323 0.966729
O O13 0.000000 0.000000 0.000000
#
# Coordination Sequence:
#
# PCOD9261293 Si02
#       8
#     4   4   8   4   8   8   8   4
#     4  10  23  43  80 106 150 208 250 309 407 466
#     4  12  33  43  76 119 152 197 269 333 388 454
#     4  12  23  51  80 102 152 215 260 304 395 490
#     4  12  24  41  77 111 148 201 254 321 395 432
#     4  11  20  43  76 106 141 203 255 308 382 460
#     4  11  24  46  75 111 145 196 260 314 389 467
#     4  12  27  49  71 110 157 197 255 330 381 464
#     4  10  18  47  71  98 142 204 237 297 386 464
#
# _framework density 22.636060000000001
#
# number of rings (size 3 to 8) (size 9 to 14) (size 15 to 20)
#    0.000    0.667    7.500    1.000    3.500    3.333 
#    0.000    1.667    0.000    0.000    0.000    0.000 
#    0.000    0.000    0.000    0.000    0.000    0.000 
#
# Total GULP energy -133685.472832 kJ/mol
# GULP energy per Si atom -5570.228035 kJ/mol
# Density = 2.258454 g / cm^3
# Si number density = 22.636060 Si / 1000 Ang^3
#
#
#
# Elastic Constant Matrix: (Units=GPa)
#
#
# Indices 1 2 3 4 5 6 
#
# 1 131.2610 71.0051 36.6667 0.0000 -4.6747 0.0000
# 2 71.0051 127.1572 40.9329 0.0000 6.3747 0.0000
# 3 36.6667 40.9329 131.2356 0.0000 -9.0909 0.0000
# 4 0.0000 0.0000 0.0000 21.5466 0.0000 13.8477
# 5 -4.6747 6.3747 -9.0909 0.0000 41.6034 0.0000
# 6 0.0000 0.0000 0.0000 13.8477 0.0000 14.1953
#
#
#
# Elastic Compliance Matrix: (Units=1/GPa)
#
#
# Indices 1 2 3 4 5 6 
#
# 1 0.011261 -0.006020 -0.001134 0.000000 0.001940 0.000000
# 2 -0.006020 0.012122 -0.002309 0.000000 -0.003038 0.000000
# 3 -0.001134 -0.002309 0.008806 0.000000 0.002151 0.000000
# 4 0.000000 0.000000 0.000000 0.124408 0.000000 -0.121362
# 5 0.001940 -0.003038 0.002151 0.000000 0.025190 0.000000
# 6 0.000000 0.000000 0.000000 -0.121362 0.000000 0.188836
#
#
# Mechanical properties :
#
#
# Convention : Reuss Voigt Hill
#
# Bulk Modulus (GPa) = 75.40729 76.31813 75.86271
# Shear Modulus (GPa) = 12.69131 31.53900 22.11515
#
# Velocity S-wave (km/s) = 2.37041 3.73675 3.12907
# Velocity P-wave (km/s) = 6.39351 7.23922 6.82947
#
# Compressibility (1/GPa) = 0.01326132
#
# Stress axis : x y z
#
# Youngs Moduli (GPa) = 88.80217 82.49632 113.55906
#
# Poissons Ratio (x) = 0.49666 0.12879
# Poissons Ratio (y) = 0.53462 0.26223
# Poissons Ratio (z) = 0.10071 0.19050
#
# Static dielectric constant tensor:
#      x y z
#    x 1.979580 0.000000 0.040750 
#    y 0.000000 1.950780 0.000000 
#    z 0.040750 0.000000 1.925450 
# 
# From -- ./inp_files/138982.got.cif
#   From: 2010.05.17/outbox.cif.g08.bks.cpg/sg15_70_cif.got.tgz:138982.got - 2010.06.03 18:47:42.
