data_PCOD9261107
_publ_section_title
;
Structure prediction by ZEFSAII (Michael W. Deem and Ramdas Pophale) SiO2 
 PCOD9261107
Probable space group: C 2/C
;
_chemical_formula_sum "Si O2"
_cell_formula_units_Z 52
_cell_length_a 7.418536
_cell_length_b 22.036810
_cell_length_c 13.608669
_cell_angle_alpha 90.000000
_cell_angle_beta 109.855251
_cell_angle_gamma 90.000000
_cell_volume 2092.503412
_symmetry_space_group_name_H-M "C 2/C"
_symmetry_group_IT_number 15
_symmetry_cell_setting 'monoclinic'
loop_
_space_group_symop_operation_xyz
x,y,z
-x,y,1/2-z
-x,-y,-z
x,-y,1/2+z
1/2+x,1/2+y,z
1/2-x,1/2+y,1/2-z
1/2-x,1/2-y,-z
1/2+x,1/2-y,1/2+z
loop_
_atom_site_type_symbol
_atom_site_label
_atom_site_fract_x
_atom_site_fract_y
_atom_site_fract_z
Si Si1 0.835248 0.555671 0.529183
Si Si2 0.327270 0.401383 0.792390
Si Si3 0.000000 0.489506 0.750000
Si Si4 0.370582 0.175200 0.636076
Si Si5 0.848031 0.690658 0.978163
Si Si6 0.363935 0.781877 0.809079
Si Si7 0.748944 0.431312 0.494678
O O1 0.769603 0.622683 0.551511
O O2 0.695229 0.501967 0.463980
O O3 0.904355 0.527610 0.646103
O O4 0.025080 0.563724 0.497568
O O5 0.500000 0.414183 0.750000
O O6 0.155311 0.445621 0.729727
O O7 0.276286 0.330870 0.765997
O O8 0.323831 0.415387 0.908844
O O9 0.500000 0.149993 0.750000
O O10 0.529626 0.204149 0.594814
O O11 0.235346 0.227863 0.650718
O O12 0.709519 0.633011 0.933781
O O13 0.002644 0.678833 0.093347
O O14 0.750000 0.750000 0.000000
O O15 0.500000 0.755693 0.750000
#
# Coordination Sequence:
#
# PCOD9261107 Si02
#       7
#     8   8   4   8   8   8   8
#     4   9  18  37  66  85 127 172 216 250 323 388
#     4  11  22  38  68  99 127 164 226 271 324 388
#     4  10  18  40  64  92 128 178 214 270 324 388
#     4  11  23  38  61  93 125 169 211 258 327 387
#     4  11  23  40  64  93 125 165 215 268 326 391
#     4  12  22  40  61  93 131 172 213 269 332 389
#     4   9  19  38  63  91 119 171 212 263 315 383
#
# _framework density 24.850618000000001
#
# number of rings (size 3 to 8) (size 9 to 14) (size 15 to 20)
#    0.000    1.538    3.077    2.769    2.154    0.000 
#    0.000    3.846    0.000    0.000    0.000    0.000 
#    0.000    0.000    0.000    0.000    0.000    0.000 
#
# Total GULP energy -144996.814822 kJ/mol
# GULP energy per Si atom -5576.800570 kJ/mol
# Density = 2.479406 g / cm^3
# Si number density = 24.850618 Si / 1000 Ang^3
#
#
#
# Elastic Constant Matrix: (Units=GPa)
#
#
# Indices 1 2 3 4 5 6 
#
# 1 116.3745 69.8855 42.6704 0.0000 -57.2844 0.0000
# 2 69.8855 201.1397 23.5015 0.0000 -36.1389 0.0000
# 3 42.6704 23.5015 84.1123 0.0000 -44.1180 0.0000
# 4 0.0000 0.0000 0.0000 47.6722 0.0000 -17.6777
# 5 -57.2844 -36.1389 -44.1180 0.0000 51.0157 0.0000
# 6 0.0000 0.0000 0.0000 -17.6777 0.0000 26.0708
#
#
#
# Elastic Compliance Matrix: (Units=1/GPa)
#
#
# Indices 1 2 3 4 5 6 
#
# 1 0.021516 -0.003476 0.002629 0.000000 0.023971 0.000000
# 2 -0.003476 0.006301 0.000543 0.000000 0.001030 0.000000
# 3 0.002629 0.000543 0.022243 0.000000 0.022573 0.000000
# 4 0.000000 0.000000 0.000000 0.028023 0.000000 0.019001
# 5 0.023971 0.001030 0.022573 0.000000 0.066769 0.000000
# 6 0.000000 0.000000 0.000000 0.019001 0.000000 0.051241
#
#
# Mechanical properties :
#
#
# Convention : Reuss Voigt Hill
#
# Bulk Modulus (GPa) = 20.22119 74.86016 47.54068
# Shear Modulus (GPa) = 23.45394 42.65634 33.05514
#
# Velocity S-wave (km/s) = 3.07546 4.14757 3.65108
# Velocity P-wave (km/s) = 4.55698 7.28875 6.07832
#
# Compressibility (1/GPa) = 0.04945307
#
# Stress axis : x y z
#
# Youngs Moduli (GPa) = 46.47735 158.70464 44.95812
#
# Poissons Ratio (x) = 0.55165 -0.11821
# Poissons Ratio (y) = 0.16155 -0.02442
# Poissons Ratio (z) = -0.12221 -0.08621
#
# Static dielectric constant tensor:
#      x y z
#    x 1.997760 0.000000 0.147270 
#    y 0.000000 2.059210 0.000000 
#    z 0.147270 0.000000 2.058200 
# 
# From -- ./inp_files/136887.got.cif
#   From: 2010.05.17/outbox.cif.g08.bks.cpg/sg15_69_cif.got.tgz:136887.got - 2010.06.03 18:47:42.
