data_PCOD9261895
_publ_section_title
;
Structure prediction by ZEFSAII (Michael W. Deem and Ramdas Pophale) SiO2 
 PCOD9261895
Probable space group: C 2/C
;
_chemical_formula_sum "Si O2"
_cell_formula_units_Z 56
_cell_length_a 5.188939
_cell_length_b 14.484343
_cell_length_c 26.231575
_cell_angle_alpha 90.000000
_cell_angle_beta 90.851824
_cell_angle_gamma 90.000000
_cell_volume 1971.304599
_symmetry_space_group_name_H-M "C 2/C"
_symmetry_group_IT_number 15
_symmetry_cell_setting 'monoclinic'
loop_
_space_group_symop_operation_xyz
x,y,z
-x,y,1/2-z
-x,-y,-z
x,-y,1/2+z
1/2+x,1/2+y,z
1/2-x,1/2+y,1/2-z
1/2-x,1/2-y,-z
1/2+x,1/2-y,1/2+z
loop_
_atom_site_type_symbol
_atom_site_label
_atom_site_fract_x
_atom_site_fract_y
_atom_site_fract_z
Si Si1 0.401567 0.172305 0.113797
Si Si2 0.000000 0.413657 0.250000
Si Si3 0.163898 0.835060 0.162390
Si Si4 0.682918 0.922606 0.690689
Si Si5 0.931046 0.021726 0.595616
Si Si6 0.324783 0.917261 0.980319
Si Si7 0.885850 0.698290 0.951341
Si Si8 0.000000 0.738375 0.250000
O O1 0.624900 0.247138 0.126753
O O2 0.406323 0.106640 0.163242
O O3 0.508808 0.118280 0.066377
O O4 0.153164 0.228538 0.094468
O O5 0.884842 0.356126 0.203277
O O6 0.805278 0.489068 0.273359
O O7 0.153002 0.921835 0.124709
O O8 0.936578 0.806426 0.202676
O O9 0.711602 0.832058 0.726460
O O10 0.833167 0.956424 0.641241
O O11 0.754423 0.107262 0.573732
O O12 0.937763 0.954670 0.546346
O O13 0.345067 0.840194 0.024439
O O14 0.500000 0.000000 0.000000
O O15 0.750000 0.750000 0.000000
#
# Coordination Sequence:
#
# PCOD9261895 Si02
#       8
#     8   4   8   8   8   8   8   4
#     4   8  15  28  45  69  97 126 161 207 255 304
#     4  11  22  34  48  69  96 138 184 221 264 312
#     4  10  19  32  49  69  97 135 174 218 262 305
#     4   9  18  32  48  70  99 129 171 215 261 318
#     4   9  16  28  49  74 100 131 167 214 264 310
#     4   8  13  23  43  76 101 120 158 209 254 308
#     4   8  13  23  45  77 104 128 162 210 259 312
#     4   9  18  34  50  67  98 130 166 219 266 316
#
# _framework density 28.407584
#
# number of rings (size 3 to 8) (size 9 to 14) (size 15 to 20)
#    0.000    3.143    0.000    0.857    0.000    0.000 
#    0.000   12.857    0.000    0.000    0.000  126.000 
#    0.000    0.000    0.000    0.000    0.000    0.000 
#
# Total GULP energy -155940.418261 kJ/mol
# GULP energy per Si atom -5569.300652 kJ/mol
# Density = 2.834293 g / cm^3
# Si number density = 28.407584 Si / 1000 Ang^3
#
#
#
# Elastic Constant Matrix: (Units=GPa)
#
#
# Indices 1 2 3 4 5 6 
#
# 1 70.1559 47.1289 69.0485 0.0000 8.7898 0.0000
# 2 47.1289 161.0870 57.5327 0.0000 33.2914 0.0000
# 3 69.0485 57.5327 182.2855 0.0000 19.0254 0.0000
# 4 0.0000 0.0000 0.0000 78.3355 0.0000 22.3860
# 5 8.7898 33.2914 19.0254 0.0000 37.0994 0.0000
# 6 0.0000 0.0000 0.0000 22.3860 0.0000 2.0555
#
#
#
# Elastic Compliance Matrix: (Units=1/GPa)
#
#
# Indices 1 2 3 4 5 6 
#
# 1 0.025539 -0.005058 -0.008368 0.000000 0.002779 0.000000
# 2 -0.005058 0.009217 -0.000269 0.000000 -0.006934 0.000000
# 3 -0.008368 -0.000269 0.008990 0.000000 -0.002386 0.000000
# 4 0.000000 0.000000 0.000000 -0.006044 0.000000 0.065819
# 5 0.002779 -0.006934 -0.002386 0.000000 0.033742 0.000000
# 6 0.000000 0.000000 0.000000 0.065819 0.000000 -0.230322
#
#
# Mechanical properties :
#
#
# Convention : Reuss Voigt Hill
#
# Bulk Modulus (GPa) = 61.14039 84.54984 72.84511
# Shear Modulus (GPa) = -39.67110 39.48597 -0.09257
#
# Velocity S-wave (km/s) = -3.74103 3.73229 -0.18071
# Velocity P-wave (km/s) = 1.70555 6.95709 5.06507
#
# Compressibility (1/GPa) = 0.01635580
#
# Stress axis : x y z
#
# Youngs Moduli (GPa) = 39.15560 108.49659 111.23957
#
# Poissons Ratio (x) = 0.54874 0.93083
# Poissons Ratio (y) = 0.19804 0.02998
# Poissons Ratio (z) = 0.32765 0.02924
#
# Static dielectric constant tensor:
#      x y z
#    x 2.354560 0.000000 -0.017610 
#    y 0.000000 2.310690 0.000000 
#    z -0.017610 0.000000 2.224360 
# 
# From -- ./inp_files/307836.got.cif
#   From: 2010.05.17/outbox.cif.g08.bks.cpg/sg15_154_cif.got.tgz:307836.got - 2010.06.03 18:47:42.
