data_PCOD9261414
_publ_section_title
;
Structure prediction by ZEFSAII (Michael W. Deem and Ramdas Pophale) SiO2 
 PCOD9261414
Probable space group: C 2/C
;
_chemical_formula_sum "Si O2"
_cell_formula_units_Z 44
_cell_length_a 24.376782
_cell_length_b 15.152704
_cell_length_c 17.726735
_cell_angle_alpha 90.000000
_cell_angle_beta 159.403403
_cell_angle_gamma 90.000000
_cell_volume 2303.423967
_symmetry_space_group_name_H-M "C 2/C"
_symmetry_group_IT_number 15
_symmetry_cell_setting 'monoclinic'
loop_
_space_group_symop_operation_xyz
x,y,z
-x,y,1/2-z
-x,-y,-z
x,-y,1/2+z
1/2+x,1/2+y,z
1/2-x,1/2+y,1/2-z
1/2-x,1/2-y,-z
1/2+x,1/2-y,1/2+z
loop_
_atom_site_type_symbol
_atom_site_label
_atom_site_fract_x
_atom_site_fract_y
_atom_site_fract_z
Si Si1 0.787557 0.232294 0.733458
Si Si2 0.173734 0.396509 0.893716
Si Si3 0.449202 0.706415 0.780978
Si Si4 0.500000 0.957897 0.250000
Si Si5 0.552539 0.885991 0.479685
Si Si6 0.612426 0.073850 0.585914
O O1 0.634485 0.289779 0.515605
O O2 0.894158 0.214023 0.797770
O O3 0.876410 0.292232 0.908265
O O4 0.722045 0.142060 0.684128
O O5 0.110424 0.298670 0.832141
O O6 0.138173 0.471937 0.909274
O O7 0.060292 0.419739 0.677108
O O8 0.356925 0.375797 0.126411
O O9 0.517222 0.899625 0.346588
O O10 0.411823 0.899256 0.358626
O O11 0.658912 0.972001 0.636395
#
# Coordination Sequence:
#
# PCOD9261414 Si02
#       6
#     8   8   8   4   8   8
#     4  11  19  35  53  89 112 147 177 230 271 340
#     4   9  16  31  49  83 107 139 166 226 275 340
#     4  10  19  29  55  84 119 137 166 221 297 336
#     4  10  20  34  56  74 108 146 202 222 262 324
#     4  10  19  36  56  80 103 157 187 222 275 327
#     4   9  19  35  57  79 115 141 185 223 275 339
#
# _framework density 19.101998999999999
#
# number of rings (size 3 to 8) (size 9 to 14) (size 15 to 20)
#    0.000    2.182    3.636    3.273    0.000    3.636 
#    0.000    4.545    0.000    0.000    0.000    0.000 
#    0.000    0.000    0.000    0.000    0.000    0.000 
#
# Total GULP energy -122495.730625 kJ/mol
# GULP energy per Si atom -5567.987756 kJ/mol
# Density = 1.905852 g / cm^3
# Si number density = 19.101999 Si / 1000 Ang^3
#
#
#
# Elastic Constant Matrix: (Units=GPa)
#
#
# Indices 1 2 3 4 5 6 
#
# 1 161.7662 35.8402 22.3302 0.0004 -12.2018 0.0002
# 2 35.8402 71.6407 3.0038 0.0006 -5.1780 0.0005
# 3 22.3302 3.0038 17.9987 0.0008 -3.1024 0.0007
# 4 0.0004 0.0006 0.0008 20.2023 0.0004 -3.8530
# 5 -12.2018 -5.1780 -3.1024 0.0004 22.6360 0.0003
# 6 0.0002 0.0005 0.0007 -3.8530 0.0003 28.2055
#
#
#
# Elastic Compliance Matrix: (Units=1/GPa)
#
#
# Indices 1 2 3 4 5 6 
#
# 1 0.008491 -0.003673 -0.009502 0.000000 0.002434 0.000000
# 2 -0.003673 0.015843 0.002250 -0.000001 0.001952 0.000000
# 3 -0.009502 0.002250 0.067779 -0.000003 0.004683 -0.000002
# 4 0.000000 -0.000001 -0.000003 0.050824 -0.000001 0.006943
# 5 0.002434 0.001952 0.004683 -0.000001 0.046578 -0.000001
# 6 0.000000 0.000000 -0.000002 0.006943 -0.000001 0.036402
#
#
# Mechanical properties :
#
#
# Convention : Reuss Voigt Hill
#
# Bulk Modulus (GPa) = 14.23222 41.52824 27.88023
# Shear Modulus (GPa) = 18.43737 26.89085 22.66411
#
# Velocity S-wave (km/s) = 3.11015 3.75607 3.44827
# Velocity P-wave (km/s) = 4.51267 6.37167 5.52098
#
# Compressibility (1/GPa) = 0.07026309
#
# Stress axis : x y z
#
# Youngs Moduli (GPa) = 117.77385 63.11913 14.75377
#
# Poissons Ratio (x) = 0.23186 0.14018
# Poissons Ratio (y) = 0.43264 -0.03320
# Poissons Ratio (z) = 1.11903 -0.14201
#
# Static dielectric constant tensor:
#      x y z
#    x 1.743830 0.000000 -0.007390 
#    y 0.000000 1.675440 0.000000 
#    z -0.007390 0.000000 1.739530 
# 
# From -- ./inp_files/219914.got.cif
#   From: 2010.05.17/outbox.cif.g08.bks.cpg/sg15_110_cif.got.tgz:219914.got - 2010.06.03 18:47:42.
