data_PCOD9261784
_publ_section_title
;
Structure prediction by ZEFSAII (Michael W. Deem and Ramdas Pophale) SiO2 
 PCOD9261784
Probable space group: C 2/C
;
_chemical_formula_sum "Si O2"
_cell_formula_units_Z 40
_cell_length_a 7.110804
_cell_length_b 19.223548
_cell_length_c 20.773049
_cell_angle_alpha 90.000000
_cell_angle_beta 144.782416
_cell_angle_gamma 90.000000
_cell_volume 1637.531646
_symmetry_space_group_name_H-M "C 2/C"
_symmetry_group_IT_number 15
_symmetry_cell_setting 'monoclinic'
loop_
_space_group_symop_operation_xyz
x,y,z
-x,y,1/2-z
-x,-y,-z
x,-y,1/2+z
1/2+x,1/2+y,z
1/2-x,1/2+y,1/2-z
1/2-x,1/2-y,-z
1/2+x,1/2-y,1/2+z
loop_
_atom_site_type_symbol
_atom_site_label
_atom_site_fract_x
_atom_site_fract_y
_atom_site_fract_z
Si Si1 0.949523 0.839438 0.158654
Si Si2 0.221142 0.065969 0.081187
Si Si3 0.284925 0.382036 0.569052
Si Si4 0.122795 0.312333 0.707624
Si Si5 0.612084 0.486311 0.208291
O O1 0.000000 0.835808 0.250000
O O2 0.072802 0.765300 0.168937
O O3 0.570138 0.852661 0.039730
O O4 0.118959 0.909773 0.179929
O O5 0.424653 0.131455 0.108783
O O6 0.543846 0.025593 0.197952
O O7 0.966607 0.111430 0.051421
O O8 0.000000 0.000000 0.000000
O O9 0.506453 0.336453 0.678696
O O10 0.334939 0.462281 0.604065
O O11 0.000000 0.316030 0.750000
O O12 0.500000 0.476594 0.250000
#
# Coordination Sequence:
#
# PCOD9261784 Si02
#       5
#     8   8   8   8   8
#     4  10  19  31  53  82 107 138 183 222 266 320
#     4  10  19  33  54  78 106 139 177 221 269 318
#     4  10  20  36  55  78 111 142 174 228 274 312
#     4   8  18  32  49  77 107 135 176 224 266 308
#     4  10  20  34  54  79 105 142 185 220 264 322
#
# _framework density 24.427011
#
# number of rings (size 3 to 8) (size 9 to 14) (size 15 to 20)
#    0.000    2.400    0.000    4.800    0.000    8.800 
#    0.000    0.000    0.000   20.400    0.000    0.000 
#    0.000    0.000    0.000    0.000    0.000    0.000 
#
# Total GULP energy -111404.399223 kJ/mol
# GULP energy per Si atom -5570.219961 kJ/mol
# Density = 2.437141 g / cm^3
# Si number density = 24.427011 Si / 1000 Ang^3
#
#
#
# Elastic Constant Matrix: (Units=GPa)
#
#
# Indices 1 2 3 4 5 6 
#
# 1 47.1860 -2.1877 29.5827 -0.0027 11.2526 -0.0001
# 2 -2.1877 234.5487 86.5958 0.0044 22.9676 0.0003
# 3 29.5827 86.5958 154.7592 0.0346 29.7435 -0.0022
# 4 -0.0027 0.0044 0.0346 -220.7670 0.0049 28.6399
# 5 11.2526 22.9676 29.7435 0.0049 23.2316 0.0003
# 6 -0.0001 0.0003 -0.0022 28.6399 0.0003 20.6379
#
#
#
# Elastic Compliance Matrix: (Units=1/GPa)
#
#
# Indices 1 2 3 4 5 6 
#
# 1 0.026724 0.003017 -0.004955 -0.000001 -0.009583 0.000001
# 2 0.003017 0.005781 -0.003226 0.000000 -0.003046 0.000000
# 3 -0.004955 -0.003226 0.010796 0.000001 -0.008233 -0.000001
# 4 -0.000001 0.000000 0.000001 -0.003839 0.000000 0.005327
# 5 -0.009583 -0.003046 -0.008233 0.000000 0.061240 -0.000002
# 6 0.000001 0.000000 -0.000001 0.005327 -0.000002 0.041062
#
#
# Mechanical properties :
#
#
# Convention : Reuss Voigt Hill
#
# Bulk Modulus (GPa) = 30.32684 73.83063 52.07873
# Shear Modulus (GPa) = 30.65916 -13.87929 8.38993
#
# Velocity S-wave (km/s) = 3.54663 -2.38627 1.85530
# Velocity P-wave (km/s) = 5.40497 4.76427 5.09470
#
# Compressibility (1/GPa) = 0.03297410
#
# Stress axis : x y z
#
# Youngs Moduli (GPa) = 37.41914 172.98052 92.62484
#
# Poissons Ratio (x) = -0.52188 0.45893
# Poissons Ratio (y) = -0.11289 0.29881
# Poissons Ratio (z) = 0.18540 0.55803
#
# Static dielectric constant tensor:
#      x y z
#    x 2.004800 0.000000 -0.052430 
#    y 0.000000 1.985500 0.000000 
#    z -0.052430 0.000000 1.936430 
# 
# From -- ./inp_files/135350.got.cif
#   From: 2010.05.17/outbox.cif.g08.bks.cpg/sg15_68_cif.got.tgz:135350.got - 2010.06.03 18:47:42.
