data_PCOD9261461
_publ_section_title
;
Structure prediction by ZEFSAII (Michael W. Deem and Ramdas Pophale) SiO2 
 PCOD9261461
Probable space group: C 2/C
;
_chemical_formula_sum "Si O2"
_cell_formula_units_Z 48
_cell_length_a 19.451300
_cell_length_b 6.981646
_cell_length_c 15.692049
_cell_angle_alpha 90.000000
_cell_angle_beta 125.448860
_cell_angle_gamma 90.000000
_cell_volume 1735.994646
_symmetry_space_group_name_H-M "C 2/C"
_symmetry_group_IT_number 15
_symmetry_cell_setting 'monoclinic'
loop_
_space_group_symop_operation_xyz
x,y,z
-x,y,1/2-z
-x,-y,-z
x,-y,1/2+z
1/2+x,1/2+y,z
1/2-x,1/2+y,1/2-z
1/2-x,1/2-y,-z
1/2+x,1/2-y,1/2+z
loop_
_atom_site_type_symbol
_atom_site_label
_atom_site_fract_x
_atom_site_fract_y
_atom_site_fract_z
Si Si1 0.556976 0.457880 0.457314
Si Si2 0.246419 0.431981 0.058162
Si Si3 0.899737 0.012510 0.261514
Si Si4 0.101035 0.426181 0.676124
Si Si5 0.426627 0.994597 0.042682
Si Si6 0.288482 0.396955 0.843314
O O1 0.500000 0.500000 0.500000
O O2 0.499869 0.549006 0.342651
O O3 0.567150 0.228310 0.454180
O O4 0.652375 0.515513 0.548900
O O5 0.336423 0.530256 0.136444
O O6 0.226192 0.318194 0.132407
O O7 0.250000 0.250000 0.000000
O O8 0.161887 0.548209 0.975233
O O9 0.902742 0.783289 0.284186
O O10 0.845565 0.105750 0.299695
O O11 0.085260 0.417520 0.562389
O O12 0.196104 0.484823 0.766550
O O13 0.019724 0.549811 0.646041
#
# Coordination Sequence:
#
# PCOD9261461 Si02
#       6
#     8   8   8   8   8   8
#     4   8  15  26  44  67  94 120 159 207 245 288
#     4  10  19  30  47  73 102 128 160 210 261 302
#     4   9  16  29  46  68  93 126 166 203 246 302
#     4   9  16  26  46  69  90 124 166 202 241 294
#     4   9  16  28  43  68  96 123 160 204 247 298
#     4   9  16  29  45  66  94 126 161 202 246 303
#
# _framework density 27.649853
#
# number of rings (size 3 to 8) (size 9 to 14) (size 15 to 20)
#    0.000    3.000    1.667    0.000    0.000    0.000 
#    0.000   13.333    0.000    1.000    0.000    0.000 
#    0.000   32.000    0.000    0.000    0.000    0.333 
#
# Total GULP energy -133856.382889 kJ/mol
# GULP energy per Si atom -5577.349287 kJ/mol
# Density = 2.758692 g / cm^3
# Si number density = 27.649853 Si / 1000 Ang^3
#
#
#
# Elastic Constant Matrix: (Units=GPa)
#
#
# Indices 1 2 3 4 5 6 
#
# 1 126.2345 3.9475 77.5649 0.0000 78.7742 0.0000
# 2 3.9475 108.1946 -0.2685 0.0000 4.5714 0.0000
# 3 77.5649 -0.2685 119.7317 0.0000 71.0132 0.0000
# 4 0.0000 0.0000 0.0000 10.7042 0.0000 -15.7509
# 5 78.7742 4.5714 71.0132 0.0000 96.0282 0.0000
# 6 0.0000 0.0000 0.0000 -15.7509 0.0000 20.1147
#
#
#
# Elastic Compliance Matrix: (Units=1/GPa)
#
#
# Indices 1 2 3 4 5 6 
#
# 1 0.017841 -0.000206 -0.005137 0.000000 -0.010827 0.000000
# 2 -0.000206 0.009281 0.000563 0.000000 -0.000689 0.000000
# 3 -0.005137 0.000563 0.016383 0.000000 -0.007929 0.000000
# 4 0.000000 0.000000 0.000000 -0.613660 0.000000 -0.480529
# 5 -0.010827 -0.000689 -0.007929 0.000000 0.025191 0.000000
# 6 0.000000 0.000000 0.000000 -0.480529 0.000000 -0.326565
#
#
# Mechanical properties :
#
#
# Convention : Reuss Voigt Hill
#
# Bulk Modulus (GPa) = 29.45936 57.40540 43.43238
# Shear Modulus (GPa) = -5.87783 43.56387 18.84302
#
# Velocity S-wave (km/s) = -1.45960 3.97363 2.61336
# Velocity P-wave (km/s) = 2.79946 6.46990 4.98481
#
# Compressibility (1/GPa) = 0.03394507
#
# Stress axis : x y z
#
# Youngs Moduli (GPa) = 56.05177 107.75121 61.03715
#
# Poissons Ratio (x) = 0.02222 0.31353
# Poissons Ratio (y) = 0.01156 -0.03437
# Poissons Ratio (z) = 0.28792 -0.06067
#
# Static dielectric constant tensor:
#      x y z
#    x 2.335830 0.000000 0.061990 
#    y 0.000000 2.113070 0.000000 
#    z 0.061990 0.000000 2.317010 
# 
# From -- ./inp_files/160457.got.cif
#   From: 2010.05.17/outbox.cif.g08.bks.cpg/sg15_81_cif.got.tgz:160457.got - 2010.06.03 18:47:42.
