data_PCOD9261794
_publ_section_title
;
Structure prediction by ZEFSAII (Michael W. Deem and Ramdas Pophale) SiO2 
 PCOD9261794
Probable space group: C 2/C
;
_chemical_formula_sum "Si O2"
_cell_formula_units_Z 64
_cell_length_a 18.737806
_cell_length_b 11.676935
_cell_length_c 23.140978
_cell_angle_alpha 90.000000
_cell_angle_beta 140.092431
_cell_angle_gamma 90.000000
_cell_volume 3248.332500
_symmetry_space_group_name_H-M "C 2/C"
_symmetry_group_IT_number 15
_symmetry_cell_setting 'monoclinic'
loop_
_space_group_symop_operation_xyz
x,y,z
-x,y,1/2-z
-x,-y,-z
x,-y,1/2+z
1/2+x,1/2+y,z
1/2-x,1/2+y,1/2-z
1/2-x,1/2-y,-z
1/2+x,1/2-y,1/2+z
loop_
_atom_site_type_symbol
_atom_site_label
_atom_site_fract_x
_atom_site_fract_y
_atom_site_fract_z
Si Si1 0.737711 0.947936 0.651544
Si Si2 0.939571 0.867149 0.027082
Si Si3 0.358852 0.795734 0.993944
Si Si4 0.028222 0.219334 0.331536
Si Si5 0.089313 0.662802 0.568561
Si Si6 0.485789 0.541978 0.805582
Si Si7 0.162956 0.074145 0.594653
Si Si8 0.297693 0.765763 0.252551
O O1 0.733734 0.881505 0.587693
O O2 0.854711 0.012448 0.733416
O O3 0.723375 0.842995 0.687947
O O4 0.637776 0.037116 0.591147
O O5 0.051192 0.906680 0.062672
O O6 0.920182 0.737163 0.995253
O O7 0.963708 0.888274 0.109458
O O8 0.845805 0.951313 0.941392
O O9 0.379888 0.786732 0.074953
O O10 0.473294 0.831937 0.031687
O O11 0.334924 0.669453 0.954358
O O12 0.000000 0.259478 0.250000
O O13 0.044983 0.082752 0.341637
O O14 0.915349 0.236292 0.297240
O O15 0.180157 0.723894 0.666440
O O16 0.500000 0.592350 0.750000
O O17 0.256329 0.116053 0.697921
#
# Coordination Sequence:
#
# PCOD9261794 Si02
#       8
#     8   8   8   8   8   8   8   8
#     4  10  20  34  52  75 105 136 167 209 259 308
#     4  10  19  31  54  74 102 133 171 216 253 294
#     4   9  17  33  50  77 105 132 161 211 263 309
#     4   9  17  32  50  74 104 135 167 206 256 308
#     4  10  20  31  53  78 104 134 169 208 264 308
#     4  10  20  36  53  74 101 140 180 214 249 297
#     4   9  17  30  51  76 102 129 164 209 258 306
#     4   9  19  31  49  78 105 133 164 207 257 306
#
# _framework density 19.702415999999999
#
# number of rings (size 3 to 8) (size 9 to 14) (size 15 to 20)
#    0.000    2.500    1.250    1.125    7.000    0.000 
#    2.250    3.125    0.000    0.750    0.000    0.000 
#    0.000    0.000    0.000    0.000    0.000    0.000 
#
# Total GULP energy -178374.377520 kJ/mol
# GULP energy per Si atom -5574.199297 kJ/mol
# Density = 1.965757 g / cm^3
# Si number density = 19.702416 Si / 1000 Ang^3
#
#
#
# Elastic Constant Matrix: (Units=GPa)
#
#
# Indices 1 2 3 4 5 6 
#
# 1 35.0552 17.0202 23.9619 0.0000 -14.0735 0.0000
# 2 17.0202 60.7190 38.1369 0.0000 -8.8939 0.0000
# 3 23.9619 38.1369 120.5079 0.0000 -33.6097 0.0000
# 4 0.0000 0.0000 0.0000 27.4790 0.0000 -0.9579
# 5 -14.0735 -8.8939 -33.6097 0.0000 39.0218 0.0000
# 6 0.0000 0.0000 0.0000 -0.9579 0.0000 11.7930
#
#
#
# Elastic Compliance Matrix: (Units=1/GPa)
#
#
# Indices 1 2 3 4 5 6 
#
# 1 0.037820 -0.007690 -0.002331 0.000000 0.009880 0.000000
# 2 -0.007690 0.022162 -0.006382 0.000000 -0.003219 0.000000
# 3 -0.002331 -0.006382 0.013348 0.000000 0.009201 0.000000
# 4 0.000000 0.000000 0.000000 0.036495 0.000000 0.002964
# 5 0.009880 -0.003219 0.009201 0.000000 0.036381 0.000000
# 6 0.000000 0.000000 0.000000 0.002964 0.000000 0.085037
#
#
# Mechanical properties :
#
#
# Convention : Reuss Voigt Hill
#
# Bulk Modulus (GPa) = 24.67762 41.61336 33.14549
# Shear Modulus (GPa) = 18.01430 24.80295 21.40863
#
# Velocity S-wave (km/s) = 3.02705 3.55192 3.29994
# Velocity P-wave (km/s) = 4.97692 6.16346 5.60170
#
# Compressibility (1/GPa) = 0.04052254
#
# Stress axis : x y z
#
# Youngs Moduli (GPa) = 26.44109 45.12217 74.91913
#
# Poissons Ratio (x) = 0.34699 0.17464
# Poissons Ratio (y) = 0.20334 0.47816
# Poissons Ratio (z) = 0.06164 0.28799
#
# Static dielectric constant tensor:
#      x y z
#    x 1.702850 0.000000 0.016150 
#    y 0.000000 1.699060 0.000000 
#    z 0.016150 0.000000 1.787670 
# 
# From -- ./inp_files/255349.got.cif
#   From: 2010.05.17/outbox.cif.g08.bks.cpg/sg15_128_cif.got.tgz:255349.got - 2010.06.03 18:47:42.
