data_PCOD9261538
_publ_section_title
;
Structure prediction by ZEFSAII (Michael W. Deem and Ramdas Pophale) SiO2 
 PCOD9261538
Probable space group: C 2/C
;
_chemical_formula_sum "Si O2"
_cell_formula_units_Z 56
_cell_length_a 7.218012
_cell_length_b 13.422724
_cell_length_c 27.848536
_cell_angle_alpha 90.000000
_cell_angle_beta 115.246846
_cell_angle_gamma 90.000000
_cell_volume 2440.388318
_symmetry_space_group_name_H-M "C 2/C"
_symmetry_group_IT_number 15
_symmetry_cell_setting 'monoclinic'
loop_
_space_group_symop_operation_xyz
x,y,z
-x,y,1/2-z
-x,-y,-z
x,-y,1/2+z
1/2+x,1/2+y,z
1/2-x,1/2+y,1/2-z
1/2-x,1/2-y,-z
1/2+x,1/2-y,1/2+z
loop_
_atom_site_type_symbol
_atom_site_label
_atom_site_fract_x
_atom_site_fract_y
_atom_site_fract_z
Si Si1 0.530852 0.627991 0.149723
Si Si2 0.723082 0.483405 0.748695
Si Si3 0.890842 0.734607 0.562359
Si Si4 0.882944 0.394545 0.480769
Si Si5 0.497560 0.278381 0.071013
Si Si6 0.155791 0.672363 0.170320
Si Si7 0.756835 0.205205 0.735401
O O1 0.664854 0.538683 0.186791
O O2 0.494100 0.662099 0.091125
O O3 0.302918 0.620558 0.147422
O O4 0.638476 0.724159 0.185867
O O5 0.500000 0.467664 0.750000
O O6 0.878070 0.406208 0.790847
O O7 0.800570 0.590942 0.770478
O O8 0.750000 0.750000 0.500000
O O9 0.734974 0.699460 0.586311
O O10 0.046414 0.651226 0.562345
O O11 0.638003 0.376834 0.452154
O O12 0.941841 0.313109 0.528579
O O13 0.000000 0.500000 0.500000
O O14 0.481093 0.228815 0.121732
O O15 0.271826 0.755969 0.213682
O O16 0.000000 0.209348 0.750000
#
# Coordination Sequence:
#
# PCOD9261538 Si02
#       7
#     8   8   8   8   8   8   8
#     4   9  18  35  56  71 109 150 178 227 287 333
#     4   8  16  32  52  77 103 143 184 220 276 347
#     4   9  19  37  59  83 113 152 192 238 290 347
#     4  10  21  37  61  86 113 150 196 244 291 350
#     4   9  20  39  58  82 116 153 189 241 300 345
#     4   9  18  36  54  71 110 150 176 227 286 337
#     4  10  19  30  51  84 107 140 185 229 274 345
#
# _framework density 22.947168999999999
#
# number of rings (size 3 to 8) (size 9 to 14) (size 15 to 20)
#    0.000    2.857    0.000    1.286    2.000    1.714 
#   10.286    5.714    6.286    0.000    0.000    0.000 
#    0.000    0.000    0.000    0.000    0.000    0.000 
#
# Total GULP energy -155882.539196 kJ/mol
# GULP energy per Si atom -5567.233543 kJ/mol
# Density = 2.289494 g / cm^3
# Si number density = 22.947169 Si / 1000 Ang^3
#
#
#
# Elastic Constant Matrix: (Units=GPa)
#
#
# Indices 1 2 3 4 5 6 
#
# 1 63.8314 -7.1946 -10.9525 0.0000 7.7949 0.0000
# 2 -7.1946 69.5740 -11.3250 0.0000 5.6444 0.0000
# 3 -10.9525 -11.3250 58.9299 0.0000 1.6117 0.0000
# 4 0.0000 0.0000 0.0000 1.0400 0.0000 7.2678
# 5 7.7949 5.6444 1.6117 0.0000 20.6750 0.0000
# 6 0.0000 0.0000 0.0000 7.2678 0.0000 23.7875
#
#
#
# Elastic Compliance Matrix: (Units=1/GPa)
#
#
# Indices 1 2 3 4 5 6 
#
# 1 0.017681 0.003132 0.004102 0.000000 -0.007841 0.000000
# 2 0.003132 0.015780 0.003773 0.000000 -0.005783 0.000000
# 3 0.004102 0.003773 0.018567 0.000000 -0.004024 0.000000
# 4 0.000000 0.000000 0.000000 -0.847095 0.000000 0.258812
# 5 -0.007841 -0.005783 -0.004024 0.000000 0.053216 0.000000
# 6 0.000000 0.000000 0.000000 0.258812 0.000000 -0.037036
#
#
# Mechanical properties :
#
#
# Convention : Reuss Voigt Hill
#
# Bulk Modulus (GPa) = 13.50555 14.82121 14.16338
# Shear Modulus (GPa) = -6.44147 23.88766 8.72309
#
# Velocity S-wave (km/s) = -1.67725 3.22993 1.95183
# Velocity P-wave (km/s) = 1.46539 4.51473 3.35635
#
# Compressibility (1/GPa) = 0.07404365
#
# Stress axis : x y z
#
# Youngs Moduli (GPa) = 56.55862 63.36962 53.85915
#
# Poissons Ratio (x) = -0.19849 -0.22096
# Poissons Ratio (y) = -0.17716 -0.20321
# Poissons Ratio (z) = -0.23203 -0.23909
#
# Static dielectric constant tensor:
#      x y z
#    x 1.989140 0.000000 -0.023500 
#    y 0.000000 1.862080 0.000000 
#    z -0.023500 0.000000 1.923400 
# 
# From -- ./inp_files/307829.got.cif
#   From: 2010.05.17/outbox.cif.g08.bks.cpg/sg15_154_cif.got.tgz:307829.got - 2010.06.03 18:47:42.
