data_PCOD9261431
_publ_section_title
;
Structure prediction by ZEFSAII (Michael W. Deem and Ramdas Pophale) SiO2 
 PCOD9261431
Probable space group: C 2/C
;
_chemical_formula_sum "Si O2"
_cell_formula_units_Z 48
_cell_length_a 9.597782
_cell_length_b 12.570301
_cell_length_c 16.885789
_cell_angle_alpha 90.000000
_cell_angle_beta 61.058784
_cell_angle_gamma 90.000000
_cell_volume 1782.805080
_symmetry_space_group_name_H-M "C 2/C"
_symmetry_group_IT_number 15
_symmetry_cell_setting 'monoclinic'
loop_
_space_group_symop_operation_xyz
x,y,z
-x,y,1/2-z
-x,-y,-z
x,-y,1/2+z
1/2+x,1/2+y,z
1/2-x,1/2+y,1/2-z
1/2-x,1/2-y,-z
1/2+x,1/2-y,1/2+z
loop_
_atom_site_type_symbol
_atom_site_label
_atom_site_fract_x
_atom_site_fract_y
_atom_site_fract_z
Si Si1 0.308754 0.125044 0.973389
Si Si2 0.175067 0.940171 0.125153
Si Si3 0.180041 0.879550 0.732128
Si Si4 0.005586 0.682467 0.446488
Si Si5 0.831754 0.304967 0.844355
Si Si6 0.925068 0.084697 0.579035
O O1 0.229074 0.030995 0.047267
O O2 0.475781 0.125142 0.974233
O O3 0.250000 0.250000 0.000000
O O4 0.258709 0.097819 0.897310
O O5 0.219057 0.001858 0.192317
O O6 0.214889 0.816132 0.122322
O O7 0.989185 0.933457 0.149180
O O8 0.321392 0.817826 0.646242
O O9 0.208136 0.857744 0.817220
O O10 0.000000 0.854342 0.750000
O O11 0.983386 0.806235 0.468739
O O12 0.880435 0.642942 0.415459
O O13 0.000000 0.302258 0.750000
O O14 0.000000 0.000000 0.500000
#
# Coordination Sequence:
#
# PCOD9261431 Si02
#       6
#     8   8   8   8   8   8
#     4   8  13  23  42  72  95 111 145 197 236 270
#     4   9  16  27  45  68  91 121 156 190 232 278
#     4  10  19  30  44  65  93 126 160 194 231 276
#     4   8  15  27  44  67  93 119 151 191 233 278
#     4   9  17  30  45  63  91 123 157 195 232 274
#     4   8  13  23  44  73  93 112 149 199 234 264
#
# _framework density 26.923862
#
# number of rings (size 3 to 8) (size 9 to 14) (size 15 to 20)
#    0.000    3.333    0.000    0.500    0.000    0.000 
#    0.000    4.167    0.000    0.000    0.000  147.000 
#    0.000    0.000    0.000    0.000    0.000    0.000 
#
# Total GULP energy -133630.991618 kJ/mol
# GULP energy per Si atom -5567.957984 kJ/mol
# Density = 2.686258 g / cm^3
# Si number density = 26.923862 Si / 1000 Ang^3
#
#
#
# Elastic Constant Matrix: (Units=GPa)
#
#
# Indices 1 2 3 4 5 6 
#
# 1 175.5945 28.5030 44.5905 0.0000 45.3594 0.0000
# 2 28.5030 121.8476 31.0288 0.0000 14.5194 0.0000
# 3 44.5905 31.0288 59.8874 0.0000 23.1604 0.0000
# 4 0.0000 0.0000 0.0000 43.6688 0.0000 14.5185
# 5 45.3594 14.5194 23.1604 0.0000 67.1256 0.0000
# 6 0.0000 0.0000 0.0000 14.5185 0.0000 39.5464
#
#
#
# Elastic Compliance Matrix: (Units=1/GPa)
#
#
# Indices 1 2 3 4 5 6 
#
# 1 0.007774 -0.000308 -0.004181 0.000000 -0.003744 0.000000
# 2 -0.000308 0.009476 -0.004580 0.000000 -0.000262 0.000000
# 3 -0.004181 -0.004580 0.023897 0.000000 -0.004429 0.000000
# 4 0.000000 0.000000 0.000000 0.026083 0.000000 -0.009576
# 5 -0.003744 -0.000262 -0.004429 0.000000 0.019012 0.000000
# 6 0.000000 0.000000 0.000000 -0.009576 0.000000 0.028802
#
#
# Mechanical properties :
#
#
# Convention : Reuss Voigt Hill
#
# Bulk Modulus (GPa) = 43.45811 62.84158 53.14984
# Shear Modulus (GPa) = 35.49856 46.94864 41.22360
#
# Velocity S-wave (km/s) = 3.63503 4.18036 3.91719
# Velocity P-wave (km/s) = 5.81326 6.83313 6.34373
#
# Compressibility (1/GPa) = 0.02301066
#
# Stress axis : x y z
#
# Youngs Moduli (GPa) = 128.63921 105.52609 41.84689
#
# Poissons Ratio (x) = 0.03247 0.17495
# Poissons Ratio (y) = 0.03958 0.19164
# Poissons Ratio (z) = 0.53781 0.48326
#
# Static dielectric constant tensor:
#      x y z
#    x 2.233570 0.000000 -0.044430 
#    y 0.000000 2.105600 0.000000 
#    z -0.044430 0.000000 2.171680 
# 
# From -- ./inp_files/263728.got.cif
#   From: 2010.05.17/outbox.cif.g08.bks.cpg/sg15_132_cif.got.tgz:263728.got - 2010.06.03 18:47:42.
