data_PCOD9261901
_publ_section_title
;
Structure prediction by ZEFSAII (Michael W. Deem and Ramdas Pophale) SiO2 
 PCOD9261901
Probable space group: C 2/C
;
_chemical_formula_sum "Si O2"
_cell_formula_units_Z 48
_cell_length_a 13.740353
_cell_length_b 34.682253
_cell_length_c 5.227477
_cell_angle_alpha 90.000000
_cell_angle_beta 64.317055
_cell_angle_gamma 90.000000
_cell_volume 2245.026282
_symmetry_space_group_name_H-M "C 2/C"
_symmetry_group_IT_number 15
_symmetry_cell_setting 'monoclinic'
loop_
_space_group_symop_operation_xyz
x,y,z
-x,y,1/2-z
-x,-y,-z
x,-y,1/2+z
1/2+x,1/2+y,z
1/2-x,1/2+y,1/2-z
1/2-x,1/2-y,-z
1/2+x,1/2-y,1/2+z
loop_
_atom_site_type_symbol
_atom_site_label
_atom_site_fract_x
_atom_site_fract_y
_atom_site_fract_z
Si Si1 0.569788 0.228739 0.928531
Si Si2 0.747192 0.666500 0.874340
Si Si3 0.670140 0.485584 0.625303
Si Si4 0.314135 0.917591 0.462311
Si Si5 0.880411 0.185589 0.983556
Si Si6 0.617040 0.959610 0.620937
O O1 0.500000 0.237766 0.750000
O O2 0.662415 0.199767 0.730145
O O3 0.500000 0.212456 0.250000
O O4 0.619853 0.267801 0.991847
O O5 0.799438 0.626458 0.905331
O O6 0.698690 0.668438 0.643026
O O7 0.654644 0.673205 0.192719
O O8 0.614297 0.495535 0.427820
O O9 0.700308 0.440944 0.614486
O O10 0.784039 0.510378 0.471113
O O11 0.372413 0.929280 0.658498
O O12 0.370743 0.937118 0.156439
O O13 0.000000 0.175090 0.750000
O O14 0.500000 0.978810 0.750000
#
# Coordination Sequence:
#
# PCOD9261901 Si02
#       6
#     8   8   8   8   8   8
#     4  11  23  40  61  89 120 154 192 226 280 360
#     4  12  23  39  61  87 121 152 186 242 303 338
#     4   8  16  29  45  66  99 139 190 226 255 310
#     4  10  21  32  47  76 108 143 185 225 275 327
#     4  11  23  42  64  85 108 147 201 248 291 346
#     4  10  19  32  49  71 108 156 198 227 257 319
#
# _framework density 21.380597999999999
#
# number of rings (size 3 to 8) (size 9 to 14) (size 15 to 20)
#    0.000    1.667    0.000    6.000    0.000    8.000 
#    0.000    0.000    0.000    0.000    0.000    0.000 
#    0.000  120.000    0.000    0.000    0.000    0.000 
#
# Total GULP energy -133901.779866 kJ/mol
# GULP energy per Si atom -5579.240828 kJ/mol
# Density = 2.133193 g / cm^3
# Si number density = 21.380598 Si / 1000 Ang^3
#
#
#
# Elastic Constant Matrix: (Units=GPa)
#
#
# Indices 1 2 3 4 5 6 
#
# 1 87.7375 29.0822 13.1056 0.0000 14.5661 0.0000
# 2 29.0822 73.9944 6.1323 0.0000 6.2377 0.0000
# 3 13.1056 6.1323 116.1151 0.0000 30.2383 0.0000
# 4 0.0000 0.0000 0.0000 17.1031 0.0000 19.9932
# 5 14.5661 6.2377 30.2383 0.0000 43.1960 0.0000
# 6 0.0000 0.0000 0.0000 19.9932 0.0000 4.6104
#
#
#
# Elastic Compliance Matrix: (Units=1/GPa)
#
#
# Indices 1 2 3 4 5 6 
#
# 1 0.013734 -0.005061 -0.000327 0.000000 -0.003672 0.000000
# 2 -0.005061 0.015552 -0.000134 0.000000 -0.000445 0.000000
# 3 -0.000327 -0.000134 0.010545 0.000000 -0.007252 0.000000
# 4 0.000000 0.000000 0.000000 -0.014368 0.000000 0.062308
# 5 -0.003672 -0.000445 -0.007252 0.000000 0.029529 0.000000
# 6 0.000000 0.000000 0.000000 0.062308 0.000000 -0.053301
#
#
# Mechanical properties :
#
#
# Convention : Reuss Voigt Hill
#
# Bulk Modulus (GPa) = 34.73828 41.60968 38.17398
# Shear Modulus (GPa) = 223.91632 28.28370 126.10001
#
# Velocity S-wave (km/s) = 10.24481 3.64107 7.68809
# Velocity P-wave (km/s) = 12.49897 6.09756 9.83373
#
# Compressibility (1/GPa) = 0.02878668
#
# Stress axis : x y z
#
# Youngs Moduli (GPa) = 72.81419 64.29884 94.83487
#
# Poissons Ratio (x) = 0.32543 0.03098
# Poissons Ratio (y) = 0.36852 0.01272
# Poissons Ratio (z) = 0.02378 0.00863
#
# Static dielectric constant tensor:
#      x y z
#    x 1.814550 0.000000 0.010780 
#    y 0.000000 1.760460 0.000000 
#    z 0.010780 0.000000 1.840570 
# 
# From -- ./inp_files/8927.got.cif
#   From: 2010.05.17/outbox.cif.g08.bks.cpg/sg15_5_cif.got.tgz:8927.got - 2010.06.03 18:47:42.
