data_PCOD9261327
_publ_section_title
;
Structure prediction by ZEFSAII (Michael W. Deem and Ramdas Pophale) SiO2 
 PCOD9261327
Probable space group: C 2/C
;
_chemical_formula_sum "Si O2"
_cell_formula_units_Z 48
_cell_length_a 13.330997
_cell_length_b 22.381687
_cell_length_c 11.586991
_cell_angle_alpha 90.000000
_cell_angle_beta 50.015284
_cell_angle_gamma 90.000000
_cell_volume 2648.971397
_symmetry_space_group_name_H-M "C 2/C"
_symmetry_group_IT_number 15
_symmetry_cell_setting 'monoclinic'
loop_
_space_group_symop_operation_xyz
x,y,z
-x,y,1/2-z
-x,-y,-z
x,-y,1/2+z
1/2+x,1/2+y,z
1/2-x,1/2+y,1/2-z
1/2-x,1/2-y,-z
1/2+x,1/2-y,1/2+z
loop_
_atom_site_type_symbol
_atom_site_label
_atom_site_fract_x
_atom_site_fract_y
_atom_site_fract_z
Si Si1 0.131932 0.400202 0.949249
Si Si2 0.847615 0.062646 0.125154
Si Si3 0.143277 0.495214 0.131994
Si Si4 0.353736 0.795707 0.371468
Si Si5 0.919966 0.061701 0.692069
Si Si6 0.156642 0.610509 0.815227
O O1 0.247265 0.397166 0.771493
O O2 0.150495 0.463278 0.002851
O O3 0.140466 0.349322 0.039760
O O4 0.982312 0.394255 0.016932
O O5 0.762648 0.036492 0.081123
O O6 0.889792 0.005795 0.172074
O O7 0.982162 0.089093 0.977236
O O8 0.146157 0.441663 0.225157
O O9 0.000000 0.523987 0.250000
O O10 0.500000 0.769444 0.250000
O O11 0.250000 0.750000 0.500000
O O12 0.325176 0.828338 0.270461
O O13 0.783393 0.096234 0.796010
O O14 0.000000 0.061498 0.750000
#
# Coordination Sequence:
#
# PCOD9261327 Si02
#       6
#     8   8   8   8   8   8
#     4   9  17  31  48  68  95 123 157 197 233 282
#     4  10  19  28  43  67  93 127 166 198 228 272
#     4   8  15  27  43  63  90 124 156 188 229 272
#     4   9  18  33  53  77  98 118 149 197 251 293
#     4  10  20  31  42  64  99 133 162 194 233 276
#     4   8  17  32  46  65  95 124 153 190 233 280
#
# _framework density 18.120241
#
# number of rings (size 3 to 8) (size 9 to 14) (size 15 to 20)
#    0.000    3.000    0.000    3.000    0.000   10.000 
#    0.000    0.000    0.000    0.000    0.000   11.667 
#    0.000    0.000    0.000    0.000    0.000    0.000 
#
# Total GULP energy -133714.521531 kJ/mol
# GULP energy per Si atom -5571.438397 kJ/mol
# Density = 1.807900 g / cm^3
# Si number density = 18.120241 Si / 1000 Ang^3
#
#
#
# Elastic Constant Matrix: (Units=GPa)
#
#
# Indices 1 2 3 4 5 6 
#
# 1 120.5250 17.0074 33.1126 0.0000 -16.8481 0.0000
# 2 17.0074 19.4569 15.5528 0.0000 -5.9305 0.0000
# 3 33.1126 15.5528 117.4742 0.0000 -22.4719 0.0000
# 4 0.0000 0.0000 0.0000 27.7463 0.0000 -4.7875
# 5 -16.8481 -5.9305 -22.4719 0.0000 21.3121 0.0000
# 6 0.0000 0.0000 0.0000 -4.7875 0.0000 6.1562
#
#
#
# Elastic Compliance Matrix: (Units=1/GPa)
#
#
# Indices 1 2 3 4 5 6 
#
# 1 0.010226 -0.006539 -0.001025 0.000000 0.005183 0.000000
# 2 -0.006539 0.063408 -0.005218 0.000000 0.006974 0.000000
# 3 -0.001025 -0.005218 0.011348 0.000000 0.009704 0.000000
# 4 0.000000 0.000000 0.000000 0.041626 0.000000 0.032372
# 5 0.005183 0.006974 0.009704 0.000000 0.063192 0.000000
# 6 0.000000 0.000000 0.000000 0.032372 0.000000 0.187612
#
#
# Mechanical properties :
#
#
# Convention : Reuss Voigt Hill
#
# Bulk Modulus (GPa) = 16.82975 43.20017 30.01496
# Shear Modulus (GPa) = 11.82642 23.82849 17.82746
#
# Velocity S-wave (km/s) = 2.55750 3.63026 3.14003
# Velocity P-wave (km/s) = 4.24606 6.43928 5.45405
#
# Compressibility (1/GPa) = 0.05941860
#
# Stress axis : x y z
#
# Youngs Moduli (GPa) = 97.78978 15.77089 88.11754
#
# Poissons Ratio (x) = 0.10313 0.09033
# Poissons Ratio (y) = 0.63947 0.45976
# Poissons Ratio (z) = 0.10024 0.08229
#
# Static dielectric constant tensor:
#      x y z
#    x 1.643750 0.000000 -0.011210 
#    y 0.000000 1.610650 0.000000 
#    z -0.011210 0.000000 1.688440 
# 
# From -- ./inp_files/90629.got.cif
#   From: 2010.05.17/outbox.cif.g08.bks.cpg/sg15_46_cif.got.tgz:90629.got - 2010.06.03 18:47:42.
