data_PCOD9261450
_publ_section_title
;
Structure prediction by ZEFSAII (Michael W. Deem and Ramdas Pophale) SiO2 
 PCOD9261450
Probable space group: C 2/C
;
_chemical_formula_sum "Si O2"
_cell_formula_units_Z 40
_cell_length_a 7.186287
_cell_length_b 12.380845
_cell_length_c 16.693081
_cell_angle_alpha 90.000000
_cell_angle_beta 90.158144
_cell_angle_gamma 90.000000
_cell_volume 1485.216245
_symmetry_space_group_name_H-M "C 2/C"
_symmetry_group_IT_number 15
_symmetry_cell_setting 'monoclinic'
loop_
_space_group_symop_operation_xyz
x,y,z
-x,y,1/2-z
-x,-y,-z
x,-y,1/2+z
1/2+x,1/2+y,z
1/2-x,1/2+y,1/2-z
1/2-x,1/2-y,-z
1/2+x,1/2-y,1/2+z
loop_
_atom_site_type_symbol
_atom_site_label
_atom_site_fract_x
_atom_site_fract_y
_atom_site_fract_z
Si Si1 0.694564 0.226166 0.895583
Si Si2 0.404192 0.712139 0.664366
Si Si3 0.721249 0.921042 0.906811
Si Si4 0.690794 0.938323 0.266699
Si Si5 0.196092 0.570043 0.040613
O O1 0.917733 0.205401 0.891747
O O2 0.629989 0.170748 0.814336
O O3 0.668628 0.353735 0.907130
O O4 0.633099 0.154094 0.969832
O O5 0.500000 0.748715 0.750000
O O6 0.269379 0.797324 0.620805
O O7 0.697584 0.602229 0.809873
O O8 0.496971 0.947953 0.913431
O O9 0.797070 0.991265 0.832795
O O10 0.780126 0.967400 0.993705
O O11 0.500000 0.998497 0.250000
#
# Coordination Sequence:
#
# PCOD9261450 Si02
#       5
#     8   8   8   8   8
#     4   8  15  29  50  71  92 121 158 197 234 278
#     4   9  17  30  47  69  96 126 161 197 234 278
#     4   9  16  28  50  73  93 122 161 197 230 279
#     4  10  19  30  46  70  99 127 155 193 237 279
#     4   8  14  27  51  73  89 117 163 198 229 276
#
# _framework density 26.932106000000001
#
# number of rings (size 3 to 8) (size 9 to 14) (size 15 to 20)
#    0.000    3.200    0.000    0.600    0.000    0.000 
#    0.000    5.000    0.000   45.600    0.000    0.000 
#    0.000    0.000    0.000    0.000    0.000    0.000 
#
# Total GULP energy -111581.037672 kJ/mol
# GULP energy per Si atom -5579.051884 kJ/mol
# Density = 2.687081 g / cm^3
# Si number density = 26.932106 Si / 1000 Ang^3
#
#
#
# Elastic Constant Matrix: (Units=GPa)
#
#
# Indices 1 2 3 4 5 6 
#
# 1 73.2032 28.5143 31.8093 0.0000 -22.1836 0.0000
# 2 28.5143 79.7144 3.0479 0.0000 -9.8536 0.0000
# 3 31.8093 3.0479 66.4180 0.0000 -20.7528 0.0000
# 4 0.0000 0.0000 0.0000 40.1698 0.0000 -11.2787
# 5 -22.1836 -9.8536 -20.7528 0.0000 44.6894 0.0000
# 6 0.0000 0.0000 0.0000 -11.2787 0.0000 36.2320
#
#
#
# Elastic Compliance Matrix: (Units=1/GPa)
#
#
# Indices 1 2 3 4 5 6 
#
# 1 0.021511 -0.006718 -0.008329 0.000000 0.005329 0.000000
# 2 -0.006718 0.015001 0.002948 0.000000 0.001342 0.000000
# 3 -0.008329 0.002948 0.020846 0.000000 0.006196 0.000000
# 4 0.000000 0.000000 0.000000 0.027279 0.000000 0.008492
# 5 0.005329 0.001342 0.006196 0.000000 0.028195 0.000000
# 6 0.000000 0.000000 0.000000 0.008492 0.000000 0.030243
#
#
# Mechanical properties :
#
#
# Convention : Reuss Voigt Hill
#
# Bulk Modulus (GPa) = 30.15554 38.45315 34.30435
# Shear Modulus (GPa) = 28.03860 34.61585 31.32722
#
# Velocity S-wave (km/s) = 3.23008 3.58900 3.41426
# Velocity P-wave (km/s) = 5.01323 5.61100 5.32052
#
# Compressibility (1/GPa) = 0.03316140
#
# Stress axis : x y z
#
# Youngs Moduli (GPa) = 46.48695 66.66288 47.97138
#
# Poissons Ratio (x) = 0.44781 0.39955
# Poissons Ratio (y) = 0.31228 -0.14143
# Poissons Ratio (z) = 0.38719 -0.19653
#
# Static dielectric constant tensor:
#      x y z
#    x 2.142290 0.000000 0.048970 
#    y 0.000000 2.192320 0.000000 
#    z 0.048970 0.000000 2.092800 
# 
# From -- ./inp_files/230844.got.cif
#   From: 2010.05.17/outbox.cif.g08.bks.cpg/sg15_116_cif.got.tgz:230844.got - 2010.06.03 18:47:42.
