data_PCOD9261631
_publ_section_title
;
Structure prediction by ZEFSAII (Michael W. Deem and Ramdas Pophale) SiO2 
 PCOD9261631
Probable space group: C 2/C
;
_chemical_formula_sum "Si O2"
_cell_formula_units_Z 40
_cell_length_a 16.184706
_cell_length_b 25.111888
_cell_length_c 5.126882
_cell_angle_alpha 90.000000
_cell_angle_beta 58.413619
_cell_angle_gamma 90.000000
_cell_volume 1775.012330
_symmetry_space_group_name_H-M "C 2/C"
_symmetry_group_IT_number 15
_symmetry_cell_setting 'monoclinic'
loop_
_space_group_symop_operation_xyz
x,y,z
-x,y,1/2-z
-x,-y,-z
x,-y,1/2+z
1/2+x,1/2+y,z
1/2-x,1/2+y,1/2-z
1/2-x,1/2-y,-z
1/2+x,1/2-y,1/2+z
loop_
_atom_site_type_symbol
_atom_site_label
_atom_site_fract_x
_atom_site_fract_y
_atom_site_fract_z
Si Si1 0.454197 0.440700 0.077077
Si Si2 0.693662 0.195385 0.108049
Si Si3 0.271334 0.924937 0.032497
Si Si4 0.098424 0.438339 0.198533
Si Si5 0.418240 0.182762 0.700177
O O1 0.500000 0.412564 0.250000
O O2 0.338693 0.445348 0.279791
O O3 0.500000 0.413441 0.750000
O O4 0.500000 0.500000 0.000000
O O5 0.671299 0.186370 0.450090
O O6 0.750000 0.250000 0.000000
O O7 0.737104 0.139545 0.929075
O O8 0.605192 0.202550 0.048467
O O9 0.334444 0.951593 0.161402
O O10 0.329838 0.932925 0.666978
O O11 0.059471 0.380243 0.359308
O O12 0.000000 0.466029 0.250000
O O13 0.500000 0.208257 0.750000
#
# Coordination Sequence:
#
# PCOD9261631 Si02
#       5
#     8   8   8   8   8
#     4  10  21  38  59  83 106 141 193 240 280 328
#     4  10  19  31  47  70 103 139 173 214 272 327
#     4  10  19  33  54  79 109 141 180 231 275 324
#     4   9  17  30  52  82 109 136 172 217 270 334
#     4   9  17  30  47  66  94 133 178 216 253 317
#
# _framework density 22.535055
#
# number of rings (size 3 to 8) (size 9 to 14) (size 15 to 20)
#    0.000    2.400    0.000    3.000    0.000    4.800 
#    0.000    3.000    0.000    0.000    0.000   56.000 
#    0.000    0.000    0.000    0.000    0.000    0.000 
#
# Total GULP energy -111419.464538 kJ/mol
# GULP energy per Si atom -5570.973227 kJ/mol
# Density = 2.248376 g / cm^3
# Si number density = 22.535055 Si / 1000 Ang^3
#
#
#
# Elastic Constant Matrix: (Units=GPa)
#
#
# Indices 1 2 3 4 5 6 
#
# 1 170.1534 22.0765 72.2477 0.0000 2.2673 0.0000
# 2 22.0765 91.6797 -0.2899 0.0000 -14.3224 0.0000
# 3 72.2477 -0.2899 131.2243 0.0000 11.4403 0.0000
# 4 0.0000 0.0000 0.0000 16.2964 0.0000 10.9440
# 5 2.2673 -14.3224 11.4403 0.0000 63.3855 0.0000
# 6 0.0000 0.0000 0.0000 10.9440 0.0000 40.2104
#
#
#
# Elastic Compliance Matrix: (Units=1/GPa)
#
#
# Indices 1 2 3 4 5 6 
#
# 1 0.008001 -0.001929 -0.004416 0.000000 0.000075 0.000000
# 2 -0.001929 0.011777 0.000864 0.000000 0.002574 0.000000
# 3 -0.004416 0.000864 0.010183 0.000000 -0.001485 0.000000
# 4 0.000000 0.000000 0.000000 0.075088 0.000000 -0.020436
# 5 0.000075 0.002574 -0.001485 0.000000 0.016623 0.000000
# 6 0.000000 0.000000 0.000000 -0.020436 0.000000 0.030431
#
#
# Mechanical properties :
#
#
# Convention : Reuss Voigt Hill
#
# Bulk Modulus (GPa) = 52.63527 64.56954 58.60241
# Shear Modulus (GPa) = 29.51599 43.91332 36.71465
#
# Velocity S-wave (km/s) = 3.62302 4.41916 4.04074
# Velocity P-wave (km/s) = 6.39605 7.39958 6.91604
#
# Compressibility (1/GPa) = 0.01899867
#
# Stress axis : x y z
#
# Youngs Moduli (GPa) = 124.97771 84.91180 98.20039
#
# Poissons Ratio (x) = 0.16380 0.43366
# Poissons Ratio (y) = 0.24108 -0.08481
# Poissons Ratio (z) = 0.55192 -0.07333
#
# Static dielectric constant tensor:
#      x y z
#    x 1.926730 0.000000 -0.049930 
#    y 0.000000 1.842080 0.000000 
#    z -0.049930 0.000000 1.815770 
# 
# From -- ./inp_files/8584.got.cif
#   From: 2010.05.17/outbox.cif.g08.bks.cpg/sg15_5_cif.got.tgz:8584.got - 2010.06.03 18:47:42.
