data_PCOD9261357
_publ_section_title
;
Structure prediction by ZEFSAII (Michael W. Deem and Ramdas Pophale) SiO2 
 PCOD9261357
Probable space group: C 2/C
;
_chemical_formula_sum "Si O2"
_cell_formula_units_Z 64
_cell_length_a 27.799777
_cell_length_b 18.421480
_cell_length_c 9.127395
_cell_angle_alpha 90.000000
_cell_angle_beta 70.832774
_cell_angle_gamma 90.000000
_cell_volume 4415.137352
_symmetry_space_group_name_H-M "C 2/C"
_symmetry_group_IT_number 15
_symmetry_cell_setting 'monoclinic'
loop_
_space_group_symop_operation_xyz
x,y,z
-x,y,1/2-z
-x,-y,-z
x,-y,1/2+z
1/2+x,1/2+y,z
1/2-x,1/2+y,1/2-z
1/2-x,1/2-y,-z
1/2+x,1/2-y,1/2+z
loop_
_atom_site_type_symbol
_atom_site_label
_atom_site_fract_x
_atom_site_fract_y
_atom_site_fract_z
Si Si1 0.359504 0.676449 0.563667
Si Si2 0.741430 0.577646 0.835342
Si Si3 0.258570 0.577646 0.318202
Si Si4 0.140496 0.176449 0.282676
Si Si5 0.560678 0.423548 0.016719
Si Si6 0.301041 0.799841 0.117915
Si Si7 0.198958 0.700159 0.219998
Si Si8 0.439322 0.423548 0.138074
O O1 0.311785 0.621085 0.630283
O O2 0.367800 0.685584 0.382200
O O3 0.342818 0.751796 0.654820
O O4 0.407327 0.639586 0.594025
O O5 0.738278 0.500000 0.761722
O O6 0.784777 0.627420 0.718054
O O7 0.750373 0.570001 0.999627
O O8 0.311785 0.621085 0.246147
O O9 0.215223 0.627420 0.287608
O O10 0.092673 0.139585 0.408680
O O11 0.157182 0.251796 0.340456
O O12 0.500000 0.412410 0.061519
O O13 0.572702 0.427864 0.177298
O O14 0.573434 0.500000 0.926567
O O15 0.250000 0.750000 0.168900
O O16 0.314807 0.813522 0.935193
#
# Coordination Sequence:
#
# PCOD9261357 Si02
#       8
#     8   8   8   8   8   8   8   8
#     4  10  19  30  45  63  85 114 146 179 215 256
#     4  10  19  29  42  62  87 114 145 178 213 254
#     4  10  19  29  42  62  87 114 145 178 213 254
#     4  10  19  30  45  63  85 114 146 179 215 256
#     4  10  20  32  45  62  85 113 146 183 219 254
#     4   9  17  29  44  61  83 111 142 176 213 253
#     4   9  17  29  44  61  83 111 142 176 213 253
#     4  10  20  32  45  62  85 113 146 183 219 254
#
# _framework density 14.495585999999999
#
# number of rings (size 3 to 8) (size 9 to 14) (size 15 to 20)
#    0.000    2.250    0.000    3.750    0.000    9.500 
#    0.000    0.000    0.000    0.000    0.000    0.000 
#    0.000    1.000    0.000    3.750    0.000    5.750 
#
# Total GULP energy -178515.813664 kJ/mol
# GULP energy per Si atom -5578.619177 kJ/mol
# Density = 1.446259 g / cm^3
# Si number density = 14.495586 Si / 1000 Ang^3
#
#
#
# Elastic Constant Matrix: (Units=GPa)
#
#
# Indices 1 2 3 4 5 6 
#
# 1 42.4024 15.8507 37.5306 0.0000 15.6069 0.0000
# 2 15.8507 57.9916 49.4076 0.0000 13.8192 0.0000
# 3 37.5306 49.4076 117.3924 0.0000 15.2749 0.0000
# 4 0.0000 0.0000 0.0000 29.4089 0.0000 0.1503
# 5 15.6069 13.8192 15.2749 0.0000 21.2483 0.0000
# 6 0.0000 0.0000 0.0000 0.1503 0.0000 29.0438
#
#
#
# Elastic Compliance Matrix: (Units=1/GPa)
#
#
# Indices 1 2 3 4 5 6 
#
# 1 0.041747 0.004932 -0.012152 0.000000 -0.025135 0.000000
# 2 0.004932 0.029685 -0.012231 0.000000 -0.014136 0.000000
# 3 -0.012152 -0.012231 0.016939 0.000000 0.004703 0.000000
# 4 0.000000 0.000000 0.000000 0.034004 0.000000 -0.000176
# 5 -0.025135 -0.014136 0.004703 0.000000 0.071337 0.000000
# 6 0.000000 0.000000 0.000000 -0.000176 0.000000 0.034432
#
#
# Mechanical properties :
#
#
# Convention : Reuss Voigt Hill
#
# Bulk Modulus (GPa) = 20.21446 47.04046 33.62746
# Shear Modulus (GPa) = 17.63447 23.60671 20.62059
#
# Velocity S-wave (km/s) = 3.49168 4.03990 3.77575
# Velocity P-wave (km/s) = 5.49830 7.36771 6.50055
#
# Compressibility (1/GPa) = 0.04946954
#
# Stress axis : x y z
#
# Youngs Moduli (GPa) = 23.95391 33.68699 59.03456
#
# Poissons Ratio (x) = -0.16615 0.71738
# Poissons Ratio (y) = -0.11815 0.72206
# Poissons Ratio (z) = 0.29108 0.41203
#
# Static dielectric constant tensor:
#      x y z
#    x 1.463760 0.000000 0.006690 
#    y 0.000000 1.456020 0.000000 
#    z 0.006690 0.000000 1.480010 
# 
# From -- ./inp_files/66207.got.cif
#   From: 2010.05.17/outbox.cif.g08.bks.cpg/sg15_34_cif.got.tgz:66207.got - 2010.06.03 18:47:42.
