data_PCOD9261111
_publ_section_title
;
Structure prediction by ZEFSAII (Michael W. Deem and Ramdas Pophale) SiO2 
 PCOD9261111
Probable space group: C 2/C
;
_chemical_formula_sum "Si O2"
_cell_formula_units_Z 56
_cell_length_a 23.465478
_cell_length_b 17.130088
_cell_length_c 8.977623
_cell_angle_alpha 90.000000
_cell_angle_beta 143.165642
_cell_angle_gamma 90.000000
_cell_volume 2163.426776
_symmetry_space_group_name_H-M "C 2/C"
_symmetry_group_IT_number 15
_symmetry_cell_setting 'monoclinic'
loop_
_space_group_symop_operation_xyz
x,y,z
-x,y,1/2-z
-x,-y,-z
x,-y,1/2+z
1/2+x,1/2+y,z
1/2-x,1/2+y,1/2-z
1/2-x,1/2-y,-z
1/2+x,1/2-y,1/2+z
loop_
_atom_site_type_symbol
_atom_site_label
_atom_site_fract_x
_atom_site_fract_y
_atom_site_fract_z
Si Si1 0.198695 0.338562 0.476838
Si Si2 0.105771 0.253621 0.543726
Si Si3 0.686289 0.381003 0.044228
Si Si4 0.000000 0.484850 0.750000
Si Si5 0.009804 0.667419 0.106007
Si Si6 0.500000 0.529217 0.750000
Si Si7 0.201009 0.529378 0.190583
Si Si8 0.624256 0.532043 0.765311
O O1 0.181920 0.301070 0.604233
O O2 0.275852 0.323448 0.508250
O O3 0.223116 0.426894 0.582711
O O4 0.094715 0.331847 0.186048
O O5 0.143772 0.166521 0.592975
O O6 0.086877 0.288970 0.666102
O O7 0.000000 0.256286 0.250000
O O8 0.577693 0.480566 0.008672
O O9 0.618648 0.442121 0.818345
O O10 0.028424 0.424270 0.679063
O O11 0.910621 0.536450 0.519553
O O12 0.000000 0.703718 0.250000
O O13 0.557378 0.576427 0.744363
O O14 0.269805 0.556732 0.467521
O O15 0.226242 0.437329 0.229821
#
# Coordination Sequence:
#
# PCOD9261111 Si02
#       8
#     8   8   8   4   8   4   8   8
#     4  11  21  41  65 102 141 192 252 298 375 446
#     4  10  23  40  72  98 138 199 251 296 384 450
#     4  10  21  41  64 103 147 184 244 318 363 443
#     4  10  20  40  64  98 152 194 230 310 366 422
#     4   9  20  42  63 101 144 190 246 299 363 453
#     4  10  18  40  64  94 132 186 234 312 362 436
#     4  10  23  36  67 106 149 192 242 310 363 444
#     4   9  21  36  67  95 138 179 243 298 374 421
#
# _framework density 25.88486
#
# number of rings (size 3 to 8) (size 9 to 14) (size 15 to 20)
#    1.286    0.857    1.429    1.286    4.000    1.714 
#    0.000    2.857    6.286    6.857    0.000    0.000 
#    0.000    0.429    0.286    0.000    0.000    0.000 
#
# Total GULP energy -156167.822466 kJ/mol
# GULP energy per Si atom -5577.422231 kJ/mol
# Density = 2.582595 g / cm^3
# Si number density = 25.884860 Si / 1000 Ang^3
#
#
#
# Elastic Constant Matrix: (Units=GPa)
#
#
# Indices 1 2 3 4 5 6 
#
# 1 160.7145 26.6398 50.9634 0.0000 -31.9567 0.0000
# 2 26.6398 42.2794 0.1087 0.0000 -8.8397 0.0000
# 3 50.9634 0.1087 156.9230 0.0000 -2.1518 0.0000
# 4 0.0000 0.0000 0.0000 12.3271 0.0000 -6.4077
# 5 -31.9567 -8.8397 -2.1518 0.0000 46.2051 0.0000
# 6 0.0000 0.0000 0.0000 -6.4077 0.0000 46.1251
#
#
#
# Elastic Compliance Matrix: (Units=1/GPa)
#
#
# Indices 1 2 3 4 5 6 
#
# 1 0.008887 -0.004515 -0.002812 0.000000 0.005152 0.000000
# 2 -0.004515 0.026932 0.001476 0.000000 0.002098 0.000000
# 3 -0.002812 0.001476 0.007267 0.000000 -0.001324 0.000000
# 4 0.000000 0.000000 0.000000 0.087436 0.000000 0.012147
# 5 0.005152 0.002098 -0.001324 0.000000 0.025545 0.000000
# 6 0.000000 0.000000 0.000000 0.012147 0.000000 0.023368
#
#
# Mechanical properties :
#
#
# Convention : Reuss Voigt Hill
#
# Bulk Modulus (GPa) = 31.86388 57.26009 44.56199
# Shear Modulus (GPa) = 24.80185 39.74514 32.27349
#
# Velocity S-wave (km/s) = 3.09877 3.92274 3.53485
# Velocity P-wave (km/s) = 5.01396 6.53348 5.82349
#
# Compressibility (1/GPa) = 0.03138350
#
# Stress axis : x y z
#
# Youngs Moduli (GPa) = 112.52649 37.13050 137.61334
#
# Poissons Ratio (x) = 0.16765 0.38702
# Poissons Ratio (y) = 0.50808 -0.20319
# Poissons Ratio (z) = 0.31647 -0.05482
#
# Static dielectric constant tensor:
#      x y z
#    x 2.185560 0.000000 -0.008090 
#    y 0.000000 2.161890 0.000000 
#    z -0.008090 0.000000 1.978170 
# 
# From -- ./inp_files/58525.got.cif
#   From: 2010.05.17/outbox.cif.g08.bks.cpg/sg15_30_cif.got.tgz:58525.got - 2010.06.03 18:47:42.
