data_PCOD9261023
_publ_section_title
;
Structure prediction by ZEFSAII (Michael W. Deem and Ramdas Pophale) SiO2 
 PCOD9261023
Probable space group: C 2/C
;
_chemical_formula_sum "Si O2"
_cell_formula_units_Z 64
_cell_length_a 14.394685
_cell_length_b 12.181957
_cell_length_c 18.009652
_cell_angle_alpha 90.000000
_cell_angle_beta 73.516416
_cell_angle_gamma 90.000000
_cell_volume 3028.296202
_symmetry_space_group_name_H-M "C 2/C"
_symmetry_group_IT_number 15
_symmetry_cell_setting 'monoclinic'
loop_
_space_group_symop_operation_xyz
x,y,z
-x,y,1/2-z
-x,-y,-z
x,-y,1/2+z
1/2+x,1/2+y,z
1/2-x,1/2+y,1/2-z
1/2-x,1/2-y,-z
1/2+x,1/2-y,1/2+z
loop_
_atom_site_type_symbol
_atom_site_label
_atom_site_fract_x
_atom_site_fract_y
_atom_site_fract_z
Si Si1 0.574135 0.204003 0.445763
Si Si2 0.556079 0.796179 0.391500
Si Si3 0.442245 0.339572 0.187927
Si Si4 0.370781 0.170276 0.843129
Si Si5 0.201740 0.089489 0.974276
Si Si6 0.266773 0.104460 0.726037
Si Si7 0.272960 0.404081 0.863855
Si Si8 0.933076 0.961674 0.584174
O O1 0.494274 0.162516 0.521283
O O2 0.527245 0.253573 0.382107
O O3 0.631412 0.307757 0.470373
O O4 0.659675 0.123593 0.402123
O O5 0.481615 0.827029 0.342343
O O6 0.662182 0.841446 0.350478
O O7 0.558630 0.664531 0.398050
O O8 0.500000 0.328704 0.250000
O O9 0.327276 0.325803 0.228854
O O10 0.455108 0.459384 0.148110
O O11 0.307982 0.132013 0.928832
O O12 0.334206 0.095889 0.783572
O O13 0.333257 0.293615 0.833043
O O14 0.171856 0.993576 0.924894
O O15 0.191303 0.058843 0.062441
O O16 0.223209 0.994000 0.700831
O O17 0.000000 0.000000 0.500000
#
# Coordination Sequence:
#
# PCOD9261023 Si02
#       8
#     8   8   8   8   8   8   8   8
#     4  10  19  43  70  92 129 179 234 267 326 412
#     4  12  24  41  72 103 130 172 235 281 319 399
#     4  11  25  42  62  96 142 177 215 282 356 389
#     4  11  21  45  68  97 133 182 220 277 334 403
#     4  10  18  39  72  98 127 173 225 270 339 401
#     4  12  28  39  62 106 142 163 225 289 332 397
#     4  11  21  40  70  92 134 182 220 269 344 397
#     4  11  21  39  71 104 127 164 232 289 321 394
#
# _framework density 21.133997999999998
#
# number of rings (size 3 to 8) (size 9 to 14) (size 15 to 20)
#    0.000    1.000    8.750    1.125    5.250    0.500 
#    0.000    3.750    0.000    0.000    0.000    0.000 
#    0.000    0.000    0.000    0.000    0.000    0.000 
#
# Total GULP energy -178797.848767 kJ/mol
# GULP energy per Si atom -5587.432774 kJ/mol
# Density = 2.108590 g / cm^3
# Si number density = 21.133998 Si / 1000 Ang^3
#
#
#
# Elastic Constant Matrix: (Units=GPa)
#
#
# Indices 1 2 3 4 5 6 
#
# 1 72.7289 12.1886 27.1168 0.0000 0.7103 0.0000
# 2 12.1886 15.9281 18.6841 0.0000 10.8068 0.0000
# 3 27.1168 18.6841 110.8543 0.0000 15.6745 0.0000
# 4 0.0000 0.0000 0.0000 37.9124 0.0000 2.9980
# 5 0.7103 10.8068 15.6745 0.0000 57.7166 0.0000
# 6 0.0000 0.0000 0.0000 2.9980 0.0000 21.8020
#
#
#
# Elastic Compliance Matrix: (Units=1/GPa)
#
#
# Indices 1 2 3 4 5 6 
#
# 1 0.016588 -0.011573 -0.002480 0.000000 0.002636 0.000000
# 2 -0.011573 0.094447 -0.011031 0.000000 -0.014546 0.000000
# 3 -0.002480 -0.011031 0.011637 0.000000 -0.001064 0.000000
# 4 0.000000 0.000000 0.000000 0.026667 0.000000 -0.003667
# 5 0.002636 -0.014546 -0.001064 0.000000 0.020306 0.000000
# 6 0.000000 0.000000 0.000000 -0.003667 0.000000 0.046372
#
#
# Mechanical properties :
#
#
# Convention : Reuss Voigt Hill
#
# Bulk Modulus (GPa) = 13.79232 35.05448 24.42340
# Shear Modulus (GPa) = 17.22039 32.92099 25.07069
#
# Velocity S-wave (km/s) = 2.85760 3.95109 3.44797
# Velocity P-wave (km/s) = 4.17470 6.11862 5.23764
#
# Compressibility (1/GPa) = 0.07250411
#
# Stress axis : x y z
#
# Youngs Moduli (GPa) = 60.28405 10.58792 85.93137
#
# Poissons Ratio (x) = 0.12254 0.21310
# Poissons Ratio (y) = 0.69769 0.94790
# Poissons Ratio (z) = 0.14949 0.11679
#
# Static dielectric constant tensor:
#      x y z
#    x 1.792720 0.000000 -0.029290 
#    y 0.000000 1.773610 0.000000 
#    z -0.029290 0.000000 1.814560 
# 
# From -- ./inp_files/205074.got.cif
#   From: 2010.05.17/outbox.cif.g08.bks.cpg/sg15_103_cif.got.tgz:205074.got - 2010.06.03 18:47:42.
