data_PCOD9261581
_publ_section_title
;
Structure prediction by ZEFSAII (Michael W. Deem and Ramdas Pophale) SiO2 
 PCOD9261581
Probable space group: C 2/C
;
_chemical_formula_sum "Si O2"
_cell_formula_units_Z 64
_cell_length_a 9.346562
_cell_length_b 20.367303
_cell_length_c 22.088386
_cell_angle_alpha 90.000000
_cell_angle_beta 38.842499
_cell_angle_gamma 90.000000
_cell_volume 2637.198282
_symmetry_space_group_name_H-M "C 2/C"
_symmetry_group_IT_number 15
_symmetry_cell_setting 'monoclinic'
loop_
_space_group_symop_operation_xyz
x,y,z
-x,y,1/2-z
-x,-y,-z
x,-y,1/2+z
1/2+x,1/2+y,z
1/2-x,1/2+y,1/2-z
1/2-x,1/2-y,-z
1/2+x,1/2-y,1/2+z
loop_
_atom_site_type_symbol
_atom_site_label
_atom_site_fract_x
_atom_site_fract_y
_atom_site_fract_z
Si Si1 0.501335 0.909764 0.181196
Si Si2 0.691659 0.660628 0.400467
Si Si3 0.592574 0.734371 0.612308
Si Si4 0.215514 0.026608 0.463397
Si Si5 0.153374 0.858089 0.593622
Si Si6 0.227214 0.999814 0.595179
Si Si7 0.785849 0.221957 0.606315
Si Si8 0.815794 0.373259 0.127457
O O1 0.500000 0.936953 0.250000
O O2 0.663852 0.847200 0.136963
O O3 0.308965 0.875621 0.202710
O O4 0.589335 0.972718 0.113769
O O5 0.914662 0.704301 0.339481
O O6 0.743868 0.598208 0.425801
O O7 0.561818 0.640787 0.381688
O O8 0.500976 0.710129 0.491002
O O9 0.750000 0.750000 0.500000
O O10 0.359013 0.725234 0.652283
O O11 0.692512 0.677111 0.622191
O O12 0.149860 0.025202 0.555095
O O13 0.000000 0.000000 0.500000
O O14 0.141807 0.926263 0.634742
O O15 0.164284 0.789080 0.625461
O O16 0.408042 0.864681 0.478023
O O17 0.500000 0.000000 0.500000
O O18 0.201455 0.057821 0.649475
#
# Coordination Sequence:
#
# PCOD9261581 Si02
#       8
#     8   8   8   8   8   8   8   8
#     4  12  26  42  59  83 124 174 203 237 311 388
#     4  11  19  30  54  90 119 146 191 261 304 338
#     4  10  20  29  56  94 120 145 183 255 312 348
#     4  12  20  36  61  89 119 152 206 260 305 354
#     4  11  18  31  56  91 118 150 188 255 308 351
#     4  10  19  30  54  93 116 150 193 261 309 340
#     4  11  20  35  56  86 121 150 198 251 304 357
#     4  11  19  36  57  88 126 154 202 249 307 356
#
# _framework density 24.268177999999999
#
# number of rings (size 3 to 8) (size 9 to 14) (size 15 to 20)
#    0.000    1.000    8.750    2.625    1.750    0.000 
#    0.000    0.625    0.000    6.000    0.000    0.000 
#    0.000    0.000    0.000    0.000    0.000    0.000 
#
# Total GULP energy -178211.064612 kJ/mol
# GULP energy per Si atom -5569.095769 kJ/mol
# Density = 2.421294 g / cm^3
# Si number density = 24.268178 Si / 1000 Ang^3
#
#
#
# Elastic Constant Matrix: (Units=GPa)
#
#
# Indices 1 2 3 4 5 6 
#
# 1 122.4307 24.0279 13.0491 0.0113 29.5654 -0.0035
# 2 24.0279 159.8936 4.4784 0.0049 6.7827 -0.0022
# 3 13.0491 4.4784 55.1912 -0.0252 14.9799 0.0092
# 4 0.0113 0.0049 -0.0252 1.6881 0.0064 14.0616
# 5 29.5654 6.7827 14.9799 0.0064 26.0913 -0.0003
# 6 -0.0035 -0.0022 0.0092 14.0616 -0.0003 55.1260
#
#
#
# Elastic Compliance Matrix: (Units=1/GPa)
#
#
# Indices 1 2 3 4 5 6 
#
# 1 0.011508 -0.001193 0.000985 0.000011 -0.013295 -0.000002
# 2 -0.001193 0.006448 -0.000181 0.000013 -0.000220 -0.000003
# 3 0.000985 -0.000181 0.021548 -0.000352 -0.013440 0.000086
# 4 0.000011 0.000013 -0.000352 -0.526649 0.000316 0.134339
# 5 -0.013295 -0.000220 -0.013440 0.000316 0.061166 -0.000079
# 6 -0.000002 -0.000003 0.000086 0.134339 -0.000079 -0.016127
#
#
# Mechanical properties :
#
#
# Convention : Reuss Voigt Hill
#
# Bulk Modulus (GPa) = 25.82344 46.73625 36.27984
# Shear Modulus (GPa) = -11.67084 36.31175 12.32046
#
# Velocity S-wave (km/s) = -2.19535 3.87236 2.25562
# Velocity P-wave (km/s) = 2.05862 6.26846 4.66538
#
# Compressibility (1/GPa) = 0.03872451
#
# Stress axis : x y z
#
# Youngs Moduli (GPa) = 86.89864 155.09053 46.40705
#
# Poissons Ratio (x) = 0.18501 -0.04569
# Poissons Ratio (y) = 0.10366 0.00842
# Poissons Ratio (z) = -0.08555 0.02813
#
# Static dielectric constant tensor:
#      x y z
#    x 1.744320 -0.000230 -0.063430 
#    y -0.000230 2.192570 0.000040 
#    z -0.063430 0.000040 2.138890 
# 
# From -- ./inp_files/233863.got.cif
#   From: 2010.05.17/outbox.cif.g08.bks.cpg/sg15_117_cif.got.tgz:233863.got - 2010.06.03 18:47:42.
