data_PCOD9261254
_publ_section_title
;
Structure prediction by ZEFSAII (Michael W. Deem and Ramdas Pophale) SiO2 
 PCOD9261254
Probable space group: C 2/C
;
_chemical_formula_sum "Si O2"
_cell_formula_units_Z 44
_cell_length_a 12.760931
_cell_length_b 15.188936
_cell_length_c 19.549576
_cell_angle_alpha 90.000000
_cell_angle_beta 152.252396
_cell_angle_gamma 90.000000
_cell_volume 1764.164383
_symmetry_space_group_name_H-M "C 2/C"
_symmetry_group_IT_number 15
_symmetry_cell_setting 'monoclinic'
loop_
_space_group_symop_operation_xyz
x,y,z
-x,y,1/2-z
-x,-y,-z
x,-y,1/2+z
1/2+x,1/2+y,z
1/2-x,1/2+y,1/2-z
1/2-x,1/2-y,-z
1/2+x,1/2-y,1/2+z
loop_
_atom_site_type_symbol
_atom_site_label
_atom_site_fract_x
_atom_site_fract_y
_atom_site_fract_z
Si Si1 0.732848 0.404774 0.662087
Si Si2 0.000000 0.943034 0.250000
Si Si3 0.709816 0.898386 0.566423
Si Si4 0.246401 0.148270 0.017025
Si Si5 0.621282 0.907197 0.245924
Si Si6 0.625698 0.300408 0.729528
O O1 0.671895 0.370941 0.551499
O O2 0.709289 0.510181 0.655514
O O3 0.610504 0.343626 0.646568
O O4 0.997669 0.387231 0.831391
O O5 0.915119 0.893322 0.133978
O O6 0.803514 0.012058 0.153401
O O7 0.535752 0.925777 0.409675
O O8 0.663361 0.839835 0.605703
O O9 0.896117 0.838432 0.632474
O O10 0.250000 0.250000 0.000000
O O11 0.500000 0.912491 0.250000
O O12 0.660195 0.803403 0.254962
#
# Coordination Sequence:
#
# PCOD9261254 Si02
#       6
#     8   4   8   8   8   8
#     4  11  24  46  69 108 137 183 240 288 348 424
#     4  10  18  42  68  98 128 188 228 284 342 416
#     4  10  22  43  68  99 139 179 234 290 351 415
#     4  11  23  44  70  95 145 186 233 285 354 415
#     4  12  21  45  75  93 143 191 228 293 350 416
#     4  10  24  41  69 105 136 179 236 291 349 412
#
# _framework density 24.940988000000001
#
# number of rings (size 3 to 8) (size 9 to 14) (size 15 to 20)
#    0.000    1.455    5.455    1.636    0.000    2.182 
#   13.091    4.545    0.000    0.000    0.000    0.000 
#    0.000    0.000    0.000    0.000    0.000    0.000 
#
# Total GULP energy -122913.482542 kJ/mol
# GULP energy per Si atom -5586.976479 kJ/mol
# Density = 2.488422 g / cm^3
# Si number density = 24.940988 Si / 1000 Ang^3
#
#
#
# Elastic Constant Matrix: (Units=GPa)
#
#
# Indices 1 2 3 4 5 6 
#
# 1 91.9644 45.7930 48.1218 -0.0096 -39.3662 0.0135
# 2 45.7930 239.1510 94.8452 -0.0060 -34.4860 0.0112
# 3 48.1218 94.8452 163.2799 -0.0145 -43.2058 0.0200
# 4 -0.0096 -0.0060 -0.0145 65.8957 -0.0097 -49.6850
# 5 -39.3662 -34.4860 -43.2058 -0.0097 41.0754 0.0117
# 6 0.0135 0.0112 0.0200 -49.6850 0.0117 64.1644
#
#
#
# Elastic Compliance Matrix: (Units=1/GPa)
#
#
# Indices 1 2 3 4 5 6 
#
# 1 0.018739 -0.000973 -0.000584 0.000000 0.016528 -0.000007
# 2 -0.000973 0.005573 -0.002715 0.000000 0.000891 0.000000
# 3 -0.000584 -0.002715 0.009869 0.000000 0.007542 -0.000004
# 4 0.000000 0.000000 0.000000 0.036466 0.000000 0.028237
# 5 0.016528 0.000891 0.007542 0.000000 0.048867 -0.000015
# 6 -0.000007 0.000000 -0.000004 0.028237 -0.000015 0.037450
#
#
# Mechanical properties :
#
#
# Convention : Reuss Voigt Hill
#
# Bulk Modulus (GPa) = 39.00566 96.87948 67.94257
# Shear Modulus (GPa) = 28.72688 54.60279 41.66484
#
# Velocity S-wave (km/s) = 3.39749 4.68405 4.09165
# Velocity P-wave (km/s) = 5.57348 8.25721 7.04433
#
# Compressibility (1/GPa) = 0.02563731
#
# Stress axis : x y z
#
# Youngs Moduli (GPa) = 53.36521 179.44158 101.32562
#
# Poissons Ratio (x) = 0.17464 0.05917
# Poissons Ratio (y) = 0.05194 0.27506
# Poissons Ratio (z) = 0.03116 0.48711
#
# Static dielectric constant tensor:
#      x y z
#    x 2.039080 -0.000010 0.159520 
#    y -0.000010 2.009940 -0.000010 
#    z 0.159520 -0.000010 2.159300 
# 
# From -- ./inp_files/244627.got.cif
#   From: 2010.05.17/outbox.cif.g08.bks.cpg/sg15_123_cif.got.tgz:244627.got - 2010.06.03 18:47:42.
