data_PCOD9261035
_publ_section_title
;
Structure prediction by ZEFSAII (Michael W. Deem and Ramdas Pophale) SiO2 
 PCOD9261035
Probable space group: C 2/C
;
_chemical_formula_sum "Si O2"
_cell_formula_units_Z 52
_cell_length_a 30.313673
_cell_length_b 8.179399
_cell_length_c 13.040074
_cell_angle_alpha 90.000000
_cell_angle_beta 48.293624
_cell_angle_gamma 90.000000
_cell_volume 2413.832567
_symmetry_space_group_name_H-M "C 2/C"
_symmetry_group_IT_number 15
_symmetry_cell_setting 'monoclinic'
loop_
_space_group_symop_operation_xyz
x,y,z
-x,y,1/2-z
-x,-y,-z
x,-y,1/2+z
1/2+x,1/2+y,z
1/2-x,1/2+y,1/2-z
1/2-x,1/2-y,-z
1/2+x,1/2-y,1/2+z
loop_
_atom_site_type_symbol
_atom_site_label
_atom_site_fract_x
_atom_site_fract_y
_atom_site_fract_z
Si Si1 0.902201 0.267763 0.906534
Si Si2 0.807817 0.484853 0.144599
Si Si3 0.778950 0.215358 0.346254
Si Si4 0.500000 0.976792 0.250000
Si Si5 0.590796 0.583412 0.394306
Si Si6 0.440722 0.561917 0.272207
Si Si7 0.088873 0.733689 0.505332
O O1 0.947112 0.404994 0.798319
O O2 0.905923 0.108872 0.830877
O O3 0.839435 0.351212 0.022161
O O4 0.922425 0.199709 0.987808
O O5 0.781638 0.384382 0.279096
O O6 0.760281 0.588754 0.157475
O O7 0.860024 0.606616 0.099839
O O8 0.750000 0.250000 0.500000
O O9 0.844917 0.140398 0.245356
O O10 0.472159 0.866737 0.383771
O O11 0.548547 0.600836 0.362177
O O12 0.590743 0.396390 0.434300
O O13 0.500000 0.542992 0.250000
O O14 0.402973 0.697493 0.390766
#
# Coordination Sequence:
#
# PCOD9261035 Si02
#       7
#     8   8   8   4   8   8   8
#     4   9  21  39  62  89 128 160 208 258 310 372
#     4  10  22  41  65  94 132 161 208 269 311 376
#     4  11  23  42  68  95 125 171 212 261 326 380
#     4  10  18  40  58  86 124 168 196 246 312 362
#     4  10  23  39  62  93 124 163 214 261 310 379
#     4  11  21  40  63  88 124 171 209 257 312 365
#     4  10  21  39  62  91 125 164 204 255 313 370
#
# _framework density 21.542503
#
# number of rings (size 3 to 8) (size 9 to 14) (size 15 to 20)
#    0.000    1.846    1.538    1.846    0.000    6.154 
#    0.000    8.462    0.000    0.000    0.000    0.000 
#    0.000    0.000    0.000    0.000    0.000    0.000 
#
# Total GULP energy -145232.321835 kJ/mol
# GULP energy per Si atom -5585.858532 kJ/mol
# Density = 2.149347 g / cm^3
# Si number density = 21.542503 Si / 1000 Ang^3
#
#
#
# Elastic Constant Matrix: (Units=GPa)
#
#
# Indices 1 2 3 4 5 6 
#
# 1 79.0128 36.3978 46.0124 0.0000 5.0128 0.0000
# 2 36.3978 143.6403 58.0494 0.0000 -0.9138 0.0000
# 3 46.0124 58.0494 119.8821 0.0000 -2.8129 0.0000
# 4 0.0000 0.0000 0.0000 37.7620 0.0000 -16.3928
# 5 5.0128 -0.9138 -2.8129 0.0000 23.0937 0.0000
# 6 0.0000 0.0000 0.0000 -16.3928 0.0000 24.1508
#
#
#
# Elastic Compliance Matrix: (Units=1/GPa)
#
#
# Indices 1 2 3 4 5 6 
#
# 1 0.017228 -0.002088 -0.005708 0.000000 -0.004517 0.000000
# 2 -0.002088 0.008909 -0.003504 0.000000 0.000379 0.000000
# 3 -0.005708 -0.003504 0.012290 0.000000 0.002597 0.000000
# 4 0.000000 0.000000 0.000000 0.037544 0.000000 0.025484
# 5 -0.004517 0.000379 0.002597 0.000000 0.044614 0.000000
# 6 0.000000 0.000000 0.000000 0.025484 0.000000 0.058704
#
#
# Mechanical properties :
#
#
# Convention : Reuss Voigt Hill
#
# Bulk Modulus (GPa) = 63.17503 69.27272 66.22387
# Shear Modulus (GPa) = 24.13548 30.47302 27.30425
#
# Velocity S-wave (km/s) = 3.35082 3.76514 3.56400
# Velocity P-wave (km/s) = 6.66033 7.15037 6.90970
#
# Compressibility (1/GPa) = 0.01582904
#
# Stress axis : x y z
#
# Youngs Moduli (GPa) = 58.04427 112.24247 81.36864
#
# Poissons Ratio (x) = 0.23433 0.46441
# Poissons Ratio (y) = 0.12118 0.28511
# Poissons Ratio (z) = 0.33129 0.39328
#
# Static dielectric constant tensor:
#      x y z
#    x 1.804680 0.000000 -0.024720 
#    y 0.000000 1.813030 0.000000 
#    z -0.024720 0.000000 1.798120 
# 
# From -- ./inp_files/121825.got.cif
#   From: 2010.05.17/outbox.cif.g08.bks.cpg/sg15_61_cif.got.tgz:121825.got - 2010.06.03 18:47:42.
