data_PCOD9261560
_publ_section_title
;
Structure prediction by ZEFSAII (Michael W. Deem and Ramdas Pophale) SiO2 
 PCOD9261560
Probable space group: C 2/C
;
_chemical_formula_sum "Si O2"
_cell_formula_units_Z 52
_cell_length_a 22.245426
_cell_length_b 20.476179
_cell_length_c 10.103492
_cell_angle_alpha 90.000000
_cell_angle_beta 147.282479
_cell_angle_gamma 90.000000
_cell_volume 2487.453318
_symmetry_space_group_name_H-M "C 2/C"
_symmetry_group_IT_number 15
_symmetry_cell_setting 'monoclinic'
loop_
_space_group_symop_operation_xyz
x,y,z
-x,y,1/2-z
-x,-y,-z
x,-y,1/2+z
1/2+x,1/2+y,z
1/2-x,1/2+y,1/2-z
1/2-x,1/2-y,-z
1/2+x,1/2-y,1/2+z
loop_
_atom_site_type_symbol
_atom_site_label
_atom_site_fract_x
_atom_site_fract_y
_atom_site_fract_z
Si Si1 0.972914 0.455358 0.071374
Si Si2 0.661307 0.857191 0.369579
Si Si3 0.996940 0.246379 0.996208
Si Si4 0.743345 0.356716 0.226576
Si Si5 0.500000 0.653494 0.250000
Si Si6 0.325834 0.706210 0.370358
Si Si7 0.303337 0.145153 0.137190
O O1 0.074299 0.404224 0.276924
O O2 0.000000 0.498763 0.250000
O O3 0.000000 0.500000 0.000000
O O4 0.864563 0.413142 0.830308
O O5 0.597818 0.789061 0.240626
O O6 0.682549 0.881096 0.259199
O O7 0.767688 0.841265 0.654594
O O8 0.976138 0.194806 0.072667
O O9 0.052092 0.218278 0.965296
O O10 0.894071 0.296042 0.789151
O O11 0.764197 0.277462 0.259495
O O12 0.770908 0.375443 0.428320
O O13 0.619512 0.379419 0.956775
O O14 0.297955 0.673471 0.461092
#
# Coordination Sequence:
#
# PCOD9261560 Si02
#       7
#     8   8   8   8   4   8   8
#     4  11  25  41  64  87 118 157 205 257 310 359
#     4  10  19  36  55  78 115 159 193 239 302 346
#     4  10  19  30  53  76 115 162 194 227 280 365
#     4  11  22  33  54  85 120 160 200 239 284 368
#     4  12  18  32  52  78 118 160 202 226 276 352
#     4  11  18  34  52  82 112 169 202 224 295 360
#     4  11  23  38  55  85 127 160 196 256 301 345
#
# _framework density 20.904914000000002
#
# number of rings (size 3 to 8) (size 9 to 14) (size 15 to 20)
#    0.000    1.231    6.154    1.385    4.308    4.923 
#    0.000    0.000    0.000    0.000    0.000    1.077 
#    0.000    0.000    0.000    0.000    0.000    0.000 
#
# Total GULP energy -144899.688145 kJ/mol
# GULP energy per Si atom -5573.064929 kJ/mol
# Density = 2.085733 g / cm^3
# Si number density = 20.904914 Si / 1000 Ang^3
#
#
#
# Elastic Constant Matrix: (Units=GPa)
#
#
# Indices 1 2 3 4 5 6 
#
# 1 112.7760 -4.0034 21.1587 0.0000 -5.7056 0.0000
# 2 -4.0034 8.4414 -0.6786 0.0000 -0.2192 0.0000
# 3 21.1587 -0.6786 78.6136 0.0000 -30.3498 0.0000
# 4 0.0000 0.0000 0.0000 13.6325 0.0000 -7.9648
# 5 -5.7056 -0.2192 -30.3498 0.0000 40.7654 0.0000
# 6 0.0000 0.0000 0.0000 -7.9648 0.0000 15.6295
#
#
#
# Elastic Compliance Matrix: (Units=1/GPa)
#
#
# Indices 1 2 3 4 5 6 
#
# 1 0.009508 0.004264 -0.002806 0.000000 -0.000736 0.000000
# 2 0.004264 0.120570 0.000524 0.000000 0.001636 0.000000
# 3 -0.002806 0.000524 0.018706 0.000000 0.013537 0.000000
# 4 0.000000 0.000000 0.000000 0.104453 0.000000 0.053229
# 5 -0.000736 0.001636 0.013537 0.000000 0.034515 0.000000
# 6 0.000000 0.000000 0.000000 0.053229 0.000000 0.091107
#
#
# Mechanical properties :
#
#
# Convention : Reuss Voigt Hill
#
# Bulk Modulus (GPa) = 6.54665 25.86494 16.20580
# Shear Modulus (GPa) = 11.74232 26.22912 18.98572
#
# Velocity S-wave (km/s) = 2.37260 3.54600 3.01690
# Velocity P-wave (km/s) = 3.26252 5.40046 4.46145
#
# Compressibility (1/GPa) = 0.15274984
#
# Stress axis : x y z
#
# Youngs Moduli (GPa) = 105.17696 8.29392 53.45786
#
# Poissons Ratio (x) = -0.03537 0.15001
# Poissons Ratio (y) = -0.44852 -0.02804
# Poissons Ratio (z) = 0.29514 -0.00435
#
# Static dielectric constant tensor:
#      x y z
#    x 1.976050 0.000000 -0.121560 
#    y 0.000000 1.718690 0.000000 
#    z -0.121560 0.000000 1.910940 
# 
# From -- ./inp_files/41704.got.cif
#   From: 2010.05.17/outbox.cif.g08.bks.cpg/sg15_21_cif.got.tgz:41704.got - 2010.06.03 18:47:42.
