data_PCOD9261110
_publ_section_title
;
Structure prediction by ZEFSAII (Michael W. Deem and Ramdas Pophale) SiO2 
 PCOD9261110
Probable space group: C 2/C
;
_chemical_formula_sum "Si O2"
_cell_formula_units_Z 36
_cell_length_a 9.010391
_cell_length_b 17.775091
_cell_length_c 15.132013
_cell_angle_alpha 90.000000
_cell_angle_beta 144.437461
_cell_angle_gamma 90.000000
_cell_volume 1409.516038
_symmetry_space_group_name_H-M "C 2/C"
_symmetry_group_IT_number 15
_symmetry_cell_setting 'monoclinic'
loop_
_space_group_symop_operation_xyz
x,y,z
-x,y,1/2-z
-x,-y,-z
x,-y,1/2+z
1/2+x,1/2+y,z
1/2-x,1/2+y,1/2-z
1/2-x,1/2-y,-z
1/2+x,1/2-y,1/2+z
loop_
_atom_site_type_symbol
_atom_site_label
_atom_site_fract_x
_atom_site_fract_y
_atom_site_fract_z
Si Si1 0.500000 0.673294 0.250000
Si Si2 0.551296 0.555261 0.432778
Si Si3 0.407209 0.958344 0.365232
Si Si4 0.750654 0.143747 0.417940
Si Si5 0.418616 0.808063 0.471099
O O1 0.536172 0.622635 0.354126
O O2 0.778112 0.710069 0.373303
O O3 0.845530 0.531915 0.576478
O O4 0.468940 0.589880 0.486299
O O5 0.346347 0.498064 0.291610
O O6 0.372244 0.870325 0.373180
O O7 0.500000 0.000000 0.500000
O O8 0.500000 0.113421 0.250000
O O9 0.695670 0.154974 0.494656
O O10 0.792648 0.227399 0.399051
#
# Coordination Sequence:
#
# PCOD9261110 Si02
#       5
#     4   8   8   8   8
#     4  10  18  40  64  94 130 178 210 286 324 412
#     4  11  22  40  70  97 140 176 232 274 343 397
#     4  11  20  41  68 101 132 188 221 279 332 412
#     4  11  22  43  65 100 135 177 218 293 333 404
#     4  10  23  40  70  96 135 175 227 271 352 405
#
# _framework density 25.540682
#
# number of rings (size 3 to 8) (size 9 to 14) (size 15 to 20)
#    0.000    1.333    6.667    0.000    0.000    5.333 
#    0.000    8.889    0.000    0.000    0.000    0.000 
#    0.000    0.000    0.000    0.000    0.000    0.000 
#
# Total GULP energy -100870.263651 kJ/mol
# GULP energy per Si atom -5603.903536 kJ/mol
# Density = 2.548255 g / cm^3
# Si number density = 25.540682 Si / 1000 Ang^3
#
#
#
# Elastic Constant Matrix: (Units=GPa)
#
#
# Indices 1 2 3 4 5 6 
#
# 1 164.9956 54.7929 55.6840 0.0019 26.8151 0.0031
# 2 54.7929 106.2705 51.8322 0.0007 11.0960 0.0004
# 3 55.6840 51.8322 70.4039 0.0157 19.2983 0.0216
# 4 0.0019 0.0007 0.0157 34.5984 0.0038 -12.6857
# 5 26.8151 11.0960 19.2983 0.0038 47.0945 0.0046
# 6 0.0031 0.0004 0.0216 -12.6857 0.0046 -15.4812
#
#
#
# Elastic Compliance Matrix: (Units=1/GPa)
#
#
# Indices 1 2 3 4 5 6 
#
# 1 0.008726 -0.001884 -0.004815 0.000000 -0.002552 -0.000006
# 2 -0.001884 0.015139 -0.010107 -0.000001 0.001648 -0.000013
# 3 -0.004815 -0.010107 0.027092 0.000001 -0.005979 0.000034
# 4 0.000000 -0.000001 0.000001 0.022225 0.000000 -0.018212
# 5 -0.002552 0.001648 -0.005979 0.000000 0.024748 -0.000001
# 6 -0.000006 -0.000013 0.000034 -0.018212 -0.000001 -0.049671
#
#
# Mechanical properties :
#
#
# Convention : Reuss Voigt Hill
#
# Bulk Modulus (GPa) = 57.65526 74.03202 65.84364
# Shear Modulus (GPa) = 57.04279 25.19974 41.12126
#
# Velocity S-wave (km/s) = 4.73102 3.14451 4.01687
# Velocity P-wave (km/s) = 7.24336 6.49867 6.88110
#
# Compressibility (1/GPa) = 0.01734447
#
# Stress axis : x y z
#
# Youngs Moduli (GPa) = 114.59677 66.05498 36.91180
#
# Poissons Ratio (x) = 0.12447 0.17774
# Poissons Ratio (y) = 0.21594 0.37306
# Poissons Ratio (z) = 0.55180 0.66760
#
# Static dielectric constant tensor:
#      x y z
#    x 2.094510 0.000000 0.037560 
#    y 0.000000 2.027030 0.000000 
#    z 0.037560 0.000000 1.929030 
# 
# From -- ./inp_files/190732.got.cif
#   From: 2010.05.17/outbox.cif.g08.bks.cpg/sg15_96_cif.got.tgz:190732.got - 2010.06.03 18:47:42.
