data_PCOD9261796
_publ_section_title
;
Structure prediction by ZEFSAII (Michael W. Deem and Ramdas Pophale) SiO2 
 PCOD9261796
Probable space group: C 2/C
;
_chemical_formula_sum "Si O2"
_cell_formula_units_Z 60
_cell_length_a 24.979843
_cell_length_b 19.149251
_cell_length_c 15.020385
_cell_angle_alpha 90.000000
_cell_angle_beta 150.345424
_cell_angle_gamma 90.000000
_cell_volume 3554.886992
_symmetry_space_group_name_H-M "C 2/C"
_symmetry_group_IT_number 15
_symmetry_cell_setting 'monoclinic'
loop_
_space_group_symop_operation_xyz
x,y,z
-x,y,1/2-z
-x,-y,-z
x,-y,1/2+z
1/2+x,1/2+y,z
1/2-x,1/2+y,1/2-z
1/2-x,1/2-y,-z
1/2+x,1/2-y,1/2+z
loop_
_atom_site_type_symbol
_atom_site_label
_atom_site_fract_x
_atom_site_fract_y
_atom_site_fract_z
Si Si1 0.847326 0.596731 0.923319
Si Si2 0.718742 0.800971 0.589728
Si Si3 0.635498 0.240194 0.288444
Si Si4 0.852109 0.188727 0.877792
Si Si5 0.099781 0.442470 0.462924
Si Si6 0.015864 0.371386 0.513228
Si Si7 0.577169 0.737232 0.226996
Si Si8 0.500000 0.799871 0.750000
O O1 0.727991 0.624066 0.727591
O O2 0.848587 0.518907 0.963122
O O3 0.903708 0.650334 0.074648
O O4 0.925129 0.600826 0.949348
O O5 0.710133 0.754008 0.665856
O O6 0.678263 0.878707 0.550538
O O7 0.637160 0.763500 0.402069
O O8 0.835071 0.797435 0.711283
O O9 0.750000 0.250000 0.500000
O O10 0.629776 0.294632 0.199792
O O11 0.611331 0.164277 0.209287
O O12 0.543874 0.245251 0.231500
O O13 0.972794 0.188970 0.092282
O O14 0.057042 0.426116 0.500612
O O15 0.000000 0.441144 0.250000
O O16 0.966463 0.306883 0.385225
#
# Coordination Sequence:
#
# PCOD9261796 Si02
#       8
#     8   8   8   8   8   8   8   4
#     4  11  22  35  53  80 118 149 183 227 286 337
#     4  11  20  36  59  85 111 142 189 239 289 330
#     4  10  19  31  54  77 107 143 186 227 272 327
#     4  11  20  35  55  81 113 148 188 234 278 338
#     4  12  21  36  56  86 117 149 185 233 289 337
#     4  10  20  35  53  84 115 142 183 238 281 331
#     4  10  20  34  59  86 109 139 190 242 285 330
#     4  10  20  34  48  78 108 144 184 232 276 326
#
# _framework density 16.878174000000001
#
# number of rings (size 3 to 8) (size 9 to 14) (size 15 to 20)
#    0.000    1.333    7.333    0.800    0.000    0.000 
#    0.000    0.667    0.000    0.000    0.000    0.000 
#    0.000    0.000    0.000    0.000    0.000    0.000 
#
# Total GULP energy -167329.778449 kJ/mol
# GULP energy per Si atom -5577.659282 kJ/mol
# Density = 1.683976 g / cm^3
# Si number density = 16.878174 Si / 1000 Ang^3
#
#
#
# Elastic Constant Matrix: (Units=GPa)
#
#
# Indices 1 2 3 4 5 6 
#
# 1 98.1887 34.0706 20.5859 0.0000 3.5872 0.0000
# 2 34.0706 80.1286 22.7112 0.0000 15.2131 0.0000
# 3 20.5859 22.7112 65.6586 0.0000 12.4217 0.0000
# 4 0.0000 0.0000 0.0000 20.8713 0.0000 6.3152
# 5 3.5872 15.2131 12.4217 0.0000 30.3597 0.0000
# 6 0.0000 0.0000 0.0000 6.3152 0.0000 16.0071
#
#
#
# Elastic Compliance Matrix: (Units=1/GPa)
#
#
# Indices 1 2 3 4 5 6 
#
# 1 0.012352 -0.004916 -0.002560 0.000000 0.002051 0.000000
# 2 -0.004916 0.016658 -0.002982 0.000000 -0.006546 0.000000
# 3 -0.002560 -0.002982 0.018128 0.000000 -0.005620 0.000000
# 4 0.000000 0.000000 0.000000 0.054408 0.000000 -0.021465
# 5 0.002051 -0.006546 -0.005620 0.000000 0.038276 0.000000
# 6 0.000000 0.000000 0.000000 -0.021465 0.000000 0.070941
#
#
# Mechanical properties :
#
#
# Convention : Reuss Voigt Hill
#
# Bulk Modulus (GPa) = 38.13740 44.30127 41.21933
# Shear Modulus (GPa) = 20.79693 24.55485 22.67589
#
# Velocity S-wave (km/s) = 3.51405 3.81836 3.66936
# Velocity P-wave (km/s) = 6.25376 6.76347 6.51360
#
# Compressibility (1/GPa) = 0.02622098
#
# Stress axis : x y z
#
# Youngs Moduli (GPa) = 80.95793 60.03005 55.16359
#
# Poissons Ratio (x) = 0.29510 0.14124
# Poissons Ratio (y) = 0.39798 0.16452
# Poissons Ratio (z) = 0.20729 0.17903
#
# Static dielectric constant tensor:
#      x y z
#    x 1.600040 0.000000 -0.014120 
#    y 0.000000 1.539620 0.000000 
#    z -0.014120 0.000000 1.599610 
# 
# From -- ./inp_files/174107.got.cif
#   From: 2010.05.17/outbox.cif.g08.bks.cpg/sg15_88_cif.got.tgz:174107.got - 2010.06.03 18:47:42.
