data_PCOD9261694
_publ_section_title
;
Structure prediction by ZEFSAII (Michael W. Deem and Ramdas Pophale) SiO2 
 PCOD9261694
Probable space group: C 2/C
;
_chemical_formula_sum "Si O2"
_cell_formula_units_Z 36
_cell_length_a 7.244245
_cell_length_b 30.186067
_cell_length_c 7.555992
_cell_angle_alpha 90.000000
_cell_angle_beta 73.871855
_cell_angle_gamma 90.000000
_cell_volume 1587.278339
_symmetry_space_group_name_H-M "C 2/C"
_symmetry_group_IT_number 15
_symmetry_cell_setting 'monoclinic'
loop_
_space_group_symop_operation_xyz
x,y,z
-x,y,1/2-z
-x,-y,-z
x,-y,1/2+z
1/2+x,1/2+y,z
1/2-x,1/2+y,1/2-z
1/2-x,1/2-y,-z
1/2+x,1/2-y,1/2+z
loop_
_atom_site_type_symbol
_atom_site_label
_atom_site_fract_x
_atom_site_fract_y
_atom_site_fract_z
Si Si1 0.297532 0.142352 0.197182
Si Si2 0.874703 0.433906 0.436828
Si Si3 0.491817 0.777905 0.461753
Si Si4 0.500000 0.014663 0.250000
Si Si5 0.409128 0.316263 0.447490
O O1 0.500000 0.132874 0.250000
O O2 0.130110 0.150785 0.381893
O O3 0.256772 0.103932 0.066073
O O4 0.339288 0.188437 0.085621
O O5 0.827236 0.479025 0.337817
O O6 0.000000 0.409732 0.250000
O O7 0.976514 0.456176 0.581639
O O8 0.500000 0.776581 0.250000
O O9 0.472383 0.728311 0.540892
O O10 0.696583 0.797629 0.465584
O O11 0.500000 0.337753 0.250000
#
# Coordination Sequence:
#
# PCOD9261694 Si02
#       5
#     8   8   8   4   8
#     4  10  19  31  50  73 104 137 174 220 262 313
#     4   9  15  28  47  75 105 126 164 214 278 308
#     4  10  20  35  54  73  98 142 186 226 268 307
#     4   8  16  26  48  76 106 122 162 226 272 310
#     4  10  21  35  49  73 106 141 183 222 265 310
#
# _framework density 22.680332
#
# number of rings (size 3 to 8) (size 9 to 14) (size 15 to 20)
#    0.667    1.778    1.111    4.000    0.000    3.556 
#    0.000    0.000    0.000    0.000    0.000    1.556 
#    0.000    0.000    0.000    0.000    0.000    0.000 
#
# Total GULP energy -100261.865190 kJ/mol
# GULP energy per Si atom -5570.103622 kJ/mol
# Density = 2.262871 g / cm^3
# Si number density = 22.680332 Si / 1000 Ang^3
#
#
#
# Elastic Constant Matrix: (Units=GPa)
#
#
# Indices 1 2 3 4 5 6 
#
# 1 44.0671 27.5362 11.7571 0.0000 4.9254 0.0000
# 2 27.5362 107.2927 85.1683 0.0000 -14.6922 0.0000
# 3 11.7571 85.1683 228.2087 0.0000 -0.2069 0.0000
# 4 0.0000 0.0000 0.0000 37.9650 0.0000 6.5844
# 5 4.9254 -14.6922 -0.2069 0.0000 31.7899 0.0000
# 6 0.0000 0.0000 0.0000 6.5844 0.0000 -3.3427
#
#
#
# Elastic Compliance Matrix: (Units=1/GPa)
#
#
# Indices 1 2 3 4 5 6 
#
# 1 0.030027 -0.011095 0.002585 0.000000 -0.009763 0.000000
# 2 -0.011095 0.018637 -0.006374 0.000000 0.010291 0.000000
# 3 0.002585 -0.006374 0.006625 0.000000 -0.003303 0.000000
# 4 0.000000 0.000000 0.000000 0.019633 0.000000 0.038673
# 5 -0.009763 0.010291 -0.003303 0.000000 0.037704 0.000000
# 6 0.000000 0.000000 0.000000 0.038673 0.000000 -0.222984
#
#
# Mechanical properties :
#
#
# Convention : Reuss Voigt Hill
#
# Bulk Modulus (GPa) = 39.18549 69.83240 54.50895
# Shear Modulus (GPa) = -69.36548 30.28958 -19.53795
#
# Velocity S-wave (km/s) = -5.53628 3.65841 -2.93823
# Velocity P-wave (km/s) = 4.85308 6.97868 3.54610
#
# Compressibility (1/GPa) = 0.02551965
#
# Stress axis : x y z
#
# Youngs Moduli (GPa) = 33.30289 53.65649 150.94889
#
# Poissons Ratio (x) = 0.59534 -0.39020
# Poissons Ratio (y) = 0.36951 0.96222
# Poissons Ratio (z) = -0.08609 0.34203
#
# Static dielectric constant tensor:
#      x y z
#    x 1.952210 0.000000 0.029630 
#    y 0.000000 1.880210 0.000000 
#    z 0.029630 0.000000 1.857410 
# 
# From -- ./inp_files/25004.got.cif
#   From: 2010.05.17/outbox.cif.g08.bks.cpg/sg15_13_cif.got.tgz:25004.got - 2010.06.03 18:47:42.
