data_PCOD9261176
_publ_section_title
;
Structure prediction by ZEFSAII (Michael W. Deem and Ramdas Pophale) SiO2 
 PCOD9261176
Probable space group: C 2/C
;
_chemical_formula_sum "Si O2"
_cell_formula_units_Z 52
_cell_length_a 15.373637
_cell_length_b 15.452007
_cell_length_c 12.783247
_cell_angle_alpha 90.000000
_cell_angle_beta 49.159796
_cell_angle_gamma 90.000000
_cell_volume 2297.378275
_symmetry_space_group_name_H-M "C 2/C"
_symmetry_group_IT_number 15
_symmetry_cell_setting 'monoclinic'
loop_
_space_group_symop_operation_xyz
x,y,z
-x,y,1/2-z
-x,-y,-z
x,-y,1/2+z
1/2+x,1/2+y,z
1/2-x,1/2+y,1/2-z
1/2-x,1/2-y,-z
1/2+x,1/2-y,1/2+z
loop_
_atom_site_type_symbol
_atom_site_label
_atom_site_fract_x
_atom_site_fract_y
_atom_site_fract_z
Si Si1 0.606683 0.802405 0.514594
Si Si2 0.397075 0.069517 0.159597
Si Si3 0.000000 0.559221 0.750000
Si Si4 0.743523 0.916150 0.261423
Si Si5 0.629413 0.509380 0.177782
Si Si6 0.778253 0.133327 0.053135
Si Si7 0.271911 0.148913 0.965817
O O1 0.488464 0.852024 0.578374
O O2 0.700108 0.831223 0.354909
O O3 0.666360 0.830314 0.577368
O O4 0.616231 0.699273 0.515414
O O5 0.276310 0.106993 0.294552
O O6 0.446582 0.006695 0.210204
O O7 0.352784 0.988952 0.122792
O O8 0.095636 0.620449 0.623591
O O9 0.753579 0.888804 0.132096
O O10 0.855591 0.957758 0.225346
O O11 0.500000 0.525855 0.250000
O O12 0.682287 0.446093 0.048054
O O13 0.697634 0.597999 0.109212
O O14 0.250000 0.250000 0.000000
#
# Coordination Sequence:
#
# PCOD9261176 Si02
#       7
#     8   8   4   8   8   8   8
#     4  10  20  33  61  99 133 171 226 286 335 405
#     4  11  18  39  66  93 136 181 226 284 346 423
#     4  10  18  40  70  92 134 182 222 274 350 406
#     4  10  23  42  68 102 133 181 243 276 353 432
#     4  11  24  46  69  96 141 187 226 291 364 422
#     4  10  20  37  60  94 135 176 222 277 353 415
#     4  11  25  45  70 104 139 184 239 294 346 422
#
# _framework density 22.634497
#
# number of rings (size 3 to 8) (size 9 to 14) (size 15 to 20)
#    0.000    1.538    4.615    1.385    1.077    6.769 
#    0.000    3.077    0.000    0.000    0.000    0.000 
#    0.000    0.000    0.000    0.000    0.000    0.000 
#
# Total GULP energy -144866.831141 kJ/mol
# GULP energy per Si atom -5571.801198 kJ/mol
# Density = 2.258298 g / cm^3
# Si number density = 22.634497 Si / 1000 Ang^3
#
#
#
# Elastic Constant Matrix: (Units=GPa)
#
#
# Indices 1 2 3 4 5 6 
#
# 1 54.2276 24.5917 19.1209 0.0000 -0.3370 0.0000
# 2 24.5917 147.0703 27.4473 0.0000 -8.3397 0.0000
# 3 19.1209 27.4473 54.7519 0.0000 -3.7426 0.0000
# 4 0.0000 0.0000 0.0000 21.9509 0.0000 -5.8028
# 5 -0.3370 -8.3397 -3.7426 0.0000 41.3391 0.0000
# 6 0.0000 0.0000 0.0000 -5.8028 0.0000 17.5900
#
#
#
# Elastic Compliance Matrix: (Units=1/GPa)
#
#
# Indices 1 2 3 4 5 6 
#
# 1 0.021839 -0.002502 -0.006434 0.000000 -0.000909 0.000000
# 2 -0.002502 0.007846 -0.002971 0.000000 0.001293 0.000000
# 3 -0.006434 -0.002971 0.022093 0.000000 0.001348 0.000000
# 4 0.000000 0.000000 0.000000 0.049909 0.000000 0.016464
# 5 -0.000909 0.001293 0.001348 0.000000 0.024566 0.000000
# 6 0.000000 0.000000 0.000000 0.016464 0.000000 0.062282
#
#
# Mechanical properties :
#
#
# Convention : Reuss Voigt Hill
#
# Bulk Modulus (GPa) = 35.76277 44.26329 40.01303
# Shear Modulus (GPa) = 22.55614 28.50200 25.52907
#
# Velocity S-wave (km/s) = 3.16022 3.55241 3.36204
# Velocity P-wave (km/s) = 5.39911 6.03525 5.72603
#
# Compressibility (1/GPa) = 0.02796204
#
# Stress axis : x y z
#
# Youngs Moduli (GPa) = 45.79012 127.45897 45.26383
#
# Poissons Ratio (x) = 0.31895 0.29125
# Poissons Ratio (y) = 0.11459 0.13447
# Poissons Ratio (z) = 0.29463 0.37865
#
# Static dielectric constant tensor:
#      x y z
#    x 1.973600 0.000000 -0.007920 
#    y 0.000000 1.999800 0.000000 
#    z -0.007920 0.000000 1.872200 
# 
# From -- ./inp_files/162488.got.cif
#   From: 2010.05.17/outbox.cif.g08.bks.cpg/sg15_82_cif.got.tgz:162488.got - 2010.06.03 18:47:42.
