data_PCOD9261188
_publ_section_title
;
Structure prediction by ZEFSAII (Michael W. Deem and Ramdas Pophale) SiO2 
 PCOD9261188
Probable space group: C 2/C
;
_chemical_formula_sum "Si O2"
_cell_formula_units_Z 44
_cell_length_a 12.050902
_cell_length_b 14.066468
_cell_length_c 14.577463
_cell_angle_alpha 90.000000
_cell_angle_beta 39.575660
_cell_angle_gamma 90.000000
_cell_volume 1574.315814
_symmetry_space_group_name_H-M "C 2/C"
_symmetry_group_IT_number 15
_symmetry_cell_setting 'monoclinic'
loop_
_space_group_symop_operation_xyz
x,y,z
-x,y,1/2-z
-x,-y,-z
x,-y,1/2+z
1/2+x,1/2+y,z
1/2-x,1/2+y,1/2-z
1/2-x,1/2-y,-z
1/2+x,1/2-y,1/2+z
loop_
_atom_site_type_symbol
_atom_site_label
_atom_site_fract_x
_atom_site_fract_y
_atom_site_fract_z
Si Si1 0.189761 0.643205 0.739951
Si Si2 0.500000 0.552907 0.250000
Si Si3 0.685166 0.751151 0.665839
Si Si4 0.666164 0.814646 0.934304
Si Si5 0.197974 0.913136 0.005595
Si Si6 0.450882 0.956266 0.630937
O O1 0.294420 0.686039 0.758819
O O2 0.267504 0.706092 0.609087
O O3 0.190769 0.529275 0.737077
O O4 0.990741 0.671360 0.894088
O O5 0.667793 0.618154 0.157597
O O6 0.548193 0.485037 0.132740
O O7 0.500000 0.790977 0.750000
O O8 0.809282 0.844393 0.578807
O O9 0.709733 0.669396 0.574517
O O10 0.598591 0.851738 0.875722
O O11 0.382901 0.962843 0.909063
O O12 0.500000 0.000000 0.500000
#
# Coordination Sequence:
#
# PCOD9261188 Si02
#       6
#     8   4   8   8   8   8
#     4  11  23  42  65  94 131 171 210 266 324 381
#     4  12  22  42  66  86 120 180 224 250 318 398
#     4  11  22  34  62  99 133 151 206 270 327 376
#     4  11  24  41  67  91 127 169 221 262 317 389
#     4  11  21  36  62  93 122 167 209 253 317 396
#     4  10  18  41  60  87 126 172 201 254 329 388
#
# _framework density 27.948650000000001
#
# number of rings (size 3 to 8) (size 9 to 14) (size 15 to 20)
#    0.000    1.091    8.182    1.091    2.545    0.727 
#    0.000    5.455    0.000    0.000    0.000    0.000 
#    0.000    0.000    0.000    0.000    0.000    0.000 
#
# Total GULP energy -122988.024536 kJ/mol
# GULP energy per Si atom -5590.364752 kJ/mol
# Density = 2.788504 g / cm^3
# Si number density = 27.948650 Si / 1000 Ang^3
#
#
#
# Elastic Constant Matrix: (Units=GPa)
#
#
# Indices 1 2 3 4 5 6 
#
# 1 75.7950 -14.3708 4.5515 0.0000 -19.1176 0.0000
# 2 -14.3708 132.6874 11.4539 -0.0001 -14.4884 0.0000
# 3 4.5515 11.4539 82.8250 0.0000 -28.7070 0.0001
# 4 0.0000 -0.0001 0.0000 68.9795 0.0001 -0.6142
# 5 -19.1176 -14.4884 -28.7070 0.0001 38.2715 -0.0001
# 6 0.0000 0.0000 0.0001 -0.6142 -0.0001 26.4195
#
#
#
# Elastic Compliance Matrix: (Units=1/GPa)
#
#
# Indices 1 2 3 4 5 6 
#
# 1 0.016382 0.002771 0.002590 0.000000 0.011175 0.000000
# 2 0.002771 0.008330 0.000363 0.000000 0.004810 0.000000
# 3 0.002590 0.000363 0.016725 0.000000 0.013976 0.000000
# 4 0.000000 0.000000 0.000000 0.014500 0.000000 0.000337
# 5 0.011175 0.004810 0.013976 0.000000 0.044016 0.000000
# 6 0.000000 0.000000 0.000000 0.000337 0.000000 0.037859
#
#
# Mechanical properties :
#
#
# Convention : Reuss Voigt Hill
#
# Bulk Modulus (GPa) = 18.90911 32.73075 25.81993
# Shear Modulus (GPa) = 34.72378 46.04561 40.38470
#
# Velocity S-wave (km/s) = 3.52861 4.06335 3.80539
# Velocity P-wave (km/s) = 4.83548 5.80955 5.34475
#
# Compressibility (1/GPa) = 0.05288457
#
# Stress axis : x y z
#
# Youngs Moduli (GPa) = 61.04299 120.04084 59.78935
#
# Poissons Ratio (x) = -0.33262 -0.15484
# Poissons Ratio (y) = -0.16914 -0.02169
# Poissons Ratio (z) = -0.15808 -0.04355
#
# Static dielectric constant tensor:
#      x y z
#    x 2.333670 0.000000 0.145670 
#    y 0.000000 2.230160 0.000000 
#    z 0.145670 0.000000 2.395140 
# 
# From -- ./inp_files/168552.got.cif
#   From: 2010.05.17/outbox.cif.g08.bks.cpg/sg15_85_cif.got.tgz:168552.got - 2010.06.03 18:47:42.
