data_PCOD9261114
_publ_section_title
;
Structure prediction by ZEFSAII (Michael W. Deem and Ramdas Pophale) SiO2 
 PCOD9261114
Probable space group: C 2/C
;
_chemical_formula_sum "Si O2"
_cell_formula_units_Z 60
_cell_length_a 19.513385
_cell_length_b 5.644231
_cell_length_c 21.810018
_cell_angle_alpha 90.000000
_cell_angle_beta 93.675019
_cell_angle_gamma 90.000000
_cell_volume 2397.173346
_symmetry_space_group_name_H-M "C 2/C"
_symmetry_group_IT_number 15
_symmetry_cell_setting 'monoclinic'
loop_
_space_group_symop_operation_xyz
x,y,z
-x,y,1/2-z
-x,-y,-z
x,-y,1/2+z
1/2+x,1/2+y,z
1/2-x,1/2+y,1/2-z
1/2-x,1/2-y,-z
1/2+x,1/2-y,1/2+z
loop_
_atom_site_type_symbol
_atom_site_label
_atom_site_fract_x
_atom_site_fract_y
_atom_site_fract_z
Si Si1 0.919195 0.285001 0.985245
Si Si2 0.032479 0.098161 0.912467
Si Si3 0.500000 0.963768 0.250000
Si Si4 0.284967 0.998337 0.525217
Si Si5 0.896755 0.257110 0.689313
Si Si6 0.918383 0.081823 0.308740
Si Si7 0.785266 0.398433 0.763225
Si Si8 0.690087 0.394138 0.120141
O O1 0.866113 0.158943 0.935303
O O2 0.944615 0.105947 0.039131
O O3 0.865997 0.480937 0.011264
O O4 0.989430 0.303341 0.947310
O O5 0.102285 0.149798 0.877643
O O6 0.978389 0.993407 0.859215
O O7 0.532357 0.101974 0.307694
O O8 0.441433 0.818506 0.278960
O O9 0.250000 0.750000 0.500000
O O10 0.260657 0.021314 0.594313
O O11 0.250000 0.250000 0.500000
O O12 0.908591 0.086973 0.748966
O O13 0.839749 0.427901 0.711758
O O14 0.847565 0.089998 0.340734
O O15 0.745436 0.643182 0.758966
O O16 0.805164 0.332784 0.834497
#
# Coordination Sequence:
#
# PCOD9261114 Si02
#       8
#     8   8   4   8   8   8   8   8
#     4   9  21  38  72  99 136 187 234 296 365 431
#     4  10  18  40  65 104 143 174 236 301 363 438
#     4  12  20  36  68 104 132 188 226 284 372 444
#     4  10  22  44  68  96 131 186 242 278 344 421
#     4  11  23  40  67  98 140 185 228 292 364 429
#     4  10  20  39  64  98 139 173 231 284 361 427
#     4  11  28  47  70 105 137 183 242 295 358 424
#     4   9  22  44  68  96 136 185 229 298 350 423
#
# _framework density 25.029477
#
# number of rings (size 3 to 8) (size 9 to 14) (size 15 to 20)
#    0.000    1.867    2.667    0.000    5.600    3.200 
#    4.800    0.000    0.000    9.600    0.000    0.000 
#    0.000    0.000    0.000    0.000    0.000    0.000 
#
# Total GULP energy -167086.537801 kJ/mol
# GULP energy per Si atom -5569.551260 kJ/mol
# Density = 2.497251 g / cm^3
# Si number density = 25.029477 Si / 1000 Ang^3
#
#
#
# Elastic Constant Matrix: (Units=GPa)
#
#
# Indices 1 2 3 4 5 6 
#
# 1 121.2901 41.1378 54.8805 0.0000 -27.6544 0.0000
# 2 41.1378 83.0033 29.8970 0.0000 4.8264 0.0000
# 3 54.8805 29.8970 148.6017 0.0000 -18.9682 0.0000
# 4 0.0000 0.0000 0.0000 33.2669 0.0000 -9.0349
# 5 -27.6544 4.8264 -18.9682 0.0000 51.5560 0.0000
# 6 0.0000 0.0000 0.0000 -9.0349 0.0000 54.6534
#
#
#
# Elastic Compliance Matrix: (Units=1/GPa)
#
#
# Indices 1 2 3 4 5 6 
#
# 1 0.012942 -0.005784 -0.002792 0.000000 0.006456 0.000000
# 2 -0.005784 0.015836 -0.001716 0.000000 -0.005216 0.000000
# 3 -0.002792 -0.001716 0.008326 0.000000 0.001726 0.000000
# 4 0.000000 0.000000 0.000000 0.031473 0.000000 0.005203
# 5 0.006456 -0.005216 0.001726 0.000000 0.023983 0.000000
# 6 0.000000 0.000000 0.000000 0.005203 0.000000 0.019157
#
#
# Mechanical properties :
#
#
# Convention : Reuss Voigt Hill
#
# Bulk Modulus (GPa) = 60.53094 67.19174 63.86134
# Shear Modulus (GPa) = 36.28295 43.02726 39.65510
#
# Velocity S-wave (km/s) = 3.81150 4.15066 3.98469
# Velocity P-wave (km/s) = 6.60352 7.06215 6.83668
#
# Compressibility (1/GPa) = 0.01652048
#
# Stress axis : x y z
#
# Youngs Moduli (GPa) = 77.26998 63.14890 120.10619
#
# Poissons Ratio (x) = 0.36525 0.33531
# Poissons Ratio (y) = 0.44692 0.20606
# Poissons Ratio (z) = 0.21572 0.10834
#
# Static dielectric constant tensor:
#      x y z
#    x 2.118760 0.000000 -0.022750 
#    y 0.000000 2.073680 0.000000 
#    z -0.022750 0.000000 2.059570 
# 
# From -- ./inp_files/278964.got.cif
#   From: 2010.05.17/outbox.cif.g08.bks.cpg/sg15_140_cif.got.tgz:278964.got - 2010.06.03 18:47:42.
