data_PCOD9261935
_publ_section_title
;
Structure prediction by ZEFSAII (Michael W. Deem and Ramdas Pophale) SiO2 
 PCOD9261935
Probable space group: C 2/C
;
_chemical_formula_sum "Si O2"
_cell_formula_units_Z 48
_cell_length_a 15.588621
_cell_length_b 9.197585
_cell_length_c 18.171960
_cell_angle_alpha 90.000000
_cell_angle_beta 87.285538
_cell_angle_gamma 90.000000
_cell_volume 2602.529783
_symmetry_space_group_name_H-M "C 2/C"
_symmetry_group_IT_number 15
_symmetry_cell_setting 'monoclinic'
loop_
_space_group_symop_operation_xyz
x,y,z
-x,y,1/2-z
-x,-y,-z
x,-y,1/2+z
1/2+x,1/2+y,z
1/2-x,1/2+y,1/2-z
1/2-x,1/2-y,-z
1/2+x,1/2-y,1/2+z
loop_
_atom_site_type_symbol
_atom_site_label
_atom_site_fract_x
_atom_site_fract_y
_atom_site_fract_z
Si Si1 0.850476 0.355017 0.352484
Si Si2 0.995212 0.800224 0.925712
Si Si3 0.839454 0.150985 0.664756
Si Si4 0.523934 0.358855 0.084778
Si Si5 0.408951 0.358769 0.720602
Si Si6 0.593342 0.164333 0.209526
O O1 0.915636 0.304900 0.413262
O O2 0.750170 0.338772 0.373180
O O3 0.871965 0.250832 0.281896
O O4 0.870930 0.518064 0.326833
O O5 0.063239 0.781645 0.856656
O O6 0.962272 0.967792 0.920821
O O7 0.036340 0.788690 0.004286
O O8 0.847997 0.270437 0.728420
O O9 0.923665 0.161369 0.610493
O O10 0.849093 0.993936 0.703779
O O11 0.578436 0.283597 0.146359
O O12 0.500000 0.417053 0.750000
O O13 0.500000 0.135976 0.250000
#
# Coordination Sequence:
#
# PCOD9261935 Si02
#       6
#     8   8   8   8   8   8
#     4  11  20  30  50  77 102 122 154 207 249 278
#     4   9  18  34  54  71  93 131 170 194 231 290
#     4  10  19  32  51  74  99 126 158 200 245 286
#     4   9  19  35  54  69  93 133 169 194 229 293
#     4   9  17  33  53  70  93 131 168 192 230 293
#     4  10  19  32  50  74  98 126 163 199 238 284
#
# _framework density 18.443593
#
# number of rings (size 3 to 8) (size 9 to 14) (size 15 to 20)
#    0.000    2.333    0.000    6.000    0.000    1.333 
#    0.000    0.000    0.000   20.000    0.000    0.000 
#    0.000    0.000    0.000    0.000    0.000    0.000 
#
# Total GULP energy -133909.536416 kJ/mol
# GULP energy per Si atom -5579.564017 kJ/mol
# Density = 1.840161 g / cm^3
# Si number density = 18.443593 Si / 1000 Ang^3
#
#
#
# Elastic Constant Matrix: (Units=GPa)
#
#
# Indices 1 2 3 4 5 6 
#
# 1 37.3759 9.1338 -16.4221 0.0000 8.7279 0.0000
# 2 9.1338 40.1557 -13.1443 0.0000 0.7342 0.0000
# 3 -16.4221 -13.1443 46.3665 0.0000 -0.0209 0.0000
# 4 0.0000 0.0000 0.0000 3.2772 0.0000 -13.3570
# 5 8.7279 0.7342 -0.0209 0.0000 9.0134 0.0000
# 6 0.0000 0.0000 0.0000 -13.3570 0.0000 5.7120
#
#
#
# Elastic Compliance Matrix: (Units=1/GPa)
#
#
# Indices 1 2 3 4 5 6 
#
# 1 0.043993 -0.004565 0.014268 0.000000 -0.042194 0.000000
# 2 -0.004565 0.027968 0.006313 0.000000 0.002156 0.000000
# 3 0.014268 0.006313 0.028404 0.000000 -0.014265 0.000000
# 4 0.000000 0.000000 0.000000 -0.035769 0.000000 -0.083643
# 5 -0.042194 0.002156 -0.014265 0.000000 0.151594 0.000000
# 6 0.000000 0.000000 0.000000 -0.083643 0.000000 -0.020522
#
#
# Mechanical properties :
#
#
# Convention : Reuss Voigt Hill
#
# Bulk Modulus (GPa) = 7.55292 9.22587 8.38939
# Shear Modulus (GPa) = 24.06535 13.22258 18.64396
#
# Velocity S-wave (km/s) = 3.61613 2.68044 3.18286
# Velocity P-wave (km/s) = 4.64104 3.82005 4.25041
#
# Compressibility (1/GPa) = 0.13239917
#
# Stress axis : x y z
#
# Youngs Moduli (GPa) = 22.73091 35.75472 35.20609
#
# Poissons Ratio (x) = 0.16321 -0.50234
# Poissons Ratio (y) = 0.10376 -0.22225
# Poissons Ratio (z) = -0.32434 -0.22572
#
# Static dielectric constant tensor:
#      x y z
#    x 1.639270 0.000000 -0.004570 
#    y 0.000000 1.631650 0.000000 
#    z -0.004570 0.000000 1.643590 
# 
# From -- ./inp_files/202987.got.cif
#   From: 2010.05.17/outbox.cif.g08.bks.cpg/sg15_102_cif.got.tgz:202987.got - 2010.06.03 18:47:42.
