data_PCOD9261755
_publ_section_title
;
Structure prediction by ZEFSAII (Michael W. Deem and Ramdas Pophale) SiO2 
 PCOD9261755
Probable space group: C 2/C
;
_chemical_formula_sum "Si O2"
_cell_formula_units_Z 64
_cell_length_a 24.004891
_cell_length_b 21.011558
_cell_length_c 9.501613
_cell_angle_alpha 90.000000
_cell_angle_beta 144.259474
_cell_angle_gamma 90.000000
_cell_volume 2799.329590
_symmetry_space_group_name_H-M "C 2/C"
_symmetry_group_IT_number 15
_symmetry_cell_setting 'monoclinic'
loop_
_space_group_symop_operation_xyz
x,y,z
-x,y,1/2-z
-x,-y,-z
x,-y,1/2+z
1/2+x,1/2+y,z
1/2-x,1/2+y,1/2-z
1/2-x,1/2-y,-z
1/2+x,1/2-y,1/2+z
loop_
_atom_site_type_symbol
_atom_site_label
_atom_site_fract_x
_atom_site_fract_y
_atom_site_fract_z
Si Si1 0.675279 0.963350 0.553173
Si Si2 0.176605 0.858419 0.660589
Si Si3 0.170141 0.735415 0.951193
Si Si4 0.576231 0.360385 0.754568
Si Si5 0.524837 0.135959 0.638382
Si Si6 0.366102 0.374624 0.222282
Si Si7 0.071675 0.998261 0.274427
Si Si8 0.333226 0.914119 0.644953
O O1 0.775913 0.928730 0.725771
O O2 0.592812 0.925538 0.298310
O O3 0.660391 0.951003 0.689240
O O4 0.673852 0.034914 0.494923
O O5 0.114553 0.852256 0.673073
O O6 0.118932 0.844209 0.400890
O O7 0.270993 0.814416 0.834059
O O8 0.124891 0.798708 0.923797
O O9 0.086259 0.694737 0.709297
O O10 0.250000 0.750000 0.000000
O O11 0.460592 0.362604 0.507720
O O12 0.607648 0.430178 0.875079
O O13 0.500000 0.153673 0.750000
O O14 0.433047 0.122968 0.356493
O O15 0.357775 0.448257 0.150841
O O16 0.258145 0.366863 0.053426
O O17 0.000000 0.975488 0.250000
O O18 0.000000 0.000000 0.000000
#
# Coordination Sequence:
#
# PCOD9261755 Si02
#       8
#     8   8   8   8   8   8   8   8
#     4   9  18  32  53  79 108 145 186 230 277 328
#     4   9  17  33  55  78 103 145 193 228 272 343
#     4   9  19  35  57  79 104 144 195 237 278 335
#     4  10  19  32  52  79 109 143 181 234 284 326
#     4   9  18  34  55  78 105 142 188 230 278 340
#     4  10  19  32  53  79 111 145 181 224 280 343
#     4  10  20  33  51  79 111 145 181 222 279 339
#     4  10  19  31  52  81 111 147 187 227 276 336
#
# _framework density 22.862615000000002
#
# number of rings (size 3 to 8) (size 9 to 14) (size 15 to 20)
#    0.000    2.500    0.000    3.750    0.000    3.500 
#    0.000    0.625    0.000   19.500    0.000    0.000 
#    0.000    0.000    0.000    0.000    0.000    0.000 
#
# Total GULP energy -178234.596142 kJ/mol
# GULP energy per Si atom -5569.831129 kJ/mol
# Density = 2.281058 g / cm^3
# Si number density = 22.862615 Si / 1000 Ang^3
#
#
#
# Elastic Constant Matrix: (Units=GPa)
#
#
# Indices 1 2 3 4 5 6 
#
# 1 53.8192 3.8906 -0.3875 0.0000 13.9741 0.0000
# 2 3.8906 68.6814 16.7612 0.0000 13.0166 0.0000
# 3 -0.3875 16.7612 92.3012 0.0000 23.4945 0.0000
# 4 0.0000 0.0000 0.0000 7.0459 0.0000 12.4715
# 5 13.9741 13.0166 23.4945 0.0000 29.0943 0.0000
# 6 0.0000 0.0000 0.0000 12.4715 0.0000 25.4809
#
#
#
# Elastic Compliance Matrix: (Units=1/GPa)
#
#
# Indices 1 2 3 4 5 6 
#
# 1 0.022114 0.000485 0.003479 0.000000 -0.013648 0.000000
# 2 0.000485 0.016056 -0.001291 0.000000 -0.006373 0.000000
# 3 0.003479 -0.001291 0.014301 0.000000 -0.012642 0.000000
# 4 0.000000 0.000000 0.000000 1.061882 0.000000 -0.519734
# 5 -0.013648 -0.006373 -0.012642 0.000000 0.053986 0.000000
# 6 0.000000 0.000000 0.000000 -0.519734 0.000000 0.293626
#
#
# Mechanical properties :
#
#
# Convention : Reuss Voigt Hill
#
# Bulk Modulus (GPa) = 17.29642 28.37006 22.83324
# Shear Modulus (GPa) = 3.38778 25.29337 14.34057
#
# Velocity S-wave (km/s) = 1.21861 3.32975 2.50721
# Velocity P-wave (km/s) = 3.09222 5.21717 4.28839
#
# Compressibility (1/GPa) = 0.05781543
#
# Stress axis : x y z
#
# Youngs Moduli (GPa) = 45.21951 62.28390 69.92518
#
# Poissons Ratio (x) = -0.03020 -0.24325
# Poissons Ratio (y) = -0.02192 0.09029
# Poissons Ratio (z) = -0.15730 0.08042
#
# Static dielectric constant tensor:
#      x y z
#    x 1.907410 0.000000 0.001100 
#    y 0.000000 2.079370 0.000000 
#    z 0.001100 0.000000 1.913490 
# 
# From -- ./inp_files/124457.got.cif
#   From: 2010.05.17/outbox.cif.g08.bks.cpg/sg15_63_cif.got.tgz:124457.got - 2010.06.03 18:47:42.
