data_PCOD9261436
_publ_section_title
;
Structure prediction by ZEFSAII (Michael W. Deem and Ramdas Pophale) SiO2 
 PCOD9261436
Probable space group: C 2/C
;
_chemical_formula_sum "Si O2"
_cell_formula_units_Z 56
_cell_length_a 19.922320
_cell_length_b 24.150261
_cell_length_c 16.522614
_cell_angle_alpha 90.000000
_cell_angle_beta 158.824006
_cell_angle_gamma 90.000000
_cell_volume 2871.633487
_symmetry_space_group_name_H-M "C 2/C"
_symmetry_group_IT_number 15
_symmetry_cell_setting 'monoclinic'
loop_
_space_group_symop_operation_xyz
x,y,z
-x,y,1/2-z
-x,-y,-z
x,-y,1/2+z
1/2+x,1/2+y,z
1/2-x,1/2+y,1/2-z
1/2-x,1/2-y,-z
1/2+x,1/2-y,1/2+z
loop_
_atom_site_type_symbol
_atom_site_label
_atom_site_fract_x
_atom_site_fract_y
_atom_site_fract_z
Si Si1 0.801917 0.524369 0.118254
Si Si2 0.212402 0.903288 0.803370
Si Si3 0.179685 0.682268 0.500667
Si Si4 0.984944 0.565756 0.469453
Si Si5 0.500000 0.290872 0.250000
Si Si6 0.500000 0.925878 0.250000
Si Si7 0.577332 0.524107 0.709097
Si Si8 0.657229 0.381253 0.170520
O O1 0.929573 0.566656 0.311932
O O2 0.908403 0.467706 0.213728
O O3 0.718897 0.542534 0.938996
O O4 0.623622 0.516517 0.976045
O O5 0.332723 0.907737 0.856739
O O6 0.031027 0.865589 0.587254
O O7 0.142594 0.965477 0.747229
O O8 0.347749 0.890826 0.030683
O O9 0.362693 0.675100 0.651476
O O10 0.236567 0.661603 0.652445
O O11 0.000000 0.659178 0.250000
O O12 0.870488 0.748084 0.053961
O O13 0.000000 0.500000 0.500000
O O14 0.183577 0.593192 0.706482
O O15 0.587141 0.569687 0.651209
#
# Coordination Sequence:
#
# PCOD9261436 Si02
#       8
#     8   8   8   8   4   4   8   8
#     4  10  19  30  45  65  86 138 193 227 266 314
#     4  11  22  36  46  70 101 148 185 234 269 305
#     4   9  20  37  59  84 108 145 174 213 283 349
#     4  12  20  33  49  64 106 144 181 237 281 295
#     4   8  18  42  65  78 116 146 162 220 301 352
#     4  10  20  34  51  60  86 144 202 216 269 324
#     4  10  20  32  47  65 104 144 185 231 271 298
#     4  12  23  31  52  79 106 134 188 229 261 328
#
# _framework density 19.501096
#
# number of rings (size 3 to 8) (size 9 to 14) (size 15 to 20)
#    0.429    1.143    4.286    2.143    2.000    2.286 
#    0.000    0.000    0.000    0.000    0.000    0.000 
#    0.000    1.143    0.000    0.143    0.000    0.000 
#
# Total GULP energy -156229.726744 kJ/mol
# GULP energy per Si atom -5579.633098 kJ/mol
# Density = 1.945671 g / cm^3
# Si number density = 19.501096 Si / 1000 Ang^3
#
#
#
# Elastic Constant Matrix: (Units=GPa)
#
#
# Indices 1 2 3 4 5 6 
#
# 1 70.3016 3.0962 33.7827 0.0000 11.4062 0.0000
# 2 3.0962 20.3547 4.4816 0.0000 -3.5024 0.0000
# 3 33.7827 4.4816 133.6778 -0.0001 -6.2731 0.0000
# 4 0.0000 0.0000 -0.0001 5.3232 0.0000 -3.3626
# 5 11.4062 -3.5024 -6.2731 0.0000 48.6529 0.0000
# 6 0.0000 0.0000 0.0000 -3.3626 0.0000 15.9107
#
#
#
# Elastic Compliance Matrix: (Units=1/GPa)
#
#
# Indices 1 2 3 4 5 6 
#
# 1 0.017281 -0.002463 -0.004510 0.000000 -0.004810 0.000000
# 2 -0.002463 0.050400 -0.000875 0.000000 0.004093 0.000000
# 3 -0.004510 -0.000875 0.008749 0.000000 0.002123 0.000000
# 4 0.000000 0.000000 0.000000 0.216802 0.000000 0.045819
# 5 -0.004810 0.004093 0.002123 0.000000 0.022250 0.000000
# 6 0.000000 0.000000 0.000000 0.045819 0.000000 0.072534
#
#
# Mechanical properties :
#
#
# Convention : Reuss Voigt Hill
#
# Bulk Modulus (GPa) = 16.46543 34.11723 25.29133
# Shear Modulus (GPa) = 11.79360 26.17559 18.98460
#
# Velocity S-wave (km/s) = 2.46187 3.66766 3.12350
# Velocity P-wave (km/s) = 4.06727 5.95556 5.09958
#
# Compressibility (1/GPa) = 0.06073329
#
# Stress axis : x y z
#
# Youngs Moduli (GPa) = 57.86796 19.84110 114.29298
#
# Poissons Ratio (x) = 0.04887 0.51549
# Poissons Ratio (y) = 0.14254 0.10002
# Poissons Ratio (z) = 0.26100 0.01736
#
# Static dielectric constant tensor:
#      x y z
#    x 1.716200 0.000000 -0.035480 
#    y 0.000000 1.661390 0.000000 
#    z -0.035480 0.000000 1.814960 
# 
# From -- ./inp_files/217105.got.cif
#   From: 2010.05.17/outbox.cif.g08.bks.cpg/sg15_109_cif.got.tgz:217105.got - 2010.06.03 18:47:42.
