data_PCOD9261834
_publ_section_title
;
Structure prediction by ZEFSAII (Michael W. Deem and Ramdas Pophale) SiO2 
 PCOD9261834
Probable space group: C 2/C
;
_chemical_formula_sum "Si O2"
_cell_formula_units_Z 52
_cell_length_a 18.705175
_cell_length_b 22.873142
_cell_length_c 5.518526
_cell_angle_alpha 90.000000
_cell_angle_beta 90.490670
_cell_angle_gamma 90.000000
_cell_volume 2360.993380
_symmetry_space_group_name_H-M "C 2/C"
_symmetry_group_IT_number 15
_symmetry_cell_setting 'monoclinic'
loop_
_space_group_symop_operation_xyz
x,y,z
-x,y,1/2-z
-x,-y,-z
x,-y,1/2+z
1/2+x,1/2+y,z
1/2-x,1/2+y,1/2-z
1/2-x,1/2-y,-z
1/2+x,1/2-y,1/2+z
loop_
_atom_site_type_symbol
_atom_site_label
_atom_site_fract_x
_atom_site_fract_y
_atom_site_fract_z
Si Si1 0.500000 0.833042 0.750000
Si Si2 0.926157 0.249892 0.123854
Si Si3 0.604914 0.970559 0.428611
Si Si4 0.112959 0.635484 0.625042
Si Si5 0.786710 0.192937 0.108625
Si Si6 0.262175 0.431038 0.466143
Si Si7 0.771120 0.103226 0.471206
O O1 0.550526 0.789500 0.599369
O O2 0.448924 0.869096 0.574134
O O3 0.886217 0.296192 0.302480
O O4 0.000000 0.229854 0.250000
O O5 0.870164 0.200368 0.050777
O O6 0.691899 0.969963 0.447364
O O7 0.581124 0.993990 0.688023
O O8 0.590561 0.903659 0.354615
O O9 0.185346 0.608004 0.515849
O O10 0.743898 0.139115 0.986657
O O11 0.750000 0.250000 0.000000
O O12 0.788060 0.170129 0.388821
O O13 0.293111 0.435360 0.737598
O O14 0.302275 0.426966 0.211841
#
# Coordination Sequence:
#
# PCOD9261834 Si02
#       7
#     4   8   8   8   8   8   8
#     4  10  22  36  56  68 112 148 196 230 268 330
#     4  10  22  37  54  81 113 155 188 225 280 336
#     4  11  22  35  58  79 108 141 184 236 293 331
#     4  10  21  36  55  75 108 148 190 232 284 322
#     4  10  19  31  56  82 112 140 186 223 277 338
#     4   9  20  34  50  82 108 136 167 226 278 330
#     4   9  19  32  54  77 111 128 179 221 275 323
#
# _framework density 22.024629000000001
#
# number of rings (size 3 to 8) (size 9 to 14) (size 15 to 20)
#    0.923    1.231    0.000    4.615    6.462    4.923 
#    0.000    0.769    0.000    0.000    0.000    0.000 
#    0.000    1.231    0.000    1.385    0.000    0.000 
#
# Total GULP energy -144770.637111 kJ/mol
# GULP energy per Si atom -5568.101427 kJ/mol
# Density = 2.197450 g / cm^3
# Si number density = 22.024629 Si / 1000 Ang^3
#
#
#
# Elastic Constant Matrix: (Units=GPa)
#
#
# Indices 1 2 3 4 5 6 
#
# 1 71.6897 21.1216 14.3663 0.0000 -2.7169 0.0000
# 2 21.1216 73.5482 16.8301 0.0000 -11.7530 0.0000
# 3 14.3663 16.8301 143.2012 0.0000 4.7244 0.0000
# 4 0.0000 0.0000 0.0000 30.3596 0.0000 -4.2545
# 5 -2.7169 -11.7530 4.7244 0.0000 21.8612 0.0000
# 6 0.0000 0.0000 0.0000 -4.2545 0.0000 15.1171
#
#
#
# Elastic Compliance Matrix: (Units=1/GPa)
#
#
# Indices 1 2 3 4 5 6 
#
# 1 0.015392 -0.004200 -0.001047 0.000000 -0.000119 0.000000
# 2 -0.004200 0.016628 -0.001824 0.000000 0.008812 0.000000
# 3 -0.001047 -0.001824 0.007392 0.000000 -0.002708 0.000000
# 4 0.000000 0.000000 0.000000 0.034291 0.000000 0.009651
# 5 -0.000119 0.008812 -0.002708 0.000000 0.051051 0.000000
# 6 0.000000 0.000000 0.000000 0.009651 0.000000 0.068866
#
#
# Mechanical properties :
#
#
# Convention : Reuss Voigt Hill
#
# Bulk Modulus (GPa) = 39.57009 43.67499 41.62254
# Shear Modulus (GPa) = 23.12854 29.20899 26.16876
#
# Velocity S-wave (km/s) = 3.24407 3.64565 3.45071
# Velocity P-wave (km/s) = 5.66015 6.13141 5.90048
#
# Compressibility (1/GPa) = 0.02527161
#
# Stress axis : x y z
#
# Youngs Moduli (GPa) = 64.97066 60.13958 135.28414
#
# Poissons Ratio (x) = 0.25256 0.14159
# Poissons Ratio (y) = 0.27285 0.24671
# Poissons Ratio (z) = 0.06800 0.10967
#
# Static dielectric constant tensor:
#      x y z
#    x 1.789380 0.000000 0.032000 
#    y 0.000000 1.891040 0.000000 
#    z 0.032000 0.000000 2.001530 
# 
# From -- ./inp_files/11820.got.cif
#   From: 2010.05.17/outbox.cif.g08.bks.cpg/sg15_6_cif.got.tgz:11820.got - 2010.06.03 18:47:42.
