data_PCOD9261887
_publ_section_title
;
Structure prediction by ZEFSAII (Michael W. Deem and Ramdas Pophale) SiO2 
 PCOD9261887
Probable space group: C 2/C
;
_chemical_formula_sum "Si O2"
_cell_formula_units_Z 60
_cell_length_a 22.585081
_cell_length_b 14.313208
_cell_length_c 28.772824
_cell_angle_alpha 90.000000
_cell_angle_beta 20.438530
_cell_angle_gamma 90.000000
_cell_volume 3248.016144
_symmetry_space_group_name_H-M "C 2/C"
_symmetry_group_IT_number 15
_symmetry_cell_setting 'monoclinic'
loop_
_space_group_symop_operation_xyz
x,y,z
-x,y,1/2-z
-x,-y,-z
x,-y,1/2+z
1/2+x,1/2+y,z
1/2-x,1/2+y,1/2-z
1/2-x,1/2-y,-z
1/2+x,1/2-y,1/2+z
loop_
_atom_site_type_symbol
_atom_site_label
_atom_site_fract_x
_atom_site_fract_y
_atom_site_fract_z
Si Si1 0.556310 0.939394 0.524204
Si Si2 0.890283 0.665367 0.275203
Si Si3 0.000000 0.824901 0.250000
Si Si4 0.731687 0.919918 0.297750
Si Si5 0.225959 0.298340 0.741719
Si Si6 0.000591 0.046428 0.447433
Si Si7 0.273935 0.070406 0.501373
Si Si8 0.812087 0.529958 0.882256
O O1 0.684811 0.929725 0.386675
O O2 0.440135 0.845519 0.612608
O O3 0.650254 0.956435 0.503998
O O4 0.422488 0.023641 0.613724
O O5 0.798667 0.680755 0.294589
O O6 0.834573 0.572572 0.342371
O O7 0.867628 0.756121 0.322940
O O8 0.088869 0.645959 0.118160
O O9 0.906787 0.884627 0.356869
O O10 0.748306 0.811728 0.271030
O O11 0.903816 0.971576 0.155881
O O12 0.385948 0.360871 0.637559
O O13 0.000000 0.000000 0.500000
O O14 0.821369 0.072368 0.555563
O O15 0.256434 0.989879 0.475990
O O16 0.000000 0.572682 0.750000
#
# Coordination Sequence:
#
# PCOD9261887 Si02
#       8
#     8   8   4   8   8   8   8   8
#     4   9  21  40  54  84 124 157 193 240 303 347
#     4  10  19  32  48  76 117 146 182 231 286 342
#     4  12  20  28  48  78 114 152 190 218 280 368
#     4  10  22  38  61  84 120 157 193 251 294 348
#     4  10  21  36  59  87 115 154 199 245 290 346
#     4  11  23  38  62  89 116 154 206 241 289 354
#     4  10  21  32  49  75 111 154 184 224 289 349
#     4  10  21  37  54  80 119 154 188 245 292 342
#
# _framework density 18.472815000000001
#
# number of rings (size 3 to 8) (size 9 to 14) (size 15 to 20)
#    0.000    1.867    3.333    1.200    7.467    1.067 
#    0.000    0.000    0.000    0.800    1.733    0.000 
#    0.000    0.000    0.000    0.000    0.000    0.000 
#
# Total GULP energy -167260.800063 kJ/mol
# GULP energy per Si atom -5575.360002 kJ/mol
# Density = 1.843077 g / cm^3
# Si number density = 18.472815 Si / 1000 Ang^3
#
#
#
# Elastic Constant Matrix: (Units=GPa)
#
#
# Indices 1 2 3 4 5 6 
#
# 1 97.8653 16.4977 32.7316 0.0073 -3.5050 -0.0016
# 2 16.4977 66.6554 11.4482 -0.0007 -2.8393 0.0002
# 3 32.7316 11.4482 55.9616 0.0319 2.7893 -0.0102
# 4 0.0073 -0.0007 0.0319 12.2274 -0.0035 0.3605
# 5 -3.5050 -2.8393 2.7893 -0.0035 36.4060 -0.0005
# 6 -0.0016 0.0002 -0.0102 0.3605 -0.0005 10.3331
#
#
#
# Elastic Compliance Matrix: (Units=1/GPa)
#
#
# Indices 1 2 3 4 5 6 
#
# 1 0.013049 -0.001900 -0.007327 0.000012 0.001669 -0.000006
# 2 -0.001900 0.015903 -0.002203 0.000008 0.001226 -0.000003
# 3 -0.007327 -0.002203 0.022736 -0.000057 -0.002619 0.000023
# 4 0.000012 0.000008 -0.000057 0.081868 0.000014 -0.002856
# 5 0.001669 0.001226 -0.002619 0.000014 0.027925 -0.000002
# 6 -0.000006 -0.000003 0.000023 -0.002856 -0.000002 0.096876
#
#
# Mechanical properties :
#
#
# Convention : Reuss Voigt Hill
#
# Bulk Modulus (GPa) = 34.68810 37.98192 36.33501
# Shear Modulus (GPa) = 17.19242 22.44695 19.81968
#
# Velocity S-wave (km/s) = 3.05403 3.48966 3.27909
# Velocity P-wave (km/s) = 5.59060 6.06981 5.83513
#
# Compressibility (1/GPa) = 0.02882833
#
# Stress axis : x y z
#
# Youngs Moduli (GPa) = 76.63628 62.87935 43.98318
#
# Poissons Ratio (x) = 0.11948 0.32225
# Poissons Ratio (y) = 0.14562 0.09690
# Poissons Ratio (z) = 0.56148 0.13853
#
# Static dielectric constant tensor:
#      x y z
#    x 1.676670 0.000000 -0.013340 
#    y 0.000000 1.621870 0.000020 
#    z -0.013340 0.000020 1.681900 
# 
# From -- ./inp_files/318872.got.cif
#   From: 2010.05.17/outbox.cif.g08.bks.cpg/sg15_160_cif.got.tgz:318872.got - 2010.06.03 18:47:42.
