data_PCOD9261800
_publ_section_title
;
Structure prediction by ZEFSAII (Michael W. Deem and Ramdas Pophale) SiO2 
 PCOD9261800
Probable space group: C 2/C
;
_chemical_formula_sum "Si O2"
_cell_formula_units_Z 52
_cell_length_a 17.699344
_cell_length_b 23.065164
_cell_length_c 5.278018
_cell_angle_alpha 90.000000
_cell_angle_beta 89.074639
_cell_angle_gamma 90.000000
_cell_volume 2154.407938
_symmetry_space_group_name_H-M "C 2/C"
_symmetry_group_IT_number 15
_symmetry_cell_setting 'monoclinic'
loop_
_space_group_symop_operation_xyz
x,y,z
-x,y,1/2-z
-x,-y,-z
x,-y,1/2+z
1/2+x,1/2+y,z
1/2-x,1/2+y,1/2-z
1/2-x,1/2-y,-z
1/2+x,1/2-y,1/2+z
loop_
_atom_site_type_symbol
_atom_site_label
_atom_site_fract_x
_atom_site_fract_y
_atom_site_fract_z
Si Si1 0.049400 0.070939 0.991369
Si Si2 0.153186 0.737588 0.908429
Si Si3 0.140157 0.480878 0.452453
Si Si4 0.000000 0.722686 0.750000
Si Si5 0.396669 0.702898 0.573386
Si Si6 0.761439 0.624170 0.551519
Si Si7 0.788948 0.935888 0.933394
O O1 0.079334 0.136287 0.937425
O O2 0.128747 0.037325 0.022006
O O3 0.000000 0.071892 0.250000
O O4 0.000000 0.053326 0.750000
O O5 0.132634 0.775570 0.154927
O O6 0.159140 0.776435 0.653019
O O7 0.217944 0.691313 0.959877
O O8 0.078670 0.697429 0.843095
O O9 0.099757 0.507874 0.693005
O O10 0.163530 0.414984 0.489673
O O11 0.220440 0.517600 0.422041
O O12 0.971416 0.762913 0.980727
O O13 0.709338 0.600464 0.327506
O O14 0.731838 0.605586 0.829008
#
# Coordination Sequence:
#
# PCOD9261800 Si02
#       7
#     8   8   8   4   8   8   8
#     4  12  22  37  58  79 107 150 193 229 276 326
#     4  10  19  31  54  80 109 143 192 220 266 327
#     4   8  16  32  56  73  99 137 177 221 272 329
#     4   8  18  30  52  70 112 138 180 228 252 308
#     4  10  19  34  51  77 108 149 186 225 267 319
#     4  10  19  36  55  80 109 144 180 228 285 334
#     4  10  21  36  55  82 108 141 187 232 276 333
#
# _framework density 24.136559999999999
#
# number of rings (size 3 to 8) (size 9 to 14) (size 15 to 20)
#    0.923    1.231    0.769    4.154    0.000    0.000 
#    0.000    4.615    0.000   24.923    0.000    9.692 
#    0.000    0.000    0.000    0.000    0.000    0.000 
#
# Total GULP energy -145153.289702 kJ/mol
# GULP energy per Si atom -5582.818835 kJ/mol
# Density = 2.408162 g / cm^3
# Si number density = 24.136560 Si / 1000 Ang^3
#
#
#
# Elastic Constant Matrix: (Units=GPa)
#
#
# Indices 1 2 3 4 5 6 
#
# 1 68.0207 15.9780 15.8755 0.0000 9.6648 0.0000
# 2 15.9780 116.4774 29.6775 0.0000 1.5259 0.0000
# 3 15.8755 29.6775 170.7691 0.0000 -1.1368 0.0000
# 4 0.0000 0.0000 0.0000 -70.5120 0.0000 -63.4964
# 5 9.6648 1.5259 -1.1368 0.0000 24.2458 0.0000
# 6 0.0000 0.0000 0.0000 -63.4964 0.0000 -53.8544
#
#
#
# Elastic Compliance Matrix: (Units=1/GPa)
#
#
# Indices 1 2 3 4 5 6 
#
# 1 0.016341 -0.001841 -0.001242 0.000000 -0.006456 0.000000
# 2 -0.001841 0.009200 -0.001427 0.000000 0.000088 0.000000
# 3 -0.001242 -0.001427 0.006225 0.000000 0.000877 0.000000
# 4 0.000000 0.000000 0.000000 0.229738 0.000000 -0.270870
# 5 -0.006456 0.000088 0.000877 0.000000 0.043853 0.000000
# 6 0.000000 0.000000 0.000000 -0.270870 0.000000 0.300798
#
#
# Mechanical properties :
#
#
# Convention : Reuss Voigt Hill
#
# Bulk Modulus (GPa) = 43.96266 53.14769 48.55517
# Shear Modulus (GPa) = 8.02880 -0.44169 3.79356
#
# Velocity S-wave (km/s) = 1.82582 -0.42824 1.25504
# Velocity P-wave (km/s) = 4.76430 4.67149 4.71812
#
# Compressibility (1/GPa) = 0.02274658
#
# Stress axis : x y z
#
# Youngs Moduli (GPa) = 61.19578 108.69176 160.63705
#
# Poissons Ratio (x) = 0.20005 0.19955
# Poissons Ratio (y) = 0.11263 0.22926
# Poissons Ratio (z) = 0.07602 0.15513
#
# Static dielectric constant tensor:
#      x y z
#    x 1.969740 0.000000 0.092150 
#    y 0.000000 1.918830 0.000000 
#    z 0.092150 0.000000 2.042820 
# 
# From -- ./inp_files/11854.got.cif
#   From: 2010.05.17/outbox.cif.g08.bks.cpg/sg15_6_cif.got.tgz:11854.got - 2010.06.03 18:47:42.
