data_PCOD9261853
_publ_section_title
;
Structure prediction by ZEFSAII (Michael W. Deem and Ramdas Pophale) SiO2 
 PCOD9261853
Probable space group: C 2/C
;
_chemical_formula_sum "Si O2"
_cell_formula_units_Z 48
_cell_length_a 23.056245
_cell_length_b 9.629847
_cell_length_c 9.554971
_cell_angle_alpha 90.000000
_cell_angle_beta 117.094947
_cell_angle_gamma 90.000000
_cell_volume 1888.646913
_symmetry_space_group_name_H-M "C 2/C"
_symmetry_group_IT_number 15
_symmetry_cell_setting 'monoclinic'
loop_
_space_group_symop_operation_xyz
x,y,z
-x,y,1/2-z
-x,-y,-z
x,-y,1/2+z
1/2+x,1/2+y,z
1/2-x,1/2+y,1/2-z
1/2-x,1/2-y,-z
1/2+x,1/2-y,1/2+z
loop_
_atom_site_type_symbol
_atom_site_label
_atom_site_fract_x
_atom_site_fract_y
_atom_site_fract_z
Si Si1 0.563140 0.990829 0.468845
Si Si2 0.123576 0.872657 0.379661
Si Si3 0.715058 0.147353 0.854276
Si Si4 0.500000 0.757354 0.750000
Si Si5 0.891285 0.875827 0.812456
Si Si6 0.000000 0.759678 0.750000
Si Si7 0.697020 0.902182 0.046036
O O1 0.550877 0.847327 0.376159
O O2 0.500000 0.000000 0.500000
O O3 0.548731 0.135005 0.375027
O O4 0.640303 0.008049 0.568811
O O5 0.054285 0.831052 0.230539
O O6 0.106069 0.911687 0.521002
O O7 0.172929 0.744144 0.452290
O O8 0.144563 0.006607 0.317188
O O9 0.648046 0.231734 0.748508
O O10 0.744183 0.129484 0.729573
O O11 0.750000 0.250000 0.000000
O O12 0.711678 0.002523 0.932870
O O13 0.961605 0.847797 0.821841
#
# Coordination Sequence:
#
# PCOD9261853 Si02
#       7
#     8   8   8   4   8   4   8
#     4  10  19  31  60  94 132 173 218 264 328 409
#     4  10  23  39  59  89 140 168 227 257 335 393
#     4  11  25  47  71  97 131 168 231 282 334 397
#     4   9  19  32  52  86 128 176 210 256 316 396
#     4  11  24  41  60  98 130 182 215 283 327 403
#     4  11  19  34  60  92 138 168 222 264 340 384
#     4  10  23  44  68  98 128 174 224 278 336 400
#
# _framework density 25.415019999999998
#
# number of rings (size 3 to 8) (size 9 to 14) (size 15 to 20)
#    0.000    1.667    1.667    3.500    4.667    8.000 
#    0.000    1.667    0.000    0.000    0.000    0.000 
#    0.000    0.000    0.000    0.000    0.000    0.000 
#
# Total GULP energy -133851.914106 kJ/mol
# GULP energy per Si atom -5577.163088 kJ/mol
# Density = 2.535717 g / cm^3
# Si number density = 25.415020 Si / 1000 Ang^3
#
#
#
# Elastic Constant Matrix: (Units=GPa)
#
#
# Indices 1 2 3 4 5 6 
#
# 1 60.6368 21.6207 14.4380 0.0000 -12.8061 0.0000
# 2 21.6207 168.6393 52.7747 0.0000 -29.4037 0.0000
# 3 14.4380 52.7747 117.9274 0.0000 -17.7040 0.0000
# 4 0.0000 0.0000 0.0000 57.2283 0.0000 3.9564
# 5 -12.8061 -29.4037 -17.7040 0.0000 32.2770 0.0000
# 6 0.0000 0.0000 0.0000 3.9564 0.0000 35.5106
#
#
#
# Elastic Compliance Matrix: (Units=1/GPa)
#
#
# Indices 1 2 3 4 5 6 
#
# 1 0.018308 -0.001053 -0.000898 0.000000 0.005812 0.000000
# 2 -0.001053 0.007786 -0.002565 0.000000 0.005268 0.000000
# 3 -0.000898 -0.002565 0.010171 0.000000 0.002886 0.000000
# 4 0.000000 0.000000 0.000000 0.017610 0.000000 -0.001962
# 5 0.005812 0.005268 0.002886 0.000000 0.039670 0.000000
# 6 0.000000 0.000000 0.000000 -0.001962 0.000000 0.028379
#
#
# Mechanical properties :
#
#
# Convention : Reuss Voigt Hill
#
# Bulk Modulus (GPa) = 36.71783 58.31892 47.51838
# Shear Modulus (GPa) = 35.70594 42.22785 38.96690
#
# Velocity S-wave (km/s) = 3.75229 4.08061 3.91989
# Velocity P-wave (km/s) = 5.76641 6.72297 6.26298
#
# Compressibility (1/GPa) = 0.02723472
#
# Stress axis : x y z
#
# Youngs Moduli (GPa) = 54.61984 128.43635 98.32193
#
# Poissons Ratio (x) = 0.13523 0.08827
# Poissons Ratio (y) = 0.05751 0.25215
# Poissons Ratio (z) = 0.04903 0.32938
#
# Static dielectric constant tensor:
#      x y z
#    x 3.525460 0.000000 0.276970 
#    y 0.000000 2.080420 0.000000 
#    z 0.276970 0.000000 2.137890 
# 
# From -- ./inp_files/121392.got.cif
#   From: 2010.05.17/outbox.cif.g08.bks.cpg/sg15_61_cif.got.tgz:121392.got - 2010.06.03 18:47:42.
