data_PCOD9261140
_publ_section_title
;
Structure prediction by ZEFSAII (Michael W. Deem and Ramdas Pophale) SiO2 
 PCOD9261140
Probable space group: C 2/C
;
_chemical_formula_sum "Si O2"
_cell_formula_units_Z 44
_cell_length_a 15.699147
_cell_length_b 10.951264
_cell_length_c 12.371238
_cell_angle_alpha 90.000000
_cell_angle_beta 124.900449
_cell_angle_gamma 90.000000
_cell_volume 1744.397176
_symmetry_space_group_name_H-M "C 2/C"
_symmetry_group_IT_number 15
_symmetry_cell_setting 'monoclinic'
loop_
_space_group_symop_operation_xyz
x,y,z
-x,y,1/2-z
-x,-y,-z
x,-y,1/2+z
1/2+x,1/2+y,z
1/2-x,1/2+y,1/2-z
1/2-x,1/2-y,-z
1/2+x,1/2-y,1/2+z
loop_
_atom_site_type_symbol
_atom_site_label
_atom_site_fract_x
_atom_site_fract_y
_atom_site_fract_z
Si Si1 0.886806 0.347666 0.722714
Si Si2 0.500000 0.213430 0.750000
Si Si3 0.780230 0.578616 0.566697
Si Si4 0.713940 0.201119 0.148940
Si Si5 0.943105 0.907231 0.310431
Si Si6 0.582158 0.654795 0.104042
O O1 0.800427 0.437828 0.609589
O O2 0.876753 0.361612 0.846689
O O3 0.873985 0.200490 0.710333
O O4 0.000000 0.371825 0.750000
O O5 0.395435 0.135430 0.665350
O O6 0.488061 0.287979 0.852227
O O7 0.706723 0.665718 0.586864
O O8 0.752085 0.610520 0.423000
O O9 0.807625 0.217643 0.301606
O O10 0.000000 0.965960 0.250000
O O11 0.027415 0.842059 0.449516
O O12 0.898420 0.013894 0.350636
#
# Coordination Sequence:
#
# PCOD9261140 Si02
#       6
#     8   4   8   8   8   8
#     4  11  24  44  67 103 143 180 229 300 362 409
#     4  10  18  40  66  94 120 186 236 266 340 434
#     4  10  22  44  68  99 139 182 239 283 348 431
#     4  10  24  42  68  99 135 188 234 285 345 430
#     4  10  22  41  63  97 133 178 226 285 351 413
#     4  10  21  40  68  93 132 182 230 282 341 427
#
# _framework density 25.223614000000001
#
# number of rings (size 3 to 8) (size 9 to 14) (size 15 to 20)
#    0.000    1.818    1.818    1.091    2.545    2.182 
#   13.091    4.545    0.000    0.000    0.000    0.000 
#    0.000    0.000    0.000    0.000    0.000    0.000 
#
# Total GULP energy -122801.823152 kJ/mol
# GULP energy per Si atom -5581.901052 kJ/mol
# Density = 2.516620 g / cm^3
# Si number density = 25.223614 Si / 1000 Ang^3
#
#
#
# Elastic Constant Matrix: (Units=GPa)
#
#
# Indices 1 2 3 4 5 6 
#
# 1 121.5306 23.8316 46.1302 0.0000 -23.0438 0.0000
# 2 23.8316 100.6512 15.7029 0.0000 -4.0614 0.0000
# 3 46.1302 15.7029 107.2247 0.0000 -7.7947 0.0000
# 4 0.0000 0.0000 0.0000 31.7810 0.0000 -5.5378
# 5 -23.0438 -4.0614 -7.7947 0.0000 46.9888 0.0000
# 6 0.0000 0.0000 0.0000 -5.5378 0.0000 20.9449
#
#
#
# Elastic Compliance Matrix: (Units=1/GPa)
#
#
# Indices 1 2 3 4 5 6 
#
# 1 0.011016 -0.001777 -0.004147 0.000000 0.004561 0.000000
# 2 -0.001777 0.010473 -0.000776 0.000000 -0.000095 0.000000
# 3 -0.004147 -0.000776 0.011207 0.000000 -0.000242 0.000000
# 4 0.000000 0.000000 0.000000 0.032985 0.000000 0.008721
# 5 0.004561 -0.000095 -0.000242 0.000000 0.023470 0.000000
# 6 0.000000 0.000000 0.000000 0.008721 0.000000 0.050050
#
#
# Mechanical properties :
#
#
# Convention : Reuss Voigt Hill
#
# Bulk Modulus (GPa) = 51.82881 55.63733 53.73307
# Shear Modulus (GPa) = 31.43980 36.19240 33.81610
#
# Velocity S-wave (km/s) = 3.53433 3.79207 3.66546
# Velocity P-wave (km/s) = 6.10309 6.42484 6.26603
#
# Compressibility (1/GPa) = 0.01929429
#
# Stress axis : x y z
#
# Youngs Moduli (GPa) = 90.77760 95.48045 89.23317
#
# Poissons Ratio (x) = 0.16969 0.37009
# Poissons Ratio (y) = 0.16133 0.06926
# Poissons Ratio (z) = 0.37650 0.07411
#
# Static dielectric constant tensor:
#      x y z
#    x 2.091360 0.000000 -0.016940 
#    y 0.000000 2.015960 0.000000 
#    z -0.016940 0.000000 1.961760 
# 
# From -- ./inp_files/104345.got.cif
#   From: 2010.05.17/outbox.cif.g08.bks.cpg/sg15_53_cif.got.tgz:104345.got - 2010.06.03 18:47:42.
