data_PCOD9261719
_publ_section_title
;
Structure prediction by ZEFSAII (Michael W. Deem and Ramdas Pophale) SiO2 
 PCOD9261719
Probable space group: C 2/C
;
_chemical_formula_sum "Si O2"
_cell_formula_units_Z 56
_cell_length_a 11.686192
_cell_length_b 30.040857
_cell_length_c 8.032759
_cell_angle_alpha 90.000000
_cell_angle_beta 80.761667
_cell_angle_gamma 90.000000
_cell_volume 2783.428180
_symmetry_space_group_name_H-M "C 2/C"
_symmetry_group_IT_number 15
_symmetry_cell_setting 'monoclinic'
loop_
_space_group_symop_operation_xyz
x,y,z
-x,y,1/2-z
-x,-y,-z
x,-y,1/2+z
1/2+x,1/2+y,z
1/2-x,1/2+y,1/2-z
1/2-x,1/2-y,-z
1/2+x,1/2-y,1/2+z
loop_
_atom_site_type_symbol
_atom_site_label
_atom_site_fract_x
_atom_site_fract_y
_atom_site_fract_z
Si Si1 0.125287 0.685370 0.288904
Si Si2 0.182746 0.746547 0.839942
Si Si3 0.345053 0.378109 0.007144
Si Si4 0.300220 0.378418 0.620263
Si Si5 0.972287 0.049812 0.059933
Si Si6 0.123953 0.344553 0.167330
Si Si7 0.518169 0.306292 0.052176
O O1 0.227974 0.722150 0.281233
O O2 0.174914 0.645630 0.156756
O O3 0.109464 0.668976 0.478999
O O4 0.000000 0.699805 0.250000
O O5 0.161723 0.698557 0.766310
O O6 0.250000 0.750000 0.000000
O O7 0.058570 0.767445 0.919477
O O8 0.227952 0.379771 0.139059
O O9 0.401463 0.330058 0.023880
O O10 0.328190 0.379409 0.812139
O O11 0.434545 0.416003 0.039336
O O12 0.346013 0.427436 0.555761
O O13 0.381710 0.343527 0.502299
O O14 0.000000 0.050956 0.250000
O O15 0.000000 0.000000 0.000000
O O16 0.000000 0.362045 0.250000
O O17 0.500000 0.295549 0.250000
#
# Coordination Sequence:
#
# PCOD9261719 Si02
#       7
#     8   8   8   8   8   8   8
#     4  10  21  38  55  73 101 140 183 228 272 316
#     4  11  23  35  48  73 105 137 181 231 267 310
#     4   9  19  37  54  72 105 144 173 210 266 321
#     4   8  18  35  54  75 105 140 171 208 266 326
#     4   9  17  32  56  86 111 131 163 209 263 323
#     4  11  23  36  53  74 100 142 186 223 268 316
#     4  10  19  31  51  75 101 134 176 225 270 308
#
# _framework density 20.119076
#
# number of rings (size 3 to 8) (size 9 to 14) (size 15 to 20)
#    0.000    2.286    0.000    3.429    0.000   10.857 
#    0.000    0.000    0.000    0.857    0.000    6.000 
#    0.000    0.000    0.000    0.000    0.000    0.000 
#
# Total GULP energy -156113.287896 kJ/mol
# GULP energy per Si atom -5575.474568 kJ/mol
# Density = 2.007328 g / cm^3
# Si number density = 20.119076 Si / 1000 Ang^3
#
#
#
# Elastic Constant Matrix: (Units=GPa)
#
#
# Indices 1 2 3 4 5 6 
#
# 1 86.4799 35.5198 30.4034 0.0000 -27.9781 0.0000
# 2 35.5198 96.8608 26.9842 0.0000 -14.2556 0.0000
# 3 30.4034 26.9842 75.6059 0.0000 -32.7536 0.0000
# 4 0.0000 0.0000 0.0000 22.1500 0.0000 -4.0912
# 5 -27.9781 -14.2556 -32.7536 0.0000 31.7664 0.0000
# 6 0.0000 0.0000 0.0000 -4.0912 0.0000 17.2610
#
#
#
# Elastic Compliance Matrix: (Units=1/GPa)
#
#
# Indices 1 2 3 4 5 6 
#
# 1 0.017874 -0.004632 0.000695 0.000000 0.014381 0.000000
# 2 -0.004632 0.012714 -0.003561 0.000000 -0.002046 0.000000
# 3 0.000695 -0.003561 0.024924 0.000000 0.024713 0.000000
# 4 0.000000 0.000000 0.000000 0.047214 0.000000 0.011191
# 5 0.014381 -0.002046 0.024713 0.000000 0.068708 0.000000
# 6 0.000000 0.000000 0.000000 0.011191 0.000000 0.060586
#
#
# Mechanical properties :
#
#
# Convention : Reuss Voigt Hill
#
# Bulk Modulus (GPa) = 24.68170 49.41795 37.04983
# Shear Modulus (GPa) = 19.19240 25.30476 22.24858
#
# Velocity S-wave (km/s) = 3.09194 3.55032 3.32903
# Velocity P-wave (km/s) = 5.00412 6.43603 5.76471
#
# Compressibility (1/GPa) = 0.04051585
#
# Stress axis : x y z
#
# Youngs Moduli (GPa) = 55.94809 78.65572 40.12232
#
# Poissons Ratio (x) = 0.36431 -0.02790
# Poissons Ratio (y) = 0.25914 0.14289
# Poissons Ratio (z) = -0.03891 0.28012
#
# Static dielectric constant tensor:
#      x y z
#    x 1.863740 0.000000 -0.051020 
#    y 0.000000 1.747220 0.000000 
#    z -0.051020 0.000000 1.780040 
# 
# From -- ./inp_files/35159.got.cif
#   From: 2010.05.17/outbox.cif.g08.bks.cpg/sg15_18_cif.got.tgz:35159.got - 2010.06.03 18:47:42.
