data_PCOD9261531
_publ_section_title
;
Structure prediction by ZEFSAII (Michael W. Deem and Ramdas Pophale) SiO2 
 PCOD9261531
Probable space group: C 2/C
;
_chemical_formula_sum "Si O2"
_cell_formula_units_Z 64
_cell_length_a 31.421405
_cell_length_b 16.103207
_cell_length_c 9.592964
_cell_angle_alpha 90.000000
_cell_angle_beta 52.252583
_cell_angle_gamma 90.000000
_cell_volume 3838.061785
_symmetry_space_group_name_H-M "C 2/C"
_symmetry_group_IT_number 15
_symmetry_cell_setting 'monoclinic'
loop_
_space_group_symop_operation_xyz
x,y,z
-x,y,1/2-z
-x,-y,-z
x,-y,1/2+z
1/2+x,1/2+y,z
1/2-x,1/2+y,1/2-z
1/2-x,1/2-y,-z
1/2+x,1/2-y,1/2+z
loop_
_atom_site_type_symbol
_atom_site_label
_atom_site_fract_x
_atom_site_fract_y
_atom_site_fract_z
Si Si1 0.892686 0.497510 0.186954
Si Si2 0.149963 0.740284 0.547301
Si Si3 0.178434 0.913113 0.573807
Si Si4 0.302075 0.139418 0.798477
Si Si5 0.706193 0.551380 0.306118
Si Si6 0.300486 0.074311 0.518869
Si Si7 0.061060 0.395971 0.165960
Si Si8 0.737263 0.184684 0.146712
O O1 0.844349 0.436182 0.234752
O O2 0.861780 0.551123 0.366153
O O3 0.935165 0.446089 0.194617
O O4 0.914759 0.549931 0.012429
O O5 0.144163 0.838446 0.578455
O O6 0.175858 0.708435 0.641432
O O7 0.098041 0.684950 0.616709
O O8 0.191765 0.720433 0.339498
O O9 0.240668 0.880959 0.460039
O O10 0.167271 0.939798 0.752822
O O11 0.179928 0.992405 0.472801
O O12 0.298767 0.146894 0.638073
O O13 0.761653 0.500873 0.149845
O O14 0.718896 0.642267 0.341225
O O15 0.280602 0.105077 0.409181
O O16 0.000000 0.376323 0.250000
O O17 0.750000 0.250000 0.000000
#
# Coordination Sequence:
#
# PCOD9261531 Si02
#       8
#     8   8   8   8   8   8   8   8
#     4  11  18  34  54  76 106 140 183 224 265 324
#     4  11  23  36  51  76 110 146 185 222 272 322
#     4  11  21  33  51  74 109 146 177 217 260 331
#     4  10  19  30  51  74 107 147 179 205 260 323
#     4  11  20  33  49  74 106 147 180 212 258 326
#     4  11  18  32  49  74 106 148 183 210 254 320
#     4  11  23  38  56  78 106 145 193 235 273 316
#     4  12  22  32  49  78 113 149 185 217 267 323
#
# _framework density 16.675083000000001
#
# number of rings (size 3 to 8) (size 9 to 14) (size 15 to 20)
#    0.000    1.000    6.250    3.750    1.750    0.000 
#    0.000    0.000    0.000    0.000    0.000    0.875 
#    0.000    0.000    0.000    0.000    0.000    0.000 
#
# Total GULP energy -178346.442474 kJ/mol
# GULP energy per Si atom -5573.326327 kJ/mol
# Density = 1.663713 g / cm^3
# Si number density = 16.675083 Si / 1000 Ang^3
#
#
#
# Elastic Constant Matrix: (Units=GPa)
#
#
# Indices 1 2 3 4 5 6 
#
# 1 68.2434 26.0638 24.8377 0.0000 12.6657 0.0000
# 2 26.0638 78.8202 30.2517 0.0000 6.1880 0.0000
# 3 24.8377 30.2517 67.4317 0.0000 24.0398 0.0000
# 4 0.0000 0.0000 0.0000 23.9422 0.0000 9.3808
# 5 12.6657 6.1880 24.0398 0.0000 26.3461 0.0000
# 6 0.0000 0.0000 0.0000 9.3808 0.0000 17.5510
#
#
#
# Elastic Compliance Matrix: (Units=1/GPa)
#
#
# Indices 1 2 3 4 5 6 
#
# 1 0.018407 -0.004571 -0.002901 0.000000 -0.005128 0.000000
# 2 -0.004571 0.016745 -0.007722 0.000000 0.005310 0.000000
# 3 -0.002901 -0.007722 0.027003 0.000000 -0.021431 0.000000
# 4 0.000000 0.000000 0.000000 0.052831 0.000000 -0.028237
# 5 -0.005128 0.005310 -0.021431 0.000000 0.058729 0.000000
# 6 0.000000 0.000000 0.000000 -0.028237 0.000000 0.072069
#
#
# Mechanical properties :
#
#
# Convention : Reuss Voigt Hill
#
# Bulk Modulus (GPa) = 31.47884 41.86687 36.67285
# Shear Modulus (GPa) = 17.43612 22.45733 19.94673
#
# Velocity S-wave (km/s) = 3.23714 3.67380 3.46236
# Velocity P-wave (km/s) = 5.73506 6.56945 6.16639
#
# Compressibility (1/GPa) = 0.03176737
#
# Stress axis : x y z
#
# Youngs Moduli (GPa) = 54.32808 59.71809 37.03295
#
# Poissons Ratio (x) = 0.27294 0.10744
# Poissons Ratio (y) = 0.24831 0.28597
# Poissons Ratio (z) = 0.15762 0.46115
#
# Static dielectric constant tensor:
#      x y z
#    x 1.593250 0.000000 0.053910 
#    y 0.000000 1.617090 0.000000 
#    z 0.053910 0.000000 1.586300 
# 
# From -- ./inp_files/69926.got.cif
#   From: 2010.05.17/outbox.cif.g08.bks.cpg/sg15_35_cif.got.tgz:69926.got - 2010.06.03 18:47:42.
