data_PCOD9261421
_publ_section_title
;
Structure prediction by ZEFSAII (Michael W. Deem and Ramdas Pophale) SiO2 
 PCOD9261421
Probable space group: C 2/C
;
_chemical_formula_sum "Si O2"
_cell_formula_units_Z 56
_cell_length_a 13.749072
_cell_length_b 27.205856
_cell_length_c 17.232722
_cell_angle_alpha 90.000000
_cell_angle_beta 33.125528
_cell_angle_gamma 90.000000
_cell_volume 3522.573645
_symmetry_space_group_name_H-M "C 2/C"
_symmetry_group_IT_number 15
_symmetry_cell_setting 'monoclinic'
loop_
_space_group_symop_operation_xyz
x,y,z
-x,y,1/2-z
-x,-y,-z
x,-y,1/2+z
1/2+x,1/2+y,z
1/2-x,1/2+y,1/2-z
1/2-x,1/2-y,-z
1/2+x,1/2-y,1/2+z
loop_
_atom_site_type_symbol
_atom_site_label
_atom_site_fract_x
_atom_site_fract_y
_atom_site_fract_z
Si Si1 0.862345 0.815377 0.267963
Si Si2 0.328654 0.866506 0.809130
Si Si3 0.847298 0.474218 0.292785
Si Si4 0.357170 0.448370 0.474063
Si Si5 0.756372 0.076737 0.786239
Si Si6 0.969169 0.437028 0.923700
Si Si7 0.836891 0.766199 0.524098
O O1 0.797469 0.867561 0.282130
O O2 0.695173 0.782333 0.404722
O O3 0.000000 0.821196 0.250000
O O4 0.972682 0.786765 0.128087
O O5 0.500000 0.872972 0.750000
O O6 0.176724 0.902868 0.943787
O O7 0.408976 0.889145 0.676384
O O8 0.265759 0.810857 0.863998
O O9 0.702637 0.502410 0.441809
O O10 0.776506 0.433191 0.282261
O O11 0.000000 0.457411 0.250000
O O12 0.928695 0.517307 0.183364
O O13 0.561100 0.451275 0.314367
O O14 0.219512 0.436197 0.496864
O O15 0.588355 0.059500 0.949220
O O16 0.750000 0.750000 0.500000
#
# Coordination Sequence:
#
# PCOD9261421 Si02
#       7
#     8   8   8   8   8   8   8
#     4  10  21  29  44  70  99 126 154 185 227 280
#     4   9  16  28  43  60  96 134 151 173 221 282
#     4   9  20  36  47  65  93 130 157 194 243 279
#     4   9  17  31  47  68  93 123 156 188 228 281
#     4  12  19  29  49  73  94 119 166 199 223 273
#     4   9  19  29  48  69  97 125 152 189 239 280
#     4  10  19  30  41  63 102 133 156 176 226 282
#
# _framework density 15.897467000000001
#
# number of rings (size 3 to 8) (size 9 to 14) (size 15 to 20)
#    0.000    2.286    1.429    5.143    8.000    0.000 
#    0.000    0.000    0.000    0.000    0.000    1.000 
#    0.000    0.000    0.000    0.000    0.000    0.000 
#
# Total GULP energy -155913.927277 kJ/mol
# GULP energy per Si atom -5568.354546 kJ/mol
# Density = 1.586128 g / cm^3
# Si number density = 15.897467 Si / 1000 Ang^3
#
#
#
# Elastic Constant Matrix: (Units=GPa)
#
#
# Indices 1 2 3 4 5 6 
#
# 1 27.2604 32.2231 5.2801 -0.0122 9.5641 0.0043
# 2 32.2231 62.1546 24.1157 -0.0125 8.0290 0.0028
# 3 5.2801 24.1157 69.4028 -0.0328 6.1330 0.0109
# 4 -0.0122 -0.0125 -0.0328 14.5491 0.0129 7.1087
# 5 9.5641 8.0290 6.1330 0.0129 14.2208 -0.0044
# 6 0.0043 0.0028 0.0109 7.1087 -0.0044 17.5012
#
#
#
# Elastic Compliance Matrix: (Units=1/GPa)
#
#
# Indices 1 2 3 4 5 6 
#
# 1 0.140131 -0.072390 0.019970 0.000225 -0.061986 -0.000143
# 2 -0.072390 0.056915 -0.016355 -0.000102 0.023605 0.000066
# 3 0.019970 -0.016355 0.019694 0.000084 -0.012690 -0.000052
# 4 0.000225 -0.000102 0.000084 0.085752 -0.000219 -0.034831
# 5 -0.061986 0.023605 -0.012690 -0.000219 0.104154 0.000135
# 6 -0.000143 0.000066 -0.000052 -0.034831 0.000135 0.071287
#
#
# Mechanical properties :
#
#
# Convention : Reuss Voigt Hill
#
# Bulk Modulus (GPa) = 12.62782 31.33949 21.98365
# Shear Modulus (GPa) = 7.78965 15.73412 11.76188
#
# Velocity S-wave (km/s) = 2.21598 3.14940 2.72299
# Velocity P-wave (km/s) = 3.80893 5.74293 4.87285
#
# Compressibility (1/GPa) = 0.07919025
#
# Stress axis : x y z
#
# Youngs Moduli (GPa) = 7.13619 17.57019 50.77754
#
# Poissons Ratio (x) = 1.27190 -1.01404
# Poissons Ratio (y) = 0.51659 0.83047
# Poissons Ratio (z) = -0.14251 0.28736
#
# Static dielectric constant tensor:
#      x y z
#    x 1.511920 0.000000 0.010740 
#    y 0.000000 1.565020 0.000000 
#    z 0.010740 0.000000 1.585320 
# 
# From -- ./inp_files/63782.got.cif
#   From: 2010.05.17/outbox.cif.g08.bks.cpg/sg15_32_cif.got.tgz:63782.got - 2010.06.03 18:47:42.
