data_PCOD9261360
_publ_section_title
;
Structure prediction by ZEFSAII (Michael W. Deem and Ramdas Pophale) SiO2 
 PCOD9261360
Probable space group: C 2/C
;
_chemical_formula_sum "Si O2"
_cell_formula_units_Z 56
_cell_length_a 13.872725
_cell_length_b 21.550372
_cell_length_c 10.026883
_cell_angle_alpha 90.000000
_cell_angle_beta 51.520499
_cell_angle_gamma 90.000000
_cell_volume 2346.661322
_symmetry_space_group_name_H-M "C 2/C"
_symmetry_group_IT_number 15
_symmetry_cell_setting 'monoclinic'
loop_
_space_group_symop_operation_xyz
x,y,z
-x,y,1/2-z
-x,-y,-z
x,-y,1/2+z
1/2+x,1/2+y,z
1/2-x,1/2+y,1/2-z
1/2-x,1/2-y,-z
1/2+x,1/2-y,1/2+z
loop_
_atom_site_type_symbol
_atom_site_label
_atom_site_fract_x
_atom_site_fract_y
_atom_site_fract_z
Si Si1 0.812402 0.975482 0.600609
Si Si2 0.852694 0.634680 0.356242
Si Si3 0.186714 0.597945 0.822226
Si Si4 0.159212 0.291343 0.892285
Si Si5 0.060661 0.578940 0.557090
Si Si6 0.819109 0.825771 0.995356
Si Si7 0.149808 0.051728 0.165979
O O1 0.700266 0.928187 0.666172
O O2 0.896341 0.946295 0.643451
O O3 0.881515 0.111594 0.392945
O O4 0.872086 0.993049 0.408904
O O5 0.793084 0.632049 0.554727
O O6 0.820101 0.689832 0.279422
O O7 0.000000 0.635957 0.250000
O O8 0.208120 0.648270 0.685844
O O9 0.270063 0.540160 0.705087
O O10 0.051022 0.566347 0.947981
O O11 0.110415 0.223599 0.973376
O O12 0.076373 0.347304 0.018619
O O13 0.277239 0.296443 0.889319
O O14 0.199704 0.554237 0.444316
O O15 0.000000 0.563130 0.750000
#
# Coordination Sequence:
#
# PCOD9261360 Si02
#       7
#     8   8   8   8   8   8   8
#     4  11  19  28  40  66  94 125 153 186 209 262
#     4  12  22  28  43  69  93 125 157 188 224 256
#     4  11  21  30  44  66  96 121 156 188 225 257
#     4  10  19  33  48  59  85 123 165 191 221 263
#     4  11  17  30  43  66  87 123 162 181 216 259
#     4   9  19  34  47  60  82 126 161 190 225 262
#     4  10  19  29  43  62  91 122 156 182 223 256
#
# _framework density 23.863689999999998
#
# number of rings (size 3 to 8) (size 9 to 14) (size 15 to 20)
#    0.000    1.429   10.000    0.000    2.000    1.714 
#    0.000    0.000    0.000    0.000    0.000    0.000 
#    0.000    0.000    0.000   41.143    0.000    0.000 
#
# Total GULP energy -155984.219416 kJ/mol
# GULP energy per Si atom -5570.864979 kJ/mol
# Density = 2.380938 g / cm^3
# Si number density = 23.863690 Si / 1000 Ang^3
#
#
#
# Elastic Constant Matrix: (Units=GPa)
#
#
# Indices 1 2 3 4 5 6 
#
# 1 89.6153 24.2695 52.2191 0.0000 15.5238 0.0000
# 2 24.2695 82.3806 17.3096 0.0000 19.9694 0.0000
# 3 52.2191 17.3096 118.5730 0.0000 38.0736 0.0000
# 4 0.0000 0.0000 0.0000 11.4879 0.0000 19.7408
# 5 15.5238 19.9694 38.0736 0.0000 47.8608 0.0000
# 6 0.0000 0.0000 0.0000 19.7408 0.0000 25.3502
#
#
#
# Elastic Compliance Matrix: (Units=1/GPa)
#
#
# Indices 1 2 3 4 5 6 
#
# 1 0.015974 -0.003701 -0.007154 0.000000 0.002054 0.000000
# 2 -0.003701 0.014366 0.001440 0.000000 -0.005939 0.000000
# 3 -0.007154 0.001440 0.014535 0.000000 -0.009842 0.000000
# 4 0.000000 0.000000 0.000000 -0.257420 0.000000 0.200459
# 5 0.002054 -0.005939 -0.009842 0.000000 0.030535 0.000000
# 6 0.000000 0.000000 0.000000 0.200459 0.000000 -0.116654
#
#
# Mechanical properties :
#
#
# Convention : Reuss Voigt Hill
#
# Bulk Modulus (GPa) = 38.39646 53.12946 45.76296
# Shear Modulus (GPa) = -18.43980 30.05783 5.80902
#
# Velocity S-wave (km/s) = -2.78279 3.55288 1.56190
# Velocity P-wave (km/s) = 2.40824 6.25641 4.74038
#
# Compressibility (1/GPa) = 0.02604407
#
# Stress axis : x y z
#
# Youngs Moduli (GPa) = 62.60186 69.60805 68.80149
#
# Poissons Ratio (x) = 0.25759 0.49222
# Poissons Ratio (y) = 0.23167 -0.09904
# Poissons Ratio (z) = 0.44787 -0.10020
#
# Static dielectric constant tensor:
#      x y z
#    x 2.019080 0.000000 -0.001710 
#    y 0.000000 2.018370 0.000000 
#    z -0.001710 0.000000 2.004740 
# 
# From -- ./inp_files/113171.got.cif
#   From: 2010.05.17/outbox.cif.g08.bks.cpg/sg15_57_cif.got.tgz:113171.got - 2010.06.03 18:47:42.
