data_PCOD9261820
_publ_section_title
;
Structure prediction by ZEFSAII (Michael W. Deem and Ramdas Pophale) SiO2 
 PCOD9261820
Probable space group: C 2/C
;
_chemical_formula_sum "Si O2"
_cell_formula_units_Z 56
_cell_length_a 17.629364
_cell_length_b 9.511958
_cell_length_c 33.127423
_cell_angle_alpha 90.000000
_cell_angle_beta 156.499782
_cell_angle_gamma 90.000000
_cell_volume 2215.122275
_symmetry_space_group_name_H-M "C 2/C"
_symmetry_group_IT_number 15
_symmetry_cell_setting 'monoclinic'
loop_
_space_group_symop_operation_xyz
x,y,z
-x,y,1/2-z
-x,-y,-z
x,-y,1/2+z
1/2+x,1/2+y,z
1/2-x,1/2+y,1/2-z
1/2-x,1/2-y,-z
1/2+x,1/2-y,1/2+z
loop_
_atom_site_type_symbol
_atom_site_label
_atom_site_fract_x
_atom_site_fract_y
_atom_site_fract_z
Si Si1 0.918785 0.637419 0.576549
Si Si2 0.570599 0.273590 0.327667
Si Si3 0.018070 0.694778 0.453032
Si Si4 0.395791 0.238320 0.479287
Si Si5 0.141643 0.999396 0.127924
Si Si6 0.213020 0.691670 0.238426
Si Si7 0.078715 0.538759 0.839065
O O1 0.750000 0.750000 0.500000
O O2 0.928095 0.632976 0.532539
O O3 0.883107 0.523018 0.593788
O O4 0.118304 0.701813 0.688840
O O5 0.500000 0.333282 0.250000
O O6 0.760284 0.343920 0.437484
O O7 0.413335 0.255579 0.286284
O O8 0.632551 0.112978 0.348291
O O9 0.925642 0.663689 0.451319
O O10 0.904677 0.647559 0.358166
O O11 0.989525 0.864453 0.436196
O O12 0.547040 0.368191 0.558646
O O13 0.197171 0.323331 0.385198
O O14 0.173343 0.060193 0.187919
O O15 0.354374 0.952112 0.219454
#
# Coordination Sequence:
#
# PCOD9261820 Si02
#       7
#     8   8   8   8   8   8   8
#     4   9  18  35  50  78 115 155 176 229 282 338
#     4  11  23  36  58  86 115 148 192 238 285 340
#     4  12  21  37  58  85 117 153 183 242 285 336
#     4  10  21  33  55  84 117 141 192 230 290 338
#     4  10  20  35  54  83 113 147 188 234 280 338
#     4  10  22  36  53  84 117 148 193 229 287 345
#     4  10  19  31  55  81 111 145 185 227 294 326
#
# _framework density 25.280771999999999
#
# number of rings (size 3 to 8) (size 9 to 14) (size 15 to 20)
#    0.000    1.714    2.857    3.429    4.000    0.000 
#    0.000    0.000    0.000    3.429    3.714    0.000 
#    0.000    0.000    0.000    0.000    0.000    0.000 
#
# Total GULP energy -156483.734858 kJ/mol
# GULP energy per Si atom -5588.704816 kJ/mol
# Density = 2.522323 g / cm^3
# Si number density = 25.280772 Si / 1000 Ang^3
#
#
#
# Elastic Constant Matrix: (Units=GPa)
#
#
# Indices 1 2 3 4 5 6 
#
# 1 129.7760 7.3142 47.3935 -0.0001 -29.8739 -0.0001
# 2 7.3142 41.6438 13.6575 -0.0002 -3.0194 0.0000
# 3 47.3935 13.6575 145.0110 0.0004 -9.4903 -0.0005
# 4 -0.0001 -0.0002 0.0004 35.8303 -0.0003 -9.0740
# 5 -29.8739 -3.0194 -9.4903 -0.0003 70.6009 -0.0001
# 6 -0.0001 0.0000 -0.0005 -9.0740 -0.0001 29.0544
#
#
#
# Elastic Compliance Matrix: (Units=1/GPa)
#
#
# Indices 1 2 3 4 5 6 
#
# 1 0.009621 -0.000486 -0.002859 0.000000 0.003666 0.000000
# 2 -0.000486 0.024843 -0.002144 0.000000 0.000568 0.000000
# 3 -0.002859 -0.002144 0.008018 0.000000 -0.000224 0.000000
# 4 0.000000 0.000000 0.000000 0.030306 0.000000 0.009465
# 5 0.003666 0.000568 -0.000224 0.000000 0.015710 0.000000
# 6 0.000000 0.000000 0.000000 0.009465 0.000000 0.037374
#
#
# Mechanical properties :
#
#
# Convention : Reuss Voigt Hill
#
# Bulk Modulus (GPa) = 31.74210 50.35127 41.04668
# Shear Modulus (GPa) = 33.93286 43.63484 38.78385
#
# Velocity S-wave (km/s) = 3.66763 4.15903 3.92104
# Velocity P-wave (km/s) = 5.52435 6.55923 6.06391
#
# Compressibility (1/GPa) = 0.03150390
#
# Stress axis : x y z
#
# Youngs Moduli (GPa) = 103.94130 40.25307 124.72629
#
# Poissons Ratio (x) = 0.01958 0.35654
# Poissons Ratio (y) = 0.05056 0.26736
# Poissons Ratio (z) = 0.29713 0.08629
#
# Static dielectric constant tensor:
#      x y z
#    x 2.106100 0.000000 -0.042300 
#    y 0.000000 2.027650 0.000000 
#    z -0.042300 0.000000 2.020990 
# 
# From -- ./inp_files/296589.got.cif
#   From: 2010.05.17/outbox.cif.g08.bks.cpg/sg15_149_cif.got.tgz:296589.got - 2010.06.03 18:47:42.
