data_PCOD9261154
_publ_section_title
;
Structure prediction by ZEFSAII (Michael W. Deem and Ramdas Pophale) SiO2 
 PCOD9261154
Probable space group: C 2/C
;
_chemical_formula_sum "Si O2"
_cell_formula_units_Z 60
_cell_length_a 11.679469
_cell_length_b 29.803790
_cell_length_c 7.373684
_cell_angle_alpha 90.000000
_cell_angle_beta 88.224383
_cell_angle_gamma 90.000000
_cell_volume 2565.491220
_symmetry_space_group_name_H-M "C 2/C"
_symmetry_group_IT_number 15
_symmetry_cell_setting 'monoclinic'
loop_
_space_group_symop_operation_xyz
x,y,z
-x,y,1/2-z
-x,-y,-z
x,-y,1/2+z
1/2+x,1/2+y,z
1/2-x,1/2+y,1/2-z
1/2-x,1/2-y,-z
1/2+x,1/2-y,1/2+z
loop_
_atom_site_type_symbol
_atom_site_label
_atom_site_fract_x
_atom_site_fract_y
_atom_site_fract_z
Si Si1 0.263923 0.597113 0.894243
Si Si2 0.338975 0.883840 0.504584
Si Si3 0.402248 0.630331 0.390663
Si Si4 0.531885 0.948918 0.459739
Si Si5 0.854457 0.780402 0.057870
Si Si6 0.500000 0.409019 0.250000
Si Si7 0.252786 0.304355 0.448342
Si Si8 0.494170 0.201647 0.966153
O O1 0.203526 0.610665 0.703259
O O2 0.162326 0.567210 0.986595
O O3 0.382241 0.570490 0.841412
O O4 0.298630 0.644435 0.992328
O O5 0.223123 0.890587 0.621924
O O6 0.437823 0.917535 0.557949
O O7 0.397576 0.835004 0.513353
O O8 0.500000 0.616237 0.250000
O O9 0.380194 0.683490 0.401075
O O10 0.448333 0.619284 0.588467
O O11 0.500000 0.941932 0.250000
O O12 0.500000 0.000000 0.500000
O O13 0.811215 0.800496 0.247781
O O14 0.750000 0.750000 0.000000
O O15 0.962759 0.747961 0.061871
O O16 0.250000 0.250000 0.500000
O O17 0.120290 0.315151 0.499777
O O18 0.500000 0.209754 0.750000
#
# Coordination Sequence:
#
# PCOD9261154 Si02
#       8
#     8   8   8   8   8   4   8   8
#     4  10  19  40  65  88 127 178 212 265 340 395
#     4  10  18  40  68  87 119 172 223 261 331 410
#     4  11  23  39  63  90 124 179 219 267 327 393
#     4  10  21  41  73  99 124 162 216 281 346 409
#     4  12  22  35  53  83 117 160 222 266 308 377
#     4  10  22  40  62  92 132 164 218 262 320 414
#     4  12  25  36  55  86 124 170 218 263 320 385
#     4  12  19  35  59  79 113 168 217 261 308 378
#
# _framework density 23.387332000000001
#
# number of rings (size 3 to 8) (size 9 to 14) (size 15 to 20)
#    0.000    1.067    8.000    0.800    1.867    0.533 
#    2.400    0.000    1.467    2.400    0.000    0.000 
#    0.000    0.000    0.000    0.000    0.000    0.000 
#
# Total GULP energy -167181.203491 kJ/mol
# GULP energy per Si atom -5572.706783 kJ/mol
# Density = 2.333410 g / cm^3
# Si number density = 23.387332 Si / 1000 Ang^3
#
#
#
# Elastic Constant Matrix: (Units=GPa)
#
#
# Indices 1 2 3 4 5 6 
#
# 1 181.1456 45.7053 31.1795 0.0000 -51.8847 0.0000
# 2 45.7053 94.1234 17.1637 0.0000 -20.4898 0.0000
# 3 31.1795 17.1637 65.5995 0.0000 -23.2342 0.0000
# 4 0.0000 0.0000 0.0000 22.9506 0.0000 -7.5506
# 5 -51.8847 -20.4898 -23.2342 0.0000 41.9887 0.0000
# 6 0.0000 0.0000 0.0000 -7.5506 0.0000 27.6459
#
#
#
# Elastic Compliance Matrix: (Units=1/GPa)
#
#
# Indices 1 2 3 4 5 6 
#
# 1 0.008923 -0.002150 -0.000180 0.000000 0.009877 0.000000
# 2 -0.002150 0.012497 -0.001280 0.000000 0.002734 0.000000
# 3 -0.000180 -0.001280 0.019110 0.000000 0.009727 0.000000
# 4 0.000000 0.000000 0.000000 0.047873 0.000000 0.013075
# 5 0.009877 0.002734 0.009727 0.000000 0.042737 0.000000
# 6 0.000000 0.000000 0.000000 0.013075 0.000000 0.039743
#
#
# Mechanical properties :
#
#
# Convention : Reuss Voigt Hill
#
# Bulk Modulus (GPa) = 30.02134 58.77394 44.39764
# Shear Modulus (GPa) = 26.42627 34.97170 30.69899
#
# Velocity S-wave (km/s) = 3.36510 3.87114 3.62696
# Velocity P-wave (km/s) = 5.28801 6.72058 6.04687
#
# Compressibility (1/GPa) = 0.03330964
#
# Stress axis : x y z
#
# Youngs Moduli (GPa) = 112.07082 80.02099 52.32959
#
# Poissons Ratio (x) = 0.17203 0.00944
# Poissons Ratio (y) = 0.24094 0.06696
# Poissons Ratio (z) = 0.02021 0.10240
#
# Static dielectric constant tensor:
#      x y z
#    x 1.957530 0.000000 0.004190 
#    y 0.000000 1.902490 0.000000 
#    z 0.004190 0.000000 1.961020 
# 
# From -- ./inp_files/35216.got.cif
#   From: 2010.05.17/outbox.cif.g08.bks.cpg/sg15_18_cif.got.tgz:35216.got - 2010.06.03 18:47:42.
