data_PCOD9261674
_publ_section_title
;
Structure prediction by ZEFSAII (Michael W. Deem and Ramdas Pophale) SiO2 
 PCOD9261674
Probable space group: C 2/C
;
_chemical_formula_sum "Si O2"
_cell_formula_units_Z 56
_cell_length_a 12.842754
_cell_length_b 25.413844
_cell_length_c 13.823468
_cell_angle_alpha 90.000000
_cell_angle_beta 32.379967
_cell_angle_gamma 90.000000
_cell_volume 2416.187297
_symmetry_space_group_name_H-M "C 2/C"
_symmetry_group_IT_number 15
_symmetry_cell_setting 'monoclinic'
loop_
_space_group_symop_operation_xyz
x,y,z
-x,y,1/2-z
-x,-y,-z
x,-y,1/2+z
1/2+x,1/2+y,z
1/2-x,1/2+y,1/2-z
1/2-x,1/2-y,-z
1/2+x,1/2-y,1/2+z
loop_
_atom_site_type_symbol
_atom_site_label
_atom_site_fract_x
_atom_site_fract_y
_atom_site_fract_z
Si Si1 0.731934 0.556077 0.082530
Si Si2 0.839856 0.932884 0.192033
Si Si3 0.068097 0.410078 0.883493
Si Si4 0.466372 0.796051 0.523206
Si Si5 0.138956 0.181942 0.881921
Si Si6 0.721417 0.670581 0.038491
Si Si7 0.242512 0.983282 0.911003
O O1 0.500000 0.556447 0.250000
O O2 0.798537 0.560348 0.140414
O O3 0.802486 0.611522 0.983640
O O4 0.811273 0.508356 0.957573
O O5 0.653311 0.922035 0.407201
O O6 0.928261 0.877700 0.082371
O O7 0.770280 0.968560 0.156244
O O8 0.020535 0.962743 0.098560
O O9 0.110107 0.346836 0.856616
O O10 0.136143 0.435994 0.730875
O O11 0.681408 0.812373 0.329626
O O12 0.478055 0.735445 0.546431
O O13 0.344866 0.796564 0.518238
O O14 0.216305 0.184746 0.931016
O O15 0.500000 0.671931 0.250000
#
# Coordination Sequence:
#
# PCOD9261674 Si02
#       7
#     8   8   8   8   8   8   8
#     4  10  20  35  57  85 113 158 204 241 291 352
#     4  10  22  36  56  82 113 157 199 240 287 353
#     4  10  23  39  56  85 118 157 202 238 295 353
#     4  10  22  32  51  73 110 149 194 239 270 347
#     4  11  20  34  49  75 108 151 200 228 283 334
#     4  10  19  31  49  72 107 149 195 233 272 331
#     4  11  21  38  61  79 119 160 195 249 301 340
#
# _framework density 23.177012000000001
#
# number of rings (size 3 to 8) (size 9 to 14) (size 15 to 20)
#    0.000    1.714    1.429    3.857    6.000    0.571 
#    0.000    1.429    0.000    0.000    0.000    0.000 
#    0.000    4.571    6.000    3.857    4.286    0.286 
#
# Total GULP energy -156523.974489 kJ/mol
# GULP energy per Si atom -5590.141946 kJ/mol
# Density = 2.312426 g / cm^3
# Si number density = 23.177012 Si / 1000 Ang^3
#
#
#
# Elastic Constant Matrix: (Units=GPa)
#
#
# Indices 1 2 3 4 5 6 
#
# 1 45.2488 33.7014 3.8822 0.0020 0.4568 -0.0018
# 2 33.7014 166.4301 18.2174 -0.0006 17.2219 0.0001
# 3 3.8822 18.2174 55.5780 -0.0023 -5.2368 -0.0030
# 4 0.0020 -0.0006 -0.0023 31.0934 -0.0001 -8.0951
# 5 0.4568 17.2219 -5.2368 -0.0001 22.3449 0.0023
# 6 -0.0018 0.0001 -0.0030 -8.0951 0.0023 18.7716
#
#
#
# Elastic Compliance Matrix: (Units=1/GPa)
#
#
# Indices 1 2 3 4 5 6 
#
# 1 0.026341 -0.005800 0.000441 -0.000001 0.004035 0.000002
# 2 -0.005800 0.008219 -0.002940 0.000000 -0.006905 0.000000
# 3 0.000441 -0.002940 0.019570 0.000002 0.006843 0.000003
# 4 -0.000001 0.000000 0.000002 0.036229 -0.000001 0.015623
# 5 0.004035 -0.006905 0.006843 -0.000001 0.051596 -0.000005
# 6 0.000002 0.000000 0.000003 0.015623 -0.000005 0.060009
#
#
# Mechanical properties :
#
#
# Convention : Reuss Voigt Hill
#
# Bulk Modulus (GPa) = 26.64228 42.09545 34.36887
# Shear Modulus (GPa) = 21.63818 28.53903 25.08860
#
# Velocity S-wave (km/s) = 3.05881 3.51287 3.29367
# Velocity P-wave (km/s) = 4.89849 5.88691 5.41530
#
# Compressibility (1/GPa) = 0.03753432
#
# Stress axis : x y z
#
# Youngs Moduli (GPa) = 37.96343 121.66518 51.09800
#
# Poissons Ratio (x) = 0.70564 -0.02255
# Poissons Ratio (y) = 0.22018 0.15021
# Poissons Ratio (z) = -0.01675 0.35765
#
# Static dielectric constant tensor:
#      x y z
#    x 1.802130 0.000000 -0.012000 
#    y 0.000000 1.984400 0.000000 
#    z -0.012000 0.000000 1.914240 
# 
# From -- ./inp_files/157197.got.cif
#   From: 2010.05.17/outbox.cif.g08.bks.cpg/sg15_79_cif.got.tgz:157197.got - 2010.06.03 18:47:42.
