data_PCOD9261790
_publ_section_title
;
Structure prediction by ZEFSAII (Michael W. Deem and Ramdas Pophale) SiO2 
 PCOD9261790
Probable space group: C 2/C
;
_chemical_formula_sum "Si O2"
_cell_formula_units_Z 48
_cell_length_a 16.239939
_cell_length_b 8.039550
_cell_length_c 18.607075
_cell_angle_alpha 90.000000
_cell_angle_beta 130.536577
_cell_angle_gamma 90.000000
_cell_volume 1846.302304
_symmetry_space_group_name_H-M "C 2/C"
_symmetry_group_IT_number 15
_symmetry_cell_setting 'monoclinic'
loop_
_space_group_symop_operation_xyz
x,y,z
-x,y,1/2-z
-x,-y,-z
x,-y,1/2+z
1/2+x,1/2+y,z
1/2-x,1/2+y,1/2-z
1/2-x,1/2-y,-z
1/2+x,1/2-y,1/2+z
loop_
_atom_site_type_symbol
_atom_site_label
_atom_site_fract_x
_atom_site_fract_y
_atom_site_fract_z
Si Si1 0.661930 0.574125 0.697447
Si Si2 0.548352 0.791677 0.377761
Si Si3 0.756343 0.202203 0.610273
Si Si4 0.951798 0.103515 0.645782
Si Si5 0.048287 0.818519 0.547320
Si Si6 0.167115 0.574796 0.819597
O O1 0.719682 0.583737 0.807290
O O2 0.546017 0.664860 0.644930
O O3 0.633843 0.385811 0.657146
O O4 0.734436 0.641772 0.673497
O O5 0.543091 0.595922 0.356596
O O6 0.536816 0.793435 0.457552
O O7 0.444126 0.886633 0.285759
O O8 0.650484 0.856843 0.390728
O O9 0.824800 0.141290 0.580591
O O10 0.627404 0.230209 0.535944
O O11 0.808460 0.381075 0.657777
O O12 0.000000 0.154385 0.750000
O O13 0.000000 0.000000 0.500000
#
# Coordination Sequence:
#
# PCOD9261790 Si02
#       6
#     8   8   8   8   8   8
#     4   9  19  33  54  82 113 148 195 235 283 345
#     4  10  19  33  51  85 114 150 187 242 291 345
#     4  10  20  34  57  90 111 153 191 245 280 349
#     4   9  17  31  51  79 115 140 189 237 286 332
#     4  10  21  40  60  84 118 158 192 237 301 355
#     4  10  19  31  53  87 115 140 194 241 291 329
#
# _framework density 25.997910000000001
#
# number of rings (size 3 to 8) (size 9 to 14) (size 15 to 20)
#    0.000    2.333    3.333    0.000    7.000    0.000 
#    0.000    6.667    0.000    1.000    0.000    0.000 
#    0.000    0.000    0.000    0.000    0.000    0.000 
#
# Total GULP energy -133842.384186 kJ/mol
# GULP energy per Si atom -5576.766008 kJ/mol
# Density = 2.593874 g / cm^3
# Si number density = 25.997910 Si / 1000 Ang^3
#
#
#
# Elastic Constant Matrix: (Units=GPa)
#
#
# Indices 1 2 3 4 5 6 
#
# 1 286.8308 16.6794 -2.1058 0.0000 -4.3721 0.0000
# 2 16.6794 45.1545 -2.0120 0.0000 4.4454 0.0000
# 3 -2.1058 -2.0120 35.2254 0.0000 8.5071 0.0000
# 4 0.0000 0.0000 0.0000 27.0618 0.0000 5.1366
# 5 -4.3721 4.4454 8.5071 0.0000 28.9481 0.0000
# 6 0.0000 0.0000 0.0000 5.1366 0.0000 38.4296
#
#
#
# Elastic Compliance Matrix: (Units=1/GPa)
#
#
# Indices 1 2 3 4 5 6 
#
# 1 0.003579 -0.001400 -0.000052 0.000000 0.000771 0.000000
# 2 -0.001400 0.023205 0.002318 0.000000 -0.004456 0.000000
# 3 -0.000052 0.002318 0.030791 0.000000 -0.009413 0.000000
# 4 0.000000 0.000000 0.000000 0.037914 0.000000 -0.005068
# 5 0.000771 -0.004456 -0.009413 0.000000 0.038111 0.000000
# 6 0.000000 0.000000 0.000000 -0.005068 0.000000 0.026699
#
#
# Mechanical properties :
#
#
# Convention : Reuss Voigt Hill
#
# Bulk Modulus (GPa) = 16.86158 43.59267 30.22713
# Shear Modulus (GPa) = 28.03659 42.53118 35.28388
#
# Velocity S-wave (km/s) = 3.28749 4.04907 3.68799
# Velocity P-wave (km/s) = 4.57274 6.21805 5.45775
#
# Compressibility (1/GPa) = 0.05930642
#
# Stress axis : x y z
#
# Youngs Moduli (GPa) = 279.39408 43.09338 32.47700
#
# Poissons Ratio (x) = 0.06034 0.00170
# Poissons Ratio (y) = 0.39124 -0.07528
# Poissons Ratio (z) = 0.01459 -0.09989
#
# Static dielectric constant tensor:
#      x y z
#    x 2.211800 0.000000 -0.027710 
#    y 0.000000 1.980300 0.000000 
#    z -0.027710 0.000000 2.226770 
# 
# From -- ./inp_files/276393.got.cif
#   From: 2010.05.17/outbox.cif.g08.bks.cpg/sg15_139_cif.got.tgz:276393.got - 2010.06.03 18:47:42.
