data_PCOD9261681
_publ_section_title
;
Structure prediction by ZEFSAII (Michael W. Deem and Ramdas Pophale) SiO2 
 PCOD9261681
Probable space group: C 2/C
;
_chemical_formula_sum "Si O2"
_cell_formula_units_Z 60
_cell_length_a 17.837973
_cell_length_b 5.307560
_cell_length_c 28.292429
_cell_angle_alpha 90.000000
_cell_angle_beta 126.089337
_cell_angle_gamma 90.000000
_cell_volume 2164.589260
_symmetry_space_group_name_H-M "C 2/C"
_symmetry_group_IT_number 15
_symmetry_cell_setting 'monoclinic'
loop_
_space_group_symop_operation_xyz
x,y,z
-x,y,1/2-z
-x,-y,-z
x,-y,1/2+z
1/2+x,1/2+y,z
1/2-x,1/2+y,1/2-z
1/2-x,1/2-y,-z
1/2+x,1/2-y,1/2+z
loop_
_atom_site_type_symbol
_atom_site_label
_atom_site_fract_x
_atom_site_fract_y
_atom_site_fract_z
Si Si1 0.855328 0.759902 0.194283
Si Si2 0.051443 0.795130 0.367250
Si Si3 0.735778 0.259025 0.138790
Si Si4 0.990354 0.281982 0.391897
Si Si5 0.168351 0.881251 0.015159
Si Si6 0.750000 0.750000 0.000000
Si Si7 0.807912 0.680601 0.277460
Si Si8 0.938155 0.747466 0.969361
O O1 0.930852 0.755462 0.181482
O O2 0.787866 0.525229 0.157618
O O3 0.872943 0.722280 0.256528
O O4 0.806850 0.030824 0.170901
O O5 0.003398 0.550064 0.372625
O O6 0.153442 0.829191 0.430477
O O7 0.993946 0.050049 0.357301
O O8 0.686538 0.236195 0.070258
O O9 0.670217 0.244212 0.160133
O O10 0.082276 0.234606 0.457133
O O11 0.912403 0.261092 0.404301
O O12 0.143049 0.181811 0.023020
O O13 0.258956 0.964404 0.021407
O O14 0.773828 0.389672 0.262414
O O15 0.000000 0.500000 0.000000
O O16 0.000000 0.000000 0.000000
#
# Coordination Sequence:
#
# PCOD9261681 Si02
#       8
#     8   8   8   8   8   4   8   8
#     4  10  19  32  47  72 103 135 164 201 256 313
#     4  11  21  32  49  70 102 135 166 203 251 302
#     4  10  19  31  49  74 101 132 168 206 253 310
#     4  10  22  34  48  69  97 136 175 206 239 293
#     4  10  21  33  53  73 106 135 171 210 255 303
#     4  10  20  30  44  74 104 130 156 194 254 296
#     4   8  16  30  47  66  98 132 163 200 244 303
#     4  10  20  37  52  67  93 137 178 212 241 281
#
# _framework density 27.718886000000001
#
# number of rings (size 3 to 8) (size 9 to 14) (size 15 to 20)
#    0.000    2.133    1.333    3.200    1.867    3.200 
#    0.000    0.000    0.000    0.000    0.000    0.933 
#    0.000    2.133    0.000    0.000    0.000    0.133 
#
# Total GULP energy -167496.384402 kJ/mol
# GULP energy per Si atom -5583.212813 kJ/mol
# Density = 2.765580 g / cm^3
# Si number density = 27.718886 Si / 1000 Ang^3
#
#
#
# Elastic Constant Matrix: (Units=GPa)
#
#
# Indices 1 2 3 4 5 6 
#
# 1 44.4904 30.8736 -11.6251 -0.0004 1.0259 0.0002
# 2 30.8736 180.6149 20.3185 -0.0019 -0.9474 0.0007
# 3 -11.6251 20.3185 130.9466 -0.0005 -10.9383 0.0005
# 4 -0.0004 -0.0019 -0.0005 49.9649 0.0003 1.2406
# 5 1.0259 -0.9474 -10.9383 0.0003 35.4960 -0.0003
# 6 0.0002 0.0007 0.0005 1.2406 -0.0003 35.7270
#
#
#
# Elastic Compliance Matrix: (Units=1/GPa)
#
#
# Indices 1 2 3 4 5 6 
#
# 1 0.026709 -0.004918 0.003140 0.000000 0.000064 0.000000
# 2 -0.004918 0.006541 -0.001463 0.000000 -0.000134 0.000000
# 3 0.003140 -0.001463 0.008346 0.000000 0.002442 0.000000
# 4 0.000000 0.000000 0.000000 0.020031 0.000000 -0.000696
# 5 0.000064 -0.000134 0.002442 0.000000 0.028919 0.000000
# 6 0.000000 0.000000 0.000000 -0.000696 0.000000 0.028014
#
#
# Mechanical properties :
#
#
# Convention : Reuss Voigt Hill
#
# Bulk Modulus (GPa) = 28.47921 48.35398 38.41660
# Shear Modulus (GPa) = 36.56347 45.33659 40.95003
#
# Velocity S-wave (km/s) = 3.63586 4.04862 3.84778
# Velocity P-wave (km/s) = 5.28418 6.27196 5.79914
#
# Compressibility (1/GPa) = 0.03511333
#
# Stress axis : x y z
#
# Youngs Moduli (GPa) = 37.44103 152.87673 119.81192
#
# Poissons Ratio (x) = 0.75190 -0.37617
# Poissons Ratio (y) = 0.18415 0.17526
# Poissons Ratio (z) = -0.11755 0.22363
#
# Static dielectric constant tensor:
#      x y z
#    x 1.932540 0.000000 0.153310 
#    y 0.000000 2.218880 0.000000 
#    z 0.153310 0.000000 2.164810 
# 
# From -- ./inp_files/316893.got.cif
#   From: 2010.05.17/outbox.cif.g08.bks.cpg/sg15_159_cif.got.tgz:316893.got - 2010.06.03 18:47:42.
