data_PCOD9261702
_publ_section_title
;
Structure prediction by ZEFSAII (Michael W. Deem and Ramdas Pophale) SiO2 
 PCOD9261702
Probable space group: C 2/C
;
_chemical_formula_sum "Si O2"
_cell_formula_units_Z 64
_cell_length_a 15.896903
_cell_length_b 24.990941
_cell_length_c 9.665784
_cell_angle_alpha 90.000000
_cell_angle_beta 114.066059
_cell_angle_gamma 90.000000
_cell_volume 3506.219506
_symmetry_space_group_name_H-M "C 2/C"
_symmetry_group_IT_number 15
_symmetry_cell_setting 'monoclinic'
loop_
_space_group_symop_operation_xyz
x,y,z
-x,y,1/2-z
-x,-y,-z
x,-y,1/2+z
1/2+x,1/2+y,z
1/2-x,1/2+y,1/2-z
1/2-x,1/2-y,-z
1/2+x,1/2-y,1/2+z
loop_
_atom_site_type_symbol
_atom_site_label
_atom_site_fract_x
_atom_site_fract_y
_atom_site_fract_z
Si Si1 0.061095 0.943169 0.155999
Si Si2 0.103097 0.317795 0.586324
Si Si3 0.720946 0.638995 0.413937
Si Si4 0.610063 0.741288 0.825699
Si Si5 0.789463 0.141462 0.756271
Si Si6 0.930124 0.064737 0.330687
Si Si7 0.393531 0.188810 0.922124
Si Si8 0.100111 0.761027 0.834783
O O1 0.150602 0.908899 0.246389
O O2 0.000000 0.947380 0.250000
O O3 0.090529 0.003636 0.135563
O O4 0.995082 0.914262 0.998717
O O5 0.174335 0.359734 0.570058
O O6 0.130749 0.295344 0.753547
O O7 0.106150 0.265372 0.488794
O O8 0.995456 0.332651 0.522730
O O9 0.713059 0.637372 0.576527
O O10 0.657530 0.597241 0.285874
O O11 0.679243 0.697563 0.355110
O O12 0.500000 0.730260 0.750000
O O13 0.661399 0.693087 0.782328
O O14 0.630209 0.760171 0.995611
O O15 0.686132 0.145240 0.630358
O O16 0.000000 0.062600 0.250000
O O17 0.396478 0.212487 0.769823
O O18 0.000000 0.788210 0.750000
#
# Coordination Sequence:
#
# PCOD9261702 Si02
#       8
#     8   8   8   8   8   8   8   8
#     4  10  23  39  58  81 115 138 174 234 292 340
#     4  10  20  36  51  79 114 150 181 226 269 314
#     4  12  21  32  60  82 105 145 197 225 263 335
#     4  10  21  35  51  77 118 150 182 226 274 323
#     4  12  21  34  57  82 106 149 191 224 271 334
#     4  10  21  40  58  83 110 141 176 231 293 337
#     4  10  22  35  52  78 118 149 182 227 273 318
#     4  10  19  31  50  78 111 144 179 222 265 320
#
# _framework density 18.253278999999999
#
# number of rings (size 3 to 8) (size 9 to 14) (size 15 to 20)
#    0.000    1.500    3.750    2.250    0.000    2.000 
#    0.000    0.000    0.000    0.750    0.000    0.000 
#    0.000    0.000    0.000    0.000    0.000    0.000 
#
# Total GULP energy -178337.060011 kJ/mol
# GULP energy per Si atom -5573.033125 kJ/mol
# Density = 1.821173 g / cm^3
# Si number density = 18.253279 Si / 1000 Ang^3
#
#
#
# Elastic Constant Matrix: (Units=GPa)
#
#
# Indices 1 2 3 4 5 6 
#
# 1 103.5936 37.7536 18.0666 0.0000 12.9620 0.0000
# 2 37.7536 44.3215 4.6396 0.0000 21.6106 0.0000
# 3 18.0666 4.6396 50.7568 0.0000 3.5719 0.0000
# 4 0.0000 0.0000 0.0000 20.4566 0.0000 -2.2359
# 5 12.9620 21.6106 3.5719 0.0000 29.7796 0.0000
# 6 0.0000 0.0000 0.0000 -2.2359 0.0000 301.1282
#
#
#
# Elastic Compliance Matrix: (Units=1/GPa)
#
#
# Indices 1 2 3 4 5 6 
#
# 1 0.015218 -0.014749 -0.004393 0.000000 0.004606 0.000000
# 2 -0.014749 0.049313 0.002833 0.000000 -0.029706 0.000000
# 3 -0.004393 0.002833 0.021195 0.000000 -0.002686 0.000000
# 4 0.000000 0.000000 0.000000 0.048924 0.000000 0.000363
# 5 0.004606 -0.029706 -0.002686 0.000000 0.053455 0.000000
# 6 0.000000 0.000000 0.000000 0.000363 0.000000 0.003324
#
#
# Mechanical properties :
#
#
# Convention : Reuss Voigt Hill
#
# Bulk Modulus (GPa) = 18.82925 35.51015 27.16970
# Shear Modulus (GPa) = 20.68261 79.48703 50.08482
#
# Velocity S-wave (km/s) = 3.36979 6.60615 5.24389
# Velocity P-wave (km/s) = 5.04763 8.81389 7.18204
#
# Compressibility (1/GPa) = 0.05310887
#
# Stress axis : x y z
#
# Youngs Moduli (GPa) = 65.71206 20.27851 47.17992
#
# Poissons Ratio (x) = 0.29908 0.20725
# Poissons Ratio (y) = 0.96917 -0.13364
# Poissons Ratio (z) = 0.28865 -0.05744
#
# Static dielectric constant tensor:
#      x y z
#    x 1.695440 0.000000 0.015320 
#    y 0.000000 1.617690 0.000000 
#    z 0.015320 0.000000 1.678300 
# 
# From -- ./inp_files/43589.got.cif
#   From: 2010.05.17/outbox.cif.g08.bks.cpg/sg15_22_cif.got.tgz:43589.got - 2010.06.03 18:47:42.
