data_PCOD9261460
_publ_section_title
;
Structure prediction by ZEFSAII (Michael W. Deem and Ramdas Pophale) SiO2 
 PCOD9261460
Probable space group: C 2/C
;
_chemical_formula_sum "Si O2"
_cell_formula_units_Z 56
_cell_length_a 21.887969
_cell_length_b 31.708356
_cell_length_c 9.166148
_cell_angle_alpha 90.000000
_cell_angle_beta 30.213561
_cell_angle_gamma 90.000000
_cell_volume 3201.310701
_symmetry_space_group_name_H-M "C 2/C"
_symmetry_group_IT_number 15
_symmetry_cell_setting 'monoclinic'
loop_
_space_group_symop_operation_xyz
x,y,z
-x,y,1/2-z
-x,-y,-z
x,-y,1/2+z
1/2+x,1/2+y,z
1/2-x,1/2+y,1/2-z
1/2-x,1/2-y,-z
1/2+x,1/2-y,1/2+z
loop_
_atom_site_type_symbol
_atom_site_label
_atom_site_fract_x
_atom_site_fract_y
_atom_site_fract_z
Si Si1 0.345752 0.370884 0.237532
Si Si2 0.145874 0.041911 0.283788
Si Si3 0.645078 0.282908 0.696523
Si Si4 0.149833 0.957354 0.111322
Si Si5 0.365339 0.627595 0.350665
Si Si6 0.500000 0.757994 0.750000
Si Si7 0.500000 0.762037 0.250000
Si Si8 0.330664 0.208080 0.352912
O O1 0.311518 0.414604 0.387431
O O2 0.258650 0.332139 0.460602
O O3 0.489561 0.364583 0.974834
O O4 0.342674 0.376061 0.069355
O O5 0.186583 0.042194 0.366919
O O6 0.177676 0.085219 0.137831
O O7 0.998030 0.041597 0.584223
O O8 0.188718 0.999801 0.113810
O O9 0.750000 0.250000 0.500000
O O10 0.693095 0.330110 0.590958
O O11 0.581729 0.269627 0.676683
O O12 0.557840 0.272859 0.010864
O O13 0.594455 0.786098 0.649849
O O14 0.423517 0.789640 0.523901
O O15 0.250000 0.250000 0.500000
#
# Coordination Sequence:
#
# PCOD9261460 Si02
#       8
#     8   8   8   8   8   4   4   8
#     4  10  19  32  50  70 100 137 170 206 251 306
#     4   9  17  28  44  68 102 134 164 202 243 304
#     4  11  21  34  50  70  99 132 168 209 252 301
#     4   9  17  29  45  68  99 136 166 197 249 302
#     4  10  19  30  47  73 101 134 171 205 250 306
#     4  10  22  34  50  72 100 136 176 216 258 300
#     4  10  22  36  50  72 102 136 176 218 260 300
#     4  11  21  36  54  74 104 141 179 221 263 309
#
# _framework density 17.492834999999999
#
# number of rings (size 3 to 8) (size 9 to 14) (size 15 to 20)
#    0.000    2.000    0.000    6.000    0.000    8.000 
#    0.000    0.000    0.000    0.000    0.000    0.000 
#    0.000   38.857    0.000    0.000    0.000    0.000 
#
# Total GULP energy -156205.046504 kJ/mol
# GULP energy per Si atom -5578.751661 kJ/mol
# Density = 1.745302 g / cm^3
# Si number density = 17.492835 Si / 1000 Ang^3
#
#
#
# Elastic Constant Matrix: (Units=GPa)
#
#
# Indices 1 2 3 4 5 6 
#
# 1 88.2325 71.1856 37.1545 0.0001 15.9937 0.0000
# 2 71.1856 191.7503 45.6379 0.0000 18.4176 0.0000
# 3 37.1545 45.6379 41.8511 0.0001 14.1241 0.0000
# 4 0.0001 0.0000 0.0001 22.2013 -0.0001 0.1832
# 5 15.9937 18.4176 14.1241 -0.0001 22.7501 0.0000
# 6 0.0000 0.0000 0.0000 0.1832 0.0000 24.8368
#
#
#
# Elastic Compliance Matrix: (Units=1/GPa)
#
#
# Indices 1 2 3 4 5 6 
#
# 1 0.020754 -0.004414 -0.012516 0.000000 -0.003247 0.000000
# 2 -0.004414 0.008007 -0.004646 0.000000 -0.000495 0.000000
# 3 -0.012516 -0.004646 0.045331 0.000000 -0.015583 0.000000
# 4 0.000000 0.000000 0.000000 0.045045 0.000000 -0.000332
# 5 -0.003247 -0.000495 -0.015583 0.000000 0.056313 0.000000
# 6 0.000000 0.000000 0.000000 -0.000332 0.000000 0.040265
#
#
# Mechanical properties :
#
#
# Convention : Reuss Voigt Hill
#
# Bulk Modulus (GPa) = 32.32025 69.97665 51.14845
# Shear Modulus (GPa) = 18.57497 25.14805 21.86151
#
# Velocity S-wave (km/s) = 3.26216 3.79571 3.53900
# Velocity P-wave (km/s) = 5.71885 7.70063 6.78252
#
# Compressibility (1/GPa) = 0.03094036
#
# Stress axis : x y z
#
# Youngs Moduli (GPa) = 48.18433 124.88997 22.06014
#
# Poissons Ratio (x) = 0.55126 0.27609
# Poissons Ratio (y) = 0.21268 0.10249
# Poissons Ratio (z) = 0.60305 0.58023
#
# Static dielectric constant tensor:
#      x y z
#    x 1.598940 0.000000 -0.005100 
#    y 0.000000 1.563560 0.000000 
#    z -0.005100 0.000000 1.609070 
# 
# From -- ./inp_files/59359.got.cif
#   From: 2010.05.17/outbox.cif.g08.bks.cpg/sg15_30_cif.got.tgz:59359.got - 2010.06.03 18:47:42.
