data_PCOD9261296
_publ_section_title
;
Structure prediction by ZEFSAII (Michael W. Deem and Ramdas Pophale) SiO2 
 PCOD9261296
Probable space group: C 2/C
;
_chemical_formula_sum "Si O2"
_cell_formula_units_Z 48
_cell_length_a 18.268023
_cell_length_b 9.813113
_cell_length_c 11.472331
_cell_angle_alpha 90.000000
_cell_angle_beta 122.307957
_cell_angle_gamma 90.000000
_cell_volume 1738.213600
_symmetry_space_group_name_H-M "C 2/C"
_symmetry_group_IT_number 15
_symmetry_cell_setting 'monoclinic'
loop_
_space_group_symop_operation_xyz
x,y,z
-x,y,1/2-z
-x,-y,-z
x,-y,1/2+z
1/2+x,1/2+y,z
1/2-x,1/2+y,1/2-z
1/2-x,1/2-y,-z
1/2+x,1/2-y,1/2+z
loop_
_atom_site_type_symbol
_atom_site_label
_atom_site_fract_x
_atom_site_fract_y
_atom_site_fract_z
Si Si1 0.602004 0.313498 0.319978
Si Si2 0.653789 0.721620 0.372279
Si Si3 0.593970 0.309784 0.058880
Si Si4 0.391314 0.280346 0.920166
Si Si5 0.816261 0.511869 0.368064
Si Si6 0.173910 0.486870 0.874244
O O1 0.500000 0.340415 0.250000
O O2 0.627597 0.367467 0.212437
O O3 0.641146 0.336657 0.482812
O O4 0.619302 0.150743 0.320989
O O5 0.750000 0.750000 0.500000
O O6 0.609373 0.639491 0.438907
O O7 0.655271 0.675621 0.239438
O O8 0.615485 0.876046 0.331279
O O9 0.635404 0.157538 0.089120
O O10 0.491353 0.312897 0.987169
O O11 0.381762 0.116922 0.922006
O O12 0.774502 0.486946 0.459681
O O13 0.775781 0.498564 0.204984
#
# Coordination Sequence:
#
# PCOD9261296 Si02
#       6
#     8   8   8   8   8   8
#     4   8  14  24  41  64  78  85 114 160 198 227
#     4  10  19  26  31  46  76 112 138 148 163 209
#     4   9  15  24  38  54  72  95 123 156 189 219
#     4   9  15  24  38  54  72  95 123 156 189 219
#     4   8  13  20  34  56  74  88 113 148 187 222
#     4   8  14  22  33  48  71  97 117 148 180 206
#
# _framework density 27.614557000000001
#
# number of rings (size 3 to 8) (size 9 to 14) (size 15 to 20)
#    0.000    3.333    0.000    1.000    0.000    8.000 
#    0.000    0.833    0.000    0.000    0.000    0.000 
#    0.000    0.000    0.000  216.000    0.000    0.000 
#
# Total GULP energy -133810.657782 kJ/mol
# GULP energy per Si atom -5575.444074 kJ/mol
# Density = 2.755170 g / cm^3
# Si number density = 27.614557 Si / 1000 Ang^3
#
#
#
# Elastic Constant Matrix: (Units=GPa)
#
#
# Indices 1 2 3 4 5 6 
#
# 1 163.6652 7.1635 75.6329 0.0000 -84.0781 0.0000
# 2 7.1635 98.6495 -7.1061 0.0000 6.1482 0.0000
# 3 75.6329 -7.1061 208.7331 0.0000 -84.5190 0.0000
# 4 0.0000 0.0000 0.0000 22.6554 0.0000 1.8026
# 5 -84.0781 6.1482 -84.5190 0.0000 83.1789 0.0000
# 6 0.0000 0.0000 0.0000 1.8026 0.0000 3.8523
#
#
#
# Elastic Compliance Matrix: (Units=1/GPa)
#
#
# Indices 1 2 3 4 5 6 
#
# 1 0.013142 -0.001781 0.001036 0.000000 0.014468 0.000000
# 2 -0.001781 0.010426 -0.000069 0.000000 -0.002642 0.000000
# 3 0.001036 -0.000069 0.008222 0.000000 0.009407 0.000000
# 4 0.000000 0.000000 0.000000 0.045846 0.000000 -0.021452
# 5 0.014468 -0.002642 0.009407 0.000000 0.036400 0.000000
# 6 0.000000 0.000000 0.000000 -0.021452 0.000000 0.269621
#
#
# Mechanical properties :
#
#
# Convention : Reuss Voigt Hill
#
# Bulk Modulus (GPa) = 33.15619 69.15871 51.15745
# Shear Modulus (GPa) = 12.64733 48.29449 30.47091
#
# Velocity S-wave (km/s) = 2.14240 4.18650 3.32541
# Velocity P-wave (km/s) = 4.26060 6.96187 5.77150
#
# Compressibility (1/GPa) = 0.03016028
#
# Stress axis : x y z
#
# Youngs Moduli (GPa) = 76.09240 95.91492 121.62505
#
# Poissons Ratio (x) = 0.17086 -0.12599
# Poissons Ratio (y) = 0.13555 0.00842
# Poissons Ratio (z) = -0.07882 0.00664
#
# Static dielectric constant tensor:
#      x y z
#    x 2.112300 0.000000 -0.099440 
#    y 0.000000 2.201990 0.000000 
#    z -0.099440 0.000000 2.190270 
# 
# From -- ./inp_files/106008.got.cif
#   From: 2010.05.17/outbox.cif.g08.bks.cpg/sg15_54_cif.got.tgz:106008.got - 2010.06.03 18:47:42.
