data_PCOD9261656
_publ_section_title
;
Structure prediction by ZEFSAII (Michael W. Deem and Ramdas Pophale) SiO2 
 PCOD9261656
Probable space group: C 2/C
;
_chemical_formula_sum "Si O2"
_cell_formula_units_Z 56
_cell_length_a 16.804645
_cell_length_b 19.796492
_cell_length_c 17.860269
_cell_angle_alpha 90.000000
_cell_angle_beta 28.608576
_cell_angle_gamma 90.000000
_cell_volume 2844.990521
_symmetry_space_group_name_H-M "C 2/C"
_symmetry_group_IT_number 15
_symmetry_cell_setting 'monoclinic'
loop_
_space_group_symop_operation_xyz
x,y,z
-x,y,1/2-z
-x,-y,-z
x,-y,1/2+z
1/2+x,1/2+y,z
1/2-x,1/2+y,1/2-z
1/2-x,1/2-y,-z
1/2+x,1/2-y,1/2+z
loop_
_atom_site_type_symbol
_atom_site_label
_atom_site_fract_x
_atom_site_fract_y
_atom_site_fract_z
Si Si1 0.346804 0.482496 0.180716
Si Si2 0.251925 0.598957 0.553415
Si Si3 0.027312 0.522138 0.852509
Si Si4 0.092238 0.841305 0.423855
Si Si5 0.660258 0.724141 0.280195
Si Si6 0.121841 0.332557 0.024139
Si Si7 0.837924 0.003964 0.857180
O O1 0.168724 0.502362 0.292823
O O2 0.362490 0.401027 0.169868
O O3 0.366080 0.511902 0.246843
O O4 0.500000 0.500000 0.000000
O O5 0.131327 0.544332 0.693043
O O6 0.344307 0.632252 0.546852
O O7 0.166851 0.657194 0.573905
O O8 0.341714 0.556951 0.414201
O O9 0.958153 0.595919 0.934599
O O10 0.861043 0.477581 0.977927
O O11 0.191325 0.774288 0.320423
O O12 0.903508 0.821988 0.598993
O O13 0.722379 0.682719 0.157267
O O14 0.510009 0.773293 0.379656
O O15 0.000000 0.046898 0.750000
#
# Coordination Sequence:
#
# PCOD9261656 Si02
#       7
#     8   8   8   8   8   8   8
#     4  11  23  39  58  82 115 157 201 246 288 346
#     4  10  21  33  51  76 120 153 190 239 275 342
#     4  10  21  40  53  76 117 151 193 235 290 344
#     4  10  22  38  52  84 118 151 198 233 284 346
#     4  10  21  33  53  76 114 156 194 233 280 343
#     4  10  19  31  48  73 109 149 191 226 280 324
#     4  11  22  35  58  82 109 155 194 242 296 335
#
# _framework density 19.683720000000001
#
# number of rings (size 3 to 8) (size 9 to 14) (size 15 to 20)
#    0.000    1.714    2.857    3.857    8.000    3.429 
#    0.000    0.000    0.000    0.000    0.000    1.000 
#    0.000    0.000    0.000    0.000    0.000    0.000 
#
# Total GULP energy -155969.299733 kJ/mol
# GULP energy per Si atom -5570.332133 kJ/mol
# Density = 1.963892 g / cm^3
# Si number density = 19.683720 Si / 1000 Ang^3
#
#
#
# Elastic Constant Matrix: (Units=GPa)
#
#
# Indices 1 2 3 4 5 6 
#
# 1 77.4731 8.6256 35.1222 -0.0077 -17.1734 0.0059
# 2 8.6256 28.4154 13.0469 -0.0066 0.0058 0.0074
# 3 35.1222 13.0469 132.2401 -0.0058 -4.8397 0.0098
# 4 -0.0077 -0.0066 -0.0058 27.5838 0.0149 -0.1115
# 5 -17.1734 0.0058 -4.8397 0.0149 28.6987 -0.0143
# 6 0.0059 0.0074 0.0098 -0.1115 -0.0143 12.9306
#
#
#
# Elastic Compliance Matrix: (Units=1/GPa)
#
#
# Indices 1 2 3 4 5 6 
#
# 1 0.017180 -0.003440 -0.003871 -0.000002 0.009628 0.000008
# 2 -0.003440 0.037562 -0.002886 0.000009 -0.002553 -0.000020
# 3 -0.003871 -0.002886 0.008845 0.000001 -0.000824 -0.000004
# 4 -0.000002 0.000009 0.000001 0.036254 -0.000020 0.000313
# 5 0.009628 -0.002553 -0.000824 -0.000020 0.040468 0.000042
# 6 0.000008 -0.000020 -0.000004 0.000313 0.000042 0.077339
#
#
# Mechanical properties :
#
#
# Convention : Reuss Voigt Hill
#
# Bulk Modulus (GPa) = 23.15165 39.07978 31.11571
# Shear Modulus (GPa) = 19.80679 25.93153 22.86916
#
# Velocity S-wave (km/s) = 3.17559 3.63355 3.41226
# Velocity P-wave (km/s) = 5.02326 6.12377 5.60061
#
# Compressibility (1/GPa) = 0.04319347
#
# Stress axis : x y z
#
# Youngs Moduli (GPa) = 58.20731 26.62275 113.06199
#
# Poissons Ratio (x) = 0.09157 0.43768
# Poissons Ratio (y) = 0.20021 0.32627
# Poissons Ratio (z) = 0.22533 0.07683
#
# Static dielectric constant tensor:
#      x y z
#    x 1.731900 -0.000010 -0.074710 
#    y -0.000010 1.726520 0.000020 
#    z -0.074710 0.000020 1.811430 
# 
# From -- ./inp_files/211872.got.cif
#   From: 2010.05.17/outbox.cif.g08.bks.cpg/sg15_106_cif.got.tgz:211872.got - 2010.06.03 18:47:42.
