data_PCOD9261247
_publ_section_title
;
Structure prediction by ZEFSAII (Michael W. Deem and Ramdas Pophale) SiO2 
 PCOD9261247
Probable space group: C 2/C
;
_chemical_formula_sum "Si O2"
_cell_formula_units_Z 40
_cell_length_a 24.073667
_cell_length_b 7.854658
_cell_length_c 14.562916
_cell_angle_alpha 90.000000
_cell_angle_beta 145.701850
_cell_angle_gamma 90.000000
_cell_volume 1551.712691
_symmetry_space_group_name_H-M "C 2/C"
_symmetry_group_IT_number 15
_symmetry_cell_setting 'monoclinic'
loop_
_space_group_symop_operation_xyz
x,y,z
-x,y,1/2-z
-x,-y,-z
x,-y,1/2+z
1/2+x,1/2+y,z
1/2-x,1/2+y,1/2-z
1/2-x,1/2-y,-z
1/2+x,1/2-y,1/2+z
loop_
_atom_site_type_symbol
_atom_site_label
_atom_site_fract_x
_atom_site_fract_y
_atom_site_fract_z
Si Si1 0.978351 0.297685 0.475631
Si Si2 0.834139 0.669842 0.180486
Si Si3 0.425202 0.376948 0.567117
Si Si4 0.381720 0.043089 0.588941
Si Si5 0.687360 0.277310 0.627835
O O1 0.056932 0.245954 0.664609
O O2 0.012049 0.195361 0.432420
O O3 0.000000 0.500000 0.500000
O O4 0.865698 0.264245 0.348592
O O5 0.848116 0.491109 0.146993
O O6 0.750000 0.750000 0.000000
O O7 0.795023 0.687788 0.231182
O O8 0.500000 0.420956 0.750000
O O9 0.362358 0.541209 0.460121
O O10 0.356448 0.223966 0.511247
O O11 0.500000 0.038939 0.750000
O O12 0.346193 0.887850 0.477216
#
# Coordination Sequence:
#
# PCOD9261247 Si02
#       5
#     8   8   8   8   8
#     4  12  23  46  73  97 145 191 234 295 367 427
#     4  10  24  41  73 104 136 189 235 293 359 426
#     4  11  24  40  70 103 131 184 236 284 356 426
#     4  10  18  42  66  93 138 180 222 284 354 419
#     4  11  23  42  69  97 138 181 233 292 347 419
#
# _framework density 25.777968000000001
#
# number of rings (size 3 to 8) (size 9 to 14) (size 15 to 20)
#    0.000    1.200    4.000    2.400    2.800    2.400 
#    0.000    0.000    0.000    0.000    0.000    0.000 
#    0.000    0.000    0.000    0.000    0.000    0.000 
#
# Total GULP energy -111727.146627 kJ/mol
# GULP energy per Si atom -5586.357331 kJ/mol
# Density = 2.571930 g / cm^3
# Si number density = 25.777968 Si / 1000 Ang^3
#
#
#
# Elastic Constant Matrix: (Units=GPa)
#
#
# Indices 1 2 3 4 5 6 
#
# 1 145.1965 25.4354 41.9082 0.0000 14.5823 0.0000
# 2 25.4354 138.0220 -5.1219 0.0000 9.6263 0.0000
# 3 41.9082 -5.1219 61.1839 0.0000 7.5136 0.0000
# 4 0.0000 0.0000 0.0000 10.2245 0.0000 -19.9607
# 5 14.5823 9.6263 7.5136 0.0000 45.3820 0.0000
# 6 0.0000 0.0000 0.0000 -19.9607 0.0000 23.1053
#
#
#
# Elastic Compliance Matrix: (Units=1/GPa)
#
#
# Indices 1 2 3 4 5 6 
#
# 1 0.009158 -0.001813 -0.006237 0.000000 -0.001526 0.000000
# 2 -0.001813 0.007754 0.002063 0.000000 -0.001404 0.000000
# 3 -0.006237 0.002063 0.021024 0.000000 -0.001914 0.000000
# 4 0.000000 0.000000 0.000000 -0.142459 0.000000 -0.123071
# 5 -0.001526 -0.001404 -0.001914 0.000000 0.023140 0.000000
# 6 0.000000 0.000000 0.000000 -0.123071 0.000000 -0.063041
#
#
# Mechanical properties :
#
#
# Convention : Reuss Voigt Hill
#
# Bulk Modulus (GPa) = 38.51743 52.09397 45.30570
# Shear Modulus (GPa) = -40.38923 34.55440 -2.91742
#
# Velocity S-wave (km/s) = -3.96259 3.66520 -1.06499
# Velocity P-wave (km/s) = 2.44167 6.17772 4.01263
#
# Compressibility (1/GPa) = 0.02596227
#
# Stress axis : x y z
#
# Youngs Moduli (GPa) = 109.19039 128.96958 47.56391
#
# Poissons Ratio (x) = 0.23380 0.29668
# Poissons Ratio (y) = 0.19794 -0.09813
# Poissons Ratio (z) = 0.68107 -0.26609
#
# Static dielectric constant tensor:
#      x y z
#    x 1.943730 0.000000 -0.019490 
#    y 0.000000 2.028020 0.000000 
#    z -0.019490 0.000000 2.120660 
# 
# From -- ./inp_files/218414.got.cif
#   From: 2010.05.17/outbox.cif.g08.bks.cpg/sg15_110_cif.got.tgz:218414.got - 2010.06.03 18:47:42.
