data_PCOD9261607
_publ_section_title
;
Structure prediction by ZEFSAII (Michael W. Deem and Ramdas Pophale) SiO2 
 PCOD9261607
Probable space group: C 2/C
;
_chemical_formula_sum "Si O2"
_cell_formula_units_Z 64
_cell_length_a 24.297651
_cell_length_b 17.155400
_cell_length_c 10.305314
_cell_angle_alpha 90.000000
_cell_angle_beta 74.232965
_cell_angle_gamma 90.000000
_cell_volume 4133.999979
_symmetry_space_group_name_H-M "C 2/C"
_symmetry_group_IT_number 15
_symmetry_cell_setting 'monoclinic'
loop_
_space_group_symop_operation_xyz
x,y,z
-x,y,1/2-z
-x,-y,-z
x,-y,1/2+z
1/2+x,1/2+y,z
1/2-x,1/2+y,1/2-z
1/2-x,1/2-y,-z
1/2+x,1/2-y,1/2+z
loop_
_atom_site_type_symbol
_atom_site_label
_atom_site_fract_x
_atom_site_fract_y
_atom_site_fract_z
Si Si1 0.750447 0.417449 0.238343
Si Si2 0.604566 0.380232 0.976366
Si Si3 0.490246 0.561987 0.619182
Si Si4 0.261080 0.097076 0.187873
Si Si5 0.862428 0.842778 0.825842
Si Si6 0.301318 0.809823 0.430460
Si Si7 0.272433 0.334950 0.515852
Si Si8 0.623512 0.435420 0.430911
O O1 0.770909 0.506554 0.212023
O O2 0.785817 0.362525 0.314966
O O3 0.745935 0.386145 0.095183
O O4 0.686475 0.418384 0.338289
O O5 0.620232 0.472541 0.964165
O O6 0.602990 0.352669 0.828511
O O7 0.658778 0.339543 0.009083
O O8 0.541097 0.375039 0.076067
O O9 0.500000 0.521869 0.750000
O O10 0.500000 0.500000 0.500000
O O11 0.424921 0.586516 0.642484
O O12 0.198177 0.112259 0.164022
O O13 0.255619 0.138678 0.330311
O O14 0.304441 0.135184 0.055892
O O15 0.850702 0.752171 0.865400
O O16 0.888109 0.886500 0.932365
O O17 0.250000 0.750000 0.500000
O O18 0.250000 0.250000 0.500000
#
# Coordination Sequence:
#
# PCOD9261607 Si02
#       8
#     8   8   8   8   8   8   8   8
#     4  12  18  30  49  67  94 132 168 199 237 290
#     4  10  21  33  47  66  99 122 175 206 241 281
#     4  10  23  34  47  68  97 129 171 217 240 272
#     4  10  19  31  44  67  94 124 167 202 238 295
#     4  10  19  32  48  68  88 131 168 209 246 295
#     4  10  19  32  46  66  96 124 171 204 244 296
#     4  11  21  29  46  70  94 122 163 201 253 289
#     4  11  20  29  52  65  93 131 178 198 240 272
#
# _framework density 15.481375
#
# number of rings (size 3 to 8) (size 9 to 14) (size 15 to 20)
#    0.000    1.500    5.000    4.500    7.000    0.000 
#    0.000    0.000    0.000    0.000    0.000    0.000 
#    0.000    0.000    0.000   20.250    1.500    0.500 
#
# Total GULP energy -178327.031761 kJ/mol
# GULP energy per Si atom -5572.719743 kJ/mol
# Density = 1.544614 g / cm^3
# Si number density = 15.481375 Si / 1000 Ang^3
#
#
#
# Elastic Constant Matrix: (Units=GPa)
#
#
# Indices 1 2 3 4 5 6 
#
# 1 39.5726 28.0514 9.9240 0.0000 4.2988 0.0000
# 2 28.0514 85.2766 31.7807 0.0000 11.9885 0.0000
# 3 9.9240 31.7807 90.0517 0.0000 19.3334 0.0000
# 4 0.0000 0.0000 0.0000 33.1718 0.0000 3.5000
# 5 4.2988 11.9885 19.3334 0.0000 19.8362 0.0000
# 6 0.0000 0.0000 0.0000 3.5000 0.0000 8.0606
#
#
#
# Elastic Compliance Matrix: (Units=1/GPa)
#
#
# Indices 1 2 3 4 5 6 
#
# 1 0.032973 -0.010861 0.000410 0.000000 -0.000981 0.000000
# 2 -0.010861 0.017397 -0.004035 0.000000 -0.004228 0.000000
# 3 0.000410 -0.004035 0.015149 0.000000 -0.012415 0.000000
# 4 0.000000 0.000000 0.000000 0.031594 0.000000 -0.013718
# 5 -0.000981 -0.004228 -0.012415 0.000000 0.065281 0.000000
# 6 0.000000 0.000000 0.000000 -0.013718 0.000000 0.130018
#
#
# Mechanical properties :
#
#
# Convention : Reuss Voigt Hill
#
# Bulk Modulus (GPa) = 27.36230 39.37923 33.37077
# Shear Modulus (GPa) = 14.98950 21.89001 18.43975
#
# Velocity S-wave (km/s) = 3.11501 3.76434 3.45497
# Velocity P-wave (km/s) = 5.53628 6.66224 6.12519
#
# Compressibility (1/GPa) = 0.03654663
#
# Stress axis : x y z
#
# Youngs Moduli (GPa) = 30.32801 57.47953 66.01061
#
# Poissons Ratio (x) = 0.62429 -0.02706
# Poissons Ratio (y) = 0.32940 0.26637
# Poissons Ratio (z) = -0.01243 0.23194
#
# Static dielectric constant tensor:
#      x y z
#    x 1.540670 0.000000 -0.012630 
#    y 0.000000 1.524420 0.000000 
#    z -0.012630 0.000000 1.532600 
# 
# From -- ./inp_files/66721.got.cif
#   From: 2010.05.17/outbox.cif.g08.bks.cpg/sg15_34_cif.got.tgz:66721.got - 2010.06.03 18:47:42.
