data_PCOD9261507
_publ_section_title
;
Structure prediction by ZEFSAII (Michael W. Deem and Ramdas Pophale) SiO2 
 PCOD9261507
Probable space group: C 2/C
;
_chemical_formula_sum "Si O2"
_cell_formula_units_Z 48
_cell_length_a 15.298684
_cell_length_b 27.760417
_cell_length_c 5.355849
_cell_angle_alpha 90.000000
_cell_angle_beta 59.003698
_cell_angle_gamma 90.000000
_cell_volume 1949.803386
_symmetry_space_group_name_H-M "C 2/C"
_symmetry_group_IT_number 15
_symmetry_cell_setting 'monoclinic'
loop_
_space_group_symop_operation_xyz
x,y,z
-x,y,1/2-z
-x,-y,-z
x,-y,1/2+z
1/2+x,1/2+y,z
1/2-x,1/2+y,1/2-z
1/2-x,1/2-y,-z
1/2+x,1/2-y,1/2+z
loop_
_atom_site_type_symbol
_atom_site_label
_atom_site_fract_x
_atom_site_fract_y
_atom_site_fract_z
Si Si1 0.123673 0.323412 0.114766
Si Si2 0.635345 0.022842 0.187124
Si Si3 0.068554 0.119248 0.400185
Si Si4 0.380509 0.134436 0.382955
Si Si5 0.363486 0.482352 0.809342
Si Si6 0.931256 0.774251 0.601498
O O1 0.162532 0.359765 0.273035
O O2 0.137072 0.271783 0.230607
O O3 0.000000 0.329331 0.250000
O O4 0.162264 0.332022 0.776349
O O5 0.593031 0.002791 0.991914
O O6 0.753339 0.006389 0.010906
O O7 0.627251 0.080073 0.201400
O O8 0.140038 0.073000 0.269272
O O9 0.116513 0.172640 0.352157
O O10 0.000000 0.119119 0.250000
O O11 0.000000 0.113157 0.750000
O O12 0.500000 0.145815 0.250000
O O13 0.410579 0.513161 0.515140
O O14 0.000000 0.777258 0.750000
O O15 0.000000 0.765932 0.250000
#
# Coordination Sequence:
#
# PCOD9261507 Si02
#       6
#     8   8   8   8   8   8
#     4   9  16  28  46  72 104 133 159 201 258 307
#     4  10  21  36  51  70  97 137 179 215 258 303
#     4  10  20  32  51  80 108 134 169 212 252 299
#     4  10  19  30  49  76 102 131 172 216 251 295
#     4  10  21  36  52  72  99 139 177 211 258 305
#     4   9  16  28  46  72 107 137 160 197 253 310
#
# _framework density 24.617864999999998
#
# number of rings (size 3 to 8) (size 9 to 14) (size 15 to 20)
#    0.000    2.333    0.000    4.500    0.000    2.667 
#    0.000    0.000    0.000    0.000    0.000   28.000 
#    0.000    0.000    0.000    0.000    0.000    1.000 
#
# Total GULP energy -134006.202714 kJ/mol
# GULP energy per Si atom -5583.591780 kJ/mol
# Density = 2.456183 g / cm^3
# Si number density = 24.617865 Si / 1000 Ang^3
#
#
#
# Elastic Constant Matrix: (Units=GPa)
#
#
# Indices 1 2 3 4 5 6 
#
# 1 69.4875 -2.9644 48.4908 0.0000 21.3932 0.0000
# 2 -2.9644 141.2486 42.3427 0.0000 24.2933 0.0000
# 3 48.4908 42.3427 176.0626 0.0000 50.8478 0.0000
# 4 0.0000 0.0000 0.0000 41.6469 0.0000 8.9799
# 5 21.3932 24.2933 50.8478 0.0000 40.3707 0.0000
# 6 0.0000 0.0000 0.0000 8.9799 0.0000 32.3617
#
#
#
# Elastic Compliance Matrix: (Units=1/GPa)
#
#
# Indices 1 2 3 4 5 6 
#
# 1 0.019457 0.002808 -0.004037 0.000000 -0.006916 0.000000
# 2 0.002808 0.008380 -0.001419 0.000000 -0.004744 0.000000
# 3 -0.004037 -0.001419 0.009852 0.000000 -0.009416 0.000000
# 4 0.000000 0.000000 0.000000 0.025539 0.000000 -0.007087
# 5 -0.006916 -0.004744 -0.009416 0.000000 0.043150 0.000000
# 6 0.000000 0.000000 0.000000 -0.007087 0.000000 0.032867
#
#
# Mechanical properties :
#
#
# Convention : Reuss Voigt Hill
#
# Bulk Modulus (GPa) = 30.86971 62.50409 46.68690
# Shear Modulus (GPa) = 32.18770 42.80449 37.49609
#
# Velocity S-wave (km/s) = 3.61985 4.17436 3.90696
# Velocity P-wave (km/s) = 5.48068 6.97701 6.27361
#
# Compressibility (1/GPa) = 0.03239422
#
# Stress axis : x y z
#
# Youngs Moduli (GPa) = 51.39507 119.33455 101.49971
#
# Poissons Ratio (x) = -0.33509 0.40973
# Poissons Ratio (y) = -0.14431 0.14399
# Poissons Ratio (z) = 0.20747 0.16930
#
# Static dielectric constant tensor:
#      x y z
#    x 1.713830 0.000000 0.007840 
#    y 0.000000 1.945130 0.000000 
#    z 0.007840 0.000000 1.976340 
# 
# From -- ./inp_files/11188.got.cif
#   From: 2010.05.17/outbox.cif.g08.bks.cpg/sg15_6_cif.got.tgz:11188.got - 2010.06.03 18:47:42.
