data_PCOD9261552
_publ_section_title
;
Structure prediction by ZEFSAII (Michael W. Deem and Ramdas Pophale) SiO2 
 PCOD9261552
Probable space group: C 2/C
;
_chemical_formula_sum "Si O2"
_cell_formula_units_Z 64
_cell_length_a 14.632007
_cell_length_b 11.336611
_cell_length_c 17.887486
_cell_angle_alpha 90.000000
_cell_angle_beta 74.047439
_cell_angle_gamma 90.000000
_cell_volume 2852.863785
_symmetry_space_group_name_H-M "C 2/C"
_symmetry_group_IT_number 15
_symmetry_cell_setting 'monoclinic'
loop_
_space_group_symop_operation_xyz
x,y,z
-x,y,1/2-z
-x,-y,-z
x,-y,1/2+z
1/2+x,1/2+y,z
1/2-x,1/2+y,1/2-z
1/2-x,1/2-y,-z
1/2+x,1/2-y,1/2+z
loop_
_atom_site_type_symbol
_atom_site_label
_atom_site_fract_x
_atom_site_fract_y
_atom_site_fract_z
Si Si1 0.815701 0.854164 0.551611
Si Si2 0.794966 0.014093 0.808933
Si Si3 0.880391 0.365238 0.495923
Si Si4 0.164120 0.604411 0.961117
Si Si5 0.831507 0.075953 0.637096
Si Si6 0.138430 0.272354 0.687277
Si Si7 0.191767 0.217983 0.107071
Si Si8 0.048662 0.716673 0.360441
O O1 0.878718 0.735673 0.534456
O O2 0.761075 0.874827 0.486241
O O3 0.734657 0.818548 0.629809
O O4 0.854169 0.977899 0.570607
O O5 0.831725 0.887694 0.830392
O O6 0.696871 0.049953 0.874181
O O7 0.790378 0.016846 0.720900
O O8 0.859153 0.129664 0.811378
O O9 0.893966 0.504256 0.482123
O O10 0.892008 0.278406 0.422794
O O11 0.766797 0.349262 0.536169
O O12 0.927636 0.334127 0.563967
O O13 0.753811 0.174753 0.628967
O O14 0.927935 0.145286 0.633890
O O15 0.120415 0.316559 0.775917
O O16 0.052923 0.307393 0.652139
#
# Coordination Sequence:
#
# PCOD9261552 Si02
#       8
#     8   8   8   8   8   8   8   8
#     4  10  19  31  52  76 107 133 171 219 265 305
#     4   9  19  29  51  73 103 133 172 215 266 310
#     4   9  16  30  50  73  96 141 168 211 257 313
#     4   9  18  31  48  73 107 135 162 216 269 303
#     4  10  19  30  52  81 100 132 177 223 263 309
#     4   9  19  36  50  76 103 141 171 214 260 327
#     4   9  17  29  48  74 105 123 170 223 258 297
#     4   9  19  34  55  72 105 138 177 209 267 319
#
# _framework density 22.433598
#
# number of rings (size 3 to 8) (size 9 to 14) (size 15 to 20)
#    0.000    2.750    1.250    0.000   10.500    0.000 
#    0.000    1.250    0.000    0.000    0.000    3.500 
#    0.000    0.000    0.000    0.000    0.000    0.000 
#
# Total GULP energy -178322.212945 kJ/mol
# GULP energy per Si atom -5572.569155 kJ/mol
# Density = 2.238254 g / cm^3
# Si number density = 22.433598 Si / 1000 Ang^3
#
#
#
# Elastic Constant Matrix: (Units=GPa)
#
#
# Indices 1 2 3 4 5 6 
#
# 1 35.9990 11.9541 14.8440 0.0000 8.4056 0.0000
# 2 11.9541 130.9789 48.4458 0.0000 9.2218 0.0000
# 3 14.8440 48.4458 100.1423 0.0000 22.2332 0.0000
# 4 0.0000 0.0000 0.0000 47.0974 0.0000 4.7622
# 5 8.4056 9.2218 22.2332 0.0000 25.3298 0.0000
# 6 0.0000 0.0000 0.0000 4.7622 0.0000 7.3753
#
#
#
# Elastic Compliance Matrix: (Units=1/GPa)
#
#
# Indices 1 2 3 4 5 6 
#
# 1 0.030988 -0.001488 -0.002125 0.000000 -0.007877 0.000000
# 2 -0.001488 0.009380 -0.004557 0.000000 0.001078 0.000000
# 3 -0.002125 -0.004557 0.014880 0.000000 -0.010697 0.000000
# 4 0.000000 0.000000 0.000000 0.022716 0.000000 -0.014667
# 5 -0.007877 0.001078 -0.010697 0.000000 0.051090 0.000000
# 6 0.000000 0.000000 0.000000 -0.014667 0.000000 0.145057
#
#
# Mechanical properties :
#
#
# Convention : Reuss Voigt Hill
#
# Bulk Modulus (GPa) = 25.70067 46.40087 36.05077
# Shear Modulus (GPa) = 16.47888 28.75227 22.61558
#
# Velocity S-wave (km/s) = 2.71322 3.58391 3.17852
# Velocity P-wave (km/s) = 4.61483 6.15260 5.43834
#
# Compressibility (1/GPa) = 0.03890949
#
# Stress axis : x y z
#
# Youngs Moduli (GPa) = 32.27064 106.60902 67.20435
#
# Poissons Ratio (x) = 0.15860 0.14280
# Poissons Ratio (y) = 0.04801 0.30623
# Poissons Ratio (z) = 0.06857 0.48578
#
# Static dielectric constant tensor:
#      x y z
#    x 1.850250 0.000000 -0.010130 
#    y 0.000000 1.918560 0.000000 
#    z -0.010130 0.000000 1.878400 
# 
# From -- ./inp_files/210330.got.cif
#   From: 2010.05.17/outbox.cif.g08.bks.cpg/sg15_106_cif.got.tgz:210330.got - 2010.06.03 18:47:42.
