data_PCOD9261002
_publ_section_title
;
Structure prediction by ZEFSAII (Michael W. Deem and Ramdas Pophale) SiO2 
 PCOD9261002
Probable space group: C 2/C
;
_chemical_formula_sum "Si O2"
_cell_formula_units_Z 64
_cell_length_a 17.313039
_cell_length_b 21.656008
_cell_length_c 13.986283
_cell_angle_alpha 90.000000
_cell_angle_beta 145.872250
_cell_angle_gamma 90.000000
_cell_volume 2942.034995
_symmetry_space_group_name_H-M "C 2/C"
_symmetry_group_IT_number 15
_symmetry_cell_setting 'monoclinic'
loop_
_space_group_symop_operation_xyz
x,y,z
-x,y,1/2-z
-x,-y,-z
x,-y,1/2+z
1/2+x,1/2+y,z
1/2-x,1/2+y,1/2-z
1/2-x,1/2-y,-z
1/2+x,1/2-y,1/2+z
loop_
_atom_site_type_symbol
_atom_site_label
_atom_site_fract_x
_atom_site_fract_y
_atom_site_fract_z
Si Si1 0.687009 0.197754 0.816591
Si Si2 0.917732 0.191373 0.907834
Si Si3 0.945119 0.667129 0.431739
Si Si4 0.253805 0.164129 0.421057
Si Si5 0.431635 0.412345 0.857103
Si Si6 0.631089 0.072705 0.318495
Si Si7 0.396468 0.609310 0.714592
Si Si8 0.131850 0.011117 0.033612
O O1 0.839228 0.193839 0.928113
O O2 0.591844 0.170288 0.636037
O O3 0.672586 0.270825 0.825371
O O4 0.667328 0.167009 0.898623
O O5 0.927495 0.261249 0.882366
O O6 0.851809 0.148949 0.759339
O O7 0.053642 0.150775 0.067035
O O8 0.844361 0.655207 0.418768
O O9 0.915095 0.620832 0.313062
O O10 0.151554 0.106490 0.320086
O O11 0.358629 0.461805 0.849804
O O12 0.576875 0.442270 0.981787
O O13 0.500000 0.057836 0.250000
O O14 0.756444 0.096143 0.514543
O O15 0.718301 0.018132 0.357872
O O16 0.500000 0.645939 0.750000
O O17 0.503046 0.552759 0.855939
#
# Coordination Sequence:
#
# PCOD9261002 Si02
#       8
#     8   8   8   8   8   8   8   8
#     4  10  21  35  54  91 130 169 202 261 325 390
#     4  10  21  35  59  90 127 161 214 264 318 383
#     4  11  21  36  60  87 133 175 206 255 335 396
#     4  10  20  36  59  86 129 168 214 258 320 382
#     4  10  18  39  67  92 118 163 224 271 317 375
#     4  11  22  38  62  95 133 176 213 267 340 389
#     4   9  20  38  59  89 126 166 220 272 311 374
#     4   9  20  39  68  92 122 166 225 278 319 372
#
# _framework density 21.75365
#
# number of rings (size 3 to 8) (size 9 to 14) (size 15 to 20)
#    0.000    2.000    2.500    1.125    0.000    1.500 
#    6.750    0.000    2.750    3.000    0.000    0.000 
#    0.000    0.000    0.000    0.000    0.000    0.000 
#
# Total GULP energy -178146.888627 kJ/mol
# GULP energy per Si atom -5567.090270 kJ/mol
# Density = 2.170414 g / cm^3
# Si number density = 21.753650 Si / 1000 Ang^3
#
#
#
# Elastic Constant Matrix: (Units=GPa)
#
#
# Indices 1 2 3 4 5 6 
#
# 1 117.1801 19.0903 32.8438 0.0000 11.7736 0.0000
# 2 19.0903 31.4152 1.4739 0.0000 0.0011 0.0000
# 3 32.8438 1.4739 77.0101 0.0000 1.9082 0.0000
# 4 0.0000 0.0000 0.0000 13.4505 0.0000 6.4464
# 5 11.7736 0.0011 1.9082 0.0000 39.5377 0.0000
# 6 0.0000 0.0000 0.0000 6.4464 0.0000 17.7805
#
#
#
# Elastic Compliance Matrix: (Units=1/GPa)
#
#
# Indices 1 2 3 4 5 6 
#
# 1 0.011203 -0.006593 -0.004575 0.000000 -0.003115 0.000000
# 2 -0.006593 0.035740 0.002082 0.000000 0.001862 0.000000
# 3 -0.004575 0.002082 0.014881 0.000000 0.000644 0.000000
# 4 0.000000 0.000000 0.000000 0.089982 0.000000 -0.032623
# 5 -0.003115 0.001862 0.000644 0.000000 0.026189 0.000000
# 6 0.000000 0.000000 0.000000 -0.032623 0.000000 0.068069
#
#
# Mechanical properties :
#
#
# Convention : Reuss Voigt Hill
#
# Bulk Modulus (GPa) = 22.90847 36.93573 29.92210
# Shear Modulus (GPa) = 17.93486 25.63357 21.78421
#
# Velocity S-wave (km/s) = 2.87444 3.43644 3.16793
# Velocity P-wave (km/s) = 4.64438 5.72377 5.21209
#
# Compressibility (1/GPa) = 0.04365198
#
# Stress axis : x y z
#
# Youngs Moduli (GPa) = 89.26033 27.97950 67.20191
#
# Poissons Ratio (x) = 0.18447 0.30742
# Poissons Ratio (y) = 0.58851 -0.13989
# Poissons Ratio (z) = 0.40833 -0.05825
#
# Static dielectric constant tensor:
#      x y z
#    x 1.843790 0.000000 -0.018790 
#    y 0.000000 1.822230 0.000000 
#    z -0.018790 0.000000 1.916450 
# 
# From -- ./inp_files/164270.got.cif
#   From: 2010.05.17/outbox.cif.g08.bks.cpg/sg15_83_cif.got.tgz:164270.got - 2010.06.03 18:47:42.
