data_PCOD9261831
_publ_section_title
;
Structure prediction by ZEFSAII (Michael W. Deem and Ramdas Pophale) SiO2 
 PCOD9261831
Probable space group: C 2/C
;
_chemical_formula_sum "Si O2"
_cell_formula_units_Z 56
_cell_length_a 18.672238
_cell_length_b 20.174319
_cell_length_c 23.304317
_cell_angle_alpha 90.000000
_cell_angle_beta 160.863984
_cell_angle_gamma 90.000000
_cell_volume 2877.771158
_symmetry_space_group_name_H-M "C 2/C"
_symmetry_group_IT_number 15
_symmetry_cell_setting 'monoclinic'
loop_
_space_group_symop_operation_xyz
x,y,z
-x,y,1/2-z
-x,-y,-z
x,-y,1/2+z
1/2+x,1/2+y,z
1/2-x,1/2+y,1/2-z
1/2-x,1/2-y,-z
1/2+x,1/2-y,1/2+z
loop_
_atom_site_type_symbol
_atom_site_label
_atom_site_fract_x
_atom_site_fract_y
_atom_site_fract_z
Si Si1 0.586258 0.585113 0.591551
Si Si2 0.490617 0.010083 0.424951
Si Si3 0.854186 0.201178 0.779994
Si Si4 0.315034 0.526610 0.943658
Si Si5 0.306284 0.996616 0.033164
Si Si6 0.206232 0.651663 0.447942
Si Si7 0.982873 0.663936 0.072537
O O1 0.796420 0.539137 0.761963
O O2 0.626755 0.656202 0.648962
O O3 0.565438 0.578866 0.507361
O O4 0.400825 0.545189 0.486209
O O5 0.446125 0.087453 0.377085
O O6 0.500000 0.000000 0.500000
O O7 0.696886 0.993632 0.538628
O O8 0.658487 0.179131 0.590739
O O9 0.840005 0.278462 0.784862
O O10 0.076434 0.183034 0.913696
O O11 0.344383 0.539364 0.033654
O O12 0.055606 0.524945 0.735547
O O13 0.277068 0.072462 0.031240
O O14 0.162073 0.673238 0.479733
O O15 0.000000 0.665893 0.250000
#
# Coordination Sequence:
#
# PCOD9261831 Si02
#       7
#     8   8   8   8   8   8   8
#     4  10  19  31  56  74 110 135 183 230 275 318
#     4  10  20  37  53  76 107 145 179 228 276 324
#     4  12  22  37  51  79 109 149 186 224 273 330
#     4   9  16  30  48  82 102 139 180 226 269 319
#     4   9  16  29  52  76 109 139 182 221 269 323
#     4  11  19  34  53  76 111 152 186 220 263 328
#     4  11  25  36  54  76 112 150 186 222 277 333
#
# _framework density 19.459503999999999
#
# number of rings (size 3 to 8) (size 9 to 14) (size 15 to 20)
#    0.000    1.714    4.286    1.714    0.000    3.429 
#    0.000    0.714    0.000    0.000    0.000    1.000 
#    8.571    0.143    0.000    0.000    0.000    0.000 
#
# Total GULP energy -156023.419557 kJ/mol
# GULP energy per Si atom -5572.264984 kJ/mol
# Density = 1.941521 g / cm^3
# Si number density = 19.459504 Si / 1000 Ang^3
#
#
#
# Elastic Constant Matrix: (Units=GPa)
#
#
# Indices 1 2 3 4 5 6 
#
# 1 181.9182 29.3543 10.7475 -0.0124 4.4102 0.0093
# 2 29.3543 76.0991 -6.0406 -0.0930 7.1606 -0.0054
# 3 10.7475 -6.0406 18.0481 -0.1965 0.7037 -0.0137
# 4 -0.0124 -0.0930 -0.1965 19.9490 -0.0111 -5.9000
# 5 4.4102 7.1606 0.7037 -0.0111 18.3616 0.0497
# 6 0.0093 -0.0054 -0.0137 -5.9000 0.0497 8.3900
#
#
#
# Elastic Compliance Matrix: (Units=1/GPa)
#
#
# Indices 1 2 3 4 5 6 
#
# 1 0.006218 -0.002741 -0.004611 -0.000074 -0.000248 -0.000067
# 2 -0.002741 0.015275 0.006964 0.000192 -0.005566 0.000192
# 3 -0.004611 0.006964 0.060647 0.000838 -0.003934 0.000721
# 4 -0.000074 0.000192 0.000838 0.063303 -0.000171 0.044519
# 5 -0.000248 -0.005566 -0.003934 -0.000171 0.056843 -0.000467
# 6 -0.000067 0.000192 0.000721 0.044519 -0.000467 0.150500
#
#
# Mechanical properties :
#
#
# Convention : Reuss Voigt Hill
#
# Bulk Modulus (GPa) = 12.29063 38.24309 25.26686
# Shear Modulus (GPa) = 13.13422 25.47374 19.30398
#
# Velocity S-wave (km/s) = 2.60080 3.62202 3.15303
# Velocity P-wave (km/s) = 3.91773 6.09815 5.12523
#
# Compressibility (1/GPa) = 0.08136278
#
# Stress axis : x y z
#
# Youngs Moduli (GPa) = 160.83036 65.46684 16.48881
#
# Poissons Ratio (x) = 0.17946 0.07603
# Poissons Ratio (y) = 0.44088 -0.11483
# Poissons Ratio (z) = 0.74163 -0.45591
#
# Static dielectric constant tensor:
#      x y z
#    x 1.826700 -0.000050 -0.050120 
#    y -0.000050 1.685940 -0.000050 
#    z -0.050120 -0.000050 1.739670 
# 
# From -- ./inp_files/278045.got.cif
#   From: 2010.05.17/outbox.cif.g08.bks.cpg/sg15_140_cif.got.tgz:278045.got - 2010.06.03 18:47:42.
