data_PCOD9261221
_publ_section_title
;
Structure prediction by ZEFSAII (Michael W. Deem and Ramdas Pophale) SiO2 
 PCOD9261221
Probable space group: C 2/C
;
_chemical_formula_sum "Si O2"
_cell_formula_units_Z 56
_cell_length_a 29.913119
_cell_length_b 12.600524
_cell_length_c 14.499423
_cell_angle_alpha 90.000000
_cell_angle_beta 29.918635
_cell_angle_gamma 90.000000
_cell_volume 2725.844368
_symmetry_space_group_name_H-M "C 2/C"
_symmetry_group_IT_number 15
_symmetry_cell_setting 'monoclinic'
loop_
_space_group_symop_operation_xyz
x,y,z
-x,y,1/2-z
-x,-y,-z
x,-y,1/2+z
1/2+x,1/2+y,z
1/2-x,1/2+y,1/2-z
1/2-x,1/2-y,-z
1/2+x,1/2-y,1/2+z
loop_
_atom_site_type_symbol
_atom_site_label
_atom_site_fract_x
_atom_site_fract_y
_atom_site_fract_z
Si Si1 0.815016 0.340192 0.429061
Si Si2 0.442772 0.327232 0.440586
Si Si3 0.783736 0.974878 0.031005
Si Si4 0.705421 0.200762 0.171169
Si Si5 0.006138 0.960004 0.884398
Si Si6 0.505505 0.764038 0.023094
Si Si7 0.753502 0.227601 0.709904
O O1 0.750000 0.250000 0.500000
O O2 0.767267 0.444642 0.474051
O O3 0.916161 0.327159 0.211914
O O4 0.810780 0.310113 0.544286
O O5 0.500000 0.294056 0.250000
O O6 0.444861 0.456018 0.439893
O O7 0.487980 0.285377 0.453517
O O8 0.345598 0.276444 0.613324
O O9 0.756166 0.885822 0.154457
O O10 0.755711 0.092610 0.106487
O O11 0.890148 0.969607 0.828551
O O12 0.599956 0.177416 0.349006
O O13 0.715962 0.277917 0.239611
O O14 0.750000 0.250000 0.000000
O O15 0.984319 0.835770 0.925018
O O16 0.000000 0.000000 0.000000
#
# Coordination Sequence:
#
# PCOD9261221 Si02
#       7
#     8   8   8   8   8   8   8
#     4  10  18  41  70  94 123 173 227 270 321 406
#     4  11  21  37  64  96 127 175 227 272 335 404
#     4  11  22  44  71  96 135 181 218 271 350 399
#     4  12  28  43  61 103 145 169 217 292 339 387
#     4  10  19  35  65  97 123 164 223 277 332 383
#     4  11  21  40  65  92 131 169 220 280 328 393
#     4  11  23  44  69  94 135 180 227 273 337 418
#
# _framework density 20.544091999999999
#
# number of rings (size 3 to 8) (size 9 to 14) (size 15 to 20)
#    0.000    1.143    5.714    4.286    0.000    4.571 
#    0.000    0.000    0.000    0.000    0.000    0.000 
#    0.000    0.000    0.000    0.000    0.000    0.000 
#
# Total GULP energy -156360.205028 kJ/mol
# GULP energy per Si atom -5584.293037 kJ/mol
# Density = 2.049733 g / cm^3
# Si number density = 20.544092 Si / 1000 Ang^3
#
#
#
# Elastic Constant Matrix: (Units=GPa)
#
#
# Indices 1 2 3 4 5 6 
#
# 1 83.1150 15.7938 42.3977 0.0000 17.3070 0.0000
# 2 15.7938 58.4022 39.9673 0.0000 -10.8864 0.0000
# 3 42.3977 39.9673 162.7688 0.0000 -1.3408 0.0000
# 4 0.0000 0.0000 0.0000 26.6140 0.0000 -5.9336
# 5 17.3070 -10.8864 -1.3408 0.0000 32.6308 0.0000
# 6 0.0000 0.0000 0.0000 -5.9336 0.0000 20.8231
#
#
#
# Elastic Compliance Matrix: (Units=1/GPa)
#
#
# Indices 1 2 3 4 5 6 
#
# 1 0.016726 -0.004109 -0.003433 0.000000 -0.010383 0.000000
# 2 -0.004109 0.023147 -0.004533 0.000000 0.009716 0.000000
# 3 -0.003433 -0.004533 0.008156 0.000000 0.000644 0.000000
# 4 0.000000 0.000000 0.000000 0.040123 0.000000 0.011433
# 5 -0.010383 0.009716 0.000644 0.000000 0.039421 0.000000
# 6 0.000000 0.000000 0.000000 0.011433 0.000000 0.051281
#
#
# Mechanical properties :
#
#
# Convention : Reuss Voigt Hill
#
# Bulk Modulus (GPa) = 41.87947 55.62260 48.75104
# Shear Modulus (GPa) = 23.70055 29.75541 26.72798
#
# Velocity S-wave (km/s) = 3.40022 3.80987 3.61086
# Velocity P-wave (km/s) = 5.98705 6.81814 6.41606
#
# Compressibility (1/GPa) = 0.02387805
#
# Stress axis : x y z
#
# Youngs Moduli (GPa) = 59.78803 43.20160 122.60272
#
# Poissons Ratio (x) = 0.17752 0.42093
# Poissons Ratio (y) = 0.24567 0.55580
# Poissons Ratio (z) = 0.20527 0.19585
#
# Static dielectric constant tensor:
#      x y z
#    x 1.777260 0.000000 0.025890 
#    y 0.000000 1.768040 0.000000 
#    z 0.025890 0.000000 1.707890 
# 
# From -- ./inp_files/181932.got.cif
#   From: 2010.05.17/outbox.cif.g08.bks.cpg/sg15_91_cif.got.tgz:181932.got - 2010.06.03 18:47:42.
