data_PCOD9261439
_publ_section_title
;
Structure prediction by ZEFSAII (Michael W. Deem and Ramdas Pophale) SiO2 
 PCOD9261439
Probable space group: C 2/C
;
_chemical_formula_sum "Si O2"
_cell_formula_units_Z 32
_cell_length_a 14.986463
_cell_length_b 21.295632
_cell_length_c 16.991849
_cell_angle_alpha 90.000000
_cell_angle_beta 162.220835
_cell_angle_gamma 90.000000
_cell_volume 1655.872512
_symmetry_space_group_name_H-M "C 2/C"
_symmetry_group_IT_number 15
_symmetry_cell_setting 'monoclinic'
loop_
_space_group_symop_operation_xyz
x,y,z
-x,y,1/2-z
-x,-y,-z
x,-y,1/2+z
1/2+x,1/2+y,z
1/2-x,1/2+y,1/2-z
1/2-x,1/2-y,-z
1/2+x,1/2-y,1/2+z
loop_
_atom_site_type_symbol
_atom_site_label
_atom_site_fract_x
_atom_site_fract_y
_atom_site_fract_z
Si Si1 0.266155 0.603620 0.362263
Si Si2 0.196211 0.616549 0.980293
Si Si3 0.500000 0.791427 0.750000
Si Si4 0.952976 0.425697 0.443924
Si Si5 0.000000 0.498712 0.750000
O O1 0.609822 0.591197 0.662904
O O2 0.098113 0.544906 0.261439
O O3 0.156579 0.663990 0.317740
O O4 0.157061 0.606873 0.181051
O O5 0.000000 0.650075 0.750000
O O6 0.043230 0.597845 0.933052
O O7 0.251437 0.548418 0.984050
O O8 0.500000 0.649279 0.250000
O O9 0.250000 0.750000 0.500000
O O10 0.000000 0.500000 0.500000
#
# Coordination Sequence:
#
# PCOD9261439 Si02
#       5
#     8   8   4   8   4
#     4  11  23  34  56  82 108 154 200 235 297 346
#     4  10  19  30  45  68 109 156 178 207 265 326
#     4  11  24  46  64  82 116 154 210 270 293 330
#     4  12  20  33  51  81 119 150 192 232 276 361
#     4   9  20  30  46  70 110 150 186 208 267 350
#
# _framework density 19.325158999999999
#
# number of rings (size 3 to 8) (size 9 to 14) (size 15 to 20)
#    0.750    0.500    2.500    5.250    0.000    2.000 
#    0.000    0.000    0.000    0.000    0.000    0.000 
#    0.000   70.000    0.000    0.000    0.000    0.000 
#
# Total GULP energy -89206.346721 kJ/mol
# GULP energy per Si atom -5575.396670 kJ/mol
# Density = 1.928117 g / cm^3
# Si number density = 19.325159 Si / 1000 Ang^3
#
#
#
# Elastic Constant Matrix: (Units=GPa)
#
#
# Indices 1 2 3 4 5 6 
#
# 1 90.8292 17.8453 43.2353 -0.0041 -16.3472 -0.0007
# 2 17.8453 51.6427 42.4467 -0.0025 -0.9241 -0.0013
# 3 43.2353 42.4467 185.6723 -0.0011 -6.0782 -0.0014
# 4 -0.0041 -0.0025 -0.0011 20.8124 -0.0009 4.2488
# 5 -16.3472 -0.9241 -6.0782 -0.0009 41.4348 -0.0001
# 6 -0.0007 -0.0013 -0.0014 4.2488 -0.0001 13.8368
#
#
#
# Elastic Compliance Matrix: (Units=1/GPa)
#
#
# Indices 1 2 3 4 5 6 
#
# 1 0.013554 -0.002628 -0.002394 0.000003 0.004938 -0.000001
# 2 -0.002628 0.024357 -0.004996 0.000002 -0.001226 0.000001
# 3 -0.002394 -0.004996 0.007085 -0.000001 -0.000017 0.000000
# 4 0.000003 0.000002 -0.000001 0.051262 0.000002 -0.015741
# 5 0.004938 -0.001226 -0.000017 0.000002 0.026053 0.000000
# 6 -0.000001 0.000001 0.000000 -0.015741 0.000000 0.077104
#
#
# Mechanical properties :
#
#
# Convention : Reuss Voigt Hill
#
# Bulk Modulus (GPa) = 40.06467 59.46653 49.76560
# Shear Modulus (GPa) = 21.95198 30.19128 26.07163
#
# Velocity S-wave (km/s) = 3.37401 3.95686 3.67700
# Velocity P-wave (km/s) = 5.99629 7.19124 6.62078
#
# Compressibility (1/GPa) = 0.02495965
#
# Stress axis : x y z
#
# Youngs Moduli (GPa) = 73.77850 41.05662 141.14432
#
# Poissons Ratio (x) = 0.10789 0.33787
# Poissons Ratio (y) = 0.19387 0.70522
# Poissons Ratio (z) = 0.17661 0.20514
#
# Static dielectric constant tensor:
#      x y z
#    x 1.686860 0.000000 -0.028390 
#    y 0.000000 1.635210 0.000000 
#    z -0.028390 0.000000 1.753190 
# 
# From -- ./inp_files/156693.got.cif
#   From: 2010.05.17/outbox.cif.g08.bks.cpg/sg15_79_cif.got.tgz:156693.got - 2010.06.03 18:47:42.
