data_PCOD9261671
_publ_section_title
;
Structure prediction by ZEFSAII (Michael W. Deem and Ramdas Pophale) SiO2 
 PCOD9261671
Probable space group: C 2/C
;
_chemical_formula_sum "Si O2"
_cell_formula_units_Z 64
_cell_length_a 11.742648
_cell_length_b 31.076627
_cell_length_c 9.682851
_cell_angle_alpha 90.000000
_cell_angle_beta 93.623094
_cell_angle_gamma 90.000000
_cell_volume 3526.422067
_symmetry_space_group_name_H-M "C 2/C"
_symmetry_group_IT_number 15
_symmetry_cell_setting 'monoclinic'
loop_
_space_group_symop_operation_xyz
x,y,z
-x,y,1/2-z
-x,-y,-z
x,-y,1/2+z
1/2+x,1/2+y,z
1/2-x,1/2+y,1/2-z
1/2-x,1/2-y,-z
1/2+x,1/2-y,1/2+z
loop_
_atom_site_type_symbol
_atom_site_label
_atom_site_fract_x
_atom_site_fract_y
_atom_site_fract_z
Si Si1 0.243715 0.867931 0.392273
Si Si2 0.642668 0.464387 0.099264
Si Si3 0.254222 0.876292 0.056539
Si Si4 0.868901 0.955665 0.083578
Si Si5 0.687106 0.274455 0.330053
Si Si6 0.434386 0.238307 0.928897
Si Si7 0.650582 0.714579 0.514475
Si Si8 0.503324 0.859409 0.089943
O O1 0.250403 0.870096 0.224327
O O2 0.169259 0.906747 0.443546
O O3 0.194781 0.820220 0.411241
O O4 0.372986 0.872359 0.456565
O O5 0.696402 0.422372 0.031811
O O6 0.505823 0.458445 0.086944
O O7 0.672201 0.465972 0.263790
O O8 0.674842 0.508225 0.024579
O O9 0.193082 0.833947 0.991346
O O10 0.385583 0.875777 0.018526
O O11 0.619152 0.242120 0.421865
O O12 0.820302 0.260179 0.326306
O O13 0.630439 0.281685 0.178287
O O14 0.534394 0.273133 0.927526
O O15 0.494054 0.192411 0.912742
O O16 0.750000 0.750000 0.500000
O O17 0.500000 0.873112 0.250000
#
# Coordination Sequence:
#
# PCOD9261671 Si02
#       8
#     8   8   8   8   8   8   8   8
#     4   8  16  29  51  70  92 122 166 207 238 283
#     4   9  18  31  54  72 102 122 160 201 251 300
#     4   9  17  30  46  75  94 123 164 208 240 283
#     4   9  17  32  52  77  94 128 155 200 253 302
#     4   9  20  33  47  72 100 131 174 211 242 294
#     4  10  19  31  49  68 100 134 163 213 250 284
#     4  11  20  30  51  73  99 135 172 207 248 292
#     4   9  16  30  50  70  96 126 167 207 240 287
#
# _framework density 18.148707000000002
#
# number of rings (size 3 to 8) (size 9 to 14) (size 15 to 20)
#    0.000    2.750    1.250    1.125    1.750    0.000 
#    0.000    0.625    8.250    1.500    0.000    0.000 
#    0.000    0.000    0.000    0.000    0.000    0.000 
#
# Total GULP energy -178218.504688 kJ/mol
# GULP energy per Si atom -5569.328271 kJ/mol
# Density = 1.810740 g / cm^3
# Si number density = 18.148707 Si / 1000 Ang^3
#
#
#
# Elastic Constant Matrix: (Units=GPa)
#
#
# Indices 1 2 3 4 5 6 
#
# 1 52.2215 29.2038 9.5577 0.0000 4.6134 0.0000
# 2 29.2038 79.6329 18.1372 0.0000 0.3396 0.0000
# 3 9.5577 18.1372 23.3222 0.0000 -0.8528 0.0000
# 4 0.0000 0.0000 0.0000 25.9782 0.0000 -6.1234
# 5 4.6134 0.3396 -0.8528 0.0000 19.0615 0.0000
# 6 0.0000 0.0000 0.0000 -6.1234 0.0000 33.5013
#
#
#
# Elastic Compliance Matrix: (Units=1/GPa)
#
#
# Indices 1 2 3 4 5 6 
#
# 1 0.025035 -0.008224 -0.004087 0.000000 -0.006095 0.000000
# 2 -0.008224 0.017975 -0.010564 0.000000 0.001198 0.000000
# 3 -0.004087 -0.010564 0.052898 0.000000 0.003544 0.000000
# 4 0.000000 0.000000 0.000000 0.040227 0.000000 0.007353
# 5 -0.006095 0.001198 0.003544 0.000000 0.054074 0.000000
# 6 0.000000 0.000000 0.000000 0.007353 0.000000 0.031193
#
#
# Mechanical properties :
#
#
# Convention : Reuss Voigt Hill
#
# Bulk Modulus (GPa) = 19.93753 29.88600 24.91176
# Shear Modulus (GPa) = 17.61360 22.26006 19.93683
#
# Velocity S-wave (km/s) = 3.11869 3.50599 3.31800
# Velocity P-wave (km/s) = 4.89671 5.73519 5.33246
#
# Compressibility (1/GPa) = 0.05015667
#
# Stress axis : x y z
#
# Youngs Moduli (GPa) = 39.94418 55.63352 18.90445
#
# Poissons Ratio (x) = 0.45755 0.07726
# Poissons Ratio (y) = 0.32851 0.19971
# Poissons Ratio (z) = 0.16324 0.58773
#
# Static dielectric constant tensor:
#      x y z
#    x 1.655140 0.000000 0.008790 
#    y 0.000000 1.608520 0.000000 
#    z 0.008790 0.000000 1.642430 
# 
# From -- ./inp_files/91808.got.cif
#   From: 2010.05.17/outbox.cif.g08.bks.cpg/sg15_46_cif.got.tgz:91808.got - 2010.06.03 18:47:42.
