data_PCOD9261492
_publ_section_title
;
Structure prediction by ZEFSAII (Michael W. Deem and Ramdas Pophale) SiO2 
 PCOD9261492
Probable space group: C 2/C
;
_chemical_formula_sum "Si O2"
_cell_formula_units_Z 52
_cell_length_a 24.222162
_cell_length_b 7.418336
_cell_length_c 17.127585
_cell_angle_alpha 90.000000
_cell_angle_beta 44.998815
_cell_angle_gamma 90.000000
_cell_volume 2176.163670
_symmetry_space_group_name_H-M "C 2/C"
_symmetry_group_IT_number 15
_symmetry_cell_setting 'monoclinic'
loop_
_space_group_symop_operation_xyz
x,y,z
-x,y,1/2-z
-x,-y,-z
x,-y,1/2+z
1/2+x,1/2+y,z
1/2-x,1/2+y,1/2-z
1/2-x,1/2-y,-z
1/2+x,1/2-y,1/2+z
loop_
_atom_site_type_symbol
_atom_site_label
_atom_site_fract_x
_atom_site_fract_y
_atom_site_fract_z
Si Si1 0.247707 0.027134 0.353445
Si Si2 0.619158 0.214236 0.515126
Si Si3 0.351164 0.777147 0.151124
Si Si4 0.978270 0.213022 0.535254
Si Si5 0.384258 0.464185 0.246557
Si Si6 0.000000 0.875165 0.750000
Si Si7 0.263545 0.036982 0.008178
O O1 0.178443 0.876053 0.431666
O O2 0.311717 0.946632 0.231315
O O3 0.280427 0.051043 0.407901
O O4 0.206948 0.196617 0.354771
O O5 0.558651 0.204477 0.505317
O O6 0.569155 0.263409 0.641590
O O7 0.670809 0.045738 0.490742
O O8 0.360127 0.626092 0.211435
O O9 0.438342 0.801056 0.031223
O O10 0.911500 0.204279 0.667629
O O11 0.000000 0.000000 0.500000
O O12 0.460734 0.513134 0.220107
O O13 0.313926 0.454469 0.377383
O O14 0.250000 0.250000 0.000000
#
# Coordination Sequence:
#
# PCOD9261492 Si02
#       7
#     8   8   8   8   8   4   8
#     4  11  20  35  54  84 121 155 198 250 302 363
#     4  11  18  28  49  80 113 141 187 260 297 330
#     4  11  20  35  54  84 121 155 198 250 302 363
#     4  10  19  30  48  83 113 143 192 253 302 341
#     4  11  18  28  49  80 113 141 187 260 297 330
#     4  12  16  24  44  80 108 138 188 244 304 314
#     4  10  19  30  48  83 113 143 192 253 302 341
#
# _framework density 23.895261000000001
#
# number of rings (size 3 to 8) (size 9 to 14) (size 15 to 20)
#    0.000    1.231   12.308    0.000    0.000    0.000 
#    0.000    0.000    0.000    1.846    0.000    0.000 
#    0.000    0.000    0.000    0.000    0.000    0.000 
#
# Total GULP energy -145490.742682 kJ/mol
# GULP energy per Si atom -5595.797795 kJ/mol
# Density = 2.384087 g / cm^3
# Si number density = 23.895261 Si / 1000 Ang^3
#
#
#
# Elastic Constant Matrix: (Units=GPa)
#
#
# Indices 1 2 3 4 5 6 
#
# 1 133.2016 49.1578 42.1475 -0.0027 3.6867 0.0079
# 2 49.1578 86.1328 49.0871 -0.0104 0.0033 -0.0013
# 3 42.1475 49.0871 133.0717 -0.0061 -3.6918 0.0008
# 4 -0.0027 -0.0104 -0.0061 16.1150 0.0041 -0.0087
# 5 3.6867 0.0033 -3.6918 0.0041 42.2786 -0.0020
# 6 0.0079 -0.0013 0.0008 -0.0087 -0.0020 16.1355
#
#
#
# Elastic Compliance Matrix: (Units=1/GPa)
#
#
# Indices 1 2 3 4 5 6 
#
# 1 0.009725 -0.004785 -0.001342 -0.000002 -0.000965 -0.000005
# 2 -0.004785 0.017065 -0.004779 0.000008 -0.000001 0.000004
# 3 -0.001342 -0.004779 0.009729 0.000000 0.000967 0.000000
# 4 -0.000002 0.000008 0.000000 0.062054 -0.000006 0.000033
# 5 -0.000965 -0.000001 0.000967 -0.000006 0.023821 0.000003
# 6 -0.000005 0.000004 0.000000 0.000033 0.000003 0.061975
#
#
# Mechanical properties :
#
#
# Convention : Reuss Voigt Hill
#
# Bulk Modulus (GPa) = 67.99737 70.35454 69.17596
# Shear Modulus (GPa) = 23.68728 29.04007 26.36367
#
# Velocity S-wave (km/s) = 3.15190 3.48991 3.32520
# Velocity P-wave (km/s) = 6.46252 6.76358 6.61477
#
# Compressibility (1/GPa) = 0.01470645
#
# Stress axis : x y z
#
# Youngs Moduli (GPa) = 102.83095 58.60014 102.78112
#
# Poissons Ratio (x) = 0.28043 0.13789
# Poissons Ratio (y) = 0.49210 0.49121
# Poissons Ratio (z) = 0.13796 0.28006
#
# Static dielectric constant tensor:
#      x y z
#    x 1.906650 0.000000 -0.000020 
#    y 0.000000 1.911090 0.000000 
#    z -0.000020 0.000000 1.906660 
# 
# From -- ./inp_files/221859.got.cif
#   From: 2010.05.17/outbox.cif.g08.bks.cpg/sg15_111_cif.got.tgz:221859.got - 2010.06.03 18:47:42.
