data_PCOD9261028
_publ_section_title
;
Structure prediction by ZEFSAII (Michael W. Deem and Ramdas Pophale) SiO2 
 PCOD9261028
Probable space group: C 2/C
;
_chemical_formula_sum "Si O2"
_cell_formula_units_Z 48
_cell_length_a 14.868368
_cell_length_b 33.137573
_cell_length_c 8.151208
_cell_angle_alpha 90.000000
_cell_angle_beta 141.149142
_cell_angle_gamma 90.000000
_cell_volume 2519.289246
_symmetry_space_group_name_H-M "C 2/C"
_symmetry_group_IT_number 15
_symmetry_cell_setting 'monoclinic'
loop_
_space_group_symop_operation_xyz
x,y,z
-x,y,1/2-z
-x,-y,-z
x,-y,1/2+z
1/2+x,1/2+y,z
1/2-x,1/2+y,1/2-z
1/2-x,1/2-y,-z
1/2+x,1/2-y,1/2+z
loop_
_atom_site_type_symbol
_atom_site_label
_atom_site_fract_x
_atom_site_fract_y
_atom_site_fract_z
Si Si1 0.956081 0.372387 0.368818
Si Si2 0.098249 0.797607 0.240880
Si Si3 0.075790 0.706425 0.185694
Si Si4 0.139741 0.131655 0.552715
Si Si5 0.185458 0.950982 0.262559
Si Si6 0.500000 0.928661 0.750000
Si Si7 0.000000 0.002302 0.250000
O O1 0.784530 0.368263 0.150365
O O2 0.000000 0.387635 0.250000
O O3 0.025584 0.328031 0.490865
O O4 0.005636 0.400673 0.592941
O O5 0.041571 0.753446 0.104947
O O6 0.255282 0.794450 0.543379
O O7 0.112797 0.826714 0.107698
O O8 0.000000 0.812923 0.250000
O O9 0.000000 0.695858 0.250000
O O10 0.161287 0.096894 0.718658
O O11 0.000000 0.121917 0.250000
O O12 0.355319 0.954944 0.530430
O O13 0.088055 0.973311 0.255529
O O14 0.121452 0.969811 0.005115
#
# Coordination Sequence:
#
# PCOD9261028 Si02
#       7
#     8   8   8   8   8   4   4
#     4  11  23  40  65  90 125 172 214 261 319 364
#     4  10  22  34  61  87 115 167 209 259 324 365
#     4  10  18  40  57  81 124 163 211 265 312 368
#     4  11  23  40  57  90 127 154 211 265 303 376
#     4  10  22  42  66  92 129 162 204 256 311 382
#     4  10  22  44  66  97 130 164 212 263 304 372
#     4  10  22  42  66  95 126 166 198 247 326 380
#
# _framework density 19.052993000000001
#
# number of rings (size 3 to 8) (size 9 to 14) (size 15 to 20)
#    0.000    1.667    3.333    1.000    3.500    2.667 
#    3.000    1.667    0.000    0.000    0.000    0.000 
#    0.000    0.000    0.000    0.000    0.000    0.000 
#
# Total GULP energy -133834.504713 kJ/mol
# GULP energy per Si atom -5576.437696 kJ/mol
# Density = 1.900963 g / cm^3
# Si number density = 19.052993 Si / 1000 Ang^3
#
#
#
# Elastic Constant Matrix: (Units=GPa)
#
#
# Indices 1 2 3 4 5 6 
#
# 1 107.8950 19.6452 40.3900 0.0000 2.9281 0.0000
# 2 19.6452 45.7949 15.0120 0.0000 0.6719 0.0000
# 3 40.3900 15.0120 110.3812 0.0000 23.0937 0.0000
# 4 0.0000 0.0000 0.0000 20.7429 0.0000 13.1111
# 5 2.9281 0.6719 23.0937 0.0000 32.5944 0.0000
# 6 0.0000 0.0000 0.0000 13.1111 0.0000 13.7760
#
#
#
# Elastic Compliance Matrix: (Units=1/GPa)
#
#
# Indices 1 2 3 4 5 6 
#
# 1 0.011399 -0.003577 -0.004092 0.000000 0.001949 0.000000
# 2 -0.003577 0.024093 -0.002267 0.000000 0.001431 0.000000
# 3 -0.004092 -0.002267 0.012654 0.000000 -0.008551 0.000000
# 4 0.000000 0.000000 0.000000 0.120998 0.000000 -0.115158
# 5 0.001949 0.001431 -0.008551 0.000000 0.036534 0.000000
# 6 0.000000 0.000000 0.000000 -0.115158 0.000000 0.182190
#
#
# Mechanical properties :
#
#
# Convention : Reuss Voigt Hill
#
# Bulk Modulus (GPa) = 35.36905 46.01840 40.69372
# Shear Modulus (GPa) = 11.98564 26.02425 19.00495
#
# Velocity S-wave (km/s) = 2.51085 3.69980 3.16171
# Velocity P-wave (km/s) = 5.19708 6.51588 5.89348
#
# Compressibility (1/GPa) = 0.02827331
#
# Stress axis : x y z
#
# Youngs Moduli (GPa) = 87.73050 41.50555 79.02399
#
# Poissons Ratio (x) = 0.14846 0.32338
# Poissons Ratio (y) = 0.31380 0.17917
# Poissons Ratio (z) = 0.35901 0.09410
#
# Static dielectric constant tensor:
#      x y z
#    x 1.644390 0.000000 -0.022380 
#    y 0.000000 1.675400 0.000000 
#    z -0.022380 0.000000 1.673770 
# 
# From -- ./inp_files/44682.got.cif
#   From: 2010.05.17/outbox.cif.g08.bks.cpg/sg15_23_cif.got.tgz:44682.got - 2010.06.03 18:47:42.
