data_PCOD9261425
_publ_section_title
;
Structure prediction by ZEFSAII (Michael W. Deem and Ramdas Pophale) SiO2 
 PCOD9261425
Probable space group: C 2/C
;
_chemical_formula_sum "Si O2"
_cell_formula_units_Z 64
_cell_length_a 26.852777
_cell_length_b 14.133876
_cell_length_c 9.187753
_cell_angle_alpha 90.000000
_cell_angle_beta 86.083462
_cell_angle_gamma 90.000000
_cell_volume 3478.919328
_symmetry_space_group_name_H-M "C 2/C"
_symmetry_group_IT_number 15
_symmetry_cell_setting 'monoclinic'
loop_
_space_group_symop_operation_xyz
x,y,z
-x,y,1/2-z
-x,-y,-z
x,-y,1/2+z
1/2+x,1/2+y,z
1/2-x,1/2+y,1/2-z
1/2-x,1/2-y,-z
1/2+x,1/2-y,1/2+z
loop_
_atom_site_type_symbol
_atom_site_label
_atom_site_fract_x
_atom_site_fract_y
_atom_site_fract_z
Si Si1 0.622524 0.321412 0.719894
Si Si2 0.739520 0.821667 0.660459
Si Si3 0.900473 0.831554 0.276505
Si Si4 0.063401 0.069476 0.464457
Si Si5 0.706250 0.384231 0.277424
Si Si6 0.219616 0.069701 0.095621
Si Si7 0.336761 0.233179 0.533046
Si Si8 0.958759 0.150425 0.505858
O O1 0.670970 0.364221 0.632230
O O2 0.577232 0.314722 0.615380
O O3 0.605474 0.397058 0.845527
O O4 0.636916 0.228959 0.814480
O O5 0.729512 0.715738 0.724863
O O6 0.739968 0.888446 0.799867
O O7 0.698178 0.841984 0.544816
O O8 0.794368 0.813596 0.576981
O O9 0.920780 0.916057 0.372106
O O10 0.852706 0.863632 0.193177
O O11 0.877527 0.762157 0.404021
O O12 0.942872 0.796771 0.157498
O O13 0.016490 0.140536 0.450986
O O14 0.051893 0.959687 0.451015
O O15 0.709852 0.464604 0.154367
O O16 0.729725 0.421872 0.422758
#
# Coordination Sequence:
#
# PCOD9261425 Si02
#       8
#     8   8   8   8   8   8   8   8
#     4  10  19  30  43  62  85 118 165 201 238 280
#     4   9  19  36  50  65  95 118 160 205 253 304
#     4  10  19  30  43  62  85 118 165 201 238 280
#     4  10  20  28  38  56  88 126 155 201 247 270
#     4  11  22  32  51  71  92 124 165 211 248 290
#     4  11  22  32  51  71  92 124 165 211 248 290
#     4   8  18  32  50  60  82 118 147 199 254 288
#     4  11  18  28  40  59  86 118 162 206 237 278
#
# _framework density 18.396516999999999
#
# number of rings (size 3 to 8) (size 9 to 14) (size 15 to 20)
#    0.000    2.000    1.250    3.375   10.500    2.000 
#    0.000    0.000    0.000    0.000    0.000    0.000 
#    0.000    0.000    0.000    0.000    0.000  382.500 
#
# Total GULP energy -178200.739322 kJ/mol
# GULP energy per Si atom -5568.773104 kJ/mol
# Density = 1.835465 g / cm^3
# Si number density = 18.396517 Si / 1000 Ang^3
#
#
#
# Elastic Constant Matrix: (Units=GPa)
#
#
# Indices 1 2 3 4 5 6 
#
# 1 65.5569 10.0359 20.8356 0.0000 6.9260 0.0000
# 2 10.0359 20.0656 7.2658 0.0000 3.3995 0.0000
# 3 20.8356 7.2658 102.9474 0.0000 13.6398 0.0000
# 4 0.0000 0.0000 0.0000 21.4910 0.0000 6.0736
# 5 6.9260 3.3995 13.6398 0.0000 25.7461 0.0000
# 6 0.0000 0.0000 0.0000 6.0736 0.0000 17.6292
#
#
#
# Elastic Compliance Matrix: (Units=1/GPa)
#
#
# Indices 1 2 3 4 5 6 
#
# 1 0.017488 -0.007375 -0.002715 0.000000 -0.002292 0.000000
# 2 -0.007375 0.054911 -0.001812 0.000000 -0.004306 0.000000
# 3 -0.002715 -0.001812 0.011037 0.000000 -0.004878 0.000000
# 4 0.000000 0.000000 0.000000 0.051550 0.000000 -0.017760
# 5 -0.002292 -0.004306 -0.004878 0.000000 0.042610 0.000000
# 6 0.000000 0.000000 0.000000 -0.017760 0.000000 0.062843
#
#
# Mechanical properties :
#
#
# Convention : Reuss Voigt Hill
#
# Bulk Modulus (GPa) = 16.76977 29.42717 23.09847
# Shear Modulus (GPa) = 17.59807 23.00211 20.30009
#
# Velocity S-wave (km/s) = 3.09625 3.53987 3.32546
# Velocity P-wave (km/s) = 4.68165 5.72174 5.22763
#
# Compressibility (1/GPa) = 0.05963110
#
# Stress axis : x y z
#
# Youngs Moduli (GPa) = 57.18172 18.21129 90.60106
#
# Poissons Ratio (x) = 0.13431 0.24600
# Poissons Ratio (y) = 0.42173 0.16419
# Poissons Ratio (z) = 0.15526 0.03300
#
# Static dielectric constant tensor:
#      x y z
#    x 1.714220 0.000000 0.023900 
#    y 0.000000 1.633440 0.000000 
#    z 0.023900 0.000000 1.708620 
# 
# From -- ./inp_files/66220.got.cif
#   From: 2010.05.17/outbox.cif.g08.bks.cpg/sg15_34_cif.got.tgz:66220.got - 2010.06.03 18:47:42.
