data_PCOD9261903
_publ_section_title
;
Structure prediction by ZEFSAII (Michael W. Deem and Ramdas Pophale) SiO2 
 PCOD9261903
Probable space group: C 2/C
;
_chemical_formula_sum "Si O2"
_cell_formula_units_Z 64
_cell_length_a 23.597243
_cell_length_b 17.826485
_cell_length_c 13.214792
_cell_angle_alpha 90.000000
_cell_angle_beta 130.510841
_cell_angle_gamma 90.000000
_cell_volume 4226.322500
_symmetry_space_group_name_H-M "C 2/C"
_symmetry_group_IT_number 15
_symmetry_cell_setting 'monoclinic'
loop_
_space_group_symop_operation_xyz
x,y,z
-x,y,1/2-z
-x,-y,-z
x,-y,1/2+z
1/2+x,1/2+y,z
1/2-x,1/2+y,1/2-z
1/2-x,1/2-y,-z
1/2+x,1/2-y,1/2+z
loop_
_atom_site_type_symbol
_atom_site_label
_atom_site_fract_x
_atom_site_fract_y
_atom_site_fract_z
Si Si1 0.784334 0.366442 0.235699
Si Si2 0.403277 0.899094 0.907648
Si Si3 0.936438 0.362588 0.312041
Si Si4 0.078441 0.473493 0.788748
Si Si5 0.081599 0.793938 0.829064
Si Si6 0.800891 0.488251 0.416652
Si Si7 0.274672 0.378726 0.562549
Si Si8 0.313792 0.770681 0.887580
O O1 0.873268 0.360644 0.325022
O O2 0.767844 0.430473 0.297822
O O3 0.745881 0.288593 0.221415
O O4 0.753935 0.383123 0.086644
O O5 0.417264 0.934949 0.815157
O O6 0.348779 0.827526 0.848045
O O7 0.360931 0.960701 0.926155
O O8 0.481541 0.876037 0.048730
O O9 0.918742 0.435946 0.223571
O O10 0.929527 0.285190 0.242584
O O11 0.000000 0.455633 0.750000
O O12 0.149010 0.450627 0.938127
O O13 0.141350 0.847206 0.843104
O O14 0.000000 0.827638 0.750000
O O15 0.119408 0.773466 0.979880
O O16 0.741005 0.543172 0.399330
O O17 0.225650 0.317924 0.567748
#
# Coordination Sequence:
#
# PCOD9261903 Si02
#       8
#     8   8   8   8   8   8   8   8
#     4  11  19  32  51  72  99 131 161 200 248 282
#     4  11  21  31  48  72 102 132 164 196 236 291
#     4  12  17  30  46  77 105 127 155 188 243 300
#     4  12  21  31  44  74 108 138 159 185 234 302
#     4  11  18  29  50  74  99 126 153 201 253 285
#     4  11  20  32  49  70 100 135 162 198 239 287
#     4  10  19  32  49  73 100 123 164 204 240 287
#     4  10  19  32  49  72  99 128 162 204 239 283
#
# _framework density 15.143188
#
# number of rings (size 3 to 8) (size 9 to 14) (size 15 to 20)
#    0.000    1.000    7.500    3.000    0.000    0.000 
#    0.000    0.625    0.000    3.000    0.000    0.000 
#    0.000    0.000    0.000    0.000    0.000    0.000 
#
# Total GULP energy -178547.649259 kJ/mol
# GULP energy per Si atom -5579.614039 kJ/mol
# Density = 1.510872 g / cm^3
# Si number density = 15.143188 Si / 1000 Ang^3
#
#
#
# Elastic Constant Matrix: (Units=GPa)
#
#
# Indices 1 2 3 4 5 6 
#
# 1 83.3676 30.3711 34.6517 0.0000 3.9100 0.0000
# 2 30.3711 66.4294 42.0539 0.0000 -2.2475 0.0000
# 3 34.6517 42.0539 54.8555 0.0000 1.6493 0.0000
# 4 0.0000 0.0000 0.0000 12.7629 0.0000 -1.0169
# 5 3.9100 -2.2475 1.6493 0.0000 20.2715 0.0000
# 6 0.0000 0.0000 0.0000 -1.0169 0.0000 20.8904
#
#
#
# Elastic Compliance Matrix: (Units=1/GPa)
#
#
# Indices 1 2 3 4 5 6 
#
# 1 0.016523 -0.002118 -0.008733 0.000000 -0.002711 0.000000
# 2 -0.002118 0.030051 -0.021866 0.000000 0.005519 0.000000
# 3 -0.008733 -0.021866 0.040631 0.000000 -0.004046 0.000000
# 4 0.000000 0.000000 0.000000 0.078657 0.000000 0.003829
# 5 -0.002711 0.005519 -0.004046 0.000000 0.050794 0.000000
# 6 0.000000 0.000000 0.000000 0.003829 0.000000 0.048055
#
#
# Mechanical properties :
#
#
# Convention : Reuss Voigt Hill
#
# Bulk Modulus (GPa) = 45.93009 46.53399 46.23204
# Shear Modulus (GPa) = 14.81902 17.29000 16.05451
#
# Velocity S-wave (km/s) = 3.13164 3.38267 3.25957
# Velocity P-wave (km/s) = 6.59338 6.78621 6.69049
#
# Compressibility (1/GPa) = 0.02177222
#
# Stress axis : x y z
#
# Youngs Moduli (GPa) = 60.51998 33.27632 24.61172
#
# Poissons Ratio (x) = 0.07048 0.21492
# Poissons Ratio (y) = 0.12818 0.53817
# Poissons Ratio (z) = 0.52849 0.72763
#
# Static dielectric constant tensor:
#      x y z
#    x 1.517860 0.000000 0.006240 
#    y 0.000000 1.509740 0.000000 
#    z 0.006240 0.000000 1.504960 
# 
# From -- ./inp_files/107308.got.cif
#   From: 2010.05.17/outbox.cif.g08.bks.cpg/sg15_54_cif.got.tgz:107308.got - 2010.06.03 18:47:42.
