data_PCOD9261316
_publ_section_title
;
Structure prediction by ZEFSAII (Michael W. Deem and Ramdas Pophale) SiO2 
 PCOD9261316
Probable space group: C 2/C
;
_chemical_formula_sum "Si O2"
_cell_formula_units_Z 56
_cell_length_a 22.177019
_cell_length_b 37.210259
_cell_length_c 5.047989
_cell_angle_alpha 90.000000
_cell_angle_beta 113.617987
_cell_angle_gamma 90.000000
_cell_volume 3816.735707
_symmetry_space_group_name_H-M "C 2/C"
_symmetry_group_IT_number 15
_symmetry_cell_setting 'monoclinic'
loop_
_space_group_symop_operation_xyz
x,y,z
-x,y,1/2-z
-x,-y,-z
x,-y,1/2+z
1/2+x,1/2+y,z
1/2-x,1/2+y,1/2-z
1/2-x,1/2-y,-z
1/2+x,1/2-y,1/2+z
loop_
_atom_site_type_symbol
_atom_site_label
_atom_site_fract_x
_atom_site_fract_y
_atom_site_fract_z
Si Si1 0.579524 0.020706 0.414006
Si Si2 0.954828 0.785928 0.409466
Si Si3 0.420897 0.896628 0.556937
Si Si4 0.365481 0.143272 0.446631
Si Si5 0.235305 0.298366 0.742176
Si Si6 0.042219 0.705203 0.087878
Si Si7 0.684682 0.280659 0.111694
O O1 0.500000 0.018678 0.250000
O O2 0.593309 0.061401 0.522501
O O3 0.603588 0.991930 0.670548
O O4 0.882867 0.796843 0.390294
O O5 0.000000 0.801731 0.250000
O O6 0.938748 0.744980 0.286873
O O7 0.000000 0.786210 0.750000
O O8 0.500000 0.893577 0.750000
O O9 0.379026 0.885836 0.742581
O O10 0.398073 0.871941 0.271417
O O11 0.295298 0.162340 0.365355
O O12 0.402445 0.177765 0.390944
O O13 0.296323 0.292965 0.648962
O O14 0.188391 0.263256 0.606393
O O15 0.258670 0.293308 0.085030
O O16 0.000000 0.688944 0.250000
O O17 0.000000 0.709637 0.750000
#
# Coordination Sequence:
#
# PCOD9261316 Si02
#       7
#     8   8   8   8   8   8   8
#     4   9  17  31  47  62  80 108 142 172 210 257
#     4  10  19  30  46  63  78  97 130 178 224 256
#     4  11  22  31  46  65  89 112 137 180 224 268
#     4  12  20  32  42  63  85 110 141 169 222 264
#     4  10  21  31  48  57  81 113 139 173 203 263
#     4  10  19  28  39  55  79 105 125 161 213 268
#     4  10  19  35  45  61  77 106 147 171 211 261
#
# _framework density 14.672224
#
# number of rings (size 3 to 8) (size 9 to 14) (size 15 to 20)
#    0.000    1.714    1.429    5.143    0.000    2.286 
#    0.000    0.000    0.000    0.000    0.000    0.000 
#    0.000    0.000    0.000    0.000    0.000    0.000 
#
# Total GULP energy -155874.422942 kJ/mol
# GULP energy per Si atom -5566.943677 kJ/mol
# Density = 1.463883 g / cm^3
# Si number density = 14.672224 Si / 1000 Ang^3
#
#
#
# Elastic Constant Matrix: (Units=GPa)
#
#
# Indices 1 2 3 4 5 6 
#
# 1 58.5580 7.3798 10.3290 0.0000 -10.9611 0.0000
# 2 7.3798 49.9606 14.3088 0.0000 2.2255 0.0000
# 3 10.3290 14.3088 55.8800 0.0000 -16.4893 0.0000
# 4 0.0000 0.0000 0.0000 7.4451 0.0000 0.6247
# 5 -10.9611 2.2255 -16.4893 0.0000 21.2543 0.0000
# 6 0.0000 0.0000 0.0000 0.6247 0.0000 12.0292
#
#
#
# Elastic Compliance Matrix: (Units=1/GPa)
#
#
# Indices 1 2 3 4 5 6 
#
# 1 0.019448 -0.003488 0.000474 0.000000 0.010762 0.000000
# 2 -0.003488 0.023478 -0.008590 0.000000 -0.010921 0.000000
# 3 0.000474 -0.008590 0.026385 0.000000 0.021614 0.000000
# 4 0.000000 0.000000 0.000000 0.134904 0.000000 -0.007006
# 5 0.010762 -0.010921 0.021614 0.000000 0.070511 0.000000
# 6 0.000000 0.000000 0.000000 -0.007006 0.000000 0.083495
#
#
# Mechanical properties :
#
#
# Convention : Reuss Voigt Hill
#
# Bulk Modulus (GPa) = 21.69021 25.38153 23.53587
# Shear Modulus (GPa) = 12.60097 16.97112 14.78605
#
# Velocity S-wave (km/s) = 2.93376 3.40470 3.17796
# Velocity P-wave (km/s) = 5.12750 5.72648 5.43524
#
# Compressibility (1/GPa) = 0.04610375
#
# Stress axis : x y z
#
# Youngs Moduli (GPa) = 51.42035 42.59394 37.90002
#
# Poissons Ratio (x) = 0.14856 -0.01797
# Poissons Ratio (y) = 0.17935 0.32555
# Poissons Ratio (z) = -0.02438 0.36587
#
# Static dielectric constant tensor:
#      x y z
#    x 1.580310 0.000000 0.004330 
#    y 0.000000 1.489850 0.000000 
#    z 0.004330 0.000000 1.497080 
# 
# From -- ./inp_files/14579.got.cif
#   From: 2010.05.17/outbox.cif.g08.bks.cpg/sg15_8_cif.got.tgz:14579.got - 2010.06.03 18:47:42.
