data_PCOD9261016
_publ_section_title
;
Structure prediction by ZEFSAII (Michael W. Deem and Ramdas Pophale) SiO2 
 PCOD9261016
Probable space group: C 2/C
;
_chemical_formula_sum "Si O2"
_cell_formula_units_Z 40
_cell_length_a 9.024261
_cell_length_b 25.175677
_cell_length_c 8.131669
_cell_angle_alpha 90.000000
_cell_angle_beta 92.898133
_cell_angle_gamma 90.000000
_cell_volume 1845.086291
_symmetry_space_group_name_H-M "C 2/C"
_symmetry_group_IT_number 15
_symmetry_cell_setting 'monoclinic'
loop_
_space_group_symop_operation_xyz
x,y,z
-x,y,1/2-z
-x,-y,-z
x,-y,1/2+z
1/2+x,1/2+y,z
1/2-x,1/2+y,1/2-z
1/2-x,1/2-y,-z
1/2+x,1/2-y,1/2+z
loop_
_atom_site_type_symbol
_atom_site_label
_atom_site_fract_x
_atom_site_fract_y
_atom_site_fract_z
Si Si1 0.000000 0.129235 0.750000
Si Si2 0.284709 0.710214 0.853883
Si Si3 0.446362 0.866094 0.048781
Si Si4 0.329942 0.950390 0.806488
Si Si5 0.260610 0.934082 0.439184
Si Si6 0.000000 0.711314 0.250000
O O1 0.081935 0.167852 0.623821
O O2 0.124369 0.094572 0.844801
O O3 0.141835 0.672543 0.831006
O O4 0.354394 0.751205 0.727124
O O5 0.250000 0.750000 0.000000
O O6 0.585775 0.903746 0.096886
O O7 0.332594 0.906412 0.949995
O O8 0.496672 0.826195 0.907354
O O9 0.500000 0.956536 0.750000
O O10 0.244833 0.933895 0.636129
O O11 0.276576 0.005862 0.876915
#
# Coordination Sequence:
#
# PCOD9261016 Si02
#       6
#     4   8   8   8   8   4
#     4  11  26  42  60  92 138 164 206 261 318 374
#     4   9  21  40  66  91 127 164 209 264 311 376
#     4  10  18  39  70  91 124 165 210 261 313 372
#     4  10  21  39  66  95 124 162 216 259 307 384
#     4  11  24  40  64  94 130 167 209 258 316 378
#     4   9  16  38  66  96 130 152 212 273 310 366
#
# _framework density 21.679203999999999
#
# number of rings (size 3 to 8) (size 9 to 14) (size 15 to 20)
#    0.000    2.000    3.000    2.400    5.600    0.800 
#    0.000   11.000    0.000    0.000    0.000    0.000 
#    0.000    0.000    0.000    0.000    0.000    0.000 
#
# Total GULP energy -111529.213431 kJ/mol
# GULP energy per Si atom -5576.460672 kJ/mol
# Density = 2.162986 g / cm^3
# Si number density = 21.679204 Si / 1000 Ang^3
#
#
#
# Elastic Constant Matrix: (Units=GPa)
#
#
# Indices 1 2 3 4 5 6 
#
# 1 102.8532 70.5895 37.8378 0.0000 5.9607 0.0000
# 2 70.5895 177.2558 47.9559 0.0000 3.0490 0.0000
# 3 37.8378 47.9559 57.9434 0.0000 17.5556 0.0000
# 4 0.0000 0.0000 0.0000 128.8918 0.0000 -68.4881
# 5 5.9607 3.0490 17.5556 0.0000 29.7312 0.0000
# 6 0.0000 0.0000 0.0000 -68.4881 0.0000 65.8385
#
#
#
# Elastic Compliance Matrix: (Units=1/GPa)
#
#
# Indices 1 2 3 4 5 6 
#
# 1 0.014988 -0.004160 -0.006775 0.000000 0.001422 0.000000
# 2 -0.004160 0.008721 -0.005460 0.000000 0.003163 0.000000
# 3 -0.006775 -0.005460 0.031202 0.000000 -0.016506 0.000000
# 4 0.000000 0.000000 0.000000 0.017347 0.000000 0.018045
# 5 0.001422 0.003163 -0.016506 0.000000 0.042771 0.000000
# 6 0.000000 0.000000 0.000000 0.018045 0.000000 0.033960
#
#
# Mechanical properties :
#
#
# Convention : Reuss Voigt Hill
#
# Bulk Modulus (GPa) = 45.20598 72.31320 58.75959
# Shear Modulus (GPa) = 26.43383 57.00359 41.71871
#
# Velocity S-wave (km/s) = 3.49566 5.13334 4.39152
# Velocity P-wave (km/s) = 6.09839 8.28030 7.27165
#
# Compressibility (1/GPa) = 0.02212097
#
# Stress axis : x y z
#
# Youngs Moduli (GPa) = 66.72113 114.66674 32.04944
#
# Poissons Ratio (x) = 0.47703 0.21714
# Poissons Ratio (y) = 0.27757 0.17497
# Poissons Ratio (z) = 0.45204 0.62603
#
# Static dielectric constant tensor:
#      x y z
#    x 1.806820 0.000000 -0.008210 
#    y 0.000000 1.772840 0.000000 
#    z -0.008210 0.000000 1.879550 
# 
# From -- ./inp_files/23510.got.cif
#   From: 2010.05.17/outbox.cif.g08.bks.cpg/sg15_12_cif.got.tgz:23510.got - 2010.06.03 18:47:42.
