data_PCOD9261909
_publ_section_title
;
Structure prediction by ZEFSAII (Michael W. Deem and Ramdas Pophale) SiO2 
 PCOD9261909
Probable space group: C 2/C
;
_chemical_formula_sum "Si O2"
_cell_formula_units_Z 48
_cell_length_a 15.344857
_cell_length_b 14.200676
_cell_length_c 12.798327
_cell_angle_alpha 90.000000
_cell_angle_beta 43.989988
_cell_angle_gamma 90.000000
_cell_volume 1936.947012
_symmetry_space_group_name_H-M "C 2/C"
_symmetry_group_IT_number 15
_symmetry_cell_setting 'monoclinic'
loop_
_space_group_symop_operation_xyz
x,y,z
-x,y,1/2-z
-x,-y,-z
x,-y,1/2+z
1/2+x,1/2+y,z
1/2-x,1/2+y,1/2-z
1/2-x,1/2-y,-z
1/2+x,1/2-y,1/2+z
loop_
_atom_site_type_symbol
_atom_site_label
_atom_site_fract_x
_atom_site_fract_y
_atom_site_fract_z
Si Si1 0.044253 0.861170 0.938327
Si Si2 0.634147 0.999205 0.670204
Si Si3 0.803008 0.392251 0.672519
Si Si4 0.299865 0.325697 0.249158
Si Si5 0.872125 0.100794 0.898899
Si Si6 0.051978 0.347284 0.363235
O O1 0.155745 0.914582 0.780569
O O2 0.031374 0.763533 0.887317
O O3 0.101764 0.856828 0.008088
O O4 0.899947 0.885655 0.092247
O O5 0.500000 0.961762 0.750000
O O6 0.620092 0.110419 0.703791
O O7 0.656215 0.952325 0.763703
O O8 0.754441 0.968059 0.502853
O O9 0.803061 0.280768 0.703070
O O10 0.919684 0.399680 0.493001
O O11 0.343069 0.325123 0.332036
O O12 0.157843 0.362078 0.361785
O O13 0.000000 0.052680 0.750000
#
# Coordination Sequence:
#
# PCOD9261909 Si02
#       6
#     8   8   8   8   8   8
#     4   8  17  32  53  75  98 131 172 215 253 301
#     4  11  22  33  48  75 111 143 169 206 261 319
#     4   9  18  31  50  76 102 133 172 213 259 306
#     4   9  17  32  55  77 102 134 174 221 257 300
#     4   9  18  34  54  80 105 133 173 215 262 306
#     4  10  19  32  49  75 108 138 170 209 261 314
#
# _framework density 24.781268000000001
#
# number of rings (size 3 to 8) (size 9 to 14) (size 15 to 20)
#    0.000    2.667    0.000    1.500    0.000    9.333 
#    0.000    9.167    0.000    9.000    0.000    0.000 
#    0.000    0.000    0.000    0.000    0.000    0.000 
#
# Total GULP energy -133779.306987 kJ/mol
# GULP energy per Si atom -5574.137791 kJ/mol
# Density = 2.472486 g / cm^3
# Si number density = 24.781268 Si / 1000 Ang^3
#
#
#
# Elastic Constant Matrix: (Units=GPa)
#
#
# Indices 1 2 3 4 5 6 
#
# 1 36.8550 20.1366 13.1242 0.0000 -4.7145 0.0000
# 2 20.1366 69.6972 39.4101 0.0000 -19.1754 0.0000
# 3 13.1242 39.4101 148.9841 0.0000 -27.4435 0.0000
# 4 0.0000 0.0000 0.0000 27.2731 0.0000 1.2344
# 5 -4.7145 -19.1754 -27.4435 0.0000 30.3865 0.0000
# 6 0.0000 0.0000 0.0000 1.2344 0.0000 18.7665
#
#
#
# Elastic Compliance Matrix: (Units=1/GPa)
#
#
# Indices 1 2 3 4 5 6 
#
# 1 0.032295 -0.009378 -0.000637 0.000000 -0.001483 0.000000
# 2 -0.009378 0.021357 -0.003129 0.000000 0.009196 0.000000
# 3 -0.000637 -0.003129 0.008654 0.000000 0.005742 0.000000
# 4 0.000000 0.000000 0.000000 0.036776 0.000000 -0.002419
# 5 -0.001483 0.009196 0.005742 0.000000 0.043668 0.000000
# 6 0.000000 0.000000 0.000000 -0.002419 0.000000 0.053446
#
#
# Mechanical properties :
#
#
# Convention : Reuss Voigt Hill
#
# Bulk Modulus (GPa) = 27.76575 44.54202 36.15389
# Shear Modulus (GPa) = 21.32294 27.47624 24.39959
#
# Velocity S-wave (km/s) = 2.93652 3.33340 3.14123
# Velocity P-wave (km/s) = 4.76720 5.72962 5.27042
#
# Compressibility (1/GPa) = 0.03601559
#
# Stress axis : x y z
#
# Youngs Moduli (GPa) = 30.96496 46.82357 115.55672
#
# Poissons Ratio (x) = 0.43912 0.07365
# Poissons Ratio (y) = 0.29039 0.36162
# Poissons Ratio (z) = 0.01973 0.14653
#
# Static dielectric constant tensor:
#      x y z
#    x 2.004470 0.000000 -0.042340 
#    y 0.000000 2.003940 0.000000 
#    z -0.042340 0.000000 2.037390 
# 
# From -- ./inp_files/162142.got.cif
#   From: 2010.05.17/outbox.cif.g08.bks.cpg/sg15_82_cif.got.tgz:162142.got - 2010.06.03 18:47:42.
