data_PCOD9261655
_publ_section_title
;
Structure prediction by ZEFSAII (Michael W. Deem and Ramdas Pophale) SiO2 
 PCOD9261655
Probable space group: C 2/C
;
_chemical_formula_sum "Si O2"
_cell_formula_units_Z 64
_cell_length_a 18.230286
_cell_length_b 23.700521
_cell_length_c 11.712412
_cell_angle_alpha 90.000000
_cell_angle_beta 127.279242
_cell_angle_gamma 90.000000
_cell_volume 4026.644048
_symmetry_space_group_name_H-M "C 2/C"
_symmetry_group_IT_number 15
_symmetry_cell_setting 'monoclinic'
loop_
_space_group_symop_operation_xyz
x,y,z
-x,y,1/2-z
-x,-y,-z
x,-y,1/2+z
1/2+x,1/2+y,z
1/2-x,1/2+y,1/2-z
1/2-x,1/2-y,-z
1/2+x,1/2-y,1/2+z
loop_
_atom_site_type_symbol
_atom_site_label
_atom_site_fract_x
_atom_site_fract_y
_atom_site_fract_z
Si Si1 0.814905 0.237302 0.387259
Si Si2 0.035150 0.909229 0.970243
Si Si3 0.598682 0.759231 0.397050
Si Si4 0.595809 0.557654 0.768643
Si Si5 0.973630 0.217468 0.939621
Si Si6 0.142716 0.935754 0.849099
Si Si7 0.773479 0.175882 0.111280
Si Si8 0.678905 0.680959 0.865672
O O1 0.780638 0.205220 0.241845
O O2 0.760100 0.295342 0.360489
O O3 0.799254 0.199434 0.485262
O O4 0.925178 0.242783 0.480400
O O5 0.064064 0.945068 0.107185
O O6 0.019108 0.846204 0.003175
O O7 0.113038 0.915873 0.947464
O O8 0.943228 0.926905 0.817786
O O9 0.500000 0.772837 0.250000
O O10 0.580881 0.750128 0.513719
O O11 0.680255 0.804276 0.461511
O O12 0.639970 0.702907 0.376602
O O13 0.500000 0.560025 0.750000
O O14 0.654264 0.502924 0.859429
O O15 0.653800 0.615133 0.837235
O O16 0.912863 0.212326 0.768537
O O17 0.218185 0.891336 0.878011
#
# Coordination Sequence:
#
# PCOD9261655 Si02
#       8
#     8   8   8   8   8   8   8   8
#     4  11  20  34  53  71 107 133 177 215 256 297
#     4  10  19  31  48  73 107 134 171 200 247 312
#     4  11  20  33  51  76 106 132 171 214 269 311
#     4  11  22  32  50  73 107 145 171 201 258 315
#     4  11  18  33  53  73 103 141 166 210 256 313
#     4  11  20  32  50  75 104 138 173 203 249 310
#     4  11  22  32  54  80 102 140 171 217 263 316
#     4  10  23  35  47  78 104 142 172 213 252 315
#
# _framework density 15.894129
#
# number of rings (size 3 to 8) (size 9 to 14) (size 15 to 20)
#    0.000    1.250    6.250    2.250    0.000    0.000 
#    0.000    0.000    0.000    0.000    0.000    4.375 
#    0.000    0.000    0.000    0.000    0.000    0.000 
#
# Total GULP energy -178413.078429 kJ/mol
# GULP energy per Si atom -5575.408701 kJ/mol
# Density = 1.585795 g / cm^3
# Si number density = 15.894129 Si / 1000 Ang^3
#
#
#
# Elastic Constant Matrix: (Units=GPa)
#
#
# Indices 1 2 3 4 5 6 
#
# 1 75.7489 40.4333 25.5583 0.0000 0.5215 0.0000
# 2 40.4333 99.2239 21.4307 0.0000 6.3838 0.0000
# 3 25.5583 21.4307 63.7857 0.0000 2.5574 0.0000
# 4 0.0000 0.0000 0.0000 19.6381 0.0000 5.5993
# 5 0.5215 6.3838 2.5574 0.0000 28.5952 0.0000
# 6 0.0000 0.0000 0.0000 5.5993 0.0000 10.8369
#
#
#
# Elastic Compliance Matrix: (Units=1/GPa)
#
#
# Indices 1 2 3 4 5 6 
#
# 1 0.018423 -0.006470 -0.005271 0.000000 0.001580 0.000000
# 2 -0.006470 0.013267 -0.001757 0.000000 -0.002687 0.000000
# 3 -0.005271 -0.001757 0.018427 0.000000 -0.001160 0.000000
# 4 0.000000 0.000000 0.000000 0.059719 0.000000 -0.030856
# 5 0.001580 -0.002687 -0.001160 0.000000 0.035646 0.000000
# 6 0.000000 0.000000 0.000000 -0.030856 0.000000 0.108220
#
#
# Mechanical properties :
#
#
# Convention : Reuss Voigt Hill
#
# Bulk Modulus (GPa) = 43.25457 45.95589 44.60523
# Shear Modulus (GPa) = 17.33669 21.90312 19.61990
#
# Velocity S-wave (km/s) = 3.30625 3.71625 3.51723
# Velocity P-wave (km/s) = 6.46903 6.88408 6.67978
#
# Compressibility (1/GPa) = 0.02311895
#
# Stress axis : x y z
#
# Youngs Moduli (GPa) = 54.27998 75.37348 54.26956
#
# Poissons Ratio (x) = 0.48770 0.28607
# Poissons Ratio (y) = 0.35121 0.09536
# Poissons Ratio (z) = 0.28613 0.13244
#
# Static dielectric constant tensor:
#      x y z
#    x 1.552660 0.000000 -0.014510 
#    y 0.000000 1.558710 0.000000 
#    z -0.014510 0.000000 1.544330 
# 
# From -- ./inp_files/107964.got.cif
#   From: 2010.05.17/outbox.cif.g08.bks.cpg/sg15_54_cif.got.tgz:107964.got - 2010.06.03 18:47:42.
