data_PCOD9261519
_publ_section_title
;
Structure prediction by ZEFSAII (Michael W. Deem and Ramdas Pophale) SiO2 
 PCOD9261519
Probable space group: C 2/C
;
_chemical_formula_sum "Si O2"
_cell_formula_units_Z 56
_cell_length_a 20.609869
_cell_length_b 20.371601
_cell_length_c 8.529384
_cell_angle_alpha 90.000000
_cell_angle_beta 131.383358
_cell_angle_gamma 90.000000
_cell_volume 2686.920476
_symmetry_space_group_name_H-M "C 2/C"
_symmetry_group_IT_number 15
_symmetry_cell_setting 'monoclinic'
loop_
_space_group_symop_operation_xyz
x,y,z
-x,y,1/2-z
-x,-y,-z
x,-y,1/2+z
1/2+x,1/2+y,z
1/2-x,1/2+y,1/2-z
1/2-x,1/2-y,-z
1/2+x,1/2-y,1/2+z
loop_
_atom_site_type_symbol
_atom_site_label
_atom_site_fract_x
_atom_site_fract_y
_atom_site_fract_z
Si Si1 0.771256 0.812080 0.137316
Si Si2 0.406993 0.772057 0.023606
Si Si3 0.830122 0.938186 0.097610
Si Si4 0.562538 0.478813 0.961046
Si Si5 0.353163 0.014226 0.278330
Si Si6 0.098816 0.593313 0.849557
Si Si7 0.586241 0.143916 0.288907
O O1 0.839489 0.787032 0.378080
O O2 0.809501 0.862152 0.068439
O O3 0.750000 0.750000 0.000000
O O4 0.676003 0.840861 0.025527
O O5 0.419805 0.808785 0.875054
O O6 0.500000 0.752962 0.250000
O O7 0.370239 0.831908 0.074434
O O8 0.858996 0.947065 0.323680
O O9 0.900477 0.962106 0.084852
O O10 0.746195 0.981127 0.931110
O O11 0.500000 0.436557 0.750000
O O12 0.500000 0.500000 0.000000
O O13 0.356398 0.042420 0.458900
O O14 0.404156 0.069792 0.260628
O O15 0.390462 0.942586 0.299653
O O16 0.000000 0.594601 0.750000
O O17 0.500000 0.152537 0.250000
#
# Coordination Sequence:
#
# PCOD9261519 Si02
#       7
#     8   8   8   8   8   8   8
#     4   9  19  36  57  78 110 152 192 228 273 340
#     4   9  19  35  54  77 109 146 188 236 278 324
#     4  10  19  34  57  83 109 144 182 228 287 337
#     4   9  19  36  57  85 115 140 179 236 292 345
#     4  10  19  30  50  78 108 141 181 225 279 339
#     4  10  19  31  49  77 109 145 181 225 278 330
#     4   9  18  34  54  76 106 144 187 234 281 337
#
# _framework density 20.841702999999999
#
# number of rings (size 3 to 8) (size 9 to 14) (size 15 to 20)
#    0.000    2.571    0.000    2.571    0.000    2.857 
#    0.000    9.286    0.000    0.000    0.000    0.000 
#    0.000    0.000    0.000    0.000    0.000    0.000 
#
# Total GULP energy -155880.500104 kJ/mol
# GULP energy per Si atom -5567.160718 kJ/mol
# Density = 2.079427 g / cm^3
# Si number density = 20.841703 Si / 1000 Ang^3
#
#
#
# Elastic Constant Matrix: (Units=GPa)
#
#
# Indices 1 2 3 4 5 6 
#
# 1 83.1594 42.2910 27.0774 0.0000 10.8850 0.0000
# 2 42.2910 72.4778 2.4134 0.0000 1.1890 0.0000
# 3 27.0774 2.4134 111.3484 0.0000 20.4251 0.0000
# 4 0.0000 0.0000 0.0000 19.7485 0.0000 -10.9304
# 5 10.8850 1.1890 20.4251 0.0000 21.9851 0.0000
# 6 0.0000 0.0000 0.0000 -10.9304 0.0000 5.5037
#
#
#
# Elastic Compliance Matrix: (Units=1/GPa)
#
#
# Indices 1 2 3 4 5 6 
#
# 1 0.019643 -0.011250 -0.003448 0.000000 -0.005913 0.000000
# 2 -0.011250 0.020256 0.001779 0.000000 0.002822 0.000000
# 3 -0.003448 0.001779 0.011434 0.000000 -0.009011 0.000000
# 4 0.000000 0.000000 0.000000 -0.510445 0.000000 -1.013736
# 5 -0.005913 0.002822 -0.009011 0.000000 0.056633 0.000000
# 6 0.000000 0.000000 0.000000 -1.013736 0.000000 -1.831572
#
#
# Mechanical properties :
#
#
# Convention : Reuss Voigt Hill
#
# Bulk Modulus (GPa) = 39.22331 45.61657 42.41994
# Shear Modulus (GPa) = -2.27302 22.46107 10.09402
#
# Velocity S-wave (km/s) = -1.04546 3.28639 2.20311
# Velocity P-wave (km/s) = 4.17171 6.02787 5.18355
#
# Compressibility (1/GPa) = 0.02549504
#
# Stress axis : x y z
#
# Youngs Moduli (GPa) = 50.90847 49.36765 87.46008
#
# Poissons Ratio (x) = 0.55538 0.30158
# Poissons Ratio (y) = 0.57272 -0.15560
# Poissons Ratio (z) = 0.17554 -0.08783
#
# Static dielectric constant tensor:
#      x y z
#    x 1.755840 0.000000 0.009200 
#    y 0.000000 1.695060 0.000000 
#    z 0.009200 0.000000 1.960720 
# 
# From -- ./inp_files/57906.got.cif
#   From: 2010.05.17/outbox.cif.g08.bks.cpg/sg15_29_cif.got.tgz:57906.got - 2010.06.03 18:47:42.
