data_PCOD9261119
_publ_section_title
;
Structure prediction by ZEFSAII (Michael W. Deem and Ramdas Pophale) SiO2 
 PCOD9261119
Probable space group: C 2/C
;
_chemical_formula_sum "Si O2"
_cell_formula_units_Z 64
_cell_length_a 29.625585
_cell_length_b 15.180078
_cell_length_c 8.828450
_cell_angle_alpha 90.000000
_cell_angle_beta 133.090788
_cell_angle_gamma 90.000000
_cell_volume 2899.413272
_symmetry_space_group_name_H-M "C 2/C"
_symmetry_group_IT_number 15
_symmetry_cell_setting 'monoclinic'
loop_
_space_group_symop_operation_xyz
x,y,z
-x,y,1/2-z
-x,-y,-z
x,-y,1/2+z
1/2+x,1/2+y,z
1/2-x,1/2+y,1/2-z
1/2-x,1/2-y,-z
1/2+x,1/2-y,1/2+z
loop_
_atom_site_type_symbol
_atom_site_label
_atom_site_fract_x
_atom_site_fract_y
_atom_site_fract_z
Si Si1 0.776177 0.903242 0.394578
Si Si2 0.951752 0.531806 0.764624
Si Si3 0.440816 0.524506 0.523590
Si Si4 0.419132 0.376308 0.671405
Si Si5 0.204270 0.736679 0.535164
Si Si6 0.055458 0.298984 0.098879
Si Si7 0.083187 0.663423 0.333530
Si Si8 0.803162 0.917025 0.801362
O O1 0.845246 0.871469 0.510337
O O2 0.730201 0.836925 0.208904
O O3 0.772401 0.905133 0.566761
O O4 0.772690 0.001513 0.319820
O O5 0.917099 0.615341 0.753413
O O6 0.914983 0.443102 0.636586
O O7 0.000000 0.564456 0.750000
O O8 0.000000 0.500000 0.000000
O O9 0.500000 0.561628 0.750000
O O10 0.437646 0.419830 0.554066
O O11 0.440401 0.552558 0.348131
O O12 0.375529 0.560298 0.437746
O O13 0.442428 0.283543 0.785278
O O14 0.250000 0.750000 0.500000
O O15 0.135594 0.700665 0.343584
O O16 0.200445 0.829607 0.609707
O O17 0.088549 0.290272 0.011182
O O18 0.984389 0.316505 0.888393
#
# Coordination Sequence:
#
# PCOD9261119 Si02
#       8
#     8   8   8   8   8   8   8   8
#     4  10  22  46  65  96 133 179 232 280 347 394
#     4  10  18  40  65  95 138 169 208 281 349 408
#     4  10  21  38  63  97 134 169 214 267 347 400
#     4  10  22  39  63  97 132 178 218 279 331 406
#     4  12  26  46  68  99 135 183 242 284 342 418
#     4  10  21  40  69 102 134 173 229 274 359 419
#     4  10  21  42  68  95 135 182 214 285 350 412
#     4  10  22  43  71  90 136 178 219 296 336 406
#
# _framework density 22.073433000000001
#
# number of rings (size 3 to 8) (size 9 to 14) (size 15 to 20)
#    0.000    1.750    2.500    3.000    3.500    1.500 
#   15.750    0.000    0.000    0.000    0.000    0.000 
#    0.000    0.000    0.000    0.000    0.000    0.000 
#
# Total GULP energy -178792.633388 kJ/mol
# GULP energy per Si atom -5587.269793 kJ/mol
# Density = 2.202319 g / cm^3
# Si number density = 22.073433 Si / 1000 Ang^3
#
#
#
# Elastic Constant Matrix: (Units=GPa)
#
#
# Indices 1 2 3 4 5 6 
#
# 1 89.1241 27.8647 4.9964 0.0000 -7.7080 0.0000
# 2 27.8647 152.7427 18.5139 0.0000 -5.6810 0.0000
# 3 4.9964 18.5139 45.2615 0.0000 -1.9343 0.0000
# 4 0.0000 0.0000 0.0000 28.7612 0.0000 -6.1373
# 5 -7.7080 -5.6810 -1.9343 0.0000 24.8259 0.0000
# 6 0.0000 0.0000 0.0000 -6.1373 0.0000 21.8664
#
#
#
# Elastic Compliance Matrix: (Units=1/GPa)
#
#
# Indices 1 2 3 4 5 6 
#
# 1 0.012166 -0.002054 -0.000363 0.000000 0.003279 0.000000
# 2 -0.002054 0.007281 -0.002717 0.000000 0.000817 0.000000
# 3 -0.000363 -0.002717 0.023291 0.000000 0.001080 0.000000
# 4 0.000000 0.000000 0.000000 0.036984 0.000000 0.010380
# 5 0.003279 0.000817 0.001080 0.000000 0.041570 0.000000
# 6 0.000000 0.000000 0.000000 0.010380 0.000000 0.048646
#
#
# Mechanical properties :
#
#
# Convention : Reuss Voigt Hill
#
# Bulk Modulus (GPa) = 30.79526 43.31980 37.05753
# Shear Modulus (GPa) = 26.17402 30.80759 28.49081
#
# Velocity S-wave (km/s) = 3.44724 3.73994 3.59657
# Velocity P-wave (km/s) = 5.46133 6.19011 5.83711
#
# Compressibility (1/GPa) = 0.03247253
#
# Stress axis : x y z
#
# Youngs Moduli (GPa) = 82.19424 137.33888 42.93448
#
# Poissons Ratio (x) = 0.28203 0.01558
# Poissons Ratio (y) = 0.16879 0.11664
# Poissons Ratio (z) = 0.02983 0.37311
#
# Static dielectric constant tensor:
#      x y z
#    x 1.835890 0.000000 0.010290 
#    y 0.000000 1.827520 0.000000 
#    z 0.010290 0.000000 1.816270 
# 
# From -- ./inp_files/70150.got.cif
#   From: 2010.05.17/outbox.cif.g08.bks.cpg/sg15_36_cif.got.tgz:70150.got - 2010.06.03 18:47:42.
