data_PCOD9261404
_publ_section_title
;
Structure prediction by ZEFSAII (Michael W. Deem and Ramdas Pophale) SiO2 
 PCOD9261404
Probable space group: C 2/C
;
_chemical_formula_sum "Si O2"
_cell_formula_units_Z 52
_cell_length_a 16.903179
_cell_length_b 22.994417
_cell_length_c 12.629105
_cell_angle_alpha 90.000000
_cell_angle_beta 36.279996
_cell_angle_gamma 90.000000
_cell_volume 2904.612825
_symmetry_space_group_name_H-M "C 2/C"
_symmetry_group_IT_number 15
_symmetry_cell_setting 'monoclinic'
loop_
_space_group_symop_operation_xyz
x,y,z
-x,y,1/2-z
-x,-y,-z
x,-y,1/2+z
1/2+x,1/2+y,z
1/2-x,1/2+y,1/2-z
1/2-x,1/2-y,-z
1/2+x,1/2-y,1/2+z
loop_
_atom_site_type_symbol
_atom_site_label
_atom_site_fract_x
_atom_site_fract_y
_atom_site_fract_z
Si Si1 0.715048 0.905712 0.384579
Si Si2 0.974434 0.439766 0.090567
Si Si3 0.209630 0.505557 0.065629
Si Si4 0.784674 0.608631 0.268795
Si Si5 0.497391 0.428993 0.515529
Si Si6 0.500000 0.447974 0.750000
Si Si7 0.151846 0.695911 0.117790
O O1 0.624435 0.903484 0.378921
O O2 0.689706 0.853515 0.491670
O O3 0.677802 0.965033 0.488041
O O4 0.868853 0.908414 0.186036
O O5 0.891069 0.456243 0.284918
O O6 0.000000 0.500000 0.000000
O O7 0.114439 0.405697 0.936504
O O8 0.198803 0.556914 0.163172
O O9 0.362898 0.484903 0.897800
O O10 0.633131 0.600808 0.393337
O O11 0.826315 0.665880 0.290208
O O12 0.500000 0.500000 0.500000
O O13 0.501412 0.415610 0.636271
O O14 0.000000 0.711938 0.250000
O O15 0.250000 0.750000 0.000000
#
# Coordination Sequence:
#
# PCOD9261404 Si02
#       7
#     8   8   8   8   8   4   8
#     4  11  21  37  56  79 125 159 191 243 295 349
#     4  10  19  33  49  78 110 159 191 229 286 355
#     4  10  19  29  51  76 111 161 188 224 275 352
#     4  10  21  37  54  79 119 153 195 242 299 347
#     4  12  21  35  53  84 121 169 201 232 284 361
#     4  12  20  32  48  80 120 158 206 226 262 354
#     4  11  25  42  63  90 118 151 205 256 312 362
#
# _framework density 17.902557000000002
#
# number of rings (size 3 to 8) (size 9 to 14) (size 15 to 20)
#    0.000    1.231    6.154    0.923    2.154    1.231 
#    0.000    0.000    0.000    0.000    0.000    1.077 
#    0.000    0.000    0.000    0.000    0.000    0.000 
#
# Total GULP energy -145072.969302 kJ/mol
# GULP energy per Si atom -5579.729589 kJ/mol
# Density = 1.786181 g / cm^3
# Si number density = 17.902557 Si / 1000 Ang^3
#
#
#
# Elastic Constant Matrix: (Units=GPa)
#
#
# Indices 1 2 3 4 5 6 
#
# 1 89.3384 22.3402 34.5030 0.0015 -2.1950 -0.0003
# 2 22.3402 60.1392 40.0978 0.0025 -6.7358 -0.0012
# 3 34.5030 40.0978 149.5703 0.0048 -8.7624 -0.0027
# 4 0.0015 0.0025 0.0048 19.3606 -0.0030 -0.8547
# 5 -2.1950 -6.7358 -8.7624 -0.0030 32.3830 0.0010
# 6 -0.0003 -0.0012 -0.0027 -0.8547 0.0010 14.0161
#
#
#
# Elastic Compliance Matrix: (Units=1/GPa)
#
#
# Indices 1 2 3 4 5 6 
#
# 1 0.012840 -0.003439 -0.002064 0.000000 -0.000403 0.000000
# 2 -0.003439 0.021419 -0.004777 -0.000001 0.002929 0.000001
# 3 -0.002064 -0.004777 0.008511 -0.000001 0.001169 0.000001
# 4 0.000000 -0.000001 -0.000001 0.051791 0.000004 0.003158
# 5 -0.000403 0.002929 0.001169 0.000004 0.031779 -0.000002
# 6 0.000000 0.000001 0.000001 0.003158 -0.000002 0.071539
#
#
# Mechanical properties :
#
#
# Convention : Reuss Voigt Hill
#
# Bulk Modulus (GPa) = 45.02375 54.77000 49.89687
# Shear Modulus (GPa) = 22.13931 26.62574 24.38252
#
# Velocity S-wave (km/s) = 3.52043 3.86068 3.69447
# Velocity P-wave (km/s) = 6.45976 7.10866 6.79196
#
# Compressibility (1/GPa) = 0.02221050
#
# Stress axis : x y z
#
# Youngs Moduli (GPa) = 77.87864 46.68767 117.49389
#
# Poissons Ratio (x) = 0.16056 0.24247
# Poissons Ratio (y) = 0.26783 0.56129
# Poissons Ratio (z) = 0.16072 0.22304
#
# Static dielectric constant tensor:
#      x y z
#    x 1.663950 0.000000 0.004530 
#    y 0.000000 1.591550 0.000000 
#    z 0.004530 0.000000 1.649890 
# 
# From -- ./inp_files/42343.got.cif
#   From: 2010.05.17/outbox.cif.g08.bks.cpg/sg15_22_cif.got.tgz:42343.got - 2010.06.03 18:47:42.
