data_PCOD9261160
_publ_section_title
;
Structure prediction by ZEFSAII (Michael W. Deem and Ramdas Pophale) SiO2 
 PCOD9261160
Probable space group: C 2/C
;
_chemical_formula_sum "Si O2"
_cell_formula_units_Z 48
_cell_length_a 9.030476
_cell_length_b 23.362032
_cell_length_c 11.071683
_cell_angle_alpha 90.000000
_cell_angle_beta 87.748457
_cell_angle_gamma 90.000000
_cell_volume 2333.992660
_symmetry_space_group_name_H-M "C 2/C"
_symmetry_group_IT_number 15
_symmetry_cell_setting 'monoclinic'
loop_
_space_group_symop_operation_xyz
x,y,z
-x,y,1/2-z
-x,-y,-z
x,-y,1/2+z
1/2+x,1/2+y,z
1/2-x,1/2+y,1/2-z
1/2-x,1/2-y,-z
1/2+x,1/2-y,1/2+z
loop_
_atom_site_type_symbol
_atom_site_label
_atom_site_fract_x
_atom_site_fract_y
_atom_site_fract_z
Si Si1 0.558287 0.711594 0.613679
Si Si2 0.704410 0.118828 0.933713
Si Si3 0.924872 0.046616 0.092877
Si Si4 0.167495 0.062479 0.792651
Si Si5 0.348068 0.634268 0.464524
Si Si6 0.470317 0.842492 0.615796
O O1 0.500000 0.697383 0.750000
O O2 0.716150 0.680331 0.592347
O O3 0.450402 0.684154 0.516739
O O4 0.545894 0.779772 0.607919
O O5 0.716124 0.084357 0.808823
O O6 0.809991 0.084265 0.021571
O O7 0.548721 0.123772 0.004740
O O8 0.840352 0.005805 0.189010
O O9 0.054003 0.091570 0.120570
O O10 0.000000 0.000000 0.000000
O O11 0.192745 0.095731 0.916771
O O12 0.000000 0.075986 0.750000
O O13 0.204449 0.658410 0.403377
O O14 0.500000 0.865331 0.750000
#
# Coordination Sequence:
#
# PCOD9261160 Si02
#       6
#     8   8   8   8   8   8
#     4  10  18  40  68  92 118 161 209 248 297 368
#     4  11  20  40  65  90 124 160 201 252 308 360
#     4   9  19  35  65  92 110 151 210 248 298 354
#     4  11  18  37  68  94 110 153 215 256 291 354
#     4  10  19  39  63  92 122 161 200 250 301 364
#     4  11  26  39  56  90 137 165 192 252 313 355
#
# _framework density 20.565618000000001
#
# number of rings (size 3 to 8) (size 9 to 14) (size 15 to 20)
#    0.000    1.667    6.667    1.000    0.000    2.000 
#    0.000    5.833    7.333    0.000    0.000    0.000 
#    0.000    0.000    0.000    0.000    0.000    0.000 
#
# Total GULP energy -133900.721195 kJ/mol
# GULP energy per Si atom -5579.196716 kJ/mol
# Density = 2.051881 g / cm^3
# Si number density = 20.565618 Si / 1000 Ang^3
#
#
#
# Elastic Constant Matrix: (Units=GPa)
#
#
# Indices 1 2 3 4 5 6 
#
# 1 31.7682 -17.7100 16.0637 0.0000 -10.6196 0.0000
# 2 -17.7100 48.7492 12.9599 0.0000 -16.5094 0.0000
# 3 16.0637 12.9599 99.4529 0.0000 -17.3495 0.0000
# 4 0.0000 0.0000 0.0000 39.1472 0.0000 -5.5925
# 5 -10.6196 -16.5094 -17.3495 0.0000 31.8129 0.0000
# 6 0.0000 0.0000 0.0000 -5.5925 0.0000 5.5548
#
#
#
# Elastic Compliance Matrix: (Units=1/GPa)
#
#
# Indices 1 2 3 4 5 6 
#
# 1 0.076667 0.045364 -0.010746 0.000000 0.043274 0.000000
# 2 0.045364 0.051837 -0.007457 0.000000 0.037978 0.000000
# 3 -0.010746 -0.007457 0.012667 0.000000 -0.000549 0.000000
# 4 0.000000 0.000000 0.000000 0.029836 0.000000 0.030038
# 5 0.043274 0.037978 -0.000549 0.000000 0.065288 0.000000
# 6 0.000000 0.000000 0.000000 0.030038 0.000000 0.210266
#
#
# Mechanical properties :
#
#
# Convention : Reuss Voigt Hill
#
# Bulk Modulus (GPa) = 5.11526 22.51083 13.81305
# Shear Modulus (GPa) = 10.93130 26.54677 18.73903
#
# Velocity S-wave (km/s) = 2.30800 3.59671 3.02185
# Velocity P-wave (km/s) = 3.09761 5.31207 4.34818
#
# Compressibility (1/GPa) = 0.19549337
#
# Stress axis : x y z
#
# Youngs Moduli (GPa) = 13.04347 19.29110 78.94768
#
# Poissons Ratio (x) = -0.87512 0.84834
# Poissons Ratio (y) = -0.59170 0.58872
# Poissons Ratio (z) = 0.14016 0.14386
#
# Static dielectric constant tensor:
#      x y z
#    x 1.707800 0.000000 -0.014750 
#    y 0.000000 1.762680 0.000000 
#    z -0.014750 0.000000 1.789520 
# 
# From -- ./inp_files/80253.got.cif
#   From: 2010.05.17/outbox.cif.g08.bks.cpg/sg15_41_cif.got.tgz:80253.got - 2010.06.03 18:47:42.
