data_PCOD9261093
_publ_section_title
;
Structure prediction by ZEFSAII (Michael W. Deem and Ramdas Pophale) SiO2 
 PCOD9261093
Probable space group: C 2/C
;
_chemical_formula_sum "Si O2"
_cell_formula_units_Z 60
_cell_length_a 26.102185
_cell_length_b 7.842542
_cell_length_c 12.887085
_cell_angle_alpha 90.000000
_cell_angle_beta 70.832858
_cell_angle_gamma 90.000000
_cell_volume 2491.840115
_symmetry_space_group_name_H-M "C 2/C"
_symmetry_group_IT_number 15
_symmetry_cell_setting 'monoclinic'
loop_
_space_group_symop_operation_xyz
x,y,z
-x,y,1/2-z
-x,-y,-z
x,-y,1/2+z
1/2+x,1/2+y,z
1/2-x,1/2+y,1/2-z
1/2-x,1/2-y,-z
1/2+x,1/2-y,1/2+z
loop_
_atom_site_type_symbol
_atom_site_label
_atom_site_fract_x
_atom_site_fract_y
_atom_site_fract_z
Si Si1 0.398372 0.774107 0.121070
Si Si2 0.500000 0.642969 0.250000
Si Si3 0.157530 0.544545 0.013194
Si Si4 0.853564 0.186544 0.597603
Si Si5 0.135576 0.035368 0.704386
Si Si6 0.943832 0.956742 0.435115
Si Si7 0.440500 0.022998 0.773201
Si Si8 0.231961 0.056529 0.987693
O O1 0.377917 0.631180 0.215735
O O2 0.421069 0.937040 0.168988
O O3 0.444117 0.701773 0.012034
O O4 0.350569 0.819299 0.072547
O O5 0.499906 0.528693 0.352918
O O6 0.547251 0.780688 0.198758
O O7 0.106999 0.548157 0.125056
O O8 0.153960 0.364947 0.954520
O O9 0.213465 0.552482 0.038795
O O10 0.907903 0.096291 0.519376
O O11 0.802408 0.070170 0.595106
O O12 0.857053 0.186378 0.718524
O O13 0.089318 0.071486 0.650118
O O14 0.189460 0.000524 0.603283
O O15 0.500000 0.938369 0.750000
O O16 0.250000 0.250000 0.000000
#
# Coordination Sequence:
#
# PCOD9261093 Si02
#       8
#     8   4   8   8   8   8   8   8
#     4  11  23  38  64  90 122 157 200 257 317 364
#     4  10  18  40  64  80 114 156 206 254 308 352
#     4  11  22  38  59  89 121 158 203 245 306 370
#     4   9  18  37  60  81 119 161 197 239 303 354
#     4  10  19  38  57  88 123 151 201 248 296 361
#     4  10  20  39  60  89 112 157 204 256 299 367
#     4  10  21  42  60  81 119 162 200 258 308 369
#     4   9  19  35  60  84 117 162 198 239 292 363
#
# _framework density 24.078589999999998
#
# number of rings (size 3 to 8) (size 9 to 14) (size 15 to 20)
#    0.400    1.600    2.667    1.600    0.000    5.333 
#    3.600    7.333    0.000    0.000    0.000    0.000 
#    0.000    0.000    0.000    0.000    0.000    0.000 
#
# Total GULP energy -167520.669802 kJ/mol
# GULP energy per Si atom -5584.022327 kJ/mol
# Density = 2.402379 g / cm^3
# Si number density = 24.078590 Si / 1000 Ang^3
#
#
#
# Elastic Constant Matrix: (Units=GPa)
#
#
# Indices 1 2 3 4 5 6 
#
# 1 120.2538 19.1118 65.2887 0.0000 -6.7319 0.0000
# 2 19.1118 59.9654 28.9633 0.0000 7.0137 0.0000
# 3 65.2887 28.9633 125.9112 0.0000 9.5624 0.0000
# 4 0.0000 0.0000 0.0000 40.7914 0.0000 11.0093
# 5 -6.7319 7.0137 9.5624 0.0000 34.0155 0.0000
# 6 0.0000 0.0000 0.0000 11.0093 0.0000 14.4475
#
#
#
# Elastic Compliance Matrix: (Units=1/GPa)
#
#
# Indices 1 2 3 4 5 6 
#
# 1 0.012246 -0.001346 -0.006382 0.000000 0.004495 0.000000
# 2 -0.001346 0.019157 -0.003462 0.000000 -0.003243 0.000000
# 3 -0.006382 -0.003462 0.012353 0.000000 -0.004022 0.000000
# 4 0.000000 0.000000 0.000000 0.030862 0.000000 -0.023518
# 5 0.004495 -0.003243 -0.004022 0.000000 0.032087 0.000000
# 6 0.000000 0.000000 0.000000 -0.023518 0.000000 0.087137
#
#
# Mechanical properties :
#
#
# Convention : Reuss Voigt Hill
#
# Bulk Modulus (GPa) = 46.78239 59.20643 52.99441
# Shear Modulus (GPa) = 22.38655 30.70200 26.54428
#
# Velocity S-wave (km/s) = 3.05245 3.57469 3.32385
# Velocity P-wave (km/s) = 5.64752 6.45601 6.06525
#
# Compressibility (1/GPa) = 0.02137557
#
# Stress axis : x y z
#
# Youngs Moduli (GPa) = 81.65851 52.20024 80.95188
#
# Poissons Ratio (x) = 0.07028 0.51661
# Poissons Ratio (y) = 0.10995 0.28027
# Poissons Ratio (z) = 0.52112 0.18073
#
# Static dielectric constant tensor:
#      x y z
#    x 2.023960 0.000000 0.018060 
#    y 0.000000 2.014670 0.000000 
#    z 0.018060 0.000000 1.882580 
# 
# From -- ./inp_files/125883.got.cif
#   From: 2010.05.17/outbox.cif.g08.bks.cpg/sg15_63_cif.got.tgz:125883.got - 2010.06.03 18:47:42.
