data_PCOD9261500
_publ_section_title
;
Structure prediction by ZEFSAII (Michael W. Deem and Ramdas Pophale) SiO2 
 PCOD9261500
Probable space group: C 2/C
;
_chemical_formula_sum "Si O2"
_cell_formula_units_Z 64
_cell_length_a 8.171004
_cell_length_b 25.750550
_cell_length_c 14.634304
_cell_angle_alpha 90.000000
_cell_angle_beta 96.194382
_cell_angle_gamma 90.000000
_cell_volume 3061.194800
_symmetry_space_group_name_H-M "C 2/C"
_symmetry_group_IT_number 15
_symmetry_cell_setting 'monoclinic'
loop_
_space_group_symop_operation_xyz
x,y,z
-x,y,1/2-z
-x,-y,-z
x,-y,1/2+z
1/2+x,1/2+y,z
1/2-x,1/2+y,1/2-z
1/2-x,1/2-y,-z
1/2+x,1/2-y,1/2+z
loop_
_atom_site_type_symbol
_atom_site_label
_atom_site_fract_x
_atom_site_fract_y
_atom_site_fract_z
Si Si1 0.549661 0.607591 0.132353
Si Si2 0.248986 0.715249 0.593571
Si Si3 0.919989 0.412373 0.967056
Si Si4 0.394249 0.750782 0.868144
Si Si5 0.378059 0.489856 0.577520
Si Si6 0.763393 0.647443 0.299552
Si Si7 0.718046 0.404044 0.455109
Si Si8 0.103751 0.306367 0.430518
O O1 0.473106 0.550911 0.147095
O O2 0.706706 0.622628 0.201401
O O3 0.403854 0.646885 0.149561
O O4 0.591337 0.607147 0.029314
O O5 0.250000 0.750000 0.500000
O O6 0.424653 0.730979 0.644949
O O7 0.256432 0.652956 0.582177
O O8 0.063864 0.718347 0.622371
O O9 0.786775 0.458613 0.963464
O O10 0.889937 0.386553 0.865829
O O11 0.891349 0.367295 0.041588
O O12 0.111368 0.424719 0.990461
O O13 0.329203 0.794980 0.796850
O O14 0.258618 0.706775 0.876919
O O15 0.394141 0.779349 0.968450
O O16 0.500000 0.500000 0.500000
O O17 0.338627 0.547679 0.610246
#
# Coordination Sequence:
#
# PCOD9261500 Si02
#       8
#     8   8   8   8   8   8   8   8
#     4   9  19  32  48  69 103 133 176 214 258 326
#     4   9  18  28  43  74 104 129 168 208 263 312
#     4   9  17  30  46  72 107 129 169 218 271 316
#     4   9  16  26  47  65  98 139 165 206 259 307
#     4   9  18  30  49  71  99 134 172 222 270 310
#     4   9  18  32  46  71 100 136 174 207 260 322
#     4  10  19  30  49  74 104 138 166 223 274 305
#     4   8  16  26  42  70 100 134 163 210 262 308
#
# _framework density 20.906870000000001
#
# number of rings (size 3 to 8) (size 9 to 14) (size 15 to 20)
#    0.000    3.000    0.000    1.125   10.500    0.500 
#    0.000    0.000    0.000    0.000    0.000    7.000 
#    3.750    0.000    0.000    0.000    0.000    0.000 
#
# Total GULP energy -178152.345988 kJ/mol
# GULP energy per Si atom -5567.260812 kJ/mol
# Density = 2.085929 g / cm^3
# Si number density = 20.906870 Si / 1000 Ang^3
#
#
#
# Elastic Constant Matrix: (Units=GPa)
#
#
# Indices 1 2 3 4 5 6 
#
# 1 85.4074 33.4490 22.0276 0.0000 4.7557 0.0000
# 2 33.4490 117.4540 16.3429 0.0000 9.1977 0.0000
# 3 22.0276 16.3429 25.0267 0.0000 12.8564 0.0000
# 4 0.0000 0.0000 0.0000 11.4380 0.0000 2.2440
# 5 4.7557 9.1977 12.8564 0.0000 24.2916 0.0000
# 6 0.0000 0.0000 0.0000 2.2440 0.0000 32.0977
#
#
#
# Elastic Compliance Matrix: (Units=1/GPa)
#
#
# Indices 1 2 3 4 5 6 
#
# 1 0.016646 -0.003019 -0.015921 0.000000 0.006311 0.000000
# 2 -0.003019 0.009916 -0.003011 0.000000 -0.001570 0.000000
# 3 -0.015921 -0.003011 0.073821 0.000000 -0.034813 0.000000
# 4 0.000000 0.000000 0.000000 0.088644 0.000000 -0.006197
# 5 0.006311 -0.001570 -0.034813 0.000000 0.058950 0.000000
# 6 0.000000 0.000000 0.000000 -0.006197 0.000000 0.031588
#
#
# Mechanical properties :
#
#
# Convention : Reuss Voigt Hill
#
# Bulk Modulus (GPa) = 17.70589 41.28078 29.49334
# Shear Modulus (GPa) = 14.60727 23.97003 19.28865
#
# Velocity S-wave (km/s) = 2.64613 3.38970 3.04073
# Velocity P-wave (km/s) = 4.22177 5.92520 5.14448
#
# Compressibility (1/GPa) = 0.05647837
#
# Stress axis : x y z
#
# Youngs Moduli (GPa) = 60.07447 100.84968 13.54630
#
# Poissons Ratio (x) = 0.30450 0.21568
# Poissons Ratio (y) = 0.18139 0.04079
# Poissons Ratio (z) = 0.95647 0.30370
#
# Static dielectric constant tensor:
#      x y z
#    x 1.819560 0.000000 0.031080 
#    y 0.000000 1.828850 0.000000 
#    z 0.031080 0.000000 1.774980 
# 
# From -- ./inp_files/192988.got.cif
#   From: 2010.05.17/outbox.cif.g08.bks.cpg/sg15_97_cif.got.tgz:192988.got - 2010.06.03 18:47:42.
