data_PCOD9261229
_publ_section_title
;
Structure prediction by ZEFSAII (Michael W. Deem and Ramdas Pophale) SiO2 
 PCOD9261229
Probable space group: C 2/C
;
_chemical_formula_sum "Si O2"
_cell_formula_units_Z 60
_cell_length_a 28.985180
_cell_length_b 18.085738
_cell_length_c 9.525431
_cell_angle_alpha 90.000000
_cell_angle_beta 39.048947
_cell_angle_gamma 90.000000
_cell_volume 3145.766170
_symmetry_space_group_name_H-M "C 2/C"
_symmetry_group_IT_number 15
_symmetry_cell_setting 'monoclinic'
loop_
_space_group_symop_operation_xyz
x,y,z
-x,y,1/2-z
-x,-y,-z
x,-y,1/2+z
1/2+x,1/2+y,z
1/2-x,1/2+y,1/2-z
1/2-x,1/2-y,-z
1/2+x,1/2-y,1/2+z
loop_
_atom_site_type_symbol
_atom_site_label
_atom_site_fract_x
_atom_site_fract_y
_atom_site_fract_z
Si Si1 0.157312 0.714380 0.864332
Si Si2 0.775802 0.666579 0.093672
Si Si3 0.717824 0.523185 0.090668
Si Si4 0.050615 0.017726 0.008006
Si Si5 0.254690 0.397154 0.272503
Si Si6 0.000000 0.777815 0.250000
Si Si7 0.975460 0.815569 0.996746
Si Si8 0.876891 0.767872 0.014628
O O1 0.189204 0.694705 0.635696
O O2 0.201205 0.788711 0.801394
O O3 0.182038 0.648985 0.908797
O O4 0.072129 0.729016 0.057657
O O5 0.753144 0.583362 0.112464
O O6 0.834962 0.693392 0.067644
O O7 0.630248 0.517273 0.316021
O O8 0.746301 0.444782 0.082897
O O9 0.731167 0.550431 0.898716
O O10 0.051549 0.106751 0.004447
O O11 0.000000 0.989389 0.250000
O O12 0.000000 0.000000 0.000000
O O13 0.318645 0.334783 0.130573
O O14 0.014961 0.820803 0.359560
O O15 0.911267 0.762752 0.089174
O O16 0.052931 0.787947 0.749628
#
# Coordination Sequence:
#
# PCOD9261229 Si02
#       8
#     8   8   8   8   8   4   8   8
#     4   9  20  37  60  83 116 150 193 254 291 342
#     4   9  19  37  63  82 111 162 207 228 287 370
#     4  11  21  37  59  85 113 164 199 235 288 364
#     4  12  24  35  52  85 127 160 189 232 295 358
#     4  10  21  40  59  79 119 156 197 239 295 347
#     4  12  24  36  60  94 108 146 206 254 294 344
#     4  11  22  36  60  84 123 153 192 246 300 351
#     4  10  18  42  59  83 116 165 193 238 299 353
#
# _framework density 19.073255
#
# number of rings (size 3 to 8) (size 9 to 14) (size 15 to 20)
#    0.000    1.600    4.000    2.400    2.800    1.067 
#    2.400    1.333    0.000    4.800    0.000    0.000 
#    0.000    0.000    0.000    0.000    0.000    0.000 
#
# Total GULP energy -167234.671076 kJ/mol
# GULP energy per Si atom -5574.489036 kJ/mol
# Density = 1.902984 g / cm^3
# Si number density = 19.073255 Si / 1000 Ang^3
#
#
#
# Elastic Constant Matrix: (Units=GPa)
#
#
# Indices 1 2 3 4 5 6 
#
# 1 109.0963 20.3220 20.1724 0.0000 -3.1376 0.0000
# 2 20.3220 41.4711 15.8887 0.0000 -13.3602 0.0000
# 3 20.1724 15.8887 57.0303 0.0000 -13.0702 0.0000
# 4 0.0000 0.0000 0.0000 18.1265 0.0000 0.7566
# 5 -3.1376 -13.3602 -13.0702 0.0000 38.4235 0.0000
# 6 0.0000 0.0000 0.0000 0.7566 0.0000 42.3489
#
#
#
# Elastic Compliance Matrix: (Units=1/GPa)
#
#
# Indices 1 2 3 4 5 6 
#
# 1 0.010498 -0.004614 -0.002819 0.000000 -0.001706 0.000000
# 2 -0.004614 0.031116 -0.005036 0.000000 0.008729 0.000000
# 3 -0.002819 -0.005036 0.021128 0.000000 0.005205 0.000000
# 4 0.000000 0.000000 0.000000 0.055209 0.000000 -0.000986
# 5 -0.001706 0.008729 0.005205 0.000000 0.030692 0.000000
# 6 0.000000 0.000000 0.000000 -0.000986 0.000000 0.023631
#
#
# Mechanical properties :
#
#
# Convention : Reuss Voigt Hill
#
# Bulk Modulus (GPa) = 26.45258 35.59599 31.02428
# Shear Modulus (GPa) = 23.83075 29.86075 26.84575
#
# Velocity S-wave (km/s) = 3.53857 3.96104 3.75575
# Velocity P-wave (km/s) = 5.53121 6.29468 5.92526
#
# Compressibility (1/GPa) = 0.03780349
#
# Stress axis : x y z
#
# Youngs Moduli (GPa) = 95.25805 32.13790 47.33125
#
# Poissons Ratio (x) = 0.14828 0.13341
# Poissons Ratio (y) = 0.43951 0.23838
# Poissons Ratio (z) = 0.26851 0.16186
#
# Static dielectric constant tensor:
#      x y z
#    x -5.794400 0.000000 0.476530 
#    y 0.000000 1.726650 0.000000 
#    z 0.476530 0.000000 1.630160 
# 
# From -- ./inp_files/67509.got.cif
#   From: 2010.05.17/outbox.cif.g08.bks.cpg/sg15_34_cif.got.tgz:67509.got - 2010.06.03 18:47:42.
