data_PCOD9261275
_publ_section_title
;
Structure prediction by ZEFSAII (Michael W. Deem and Ramdas Pophale) SiO2 
 PCOD9261275
Probable space group: C 2/C
;
_chemical_formula_sum "Si O2"
_cell_formula_units_Z 60
_cell_length_a 27.443334
_cell_length_b 7.905864
_cell_length_c 11.797767
_cell_angle_alpha 90.000000
_cell_angle_beta 75.028311
_cell_angle_gamma 90.000000
_cell_volume 2472.790062
_symmetry_space_group_name_H-M "C 2/C"
_symmetry_group_IT_number 15
_symmetry_cell_setting 'monoclinic'
loop_
_space_group_symop_operation_xyz
x,y,z
-x,y,1/2-z
-x,-y,-z
x,-y,1/2+z
1/2+x,1/2+y,z
1/2-x,1/2+y,1/2-z
1/2-x,1/2-y,-z
1/2+x,1/2-y,1/2+z
loop_
_atom_site_type_symbol
_atom_site_label
_atom_site_fract_x
_atom_site_fract_y
_atom_site_fract_z
Si Si1 0.454229 0.537613 0.939189
Si Si2 0.354120 0.900477 0.845240
Si Si3 0.000000 0.679444 0.250000
Si Si4 0.075014 0.434999 0.874699
Si Si5 0.290529 0.771765 0.575555
Si Si6 0.097177 0.726845 0.581023
Si Si7 0.780254 0.588371 0.736237
Si Si8 0.365737 0.735964 0.075542
O O1 0.467554 0.696352 0.850444
O O2 0.434645 0.389802 0.865306
O O3 0.500000 0.500000 0.000000
O O4 0.404390 0.582336 0.043553
O O5 0.383093 0.826346 0.719927
O O6 0.390417 0.061448 0.852892
O O7 0.303679 0.983459 0.827289
O O8 0.349747 0.782804 0.956150
O O9 0.027844 0.561546 0.322628
O O10 0.100569 0.608084 0.898053
O O11 0.064333 0.336156 0.994959
O O12 0.250000 0.750000 0.500000
O O13 0.345933 0.732656 0.496042
O O14 0.273183 0.654415 0.690540
O O15 0.285717 0.962701 0.626819
O O16 0.816266 0.749190 0.684149
#
# Coordination Sequence:
#
# PCOD9261275 Si02
#       8
#     8   8   4   8   8   8   8   8
#     4  12  27  43  64 100 144 175 228 286 354 407
#     4  10  18  43  68  89 125 179 227 272 335 409
#     4  12  24  42  66  94 132 176 238 282 342 412
#     4  10  21  41  70  91 122 180 231 277 328 413
#     4  12  24  46  69 104 139 176 234 293 348 419
#     4  11  23  44  69  93 141 178 219 294 343 410
#     4  11  23  42  69 102 136 177 230 280 349 422
#     4  10  22  42  68  94 133 179 229 279 338 414
#
# _framework density 24.264088999999998
#
# number of rings (size 3 to 8) (size 9 to 14) (size 15 to 20)
#    0.000    1.067    8.000    0.000    1.867    3.733 
#    4.800    1.333    0.000    0.000    0.000    0.000 
#    0.000    0.000    0.000    0.000    0.000    0.000 
#
# Total GULP energy -167513.507302 kJ/mol
# GULP energy per Si atom -5583.783577 kJ/mol
# Density = 2.420886 g / cm^3
# Si number density = 24.264089 Si / 1000 Ang^3
#
#
#
# Elastic Constant Matrix: (Units=GPa)
#
#
# Indices 1 2 3 4 5 6 
#
# 1 76.1643 25.0005 22.6244 0.0000 8.2197 0.0000
# 2 25.0005 34.3755 2.3205 0.0000 -2.8858 0.0000
# 3 22.6244 2.3205 59.3124 0.0000 9.8567 0.0000
# 4 0.0000 0.0000 0.0000 26.0636 0.0000 -14.9721
# 5 8.2197 -2.8858 9.8567 0.0000 41.2310 0.0000
# 6 0.0000 0.0000 0.0000 -14.9721 0.0000 38.2437
#
#
#
# Elastic Compliance Matrix: (Units=1/GPa)
#
#
# Indices 1 2 3 4 5 6 
#
# 1 0.020240 -0.014569 -0.006571 0.000000 -0.003484 0.000000
# 2 -0.014569 0.039886 0.003176 0.000000 0.004937 0.000000
# 3 -0.006571 0.003176 0.019773 0.000000 -0.003195 0.000000
# 4 0.000000 0.000000 0.000000 0.049500 0.000000 0.019379
# 5 -0.003484 0.004937 -0.003195 0.000000 0.026057 0.000000
# 6 0.000000 0.000000 0.000000 0.019379 0.000000 0.033735
#
#
# Mechanical properties :
#
#
# Convention : Reuss Voigt Hill
#
# Bulk Modulus (GPa) = 22.74222 29.97145 26.35684
# Shear Modulus (GPa) = 20.85292 29.10145 24.97718
#
# Velocity S-wave (km/s) = 2.93476 3.46694 3.21189
# Velocity P-wave (km/s) = 4.56912 5.32966 4.96398
#
# Compressibility (1/GPa) = 0.04397108
#
# Stress axis : x y z
#
# Youngs Moduli (GPa) = 49.40826 25.07153 50.57369
#
# Poissons Ratio (x) = 0.36526 0.33234
# Poissons Ratio (y) = 0.71981 -0.16063
# Poissons Ratio (z) = 0.32468 -0.07963
#
# Static dielectric constant tensor:
#      x y z
#    x 1.956880 0.000000 -0.023560 
#    y 0.000000 2.030080 0.000000 
#    z -0.023560 0.000000 1.995310 
# 
# From -- ./inp_files/125562.got.cif
#   From: 2010.05.17/outbox.cif.g08.bks.cpg/sg15_63_cif.got.tgz:125562.got - 2010.06.03 18:47:42.
