data_PCOD9261644
_publ_section_title
;
Structure prediction by ZEFSAII (Michael W. Deem and Ramdas Pophale) SiO2 
 PCOD9261644
Probable space group: C 2/C
;
_chemical_formula_sum "Si O2"
_cell_formula_units_Z 48
_cell_length_a 20.046696
_cell_length_b 20.021025
_cell_length_c 5.133718
_cell_angle_alpha 90.000000
_cell_angle_beta 105.534279
_cell_angle_gamma 90.000000
_cell_volume 1985.178196
_symmetry_space_group_name_H-M "C 2/C"
_symmetry_group_IT_number 15
_symmetry_cell_setting 'monoclinic'
loop_
_space_group_symop_operation_xyz
x,y,z
-x,y,1/2-z
-x,-y,-z
x,-y,1/2+z
1/2+x,1/2+y,z
1/2-x,1/2+y,1/2-z
1/2-x,1/2-y,-z
1/2+x,1/2-y,1/2+z
loop_
_atom_site_type_symbol
_atom_site_label
_atom_site_fract_x
_atom_site_fract_y
_atom_site_fract_z
Si Si1 0.853514 0.903577 0.197358
Si Si2 0.333971 0.753598 0.636735
Si Si3 0.710493 0.041134 0.358686
Si Si4 0.073855 0.903073 0.727688
Si Si5 0.580188 0.759817 0.278061
Si Si6 0.929031 0.453581 0.620700
O O1 0.853752 0.824088 0.190295
O O2 0.780305 0.923919 0.008124
O O3 0.868492 0.926646 0.505004
O O4 0.910676 0.924749 0.047937
O O5 0.250000 0.750000 0.500000
O O6 0.380361 0.779854 0.445399
O O7 0.366299 0.781721 0.938717
O O8 0.642576 0.080576 0.379703
O O9 0.707930 0.022385 0.053842
O O10 0.075155 0.821651 0.746836
O O11 0.000000 0.925255 0.750000
O O12 0.500000 0.781761 0.250000
O O13 0.930049 0.484635 0.332918
O O14 0.000000 0.415426 0.750000
#
# Coordination Sequence:
#
# PCOD9261644 Si02
#       6
#     8   8   8   8   8   8
#     4  10  19  31  49  71  95 124 155 194 240 280
#     4  10  19  31  49  75 101 126 158 199 244 288
#     4  10  19  31  48  69  93 122 155 193 234 278
#     4   9  17  30  49  70  91 120 162 202 230 268
#     4   9  17  30  49  72  96 126 166 203 233 275
#     4   8  14  25  42  63  83 106 142 183 217 255
#
# _framework density 24.179190999999999
#
# number of rings (size 3 to 8) (size 9 to 14) (size 15 to 20)
#    0.000    2.667    0.000    2.500    0.000    4.000 
#    0.000    0.000    0.000   12.000    0.000    9.333 
#    0.000    0.000    0.000    0.000    0.000    0.000 
#
# Total GULP energy -133923.640017 kJ/mol
# GULP energy per Si atom -5580.151667 kJ/mol
# Density = 2.412416 g / cm^3
# Si number density = 24.179191 Si / 1000 Ang^3
#
#
#
# Elastic Constant Matrix: (Units=GPa)
#
#
# Indices 1 2 3 4 5 6 
#
# 1 134.5212 -5.9533 21.4274 0.0000 2.8841 0.0000
# 2 -5.9533 45.1850 2.7939 0.0000 -6.5583 0.0000
# 3 21.4274 2.7939 121.3691 0.0000 -4.3487 0.0000
# 4 0.0000 0.0000 0.0000 13.0853 0.0000 4.9725
# 5 2.8841 -6.5583 -4.3487 0.0000 44.1664 0.0000
# 6 0.0000 0.0000 0.0000 4.9725 0.0000 5.4923
#
#
#
# Elastic Compliance Matrix: (Units=1/GPa)
#
#
# Indices 1 2 3 4 5 6 
#
# 1 0.007713 0.001032 -0.001403 0.000000 -0.000489 0.000000
# 2 0.001032 0.022776 -0.000590 0.000000 0.003257 0.000000
# 3 -0.001403 -0.000590 0.008531 0.000000 0.000844 0.000000
# 4 0.000000 0.000000 0.000000 0.116503 0.000000 -0.105475
# 5 -0.000489 0.003257 0.000844 0.000000 0.023240 0.000000
# 6 0.000000 0.000000 0.000000 -0.105475 0.000000 0.277564
#
#
# Mechanical properties :
#
#
# Convention : Reuss Voigt Hill
#
# Bulk Modulus (GPa) = 26.95485 37.51239 32.23362
# Shear Modulus (GPa) = 10.62438 31.40262 21.01350
#
# Velocity S-wave (km/s) = 2.09847 3.60772 2.95120
# Velocity P-wave (km/s) = 4.12839 5.73604 4.99729
#
# Compressibility (1/GPa) = 0.03709907
#
# Stress axis : x y z
#
# Youngs Moduli (GPa) = 129.64431 43.90513 117.22156
#
# Poissons Ratio (x) = -0.04532 0.16447
# Poissons Ratio (y) = -0.13381 0.06914
# Poissons Ratio (z) = 0.18190 0.02590
#
# Static dielectric constant tensor:
#      x y z
#    x 1.954460 0.000000 0.048620 
#    y 0.000000 1.982740 0.000000 
#    z 0.048620 0.000000 1.962020 
# 
# From -- ./inp_files/10772.got.cif
#   From: 2010.05.17/outbox.cif.g08.bks.cpg/sg15_6_cif.got.tgz:10772.got - 2010.06.03 18:47:42.
