data_PCOD9261100
_publ_section_title
;
Structure prediction by ZEFSAII (Michael W. Deem and Ramdas Pophale) SiO2 
 PCOD9261100
Probable space group: C 2/C
;
_chemical_formula_sum "Si O2"
_cell_formula_units_Z 60
_cell_length_a 26.586881
_cell_length_b 8.198037
_cell_length_c 16.031926
_cell_angle_alpha 90.000000
_cell_angle_beta 64.665966
_cell_angle_gamma 90.000000
_cell_volume 3158.268254
_symmetry_space_group_name_H-M "C 2/C"
_symmetry_group_IT_number 15
_symmetry_cell_setting 'monoclinic'
loop_
_space_group_symop_operation_xyz
x,y,z
-x,y,1/2-z
-x,-y,-z
x,-y,1/2+z
1/2+x,1/2+y,z
1/2-x,1/2+y,1/2-z
1/2-x,1/2-y,-z
1/2+x,1/2-y,1/2+z
loop_
_atom_site_type_symbol
_atom_site_label
_atom_site_fract_x
_atom_site_fract_y
_atom_site_fract_z
Si Si1 0.302475 0.296813 0.016775
Si Si2 0.809802 0.870267 0.274856
Si Si3 0.783685 0.102391 0.145342
Si Si4 0.885963 0.288384 0.136682
Si Si5 0.374550 0.164198 0.100258
Si Si6 0.120520 0.125845 0.183752
Si Si7 0.992832 0.660037 0.944925
Si Si8 0.000000 0.242200 0.250000
O O1 0.353705 0.304502 0.917802
O O2 0.250000 0.250000 0.000000
O O3 0.288509 0.467058 0.071068
O O4 0.322578 0.173535 0.073841
O O5 0.765980 0.730927 0.330458
O O6 0.857553 0.786390 0.185170
O O7 0.779059 0.000686 0.235690
O O8 0.843417 0.964725 0.322331
O O9 0.842046 0.197678 0.109893
O O10 0.881323 0.481420 0.128070
O O11 0.870059 0.240041 0.242173
O O12 0.950470 0.240348 0.076095
O O13 0.431990 0.220398 0.015731
O O14 0.054241 0.128069 0.220335
O O15 0.994447 0.653009 0.841121
O O16 0.000000 0.500000 0.000000
#
# Coordination Sequence:
#
# PCOD9261100 Si02
#       8
#     8   8   8   8   8   8   8   4
#     4  11  25  38  57  87 122 158 197 251 308 363
#     4  10  22  36  61  86 115 158 204 242 301 368
#     4  10  22  39  59  87 117 160 199 249 300 368
#     4   9  20  37  65  85 113 158 200 245 295 361
#     4  10  20  39  61  87 116 156 202 250 296 365
#     4  10  22  40  59  89 120 158 200 245 317 355
#     4   9  18  36  63  93 119 158 207 245 306 367
#     4  10  18  40  64  86 130 166 198 264 306 368
#
# _framework density 18.997751999999998
#
# number of rings (size 3 to 8) (size 9 to 14) (size 15 to 20)
#    0.000    2.133    1.333    0.800   11.200    0.533 
#    2.400    2.667    2.933    0.800    0.000    0.000 
#    0.000    0.000    0.000    0.000    0.000    0.000 
#
# Total GULP energy -167089.663799 kJ/mol
# GULP energy per Si atom -5569.655460 kJ/mol
# Density = 1.895451 g / cm^3
# Si number density = 18.997752 Si / 1000 Ang^3
#
#
#
# Elastic Constant Matrix: (Units=GPa)
#
#
# Indices 1 2 3 4 5 6 
#
# 1 103.8336 43.7785 44.9528 0.0000 -8.7318 0.0000
# 2 43.7785 59.6453 16.4258 0.0000 -6.4160 0.0002
# 3 44.9528 16.4258 62.9912 0.0000 -14.4492 0.0000
# 4 0.0000 0.0000 0.0000 22.8125 0.0000 4.7535
# 5 -8.7318 -6.4160 -14.4492 0.0000 27.9393 0.0000
# 6 0.0000 0.0002 0.0000 4.7535 0.0000 -27.3044
#
#
#
# Elastic Compliance Matrix: (Units=1/GPa)
#
#
# Indices 1 2 3 4 5 6 
#
# 1 0.018941 -0.011082 -0.011179 0.000000 -0.002407 0.000000
# 2 -0.011082 0.024641 0.002254 0.000000 0.003361 0.000000
# 3 -0.011179 0.002254 0.025622 0.000000 0.010275 0.000000
# 4 0.000000 0.000000 0.000000 0.042301 0.000000 0.007364
# 5 -0.002407 0.003361 0.010275 0.000000 0.041125 0.000000
# 6 0.000000 0.000000 0.000000 0.007364 0.000000 -0.035342
#
#
# Mechanical properties :
#
#
# Convention : Reuss Voigt Hill
#
# Bulk Modulus (GPa) = 34.25911 48.53159 41.39535
# Shear Modulus (GPa) = 29.93446 12.77702 21.35574
#
# Velocity S-wave (km/s) = 3.97380 2.59618 3.35643
# Velocity P-wave (km/s) = 6.25517 5.88118 6.07105
#
# Compressibility (1/GPa) = 0.02918932
#
# Stress axis : x y z
#
# Youngs Moduli (GPa) = 52.79635 40.58317 39.02903
#
# Poissons Ratio (x) = 0.44976 0.43630
# Poissons Ratio (y) = 0.58511 -0.08799
# Poissons Ratio (z) = 0.59021 -0.09149
#
# Static dielectric constant tensor:
#      x y z
#    x 1.699830 0.000000 -0.004250 
#    y 0.000000 1.695520 0.000000 
#    z -0.004250 0.000000 1.660370 
# 
# From -- ./inp_files/172373.got.cif
#   From: 2010.05.17/outbox.cif.g08.bks.cpg/sg15_87_cif.got.tgz:172373.got - 2010.06.03 18:47:42.
