data_PCOD9261343
_publ_section_title
;
Structure prediction by ZEFSAII (Michael W. Deem and Ramdas Pophale) SiO2 
 PCOD9261343
Probable space group: C 2/C
;
_chemical_formula_sum "Si O2"
_cell_formula_units_Z 36
_cell_length_a 25.352125
_cell_length_b 6.981337
_cell_length_c 26.693917
_cell_angle_alpha 90.000000
_cell_angle_beta 163.401470
_cell_angle_gamma 90.000000
_cell_volume 1349.647812
_symmetry_space_group_name_H-M "C 2/C"
_symmetry_group_IT_number 15
_symmetry_cell_setting 'monoclinic'
loop_
_space_group_symop_operation_xyz
x,y,z
-x,y,1/2-z
-x,-y,-z
x,-y,1/2+z
1/2+x,1/2+y,z
1/2-x,1/2+y,1/2-z
1/2-x,1/2-y,-z
1/2+x,1/2-y,1/2+z
loop_
_atom_site_type_symbol
_atom_site_label
_atom_site_fract_x
_atom_site_fract_y
_atom_site_fract_z
Si Si1 0.500000 0.909010 0.750000
Si Si2 0.185371 0.025069 0.891892
Si Si3 0.280430 0.041866 0.193447
Si Si4 0.943091 0.932005 0.331523
Si Si5 0.170083 0.364111 0.165550
O O1 0.373247 0.016884 0.593447
O O2 0.646967 0.756109 0.860544
O O3 0.162637 0.984192 0.812402
O O4 0.000000 0.944532 0.750000
O O5 0.440352 0.195442 0.325495
O O6 0.162112 0.172749 0.125360
O O7 0.323004 0.865402 0.268067
O O8 0.150083 0.996609 0.028383
O O9 0.835096 0.961536 0.284572
O O10 0.000000 0.500000 0.000000
#
# Coordination Sequence:
#
# PCOD9261343 Si02
#       5
#     4   8   8   8   8
#     4   8  16  24  42  58  98 116 158 186 242 284
#     4   9  16  28  41  66  93 126 155 194 238 294
#     4  10  19  31  49  66 100 129 161 197 237 281
#     4  10  19  28  49  66  98 130 164 189 245 288
#     4  10  19  33  45  70  95 132 161 202 232 287
#
# _framework density 26.673624
#
# number of rings (size 3 to 8) (size 9 to 14) (size 15 to 20)
#    2.000    0.444    2.222    2.000    0.000    0.000 
#    0.000    0.000    0.000    0.000    0.000    0.000 
#    0.000    8.889    0.000    0.333    0.000    0.000 
#
# Total GULP energy -100231.032743 kJ/mol
# GULP energy per Si atom -5568.390708 kJ/mol
# Density = 2.661291 g / cm^3
# Si number density = 26.673624 Si / 1000 Ang^3
#
#
#
# Elastic Constant Matrix: (Units=GPa)
#
#
# Indices 1 2 3 4 5 6 
#
# 1 83.8350 -11.4826 44.0547 0.0055 -29.3046 -0.0009
# 2 -11.4826 62.2907 12.3484 -0.0222 -3.8479 -0.0072
# 3 44.0547 12.3484 200.0973 -0.0405 -50.7935 0.0013
# 4 0.0055 -0.0222 -0.0405 10.1787 -0.0186 2.8309
# 5 -29.3046 -3.8479 -50.7935 -0.0186 48.7194 0.0008
# 6 -0.0009 -0.0072 0.0013 2.8309 0.0008 -6.6107
#
#
#
# Elastic Compliance Matrix: (Units=1/GPa)
#
#
# Indices 1 2 3 4 5 6 
#
# 1 0.016254 0.003848 -0.001710 0.000009 0.008298 -0.000002
# 2 0.003848 0.017167 -0.001326 0.000035 0.002288 -0.000004
# 3 -0.001710 -0.001326 0.007028 0.000032 0.006194 0.000018
# 4 0.000009 0.000035 0.000032 0.087789 0.000075 0.037593
# 5 0.008298 0.002288 0.006194 0.000075 0.032156 0.000033
# 6 -0.000002 -0.000004 0.000018 0.037593 0.000033 -0.135171
#
#
# Mechanical properties :
#
#
# Convention : Reuss Voigt Hill
#
# Bulk Modulus (GPa) = 23.76721 48.45157 36.10939
# Shear Modulus (GPa) = 132.89392 30.54431 81.71911
#
# Velocity S-wave (km/s) = 7.06614 3.38762 5.54105
# Velocity P-wave (km/s) = 8.68928 5.78838 7.38271
#
# Compressibility (1/GPa) = 0.04207477
#
# Stress axis : x y z
#
# Youngs Moduli (GPa) = 61.52208 58.25050 142.28414
#
# Poissons Ratio (x) = -0.22414 0.24325
# Poissons Ratio (y) = -0.23673 0.18863
# Poissons Ratio (z) = 0.10518 0.07722
#
# Static dielectric constant tensor:
#      x y z
#    x 2.147720 0.000000 0.018610 
#    y 0.000000 2.120370 0.000000 
#    z 0.018610 0.000000 2.160180 
# 
# From -- ./inp_files/53857.got.cif
#   From: 2010.05.17/outbox.cif.g08.bks.cpg/sg15_27_cif.got.tgz:53857.got - 2010.06.03 18:47:42.
