data_PCOD9261153
_publ_section_title
;
Structure prediction by ZEFSAII (Michael W. Deem and Ramdas Pophale) SiO2 
 PCOD9261153
Probable space group: C 2/C
;
_chemical_formula_sum "Si O2"
_cell_formula_units_Z 48
_cell_length_a 8.818655
_cell_length_b 16.397592
_cell_length_c 19.184954
_cell_angle_alpha 90.000000
_cell_angle_beta 124.658075
_cell_angle_gamma 90.000000
_cell_volume 2281.975503
_symmetry_space_group_name_H-M "C 2/C"
_symmetry_group_IT_number 15
_symmetry_cell_setting 'monoclinic'
loop_
_space_group_symop_operation_xyz
x,y,z
-x,y,1/2-z
-x,-y,-z
x,-y,1/2+z
1/2+x,1/2+y,z
1/2-x,1/2+y,1/2-z
1/2-x,1/2-y,-z
1/2+x,1/2-y,1/2+z
loop_
_atom_site_type_symbol
_atom_site_label
_atom_site_fract_x
_atom_site_fract_y
_atom_site_fract_z
Si Si1 0.421887 0.047339 0.047511
Si Si2 0.668734 0.396790 0.662207
Si Si3 0.000000 0.271080 0.750000
Si Si4 0.155007 0.554389 0.834800
Si Si5 0.909864 0.275496 0.877292
Si Si6 0.000000 0.179183 0.250000
Si Si7 0.040087 0.127555 0.976827
O O1 0.536052 0.128528 0.101063
O O2 0.412607 0.983910 0.109642
O O3 0.213689 0.083972 0.985233
O O4 0.500000 0.000000 0.000000
O O5 0.784941 0.478578 0.697898
O O6 0.548462 0.376656 0.696852
O O7 0.556018 0.398895 0.561264
O O8 0.818365 0.325715 0.693574
O O9 0.029152 0.234934 0.680821
O O10 0.343159 0.600774 0.897168
O O11 0.000000 0.599785 0.750000
O O12 0.687642 0.273669 0.819802
O O13 0.024965 0.225072 0.964479
#
# Coordination Sequence:
#
# PCOD9261153 Si02
#       7
#     8   8   4   8   8   4   8
#     4  11  24  44  68 100 122 173 230 270 322 396
#     4  10  19  41  64  93 122 180 216 264 330 393
#     4  10  18  40  68  82 128 176 218 250 332 402
#     4  11  22  44  65  91 138 176 212 272 336 388
#     4  11  23  43  65  96 130 172 219 267 333 393
#     4  10  24  36  68  98 128 170 232 262 322 410
#     4  11  25  41  68  94 139 168 213 280 340 384
#
# _framework density 21.034406000000001
#
# number of rings (size 3 to 8) (size 9 to 14) (size 15 to 20)
#    0.000    1.333    4.167    3.500    5.833    0.667 
#    3.000    0.000    0.000    0.000    0.000    0.000 
#    0.000    0.000    0.000    0.000    0.000    0.000 
#
# Total GULP energy -133870.795270 kJ/mol
# GULP energy per Si atom -5577.949803 kJ/mol
# Density = 2.098653 g / cm^3
# Si number density = 21.034406 Si / 1000 Ang^3
#
#
#
# Elastic Constant Matrix: (Units=GPa)
#
#
# Indices 1 2 3 4 5 6 
#
# 1 155.0524 36.7605 67.6060 0.0000 -8.9460 0.0000
# 2 36.7605 52.8955 22.9840 0.0000 -3.5176 0.0000
# 3 67.6060 22.9840 99.7063 0.0000 23.4206 0.0000
# 4 0.0000 0.0000 0.0000 29.2087 0.0000 4.9202
# 5 -8.9460 -3.5176 23.4206 0.0000 43.8634 0.0000
# 6 0.0000 0.0000 0.0000 4.9202 0.0000 17.1112
#
#
#
# Elastic Compliance Matrix: (Units=1/GPa)
#
#
# Indices 1 2 3 4 5 6 
#
# 1 0.011372 -0.003848 -0.008343 0.000000 0.006465 0.000000
# 2 -0.003848 0.023268 -0.003440 0.000000 0.002918 0.000000
# 3 -0.008343 -0.003440 0.019373 0.000000 -0.012322 0.000000
# 4 0.000000 0.000000 0.000000 0.035979 0.000000 -0.010346
# 5 0.006465 0.002918 -0.012322 0.000000 0.030930 0.000000
# 6 0.000000 0.000000 0.000000 -0.010346 0.000000 0.061416
#
#
# Mechanical properties :
#
#
# Convention : Reuss Voigt Hill
#
# Bulk Modulus (GPa) = 43.95081 62.48390 53.21736
# Shear Modulus (GPa) = 22.60554 30.05690 26.33122
#
# Velocity S-wave (km/s) = 3.28181 3.78423 3.54194
# Velocity P-wave (km/s) = 5.94142 6.99028 6.48708
#
# Compressibility (1/GPa) = 0.02275271
#
# Stress axis : x y z
#
# Youngs Moduli (GPa) = 87.93193 42.97681 51.61720
#
# Poissons Ratio (x) = 0.16540 0.43062
# Poissons Ratio (y) = 0.33840 0.17754
# Poissons Ratio (z) = 0.73358 0.14782
#
# Static dielectric constant tensor:
#      x y z
#    x 1.777840 0.000000 -0.006650 
#    y 0.000000 1.785940 0.000000 
#    z -0.006650 0.000000 1.819050 
# 
# From -- ./inp_files/190684.got.cif
#   From: 2010.05.17/outbox.cif.g08.bks.cpg/sg15_96_cif.got.tgz:190684.got - 2010.06.03 18:47:42.
