data_PCOD9261618
_publ_section_title
;
Structure prediction by ZEFSAII (Michael W. Deem and Ramdas Pophale) SiO2 
 PCOD9261618
Probable space group: C 2/C
;
_chemical_formula_sum "Si O2"
_cell_formula_units_Z 64
_cell_length_a 26.537732
_cell_length_b 19.349289
_cell_length_c 5.126826
_cell_angle_alpha 90.000000
_cell_angle_beta 110.805433
_cell_angle_gamma 90.000000
_cell_volume 2460.891012
_symmetry_space_group_name_H-M "C 2/C"
_symmetry_group_IT_number 15
_symmetry_cell_setting 'monoclinic'
loop_
_space_group_symop_operation_xyz
x,y,z
-x,y,1/2-z
-x,-y,-z
x,-y,1/2+z
1/2+x,1/2+y,z
1/2-x,1/2+y,1/2-z
1/2-x,1/2-y,-z
1/2+x,1/2-y,1/2+z
loop_
_atom_site_type_symbol
_atom_site_label
_atom_site_fract_x
_atom_site_fract_y
_atom_site_fract_z
Si Si1 0.555993 0.452803 0.780939
Si Si2 0.207952 0.404311 0.187980
Si Si3 0.325412 0.454282 0.421601
Si Si4 0.148262 0.237124 0.611166
Si Si5 0.300641 0.744798 0.289548
Si Si6 0.034793 0.406066 0.576284
Si Si7 0.466391 0.745051 0.922466
Si Si8 0.349919 0.906613 0.909569
O O1 0.500000 0.413824 0.750000
O O2 0.554487 0.483418 0.486618
O O3 0.615383 0.421444 0.930552
O O4 0.270208 0.413428 0.375656
O O5 0.190550 0.324800 0.139961
O O6 0.167433 0.430669 0.336427
O O7 0.197078 0.428342 0.875321
O O8 0.323908 0.517496 0.624404
O O9 0.156079 0.213498 0.329036
O O10 0.092197 0.215725 0.633207
O O11 0.147434 0.321769 0.575223
O O12 0.193866 0.214419 0.908672
O O13 0.250000 0.750000 0.000000
O O14 0.044134 0.325723 0.672616
O O15 0.093674 0.432523 0.604364
O O16 0.000000 0.437793 0.750000
O O17 0.000000 0.405830 0.250000
O O18 0.500000 0.712446 0.750000
O O19 0.500000 0.746151 0.250000
#
# Coordination Sequence:
#
# PCOD9261618 Si02
#       8
#     8   8   8   8   8   8   8   8
#     4   8  14  25  42  65  92 118 143 177 221 264
#     4  10  19  31  46  66  95 125 153 189 234 281
#     4  10  19  31  48  71  98 124 153 190 232 283
#     4   9  17  28  42  62  87 115 148 188 230 269
#     4  10  19  31  46  64  89 123 161 194 226 265
#     4   9  15  23  37  58  85 114 145 184 228 274
#     4   9  15  23  37  58  83 110 139 175 229 283
#     4   9  17  28  42  62  92 123 148 185 233 276
#
# _framework density 26.006843
#
# number of rings (size 3 to 8) (size 9 to 14) (size 15 to 20)
#    0.000    2.750    0.000    2.625    0.000    6.000 
#    0.000    0.000    0.000    0.000    0.000    2.625 
#    0.000   43.000    0.000    0.000    0.000    0.000 
#
# Total GULP energy -178706.010887 kJ/mol
# GULP energy per Si atom -5584.562840 kJ/mol
# Density = 2.594765 g / cm^3
# Si number density = 26.006843 Si / 1000 Ang^3
#
#
#
# Elastic Constant Matrix: (Units=GPa)
#
#
# Indices 1 2 3 4 5 6 
#
# 1 178.4664 7.3644 26.9576 0.0000 2.2675 0.0000
# 2 7.3644 67.0043 -13.9050 0.0000 -7.2322 0.0000
# 3 26.9576 -13.9050 81.8203 0.0000 -8.6299 0.0000
# 4 0.0000 0.0000 0.0000 -21.6622 0.0000 0.4674
# 5 2.2675 -7.2322 -8.6299 0.0000 52.2752 0.0000
# 6 0.0000 0.0000 0.0000 0.4674 0.0000 14.9951
#
#
#
# Elastic Compliance Matrix: (Units=1/GPa)
#
#
# Indices 1 2 3 4 5 6 
#
# 1 0.006007 -0.001218 -0.002271 0.000000 -0.000804 0.000000
# 2 -0.001218 0.016078 0.003434 0.000000 0.002844 0.000000
# 3 -0.002271 0.003434 0.013855 0.000000 0.002861 0.000000
# 4 0.000000 0.000000 0.000000 -0.046132 0.000000 0.001438
# 5 -0.000804 0.002844 0.002861 0.000000 0.020030 0.000000
# 6 0.000000 0.000000 0.000000 0.001438 0.000000 0.066644
#
#
# Mechanical properties :
#
#
# Convention : Reuss Voigt Hill
#
# Bulk Modulus (GPa) = 27.91021 40.90278 34.40649
# Shear Modulus (GPa) = 56.47451 29.57987 43.02719
#
# Velocity S-wave (km/s) = 4.66502 3.37618 4.07191
# Velocity P-wave (km/s) = 6.30648 5.56417 5.94692
#
# Compressibility (1/GPa) = 0.03582918
#
# Stress axis : x y z
#
# Youngs Moduli (GPa) = 166.47774 62.19728 72.17395
#
# Poissons Ratio (x) = 0.07577 0.16390
# Poissons Ratio (y) = 0.20281 -0.24783
# Poissons Ratio (z) = 0.37806 -0.21357
#
# Static dielectric constant tensor:
#      x y z
#    x 2.098610 0.000000 0.050360 
#    y 0.000000 2.086420 0.000000 
#    z 0.050360 0.000000 2.060510 
# 
# From -- ./inp_files/16572.got.cif
#   From: 2010.05.17/outbox.cif.g08.bks.cpg/sg15_9_cif.got.tgz:16572.got - 2010.06.03 18:47:42.
