data_PCOD9261321
_publ_section_title
;
Structure prediction by ZEFSAII (Michael W. Deem and Ramdas Pophale) SiO2 
 PCOD9261321
Probable space group: C 2/C
;
_chemical_formula_sum "Si O2"
_cell_formula_units_Z 40
_cell_length_a 11.973694
_cell_length_b 26.381981
_cell_length_c 9.840315
_cell_angle_alpha 90.000000
_cell_angle_beta 146.940661
_cell_angle_gamma 90.000000
_cell_volume 1695.684861
_symmetry_space_group_name_H-M "C 2/C"
_symmetry_group_IT_number 15
_symmetry_cell_setting 'monoclinic'
loop_
_space_group_symop_operation_xyz
x,y,z
-x,y,1/2-z
-x,-y,-z
x,-y,1/2+z
1/2+x,1/2+y,z
1/2-x,1/2+y,1/2-z
1/2-x,1/2-y,-z
1/2+x,1/2-y,1/2+z
loop_
_atom_site_type_symbol
_atom_site_label
_atom_site_fract_x
_atom_site_fract_y
_atom_site_fract_z
Si Si1 0.187417 0.468199 0.256793
Si Si2 0.432120 0.120542 0.461747
Si Si3 0.070214 0.058364 0.955272
Si Si4 0.273132 0.816117 0.400911
Si Si5 0.178149 0.202361 0.119439
O O1 0.305778 0.508286 0.472207
O O2 0.370604 0.454874 0.339194
O O3 0.000000 0.500000 0.000000
O O4 0.081405 0.416385 0.199064
O O5 0.587105 0.137462 0.500194
O O6 0.319991 0.174474 0.375859
O O7 0.239453 0.087886 0.214201
O O8 0.000000 0.087595 0.750000
O O9 0.262731 0.808042 0.552188
O O10 0.346637 0.762933 0.407895
O O11 0.046712 0.821438 0.109330
#
# Coordination Sequence:
#
# PCOD9261321 Si02
#       5
#     8   8   8   8   8
#     4   9  21  38  52  74 104 133 175 231 265 313
#     4  11  20  30  49  68 100 139 177 209 259 303
#     4  10  22  36  54  77 100 136 180 223 270 319
#     4  10  19  29  40  65  99 139 176 212 240 293
#     4  10  19  28  40  64 100 137 179 208 242 294
#
# _framework density 23.589288
#
# number of rings (size 3 to 8) (size 9 to 14) (size 15 to 20)
#    0.000    2.000    2.000    1.800    8.400    2.400 
#    0.000    0.000    0.000    0.000    0.000    0.000 
#    0.000    1.600    0.000    5.000    0.000    0.200 
#
# Total GULP energy -111416.385476 kJ/mol
# GULP energy per Si atom -5570.819274 kJ/mol
# Density = 2.353560 g / cm^3
# Si number density = 23.589288 Si / 1000 Ang^3
#
#
#
# Elastic Constant Matrix: (Units=GPa)
#
#
# Indices 1 2 3 4 5 6 
#
# 1 69.0906 22.2550 27.4914 0.0000 30.1264 0.0000
# 2 22.2550 106.6950 38.8588 0.0000 17.6528 0.0000
# 3 27.4914 38.8588 86.4806 0.0000 44.5277 0.0000
# 4 0.0000 0.0000 0.0000 48.5782 0.0000 19.5108
# 5 30.1264 17.6528 44.5277 0.0000 32.1553 0.0000
# 6 0.0000 0.0000 0.0000 19.5108 0.0000 23.0389
#
#
#
# Elastic Compliance Matrix: (Units=1/GPa)
#
#
# Indices 1 2 3 4 5 6 
#
# 1 0.032780 -0.005170 0.021792 0.000000 -0.058051 0.000000
# 2 -0.005170 0.012098 -0.009989 0.000000 0.012034 0.000000
# 3 0.021792 -0.009989 0.058582 0.000000 -0.096056 0.000000
# 4 0.000000 0.000000 0.000000 0.031196 0.000000 -0.026419
# 5 -0.058051 0.012034 -0.096056 0.000000 0.211896 0.000000
# 6 0.000000 0.000000 0.000000 -0.026419 0.000000 0.065778
#
#
# Mechanical properties :
#
#
# Convention : Reuss Voigt Hill
#
# Bulk Modulus (GPa) = 8.56701 48.83077 28.69889
# Shear Modulus (GPa) = 11.41624 32.33187 21.87405
#
# Velocity S-wave (km/s) = 2.20229 3.70620 3.04844
# Velocity P-wave (km/s) = 3.17906 6.24979 4.95814
#
# Compressibility (1/GPa) = 0.11672684
#
# Stress axis : x y z
#
# Youngs Moduli (GPa) = 30.50605 82.66010 17.07006
#
# Poissons Ratio (x) = 0.42733 -0.37199
# Poissons Ratio (y) = 0.15771 0.17051
# Poissons Ratio (z) = -0.66478 0.82568
#
# Static dielectric constant tensor:
#      x y z
#    x 1.864930 0.000000 0.056310 
#    y 0.000000 2.058050 0.000000 
#    z 0.056310 0.000000 1.949330 
# 
# From -- ./inp_files/101003.got.cif
#   From: 2010.05.17/outbox.cif.g08.bks.cpg/sg15_51_cif.got.tgz:101003.got - 2010.06.03 18:47:42.
