data_PCOD9261629
_publ_section_title
;
Structure prediction by ZEFSAII (Michael W. Deem and Ramdas Pophale) SiO2 
 PCOD9261629
Probable space group: C 2/C
;
_chemical_formula_sum "Si O2"
_cell_formula_units_Z 60
_cell_length_a 21.278496
_cell_length_b 4.990848
_cell_length_c 26.045078
_cell_angle_alpha 90.000000
_cell_angle_beta 126.528650
_cell_angle_gamma 90.000000
_cell_volume 2222.587564
_symmetry_space_group_name_H-M "C 2/C"
_symmetry_group_IT_number 15
_symmetry_cell_setting 'monoclinic'
loop_
_space_group_symop_operation_xyz
x,y,z
-x,y,1/2-z
-x,-y,-z
x,-y,1/2+z
1/2+x,1/2+y,z
1/2-x,1/2+y,1/2-z
1/2-x,1/2-y,-z
1/2+x,1/2-y,1/2+z
loop_
_atom_site_type_symbol
_atom_site_label
_atom_site_fract_x
_atom_site_fract_y
_atom_site_fract_z
Si Si1 0.331614 0.005356 0.614928
Si Si2 0.502946 0.798768 0.613116
Si Si3 0.000000 0.558916 0.750000
Si Si4 0.942961 0.250522 0.964475
Si Si5 0.705532 0.825478 0.204913
Si Si6 0.591805 0.453356 0.722589
Si Si7 0.396625 0.711452 0.048525
Si Si8 0.766648 0.021310 0.633597
O O1 0.418591 0.953881 0.682062
O O2 0.340711 0.158705 0.564424
O O3 0.282642 0.217345 0.624884
O O4 0.283353 0.728234 0.595476
O O5 0.569327 0.746817 0.602230
O O6 0.543026 0.713216 0.684493
O O7 0.428852 0.590444 0.571835
O O8 0.470485 0.092705 0.591573
O O9 0.036315 0.759052 0.726046
O O10 0.879219 0.246650 0.979033
O O11 0.000000 0.500000 0.000000
O O12 0.000000 0.000000 0.000000
O O13 0.766999 0.590049 0.250802
O O14 0.627701 0.708777 0.192496
O O15 0.699034 0.886047 0.140517
O O16 0.662095 0.551199 0.791625
#
# Coordination Sequence:
#
# PCOD9261629 Si02
#       8
#     8   8   4   8   8   8   8   8
#     4  11  21  32  49  70 101 132 162 197 246 293
#     4  10  19  31  47  73  98 128 162 197 246 300
#     4  10  20  30  44  72 106 122 156 188 252 294
#     4   8  16  30  46  64  95 128 160 195 234 295
#     4  10  20  37  52  67  94 136 178 209 240 278
#     4  10  21  33  51  73 101 133 160 207 245 294
#     4  10  19  31  47  70 100 131 159 195 247 300
#     4  10  22  34  48  69  96 134 173 199 231 289
#
# _framework density 26.995560999999999
#
# number of rings (size 3 to 8) (size 9 to 14) (size 15 to 20)
#    0.000    2.133    1.333    3.200    3.733    2.667 
#    0.000    0.000    0.000    0.000    0.000    1.867 
#    0.000    0.000    0.000    1.600    0.000    0.000 
#
# Total GULP energy -167659.685553 kJ/mol
# GULP energy per Si atom -5588.656185 kJ/mol
# Density = 2.693412 g / cm^3
# Si number density = 26.995561 Si / 1000 Ang^3
#
#
#
# Elastic Constant Matrix: (Units=GPa)
#
#
# Indices 1 2 3 4 5 6 
#
# 1 127.7964 16.5963 9.9915 -0.0038 -13.6097 0.0038
# 2 16.5963 132.0374 -9.9772 -0.0006 8.0526 0.0054
# 3 9.9915 -9.9772 28.8329 -0.0017 -2.6111 0.0017
# 4 -0.0038 -0.0006 -0.0017 13.8391 0.0005 -10.7113
# 5 -13.6097 8.0526 -2.6111 0.0005 38.9014 -0.0015
# 6 0.0038 0.0054 0.0017 -10.7113 -0.0015 27.7841
#
#
#
# Elastic Compliance Matrix: (Units=1/GPa)
#
#
# Indices 1 2 3 4 5 6 
#
# 1 0.008605 -0.001515 -0.003225 0.000002 0.003107 0.000000
# 2 -0.001515 0.008124 0.003155 -0.000001 -0.002000 -0.000002
# 3 -0.003225 0.003155 0.036955 0.000003 0.000699 -0.000001
# 4 0.000002 -0.000001 0.000003 0.102989 0.000001 0.039704
# 5 0.003107 -0.002000 0.000699 0.000001 0.027254 0.000002
# 6 0.000000 -0.000002 -0.000001 0.039704 0.000002 0.051298
#
#
# Mechanical properties :
#
#
# Convention : Reuss Voigt Hill
#
# Bulk Modulus (GPa) = 19.79575 35.76532 27.78054
# Shear Modulus (GPa) = 19.58995 34.24200 26.91598
#
# Velocity S-wave (km/s) = 2.69675 3.56537 3.16104
# Velocity P-wave (km/s) = 4.12862 5.49786 4.86169
#
# Compressibility (1/GPa) = 0.05051590
#
# Stress axis : x y z
#
# Youngs Moduli (GPa) = 116.21570 123.08621 27.05987
#
# Poissons Ratio (x) = 0.18644 0.08726
# Poissons Ratio (y) = 0.17604 -0.08538
# Poissons Ratio (z) = 0.37474 -0.38835
#
# Static dielectric constant tensor:
#      x y z
#    x 2.224320 0.000000 -0.045910 
#    y 0.000000 2.059340 0.000000 
#    z -0.045910 0.000000 2.195360 
# 
# From -- ./inp_files/317017.got.cif
#   From: 2010.05.17/outbox.cif.g08.bks.cpg/sg15_159_cif.got.tgz:317017.got - 2010.06.03 18:47:42.
