data_PCOD9261670
_publ_section_title
;
Structure prediction by ZEFSAII (Michael W. Deem and Ramdas Pophale) SiO2 
 PCOD9261670
Probable space group: C 2/C
;
_chemical_formula_sum "Si O2"
_cell_formula_units_Z 48
_cell_length_a 18.440635
_cell_length_b 18.133776
_cell_length_c 12.492080
_cell_angle_alpha 90.000000
_cell_angle_beta 144.852154
_cell_angle_gamma 90.000000
_cell_volume 2404.840356
_symmetry_space_group_name_H-M "C 2/C"
_symmetry_group_IT_number 15
_symmetry_cell_setting 'monoclinic'
loop_
_space_group_symop_operation_xyz
x,y,z
-x,y,1/2-z
-x,-y,-z
x,-y,1/2+z
1/2+x,1/2+y,z
1/2-x,1/2+y,1/2-z
1/2-x,1/2-y,-z
1/2+x,1/2-y,1/2+z
loop_
_atom_site_type_symbol
_atom_site_label
_atom_site_fract_x
_atom_site_fract_y
_atom_site_fract_z
Si Si1 0.504570 0.580560 0.632352
Si Si2 0.643363 0.886377 0.138346
Si Si3 0.793791 0.027422 0.235117
Si Si4 0.088669 0.577666 0.256313
Si Si5 0.127966 0.407525 0.351330
Si Si6 0.777055 0.823695 0.096758
O O1 0.500000 0.559784 0.750000
O O2 0.369470 0.574226 0.413877
O O3 0.600375 0.523598 0.692144
O O4 0.575672 0.658873 0.709635
O O5 0.697894 0.967722 0.170912
O O6 0.672595 0.867743 0.296807
O O7 0.707522 0.833039 0.127433
O O8 0.491841 0.891616 0.939530
O O9 0.726543 0.077309 0.065124
O O10 0.097411 0.489914 0.269633
O O11 0.219596 0.613604 0.448058
O O12 0.000000 0.597774 0.250000
O O13 0.000000 0.377563 0.250000
O O14 0.750000 0.750000 0.000000
#
# Coordination Sequence:
#
# PCOD9261670 Si02
#       6
#     8   8   8   8   8   8
#     4  10  20  32  49  76 111 151 190 232 289 341
#     4  10  19  32  54  79 121 149 185 245 301 342
#     4  10  19  31  48  79 119 149 179 229 297 367
#     4   9  16  31  51  80 110 145 186 235 293 340
#     4  11  18  29  52  86 117 148 179 234 308 364
#     4  10  21  37  53  77 112 156 203 243 280 335
#
# _framework density 19.959745999999999
#
# number of rings (size 3 to 8) (size 9 to 14) (size 15 to 20)
#    0.000    2.000    6.667    1.500    0.000    2.000 
#    0.000    0.000    0.000    0.000    0.000   12.833 
#    0.000    1.333    0.000    0.000    0.000    0.000 
#
# Total GULP energy -133793.493125 kJ/mol
# GULP energy per Si atom -5574.728880 kJ/mol
# Density = 1.991432 g / cm^3
# Si number density = 19.959746 Si / 1000 Ang^3
#
#
#
# Elastic Constant Matrix: (Units=GPa)
#
#
# Indices 1 2 3 4 5 6 
#
# 1 97.2662 20.1962 43.5857 0.0000 -32.4667 0.0000
# 2 20.1962 34.7665 16.8100 0.0000 -4.3402 0.0000
# 3 43.5857 16.8100 143.9437 0.0000 -21.8912 0.0000
# 4 0.0000 0.0000 0.0000 22.0789 0.0000 -10.7774
# 5 -32.4667 -4.3402 -21.8912 0.0000 28.6365 0.0000
# 6 0.0000 0.0000 0.0000 -10.7774 0.0000 5.3172
#
#
#
# Elastic Compliance Matrix: (Units=1/GPa)
#
#
# Indices 1 2 3 4 5 6 
#
# 1 0.019125 -0.007775 -0.001997 0.000000 0.018978 0.000000
# 2 -0.007775 0.033763 -0.002434 0.000000 -0.005559 0.000000
# 3 -0.001997 -0.002434 0.008414 0.000000 0.003799 0.000000
# 4 0.000000 0.000000 0.000000 4.268839 0.000000 8.652479
# 5 0.018978 -0.005559 0.003799 0.000000 0.058499 0.000000
# 6 0.000000 0.000000 0.000000 8.652479 0.000000 17.725714
#
#
# Mechanical properties :
#
#
# Convention : Reuss Voigt Hill
#
# Bulk Modulus (GPa) = 27.10766 48.57335 37.84050
# Shear Modulus (GPa) = 0.22572 24.23215 12.22894
#
# Velocity S-wave (km/s) = 0.33665 3.48810 2.47792
# Velocity P-wave (km/s) = 3.70968 6.37267 5.21405
#
# Compressibility (1/GPa) = 0.03688995
#
# Stress axis : x y z
#
# Youngs Moduli (GPa) = 52.28745 29.61825 118.85230
#
# Poissons Ratio (x) = 0.23029 0.23732
# Poissons Ratio (y) = 0.40655 0.28928
# Poissons Ratio (z) = 0.10441 0.07209
#
# Static dielectric constant tensor:
#      x y z
#    x 1.767490 0.000000 0.010260 
#    y 0.000000 1.715860 0.000000 
#    z 0.010260 0.000000 1.770810 
# 
# From -- ./inp_files/99180.got.cif
#   From: 2010.05.17/outbox.cif.g08.bks.cpg/sg15_50_cif.got.tgz:99180.got - 2010.06.03 18:47:42.
