data_PCOD9261578
_publ_section_title
;
Structure prediction by ZEFSAII (Michael W. Deem and Ramdas Pophale) SiO2 
 PCOD9261578
Probable space group: C 2/C
;
_chemical_formula_sum "Si O2"
_cell_formula_units_Z 48
_cell_length_a 14.752540
_cell_length_b 9.985365
_cell_length_c 14.191007
_cell_angle_alpha 90.000000
_cell_angle_beta 84.870196
_cell_angle_gamma 90.000000
_cell_volume 2082.097116
_symmetry_space_group_name_H-M "C 2/C"
_symmetry_group_IT_number 15
_symmetry_cell_setting 'monoclinic'
loop_
_space_group_symop_operation_xyz
x,y,z
-x,y,1/2-z
-x,-y,-z
x,-y,1/2+z
1/2+x,1/2+y,z
1/2-x,1/2+y,1/2-z
1/2-x,1/2-y,-z
1/2+x,1/2-y,1/2+z
loop_
_atom_site_type_symbol
_atom_site_label
_atom_site_fract_x
_atom_site_fract_y
_atom_site_fract_z
Si Si1 0.435965 0.669058 0.896029
Si Si2 0.683030 0.553756 0.293767
Si Si3 0.873499 0.834520 0.064609
Si Si4 0.763043 0.075323 0.008870
Si Si5 0.500000 0.101361 0.250000
Si Si6 0.500000 0.560745 0.250000
Si Si7 0.342706 0.963592 0.630827
O O1 0.518698 0.660348 0.963556
O O2 0.338680 0.665559 0.952679
O O3 0.451368 0.797533 0.828338
O O4 0.453544 0.536287 0.831887
O O5 0.646440 0.408573 0.333257
O O6 0.737425 0.605122 0.380185
O O7 0.589507 0.633914 0.282224
O O8 0.751902 0.538069 0.202514
O O9 0.851890 0.681210 0.081485
O O10 0.811896 0.925857 0.003523
O O11 0.673739 0.064520 0.953885
O O12 0.572664 0.020206 0.305831
#
# Coordination Sequence:
#
# PCOD9261578 Si02
#       7
#     8   8   8   8   4   4   8
#     4   9  15  31  53  78 109 132 176 221 263 327
#     4   9  20  30  52  81 109 142 176 215 280 316
#     4   8  19  31  51  83 109 136 180 212 275 321
#     4  10  19  30  54  88 103 140 173 237 270 310
#     4   9  22  34  56  77 100 158 193 202 270 327
#     4   9  14  28  48  81 104 142 157 214 280 313
#     4  11  19  36  54  76 111 148 180 227 255 333
#
# _framework density 23.05368
#
# number of rings (size 3 to 8) (size 9 to 14) (size 15 to 20)
#    1.000    1.667    1.667    2.000    0.000    0.000 
#    0.000    1.667    0.000    1.000    0.000    0.000 
#    0.000    0.000    0.000    0.000    0.000    0.000 
#
# Total GULP energy -133797.207518 kJ/mol
# GULP energy per Si atom -5574.883647 kJ/mol
# Density = 2.300121 g / cm^3
# Si number density = 23.053680 Si / 1000 Ang^3
#
#
#
# Elastic Constant Matrix: (Units=GPa)
#
#
# Indices 1 2 3 4 5 6 
#
# 1 112.5504 24.4783 26.9640 0.0000 51.7469 0.0000
# 2 24.4783 48.9585 9.9007 0.0000 9.5134 0.0000
# 3 26.9640 9.9007 80.8852 0.0000 26.1562 0.0000
# 4 0.0000 0.0000 0.0000 12.1824 0.0000 -1.2107
# 5 51.7469 9.5134 26.1562 0.0000 46.5599 0.0000
# 6 0.0000 0.0000 0.0000 -1.2107 0.0000 6.5310
#
#
#
# Elastic Compliance Matrix: (Units=1/GPa)
#
#
# Indices 1 2 3 4 5 6 
#
# 1 0.019706 -0.005929 0.001035 0.000000 -0.021272 0.000000
# 2 -0.005929 0.023196 -0.001785 0.000000 0.002852 0.000000
# 3 0.001035 -0.001785 0.015264 0.000000 -0.009360 0.000000
# 4 0.000000 0.000000 0.000000 0.083626 0.000000 0.015503
# 5 -0.021272 0.002852 -0.009360 0.000000 0.049795 0.000000
# 6 0.000000 0.000000 0.000000 0.015503 0.000000 0.155990
#
#
# Mechanical properties :
#
#
# Convention : Reuss Voigt Hill
#
# Bulk Modulus (GPa) = 22.31712 40.56443 31.44077
# Shear Modulus (GPa) = 13.30240 25.12474 19.21357
#
# Velocity S-wave (km/s) = 2.40473 3.30485 2.89005
# Velocity P-wave (km/s) = 4.17274 5.67420 4.98038
#
# Compressibility (1/GPa) = 0.04480865
#
# Stress axis : x y z
#
# Youngs Moduli (GPa) = 50.74474 43.11001 65.51554
#
# Poissons Ratio (x) = 0.25559 -0.06782
# Poissons Ratio (y) = 0.30085 0.11697
# Poissons Ratio (z) = -0.05253 0.07697
#
# Static dielectric constant tensor:
#      x y z
#    x 1.951380 0.000000 0.087390 
#    y 0.000000 1.870020 0.000000 
#    z 0.087390 0.000000 1.850990 
# 
# From -- ./inp_files/153003.got.cif
#   From: 2010.05.17/outbox.cif.g08.bks.cpg/sg15_77_cif.got.tgz:153003.got - 2010.06.03 18:47:42.
