data_PCOD9261116
_publ_section_title
;
Structure prediction by ZEFSAII (Michael W. Deem and Ramdas Pophale) SiO2 
 PCOD9261116
Probable space group: C 2/C
;
_chemical_formula_sum "Si O2"
_cell_formula_units_Z 56
_cell_length_a 5.080686
_cell_length_b 24.313860
_cell_length_c 18.569810
_cell_angle_alpha 90.000000
_cell_angle_beta 82.404061
_cell_angle_gamma 90.000000
_cell_volume 2273.819232
_symmetry_space_group_name_H-M "C 2/C"
_symmetry_group_IT_number 15
_symmetry_cell_setting 'monoclinic'
loop_
_space_group_symop_operation_xyz
x,y,z
-x,y,1/2-z
-x,-y,-z
x,-y,1/2+z
1/2+x,1/2+y,z
1/2-x,1/2+y,1/2-z
1/2-x,1/2-y,-z
1/2+x,1/2-y,1/2+z
loop_
_atom_site_type_symbol
_atom_site_label
_atom_site_fract_x
_atom_site_fract_y
_atom_site_fract_z
Si Si1 0.000000 0.271394 0.250000
Si Si2 0.948564 0.987120 0.417359
Si Si3 0.449409 0.145085 0.060373
Si Si4 0.390558 0.247527 0.128248
Si Si5 0.500000 0.162214 0.250000
Si Si6 0.912806 0.896519 0.644072
Si Si7 0.938854 0.419328 0.413357
Si Si8 0.866515 0.850284 0.316099
O O1 0.090434 0.245748 0.170948
O O2 0.245382 0.308031 0.262010
O O3 0.152269 0.937124 0.394364
O O4 0.641584 0.970571 0.418084
O O5 0.037177 0.038630 0.366452
O O6 0.000000 0.000000 0.500000
O O7 0.440775 0.211523 0.055457
O O8 0.721539 0.122331 0.084730
O O9 0.201886 0.129421 0.120925
O O10 0.400160 0.112841 0.989004
O O11 0.512443 0.205884 0.183871
O O12 0.501829 0.309712 0.128100
O O13 0.252445 0.123279 0.280092
O O14 0.111635 0.379890 0.357652
O O15 0.000000 0.889350 0.250000
#
# Coordination Sequence:
#
# PCOD9261116 Si02
#       8
#     4   8   8   8   4   8   8   8
#     4  10  18  40  65  82 132 175 212 246 326 380
#     4  12  23  45  70  90 128 177 217 269 334 382
#     4  11  22  38  66  99 128 164 215 267 321 390
#     4  10  20  37  65  91 129 170 209 263 328 390
#     4  10  20  40  63  98 126 165 208 270 318 380
#     4  11  23  40  65  97 129 163 219 268 326 382
#     4  12  25  43  68  95 129 175 220 269 325 391
#     4  10  24  42  64  95 130 179 218 265 320 401
#
# _framework density 24.628167000000001
#
# number of rings (size 3 to 8) (size 9 to 14) (size 15 to 20)
#    0.000    1.143    5.000    2.143    6.000    2.286 
#    2.571    0.714    0.000    0.000    0.000    0.000 
#    0.000    0.000    0.000    0.000    0.000    0.000 
#
# Total GULP energy -156155.858579 kJ/mol
# GULP energy per Si atom -5576.994949 kJ/mol
# Density = 2.457211 g / cm^3
# Si number density = 24.628167 Si / 1000 Ang^3
#
#
#
# Elastic Constant Matrix: (Units=GPa)
#
#
# Indices 1 2 3 4 5 6 
#
# 1 86.2824 -5.3911 2.8296 0.0000 -13.1823 0.0000
# 2 -5.3911 69.4612 17.7454 0.0000 -12.9282 0.0000
# 3 2.8296 17.7454 58.9437 0.0000 -22.9503 0.0000
# 4 0.0000 0.0000 0.0000 10.2261 0.0000 -6.8646
# 5 -13.1823 -12.9282 -22.9503 0.0000 36.4431 0.0000
# 6 0.0000 0.0000 0.0000 -6.8646 0.0000 31.2894
#
#
#
# Elastic Compliance Matrix: (Units=1/GPa)
#
#
# Indices 1 2 3 4 5 6 
#
# 1 0.012565 0.001778 0.001162 0.000000 0.005907 0.000000
# 2 0.001778 0.016175 -0.003273 0.000000 0.004320 0.000000
# 3 0.001162 -0.003273 0.023326 0.000000 0.013949 0.000000
# 4 0.000000 0.000000 0.000000 0.114678 0.000000 0.025159
# 5 0.005907 0.004320 0.013949 0.000000 0.039894 0.000000
# 6 0.000000 0.000000 0.000000 0.025159 0.000000 0.037479
#
#
# Mechanical properties :
#
#
# Convention : Reuss Voigt Hill
#
# Bulk Modulus (GPa) = 19.45535 27.22834 23.34184
# Shear Modulus (GPa) = 19.09005 28.89195 23.99100
#
# Velocity S-wave (km/s) = 2.78714 3.42881 3.12449
# Velocity P-wave (km/s) = 4.27484 5.17256 4.74498
#
# Compressibility (1/GPa) = 0.05139976
#
# Stress axis : x y z
#
# Youngs Moduli (GPa) = 79.58369 61.82502 42.87065
#
# Poissons Ratio (x) = -0.10992 -0.04980
# Poissons Ratio (y) = -0.14150 0.14031
# Poissons Ratio (z) = -0.09245 0.20234
#
# Static dielectric constant tensor:
#      x y z
#    x 2.139770 0.000000 -0.134210 
#    y 0.000000 2.096500 0.000000 
#    z -0.134210 0.000000 2.222850 
# 
# From -- ./inp_files/228333.got.cif
#   From: 2010.05.17/outbox.cif.g08.bks.cpg/sg15_115_cif.got.tgz:228333.got - 2010.06.03 18:47:42.
