data_PCOD9261748
_publ_section_title
;
Structure prediction by ZEFSAII (Michael W. Deem and Ramdas Pophale) SiO2 
 PCOD9261748
Probable space group: C 2/C
;
_chemical_formula_sum "Si O2"
_cell_formula_units_Z 56
_cell_length_a 18.642585
_cell_length_b 19.135499
_cell_length_c 21.052884
_cell_angle_alpha 90.000000
_cell_angle_beta 24.525430
_cell_angle_gamma 90.000000
_cell_volume 3117.505268
_symmetry_space_group_name_H-M "C 2/C"
_symmetry_group_IT_number 15
_symmetry_cell_setting 'monoclinic'
loop_
_space_group_symop_operation_xyz
x,y,z
-x,y,1/2-z
-x,-y,-z
x,-y,1/2+z
1/2+x,1/2+y,z
1/2-x,1/2+y,1/2-z
1/2-x,1/2-y,-z
1/2+x,1/2-y,1/2+z
loop_
_atom_site_type_symbol
_atom_site_label
_atom_site_fract_x
_atom_site_fract_y
_atom_site_fract_z
Si Si1 0.467597 0.638502 0.143580
Si Si2 0.442221 0.226762 0.862485
Si Si3 0.682679 0.121138 0.713799
Si Si4 0.796906 0.427315 0.167648
Si Si5 0.499288 0.484385 0.175225
Si Si6 0.353267 0.967350 0.815906
Si Si7 0.347546 0.085551 0.180649
O O1 0.452979 0.703763 0.202660
O O2 0.470247 0.565783 0.179898
O O3 0.311411 0.630261 0.219275
O O4 0.653819 0.648065 0.958964
O O5 0.500000 0.193199 0.750000
O O6 0.509485 0.168296 0.856572
O O7 0.250000 0.250000 0.000000
O O8 0.751546 0.113416 0.729770
O O9 0.632473 0.046341 0.723837
O O10 0.651340 0.437138 0.232604
O O11 0.823148 0.506254 0.173750
O O12 0.968338 0.395590 0.998098
O O13 0.500000 0.478167 0.250000
O O14 0.674050 0.463583 0.998298
O O15 0.500000 0.954141 0.750000
O O16 0.353658 0.919691 0.752167
#
# Coordination Sequence:
#
# PCOD9261748 Si02
#       7
#     8   8   8   8   8   8   8
#     4  10  21  35  50  70 102 139 175 212 256 304
#     4  12  24  37  51  75 106 141 182 215 250 299
#     4  10  21  35  50  70 102 140 174 214 256 301
#     4   9  18  32  50  72  98 129 171 212 258 310
#     4  10  19  32  51  76 103 133 170 214 261 307
#     4  10  19  31  52  74 104 134 169 213 262 308
#     4   9  18  32  50  73  97 131 170 211 259 311
#
# _framework density 17.963082
#
# number of rings (size 3 to 8) (size 9 to 14) (size 15 to 20)
#    0.000    2.000    1.429    2.571    4.000    4.571 
#    0.000    0.000    0.000    0.000    0.000    1.000 
#    0.000    6.857    0.000    0.000    0.000    0.000 
#
# Total GULP energy -155955.618076 kJ/mol
# GULP energy per Si atom -5569.843503 kJ/mol
# Density = 1.792220 g / cm^3
# Si number density = 17.963082 Si / 1000 Ang^3
#
#
#
# Elastic Constant Matrix: (Units=GPa)
#
#
# Indices 1 2 3 4 5 6 
#
# 1 163.7312 20.9873 47.2686 -0.0010 -4.4451 0.0023
# 2 20.9873 22.1177 12.0441 0.0005 -7.6866 0.0043
# 3 47.2686 12.0441 65.4025 0.0097 -10.0095 -0.0009
# 4 -0.0010 0.0005 0.0097 16.3976 0.0044 -6.3994
# 5 -4.4451 -7.6866 -10.0095 0.0044 36.0659 -0.0051
# 6 0.0023 0.0043 -0.0009 -6.3994 -0.0051 24.0291
#
#
#
# Elastic Compliance Matrix: (Units=1/GPa)
#
#
# Indices 1 2 3 4 5 6 
#
# 1 0.008282 -0.005586 -0.005204 0.000005 -0.001614 0.000001
# 2 -0.005586 0.056647 -0.004859 -0.000005 0.010036 -0.000009
# 3 -0.005204 -0.004859 0.020563 -0.000014 0.004030 -0.000001
# 4 0.000005 -0.000005 -0.000014 0.068058 -0.000010 0.018125
# 5 -0.001614 0.010036 0.004030 -0.000010 0.030785 0.000002
# 6 0.000001 -0.000009 -0.000001 0.018125 0.000002 0.046443
#
#
# Mechanical properties :
#
#
# Convention : Reuss Voigt Hill
#
# Bulk Modulus (GPa) = 18.45219 45.76129 32.10674
# Shear Modulus (GPa) = 17.84818 26.69530 22.27174
#
# Velocity S-wave (km/s) = 3.15557 3.85920 3.52499
# Velocity P-wave (km/s) = 4.85504 6.73709 5.87196
#
# Compressibility (1/GPa) = 0.05419412
#
# Stress axis : x y z
#
# Youngs Moduli (GPa) = 120.74105 17.65328 48.63188
#
# Poissons Ratio (x) = 0.09861 0.25309
# Poissons Ratio (y) = 0.67445 0.23628
# Poissons Ratio (z) = 0.62836 0.08577
#
# Static dielectric constant tensor:
#      x y z
#    x 1.627240 -0.000010 -0.014510 
#    y -0.000010 1.602780 0.000010 
#    z -0.014510 0.000010 1.663050 
# 
# From -- ./inp_files/63217.got.cif
#   From: 2010.05.17/outbox.cif.g08.bks.cpg/sg15_32_cif.got.tgz:63217.got - 2010.06.03 18:47:42.
