data_PCOD9261290
_publ_section_title
;
Structure prediction by ZEFSAII (Michael W. Deem and Ramdas Pophale) SiO2 
 PCOD9261290
Probable space group: C 2/C
;
_chemical_formula_sum "Si O2"
_cell_formula_units_Z 48
_cell_length_a 22.331907
_cell_length_b 9.550992
_cell_length_c 8.783425
_cell_angle_alpha 90.000000
_cell_angle_beta 69.384857
_cell_angle_gamma 90.000000
_cell_volume 1753.470646
_symmetry_space_group_name_H-M "C 2/C"
_symmetry_group_IT_number 15
_symmetry_cell_setting 'monoclinic'
loop_
_space_group_symop_operation_xyz
x,y,z
-x,y,1/2-z
-x,-y,-z
x,-y,1/2+z
1/2+x,1/2+y,z
1/2-x,1/2+y,1/2-z
1/2-x,1/2-y,-z
1/2+x,1/2-y,1/2+z
loop_
_atom_site_type_symbol
_atom_site_label
_atom_site_fract_x
_atom_site_fract_y
_atom_site_fract_z
Si Si1 0.648183 0.768550 0.556494
Si Si2 0.919656 0.645718 0.112297
Si Si3 0.082142 0.898918 0.909412
Si Si4 0.000000 0.016519 0.750000
Si Si5 0.711349 0.037396 0.399027
Si Si6 0.500000 0.074594 0.750000
Si Si7 0.700415 0.478283 0.445910
O O1 0.596463 0.746521 0.736015
O O2 0.615315 0.747399 0.420233
O O3 0.677076 0.921052 0.533455
O O4 0.696355 0.638754 0.514186
O O5 0.847339 0.626765 0.110847
O O6 0.952615 0.523899 0.189136
O O7 0.962304 0.656029 0.920203
O O8 0.132185 0.018232 0.921920
O O9 0.057902 0.923685 0.764117
O O10 0.023766 0.903445 0.080178
O O11 0.771640 0.105050 0.435394
O O12 0.746406 0.961027 0.229179
#
# Coordination Sequence:
#
# PCOD9261290 Si02
#       7
#     8   8   8   4   8   4   8
#     4  10  23  40  65 102 132 181 229 277 353 407
#     4  11  21  40  67  94 134 183 225 280 346 398
#     4   9  22  38  71  98 129 183 219 287 343 403
#     4  10  18  45  71  96 136 174 232 279 341 410
#     4  12  20  40  66  94 134 183 221 282 336 407
#     4  10  22  39  67  90 128 186 216 277 347 412
#     4  10  23  39  68  93 137 178 224 278 350 402
#
# _framework density 27.374282999999998
#
# number of rings (size 3 to 8) (size 9 to 14) (size 15 to 20)
#    1.000    0.667    3.333    1.500    0.000    0.667 
#    0.000    1.667   18.333    0.000    0.000    0.000 
#    0.000    0.000    0.000    0.000    0.000    0.000 
#
# Total GULP energy -133797.722656 kJ/mol
# GULP energy per Si atom -5574.905111 kJ/mol
# Density = 2.731198 g / cm^3
# Si number density = 27.374283 Si / 1000 Ang^3
#
#
#
# Elastic Constant Matrix: (Units=GPa)
#
#
# Indices 1 2 3 4 5 6 
#
# 1 138.9360 2.6493 13.3394 0.0000 26.8050 0.0000
# 2 2.6493 49.1399 10.8451 0.0000 9.0459 0.0000
# 3 13.3394 10.8451 161.9588 0.0000 -7.7198 0.0000
# 4 0.0000 0.0000 0.0000 38.1865 0.0000 6.5360
# 5 26.8050 9.0459 -7.7198 0.0000 65.2596 0.0000
# 6 0.0000 0.0000 0.0000 6.5360 0.0000 24.6730
#
#
#
# Elastic Compliance Matrix: (Units=1/GPa)
#
#
# Indices 1 2 3 4 5 6 
#
# 1 0.007929 0.000386 -0.000841 0.000000 -0.003410 0.000000
# 2 0.000386 0.021293 -0.001615 0.000000 -0.003301 0.000000
# 3 -0.000841 -0.001615 0.006415 0.000000 0.001328 0.000000
# 4 0.000000 0.000000 0.000000 0.027431 0.000000 -0.007267
# 5 -0.003410 -0.003301 0.001328 0.000000 0.017339 0.000000
# 6 0.000000 0.000000 0.000000 -0.007267 0.000000 0.042455
#
#
# Mechanical properties :
#
#
# Convention : Reuss Voigt Hill
#
# Bulk Modulus (GPa) = 31.74968 44.85583 38.30276
# Shear Modulus (GPa) = 36.36316 47.17055 41.76686
#
# Velocity S-wave (km/s) = 3.64863 4.15561 3.91035
# Velocity P-wave (km/s) = 5.41974 6.28070 5.86604
#
# Compressibility (1/GPa) = 0.03149638
#
# Stress axis : x y z
#
# Youngs Moduli (GPa) = 126.12202 46.96298 155.88049
#
# Poissons Ratio (x) = -0.01812 0.13116
# Poissons Ratio (y) = -0.04867 0.25175
# Poissons Ratio (z) = 0.10612 0.07584
#
# Static dielectric constant tensor:
#      x y z
#    x 2.287140 0.000000 0.058840 
#    y 0.000000 2.160990 0.000000 
#    z 0.058840 0.000000 2.087810 
# 
# From -- ./inp_files/61206.got.cif
#   From: 2010.05.17/outbox.cif.g08.bks.cpg/sg15_31_cif.got.tgz:61206.got - 2010.06.03 18:47:42.
