data_PCOD9261468
_publ_section_title
;
Structure prediction by ZEFSAII (Michael W. Deem and Ramdas Pophale) SiO2 
 PCOD9261468
Probable space group: C 2/C
;
_chemical_formula_sum "Si O2"
_cell_formula_units_Z 48
_cell_length_a 9.856912
_cell_length_b 26.409022
_cell_length_c 8.688403
_cell_angle_alpha 90.000000
_cell_angle_beta 86.271763
_cell_angle_gamma 90.000000
_cell_volume 2256.903970
_symmetry_space_group_name_H-M "C 2/C"
_symmetry_group_IT_number 15
_symmetry_cell_setting 'monoclinic'
loop_
_space_group_symop_operation_xyz
x,y,z
-x,y,1/2-z
-x,-y,-z
x,-y,1/2+z
1/2+x,1/2+y,z
1/2-x,1/2+y,1/2-z
1/2-x,1/2-y,-z
1/2+x,1/2-y,1/2+z
loop_
_atom_site_type_symbol
_atom_site_label
_atom_site_fract_x
_atom_site_fract_y
_atom_site_fract_z
Si Si1 0.092112 0.785443 0.893768
Si Si2 0.551101 0.382417 0.073098
Si Si3 0.358895 0.077923 0.503928
Si Si4 0.597657 0.811219 0.598895
Si Si5 0.187164 0.492933 0.223188
Si Si6 0.618511 0.538284 0.045647
O O1 0.248115 0.802021 0.852471
O O2 0.000000 0.791192 0.750000
O O3 0.051668 0.823460 0.034651
O O4 0.081894 0.729089 0.962563
O O5 0.500000 0.392914 0.250000
O O6 0.452427 0.407930 0.955379
O O7 0.699513 0.407150 0.038872
O O8 0.425275 0.132031 0.465486
O O9 0.389749 0.043111 0.650388
O O10 0.379605 0.040101 0.359746
O O11 0.500000 0.802402 0.750000
O O12 0.313590 0.518211 0.305847
O O13 0.257567 0.460518 0.084253
O O14 0.500000 0.500000 0.000000
#
# Coordination Sequence:
#
# PCOD9261468 Si02
#       6
#     8   8   8   8   8   8
#     4  10  24  42  69 100 121 158 223 269 320 386
#     4  11  19  30  52  88 129 167 194 260 328 379
#     4  10  21  34  56  82 124 168 211 251 314 373
#     4  10  23  47  66  88 133 171 203 269 327 371
#     4  10  19  30  47  85 123 163 209 256 299 381
#     4  11  17  25  46  79 126 164 195 249 328 372
#
# _framework density 21.268075
#
# number of rings (size 3 to 8) (size 9 to 14) (size 15 to 20)
#    0.000    1.667    5.000    1.000    4.667    0.667 
#    0.000    4.167    0.000    0.000    0.000    0.000 
#    0.000    0.000    0.000    0.000    0.000    0.000 
#
# Total GULP energy -134028.407546 kJ/mol
# GULP energy per Si atom -5584.516981 kJ/mol
# Density = 2.121967 g / cm^3
# Si number density = 21.268075 Si / 1000 Ang^3
#
#
#
# Elastic Constant Matrix: (Units=GPa)
#
#
# Indices 1 2 3 4 5 6 
#
# 1 49.8355 24.3680 36.6840 0.0000 -7.2051 0.0000
# 2 24.3680 141.4935 35.9661 0.0000 6.2231 0.0000
# 3 36.6840 35.9661 98.7056 0.0000 -4.0825 0.0000
# 4 0.0000 0.0000 0.0000 21.6753 0.0000 -6.8830
# 5 -7.2051 6.2231 -4.0825 0.0000 32.1575 0.0000
# 6 0.0000 0.0000 0.0000 -6.8830 0.0000 20.9118
#
#
#
# Elastic Compliance Matrix: (Units=1/GPa)
#
#
# Indices 1 2 3 4 5 6 
#
# 1 0.029428 -0.002878 -0.009643 0.000000 0.005926 0.000000
# 2 -0.002878 0.008185 -0.002016 0.000000 -0.002485 0.000000
# 3 -0.009643 -0.002016 0.014452 0.000000 0.000064 0.000000
# 4 0.000000 0.000000 0.000000 0.051520 0.000000 0.016958
# 5 0.005926 -0.002485 0.000064 0.000000 0.032914 0.000000
# 6 0.000000 0.000000 0.000000 0.016958 0.000000 0.053401
#
#
# Mechanical properties :
#
#
# Convention : Reuss Voigt Hill
#
# Bulk Modulus (GPa) = 43.49331 53.78565 48.63948
# Shear Modulus (GPa) = 22.06162 27.81671 24.93917
#
# Velocity S-wave (km/s) = 3.22423 3.62043 3.42805
# Velocity P-wave (km/s) = 5.86134 6.54377 6.21193
#
# Compressibility (1/GPa) = 0.02299204
#
# Stress axis : x y z
#
# Youngs Moduli (GPa) = 33.98078 122.17984 69.19342
#
# Poissons Ratio (x) = 0.35158 0.66726
# Poissons Ratio (y) = 0.09778 0.13947
# Poissons Ratio (z) = 0.32769 0.24627
#
# Static dielectric constant tensor:
#      x y z
#    x 1.817780 0.000000 -0.000340 
#    y 0.000000 1.772430 0.000000 
#    z -0.000340 0.000000 1.753970 
# 
# From -- ./inp_files/33068.got.cif
#   From: 2010.05.17/outbox.cif.g08.bks.cpg/sg15_17_cif.got.tgz:33068.got - 2010.06.03 18:47:42.
