data_PCOD9261793
_publ_section_title
;
Structure prediction by ZEFSAII (Michael W. Deem and Ramdas Pophale) SiO2 
 PCOD9261793
Probable space group: C 2/C
;
_chemical_formula_sum "Si O2"
_cell_formula_units_Z 64
_cell_length_a 21.060192
_cell_length_b 12.192081
_cell_length_c 27.965376
_cell_angle_alpha 90.000000
_cell_angle_beta 31.643302
_cell_angle_gamma 90.000000
_cell_volume 3767.155109
_symmetry_space_group_name_H-M "C 2/C"
_symmetry_group_IT_number 15
_symmetry_cell_setting 'monoclinic'
loop_
_space_group_symop_operation_xyz
x,y,z
-x,y,1/2-z
-x,-y,-z
x,-y,1/2+z
1/2+x,1/2+y,z
1/2-x,1/2+y,1/2-z
1/2-x,1/2-y,-z
1/2+x,1/2-y,1/2+z
loop_
_atom_site_type_symbol
_atom_site_label
_atom_site_fract_x
_atom_site_fract_y
_atom_site_fract_z
Si Si1 0.527533 0.002705 0.538969
Si Si2 0.951338 0.839689 0.147774
Si Si3 0.093188 0.301709 0.733005
Si Si4 0.330732 0.012607 0.244819
Si Si5 0.457245 0.757687 0.490624
Si Si6 0.858915 0.279808 0.040950
Si Si7 0.093895 0.914314 0.845738
Si Si8 0.250459 0.227010 0.798212
O O1 0.558837 0.129380 0.528234
O O2 0.500000 0.000000 0.500000
O O3 0.410669 0.972512 0.645531
O O4 0.624539 0.906818 0.485191
O O5 0.953206 0.786235 0.198409
O O6 0.830305 0.796582 0.197674
O O7 0.946105 0.971119 0.151472
O O8 0.062513 0.795118 0.045055
O O9 0.114444 0.413727 0.748741
O O10 0.222562 0.259128 0.631633
O O11 0.000000 0.315400 0.750000
O O12 0.194345 0.051590 0.320944
O O13 0.324901 0.883833 0.259413
O O14 0.575156 0.770235 0.449530
O O15 0.486052 0.653415 0.439473
O O16 0.344357 0.744354 0.598356
O O17 0.164219 0.830602 0.765861
#
# Coordination Sequence:
#
# PCOD9261793 Si02
#       8
#     8   8   8   8   8   8   8   8
#     4  10  19  32  55  83 118 149 179 226 295 353
#     4  10  22  35  54  84 114 150 184 231 291 336
#     4  12  25  40  57  79 113 160 200 231 272 327
#     4  11  20  36  54  80 120 151 187 231 279 339
#     4  10  19  31  53  91 112 146 171 217 305 348
#     4  10  20  36  54  79 118 144 188 235 272 341
#     4  11  19  32  56  84 120 141 173 233 293 343
#     4  10  20  32  56  87 120 141 176 230 290 350
#
# _framework density 16.988947
#
# number of rings (size 3 to 8) (size 9 to 14) (size 15 to 20)
#    0.000    1.500    5.000    1.500    8.750    2.000 
#    0.000    0.000    0.000    0.750    0.000    2.625 
#    0.000    0.000    0.000    0.000    0.000    0.000 
#
# Total GULP energy -178573.198970 kJ/mol
# GULP energy per Si atom -5580.412468 kJ/mol
# Density = 1.695028 g / cm^3
# Si number density = 16.988947 Si / 1000 Ang^3
#
#
#
# Elastic Constant Matrix: (Units=GPa)
#
#
# Indices 1 2 3 4 5 6 
#
# 1 56.4031 40.5553 24.4751 0.0000 3.2065 0.0000
# 2 40.5553 140.0928 33.1646 0.0000 5.2613 0.0000
# 3 24.4751 33.1646 70.2701 0.0003 2.9665 0.0000
# 4 0.0000 0.0000 0.0003 28.2867 0.0000 7.4965
# 5 3.2065 5.2613 2.9665 0.0000 11.3633 0.0000
# 6 0.0000 0.0000 0.0000 7.4965 0.0000 14.2313
#
#
#
# Elastic Compliance Matrix: (Units=1/GPa)
#
#
# Indices 1 2 3 4 5 6 
#
# 1 0.024407 -0.005602 -0.005739 0.000000 -0.002795 0.000000
# 2 -0.005602 0.009408 -0.002398 0.000000 -0.002149 0.000000
# 3 -0.005739 -0.002398 0.017439 0.000000 -0.001823 0.000000
# 4 0.000000 0.000000 0.000000 0.041088 0.000000 -0.021644
# 5 -0.002795 -0.002149 -0.001823 0.000000 0.090262 0.000000
# 6 0.000000 0.000000 0.000000 -0.021644 0.000000 0.081669
#
#
# Mechanical properties :
#
#
# Convention : Reuss Voigt Hill
#
# Bulk Modulus (GPa) = 42.06118 51.46180 46.76149
# Shear Modulus (GPa) = 16.68465 22.01432 19.34949
#
# Velocity S-wave (km/s) = 3.13723 3.60363 3.37849
# Velocity P-wave (km/s) = 6.15911 6.90449 6.54242
#
# Compressibility (1/GPa) = 0.02377489
#
# Stress axis : x y z
#
# Youngs Moduli (GPa) = 40.97243 106.28896 57.34401
#
# Poissons Ratio (x) = 0.59542 0.32910
# Poissons Ratio (y) = 0.22952 0.13754
# Poissons Ratio (z) = 0.23514 0.25493
#
# Static dielectric constant tensor:
#      x y z
#    x 1.537760 0.000000 0.013650 
#    y 0.000000 1.618270 0.000000 
#    z 0.013650 0.000000 1.585720 
# 
# From -- ./inp_files/181745.got.cif
#   From: 2010.05.17/outbox.cif.g08.bks.cpg/sg15_91_cif.got.tgz:181745.got - 2010.06.03 18:47:42.
