data_PCOD9261273
_publ_section_title
;
Structure prediction by ZEFSAII (Michael W. Deem and Ramdas Pophale) SiO2 
 PCOD9261273
Probable space group: C 2/C
;
_chemical_formula_sum "Si O2"
_cell_formula_units_Z 44
_cell_length_a 9.435637
_cell_length_b 21.362774
_cell_length_c 15.439392
_cell_angle_alpha 90.000000
_cell_angle_beta 135.983488
_cell_angle_gamma 90.000000
_cell_volume 2162.518872
_symmetry_space_group_name_H-M "C 2/C"
_symmetry_group_IT_number 15
_symmetry_cell_setting 'monoclinic'
loop_
_space_group_symop_operation_xyz
x,y,z
-x,y,1/2-z
-x,-y,-z
x,-y,1/2+z
1/2+x,1/2+y,z
1/2-x,1/2+y,1/2-z
1/2-x,1/2-y,-z
1/2+x,1/2-y,1/2+z
loop_
_atom_site_type_symbol
_atom_site_label
_atom_site_fract_x
_atom_site_fract_y
_atom_site_fract_z
Si Si1 0.719456 0.637861 0.847417
Si Si2 0.443972 0.025135 0.129187
Si Si3 0.500000 0.334303 0.750000
Si Si4 0.309794 0.166667 0.074377
Si Si5 0.248923 0.768985 0.714809
Si Si6 0.151437 0.569112 0.053189
O O1 0.500000 0.603667 0.750000
O O2 0.731610 0.694720 0.785420
O O3 0.718999 0.672026 0.940077
O O4 0.925339 0.597719 0.935267
O O5 0.500000 0.000076 0.250000
O O6 0.338785 0.092230 0.101652
O O7 0.626841 0.040451 0.140125
O O8 0.311705 0.979379 0.009246
O O9 0.594644 0.290904 0.718676
O O10 0.677581 0.378467 0.866027
O O11 0.533136 0.198248 0.171441
O O12 0.185983 0.199953 0.095465
#
# Coordination Sequence:
#
# PCOD9261273 Si02
#       6
#     8   8   4   8   8   8
#     4  11  22  40  64  93 123 164 217 268 301 371
#     4  10  18  43  66  84 125 168 218 259 306 384
#     4  12  22  44  60  92 132 168 200 256 340 378
#     4  10  19  41  63  93 116 168 221 247 313 376
#     4  11  21  37  69  88 123 169 207 260 312 384
#     4  10  24  41  62  94 129 166 209 266 320 375
#
# _framework density 20.346644000000001
#
# number of rings (size 3 to 8) (size 9 to 14) (size 15 to 20)
#    0.000    1.455    7.273    0.545    0.000    0.727 
#   19.636    1.818    0.000    0.000    0.000    0.000 
#    0.000    0.000    0.000    0.000    0.000    0.000 
#
# Total GULP energy -122664.598998 kJ/mol
# GULP energy per Si atom -5575.663591 kJ/mol
# Density = 2.030033 g / cm^3
# Si number density = 20.346644 Si / 1000 Ang^3
#
#
#
# Elastic Constant Matrix: (Units=GPa)
#
#
# Indices 1 2 3 4 5 6 
#
# 1 106.6069 30.9549 32.4896 0.0006 -10.5999 0.0001
# 2 30.9549 73.0818 22.3893 0.0002 2.0283 -0.0001
# 3 32.4896 22.3893 74.2780 0.0020 1.0087 0.0003
# 4 0.0006 0.0002 0.0020 28.7666 0.0007 -8.4058
# 5 -10.5999 2.0283 1.0087 0.0007 38.5876 0.0001
# 6 0.0001 -0.0001 0.0003 -8.4058 0.0001 18.7809
#
#
#
# Elastic Compliance Matrix: (Units=1/GPa)
#
#
# Indices 1 2 3 4 5 6 
#
# 1 0.012172 -0.003978 -0.004175 0.000000 0.003662 0.000000
# 2 -0.003978 0.016393 -0.003176 0.000000 -0.001871 0.000000
# 3 -0.004175 -0.003176 0.016265 -0.000001 -0.001405 -0.000001
# 4 0.000000 0.000000 -0.000001 0.039993 -0.000001 0.017900
# 5 0.003662 -0.001871 -0.001405 -0.000001 0.027056 -0.000001
# 6 0.000000 0.000000 -0.000001 0.017900 -0.000001 0.061257
#
#
# Mechanical properties :
#
#
# Convention : Reuss Voigt Hill
#
# Bulk Modulus (GPa) = 45.09994 47.29271 46.19632
# Shear Modulus (GPa) = 24.60816 28.43588 26.52202
#
# Velocity S-wave (km/s) = 3.48148 3.74247 3.61433
# Velocity P-wave (km/s) = 6.19474 6.47832 6.33812
#
# Compressibility (1/GPa) = 0.02217298
#
# Stress axis : x y z
#
# Youngs Moduli (GPa) = 82.15756 61.00079 61.48068
#
# Poissons Ratio (x) = 0.24268 0.25666
# Poissons Ratio (y) = 0.32684 0.19525
# Poissons Ratio (z) = 0.34297 0.19373
#
# Static dielectric constant tensor:
#      x y z
#    x 1.706500 0.000000 -0.020480 
#    y 0.000000 1.763870 0.000000 
#    z -0.020480 0.000000 1.796430 
# 
# From -- ./inp_files/137568.got.cif
#   From: 2010.05.17/outbox.cif.g08.bks.cpg/sg15_69_cif.got.tgz:137568.got - 2010.06.03 18:47:42.
