data_PCOD9261284
_publ_section_title
;
Structure prediction by ZEFSAII (Michael W. Deem and Ramdas Pophale) SiO2 
 PCOD9261284
Probable space group: C 2/C
;
_chemical_formula_sum "Si O2"
_cell_formula_units_Z 60
_cell_length_a 7.979567
_cell_length_b 22.620349
_cell_length_c 14.967740
_cell_angle_alpha 90.000000
_cell_angle_beta 71.358759
_cell_angle_gamma 90.000000
_cell_volume 2559.951629
_symmetry_space_group_name_H-M "C 2/C"
_symmetry_group_IT_number 15
_symmetry_cell_setting 'monoclinic'
loop_
_space_group_symop_operation_xyz
x,y,z
-x,y,1/2-z
-x,-y,-z
x,-y,1/2+z
1/2+x,1/2+y,z
1/2-x,1/2+y,1/2-z
1/2-x,1/2-y,-z
1/2+x,1/2-y,1/2+z
loop_
_atom_site_type_symbol
_atom_site_label
_atom_site_fract_x
_atom_site_fract_y
_atom_site_fract_z
Si Si1 0.382051 0.515290 0.353476
Si Si2 0.745579 0.636327 0.143731
Si Si3 0.214604 0.914342 0.017730
Si Si4 0.522393 0.005871 0.140588
Si Si5 0.285595 0.295909 0.572429
Si Si6 0.379789 0.245100 0.892173
Si Si7 0.000000 0.654442 0.250000
Si Si8 0.963853 0.621772 0.925166
O O1 0.500000 0.496672 0.250000
O O2 0.401206 0.586670 0.355934
O O3 0.410939 0.466809 0.425597
O O4 0.170972 0.510370 0.371721
O O5 0.686478 0.704466 0.163943
O O6 0.851621 0.620992 0.216285
O O7 0.872098 0.634321 0.035967
O O8 0.139904 0.857188 0.981036
O O9 0.348651 0.946301 0.925699
O O10 0.330666 0.886912 0.080534
O O11 0.500000 0.008876 0.250000
O O12 0.594778 0.941069 0.102922
O O13 0.250000 0.250000 0.500000
O O14 0.430273 0.267586 0.610187
O O15 0.108533 0.309331 0.657719
O O16 0.408210 0.175581 0.870339
O O17 0.250000 0.250000 0.000000
#
# Coordination Sequence:
#
# PCOD9261284 Si02
#       8
#     8   8   8   8   8   8   4   8
#     4  11  24  41  63 100 143 175 223 294 353 409
#     4  11  22  43  66 102 137 176 233 291 348 407
#     4  11  21  43  73  96 137 185 229 287 345 416
#     4  11  23  41  70  98 132 187 235 277 342 427
#     4  12  24  46  71 104 138 181 238 290 347 420
#     4  10  23  42  70  98 139 182 225 288 354 412
#     4  12  26  42  78 106 126 188 250 284 340 426
#     4  10  18  44  70  93 135 182 230 278 345 416
#
# _framework density 23.437942
#
# number of rings (size 3 to 8) (size 9 to 14) (size 15 to 20)
#    0.000    1.067    5.333    1.600    5.600    0.000 
#    8.400    1.333    0.000    0.000    0.000    0.000 
#    0.000    0.000    0.000    0.000    0.000    0.000 
#
# Total GULP energy -167611.667837 kJ/mol
# GULP energy per Si atom -5587.055595 kJ/mol
# Density = 2.338460 g / cm^3
# Si number density = 23.437942 Si / 1000 Ang^3
#
#
#
# Elastic Constant Matrix: (Units=GPa)
#
#
# Indices 1 2 3 4 5 6 
#
# 1 28.1047 17.9681 7.5947 0.0000 1.1451 0.0000
# 2 17.9681 191.7019 40.9553 0.0000 11.3134 0.0000
# 3 7.5947 40.9553 103.9081 0.0000 -2.5253 0.0000
# 4 0.0000 0.0000 0.0000 22.5597 0.0000 5.9870
# 5 1.1451 11.3134 -2.5253 0.0000 29.7262 0.0000
# 6 0.0000 0.0000 0.0000 5.9870 0.0000 18.8703
#
#
#
# Elastic Compliance Matrix: (Units=1/GPa)
#
#
# Indices 1 2 3 4 5 6 
#
# 1 0.038067 -0.003221 -0.001522 0.000000 -0.000370 0.000000
# 2 -0.003221 0.006139 -0.002243 0.000000 -0.002403 0.000000
# 3 -0.001522 -0.002243 0.010663 0.000000 0.001818 0.000000
# 4 0.000000 0.000000 0.000000 0.048402 0.000000 -0.015357
# 5 -0.000370 -0.002403 0.001818 0.000000 0.034724 0.000000
# 6 0.000000 0.000000 0.000000 -0.015357 0.000000 0.057866
#
#
# Mechanical properties :
#
#
# Convention : Reuss Voigt Hill
#
# Bulk Modulus (GPa) = 24.45092 50.75011 37.60051
# Shear Modulus (GPa) = 22.37491 31.37767 26.87629
#
# Velocity S-wave (km/s) = 3.09308 3.66287 3.38997
# Velocity P-wave (km/s) = 4.81779 6.29196 5.60356
#
# Compressibility (1/GPa) = 0.04089826
#
# Stress axis : x y z
#
# Youngs Moduli (GPa) = 26.26962 162.88501 93.77975
#
# Poissons Ratio (x) = 0.52466 0.14271
# Poissons Ratio (y) = 0.08462 0.21033
# Poissons Ratio (z) = 0.03998 0.36531
#
# Static dielectric constant tensor:
#      x y z
#    x 1.980620 0.000000 0.025040 
#    y 0.000000 2.029370 0.000000 
#    z 0.025040 0.000000 1.927790 
# 
# From -- ./inp_files/137795.got.cif
#   From: 2010.05.17/outbox.cif.g08.bks.cpg/sg15_69_cif.got.tgz:137795.got - 2010.06.03 18:47:42.
