data_PCOD9261256
_publ_section_title
;
Structure prediction by ZEFSAII (Michael W. Deem and Ramdas Pophale) SiO2 
 PCOD9261256
Probable space group: C 2/C
;
_chemical_formula_sum "Si O2"
_cell_formula_units_Z 40
_cell_length_a 9.120816
_cell_length_b 23.025272
_cell_length_c 16.129146
_cell_angle_alpha 90.000000
_cell_angle_beta 27.587192
_cell_angle_gamma 90.000000
_cell_volume 1568.637768
_symmetry_space_group_name_H-M "C 2/C"
_symmetry_group_IT_number 15
_symmetry_cell_setting 'monoclinic'
loop_
_space_group_symop_operation_xyz
x,y,z
-x,y,1/2-z
-x,-y,-z
x,-y,1/2+z
1/2+x,1/2+y,z
1/2-x,1/2+y,1/2-z
1/2-x,1/2-y,-z
1/2+x,1/2-y,1/2+z
loop_
_atom_site_type_symbol
_atom_site_label
_atom_site_fract_x
_atom_site_fract_y
_atom_site_fract_z
Si Si1 0.629153 0.239961 0.317046
Si Si2 0.500000 0.687936 0.750000
Si Si3 0.093603 0.414470 0.056442
Si Si4 0.000000 0.323196 0.250000
Si Si5 0.979235 0.615753 0.423769
Si Si6 0.552152 0.479278 0.067391
O O1 0.746653 0.271415 0.174238
O O2 0.682497 0.170668 0.289438
O O3 0.766221 0.278551 0.321425
O O4 0.250000 0.250000 0.500000
O O5 0.640902 0.645996 0.611292
O O6 0.086080 0.396514 0.964242
O O7 0.763967 0.447792 0.242418
O O8 0.120133 0.365544 0.115175
O O9 0.374704 0.460964 0.922356
O O10 0.863016 0.562034 0.426154
O O11 0.500000 0.500000 0.000000
#
# Coordination Sequence:
#
# PCOD9261256 Si02
#       6
#     8   4   8   4   8   8
#     4  10  23  41  70 103 135 191 242 295 369 449
#     4  10  18  42  69  91 138 186 228 296 374 428
#     4  12  24  45  73 102 147 191 245 301 374 438
#     4  12  22  46  73 103 146 192 246 298 378 446
#     4  11  22  44  69  97 144 190 237 302 368 433
#     4  12  24  44  72 106 141 197 245 305 366 437
#
# _framework density 25.499831
#
# number of rings (size 3 to 8) (size 9 to 14) (size 15 to 20)
#    0.000    0.800    6.000    1.800    0.000    0.800 
#    7.200    0.000    0.000    0.000    0.000    0.000 
#    0.000    0.000    0.000    0.000    0.000    0.000 
#
# Total GULP energy -111672.341840 kJ/mol
# GULP energy per Si atom -5583.617092 kJ/mol
# Density = 2.544179 g / cm^3
# Si number density = 25.499831 Si / 1000 Ang^3
#
#
#
# Elastic Constant Matrix: (Units=GPa)
#
#
# Indices 1 2 3 4 5 6 
#
# 1 213.3660 105.0232 28.6962 -0.0251 4.4588 0.0009
# 2 105.0232 158.5530 25.9588 -0.0240 9.4006 -0.0213
# 3 28.6962 25.9588 69.9157 -0.2194 -10.6621 0.0760
# 4 -0.0251 -0.0240 -0.2194 20.1285 0.0583 10.3623
# 5 4.4588 9.4006 -10.6621 0.0583 22.2277 0.0092
# 6 0.0009 -0.0213 0.0760 10.3623 0.0092 72.3901
#
#
#
# Elastic Compliance Matrix: (Units=1/GPa)
#
#
# Indices 1 2 3 4 5 6 
#
# 1 0.007053 -0.004458 -0.001260 -0.000011 -0.000134 0.000001
# 2 -0.004458 0.009947 -0.002556 -0.000013 -0.004539 0.000008
# 3 -0.001260 -0.002556 0.017234 0.000179 0.009600 -0.000046
# 4 -0.000011 -0.000013 0.000179 0.053635 -0.000044 -0.007678
# 5 -0.000134 -0.004539 0.009600 -0.000044 0.051540 -0.000012
# 6 0.000001 0.000008 -0.000046 -0.007678 -0.000012 0.014913
#
#
# Mechanical properties :
#
#
# Convention : Reuss Voigt Hill
#
# Bulk Modulus (GPa) = 56.54023 84.57679 70.55851
# Shear Modulus (GPa) = 28.28585 41.75968 35.02277
#
# Velocity S-wave (km/s) = 3.33416 4.05117 3.71003
# Velocity P-wave (km/s) = 6.08631 7.42444 6.78842
#
# Compressibility (1/GPa) = 0.01768652
#
# Stress axis : x y z
#
# Youngs Moduli (GPa) = 141.77849 100.52976 58.02544
#
# Poissons Ratio (x) = 0.44813 0.07313
# Poissons Ratio (y) = 0.63200 0.14831
# Poissons Ratio (z) = 0.17869 0.25694
#
# Static dielectric constant tensor:
#      x y z
#    x 2.094580 -0.000890 0.025130 
#    y -0.000890 2.347820 0.000860 
#    z 0.025130 0.000860 2.331430 
# 
# From -- ./inp_files/191914.got.cif
#   From: 2010.05.17/outbox.cif.g08.bks.cpg/sg15_96_cif.got.tgz:191914.got - 2010.06.03 18:47:42.
