data_PCOD9261925
_publ_section_title
;
Structure prediction by ZEFSAII (Michael W. Deem and Ramdas Pophale) SiO2 
 PCOD9261925
Probable space group: C 2/C
;
_chemical_formula_sum "Si O2"
_cell_formula_units_Z 40
_cell_length_a 13.011153
_cell_length_b 28.788505
_cell_length_c 5.206966
_cell_angle_alpha 90.000000
_cell_angle_beta 88.676283
_cell_angle_gamma 90.000000
_cell_volume 1949.861317
_symmetry_space_group_name_H-M "C 2/C"
_symmetry_group_IT_number 15
_symmetry_cell_setting 'monoclinic'
loop_
_space_group_symop_operation_xyz
x,y,z
-x,y,1/2-z
-x,-y,-z
x,-y,1/2+z
1/2+x,1/2+y,z
1/2-x,1/2+y,1/2-z
1/2-x,1/2-y,-z
1/2+x,1/2-y,1/2+z
loop_
_atom_site_type_symbol
_atom_site_label
_atom_site_fract_x
_atom_site_fract_y
_atom_site_fract_z
Si Si1 0.275280 0.305300 0.742446
Si Si2 0.000000 0.330576 0.250000
Si Si3 0.083645 0.249491 0.916925
Si Si4 0.229553 0.364044 0.253434
Si Si5 0.000000 0.530510 0.750000
Si Si6 0.734480 0.967538 0.245619
O O1 0.375327 0.278667 0.840491
O O2 0.249376 0.341916 0.972408
O O3 0.183854 0.266974 0.755579
O O4 0.277531 0.332090 0.474821
O O5 0.971316 0.296135 0.481382
O O6 0.895043 0.358160 0.195872
O O7 0.000000 0.223641 0.750000
O O8 0.279897 0.415613 0.259980
O O9 0.884994 0.549107 0.759289
O O10 0.000000 0.500000 0.500000
O O11 0.753234 0.000670 0.491807
#
# Coordination Sequence:
#
# PCOD9261925 Si02
#       6
#     8   4   8   8   4   8
#     4  10  23  34  54  77 111 140 180 232 256 309
#     4  10  21  32  56  74 108 152 180 214 256 326
#     4  10  20  36  54  77 107 147 185 210 272 317
#     4  11  21  36  50  80 108 140 186 223 262 310
#     4   8  15  26  40  64  88 122 166 204 240 294
#     4  10  19  32  50  69 100 139 175 216 264 312
#
# _framework density 20.514282000000001
#
# number of rings (size 3 to 8) (size 9 to 14) (size 15 to 20)
#    0.000    2.000    2.000    1.800    2.800    2.400 
#    0.000    6.000    0.000    0.000    0.000    0.000 
#    0.000   16.000    0.000    0.000    0.000    0.000 
#
# Total GULP energy -111405.727434 kJ/mol
# GULP energy per Si atom -5570.286372 kJ/mol
# Density = 2.046759 g / cm^3
# Si number density = 20.514282 Si / 1000 Ang^3
#
#
#
# Elastic Constant Matrix: (Units=GPa)
#
#
# Indices 1 2 3 4 5 6 
#
# 1 42.9403 21.8349 23.7380 0.0000 14.0109 0.0000
# 2 21.8349 137.1907 53.2516 0.0000 6.4912 0.0000
# 3 23.7380 53.2516 125.4975 0.0000 12.7193 0.0000
# 4 0.0000 0.0000 0.0000 12.8522 0.0000 3.4552
# 5 14.0109 6.4912 12.7193 0.0000 31.8898 0.0000
# 6 0.0000 0.0000 0.0000 3.4552 0.0000 7.0359
#
#
#
# Elastic Compliance Matrix: (Units=1/GPa)
#
#
# Indices 1 2 3 4 5 6 
#
# 1 0.030372 -0.003008 -0.003312 0.000000 -0.011411 0.000000
# 2 -0.003008 0.009027 -0.003344 0.000000 0.000818 0.000000
# 3 -0.003312 -0.003344 0.010210 0.000000 -0.001937 0.000000
# 4 0.000000 0.000000 0.000000 0.089642 0.000000 -0.044021
# 5 -0.011411 0.000818 -0.001937 0.000000 0.036977 0.000000
# 6 0.000000 0.000000 0.000000 -0.044021 0.000000 0.163745
#
#
# Mechanical properties :
#
#
# Convention : Reuss Voigt Hill
#
# Bulk Modulus (GPa) = 33.02511 55.91972 44.47241
# Shear Modulus (GPa) = 13.53558 24.14252 18.83905
#
# Velocity S-wave (km/s) = 2.57147 3.43427 3.03370
# Velocity P-wave (km/s) = 4.99501 6.56077 5.83069
#
# Compressibility (1/GPa) = 0.03027999
#
# Stress axis : x y z
#
# Youngs Moduli (GPa) = 32.92512 110.77401 97.94223
#
# Poissons Ratio (x) = 0.33326 0.32437
# Poissons Ratio (y) = 0.09906 0.32756
# Poissons Ratio (z) = 0.10904 0.37047
#
# Static dielectric constant tensor:
#      x y z
#    x 1.770370 0.000000 -0.091370 
#    y 0.000000 1.734850 0.000000 
#    z -0.091370 0.000000 1.650300 
# 
# From -- ./inp_files/4949.got.cif
#   From: 2010.05.17/outbox.cif.g08.bks.cpg/sg15_3_cif.got.tgz:4949.got - 2010.06.03 18:47:42.
