data_PCOD9261443
_publ_section_title
;
Structure prediction by ZEFSAII (Michael W. Deem and Ramdas Pophale) SiO2 
 PCOD9261443
Probable space group: C 2/C
;
_chemical_formula_sum "Si O2"
_cell_formula_units_Z 48
_cell_length_a 16.898029
_cell_length_b 17.616244
_cell_length_c 13.802141
_cell_angle_alpha 90.000000
_cell_angle_beta 145.553730
_cell_angle_gamma 90.000000
_cell_volume 2323.970885
_symmetry_space_group_name_H-M "C 2/C"
_symmetry_group_IT_number 15
_symmetry_cell_setting 'monoclinic'
loop_
_space_group_symop_operation_xyz
x,y,z
-x,y,1/2-z
-x,-y,-z
x,-y,1/2+z
1/2+x,1/2+y,z
1/2-x,1/2+y,1/2-z
1/2-x,1/2-y,-z
1/2+x,1/2-y,1/2+z
loop_
_atom_site_type_symbol
_atom_site_label
_atom_site_fract_x
_atom_site_fract_y
_atom_site_fract_z
Si Si1 0.345716 0.984759 0.093296
Si Si2 0.800509 0.588471 0.224988
Si Si3 0.920294 0.794131 0.071536
Si Si4 0.110198 0.374994 0.012540
Si Si5 0.899928 0.884752 0.385315
Si Si6 0.385711 0.455287 0.778538
O O1 0.500000 0.946605 0.250000
O O2 0.310802 0.017847 0.162762
O O3 0.367020 0.057451 0.042065
O O4 0.208714 0.944880 0.911106
O O5 0.717538 0.566255 0.237000
O O6 0.958445 0.613352 0.404965
O O7 0.715932 0.655047 0.085273
O O8 0.000000 0.815363 0.250000
O O9 0.024899 0.813668 0.088734
O O10 0.884965 0.705575 0.036283
O O11 0.234529 0.375803 0.215678
O O12 0.976498 0.906089 0.561991
O O13 0.927783 0.956855 0.340562
#
# Coordination Sequence:
#
# PCOD9261443 Si02
#       6
#     8   8   8   8   8   8
#     4   9  18  30  47  73  99 125 161 200 238 284
#     4  10  20  31  49  71  97 135 164 192 238 283
#     4  11  19  29  46  70 103 136 160 186 232 295
#     4  10  19  30  45  71 103 131 159 189 231 293
#     4   9  19  31  45  64  95 131 161 196 229 266
#     4   9  18  34  48  65  99 131 163 202 235 277
#
# _framework density 20.654304
#
# number of rings (size 3 to 8) (size 9 to 14) (size 15 to 20)
#    0.000    2.333    0.000    4.500    0.000    8.000 
#    0.000    0.000    0.000    0.000    0.000    0.000 
#    0.000  130.667    0.000    0.000    0.000    0.000 
#
# Total GULP energy -134058.132211 kJ/mol
# GULP energy per Si atom -5585.755509 kJ/mol
# Density = 2.060729 g / cm^3
# Si number density = 20.654304 Si / 1000 Ang^3
#
#
#
# Elastic Constant Matrix: (Units=GPa)
#
#
# Indices 1 2 3 4 5 6 
#
# 1 46.9655 3.9265 28.6838 0.0000 10.9848 0.0000
# 2 3.9265 31.9215 15.2821 0.0000 -2.2677 0.0000
# 3 28.6838 15.2821 202.1441 0.0000 14.8886 0.0000
# 4 0.0000 0.0000 0.0000 31.7504 0.0000 0.2159
# 5 10.9848 -2.2677 14.8886 0.0000 23.9515 0.0000
# 6 0.0000 0.0000 0.0000 0.2159 0.0000 13.3670
#
#
#
# Elastic Compliance Matrix: (Units=1/GPa)
#
#
# Indices 1 2 3 4 5 6 
#
# 1 0.025550 -0.002596 -0.002670 0.000000 -0.010304 0.000000
# 2 -0.002596 0.033308 -0.002588 0.000000 0.005953 0.000000
# 3 -0.002670 -0.002588 0.005711 0.000000 -0.002570 0.000000
# 4 0.000000 0.000000 0.000000 0.031499 0.000000 -0.000509
# 5 -0.010304 0.005953 -0.002570 0.000000 0.048638 0.000000
# 6 0.000000 0.000000 0.000000 -0.000509 0.000000 0.074819
#
#
# Mechanical properties :
#
#
# Convention : Reuss Voigt Hill
#
# Bulk Modulus (GPa) = 20.46684 41.86841 31.16763
# Shear Modulus (GPa) = 19.87899 29.35637 24.61768
#
# Velocity S-wave (km/s) = 3.10572 3.77413 3.45612
# Velocity P-wave (km/s) = 4.77404 6.26954 5.57219
#
# Compressibility (1/GPa) = 0.04885953
#
# Stress axis : x y z
#
# Youngs Moduli (GPa) = 39.13874 30.02266 175.10522
#
# Poissons Ratio (x) = 0.07795 0.46759
# Poissons Ratio (y) = 0.10162 0.45320
# Poissons Ratio (z) = 0.10451 0.07770
#
# Static dielectric constant tensor:
#      x y z
#    x 1.758920 0.000000 0.027280 
#    y 0.000000 1.747810 0.000000 
#    z 0.027280 0.000000 1.804680 
# 
# From -- ./inp_files/48359.got.cif
#   From: 2010.05.17/outbox.cif.g08.bks.cpg/sg15_25_cif.got.tgz:48359.got - 2010.06.03 18:47:42.
