data_PCOD9261261
_publ_section_title
;
Structure prediction by ZEFSAII (Michael W. Deem and Ramdas Pophale) SiO2 
 PCOD9261261
Probable space group: C 2/C
;
_chemical_formula_sum "Si O2"
_cell_formula_units_Z 52
_cell_length_a 26.555542
_cell_length_b 10.393177
_cell_length_c 12.272441
_cell_angle_alpha 90.000000
_cell_angle_beta 41.613395
_cell_angle_gamma 90.000000
_cell_volume 2249.409855
_symmetry_space_group_name_H-M "C 2/C"
_symmetry_group_IT_number 15
_symmetry_cell_setting 'monoclinic'
loop_
_space_group_symop_operation_xyz
x,y,z
-x,y,1/2-z
-x,-y,-z
x,-y,1/2+z
1/2+x,1/2+y,z
1/2-x,1/2+y,1/2-z
1/2-x,1/2-y,-z
1/2+x,1/2-y,1/2+z
loop_
_atom_site_type_symbol
_atom_site_label
_atom_site_fract_x
_atom_site_fract_y
_atom_site_fract_z
Si Si1 0.844649 0.520697 0.919527
Si Si2 0.374863 0.297976 0.779848
Si Si3 0.807637 0.687148 0.323035
Si Si4 0.500000 0.963413 0.250000
Si Si5 0.460027 0.254598 0.989376
Si Si6 0.722162 0.385348 0.756445
Si Si7 0.418158 0.488110 0.895384
O O1 0.859358 0.672508 0.878147
O O2 0.819757 0.457625 0.846836
O O3 0.925117 0.464705 0.829356
O O4 0.777907 0.506929 0.115237
O O5 0.457721 0.278053 0.592638
O O6 0.310693 0.311435 0.794222
O O7 0.385214 0.423709 0.838444
O O8 0.750000 0.750000 0.500000
O O9 0.890998 0.746893 0.183668
O O10 0.773514 0.691645 0.257990
O O11 0.469919 0.872972 0.398248
O O12 0.440902 0.369261 0.937317
O O13 0.649537 0.435980 0.938976
O O14 0.500000 0.557070 0.750000
#
# Coordination Sequence:
#
# PCOD9261261 Si02
#       7
#     8   8   8   4   8   8   8
#     4  11  23  42  68  94 128 174 224 273 332 406
#     4  10  22  41  69  94 121 178 234 265 326 410
#     4  12  27  43  61  96 140 168 211 288 349 384
#     4  10  18  42  70  94 120 172 234 266 324 394
#     4  10  19  43  66  93 133 167 222 286 320 395
#     4  12  24  40  63  96 133 171 219 273 334 400
#     4  10  20  39  66  92 131 173 220 275 330 397
#
# _framework density 23.117173999999999
#
# number of rings (size 3 to 8) (size 9 to 14) (size 15 to 20)
#    0.000    1.231    5.385    2.308    0.000    8.615 
#    2.769    0.000    0.000    0.000    0.000    0.000 
#    0.000    0.000    0.000    0.000    0.000    0.000 
#
# Total GULP energy -145372.665392 kJ/mol
# GULP energy per Si atom -5591.256361 kJ/mol
# Density = 2.306456 g / cm^3
# Si number density = 23.117174 Si / 1000 Ang^3
#
#
#
# Elastic Constant Matrix: (Units=GPa)
#
#
# Indices 1 2 3 4 5 6 
#
# 1 137.4826 8.2215 28.2945 0.0000 -13.5768 0.0000
# 2 8.2215 11.8233 6.1520 0.0000 -7.0294 0.0000
# 3 28.2945 6.1520 148.9360 0.0000 -38.3350 0.0000
# 4 0.0000 0.0000 0.0000 14.9124 0.0000 -2.8260
# 5 -13.5768 -7.0294 -38.3350 0.0000 40.1933 0.0000
# 6 0.0000 0.0000 0.0000 -2.8260 0.0000 5.1949
#
#
#
# Elastic Compliance Matrix: (Units=1/GPa)
#
#
# Indices 1 2 3 4 5 6 
#
# 1 0.007844 -0.004386 -0.001093 0.000000 0.000840 0.000000
# 2 -0.004386 0.096871 0.001075 0.000000 0.016486 0.000000
# 3 -0.001093 0.001075 0.009053 0.000000 0.008454 0.000000
# 4 0.000000 0.000000 0.000000 0.074766 0.000000 0.040673
# 5 0.000840 0.016486 0.008454 0.000000 0.036110 0.000000
# 6 0.000000 0.000000 0.000000 0.040673 0.000000 0.214624
#
#
# Mechanical properties :
#
#
# Convention : Reuss Voigt Hill
#
# Bulk Modulus (GPa) = 9.52736 42.61974 26.07355
# Shear Modulus (GPa) = 10.35063 29.09837 19.72450
#
# Velocity S-wave (km/s) = 2.11830 3.55171 2.92420
# Velocity P-wave (km/s) = 3.18012 5.94104 4.76493
#
# Compressibility (1/GPa) = 0.10496085
#
# Stress axis : x y z
#
# Youngs Moduli (GPa) = 127.48922 10.32301 110.45563
#
# Poissons Ratio (x) = 0.04528 0.12069
# Poissons Ratio (y) = 0.55919 -0.11876
# Poissons Ratio (z) = 0.13931 -0.01110
#
# Static dielectric constant tensor:
#      x y z
#    x 1.849470 0.000000 -0.033100 
#    y 0.000000 1.859310 0.000000 
#    z -0.033100 0.000000 1.896730 
# 
# From -- ./inp_files/126393.got.cif
#   From: 2010.05.17/outbox.cif.g08.bks.cpg/sg15_64_cif.got.tgz:126393.got - 2010.06.03 18:47:42.
