data_PCOD9261845
_publ_section_title
;
Structure prediction by ZEFSAII (Michael W. Deem and Ramdas Pophale) SiO2 
 PCOD9261845
Probable space group: C 2/C
;
_chemical_formula_sum "Si O2"
_cell_formula_units_Z 56
_cell_length_a 7.553252
_cell_length_b 19.189897
_cell_length_c 23.651222
_cell_angle_alpha 90.000000
_cell_angle_beta 133.961668
_cell_angle_gamma 90.000000
_cell_volume 2467.599578
_symmetry_space_group_name_H-M "C 2/C"
_symmetry_group_IT_number 15
_symmetry_cell_setting 'monoclinic'
loop_
_space_group_symop_operation_xyz
x,y,z
-x,y,1/2-z
-x,-y,-z
x,-y,1/2+z
1/2+x,1/2+y,z
1/2-x,1/2+y,1/2-z
1/2-x,1/2-y,-z
1/2+x,1/2-y,1/2+z
loop_
_atom_site_type_symbol
_atom_site_label
_atom_site_fract_x
_atom_site_fract_y
_atom_site_fract_z
Si Si1 0.282285 0.484859 0.496130
Si Si2 0.500000 0.475046 0.250000
Si Si3 0.563173 0.368101 0.885626
Si Si4 0.500000 0.716199 0.750000
Si Si5 0.103813 0.641791 0.480924
Si Si6 0.665214 0.881429 0.120792
Si Si7 0.124259 0.570868 0.223301
Si Si8 0.782353 0.689396 0.108338
O O1 0.500000 0.500000 0.500000
O O2 0.386117 0.442444 0.573043
O O3 0.168821 0.559337 0.488840
O O4 0.076018 0.429731 0.427532
O O5 0.405127 0.430921 0.175799
O O6 0.267552 0.519882 0.215192
O O7 0.333091 0.377347 0.793516
O O8 0.475237 0.315683 0.915424
O O9 0.811240 0.347901 0.909093
O O10 0.750756 0.669875 0.809789
O O11 0.537456 0.761043 0.815252
O O12 0.151465 0.657583 0.557686
O O13 0.259870 0.812569 0.536091
O O14 0.000000 0.535227 0.250000
O O15 0.911647 0.613801 0.146459
#
# Coordination Sequence:
#
# PCOD9261845 Si02
#       8
#     8   4   8   4   8   8   8   8
#     4  11  20  36  67 101 138 163 211 284 346 408
#     4  11  20  38  60  90 136 163 214 278 346 409
#     4  10  19  35  59  99 128 165 214 272 335 384
#     4  11  24  48  66  86 146 177 240 264 324 401
#     4  11  22  39  66 101 127 162 228 271 349 391
#     4  10  24  41  65  95 131 187 204 280 348 392
#     4  10  19  31  57  94 120 163 218 262 327 380
#     4  11  21  39  67  89 125 180 218 279 312 386
#
# _framework density 22.694119000000001
#
# number of rings (size 3 to 8) (size 9 to 14) (size 15 to 20)
#    0.000    1.429    3.571    5.143    2.000    0.571 
#    0.000    2.857    6.286    0.000    0.000    0.000 
#    0.000    0.000    0.000    0.000    0.000    0.000 
#
# Total GULP energy -156174.659057 kJ/mol
# GULP energy per Si atom -5577.666395 kJ/mol
# Density = 2.264247 g / cm^3
# Si number density = 22.694119 Si / 1000 Ang^3
#
#
#
# Elastic Constant Matrix: (Units=GPa)
#
#
# Indices 1 2 3 4 5 6 
#
# 1 78.3831 12.9037 9.6105 0.0000 2.6083 0.0000
# 2 12.9037 60.8172 25.6722 0.0001 -5.9044 0.0000
# 3 9.6105 25.6722 78.4504 0.0001 0.5474 0.0001
# 4 0.0000 0.0001 0.0001 56.0201 0.0001 -4.7104
# 5 2.6083 -5.9044 0.5474 0.0001 32.3631 0.0001
# 6 0.0000 0.0000 0.0001 -4.7104 0.0001 12.3691
#
#
#
# Elastic Compliance Matrix: (Units=1/GPa)
#
#
# Indices 1 2 3 4 5 6 
#
# 1 0.013340 -0.002663 -0.000752 0.000000 -0.001548 0.000000
# 2 -0.002663 0.020035 -0.006258 0.000000 0.003976 0.000000
# 3 -0.000752 -0.006258 0.014896 0.000000 -0.001333 0.000000
# 4 0.000000 0.000000 0.000000 0.018441 0.000000 0.007023
# 5 -0.001548 0.003976 -0.001333 0.000000 0.031772 0.000000
# 6 0.000000 0.000000 0.000000 0.007023 0.000000 0.083521
#
#
# Mechanical properties :
#
#
# Convention : Reuss Voigt Hill
#
# Bulk Modulus (GPa) = 34.57164 34.89148 34.73156
# Shear Modulus (GPa) = 23.69739 31.44807 27.57273
#
# Velocity S-wave (km/s) = 3.23493 3.72659 3.48943
# Velocity P-wave (km/s) = 5.40554 5.82449 5.61892
#
# Compressibility (1/GPa) = 0.02892545
#
# Stress axis : x y z
#
# Youngs Moduli (GPa) = 74.96247 49.91174 67.13150
#
# Poissons Ratio (x) = 0.13293 0.05047
# Poissons Ratio (y) = 0.19965 0.42010
# Poissons Ratio (z) = 0.05636 0.31234
#
# Static dielectric constant tensor:
#      x y z
#    x 1.864070 0.000000 -0.061360 
#    y 0.000000 1.981870 0.000000 
#    z -0.061360 0.000000 1.880570 
# 
# From -- ./inp_files/308674.got.cif
#   From: 2010.05.17/outbox.cif.g08.bks.cpg/sg15_155_cif.got.tgz:308674.got - 2010.06.03 18:47:42.
