data_PCOD9261105
_publ_section_title
;
Structure prediction by ZEFSAII (Michael W. Deem and Ramdas Pophale) SiO2 
 PCOD9261105
Probable space group: C 2/C
;
_chemical_formula_sum "Si O2"
_cell_formula_units_Z 44
_cell_length_a 10.305773
_cell_length_b 7.820127
_cell_length_c 22.784342
_cell_angle_alpha 90.000000
_cell_angle_beta 85.529876
_cell_angle_gamma 90.000000
_cell_volume 1830.660368
_symmetry_space_group_name_H-M "C 2/C"
_symmetry_group_IT_number 15
_symmetry_cell_setting 'monoclinic'
loop_
_space_group_symop_operation_xyz
x,y,z
-x,y,1/2-z
-x,-y,-z
x,-y,1/2+z
1/2+x,1/2+y,z
1/2-x,1/2+y,1/2-z
1/2-x,1/2-y,-z
1/2+x,1/2-y,1/2+z
loop_
_atom_site_type_symbol
_atom_site_label
_atom_site_fract_x
_atom_site_fract_y
_atom_site_fract_z
Si Si1 0.372270 0.083045 0.294835
Si Si2 0.038349 0.154204 0.927717
Si Si3 0.293791 0.209183 0.870989
Si Si4 0.195779 0.035418 0.030318
Si Si5 0.357923 0.479090 0.282885
Si Si6 0.500000 0.000000 0.000000
O O1 0.500000 0.065201 0.250000
O O2 0.348328 0.283698 0.306215
O O3 0.373746 0.960940 0.352212
O O4 0.253428 0.005088 0.261885
O O5 0.138188 0.178966 0.870986
O O6 0.010004 0.331515 0.959495
O O7 0.122424 0.038823 0.970481
O O8 0.899985 0.070083 0.924318
O O9 0.311754 0.277042 0.937407
O O10 0.334557 0.363454 0.827761
O O11 0.340257 0.965999 0.019801
O O12 0.500000 0.499079 0.250000
#
# Coordination Sequence:
#
# PCOD9261105 Si02
#       6
#     8   8   8   8   8   4
#     4  11  25  45  68  98 133 175 222 276 335 398
#     4  10  23  44  65  96 134 172 226 269 332 394
#     4  11  23  43  69  97 136 174 221 273 339 393
#     4  10  23  44  65  96 135 176 216 280 327 397
#     4  11  25  45  68  96 135 172 222 278 330 399
#     4  10  18  40  64  90 130 168 212 270 324 380
#
# _framework density 24.035042000000001
#
# number of rings (size 3 to 8) (size 9 to 14) (size 15 to 20)
#    0.000    1.455    1.818    3.273    2.545    0.000 
#   32.727    0.000    0.000    0.000    0.000    0.000 
#    0.000    0.000    0.000    0.000    0.000    0.000 
#
# Total GULP energy -122529.759530 kJ/mol
# GULP energy per Si atom -5569.534524 kJ/mol
# Density = 2.398034 g / cm^3
# Si number density = 24.035042 Si / 1000 Ang^3
#
#
#
# Elastic Constant Matrix: (Units=GPa)
#
#
# Indices 1 2 3 4 5 6 
#
# 1 167.1914 54.9500 50.7284 0.0000 -44.9460 0.0000
# 2 54.9500 138.5906 58.3458 0.0000 -45.9184 0.0000
# 3 50.7284 58.3458 87.3506 0.0000 -25.4813 0.0000
# 4 0.0000 0.0000 0.0000 45.2730 0.0000 -20.5809
# 5 -44.9460 -45.9184 -25.4813 0.0000 47.4855 0.0000
# 6 0.0000 0.0000 0.0000 -20.5809 0.0000 27.6135
#
#
#
# Elastic Compliance Matrix: (Units=1/GPa)
#
#
# Indices 1 2 3 4 5 6 
#
# 1 0.008693 0.000076 -0.003174 0.000000 0.006598 0.000000
# 2 0.000076 0.012696 -0.005836 0.000000 0.009217 0.000000
# 3 -0.003174 -0.005836 0.017389 0.000000 0.000684 0.000000
# 4 0.000000 0.000000 0.000000 0.033407 0.000000 0.024899
# 5 0.006598 0.009217 0.000684 0.000000 0.036584 0.000000
# 6 0.000000 0.000000 0.000000 0.024899 0.000000 0.054772
#
#
# Mechanical properties :
#
#
# Convention : Reuss Voigt Hill
#
# Bulk Modulus (GPa) = 47.82430 80.13121 63.97776
# Shear Modulus (GPa) = 26.54212 39.34830 32.94521
#
# Velocity S-wave (km/s) = 3.32672 4.05053 3.70633
# Velocity P-wave (km/s) = 5.89042 7.43555 6.70762
#
# Compressibility (1/GPa) = 0.02090987
#
# Stress axis : x y z
#
# Youngs Moduli (GPa) = 115.03244 78.76416 57.50816
#
# Poissons Ratio (x) = -0.00596 0.18255
# Poissons Ratio (y) = -0.00871 0.33559
# Poissons Ratio (z) = 0.36515 0.45963
#
# Static dielectric constant tensor:
#      x y z
#    x 1.841190 0.000000 -0.009930 
#    y 0.000000 1.932380 0.000000 
#    z -0.009930 0.000000 1.950280 
# 
# From -- ./inp_files/267601.got.cif
#   From: 2010.05.17/outbox.cif.g08.bks.cpg/sg15_134_cif.got.tgz:267601.got - 2010.06.03 18:47:42.
