data_PCOD9261741
_publ_section_title
;
Structure prediction by ZEFSAII (Michael W. Deem and Ramdas Pophale) SiO2 
 PCOD9261741
Probable space group: C 2/C
;
_chemical_formula_sum "Si O2"
_cell_formula_units_Z 48
_cell_length_a 5.457574
_cell_length_b 18.030701
_cell_length_c 20.387175
_cell_angle_alpha 90.000000
_cell_angle_beta 109.329778
_cell_angle_gamma 90.000000
_cell_volume 1893.087103
_symmetry_space_group_name_H-M "C 2/C"
_symmetry_group_IT_number 15
_symmetry_cell_setting 'monoclinic'
loop_
_space_group_symop_operation_xyz
x,y,z
-x,y,1/2-z
-x,-y,-z
x,-y,1/2+z
1/2+x,1/2+y,z
1/2-x,1/2+y,1/2-z
1/2-x,1/2-y,-z
1/2+x,1/2-y,1/2+z
loop_
_atom_site_type_symbol
_atom_site_label
_atom_site_fract_x
_atom_site_fract_y
_atom_site_fract_z
Si Si1 0.942938 0.267240 0.142634
Si Si2 0.276030 0.163299 0.021953
Si Si3 0.198108 0.866188 0.957086
Si Si4 0.390407 0.932394 0.167342
Si Si5 0.012784 0.301290 0.819304
Si Si6 0.391856 0.520324 0.167482
O O1 0.851823 0.218428 0.072288
O O2 0.881418 0.352666 0.133503
O O3 0.759781 0.234347 0.184040
O O4 0.253302 0.256370 0.174846
O O5 0.500643 0.125853 0.999938
O O6 0.385174 0.159320 0.106395
O O7 0.005391 0.121656 0.003235
O O8 0.250000 0.250000 0.000000
O O9 0.129572 0.913800 0.886727
O O10 0.500000 0.917847 0.250000
O O11 0.607837 0.984317 0.152813
O O12 0.107588 0.966702 0.154687
O O13 0.000000 0.346396 0.750000
O O14 0.500000 0.541710 0.250000
#
# Coordination Sequence:
#
# PCOD9261741 Si02
#       6
#     8   8   8   8   8   8
#     4  10  20  33  53  81 112 144 184 228 273 322
#     4  10  21  36  55  82 112 144 181 226 275 326
#     4  10  21  36  56  81 105 143 184 230 273 322
#     4  10  19  32  49  74 112 153 182 217 273 334
#     4  10  19  31  51  82 110 135 175 230 276 315
#     4  10  21  34  50  78 116 149 181 223 277 329
#
# _framework density 25.355412000000001
#
# number of rings (size 3 to 8) (size 9 to 14) (size 15 to 20)
#    0.000    2.000    0.000    4.000    0.000    7.333 
#    0.000    1.667    0.000    0.000    0.000   93.333 
#    0.000    0.000    0.000    0.000    0.000    0.000 
#
# Total GULP energy -134257.734093 kJ/mol
# GULP energy per Si atom -5594.072254 kJ/mol
# Density = 2.529770 g / cm^3
# Si number density = 25.355412 Si / 1000 Ang^3
#
#
#
# Elastic Constant Matrix: (Units=GPa)
#
#
# Indices 1 2 3 4 5 6 
#
# 1 233.3788 19.1683 10.6025 0.0000 -12.2138 0.0000
# 2 19.1683 70.4167 11.3350 0.0000 -6.6719 0.0000
# 3 10.6025 11.3350 73.2140 0.0000 -19.1936 0.0000
# 4 0.0000 0.0000 0.0000 18.8690 0.0000 -7.5905
# 5 -12.2138 -6.6719 -19.1936 0.0000 29.6683 0.0000
# 6 0.0000 0.0000 0.0000 -7.5905 0.0000 28.2073
#
#
#
# Elastic Compliance Matrix: (Units=1/GPa)
#
#
# Indices 1 2 3 4 5 6 
#
# 1 0.004456 -0.001054 -0.000076 0.000000 0.001548 0.000000
# 2 -0.001054 0.014932 -0.001677 0.000000 0.001839 0.000000
# 3 -0.000076 -0.001677 0.016645 0.000000 0.010360 0.000000
# 4 0.000000 0.000000 0.000000 0.059430 0.000000 0.015992
# 5 0.001548 0.001839 0.010360 0.000000 0.041459 0.000000
# 6 0.000000 0.000000 0.000000 0.015992 0.000000 0.039755
#
#
# Mechanical properties :
#
#
# Convention : Reuss Voigt Hill
#
# Bulk Modulus (GPa) = 32.87444 51.02458 41.94951
# Shear Modulus (GPa) = 25.98316 37.74251 31.86283
#
# Velocity S-wave (km/s) = 3.20466 3.86234 3.54877
# Velocity P-wave (km/s) = 5.16592 6.32912 5.77687
#
# Compressibility (1/GPa) = 0.03041877
#
# Stress axis : x y z
#
# Youngs Moduli (GPa) = 224.42006 66.96894 60.07742
#
# Poissons Ratio (x) = 0.07059 0.00458
# Poissons Ratio (y) = 0.23654 0.10075
# Poissons Ratio (z) = 0.01712 0.11231
#
# Static dielectric constant tensor:
#      x y z
#    x 2.131920 0.000000 0.023460 
#    y 0.000000 1.980470 0.000000 
#    z 0.023460 0.000000 2.036800 
# 
# From -- ./inp_files/260894.got.cif
#   From: 2010.05.17/outbox.cif.g08.bks.cpg/sg15_131_cif.got.tgz:260894.got - 2010.06.03 18:47:42.
