data_PCOD9261918
_publ_section_title
;
Structure prediction by ZEFSAII (Michael W. Deem and Ramdas Pophale) SiO2 
 PCOD9261918
Probable space group: C 2/C
;
_chemical_formula_sum "Si O2"
_cell_formula_units_Z 64
_cell_length_a 24.408171
_cell_length_b 12.018539
_cell_length_c 8.880105
_cell_angle_alpha 90.000000
_cell_angle_beta 80.306510
_cell_angle_gamma 90.000000
_cell_volume 2567.791354
_symmetry_space_group_name_H-M "C 2/C"
_symmetry_group_IT_number 15
_symmetry_cell_setting 'monoclinic'
loop_
_space_group_symop_operation_xyz
x,y,z
-x,y,1/2-z
-x,-y,-z
x,-y,1/2+z
1/2+x,1/2+y,z
1/2-x,1/2+y,1/2-z
1/2-x,1/2-y,-z
1/2+x,1/2-y,1/2+z
loop_
_atom_site_type_symbol
_atom_site_label
_atom_site_fract_x
_atom_site_fract_y
_atom_site_fract_z
Si Si1 0.409861 0.846972 0.447995
Si Si2 0.157514 0.796819 0.295540
Si Si3 0.680137 0.324978 0.694537
Si Si4 0.237073 0.641235 0.101802
Si Si5 0.442838 0.293163 0.367761
Si Si6 0.436992 0.950156 0.761209
Si Si7 0.554603 0.343140 0.779129
Si Si8 0.739885 0.105787 0.610773
O O1 0.367967 0.752915 0.537822
O O2 0.430263 0.906079 0.593215
O O3 0.447643 0.766439 0.328078
O O4 0.399275 0.951335 0.342514
O O5 0.221759 0.516283 0.069550
O O6 0.109097 0.838372 0.207121
O O7 0.209220 0.880609 0.292621
O O8 0.705306 0.370316 0.837131
O O9 0.618636 0.375770 0.716793
O O10 0.691539 0.189717 0.691061
O O11 0.726696 0.356083 0.551982
O O12 0.185377 0.684790 0.220968
O O13 0.250000 0.750000 0.000000
O O14 0.500000 0.313002 0.250000
O O15 0.433000 0.159855 0.366338
O O16 0.447115 0.327871 0.539484
O O17 0.500000 0.992146 0.750000
O O18 0.500000 0.410552 0.750000
#
# Coordination Sequence:
#
# PCOD9261918 Si02
#       8
#     8   8   8   8   8   8   8   8
#     4  11  21  35  55  88 130 183 237 298 368 436
#     4  10  22  44  65 103 141 185 248 299 383 429
#     4  10  24  43  68 109 141 194 240 295 384 430
#     4  11  25  45  76 108 137 190 246 303 369 443
#     4  10  22  38  62  98 141 196 246 307 368 442
#     4  10  19  32  49  81 128 181 244 292 363 421
#     4  12  22  39  66  96 146 192 245 299 366 445
#     4  10  23  46  72 103 151 184 239 308 370 445
#
# _framework density 24.924143000000001
#
# number of rings (size 3 to 8) (size 9 to 14) (size 15 to 20)
#    0.000    1.500    1.250    4.500    3.500    3.000 
#    0.000    1.250    0.000    1.500    0.000    0.000 
#    0.000    0.000    0.000    0.000    0.000    0.000 
#
# Total GULP energy -178252.356929 kJ/mol
# GULP energy per Si atom -5570.386154 kJ/mol
# Density = 2.486741 g / cm^3
# Si number density = 24.924143 Si / 1000 Ang^3
#
#
#
# Elastic Constant Matrix: (Units=GPa)
#
#
# Indices 1 2 3 4 5 6 
#
# 1 150.6636 8.8018 18.8188 0.0000 7.6805 0.0000
# 2 8.8018 95.3559 9.2847 0.0000 -13.6126 0.0000
# 3 18.8188 9.2847 94.0693 0.0000 -7.6322 0.0000
# 4 0.0000 0.0000 0.0000 13.2752 0.0000 2.3735
# 5 7.6805 -13.6126 -7.6322 0.0000 42.5995 0.0000
# 6 0.0000 0.0000 0.0000 2.3735 0.0000 14.9078
#
#
#
# Elastic Compliance Matrix: (Units=1/GPa)
#
#
# Indices 1 2 3 4 5 6 
#
# 1 0.006953 -0.000750 -0.001459 0.000000 -0.001755 0.000000
# 2 -0.000750 0.011131 -0.000659 0.000000 0.003574 0.000000
# 3 -0.001459 -0.000659 0.011154 0.000000 0.002051 0.000000
# 4 0.000000 0.000000 0.000000 0.077535 0.000000 -0.012345
# 5 -0.001755 0.003574 0.002051 0.000000 0.025300 0.000000
# 6 0.000000 0.000000 0.000000 -0.012345 0.000000 0.069045
#
#
# Mechanical properties :
#
#
# Convention : Reuss Voigt Hill
#
# Bulk Modulus (GPa) = 42.55091 45.98882 44.26987
# Shear Modulus (GPa) = 23.28968 34.36873 28.82921
#
# Velocity S-wave (km/s) = 3.06015 3.71743 3.40469
# Velocity P-wave (km/s) = 5.44015 6.07596 5.76682
#
# Compressibility (1/GPa) = 0.02350126
#
# Stress axis : x y z
#
# Youngs Moduli (GPa) = 143.82580 89.84233 89.65559
#
# Poissons Ratio (x) = 0.06740 0.13083
# Poissons Ratio (y) = 0.10790 0.05904
# Poissons Ratio (z) = 0.20988 0.05917
#
# Static dielectric constant tensor:
#      x y z
#    x 2.147420 0.000000 0.021560 
#    y 0.000000 1.986610 0.000000 
#    z 0.021560 0.000000 2.169770 
# 
# From -- ./inp_files/63590.got.cif
#   From: 2010.05.17/outbox.cif.g08.bks.cpg/sg15_32_cif.got.tgz:63590.got - 2010.06.03 18:47:42.
