data_PCOD9261954
_publ_section_title
;
Structure prediction by ZEFSAII (Michael W. Deem and Ramdas Pophale) SiO2 
 PCOD9261954
Probable space group: C 2/C
;
_chemical_formula_sum "Si O2"
_cell_formula_units_Z 64
_cell_length_a 21.652875
_cell_length_b 13.606684
_cell_length_c 13.165596
_cell_angle_alpha 90.000000
_cell_angle_beta 75.491391
_cell_angle_gamma 90.000000
_cell_volume 3755.200256
_symmetry_space_group_name_H-M "C 2/C"
_symmetry_group_IT_number 15
_symmetry_cell_setting 'monoclinic'
loop_
_space_group_symop_operation_xyz
x,y,z
-x,y,1/2-z
-x,-y,-z
x,-y,1/2+z
1/2+x,1/2+y,z
1/2-x,1/2+y,1/2-z
1/2-x,1/2-y,-z
1/2+x,1/2-y,1/2+z
loop_
_atom_site_type_symbol
_atom_site_label
_atom_site_fract_x
_atom_site_fract_y
_atom_site_fract_z
Si Si1 0.184293 0.811694 0.533106
Si Si2 0.785146 0.042349 0.003564
Si Si3 0.081533 0.898182 0.949831
Si Si4 0.471377 0.416187 0.153164
Si Si5 0.267488 0.901845 0.185959
Si Si6 0.279240 0.896640 0.769785
Si Si7 0.847274 0.222262 0.231384
Si Si8 0.148977 0.795684 0.322862
O O1 0.250000 0.750000 0.500000
O O2 0.202605 0.927493 0.526758
O O3 0.146220 0.780054 0.649884
O O4 0.146106 0.788934 0.445891
O O5 0.759492 0.100363 0.916505
O O6 0.852824 0.082577 0.016273
O O7 0.733319 0.061634 0.112854
O O8 0.094684 0.814757 0.860801
O O9 0.062329 0.994375 0.892826
O O10 0.026759 0.879521 0.054799
O O11 0.500000 0.447064 0.250000
O O12 0.417072 0.335071 0.192665
O O13 0.319741 0.822847 0.197296
O O14 0.205091 0.875562 0.278990
O O15 0.294111 0.009859 0.195175
O O16 0.210971 0.854353 0.761986
O O17 0.327178 0.806066 0.736202
#
# Coordination Sequence:
#
# PCOD9261954 Si02
#       8
#     8   8   8   8   8   8   8   8
#     4  12  18  33  56  82 111 152 179 221 279 339
#     4  11  20  32  56  76 116 148 178 227 280 337
#     4  10  23  37  51  81 106 149 194 230 277 323
#     4  11  23  37  57  76 109 149 193 238 277 331
#     4  11  19  33  53  83 114 141 176 228 284 345
#     4  10  19  32  50  82 110 141 180 224 285 338
#     4  10  21  32  54  80 115 144 181 230 278 338
#     4  11  21  34  55  80 113 142 188 228 274 340
#
# _framework density 17.043033000000001
#
# number of rings (size 3 to 8) (size 9 to 14) (size 15 to 20)
#    0.000    1.250    6.250    1.500    1.750    5.500 
#    0.000    0.000    0.000    0.750    0.000    0.875 
#    0.000    0.000    0.000    0.000    0.000    0.000 
#
# Total GULP energy -178508.247987 kJ/mol
# GULP energy per Si atom -5578.382750 kJ/mol
# Density = 1.700424 g / cm^3
# Si number density = 17.043033 Si / 1000 Ang^3
#
#
#
# Elastic Constant Matrix: (Units=GPa)
#
#
# Indices 1 2 3 4 5 6 
#
# 1 39.1684 13.3997 27.9712 0.0000 -1.6027 0.0000
# 2 13.3997 65.0202 11.7362 0.0000 -5.2574 0.0000
# 3 27.9712 11.7362 89.4314 0.0000 7.2513 0.0000
# 4 0.0000 0.0000 0.0000 22.2431 0.0000 2.1218
# 5 -1.6027 -5.2574 7.2513 0.0000 31.6859 0.0000
# 6 0.0000 0.0000 0.0000 2.1218 0.0000 13.3007
#
#
#
# Elastic Compliance Matrix: (Units=1/GPa)
#
#
# Indices 1 2 3 4 5 6 
#
# 1 0.034905 -0.005023 -0.010529 0.000000 0.003342 0.000000
# 2 -0.005023 0.016789 -0.000853 0.000000 0.002727 0.000000
# 3 -0.010529 -0.000853 0.014918 0.000000 -0.004088 0.000000
# 4 0.000000 0.000000 0.000000 0.045652 0.000000 -0.007283
# 5 0.003342 0.002727 -0.004088 0.000000 0.033117 0.000000
# 6 0.000000 0.000000 0.000000 -0.007283 0.000000 0.076346
#
#
# Mechanical properties :
#
#
# Convention : Reuss Voigt Hill
#
# Bulk Modulus (GPa) = 29.58364 33.31493 31.44928
# Shear Modulus (GPa) = 18.81077 22.81347 20.81212
#
# Velocity S-wave (km/s) = 3.32584 3.66263 3.49829
# Velocity P-wave (km/s) = 5.66958 6.12180 5.90002
#
# Compressibility (1/GPa) = 0.03380246
#
# Stress axis : x y z
#
# Youngs Moduli (GPa) = 28.64939 59.56106 67.03166
#
# Poissons Ratio (x) = 0.29916 0.70577
# Poissons Ratio (y) = 0.14390 0.05721
# Poissons Ratio (z) = 0.30165 0.05083
#
# Static dielectric constant tensor:
#      x y z
#    x 1.555360 0.000000 0.010720 
#    y 0.000000 1.582190 0.000000 
#    z 0.010720 0.000000 1.639170 
# 
# From -- ./inp_files/117975.got.cif
#   From: 2010.05.17/outbox.cif.g08.bks.cpg/sg15_59_cif.got.tgz:117975.got - 2010.06.03 18:47:42.
