data_PCOD9261705
_publ_section_title
;
Structure prediction by ZEFSAII (Michael W. Deem and Ramdas Pophale) SiO2 
 PCOD9261705
Probable space group: C 2/C
;
_chemical_formula_sum "Si O2"
_cell_formula_units_Z 64
_cell_length_a 14.261232
_cell_length_b 14.653856
_cell_length_c 18.222715
_cell_angle_alpha 90.000000
_cell_angle_beta 54.601309
_cell_angle_gamma 90.000000
_cell_volume 3104.236501
_symmetry_space_group_name_H-M "C 2/C"
_symmetry_group_IT_number 15
_symmetry_cell_setting 'monoclinic'
loop_
_space_group_symop_operation_xyz
x,y,z
-x,y,1/2-z
-x,-y,-z
x,-y,1/2+z
1/2+x,1/2+y,z
1/2-x,1/2+y,1/2-z
1/2-x,1/2-y,-z
1/2+x,1/2-y,1/2+z
loop_
_atom_site_type_symbol
_atom_site_label
_atom_site_fract_x
_atom_site_fract_y
_atom_site_fract_z
Si Si1 0.064937 0.092193 0.797985
Si Si2 0.120622 0.215096 0.166923
Si Si3 0.031446 0.482591 0.647568
Si Si4 0.763892 0.601820 0.903246
Si Si5 0.447078 0.797082 0.694234
Si Si6 0.818763 0.402756 0.205880
Si Si7 0.969308 0.080394 0.417624
Si Si8 0.313275 0.310096 0.700434
O O1 0.061744 0.194862 0.833219
O O2 0.000000 0.090213 0.750000
O O3 0.198920 0.066122 0.724147
O O4 0.003358 0.019988 0.877497
O O5 0.196531 0.294638 0.097470
O O6 0.083755 0.136815 0.127634
O O7 0.177348 0.177351 0.215510
O O8 0.000000 0.259552 0.250000
O O9 0.154131 0.532214 0.589755
O O10 0.021878 0.377914 0.625293
O O11 0.000000 0.481794 0.750000
O O12 0.934729 0.539403 0.647563
O O13 0.789553 0.593824 0.805611
O O14 0.631246 0.583960 0.978166
O O15 0.500000 0.783106 0.750000
O O16 0.316637 0.833024 0.761857
O O17 0.836117 0.297139 0.176457
O O18 0.088214 0.131313 0.382261
#
# Coordination Sequence:
#
# PCOD9261705 Si02
#       8
#     8   8   8   8   8   8   8   8
#     4  10  20  34  51  72  97 131 173 209 238 285
#     4   9  17  31  51  75 102 130 162 200 243 299
#     4   9  16  30  51  72  94 125 164 204 244 287
#     4  10  19  31  50  79 107 126 155 203 260 304
#     4   9  18  32  52  71  89 124 175 212 233 272
#     4   9  18  33  54  76  98 127 168 212 242 285
#     4  11  20  30  50  79 108 132 152 196 262 309
#     4   9  17  31  51  75  98 126 165 204 245 292
#
# _framework density 20.616986000000001
#
# number of rings (size 3 to 8) (size 9 to 14) (size 15 to 20)
#    0.000    2.500    0.000    4.875    0.000    0.500 
#    0.000    0.625    0.000   15.000    0.000    0.000 
#    0.000    0.000    0.000    0.000    0.000    0.000 
#
# Total GULP energy -178550.124409 kJ/mol
# GULP energy per Si atom -5579.691388 kJ/mol
# Density = 2.057006 g / cm^3
# Si number density = 20.616986 Si / 1000 Ang^3
#
#
#
# Elastic Constant Matrix: (Units=GPa)
#
#
# Indices 1 2 3 4 5 6 
#
# 1 99.7963 19.9842 14.3849 0.0000 -36.2179 0.0000
# 2 19.9842 103.8631 40.6869 0.0000 -18.9867 0.0000
# 3 14.3849 40.6869 70.0907 0.0000 -24.9546 0.0000
# 4 0.0000 0.0000 0.0000 2401.2635 0.0000-4783.6049
# 5 -36.2179 -18.9867 -24.9546 0.0000 21.4062 0.0000
# 6 0.0000 0.0000 0.0000-4783.6049 0.0000 9574.8924
#
#
#
# Elastic Compliance Matrix: (Units=1/GPa)
#
#
# Indices 1 2 3 4 5 6 
#
# 1 0.050981 -0.000296 0.034747 0.000000 0.126501 0.000000
# 2 -0.000296 0.012720 -0.005957 0.000000 0.003837 0.000000
# 3 0.034747 -0.005957 0.050678 0.000000 0.112586 0.000000
# 4 0.000000 0.000000 0.000000 0.087872 0.000000 0.043901
# 5 0.126501 0.003837 0.112586 0.000000 0.395400 0.000000
# 6 0.000000 0.000000 0.000000 0.043901 0.000000 0.022037
#
#
# Mechanical properties :
#
#
# Convention : Reuss Voigt Hill
#
# Bulk Modulus (GPa) = 5.83539 47.09579 26.46559
# Shear Modulus (GPa) = 8.06684 2412.75870 1210.41277
#
# Velocity S-wave (km/s) = 1.98020 34.24643 24.25633
# Velocity P-wave (km/s) = 2.83986 39.83277 28.23752
#
# Compressibility (1/GPa) = 0.17136806
#
# Stress axis : x y z
#
# Youngs Moduli (GPa) = 19.61530 78.61638 19.73239
#
# Poissons Ratio (x) = 0.02326 -0.68565
# Poissons Ratio (y) = 0.00580 0.11754
# Poissons Ratio (z) = -0.68158 0.46831
#
# Static dielectric constant tensor:
#      x y z
#    x 1.767960 0.000000 -0.012580 
#    y 0.000000 1.796340 0.000000 
#    z -0.012580 0.000000 1.721010 
# 
# From -- ./inp_files/274334.got.cif
#   From: 2010.05.17/outbox.cif.g08.bks.cpg/sg15_138_cif.got.tgz:274334.got - 2010.06.03 18:47:42.
