data_PCOD9261194
_publ_section_title
;
Structure prediction by ZEFSAII (Michael W. Deem and Ramdas Pophale) SiO2 
 PCOD9261194
Probable space group: C 2/C
;
_chemical_formula_sum "Si O2"
_cell_formula_units_Z 44
_cell_length_a 11.754717
_cell_length_b 8.916025
_cell_length_c 30.662358
_cell_angle_alpha 90.000000
_cell_angle_beta 48.372961
_cell_angle_gamma 90.000000
_cell_volume 2402.101230
_symmetry_space_group_name_H-M "C 2/C"
_symmetry_group_IT_number 15
_symmetry_cell_setting 'monoclinic'
loop_
_space_group_symop_operation_xyz
x,y,z
-x,y,1/2-z
-x,-y,-z
x,-y,1/2+z
1/2+x,1/2+y,z
1/2-x,1/2+y,1/2-z
1/2-x,1/2-y,-z
1/2+x,1/2-y,1/2+z
loop_
_atom_site_type_symbol
_atom_site_label
_atom_site_fract_x
_atom_site_fract_y
_atom_site_fract_z
Si Si1 0.500000 0.204368 0.750000
Si Si2 0.702361 0.209409 0.868685
Si Si3 0.209824 0.997290 0.320292
Si Si4 0.347673 0.486989 0.567138
Si Si5 0.145160 0.716474 0.568011
Si Si6 0.921396 0.052464 0.342157
O O1 0.642408 0.100269 0.725828
O O2 0.547081 0.312523 0.698861
O O3 0.752794 0.327290 0.817989
O O4 0.698343 0.314241 0.913014
O O5 0.526588 0.176152 0.902215
O O6 0.808795 0.068373 0.849710
O O7 0.138189 0.955778 0.386232
O O8 0.082407 0.982757 0.316015
O O9 0.500000 0.500000 0.500000
O O10 0.218448 0.582768 0.576871
O O11 0.250000 0.750000 0.500000
O O12 0.141680 0.866156 0.598444
#
# Coordination Sequence:
#
# PCOD9261194 Si02
#       6
#     4   8   8   8   8   8
#     4  12  24  40  64  86 126 164 202 262 308 382
#     4   9  22  37  61  89 123 159 206 254 297 374
#     4   9  23  41  61  88 125 161 204 251 314 365
#     4  10  18  41  64  86 126 162 196 249 316 359
#     4  11  20  40  64  89 130 159 200 259 305 368
#     4  11  23  41  60  94 118 160 214 250 311 364
#
# _framework density 18.317297
#
# number of rings (size 3 to 8) (size 9 to 14) (size 15 to 20)
#    1.091    0.727    3.636    0.000    0.000    7.273 
#    0.000    1.818    0.000    0.000    0.000    0.000 
#    0.000    0.000    0.000    0.000    0.000    0.000 
#
# Total GULP energy -122586.686653 kJ/mol
# GULP energy per Si atom -5572.122121 kJ/mol
# Density = 1.827561 g / cm^3
# Si number density = 18.317297 Si / 1000 Ang^3
#
#
#
# Elastic Constant Matrix: (Units=GPa)
#
#
# Indices 1 2 3 4 5 6 
#
# 1 150.2146 89.4821 16.4346 0.0000 -26.3906 0.0000
# 2 89.4821 100.6676 41.3327 0.0000 -30.0394 0.0000
# 3 16.4346 41.3327 42.3091 0.0000 -13.8949 0.0000
# 4 0.0000 0.0000 0.0000 18.1455 0.0000 -0.7792
# 5 -26.3906 -30.0394 -13.8949 0.0000 24.5574 0.0000
# 6 0.0000 0.0000 0.0000 -0.7792 0.0000 38.4379
#
#
#
# Elastic Compliance Matrix: (Units=1/GPa)
#
#
# Indices 1 2 3 4 5 6 
#
# 1 0.018401 -0.022106 0.014815 0.000000 0.001116 0.000000
# 2 -0.022106 0.047957 -0.032916 0.000000 0.016282 0.000000
# 3 0.014815 -0.032916 0.051638 0.000000 0.004874 0.000000
# 4 0.000000 0.000000 0.000000 0.055158 0.000000 0.001118
# 5 0.001116 0.016282 0.004874 0.000000 0.064595 0.000000
# 6 0.000000 0.000000 0.000000 0.001118 0.000000 0.026039
#
#
# Mechanical properties :
#
#
# Convention : Reuss Voigt Hill
#
# Bulk Modulus (GPa) = 26.60912 65.29891 45.95402
# Shear Modulus (GPa) = 14.01628 25.95763 19.98696
#
# Velocity S-wave (km/s) = 2.76921 3.76854 3.30684
# Velocity P-wave (km/s) = 4.97826 7.39337 6.30258
#
# Compressibility (1/GPa) = 0.03758109
#
# Stress axis : x y z
#
# Youngs Moduli (GPa) = 54.34575 20.85217 19.36556
#
# Poissons Ratio (x) = 0.46095 -0.28689
# Poissons Ratio (y) = 1.20136 0.63744
# Poissons Ratio (z) = -0.80511 0.68637
#
# Static dielectric constant tensor:
#      x y z
#    x 1.624410 0.000000 0.032070 
#    y 0.000000 1.629190 0.000000 
#    z 0.032070 0.000000 1.702710 
# 
# From -- ./inp_files/309863.got.cif
#   From: 2010.05.17/outbox.cif.g08.bks.cpg/sg15_155_cif.got.tgz:309863.got - 2010.06.03 18:47:42.
