data_PCOD9261399
_publ_section_title
;
Structure prediction by ZEFSAII (Michael W. Deem and Ramdas Pophale) SiO2 
 PCOD9261399
Probable space group: C 2/C
;
_chemical_formula_sum "Si O2"
_cell_formula_units_Z 64
_cell_length_a 21.536079
_cell_length_b 21.729015
_cell_length_c 22.645830
_cell_angle_alpha 90.000000
_cell_angle_beta 158.955792
_cell_angle_gamma 90.000000
_cell_volume 3805.362343
_symmetry_space_group_name_H-M "C 2/C"
_symmetry_group_IT_number 15
_symmetry_cell_setting 'monoclinic'
loop_
_space_group_symop_operation_xyz
x,y,z
-x,y,1/2-z
-x,-y,-z
x,-y,1/2+z
1/2+x,1/2+y,z
1/2-x,1/2+y,1/2-z
1/2-x,1/2-y,-z
1/2+x,1/2-y,1/2+z
loop_
_atom_site_type_symbol
_atom_site_label
_atom_site_fract_x
_atom_site_fract_y
_atom_site_fract_z
Si Si1 0.147875 0.037530 0.555845
Si Si2 0.417154 0.614054 0.114978
Si Si3 0.540958 0.596241 0.000008
Si Si4 0.434097 0.877199 0.336020
Si Si5 0.662671 0.208494 0.858938
Si Si6 0.166020 0.690874 0.201304
Si Si7 0.217540 0.673397 0.677604
Si Si8 0.263576 0.679886 0.151973
O O1 0.127753 0.060173 0.470715
O O2 0.028009 0.076439 0.495579
O O3 0.340062 0.057787 0.746599
O O4 0.104357 0.966731 0.526485
O O5 0.500000 0.594010 0.250000
O O6 0.545834 0.657032 0.191454
O O7 0.262401 0.661629 0.990367
O O8 0.379896 0.625926 0.820681
O O9 0.700405 0.643166 0.150310
O O10 0.394259 0.837103 0.243489
O O11 0.354315 0.839645 0.320104
O O12 0.637557 0.876832 0.525578
O O13 0.500000 0.234602 0.750000
O O14 0.766769 0.262318 0.918314
O O15 0.200626 0.759006 0.257010
O O16 0.225736 0.696474 0.185734
O O17 0.962516 0.670969 0.020008
#
# Coordination Sequence:
#
# PCOD9261399 Si02
#       8
#     8   8   8   8   8   8   8   8
#     4   9  20  37  51  64  94 136 167 217 252 295
#     4  11  22  34  48  68  95 131 178 217 254 292
#     4  10  19  37  52  71 100 131 173 208 258 307
#     4   9  19  31  44  64  92 130 172 204 254 289
#     4  11  21  31  45  64  98 136 176 219 254 282
#     4  11  19  30  51  77 105 132 166 204 260 309
#     4  10  19  29  50  76 101 131 159 206 256 311
#     4  11  20  30  45  71  96 132 175 217 248 294
#
# _framework density 16.818372
#
# number of rings (size 3 to 8) (size 9 to 14) (size 15 to 20)
#    0.000    1.750    3.750    1.875    1.750    1.500 
#    2.250    2.500    0.000    0.000    0.000    0.000 
#    0.000    1.000    0.000    0.000    0.000    0.250 
#
# Total GULP energy -178254.463990 kJ/mol
# GULP energy per Si atom -5570.452000 kJ/mol
# Density = 1.678009 g / cm^3
# Si number density = 16.818372 Si / 1000 Ang^3
#
#
#
# Elastic Constant Matrix: (Units=GPa)
#
#
# Indices 1 2 3 4 5 6 
#
# 1 25.9173 15.8709 11.7427 -0.0006 0.2197 0.0058
# 2 15.8709 90.2289 38.8079 0.0225 12.3270 0.0020
# 3 11.7427 38.8079 83.1330 0.0182 13.7973 0.0003
# 4 -0.0006 0.0225 0.0182 20.2666 -0.0171 8.7288
# 5 0.2197 12.3270 13.7973 -0.0171 17.5068 0.0000
# 6 0.0058 0.0020 0.0003 8.7288 0.0000 15.6043
#
#
#
# Elastic Compliance Matrix: (Units=1/GPa)
#
#
# Indices 1 2 3 4 5 6 
#
# 1 0.044821 -0.007097 -0.004319 0.000035 0.007838 -0.000035
# 2 -0.007097 0.015443 -0.005081 -0.000025 -0.006780 0.000015
# 3 -0.004319 -0.005081 0.016576 -0.000024 -0.009432 0.000015
# 4 0.000035 -0.000025 -0.000024 0.065004 0.000099 -0.036362
# 5 0.007838 -0.006780 -0.009432 0.000099 0.069230 -0.000058
# 6 -0.000035 0.000015 0.000015 -0.036362 -0.000058 0.084425
#
#
# Mechanical properties :
#
#
# Convention : Reuss Voigt Hill
#
# Bulk Modulus (GPa) = 22.80733 36.90246 29.85489
# Shear Modulus (GPa) = 14.57265 19.53274 17.05269
#
# Velocity S-wave (km/s) = 2.94678 3.41162 3.18769
# Velocity P-wave (km/s) = 5.01682 6.12440 5.59807
#
# Compressibility (1/GPa) = 0.04384556
#
# Stress axis : x y z
#
# Youngs Moduli (GPa) = 22.31113 64.75392 60.32665
#
# Poissons Ratio (x) = 0.45957 0.26054
# Poissons Ratio (y) = 0.15834 0.30654
# Poissons Ratio (z) = 0.09636 0.32904
#
# Static dielectric constant tensor:
#      x y z
#    x 1.545380 0.000000 0.005910 
#    y 0.000000 1.552540 -0.000020 
#    z 0.005910 -0.000020 1.649280 
# 
# From -- ./inp_files/282245.got.cif
#   From: 2010.05.17/outbox.cif.g08.bks.cpg/sg15_142_cif.got.tgz:282245.got - 2010.06.03 18:47:42.
