data_PCOD9261121
_publ_section_title
;
Structure prediction by ZEFSAII (Michael W. Deem and Ramdas Pophale) SiO2 
 PCOD9261121
Probable space group: C 2/C
;
_chemical_formula_sum "Si O2"
_cell_formula_units_Z 48
_cell_length_a 25.270051
_cell_length_b 22.897360
_cell_length_c 11.281683
_cell_angle_alpha 90.000000
_cell_angle_beta 159.303083
_cell_angle_gamma 90.000000
_cell_volume 2307.076980
_symmetry_space_group_name_H-M "C 2/C"
_symmetry_group_IT_number 15
_symmetry_cell_setting 'monoclinic'
loop_
_space_group_symop_operation_xyz
x,y,z
-x,y,1/2-z
-x,-y,-z
x,-y,1/2+z
1/2+x,1/2+y,z
1/2-x,1/2+y,1/2-z
1/2-x,1/2-y,-z
1/2+x,1/2-y,1/2+z
loop_
_atom_site_type_symbol
_atom_site_label
_atom_site_fract_x
_atom_site_fract_y
_atom_site_fract_z
Si Si1 0.371240 0.113278 0.136931
Si Si2 0.798122 0.427823 0.222505
Si Si3 0.500000 0.857823 0.250000
Si Si4 0.477319 0.785163 0.442671
Si Si5 0.850900 0.830273 0.719755
Si Si6 0.000000 0.123619 0.750000
Si Si7 0.758297 0.934873 0.895928
O O1 0.538018 0.083856 0.493395
O O2 0.401258 0.182234 0.221069
O O3 0.270718 0.088169 0.031949
O O4 0.310214 0.097945 0.880283
O O5 0.767364 0.496280 0.161645
O O6 0.669300 0.392916 0.883280
O O7 0.488637 0.816539 0.340117
O O8 0.637647 0.901053 0.561779
O O9 0.474326 0.715310 0.431048
O O10 0.313418 0.803122 0.147772
O O11 0.887609 0.837742 0.935448
O O12 0.913665 0.084460 0.664286
#
# Coordination Sequence:
#
# PCOD9261121 Si02
#       7
#     8   8   4   8   8   4   8
#     4   9  20  39  65  98 116 158 216 270 309 352
#     4  10  21  39  66  94 121 164 212 262 317 365
#     4  10  18  40  65  97 114 164 218 266 306 360
#     4   9  19  38  65  89 120 157 213 261 306 370
#     4  10  22  40  60  87 125 171 200 251 321 374
#     4  12  26  42  57  93 132 172 200 244 332 376
#     4  11  23  39  65  91 133 162 212 257 311 382
#
# _framework density 20.805548000000002
#
# number of rings (size 3 to 8) (size 9 to 14) (size 15 to 20)
#    0.000    2.000    1.667    1.500    2.333    4.667 
#    3.000    1.667    0.000    0.000    0.000    0.000 
#    0.000    0.000    0.000    0.000    0.000    0.000 
#
# Total GULP energy -133930.761995 kJ/mol
# GULP energy per Si atom -5580.448416 kJ/mol
# Density = 2.075819 g / cm^3
# Si number density = 20.805548 Si / 1000 Ang^3
#
#
#
# Elastic Constant Matrix: (Units=GPa)
#
#
# Indices 1 2 3 4 5 6 
#
# 1 96.0309 39.0516 31.9423 0.0000 0.7941 0.0000
# 2 39.0516 119.1470 26.6582 0.0000 -5.8252 0.0000
# 3 31.9423 26.6582 55.8076 0.0000 -12.0496 0.0000
# 4 0.0000 0.0000 0.0000 -8.7461 0.0000 -14.1455
# 5 0.7941 -5.8252 -12.0496 0.0000 29.4434 0.0000
# 6 0.0000 0.0000 0.0000 -14.1455 0.0000 7.0683
#
#
#
# Elastic Compliance Matrix: (Units=1/GPa)
#
#
# Indices 1 2 3 4 5 6 
#
# 1 0.014242 -0.003187 -0.007512 0.000000 -0.004089 0.000000
# 2 -0.003187 0.010111 -0.002803 0.000000 0.000939 0.000000
# 3 -0.007512 -0.002803 0.025757 0.000000 0.010189 0.000000
# 4 0.000000 0.000000 0.000000 -0.026987 0.000000 -0.054008
# 5 -0.004089 0.000939 0.010189 0.000000 0.038429 0.000000
# 6 0.000000 0.000000 0.000000 -0.054008 0.000000 0.033393
#
#
# Mechanical properties :
#
#
# Convention : Reuss Voigt Hill
#
# Bulk Modulus (GPa) = 43.27871 51.80998 47.54435
# Shear Modulus (GPa) = 38.56529 17.10867 27.83698
#
# Velocity S-wave (km/s) = 4.31002 2.87071 3.66178
# Velocity P-wave (km/s) = 6.75389 5.99533 6.38589
#
# Compressibility (1/GPa) = 0.02310605
#
# Stress axis : x y z
#
# Youngs Moduli (GPa) = 70.21560 98.90623 38.82436
#
# Poissons Ratio (x) = 0.31522 0.29165
# Poissons Ratio (y) = 0.22378 0.10881
# Poissons Ratio (z) = 0.52746 0.27720
#
# Static dielectric constant tensor:
#      x y z
#    x 1.728780 0.000000 0.021050 
#    y 0.000000 1.771550 0.000000 
#    z 0.021050 0.000000 1.758220 
# 
# From -- ./inp_files/124354.got.cif
#   From: 2010.05.17/outbox.cif.g08.bks.cpg/sg15_63_cif.got.tgz:124354.got - 2010.06.03 18:47:42.
