data_PCOD9261720
_publ_section_title
;
Structure prediction by ZEFSAII (Michael W. Deem and Ramdas Pophale) SiO2 
 PCOD9261720
Probable space group: C 2/C
;
_chemical_formula_sum "Si O2"
_cell_formula_units_Z 52
_cell_length_a 23.841637
_cell_length_b 10.664192
_cell_length_c 18.300697
_cell_angle_alpha 90.000000
_cell_angle_beta 151.697541
_cell_angle_gamma 90.000000
_cell_volume 2206.101176
_symmetry_space_group_name_H-M "C 2/C"
_symmetry_group_IT_number 15
_symmetry_cell_setting 'monoclinic'
loop_
_space_group_symop_operation_xyz
x,y,z
-x,y,1/2-z
-x,-y,-z
x,-y,1/2+z
1/2+x,1/2+y,z
1/2-x,1/2+y,1/2-z
1/2-x,1/2-y,-z
1/2+x,1/2-y,1/2+z
loop_
_atom_site_type_symbol
_atom_site_label
_atom_site_fract_x
_atom_site_fract_y
_atom_site_fract_z
Si Si1 0.249586 0.321626 0.769130
Si Si2 0.385268 0.047661 0.523574
Si Si3 0.456113 0.499102 0.533343
Si Si4 0.433746 0.067332 0.355966
Si Si5 0.500000 0.253236 0.750000
Si Si6 0.174548 0.896112 0.860996
Si Si7 0.258364 0.847269 0.159453
O O1 0.193548 0.406547 0.637360
O O2 0.363223 0.388494 0.933091
O O3 0.138905 0.313306 0.697561
O O4 0.297356 0.198220 0.785233
O O5 0.469947 0.934857 0.597263
O O6 0.468492 0.161668 0.646657
O O7 0.297270 0.031423 0.491160
O O8 0.500000 0.500000 0.500000
O O9 0.575232 0.486961 0.715172
O O10 0.375972 0.383779 0.471773
O O11 0.329219 0.969108 0.216202
O O12 0.500000 0.000000 0.500000
O O13 0.613861 0.339781 0.863327
O O14 0.200859 0.768917 0.844311
#
# Coordination Sequence:
#
# PCOD9261720 Si02
#       7
#     8   8   8   8   4   8   8
#     4   9  19  33  53  74 105 145 185 230 274 326
#     4  10  19  32  48  71 104 145 180 220 263 320
#     4  11  20  34  53  76 110 147 190 233 272 332
#     4   9  18  31  48  73 104 143 179 226 266 327
#     4  12  22  34  50  80 118 152 190 210 270 364
#     4  11  21  34  51  76 109 156 181 219 272 330
#     4  10  19  31  51  75 104 149 178 219 280 318
#
# _framework density 23.570996000000001
#
# number of rings (size 3 to 8) (size 9 to 14) (size 15 to 20)
#    0.000    1.846    4.615    2.308    2.154    0.000 
#    0.000    0.000    0.000    0.000    0.000    0.000 
#    0.000   32.000    0.000    0.000    0.000    0.000 
#
# Total GULP energy -144783.037988 kJ/mol
# GULP energy per Si atom -5568.578384 kJ/mol
# Density = 2.351735 g / cm^3
# Si number density = 23.570996 Si / 1000 Ang^3
#
#
#
# Elastic Constant Matrix: (Units=GPa)
#
#
# Indices 1 2 3 4 5 6 
#
# 1 139.6141 25.7818 29.8328 0.0000 43.7186 0.0000
# 2 25.7818 24.4450 7.7380 0.0000 1.2854 0.0000
# 3 29.8328 7.7380 86.2208 0.0000 26.3027 0.0000
# 4 0.0000 0.0000 0.0000 16.6710 0.0000 -2.7737
# 5 43.7186 1.2854 26.3027 0.0000 44.7285 0.0000
# 6 0.0000 0.0000 0.0000 -2.7737 0.0000 27.1949
#
#
#
# Elastic Compliance Matrix: (Units=1/GPa)
#
#
# Indices 1 2 3 4 5 6 
#
# 1 0.013866 -0.014100 0.000583 0.000000 -0.013491 0.000000
# 2 -0.014100 0.056497 -0.004754 0.000000 0.014953 0.000000
# 3 0.000583 -0.004754 0.014569 0.000000 -0.009001 0.000000
# 4 0.000000 0.000000 0.000000 0.061020 0.000000 0.006224
# 5 -0.013491 0.014953 -0.009001 0.000000 0.040407 0.000000
# 6 0.000000 0.000000 0.000000 0.006224 0.000000 0.037406
#
#
# Mechanical properties :
#
#
# Convention : Reuss Voigt Hill
#
# Bulk Modulus (GPa) = 20.66447 41.88724 31.27586
# Shear Modulus (GPa) = 18.08738 30.18070 24.13404
#
# Velocity S-wave (km/s) = 2.77313 3.58217 3.20329
# Velocity P-wave (km/s) = 4.36344 5.90919 5.19414
#
# Compressibility (1/GPa) = 0.04839224
#
# Stress axis : x y z
#
# Youngs Moduli (GPa) = 72.11763 17.69994 68.64036
#
# Poissons Ratio (x) = 0.24956 -0.04003
# Poissons Ratio (y) = 1.01684 0.32628
# Poissons Ratio (z) = -0.04206 0.08414
#
# Static dielectric constant tensor:
#      x y z
#    x 1.986240 0.000000 -0.025400 
#    y 0.000000 1.931920 0.000000 
#    z -0.025400 0.000000 1.981930 
# 
# From -- ./inp_files/255627.got.cif
#   From: 2010.05.17/outbox.cif.g08.bks.cpg/sg15_128_cif.got.tgz:255627.got - 2010.06.03 18:47:42.
