data_PCOD9261464
_publ_section_title
;
Structure prediction by ZEFSAII (Michael W. Deem and Ramdas Pophale) SiO2 
 PCOD9261464
Probable space group: C 2/C
;
_chemical_formula_sum "Si O2"
_cell_formula_units_Z 44
_cell_length_a 6.325178
_cell_length_b 12.397725
_cell_length_c 24.142097
_cell_angle_alpha 90.000000
_cell_angle_beta 68.212133
_cell_angle_gamma 90.000000
_cell_volume 1757.930870
_symmetry_space_group_name_H-M "C 2/C"
_symmetry_group_IT_number 15
_symmetry_cell_setting 'monoclinic'
loop_
_space_group_symop_operation_xyz
x,y,z
-x,y,1/2-z
-x,-y,-z
x,-y,1/2+z
1/2+x,1/2+y,z
1/2-x,1/2+y,1/2-z
1/2-x,1/2-y,-z
1/2+x,1/2-y,1/2+z
loop_
_atom_site_type_symbol
_atom_site_label
_atom_site_fract_x
_atom_site_fract_y
_atom_site_fract_z
Si Si1 0.304429 0.762841 0.311837
Si Si2 0.546364 0.983054 0.918103
Si Si3 0.500000 0.344167 0.250000
Si Si4 0.647729 0.430426 0.028368
Si Si5 0.551168 0.012857 0.801396
Si Si6 0.764842 0.707583 0.935384
O O1 0.500000 0.719304 0.250000
O O2 0.368440 0.890177 0.315499
O O3 0.328662 0.724252 0.373745
O O4 0.079240 0.775352 0.295848
O O5 0.786190 0.003487 0.923680
O O6 0.536920 0.941521 0.857039
O O7 0.432247 0.103394 0.924211
O O8 0.386567 0.914152 0.973979
O O9 0.711674 0.422990 0.216377
O O10 0.489982 0.330550 0.055599
O O11 0.500000 0.500000 0.000000
O O12 0.500000 0.951399 0.750000
O O13 0.750000 0.750000 0.000000
#
# Coordination Sequence:
#
# PCOD9261464 Si02
#       6
#     8   8   4   8   8   8
#     4   8  15  26  41  64  94 120 150 196 241 285
#     4   9  17  31  47  69 100 127 158 204 250 296
#     4   8  12  22  40  60  90 124 144 188 246 288
#     4   9  18  31  48  68  94 131 161 197 248 295
#     4   8  14  23  40  67  93 114 149 196 241 283
#     4  10  19  30  47  75 100 125 165 205 247 297
#
# _framework density 25.029425
#
# number of rings (size 3 to 8) (size 9 to 14) (size 15 to 20)
#    0.000    3.636    0.000    1.091    0.000    2.182 
#    0.000    0.000    0.000    0.000   14.182    0.000 
#    0.000    0.000    0.000    0.000    0.000    0.000 
#
# Total GULP energy -122637.653362 kJ/mol
# GULP energy per Si atom -5574.438789 kJ/mol
# Density = 2.497246 g / cm^3
# Si number density = 25.029425 Si / 1000 Ang^3
#
#
#
# Elastic Constant Matrix: (Units=GPa)
#
#
# Indices 1 2 3 4 5 6 
#
# 1 135.6484 20.2867 53.1699 0.0000 39.7197 -0.0001
# 2 20.2867 62.2593 19.9652 0.0000 7.9507 0.0000
# 3 53.1699 19.9652 206.3801 0.0000 49.0683 0.0000
# 4 0.0000 0.0000 0.0000 24.9317 0.0000 22.0514
# 5 39.7197 7.9507 49.0683 0.0000 33.7518 0.0000
# 6 -0.0001 0.0000 0.0000 22.0514 0.0000 9.2592
#
#
#
# Elastic Compliance Matrix: (Units=1/GPa)
#
#
# Indices 1 2 3 4 5 6 
#
# 1 0.011541 -0.002162 0.000526 0.000000 -0.013836 0.000000
# 2 -0.002162 0.017110 -0.001138 0.000000 0.000169 0.000000
# 3 0.000526 -0.001138 0.007494 0.000000 -0.011244 0.000000
# 4 0.000000 0.000000 0.000000 -0.036251 0.000000 0.086335
# 5 -0.013836 0.000169 -0.011244 0.000000 0.062218 0.000000
# 6 0.000000 0.000000 0.000000 0.086335 0.000000 -0.097612
#
#
# Mechanical properties :
#
#
# Convention : Reuss Voigt Hill
#
# Bulk Modulus (GPa) = 32.68572 65.68127 49.18350
# Shear Modulus (GPa) = -253.12683 34.31294 -109.40694
#
# Velocity S-wave (km/s) = -10.06734 3.70659 -6.61863
# Velocity P-wave (km/s) = 11.04752 6.67960 6.22217
#
# Compressibility (1/GPa) = 0.03059440
#
# Stress axis : x y z
#
# Youngs Moduli (GPa) = 86.64970 58.44594 133.44692
#
# Poissons Ratio (x) = 0.12636 -0.07013
# Poissons Ratio (y) = 0.18734 0.15190
# Poissons Ratio (z) = -0.04554 0.06653
#
# Static dielectric constant tensor:
#      x y z
#    x 1.956580 0.000000 -0.054560 
#    y 0.000000 2.048760 0.000000 
#    z -0.054560 0.000000 2.232150 
# 
# From -- ./inp_files/285428.got.cif
#   From: 2010.05.17/outbox.cif.g08.bks.cpg/sg15_143_cif.got.tgz:285428.got - 2010.06.03 18:47:42.
