data_PCOD9261630
_publ_section_title
;
Structure prediction by ZEFSAII (Michael W. Deem and Ramdas Pophale) SiO2 
 PCOD9261630
Probable space group: C 2/C
;
_chemical_formula_sum "Si O2"
_cell_formula_units_Z 56
_cell_length_a 21.976934
_cell_length_b 4.952658
_cell_length_c 26.320989
_cell_angle_alpha 90.000000
_cell_angle_beta 94.352807
_cell_angle_gamma 90.000000
_cell_volume 2856.624523
_symmetry_space_group_name_H-M "C 2/C"
_symmetry_group_IT_number 15
_symmetry_cell_setting 'monoclinic'
loop_
_space_group_symop_operation_xyz
x,y,z
-x,y,1/2-z
-x,-y,-z
x,-y,1/2+z
1/2+x,1/2+y,z
1/2-x,1/2+y,1/2-z
1/2-x,1/2-y,-z
1/2+x,1/2-y,1/2+z
loop_
_atom_site_type_symbol
_atom_site_label
_atom_site_fract_x
_atom_site_fract_y
_atom_site_fract_z
Si Si1 0.214587 0.090384 0.953399
Si Si2 0.659202 0.069760 0.585404
Si Si3 0.877621 0.915086 0.476957
Si Si4 0.495933 0.806774 0.809057
Si Si5 0.934539 0.196929 0.355637
Si Si6 0.962963 0.279776 0.062163
Si Si7 0.593428 0.279682 0.395021
O O1 0.268811 0.020793 0.917917
O O2 0.163211 0.245844 0.916939
O O3 0.250000 0.250000 0.000000
O O4 0.175295 0.867746 0.983001
O O5 0.636573 0.280559 0.540450
O O6 0.633610 0.205252 0.635110
O O7 0.630495 0.780119 0.571175
O O8 0.940969 0.833503 0.507080
O O9 0.500000 0.751024 0.750000
O O10 0.451882 0.593920 0.835124
O O11 0.563092 0.795876 0.839488
O O12 0.466656 0.095455 0.819328
O O13 0.970030 0.234971 0.411882
O O14 0.944314 0.589721 0.068306
O O15 0.923419 0.092798 0.097978
#
# Coordination Sequence:
#
# PCOD9261630 Si02
#       7
#     8   8   8   8   8   8   8
#     4   9  18  32  50  72 104 142 176 196 225 285
#     4  11  21  31  47  72 106 139 165 204 246 288
#     4  10  19  31  47  70 101 145 182 197 226 282
#     4  10  20  38  60  75  93 124 166 216 263 309
#     4  10  21  34  51  78 102 124 160 209 267 305
#     4   9  17  31  47  69 101 130 167 209 238 285
#     4   9  18  31  51  75  96 126 170 212 242 282
#
# _framework density 19.603555
#
# number of rings (size 3 to 8) (size 9 to 14) (size 15 to 20)
#    0.000    2.286    0.000    4.286    0.000    4.571 
#    0.000    0.000    0.000    1.714    0.000    0.000 
#    0.000    0.000    0.000    0.000    0.000    0.000 
#
# Total GULP energy -155906.333281 kJ/mol
# GULP energy per Si atom -5568.083331 kJ/mol
# Density = 1.955894 g / cm^3
# Si number density = 19.603555 Si / 1000 Ang^3
#
#
#
# Elastic Constant Matrix: (Units=GPa)
#
#
# Indices 1 2 3 4 5 6 
#
# 1 89.8761 0.9859 39.5524 0.0000 -6.6771 0.0000
# 2 0.9859 61.1300 6.0969 0.0000 3.0898 0.0000
# 3 39.5524 6.0969 71.7768 0.0000 1.3575 0.0000
# 4 0.0000 0.0000 0.0000 18.3203 0.0000 1.8272
# 5 -6.6771 3.0898 1.3575 0.0000 20.5999 0.0000
# 6 0.0000 0.0000 0.0000 1.8272 0.0000 15.2395
#
#
#
# Elastic Compliance Matrix: (Units=1/GPa)
#
#
# Indices 1 2 3 4 5 6 
#
# 1 0.015297 0.000330 -0.008561 0.000000 0.005473 0.000000
# 2 0.000330 0.016623 -0.001551 0.000000 -0.002284 0.000000
# 3 -0.008561 -0.001551 0.018853 0.000000 -0.003785 0.000000
# 4 0.000000 0.000000 0.000000 0.055245 0.000000 -0.006624
# 5 0.005473 -0.002284 -0.003785 0.000000 0.050910 0.000000
# 6 0.000000 0.000000 0.000000 -0.006624 0.000000 0.066413
#
#
# Mechanical properties :
#
#
# Convention : Reuss Voigt Hill
#
# Bulk Modulus (GPa) = 32.04057 35.11704 33.57881
# Shear Modulus (GPa) = 19.73889 22.57511 21.15700
#
# Velocity S-wave (km/s) = 3.17662 3.39718 3.28875
# Velocity P-wave (km/s) = 5.46208 5.77410 5.62026
#
# Compressibility (1/GPa) = 0.03121043
#
# Stress axis : x y z
#
# Youngs Moduli (GPa) = 65.37300 60.15626 53.04242
#
# Poissons Ratio (x) = -0.01988 0.45409
# Poissons Ratio (y) = -0.02161 0.08227
# Poissons Ratio (z) = 0.55965 0.09330
#
# Static dielectric constant tensor:
#      x y z
#    x 1.772980 0.000000 -0.023560 
#    y 0.000000 1.709540 0.000000 
#    z -0.023560 0.000000 1.690380 
# 
# From -- ./inp_files/280827.got.cif
#   From: 2010.05.17/outbox.cif.g08.bks.cpg/sg15_141_cif.got.tgz:280827.got - 2010.06.03 18:47:42.
