data_PCOD9261187
_publ_section_title
;
Structure prediction by ZEFSAII (Michael W. Deem and Ramdas Pophale) SiO2 
 PCOD9261187
Probable space group: C 2/C
;
_chemical_formula_sum "Si O2"
_cell_formula_units_Z 56
_cell_length_a 16.485309
_cell_length_b 16.639407
_cell_length_c 16.630254
_cell_angle_alpha 90.000000
_cell_angle_beta 140.818030
_cell_angle_gamma 90.000000
_cell_volume 2882.062610
_symmetry_space_group_name_H-M "C 2/C"
_symmetry_group_IT_number 15
_symmetry_cell_setting 'monoclinic'
loop_
_space_group_symop_operation_xyz
x,y,z
-x,y,1/2-z
-x,-y,-z
x,-y,1/2+z
1/2+x,1/2+y,z
1/2-x,1/2+y,1/2-z
1/2-x,1/2-y,-z
1/2+x,1/2-y,1/2+z
loop_
_atom_site_type_symbol
_atom_site_label
_atom_site_fract_x
_atom_site_fract_y
_atom_site_fract_z
Si Si1 0.525535 0.070120 0.862941
Si Si2 0.134197 0.204902 0.805950
Si Si3 0.096766 0.674723 0.056250
Si Si4 0.360357 0.914485 0.468692
Si Si5 0.550313 0.345641 0.063134
Si Si6 0.266127 0.963518 0.227856
Si Si7 0.250414 0.859318 0.673556
O O1 0.500000 0.080307 0.750000
O O2 0.384781 0.089149 0.790466
O O3 0.612185 0.128622 0.984300
O O4 0.577800 0.980593 0.924858
O O5 0.253835 0.147009 0.922494
O O6 0.104525 0.178953 0.691896
O O7 0.181217 0.297102 0.834039
O O8 0.000000 0.197567 0.750000
O O9 0.071941 0.768537 0.023936
O O10 0.215032 0.666667 0.208673
O O11 0.977266 0.636380 0.017286
O O12 0.290347 0.964807 0.342757
O O13 0.631681 0.423649 0.102587
O O14 0.400360 0.357767 0.955536
O O15 0.287748 0.047780 0.200871
#
# Coordination Sequence:
#
# PCOD9261187 Si02
#       7
#     8   8   8   8   8   8   8
#     4  11  22  37  63  89 114 155 209 264 308 358
#     4  10  23  37  56  92 135 166 195 254 308 367
#     4  10  19  39  61  85 114 160 211 251 299 365
#     4  10  18  41  60  82 123 164 206 245 303 369
#     4  10  22  36  61  88 117 166 208 245 306 367
#     4  10  20  37  61  87 117 157 211 251 290 369
#     4  11  19  36  60  87 121 164 202 240 300 373
#
# _framework density 19.430529
#
# number of rings (size 3 to 8) (size 9 to 14) (size 15 to 20)
#    0.000    1.714    4.286    1.286    2.000    2.286 
#    0.000    0.714    0.000    0.000    0.000    0.000 
#    0.000    0.000    0.000    0.000    0.000    0.000 
#
# Total GULP energy -155996.686678 kJ/mol
# GULP energy per Si atom -5571.310238 kJ/mol
# Density = 1.938630 g / cm^3
# Si number density = 19.430529 Si / 1000 Ang^3
#
#
#
# Elastic Constant Matrix: (Units=GPa)
#
#
# Indices 1 2 3 4 5 6 
#
# 1 63.8492 23.6439 22.8672 0.0000 -2.7259 0.0000
# 2 23.6439 60.2743 12.2991 0.0000 -1.8077 0.0000
# 3 22.8672 12.2991 78.9448 0.0000 8.2330 0.0001
# 4 0.0000 0.0000 0.0000 22.2501 0.0000 11.4107
# 5 -2.7259 -1.8077 8.2330 0.0000 33.4875 0.0001
# 6 0.0000 0.0000 0.0001 11.4107 0.0001 14.1431
#
#
#
# Elastic Compliance Matrix: (Units=1/GPa)
#
#
# Indices 1 2 3 4 5 6 
#
# 1 0.020076 -0.006776 -0.005021 0.000000 0.002503 0.000000
# 2 -0.006776 0.019509 -0.001159 0.000000 0.000786 0.000000
# 3 -0.005021 -0.001159 0.014729 0.000000 -0.004092 0.000000
# 4 0.000000 0.000000 0.000000 0.076664 0.000000 -0.061853
# 5 0.002503 0.000786 -0.004092 0.000000 0.031114 0.000000
# 6 0.000000 0.000000 0.000000 -0.061853 0.000000 0.120609
#
#
# Mechanical properties :
#
#
# Convention : Reuss Voigt Hill
#
# Bulk Modulus (GPa) = 35.20714 35.63208 35.41961
# Shear Modulus (GPa) = 15.71941 23.59335 19.65638
#
# Velocity S-wave (km/s) = 2.84739 3.48838 3.18405
# Velocity P-wave (km/s) = 5.38228 5.88243 5.63791
#
# Compressibility (1/GPa) = 0.02840333
#
# Stress axis : x y z
#
# Youngs Moduli (GPa) = 49.81089 51.25907 67.89489
#
# Poissons Ratio (x) = 0.34732 0.34087
# Poissons Ratio (y) = 0.33750 0.07867
# Poissons Ratio (z) = 0.25008 0.05939
#
# Static dielectric constant tensor:
#      x y z
#    x 1.676610 0.000000 -0.011320 
#    y 0.000000 1.753470 0.000000 
#    z -0.011320 0.000000 1.729310 
# 
# From -- ./inp_files/211234.got.cif
#   From: 2010.05.17/outbox.cif.g08.bks.cpg/sg15_106_cif.got.tgz:211234.got - 2010.06.03 18:47:42.
