data_PCOD9261860
_publ_section_title
;
Structure prediction by ZEFSAII (Michael W. Deem and Ramdas Pophale) SiO2 
 PCOD9261860
Probable space group: C 2/C
;
_chemical_formula_sum "Si O2"
_cell_formula_units_Z 48
_cell_length_a 21.091563
_cell_length_b 33.448830
_cell_length_c 5.254545
_cell_angle_alpha 90.000000
_cell_angle_beta 108.801860
_cell_angle_gamma 90.000000
_cell_volume 3509.208006
_symmetry_space_group_name_H-M "C 2/C"
_symmetry_group_IT_number 15
_symmetry_cell_setting 'monoclinic'
loop_
_space_group_symop_operation_xyz
x,y,z
-x,y,1/2-z
-x,-y,-z
x,-y,1/2+z
1/2+x,1/2+y,z
1/2-x,1/2+y,1/2-z
1/2-x,1/2-y,-z
1/2+x,1/2-y,1/2+z
loop_
_atom_site_type_symbol
_atom_site_label
_atom_site_fract_x
_atom_site_fract_y
_atom_site_fract_z
Si Si1 0.324134 0.779830 0.828381
Si Si2 0.127064 0.849721 0.023331
Si Si3 0.045053 0.230528 0.555541
Si Si4 0.424916 0.389710 0.063251
Si Si5 0.923875 0.982815 0.923789
Si Si6 0.260372 0.803028 0.245772
O O1 0.397949 0.764459 0.856589
O O2 0.294326 0.806872 0.564643
O O3 0.279260 0.739357 0.788514
O O4 0.314327 0.799729 0.090411
O O5 0.099193 0.865227 0.716334
O O6 0.083686 0.811294 0.056838
O O7 0.118764 0.881210 0.242107
O O8 0.203561 0.835182 0.105986
O O9 0.000000 0.228581 0.750000
O O10 0.000000 0.237708 0.250000
O O11 0.500000 0.378915 0.250000
O O12 0.425598 0.436192 0.986692
O O13 0.891579 0.993079 0.613278
O O14 0.000000 0.000000 0.000000
#
# Coordination Sequence:
#
# PCOD9261860 Si02
#       6
#     8   8   8   8   8   8
#     4   9  17  29  47  55  72 108 130 163 193 243
#     4  11  22  30  42  62  83 105 125 174 218 262
#     4  11  20  31  41  62  87 102 129 165 217 261
#     4  12  21  30  44  59  81 104 133 165 228 262
#     4  10  19  32  44  56  72 102 139 173 190 252
#     4   9  17  31  43  58  74  98 142 158 194 248
#
# _framework density 13.678302
#
# number of rings (size 3 to 8) (size 9 to 14) (size 15 to 20)
#    0.000    1.667    1.667    6.000    2.333    5.333 
#    0.000    0.000    0.000    0.000    0.000    0.000 
#    0.000    0.000    0.000    0.000    0.000    0.000 
#
# Total GULP energy -133795.036967 kJ/mol
# GULP energy per Si atom -5574.793207 kJ/mol
# Density = 1.364717 g / cm^3
# Si number density = 13.678302 Si / 1000 Ang^3
#
#
#
# Elastic Constant Matrix: (Units=GPa)
#
#
# Indices 1 2 3 4 5 6 
#
# 1 49.1262 20.4592 30.8469 0.0000 -5.0969 0.0000
# 2 20.4592 47.8224 28.8265 0.0000 2.9060 0.0000
# 3 30.8469 28.8265 107.5496 0.0000 -17.5565 0.0000
# 4 0.0000 0.0000 0.0000 15.9402 0.0000 -5.0968
# 5 -5.0969 2.9060 -17.5565 0.0000 21.2814 0.0000
# 6 0.0000 0.0000 0.0000 -5.0968 0.0000 12.9189
#
#
#
# Elastic Compliance Matrix: (Units=1/GPa)
#
#
# Indices 1 2 3 4 5 6 
#
# 1 0.027594 -0.009123 -0.004839 0.000000 0.003863 0.000000
# 2 -0.009123 0.030080 -0.007480 0.000000 -0.012463 0.000000
# 3 -0.004839 -0.007480 0.014640 0.000000 0.011940 0.000000
# 4 0.000000 0.000000 0.000000 0.071791 0.000000 0.028323
# 5 0.003863 -0.012463 0.011940 0.000000 0.059467 0.000000
# 6 0.000000 0.000000 0.000000 0.028323 0.000000 0.088580
#
#
# Mechanical properties :
#
#
# Convention : Reuss Voigt Hill
#
# Bulk Modulus (GPa) = 33.97902 40.52929 37.25416
# Shear Modulus (GPa) = 14.49921 18.31912 16.40917
#
# Velocity S-wave (km/s) = 3.25932 3.66359 3.46735
# Velocity P-wave (km/s) = 6.24978 6.89859 6.58218
#
# Compressibility (1/GPa) = 0.02942993
#
# Stress axis : x y z
#
# Youngs Moduli (GPa) = 36.23943 33.24449 68.30688
#
# Poissons Ratio (x) = 0.30330 0.33050
# Poissons Ratio (y) = 0.33063 0.51095
# Poissons Ratio (z) = 0.17534 0.24867
#
# Static dielectric constant tensor:
#      x y z
#    x 1.448330 0.000000 -0.028880 
#    y 0.000000 1.446630 0.000000 
#    z -0.028880 0.000000 1.482600 
# 
# From -- ./inp_files/11073.got.cif
#   From: 2010.05.17/outbox.cif.g08.bks.cpg/sg15_6_cif.got.tgz:11073.got - 2010.06.03 18:47:42.
