data_PCOD9261770
_publ_section_title
;
Structure prediction by ZEFSAII (Michael W. Deem and Ramdas Pophale) SiO2 
 PCOD9261770
Probable space group: C 2/C
;
_chemical_formula_sum "Si O2"
_cell_formula_units_Z 56
_cell_length_a 15.756741
_cell_length_b 13.939647
_cell_length_c 19.291851
_cell_angle_alpha 90.000000
_cell_angle_beta 44.083724
_cell_angle_gamma 90.000000
_cell_volume 2947.946176
_symmetry_space_group_name_H-M "C 2/C"
_symmetry_group_IT_number 15
_symmetry_cell_setting 'monoclinic'
loop_
_space_group_symop_operation_xyz
x,y,z
-x,y,1/2-z
-x,-y,-z
x,-y,1/2+z
1/2+x,1/2+y,z
1/2-x,1/2+y,1/2-z
1/2-x,1/2-y,-z
1/2+x,1/2-y,1/2+z
loop_
_atom_site_type_symbol
_atom_site_label
_atom_site_fract_x
_atom_site_fract_y
_atom_site_fract_z
Si Si1 0.807543 0.457871 0.604513
Si Si2 0.944427 0.638044 0.527771
Si Si3 0.461847 0.355182 0.537433
Si Si4 0.579584 0.647583 0.274678
Si Si5 0.298842 0.141865 0.962611
Si Si6 0.199076 0.967290 0.394687
Si Si7 0.079831 0.359778 0.292352
O O1 0.836342 0.567567 0.568533
O O2 0.683835 0.433218 0.716452
O O3 0.795646 0.400168 0.540660
O O4 0.928479 0.412288 0.569010
O O5 0.943482 0.750764 0.515001
O O6 0.932855 0.634543 0.617692
O O7 0.475535 0.349892 0.614308
O O8 0.585619 0.402275 0.435576
O O9 0.349819 0.425415 0.585102
O O10 0.500000 0.633596 0.250000
O O11 0.632891 0.756115 0.238156
O O12 0.223286 0.071599 0.957786
O O13 0.438085 0.139553 0.852961
O O14 0.250000 0.250000 0.000000
O O15 0.326028 0.942254 0.283306
#
# Coordination Sequence:
#
# PCOD9261770 Si02
#       7
#     8   8   8   8   8   8   8
#     4  10  19  32  54  74 100 132 169 215 262 308
#     4   9  19  35  50  74 101 133 172 210 255 312
#     4  10  22  34  50  73 106 139 173 213 253 310
#     4  11  19  31  52  78 101 129 165 213 264 302
#     4  11  20  33  54  82 105 128 169 222 266 308
#     4  11  20  34  51  75 105 138 170 210 264 309
#     4  10  19  31  53  78 104 131 164 213 267 311
#
# _framework density 18.996276000000002
#
# number of rings (size 3 to 8) (size 9 to 14) (size 15 to 20)
#    0.000    1.714    0.000    8.143    0.000    0.000 
#    0.000    0.714    0.000    1.714    0.000    0.000 
#    0.000    0.000    0.000    0.000    0.000    0.000 
#
# Total GULP energy -156001.640611 kJ/mol
# GULP energy per Si atom -5571.487165 kJ/mol
# Density = 1.895304 g / cm^3
# Si number density = 18.996276 Si / 1000 Ang^3
#
#
#
# Elastic Constant Matrix: (Units=GPa)
#
#
# Indices 1 2 3 4 5 6 
#
# 1 45.8494 24.3382 0.7255 0.0000 -7.9995 0.0000
# 2 24.3382 130.5342 13.7098 0.0000 -18.0520 0.0000
# 3 0.7255 13.7098 63.1218 0.0000 -17.9673 0.0000
# 4 0.0000 0.0000 0.0000 23.5964 0.0000 -5.1178
# 5 -7.9995 -18.0520 -17.9673 0.0000 26.3377 0.0000
# 6 0.0000 0.0000 0.0000 -5.1178 0.0000 30.0730
#
#
#
# Elastic Compliance Matrix: (Units=1/GPa)
#
#
# Indices 1 2 3 4 5 6 
#
# 1 0.025045 -0.004025 0.002440 0.000000 0.006513 0.000000
# 2 -0.004025 0.009113 -0.000624 0.000000 0.004597 0.000000
# 3 0.002440 -0.000624 0.019904 0.000000 0.013892 0.000000
# 4 0.000000 0.000000 0.000000 0.044004 0.000000 0.007488
# 5 0.006513 0.004597 0.013892 0.000000 0.052574 0.000000
# 6 0.000000 0.000000 0.000000 0.007488 0.000000 0.034527
#
#
# Mechanical properties :
#
#
# Convention : Reuss Voigt Hill
#
# Bulk Modulus (GPa) = 20.14390 35.22805 27.68598
# Shear Modulus (GPa) = 24.25622 29.38355 26.81988
#
# Velocity S-wave (km/s) = 3.57724 3.93721 3.76154
# Velocity P-wave (km/s) = 5.26207 6.26529 5.78546
#
# Compressibility (1/GPa) = 0.04964281
#
# Stress axis : x y z
#
# Youngs Moduli (GPa) = 39.92825 109.73696 50.24092
#
# Poissons Ratio (x) = 0.44172 -0.12260
# Poissons Ratio (y) = 0.16072 0.03137
# Poissons Ratio (z) = -0.09743 0.06851
#
# Static dielectric constant tensor:
#      x y z
#    x 1.707710 0.000000 -0.009260 
#    y 0.000000 1.664140 0.000000 
#    z -0.009260 0.000000 1.748210 
# 
# From -- ./inp_files/277040.got.cif
#   From: 2010.05.17/outbox.cif.g08.bks.cpg/sg15_139_cif.got.tgz:277040.got - 2010.06.03 18:47:42.
