data_PCOD9261367
_publ_section_title
;
Structure prediction by ZEFSAII (Michael W. Deem and Ramdas Pophale) SiO2 
 PCOD9261367
Probable space group: C 2/C
;
_chemical_formula_sum "Si O2"
_cell_formula_units_Z 56
_cell_length_a 5.509798
_cell_length_b 22.106518
_cell_length_c 18.595147
_cell_angle_alpha 90.000000
_cell_angle_beta 104.829870
_cell_angle_gamma 90.000000
_cell_volume 2189.489666
_symmetry_space_group_name_H-M "C 2/C"
_symmetry_group_IT_number 15
_symmetry_cell_setting 'monoclinic'
loop_
_space_group_symop_operation_xyz
x,y,z
-x,y,1/2-z
-x,-y,-z
x,-y,1/2+z
1/2+x,1/2+y,z
1/2-x,1/2+y,1/2-z
1/2-x,1/2-y,-z
1/2+x,1/2-y,1/2+z
loop_
_atom_site_type_symbol
_atom_site_label
_atom_site_fract_x
_atom_site_fract_y
_atom_site_fract_z
Si Si1 0.752239 0.657911 0.050490
Si Si2 0.726776 0.581921 0.720017
Si Si3 0.163469 0.468787 0.667302
Si Si4 0.395383 0.772083 0.166009
Si Si5 0.094036 0.995587 0.088720
Si Si6 0.706699 0.638764 0.392546
Si Si7 0.352908 0.710592 0.611193
O O1 0.535022 0.622263 0.076943
O O2 0.823344 0.716324 0.104300
O O3 0.020127 0.628212 0.051186
O O4 0.647859 0.684326 0.968787
O O5 0.500000 0.606400 0.750000
O O6 0.770679 0.514911 0.763525
O O7 0.654812 0.569129 0.632028
O O8 0.000000 0.611255 0.750000
O O9 0.348558 0.486585 0.616514
O O10 0.248801 0.398300 0.678804
O O11 0.870763 0.474852 0.623954
O O12 0.500000 0.752074 0.250000
O O13 0.329154 0.710397 0.118686
O O14 0.605216 0.807418 0.136270
O O15 0.129042 0.803070 0.160865
O O16 0.000000 0.000000 0.000000
#
# Coordination Sequence:
#
# PCOD9261367 Si02
#       7
#     8   8   8   8   8   8   8
#     4   9  17  30  47  65  88 124 167 201 236 280
#     4   8  16  29  45  65  92 126 155 183 224 280
#     4  10  19  32  48  71 102 128 157 196 243 299
#     4  10  19  29  43  67  98 127 161 200 240 289
#     4  10  19  32  49  69  96 131 167 200 229 271
#     4  10  19  30  46  69  96 128 158 190 237 296
#     4   9  17  30  45  62  90 126 163 206 240 273
#
# _framework density 25.576737999999999
#
# number of rings (size 3 to 8) (size 9 to 14) (size 15 to 20)
#    0.000    2.571    0.000    2.571    0.000    5.143 
#    0.000    7.143    0.000    0.000    0.000    0.000 
#    0.000  120.000    0.000    0.000    0.000    0.000 
#
# Total GULP energy -156191.409156 kJ/mol
# GULP energy per Si atom -5578.264613 kJ/mol
# Density = 2.551852 g / cm^3
# Si number density = 25.576738 Si / 1000 Ang^3
#
#
#
# Elastic Constant Matrix: (Units=GPa)
#
#
# Indices 1 2 3 4 5 6 
#
# 1 274.4988 44.4944 57.0627 0.0000 7.4952 0.0000
# 2 44.4944 59.7793 -7.6338 0.0000 -5.3500 0.0000
# 3 57.0627 -7.6338 77.9300 0.0000 1.0156 0.0000
# 4 0.0000 0.0000 0.0000 -13.2131 0.0000 -0.6604
# 5 7.4952 -5.3500 1.0156 0.0000 46.1074 0.0000
# 6 0.0000 0.0000 0.0000 -0.6604 0.0000 41.2683
#
#
#
# Elastic Compliance Matrix: (Units=1/GPa)
#
#
# Indices 1 2 3 4 5 6 
#
# 1 0.005334 -0.004642 -0.004344 0.000000 -0.001310 0.000000
# 2 -0.004642 0.021153 0.005431 0.000000 0.003090 0.000000
# 3 -0.004344 0.005431 0.016532 0.000000 0.000972 0.000000
# 4 0.000000 0.000000 0.000000 -0.075622 0.000000 -0.001210
# 5 -0.001310 0.003090 0.000972 0.000000 0.022239 0.000000
# 6 0.000000 0.000000 0.000000 -0.001210 0.000000 0.024212
#
#
# Mechanical properties :
#
#
# Convention : Reuss Voigt Hill
#
# Bulk Modulus (GPa) = 27.84728 66.67274 47.26001
# Shear Modulus (GPa) = 151.84737 36.05151 93.94944
#
# Velocity S-wave (km/s) = 7.71351 3.75846 6.06730
# Velocity P-wave (km/s) = 9.49960 6.70515 8.22196
#
# Compressibility (1/GPa) = 0.03591015
#
# Stress axis : x y z
#
# Youngs Moduli (GPa) = 187.47058 47.27351 60.48942
#
# Poissons Ratio (x) = 0.21945 0.26274
# Poissons Ratio (y) = 0.87028 -0.32852
# Poissons Ratio (z) = 0.81428 -0.25674
#
# Static dielectric constant tensor:
#      x y z
#    x 2.027830 0.000000 0.024280 
#    y 0.000000 2.214370 0.000000 
#    z 0.024280 0.000000 1.968000 
# 
# From -- ./inp_files/186580.got.cif
#   From: 2010.05.17/outbox.cif.g08.bks.cpg/sg15_94_cif.got.tgz:186580.got - 2010.06.03 18:47:42.
