data_PCOD9261537
_publ_section_title
;
Structure prediction by ZEFSAII (Michael W. Deem and Ramdas Pophale) SiO2 
 PCOD9261537
Probable space group: C 2/C
;
_chemical_formula_sum "Si O2"
_cell_formula_units_Z 56
_cell_length_a 20.110658
_cell_length_b 11.138362
_cell_length_c 12.314588
_cell_angle_alpha 90.000000
_cell_angle_beta 63.380773
_cell_angle_gamma 90.000000
_cell_volume 2466.078651
_symmetry_space_group_name_H-M "C 2/C"
_symmetry_group_IT_number 15
_symmetry_cell_setting 'monoclinic'
loop_
_space_group_symop_operation_xyz
x,y,z
-x,y,1/2-z
-x,-y,-z
x,-y,1/2+z
1/2+x,1/2+y,z
1/2-x,1/2+y,1/2-z
1/2-x,1/2-y,-z
1/2+x,1/2-y,1/2+z
loop_
_atom_site_type_symbol
_atom_site_label
_atom_site_fract_x
_atom_site_fract_y
_atom_site_fract_z
Si Si1 0.590357 0.749344 0.069805
Si Si2 0.192166 0.401358 0.853402
Si Si3 0.624645 0.155628 0.181118
Si Si4 0.352389 0.352817 0.745409
Si Si5 0.863766 0.657295 0.567295
Si Si6 0.500000 0.951015 0.250000
Si Si7 0.522557 0.644957 0.503612
Si Si8 0.000000 0.851932 0.250000
O O1 0.610982 0.686432 0.168255
O O2 0.531912 0.857539 0.137798
O O3 0.551343 0.664851 0.010283
O O4 0.662903 0.807191 0.962978
O O5 0.179272 0.353476 0.741850
O O6 0.278255 0.429021 0.812473
O O7 0.141742 0.519345 0.900174
O O8 0.570066 0.269167 0.231375
O O9 0.569541 0.039147 0.222561
O O10 0.665201 0.165736 0.035011
O O11 0.329760 0.233636 0.691601
O O12 0.414108 0.408415 0.620927
O O13 0.944960 0.719559 0.497058
O O14 0.520056 0.584705 0.623032
#
# Coordination Sequence:
#
# PCOD9261537 Si02
#       8
#     8   8   8   8   8   4   8   4
#     4  12  19  32  53  76 112 147 176 224 270 329
#     4  12  22  33  53  76 118 154 177 224 276 330
#     4  10  19  30  51  82 108 143 173 214 283 338
#     4  10  23  36  47  81 117 148 187 215 272 336
#     4   9  21  35  52  77 111 145 183 220 266 336
#     4  11  18  30  54  84 112 129 176 217 284 340
#     4   9  18  34  53  78 114 138 179 226 271 330
#     4   9  16  30  48  78 104 137 178 217 274 330
#
# _framework density 22.708114999999999
#
# number of rings (size 3 to 8) (size 9 to 14) (size 15 to 20)
#    0.857    0.857    4.286    2.143    0.000    1.714 
#    0.000    0.000    0.000    0.000    0.000    1.000 
#    8.571    0.000    0.000    0.000    0.000    0.000 
#
# Total GULP energy -156184.612785 kJ/mol
# GULP energy per Si atom -5578.021885 kJ/mol
# Density = 2.265643 g / cm^3
# Si number density = 22.708115 Si / 1000 Ang^3
#
#
#
# Elastic Constant Matrix: (Units=GPa)
#
#
# Indices 1 2 3 4 5 6 
#
# 1 80.4406 23.5753 43.3909 0.0000 12.8726 0.0000
# 2 23.5753 60.5699 20.4690 0.0000 9.3707 0.0000
# 3 43.3909 20.4690 145.7666 0.0000 33.6599 0.0000
# 4 0.0000 0.0000 0.0000 -17.8874 0.0000 -3.2574
# 5 12.8726 9.3707 33.6599 0.0000 25.9356 0.0000
# 6 0.0000 0.0000 0.0000 -3.2574 0.0000 12.9716
#
#
#
# Elastic Compliance Matrix: (Units=1/GPa)
#
#
# Indices 1 2 3 4 5 6 
#
# 1 0.016101 -0.004773 -0.003820 0.000000 -0.001309 0.000000
# 2 -0.004773 0.019112 -0.000308 0.000000 -0.004137 0.000000
# 3 -0.003820 -0.000308 0.010820 0.000000 -0.012035 0.000000
# 4 0.000000 0.000000 0.000000 -0.053460 0.000000 -0.013425
# 5 -0.001309 -0.004137 -0.012035 0.000000 0.056320 0.000000
# 6 0.000000 0.000000 0.000000 -0.013425 0.000000 0.073720
#
#
# Mechanical properties :
#
#
# Convention : Reuss Voigt Hill
#
# Bulk Modulus (GPa) = 35.42364 51.29415 43.35889
# Shear Modulus (GPa) = 33.37247 17.49342 25.43295
#
# Velocity S-wave (km/s) = 3.83773 2.77855 3.35026
# Velocity P-wave (km/s) = 5.93894 5.73858 5.83962
#
# Compressibility (1/GPa) = 0.02822974
#
# Stress axis : x y z
#
# Youngs Moduli (GPa) = 62.10954 52.32400 92.42378
#
# Poissons Ratio (x) = 0.24976 0.35309
# Poissons Ratio (y) = 0.29647 0.02843
# Poissons Ratio (z) = 0.23728 0.01609
#
# Static dielectric constant tensor:
#      x y z
#    x 1.796990 0.000000 -0.012420 
#    y 0.000000 1.851580 0.000000 
#    z -0.012420 0.000000 1.891810 
# 
# From -- ./inp_files/112358.got.cif
#   From: 2010.05.17/outbox.cif.g08.bks.cpg/sg15_57_cif.got.tgz:112358.got - 2010.06.03 18:47:42.
