data_PCOD9261574
_publ_section_title
;
Structure prediction by ZEFSAII (Michael W. Deem and Ramdas Pophale) SiO2 
 PCOD9261574
Probable space group: C 2/C
;
_chemical_formula_sum "Si O2"
_cell_formula_units_Z 60
_cell_length_a 8.125441
_cell_length_b 17.441085
_cell_length_c 22.765930
_cell_angle_alpha 90.000000
_cell_angle_beta 66.640342
_cell_angle_gamma 90.000000
_cell_volume 2961.860611
_symmetry_space_group_name_H-M "C 2/C"
_symmetry_group_IT_number 15
_symmetry_cell_setting 'monoclinic'
loop_
_space_group_symop_operation_xyz
x,y,z
-x,y,1/2-z
-x,-y,-z
x,-y,1/2+z
1/2+x,1/2+y,z
1/2-x,1/2+y,1/2-z
1/2-x,1/2-y,-z
1/2+x,1/2-y,1/2+z
loop_
_atom_site_type_symbol
_atom_site_label
_atom_site_fract_x
_atom_site_fract_y
_atom_site_fract_z
Si Si1 0.297849 0.406512 0.800803
Si Si2 0.448356 0.368022 0.191163
Si Si3 0.344335 0.758918 0.322426
Si Si4 0.283024 0.502815 0.652352
Si Si5 0.097856 0.950854 0.536983
Si Si6 0.289924 0.954281 0.100159
Si Si7 0.000000 0.593340 0.250000
Si Si8 0.157809 0.373463 0.075219
O O1 0.500000 0.421965 0.750000
O O2 0.311878 0.330366 0.838030
O O3 0.228334 0.480028 0.846814
O O4 0.167654 0.377458 0.765681
O O5 0.500000 0.349265 0.250000
O O6 0.332133 0.301092 0.178592
O O7 0.330565 0.446278 0.202770
O O8 0.628039 0.393448 0.132001
O O9 0.500000 0.767784 0.250000
O O10 0.384250 0.800458 0.378516
O O11 0.445414 0.448565 0.608903
O O12 0.241308 0.566082 0.609676
O O13 0.106538 0.455981 0.687670
O O14 0.252579 0.002693 0.544327
O O15 0.190585 0.875370 0.497095
O O16 0.000000 0.000000 0.500000
O O17 0.474935 0.909765 0.077709
#
# Coordination Sequence:
#
# PCOD9261574 Si02
#       8
#     8   8   8   8   8   8   4   8
#     4  11  24  39  57  89 125 157 196 248 305 359
#     4  10  19  30  54  83 114 147 192 241 294 351
#     4  10  23  38  54  82 124 155 189 242 310 354
#     4   9  19  31  54  88 113 147 193 249 284 344
#     4   9  19  35  56  88 119 148 192 252 301 341
#     4  11  19  35  61  88 109 150 206 245 289 355
#     4  12  20  36  64  88 122 156 202 242 300 348
#     4  10  19  35  58  83 114 154 192 243 292 356
#
# _framework density 20.257535000000001
#
# number of rings (size 3 to 8) (size 9 to 14) (size 15 to 20)
#    0.000    1.867    1.333    4.800    4.667    0.000 
#    0.000    0.667    0.000    0.800    0.000    0.000 
#    0.000    0.000    0.000    0.000    0.000    0.000 
#
# Total GULP energy -167134.376714 kJ/mol
# GULP energy per Si atom -5571.145890 kJ/mol
# Density = 2.021143 g / cm^3
# Si number density = 20.257535 Si / 1000 Ang^3
#
#
#
# Elastic Constant Matrix: (Units=GPa)
#
#
# Indices 1 2 3 4 5 6 
#
# 1 112.6463 15.5680 7.2836 0.0000 6.7103 0.0000
# 2 15.5680 45.2749 15.4923 0.0000 -12.7739 0.0000
# 3 7.2836 15.4923 33.9340 0.0000 -1.9945 0.0000
# 4 0.0000 0.0000 0.0000 7.2229 0.0000 2.6808
# 5 6.7103 -12.7739 -1.9945 0.0000 37.4847 0.0000
# 6 0.0000 0.0000 0.0000 2.6808 0.0000 6.9624
#
#
#
# Elastic Compliance Matrix: (Units=1/GPa)
#
#
# Indices 1 2 3 4 5 6 
#
# 1 0.009652 -0.004067 -0.000399 0.000000 -0.003135 0.000000
# 2 -0.004067 0.030753 -0.012548 0.000000 0.010540 0.000000
# 3 -0.000399 -0.012548 0.035146 0.000000 -0.002334 0.000000
# 4 0.000000 0.000000 0.000000 0.161535 0.000000 -0.062198
# 5 -0.003135 0.010540 -0.002334 0.000000 0.030706 0.000000
# 6 0.000000 0.000000 0.000000 -0.062198 0.000000 0.167578
#
#
# Mechanical properties :
#
#
# Convention : Reuss Voigt Hill
#
# Bulk Modulus (GPa) = 24.08272 29.83812 26.96042
# Shear Modulus (GPa) = 10.34685 20.56808 15.45747
#
# Velocity S-wave (km/s) = 2.26246 3.18988 2.76533
# Velocity P-wave (km/s) = 4.32887 5.32245 4.85116
#
# Compressibility (1/GPa) = 0.04152355
#
# Stress axis : x y z
#
# Youngs Moduli (GPa) = 103.60609 32.51703 28.45272
#
# Poissons Ratio (x) = 0.13224 0.01136
# Poissons Ratio (y) = 0.42134 0.35702
# Poissons Ratio (z) = 0.04137 0.40802
#
# Static dielectric constant tensor:
#      x y z
#    x 1.774730 0.000000 0.039660 
#    y 0.000000 1.730500 0.000000 
#    z 0.039660 0.000000 1.783490 
# 
# From -- ./inp_files/265538.got.cif
#   From: 2010.05.17/outbox.cif.g08.bks.cpg/sg15_133_cif.got.tgz:265538.got - 2010.06.03 18:47:42.
