data_PCOD9261462
_publ_section_title
;
Structure prediction by ZEFSAII (Michael W. Deem and Ramdas Pophale) SiO2 
 PCOD9261462
Probable space group: C 2/C
;
_chemical_formula_sum "Si O2"
_cell_formula_units_Z 56
_cell_length_a 30.748519
_cell_length_b 12.484724
_cell_length_c 9.401630
_cell_angle_alpha 90.000000
_cell_angle_beta 137.512162
_cell_angle_gamma 90.000000
_cell_volume 2437.749214
_symmetry_space_group_name_H-M "C 2/C"
_symmetry_group_IT_number 15
_symmetry_cell_setting 'monoclinic'
loop_
_space_group_symop_operation_xyz
x,y,z
-x,y,1/2-z
-x,-y,-z
x,-y,1/2+z
1/2+x,1/2+y,z
1/2-x,1/2+y,1/2-z
1/2-x,1/2-y,-z
1/2+x,1/2-y,1/2+z
loop_
_atom_site_type_symbol
_atom_site_label
_atom_site_fract_x
_atom_site_fract_y
_atom_site_fract_z
Si Si1 0.838267 0.308699 0.428075
Si Si2 0.878880 0.945666 0.584582
Si Si3 0.018388 0.269425 0.634065
Si Si4 0.262910 0.596856 0.631604
Si Si5 0.051101 0.071166 0.535627
Si Si6 0.274380 0.166816 0.237850
Si Si7 0.379084 0.797162 0.209660
O O1 0.910758 0.314615 0.663264
O O2 0.797619 0.398063 0.410386
O O3 0.792444 0.205226 0.350384
O O4 0.843223 0.312595 0.271800
O O5 0.933660 0.943633 0.592926
O O6 0.878930 0.829540 0.662956
O O7 0.886628 0.033957 0.724417
O O8 0.816241 0.969251 0.340304
O O9 0.032316 0.188520 0.538831
O O10 0.000000 0.223258 0.750000
O O11 0.953571 0.328774 0.423010
O O12 0.293398 0.718697 0.706115
O O13 0.238644 0.580481 0.414912
O O14 0.000000 0.000000 0.500000
O O15 0.334546 0.146018 0.485261
#
# Coordination Sequence:
#
# PCOD9261462 Si02
#       7
#     8   8   8   8   8   8   8
#     4   9  17  30  50  68  94 128 166 207 264 304
#     4  11  23  35  47  66  94 136 185 215 242 289
#     4  10  20  31  47  71 102 138 169 205 245 300
#     4   8  17  33  49  67  88 119 170 215 263 296
#     4  12  23  35  45  65  98 144 182 213 237 280
#     4   8  15  29  47  68  89 118 168 208 254 300
#     4  10  19  30  47  73  96 129 175 202 249 306
#
# _framework density 22.972009
#
# number of rings (size 3 to 8) (size 9 to 14) (size 15 to 20)
#    0.857    1.429    1.429    2.571    4.000    0.000 
#    0.000    0.000    0.000    0.000    0.000    0.000 
#    0.000    0.000    0.000   38.571    0.000    0.000 
#
# Total GULP energy -155891.296100 kJ/mol
# GULP energy per Si atom -5567.546289 kJ/mol
# Density = 2.291972 g / cm^3
# Si number density = 22.972009 Si / 1000 Ang^3
#
#
#
# Elastic Constant Matrix: (Units=GPa)
#
#
# Indices 1 2 3 4 5 6 
#
# 1 129.1437 4.8419 52.1890 0.0000 -6.9556 0.0000
# 2 4.8419 17.5438 3.3314 0.0000 1.8560 0.0000
# 3 52.1890 3.3314 171.6547 0.0000 -3.3739 0.0000
# 4 0.0000 0.0000 0.0000 26.5171 0.0000 -3.4958
# 5 -6.9556 1.8560 -3.3739 0.0000 44.1278 0.0000
# 6 0.0000 0.0000 0.0000 -3.4958 0.0000 8.0102
#
#
#
# Elastic Compliance Matrix: (Units=1/GPa)
#
#
# Indices 1 2 3 4 5 6 
#
# 1 0.008967 -0.002107 -0.002660 0.000000 0.001299 0.000000
# 2 -0.002107 0.057982 -0.000540 0.000000 -0.002812 0.000000
# 3 -0.002660 -0.000540 0.006647 0.000000 0.000112 0.000000
# 4 0.000000 0.000000 0.000000 0.040014 0.000000 0.017463
# 5 0.001299 -0.002812 0.000112 0.000000 0.022993 0.000000
# 6 0.000000 0.000000 0.000000 0.017463 0.000000 0.132462
#
#
# Mechanical properties :
#
#
# Convention : Reuss Voigt Hill
#
# Bulk Modulus (GPa) = 15.87755 48.78518 32.33137
# Shear Modulus (GPa) = 16.62940 32.92969 24.77954
#
# Velocity S-wave (km/s) = 2.69345 3.79023 3.28790
# Velocity P-wave (km/s) = 4.07426 6.35903 5.34027
#
# Compressibility (1/GPa) = 0.06298201
#
# Stress axis : x y z
#
# Youngs Moduli (GPa) = 111.51787 17.24681 150.44323
#
# Poissons Ratio (x) = 0.03634 0.40017
# Poissons Ratio (y) = 0.23499 0.08122
# Poissons Ratio (z) = 0.29663 0.00931
#
# Static dielectric constant tensor:
#      x y z
#    x 1.871180 0.000000 0.090840 
#    y 0.000000 2.022690 0.000000 
#    z 0.090840 0.000000 1.975340 
# 
# From -- ./inp_files/70513.got.cif
#   From: 2010.05.17/outbox.cif.g08.bks.cpg/sg15_36_cif.got.tgz:70513.got - 2010.06.03 18:47:42.
