data_PCOD9261950
_publ_section_title
;
Structure prediction by ZEFSAII (Michael W. Deem and Ramdas Pophale) SiO2 
 PCOD9261950
Probable space group: C 2/C
;
_chemical_formula_sum "Si O2"
_cell_formula_units_Z 48
_cell_length_a 15.255309
_cell_length_b 13.549586
_cell_length_c 12.684591
_cell_angle_alpha 90.000000
_cell_angle_beta 46.159499
_cell_angle_gamma 90.000000
_cell_volume 1891.132014
_symmetry_space_group_name_H-M "C 2/C"
_symmetry_group_IT_number 15
_symmetry_cell_setting 'monoclinic'
loop_
_space_group_symop_operation_xyz
x,y,z
-x,y,1/2-z
-x,-y,-z
x,-y,1/2+z
1/2+x,1/2+y,z
1/2-x,1/2+y,1/2-z
1/2-x,1/2-y,-z
1/2+x,1/2-y,1/2+z
loop_
_atom_site_type_symbol
_atom_site_label
_atom_site_fract_x
_atom_site_fract_y
_atom_site_fract_z
Si Si1 0.721379 0.531981 0.371979
Si Si2 0.523957 0.561604 0.855766
Si Si3 0.297818 0.300161 0.788548
Si Si4 0.252311 0.010251 0.077689
Si Si5 0.469935 0.243306 0.018434
Si Si6 0.983878 0.544491 0.141624
O O1 0.581825 0.493683 0.503074
O O2 0.719921 0.630352 0.301578
O O3 0.740022 0.553197 0.482774
O O4 0.855459 0.486828 0.239436
O O5 0.500000 0.556102 0.750000
O O6 0.667800 0.534929 0.740313
O O7 0.508590 0.669525 0.915175
O O8 0.299544 0.378553 0.883236
O O9 0.426826 0.250203 0.658254
O O10 0.169858 0.244249 0.903428
O O11 0.394536 0.016907 0.983475
O O12 0.485708 0.141967 0.069372
O O13 0.000000 0.573962 0.250000
#
# Coordination Sequence:
#
# PCOD9261950 Si02
#       6
#     8   8   8   8   8   8
#     4   8  18  32  49  78 105 135 176 214 265 316
#     4   9  17  31  52  79 108 139 174 221 274 323
#     4  10  21  35  54  81 110 144 179 221 273 325
#     4  10  19  33  52  79 112 143 181 219 266 325
#     4  10  19  32  50  80 113 140 174 218 277 332
#     4   9  17  31  52  79 108 139 174 221 274 323
#
# _framework density 25.381623000000001
#
# number of rings (size 3 to 8) (size 9 to 14) (size 15 to 20)
#    0.000    2.667    0.000    1.500    0.000    5.333 
#    0.000   11.667    0.000    0.000    0.000   66.500 
#    0.000    0.000    0.000    0.000    0.000    0.000 
#
# Total GULP energy -133702.644451 kJ/mol
# GULP energy per Si atom -5570.943519 kJ/mol
# Density = 2.532385 g / cm^3
# Si number density = 25.381623 Si / 1000 Ang^3
#
#
#
# Elastic Constant Matrix: (Units=GPa)
#
#
# Indices 1 2 3 4 5 6 
#
# 1 76.6107 14.1093 39.3749 0.0000 -43.0454 0.0000
# 2 14.1093 58.9588 28.4064 0.0000 2.4907 0.0000
# 3 39.3749 28.4064 179.1818 0.0000 -60.7931 0.0000
# 4 0.0000 0.0000 0.0000 38.2316 0.0000 -8.0642
# 5 -43.0454 2.4907 -60.7931 0.0000 66.7449 0.0000
# 6 0.0000 0.0000 0.0000 -8.0642 0.0000 18.7828
#
#
#
# Elastic Compliance Matrix: (Units=1/GPa)
#
#
# Indices 1 2 3 4 5 6 
#
# 1 0.022698 -0.006940 0.001689 0.000000 0.016435 0.000000
# 2 -0.006940 0.021628 -0.005349 0.000000 -0.010155 0.000000
# 3 0.001689 -0.005349 0.009400 0.000000 0.009850 0.000000
# 4 0.000000 0.000000 0.000000 0.028761 0.000000 0.012348
# 5 0.016435 -0.010155 0.009850 0.000000 0.034933 0.000000
# 6 0.000000 0.000000 0.000000 0.012348 0.000000 0.058542
#
#
# Mechanical properties :
#
#
# Convention : Reuss Voigt Hill
#
# Bulk Modulus (GPa) = 30.74530 53.17028 41.95779
# Shear Modulus (GPa) = 24.03811 40.27591 32.15701
#
# Velocity S-wave (km/s) = 3.08079 3.98780 3.56327
# Velocity P-wave (km/s) = 4.97941 6.49594 5.78756
#
# Compressibility (1/GPa) = 0.03252529
#
# Stress axis : x y z
#
# Youngs Moduli (GPa) = 44.05725 46.23666 106.38400
#
# Poissons Ratio (x) = 0.32086 -0.17964
# Poissons Ratio (y) = 0.30574 0.56906
# Poissons Ratio (z) = -0.07439 0.24732
#
# Static dielectric constant tensor:
#      x y z
#    x 2.189710 0.000000 -0.030930 
#    y 0.000000 1.993900 0.000000 
#    z -0.030930 0.000000 2.057170 
# 
# From -- ./inp_files/162147.got.cif
#   From: 2010.05.17/outbox.cif.g08.bks.cpg/sg15_82_cif.got.tgz:162147.got - 2010.06.03 18:47:42.
