data_PCOD9261095
_publ_section_title
;
Structure prediction by ZEFSAII (Michael W. Deem and Ramdas Pophale) SiO2 
 PCOD9261095
Probable space group: C 2/C
;
_chemical_formula_sum "Si O2"
_cell_formula_units_Z 44
_cell_length_a 17.178431
_cell_length_b 8.384610
_cell_length_c 21.893630
_cell_angle_alpha 90.000000
_cell_angle_beta 47.388268
_cell_angle_gamma 90.000000
_cell_volume 2320.798556
_symmetry_space_group_name_H-M "C 2/C"
_symmetry_group_IT_number 15
_symmetry_cell_setting 'monoclinic'
loop_
_space_group_symop_operation_xyz
x,y,z
-x,y,1/2-z
-x,-y,-z
x,-y,1/2+z
1/2+x,1/2+y,z
1/2-x,1/2+y,1/2-z
1/2-x,1/2-y,-z
1/2+x,1/2-y,1/2+z
loop_
_atom_site_type_symbol
_atom_site_label
_atom_site_fract_x
_atom_site_fract_y
_atom_site_fract_z
Si Si1 0.682028 0.646094 0.243796
Si Si2 0.059685 0.931945 0.614721
Si Si3 0.785992 0.785081 0.307179
Si Si4 0.120032 0.643910 0.663439
Si Si5 0.000000 0.175030 0.750000
Si Si6 0.776144 0.129547 0.041655
O O1 0.562071 0.615413 0.331565
O O2 0.753070 0.704178 0.261715
O O3 0.718293 0.475206 0.199060
O O4 0.676747 0.775102 0.192009
O O5 0.115306 0.776227 0.612574
O O6 0.057106 0.059164 0.671518
O O7 0.123448 0.019805 0.527984
O O8 0.906810 0.741138 0.262164
O O9 0.713251 0.728089 0.401552
O O10 0.179683 0.491777 0.605492
O O11 0.000000 0.614114 0.750000
O O12 0.750000 0.250000 0.000000
#
# Coordination Sequence:
#
# PCOD9261095 Si02
#       6
#     8   8   8   8   4   8
#     4  10  21  41  64  87 124 162 210 255 304 369
#     4  10  19  40  63  87 122 164 203 259 311 360
#     4  11  22  38  61  91 120 163 208 252 308 362
#     4  10  20  38  65  90 118 163 211 249 306 369
#     4  10  18  40  64  82 120 162 208 246 310 366
#     4  12  23  34  60  94 126 161 207 256 308 367
#
# _framework density 18.958991999999999
#
# number of rings (size 3 to 8) (size 9 to 14) (size 15 to 20)
#    0.000    1.455    6.364    1.636    1.273    0.727 
#    0.000    0.000    0.000    9.818    0.000    0.000 
#    0.000    0.000    0.000    0.000    0.000    0.000 
#
# Total GULP energy -122795.109143 kJ/mol
# GULP energy per Si atom -5581.595870 kJ/mol
# Density = 1.891584 g / cm^3
# Si number density = 18.958992 Si / 1000 Ang^3
#
#
#
# Elastic Constant Matrix: (Units=GPa)
#
#
# Indices 1 2 3 4 5 6 
#
# 1 123.7485 56.8888 29.3380 0.0000 18.9505 0.0001
# 2 56.8888 111.8209 74.9928 0.0000 7.0630 0.0001
# 3 29.3380 74.9928 93.0795 0.0000 6.5035 0.0000
# 4 0.0000 0.0000 0.0000 50.4705 0.0000 1.9760
# 5 18.9505 7.0630 6.5035 0.0000 20.7726 0.0000
# 6 0.0001 0.0001 0.0000 1.9760 0.0000 17.7696
#
#
#
# Elastic Compliance Matrix: (Units=1/GPa)
#
#
# Indices 1 2 3 4 5 6 
#
# 1 0.012378 -0.007667 0.002947 0.000000 -0.009608 0.000000
# 2 -0.007667 0.024266 -0.017428 0.000000 0.004200 0.000000
# 3 0.002947 -0.017428 0.024158 0.000000 -0.004326 0.000000
# 4 0.000000 0.000000 0.000000 0.019900 0.000000 -0.002213
# 5 -0.009608 0.004200 -0.004326 0.000000 0.056832 0.000000
# 6 0.000000 0.000000 0.000000 -0.002213 0.000000 0.056522
#
#
# Mechanical properties :
#
#
# Convention : Reuss Voigt Hill
#
# Bulk Modulus (GPa) = 60.58006 72.34312 66.46159
# Shear Modulus (GPa) = 20.50403 28.96449 24.73426
#
# Velocity S-wave (km/s) = 3.29218 3.91288 3.61587
# Velocity P-wave (km/s) = 6.81717 7.65863 7.25012
#
# Compressibility (1/GPa) = 0.01650708
#
# Stress axis : x y z
#
# Youngs Moduli (GPa) = 80.78726 41.20994 41.39383
#
# Poissons Ratio (x) = 0.31595 -0.12198
# Poissons Ratio (y) = 0.61938 0.72140
# Poissons Ratio (z) = -0.23807 0.71819
#
# Static dielectric constant tensor:
#      x y z
#    x 1.661010 0.000000 -0.020840 
#    y 0.000000 1.690720 0.000000 
#    z -0.020840 0.000000 1.666270 
# 
# From -- ./inp_files/159217.got.cif
#   From: 2010.05.17/outbox.cif.g08.bks.cpg/sg15_80_cif.got.tgz:159217.got - 2010.06.03 18:47:42.
