data_PCOD9261048
_publ_section_title
;
Structure prediction by ZEFSAII (Michael W. Deem and Ramdas Pophale) SiO2 
 PCOD9261048
Probable space group: C 2/C
;
_chemical_formula_sum "Si O2"
_cell_formula_units_Z 60
_cell_length_a 19.971925
_cell_length_b 9.361892
_cell_length_c 19.982310
_cell_angle_alpha 90.000000
_cell_angle_beta 47.318819
_cell_angle_gamma 90.000000
_cell_volume 2746.614472
_symmetry_space_group_name_H-M "C 2/C"
_symmetry_group_IT_number 15
_symmetry_cell_setting 'monoclinic'
loop_
_space_group_symop_operation_xyz
x,y,z
-x,y,1/2-z
-x,-y,-z
x,-y,1/2+z
1/2+x,1/2+y,z
1/2-x,1/2+y,1/2-z
1/2-x,1/2-y,-z
1/2+x,1/2-y,1/2+z
loop_
_atom_site_type_symbol
_atom_site_label
_atom_site_fract_x
_atom_site_fract_y
_atom_site_fract_z
Si Si1 0.724362 0.574832 0.668553
Si Si2 0.000000 0.236570 0.750000
Si Si3 0.161461 0.458042 0.278570
Si Si4 0.491858 0.776824 0.399972
Si Si5 0.147589 0.503156 0.022895
Si Si6 0.481011 0.454189 0.147947
Si Si7 0.484105 0.820806 0.563662
Si Si8 0.812572 0.375541 0.862775
O O1 0.771315 0.589423 0.708589
O O2 0.778774 0.468037 0.583864
O O3 0.619960 0.535671 0.751748
O O4 0.733641 0.725528 0.623247
O O5 0.919765 0.337607 0.779629
O O6 0.036213 0.133349 0.667127
O O7 0.089471 0.334979 0.309456
O O8 0.101526 0.588405 0.350861
O O9 0.211944 0.512730 0.178221
O O10 0.484022 0.608665 0.394973
O O11 0.489578 0.822895 0.479906
O O12 0.411903 0.864678 0.418613
O O13 0.193185 0.568896 0.058098
O O14 0.073126 0.609766 0.038761
O O15 0.476031 0.343417 0.090630
#
# Coordination Sequence:
#
# PCOD9261048 Si02
#       8
#     8   4   8   8   8   8   8   8
#     4  11  23  39  64  98 133 168 212 277 335 380
#     4  10  18  40  60  90 122 170 216 256 316 392
#     4  11  21  39  65  95 127 169 220 268 323 390
#     4  11  23  38  64  98 129 175 223 271 321 383
#     4  11  21  41  71  93 128 168 232 271 317 386
#     4  11  24  37  66  92 132 169 217 269 333 382
#     4  11  19  41  66  92 127 177 224 264 314 401
#     4  11  22  39  69  97 124 174 220 266 321 397
#
# _framework density 21.845075999999999
#
# number of rings (size 3 to 8) (size 9 to 14) (size 15 to 20)
#    0.000    1.067    6.667    2.400    1.867    1.067 
#    0.000    0.000    0.000    4.000    0.000    0.000 
#    0.000    0.000    0.000    0.000    0.000    0.000 
#
# Total GULP energy -167696.191266 kJ/mol
# GULP energy per Si atom -5589.873042 kJ/mol
# Density = 2.179536 g / cm^3
# Si number density = 21.845076 Si / 1000 Ang^3
#
#
#
# Elastic Constant Matrix: (Units=GPa)
#
#
# Indices 1 2 3 4 5 6 
#
# 1 79.8937 12.4905 20.2384 0.0000 18.3127 0.0000
# 2 12.4905 91.8274 3.9797 -0.0001 5.6414 0.0001
# 3 20.2384 3.9797 57.2871 0.0000 12.7671 0.0000
# 4 0.0000 -0.0001 0.0000 10.7970 0.0000 11.2440
# 5 18.3127 5.6414 12.7671 0.0000 34.9612 0.0000
# 6 0.0000 0.0001 0.0000 11.2440 0.0000 27.4557
#
#
#
# Elastic Compliance Matrix: (Units=1/GPa)
#
#
# Indices 1 2 3 4 5 6 
#
# 1 0.015172 -0.001510 -0.003852 0.000000 -0.006297 0.000000
# 2 -0.001510 0.011158 -0.000018 0.000000 -0.001003 0.000000
# 3 -0.003852 -0.000018 0.019995 0.000000 -0.005281 0.000000
# 4 0.000000 0.000000 0.000000 0.161494 0.000000 -0.066137
# 5 -0.006297 -0.001003 -0.005281 0.000000 0.033992 0.000000
# 6 0.000000 0.000000 0.000000 -0.066137 0.000000 0.063508
#
#
# Mechanical properties :
#
#
# Convention : Reuss Voigt Hill
#
# Bulk Modulus (GPa) = 28.11766 33.60283 30.86024
# Shear Modulus (GPa) = 15.24705 27.46274 21.35489
#
# Velocity S-wave (km/s) = 2.64476 3.54949 3.12999
# Velocity P-wave (km/s) = 4.71441 5.67576 5.21728
#
# Compressibility (1/GPa) = 0.03556484
#
# Stress axis : x y z
#
# Youngs Moduli (GPa) = 65.91229 89.62358 50.01277
#
# Poissons Ratio (x) = 0.13532 0.19263
# Poissons Ratio (y) = 0.09952 0.00091
# Poissons Ratio (z) = 0.25387 0.00163
#
# Static dielectric constant tensor:
#      x y z
#    x 1.824840 0.000000 -0.011240 
#    y 0.000000 1.796110 0.000000 
#    z -0.011240 0.000000 1.830250 
# 
# From -- ./inp_files/252110.got.cif
#   From: 2010.05.17/outbox.cif.g08.bks.cpg/sg15_127_cif.got.tgz:252110.got - 2010.06.03 18:47:42.
