data_PCOD9261505
_publ_section_title
;
Structure prediction by ZEFSAII (Michael W. Deem and Ramdas Pophale) SiO2 
 PCOD9261505
Probable space group: C 2/C
;
_chemical_formula_sum "Si O2"
_cell_formula_units_Z 56
_cell_length_a 13.651517
_cell_length_b 14.931470
_cell_length_c 20.623461
_cell_angle_alpha 90.000000
_cell_angle_beta 37.655745
_cell_angle_gamma 90.000000
_cell_volume 2568.185152
_symmetry_space_group_name_H-M "C 2/C"
_symmetry_group_IT_number 15
_symmetry_cell_setting 'monoclinic'
loop_
_space_group_symop_operation_xyz
x,y,z
-x,y,1/2-z
-x,-y,-z
x,-y,1/2+z
1/2+x,1/2+y,z
1/2-x,1/2+y,1/2-z
1/2-x,1/2-y,-z
1/2+x,1/2-y,1/2+z
loop_
_atom_site_type_symbol
_atom_site_label
_atom_site_fract_x
_atom_site_fract_y
_atom_site_fract_z
Si Si1 0.227665 0.451170 0.331150
Si Si2 0.092745 0.620604 0.452751
Si Si3 0.435220 0.877110 0.892445
Si Si4 0.184123 0.513616 0.709736
Si Si5 0.352728 0.368523 0.535702
Si Si6 0.212032 0.198959 0.847913
Si Si7 0.326608 0.266034 0.276612
O O1 0.213045 0.536640 0.384973
O O2 0.261763 0.484706 0.241083
O O3 0.340437 0.368881 0.289247
O O4 0.048414 0.405765 0.424198
O O5 0.183242 0.715159 0.408746
O O6 0.997185 0.621744 0.433454
O O7 0.247046 0.873799 0.978701
O O8 0.511696 0.789270 0.819124
O O9 0.519098 0.959874 0.810461
O O10 0.298635 0.456506 0.603258
O O11 0.173690 0.616742 0.693473
O O12 0.538237 0.348712 0.431970
O O13 0.282210 0.287510 0.616101
O O14 0.252069 0.233993 0.754561
#
# Coordination Sequence:
#
# PCOD9261505 Si02
#       7
#     8   8   8   8   8   8   8
#     4   9  16  30  47  67 100 130 174 204 240 292
#     4   9  17  30  48  73  99 134 169 205 245 300
#     4   9  19  32  49  75 105 132 167 203 260 307
#     4   9  18  31  49  70 101 135 165 211 249 296
#     4  11  19  33  49  76 108 134 166 208 257 315
#     4  10  19  30  49  75 104 131 173 207 251 293
#     4   9  17  29  44  70 102 134 164 203 243 294
#
# _framework density 21.805281999999998
#
# number of rings (size 3 to 8) (size 9 to 14) (size 15 to 20)
#    0.000    2.571    1.429    3.000    0.000    2.286 
#    2.571    0.000    0.000    0.000    0.000   20.000 
#    0.000    0.000    0.000    0.000    0.000    0.000 
#
# Total GULP energy -156209.403144 kJ/mol
# GULP energy per Si atom -5578.907255 kJ/mol
# Density = 2.175565 g / cm^3
# Si number density = 21.805282 Si / 1000 Ang^3
#
#
#
# Elastic Constant Matrix: (Units=GPa)
#
#
# Indices 1 2 3 4 5 6 
#
# 1 35.5203 12.4265 9.5749 0.0000 -0.9947 0.0000
# 2 12.4265 152.3089 12.3603 -0.0001 -14.0865 0.0000
# 3 9.5749 12.3603 48.0471 -0.0005 -0.3077 0.0001
# 4 0.0000 -0.0001 -0.0005 34.6612 0.0001 13.6074
# 5 -0.9947 -14.0865 -0.3077 0.0001 23.0718 0.0000
# 6 0.0000 0.0000 0.0001 13.6074 0.0000 4.8999
#
#
#
# Elastic Compliance Matrix: (Units=1/GPa)
#
#
# Indices 1 2 3 4 5 6 
#
# 1 0.030352 -0.002028 -0.005527 0.000001 -0.000003 -0.000003
# 2 -0.002028 0.007247 -0.001432 0.000000 0.004318 -0.000001
# 3 -0.005527 -0.001432 0.022278 -0.000006 -0.000816 0.000017
# 4 0.000001 0.000000 -0.000006 -0.319715 0.000003 0.887873
# 5 -0.000003 0.004318 -0.000816 0.000003 0.045968 -0.000009
# 6 -0.000003 -0.000001 0.000017 0.887873 -0.000009 -2.261609
#
#
# Mechanical properties :
#
#
# Convention : Reuss Voigt Hill
#
# Bulk Modulus (GPa) = 23.86547 33.84440 28.85494
# Shear Modulus (GPa) = -2.04621 25.96089 11.95734
#
# Velocity S-wave (km/s) = -0.96976 3.45422 2.34427
# Velocity P-wave (km/s) = 3.11683 5.60925 4.53753
#
# Compressibility (1/GPa) = 0.04190154
#
# Stress axis : x y z
#
# Youngs Moduli (GPa) = 32.94657 137.99439 44.88816
#
# Poissons Ratio (x) = 0.27987 0.24809
# Poissons Ratio (y) = 0.06682 0.06430
# Poissons Ratio (z) = 0.18209 0.19767
#
# Static dielectric constant tensor:
#      x y z
#    x 1.803740 0.000000 0.019080 
#    y 0.000000 1.875600 0.000000 
#    z 0.019080 0.000000 1.806100 
# 
# From -- ./inp_files/161675.got.cif
#   From: 2010.05.17/outbox.cif.g08.bks.cpg/sg15_81_cif.got.tgz:161675.got - 2010.06.03 18:47:42.
