data_PCOD9261489
_publ_section_title
;
Structure prediction by ZEFSAII (Michael W. Deem and Ramdas Pophale) SiO2 
 PCOD9261489
Probable space group: C 2/C
;
_chemical_formula_sum "Si O2"
_cell_formula_units_Z 56
_cell_length_a 23.663348
_cell_length_b 15.570524
_cell_length_c 20.764915
_cell_angle_alpha 90.000000
_cell_angle_beta 156.166080
_cell_angle_gamma 90.000000
_cell_volume 3091.607440
_symmetry_space_group_name_H-M "C 2/C"
_symmetry_group_IT_number 15
_symmetry_cell_setting 'monoclinic'
loop_
_space_group_symop_operation_xyz
x,y,z
-x,y,1/2-z
-x,-y,-z
x,-y,1/2+z
1/2+x,1/2+y,z
1/2-x,1/2+y,1/2-z
1/2-x,1/2-y,-z
1/2+x,1/2-y,1/2+z
loop_
_atom_site_type_symbol
_atom_site_label
_atom_site_fract_x
_atom_site_fract_y
_atom_site_fract_z
Si Si1 0.598918 0.313266 0.996554
Si Si2 0.563774 0.393923 0.147154
Si Si3 0.852358 0.937739 0.712172
Si Si4 0.189946 0.405252 0.201244
Si Si5 0.847336 0.315158 0.060580
Si Si6 0.946605 0.722974 0.418915
Si Si7 0.769805 0.085434 0.275277
O O1 0.491953 0.380019 0.853175
O O2 0.627073 0.234042 0.979778
O O3 0.742937 0.359978 0.166375
O O4 0.532401 0.278002 0.993680
O O5 0.607735 0.461428 0.247969
O O6 0.686312 0.402961 0.222314
O O7 0.548998 0.290465 0.135345
O O8 0.417919 0.426703 0.965051
O O9 0.739758 0.901408 0.544803
O O10 0.793697 0.918844 0.723434
O O11 0.169919 0.506216 0.190982
O O12 0.063804 0.349806 0.042524
O O13 0.000000 0.329561 0.250000
O O14 0.750000 0.250000 0.000000
O O15 0.799406 0.674555 0.275018
#
# Coordination Sequence:
#
# PCOD9261489 Si02
#       7
#     8   8   8   8   8   8   8
#     4  11  19  34  53  70 103 146 173 214 264 304
#     4  10  19  32  50  70 102 146 180 200 254 328
#     4  11  19  35  52  70 102 141 180 215 254 307
#     4  10  19  30  48  77 107 142 176 206 253 317
#     4  12  25  37  54  78 102 138 186 224 262 313
#     4  11  20  28  49  79 110 142 176 207 256 312
#     4  11  18  32  49  75 109 144 173 207 256 318
#
# _framework density 18.113554000000001
#
# number of rings (size 3 to 8) (size 9 to 14) (size 15 to 20)
#    0.000    1.143    7.143    3.857    0.000    0.000 
#    0.000    0.000    0.000    0.000    0.000    0.000 
#    0.000   19.429    0.857    1.571    0.000    0.000 
#
# Total GULP energy -156086.789486 kJ/mol
# GULP energy per Si atom -5574.528196 kJ/mol
# Density = 1.807233 g / cm^3
# Si number density = 18.113554 Si / 1000 Ang^3
#
#
#
# Elastic Constant Matrix: (Units=GPa)
#
#
# Indices 1 2 3 4 5 6 
#
# 1 11.1659 6.2730 11.7126 0.0002 0.7785 0.0000
# 2 6.2730 101.4413 34.7397 0.0019 3.7651 0.0008
# 3 11.7126 34.7397 103.4298 0.0014 4.1085 0.0007
# 4 0.0002 0.0019 0.0014 30.8520 0.0004 -3.3966
# 5 0.7785 3.7651 4.1085 0.0004 16.1671 0.0001
# 6 0.0000 0.0008 0.0007 -3.3966 0.0001 20.4036
#
#
#
# Elastic Compliance Matrix: (Units=1/GPa)
#
#
# Indices 1 2 3 4 5 6 
#
# 1 0.102306 -0.002623 -0.010640 0.000000 -0.001612 0.000001
# 2 -0.002623 0.011251 -0.003417 -0.000001 -0.001625 0.000000
# 3 -0.010640 -0.003417 0.012091 0.000000 -0.001764 0.000000
# 4 0.000000 -0.000001 0.000000 0.033018 -0.000001 0.005497
# 5 -0.001612 -0.001625 -0.001764 -0.000001 0.062759 0.000000
# 6 0.000001 0.000000 0.000000 0.005497 0.000000 0.049926
#
#
# Mechanical properties :
#
#
# Convention : Reuss Voigt Hill
#
# Bulk Modulus (GPa) = 10.83576 35.72083 23.27830
# Shear Modulus (GPa) = 14.90431 24.37200 19.63816
#
# Velocity S-wave (km/s) = 2.87161 3.67210 3.29624
# Velocity P-wave (km/s) = 4.12189 6.14349 5.23127
#
# Compressibility (1/GPa) = 0.09228701
#
# Stress axis : x y z
#
# Youngs Moduli (GPa) = 9.77461 88.88320 82.70469
#
# Poissons Ratio (x) = 0.23312 0.88001
# Poissons Ratio (y) = 0.02564 0.28263
# Poissons Ratio (z) = 0.10401 0.30374
#
# Static dielectric constant tensor:
#      x y z
#    x 1.623090 0.000000 0.021240 
#    y 0.000000 1.723770 0.000000 
#    z 0.021240 0.000000 1.655140 
# 
# From -- ./inp_files/118329.got.cif
#   From: 2010.05.17/outbox.cif.g08.bks.cpg/sg15_60_cif.got.tgz:118329.got - 2010.06.03 18:47:42.
