data_PCOD9261362
_publ_section_title
;
Structure prediction by ZEFSAII (Michael W. Deem and Ramdas Pophale) SiO2 
 PCOD9261362
Probable space group: C 2/C
;
_chemical_formula_sum "Si O2"
_cell_formula_units_Z 60
_cell_length_a 24.271558
_cell_length_b 17.179617
_cell_length_c 8.463838
_cell_angle_alpha 90.000000
_cell_angle_beta 68.208943
_cell_angle_gamma 90.000000
_cell_volume 3277.033340
_symmetry_space_group_name_H-M "C 2/C"
_symmetry_group_IT_number 15
_symmetry_cell_setting 'monoclinic'
loop_
_space_group_symop_operation_xyz
x,y,z
-x,y,1/2-z
-x,-y,-z
x,-y,1/2+z
1/2+x,1/2+y,z
1/2-x,1/2+y,1/2-z
1/2-x,1/2-y,-z
1/2+x,1/2-y,1/2+z
loop_
_atom_site_type_symbol
_atom_site_label
_atom_site_fract_x
_atom_site_fract_y
_atom_site_fract_z
Si Si1 0.193153 0.705084 0.773347
Si Si2 0.500000 0.462001 0.750000
Si Si3 0.168439 0.229126 0.970861
Si Si4 0.805741 0.610123 0.176133
Si Si5 0.828825 0.921419 0.184976
Si Si6 0.315632 0.657841 0.030492
Si Si7 0.204576 0.457352 0.163924
Si Si8 0.417181 0.440767 0.572491
O O1 0.161368 0.750537 0.662589
O O2 0.262026 0.709535 0.642147
O O3 0.183949 0.749001 0.947752
O O4 0.176857 0.614737 0.790664
O O5 0.459009 0.415302 0.671594
O O6 0.541648 0.517925 0.601121
O O7 0.157836 0.309825 0.887531
O O8 0.139640 0.148139 0.947366
O O9 0.740401 0.634527 0.303346
O O10 0.824362 0.540580 0.272126
O O11 0.799026 0.569522 0.012548
O O12 0.807425 0.878646 0.367233
O O13 0.773561 0.957840 0.147335
O O14 0.872859 0.991069 0.178918
O O15 0.375899 0.623514 0.037493
#
# Coordination Sequence:
#
# PCOD9261362 Si02
#       8
#     8   4   8   8   8   8   8   8
#     4   8  17  30  42  61  89 117 151 189 219 255
#     4  10  24  38  48  62  92 110 150 202 248 262
#     4   8  17  30  42  61  89 117 151 189 219 255
#     4  10  19  29  43  65  91 123 156 187 220 258
#     4  11  20  29  47  66  85 118 157 187 223 276
#     4  11  20  29  47  66  85 118 157 187 223 276
#     4  10  19  29  43  65  91 123 156 187 220 258
#     4  11  22  36  48  68  86 120 152 194 234 281
#
# _framework density 18.309242999999999
#
# number of rings (size 3 to 8) (size 9 to 14) (size 15 to 20)
#    0.000    2.133    2.667    3.200    3.733    5.867 
#    0.000    0.000    0.000    0.000    0.000    0.000 
#    0.000    0.000    0.000    7.200    0.000    0.533 
#
# Total GULP energy -167252.077851 kJ/mol
# GULP energy per Si atom -5575.069262 kJ/mol
# Density = 1.826757 g / cm^3
# Si number density = 18.309243 Si / 1000 Ang^3
#
#
#
# Elastic Constant Matrix: (Units=GPa)
#
#
# Indices 1 2 3 4 5 6 
#
# 1 31.2772 -14.1655 -3.7078 0.0000 12.1052 0.0000
# 2 -14.1655 62.3914 -13.6490 0.0000 -1.2345 0.0000
# 3 -3.7078 -13.6490 38.3954 0.0000 1.3293 0.0000
# 4 0.0000 0.0000 0.0000 53.5053 0.0000 14.6411
# 5 12.1052 -1.2345 1.3293 0.0000 18.4825 0.0000
# 6 0.0000 0.0000 0.0000 14.6411 0.0000 10.7301
#
#
#
# Elastic Compliance Matrix: (Units=1/GPa)
#
#
# Indices 1 2 3 4 5 6 
#
# 1 0.052909 0.013780 0.011204 0.000000 -0.034538 0.000000
# 2 0.013780 0.020978 0.009075 0.000000 -0.008277 0.000000
# 3 0.011204 0.009075 0.030662 0.000000 -0.008937 0.000000
# 4 0.000000 0.000000 0.000000 0.029826 0.000000 -0.040697
# 5 -0.034538 -0.008277 -0.008937 0.000000 0.076816 0.000000
# 6 0.000000 0.000000 0.000000 -0.040697 0.000000 0.148727
#
#
# Mechanical properties :
#
#
# Convention : Reuss Voigt Hill
#
# Bulk Modulus (GPa) = 5.79156 7.66883 6.73020
# Shear Modulus (GPa) = 14.31205 27.44932 20.88068
#
# Velocity S-wave (km/s) = 2.79890 3.87616 3.38071
# Velocity P-wave (km/s) = 3.68987 4.92244 4.35003
#
# Compressibility (1/GPa) = 0.17266508
#
# Stress axis : x y z
#
# Youngs Moduli (GPa) = 18.90055 47.66918 32.61361
#
# Poissons Ratio (x) = -0.65688 -0.36539
# Poissons Ratio (y) = -0.26045 -0.29596
# Poissons Ratio (z) = -0.21176 -0.43258
#
# Static dielectric constant tensor:
#      x y z
#    x 1.636100 0.000000 0.044060 
#    y 0.000000 1.723890 0.000000 
#    z 0.044060 0.000000 1.679320 
# 
# From -- ./inp_files/62450.got.cif
#   From: 2010.05.17/outbox.cif.g08.bks.cpg/sg15_32_cif.got.tgz:62450.got - 2010.06.03 18:47:42.
