data_PCOD9261677
_publ_section_title
;
Structure prediction by ZEFSAII (Michael W. Deem and Ramdas Pophale) SiO2 
 PCOD9261677
Probable space group: C 2/C
;
_chemical_formula_sum "Si O2"
_cell_formula_units_Z 64
_cell_length_a 8.555842
_cell_length_b 20.683711
_cell_length_c 33.109582
_cell_angle_alpha 90.000000
_cell_angle_beta 140.975519
_cell_angle_gamma 90.000000
_cell_volume 3689.315272
_symmetry_space_group_name_H-M "C 2/C"
_symmetry_group_IT_number 15
_symmetry_cell_setting 'monoclinic'
loop_
_space_group_symop_operation_xyz
x,y,z
-x,y,1/2-z
-x,-y,-z
x,-y,1/2+z
1/2+x,1/2+y,z
1/2-x,1/2+y,1/2-z
1/2-x,1/2-y,-z
1/2+x,1/2-y,1/2+z
loop_
_atom_site_type_symbol
_atom_site_label
_atom_site_fract_x
_atom_site_fract_y
_atom_site_fract_z
Si Si1 0.503386 0.904002 0.425159
Si Si2 0.421755 0.750971 0.608919
Si Si3 0.940725 0.819751 0.613076
Si Si4 0.101030 0.553482 0.429718
Si Si5 0.623015 0.858191 0.011817
Si Si6 0.693355 0.701791 0.825506
Si Si7 0.546146 0.366805 0.548149
Si Si8 0.160552 0.852633 0.821936
O O1 0.408172 0.895021 0.451928
O O2 0.310972 0.868493 0.357166
O O3 0.765393 0.866208 0.476399
O O4 0.555212 0.978421 0.426838
O O5 0.337303 0.694469 0.561821
O O6 0.427165 0.724054 0.655890
O O7 0.205533 0.805469 0.565387
O O8 0.672519 0.787685 0.647904
O O9 0.640361 0.821562 0.548855
O O10 0.994795 0.848101 0.668059
O O11 0.079926 0.751688 0.636768
O O12 0.035776 0.862541 0.594578
O O13 0.164315 0.591667 0.483948
O O14 0.316109 0.570370 0.441147
O O15 0.851699 0.588312 0.364110
O O16 0.500000 0.703995 0.750000
O O17 0.000000 0.858564 0.750000
#
# Coordination Sequence:
#
# PCOD9261677 Si02
#       8
#     8   8   8   8   8   8   8   8
#     4  10  19  32  49  71  98 129 162 196 237 288
#     4   9  18  32  50  73  96 119 157 203 247 287
#     4   9  18  32  51  73  97 122 156 202 248 285
#     4  10  20  32  49  71  98 130 162 197 237 287
#     4   9  18  32  51  73  96 123 158 205 250 283
#     4  10  19  31  49  72  98 129 159 194 238 288
#     4   9  18  32  50  73  96 120 156 203 249 285
#     4  10  20  33  50  72  98 130 161 194 236 287
#
# _framework density 17.347391999999999
#
# number of rings (size 3 to 8) (size 9 to 14) (size 15 to 20)
#    0.000    2.500    0.000    2.250    0.000    9.000 
#    0.000    0.000    0.000    0.000    0.000    5.250 
#    0.000    0.000    0.000    0.000    0.000    0.000 
#
# Total GULP energy -178459.602438 kJ/mol
# GULP energy per Si atom -5576.862576 kJ/mol
# Density = 1.730791 g / cm^3
# Si number density = 17.347392 Si / 1000 Ang^3
#
#
#
# Elastic Constant Matrix: (Units=GPa)
#
#
# Indices 1 2 3 4 5 6 
#
# 1 53.1641 17.0052 24.0782 0.0001 -7.7724 0.0001
# 2 17.0052 75.9540 51.1319 0.0003 -7.1345 0.0001
# 3 24.0782 51.1319 99.6484 -0.0009 -17.1812 0.0001
# 4 0.0001 0.0003 -0.0009 10.4933 -0.0001 -0.5558
# 5 -7.7724 -7.1345 -17.1812 -0.0001 11.8645 0.0001
# 6 0.0001 0.0001 0.0001 -0.5558 0.0001 17.8309
#
#
#
# Elastic Compliance Matrix: (Units=1/GPa)
#
#
# Indices 1 2 3 4 5 6 
#
# 1 0.022076 -0.002384 -0.002485 0.000000 0.009430 0.000000
# 2 -0.002384 0.020501 -0.010778 -0.000001 -0.004842 0.000000
# 3 -0.002485 -0.010778 0.019683 0.000002 0.020393 0.000000
# 4 0.000000 -0.000001 0.000002 0.095457 0.000003 0.002976
# 5 0.009430 -0.004842 0.020393 0.000003 0.117083 -0.000001
# 6 0.000000 0.000000 0.000000 0.002976 -0.000001 0.056175
#
#
# Mechanical properties :
#
#
# Convention : Reuss Voigt Hill
#
# Bulk Modulus (GPa) = 32.29461 45.91080 39.10270
# Shear Modulus (GPa) = 13.41957 17.14114 15.28036
#
# Velocity S-wave (km/s) = 2.78435 3.14683 2.97112
# Velocity P-wave (km/s) = 5.38457 6.30289 5.86174
#
# Compressibility (1/GPa) = 0.03096492
#
# Stress axis : x y z
#
# Youngs Moduli (GPa) = 45.29729 48.77909 50.80650
#
# Poissons Ratio (x) = 0.11628 0.12627
# Poissons Ratio (y) = 0.10798 0.54760
# Poissons Ratio (z) = 0.11258 0.52575
#
# Static dielectric constant tensor:
#      x y z
#    x 1.612450 0.000000 -0.005220 
#    y 0.000000 1.574130 0.000000 
#    z -0.005220 0.000000 1.581790 
# 
# From -- ./inp_files/289992.got.cif
#   From: 2010.05.17/outbox.cif.g08.bks.cpg/sg15_145_cif.got.tgz:289992.got - 2010.06.03 18:47:42.
