data_PCOD9261563
_publ_section_title
;
Structure prediction by ZEFSAII (Michael W. Deem and Ramdas Pophale) SiO2 
 PCOD9261563
Probable space group: C 2/C
;
_chemical_formula_sum "Si O2"
_cell_formula_units_Z 60
_cell_length_a 10.995952
_cell_length_b 24.484461
_cell_length_c 22.128433
_cell_angle_alpha 90.000000
_cell_angle_beta 33.376691
_cell_angle_gamma 90.000000
_cell_volume 3277.540797
_symmetry_space_group_name_H-M "C 2/C"
_symmetry_group_IT_number 15
_symmetry_cell_setting 'monoclinic'
loop_
_space_group_symop_operation_xyz
x,y,z
-x,y,1/2-z
-x,-y,-z
x,-y,1/2+z
1/2+x,1/2+y,z
1/2-x,1/2+y,1/2-z
1/2-x,1/2-y,-z
1/2+x,1/2-y,1/2+z
loop_
_atom_site_type_symbol
_atom_site_label
_atom_site_fract_x
_atom_site_fract_y
_atom_site_fract_z
Si Si1 0.180454 0.979093 0.472684
Si Si2 0.066509 0.561326 0.953422
Si Si3 0.310752 0.426572 0.692076
Si Si4 0.627299 0.195197 0.069178
Si Si5 0.748931 0.361512 0.660267
Si Si6 0.500000 0.154136 0.250000
Si Si7 0.358646 0.951068 0.220510
Si Si8 0.374987 0.585407 0.931139
O O1 0.234491 0.034800 0.486589
O O2 0.392317 0.949209 0.357133
O O3 0.000000 0.000000 0.500000
O O4 0.060042 0.937639 0.568014
O O5 0.105777 0.560410 0.865687
O O6 0.288328 0.576548 0.898837
O O7 0.000000 0.500000 0.000000
O O8 0.878520 0.603802 0.055127
O O9 0.280853 0.401727 0.770309
O O10 0.191498 0.386709 0.694157
O O11 0.207841 0.486603 0.737866
O O12 0.410643 0.185603 0.117653
O O13 0.565631 0.190513 0.165316
O O14 0.750000 0.250000 0.000000
O O15 0.778133 0.142072 0.994178
O O16 0.500000 0.342924 0.750000
O O17 0.138902 0.917921 0.329208
#
# Coordination Sequence:
#
# PCOD9261563 Si02
#       8
#     8   8   8   8   8   4   8   8
#     4  11  20  31  49  78 119 153 188 218 275 346
#     4  11  18  31  50  81 120 154 181 219 285 344
#     4  10  19  30  53  78 113 156 188 221 279 352
#     4  10  22  44  65  82 108 149 202 256 292 333
#     4  10  20  33  57  85 112 147 193 235 289 350
#     4  10  20  40  64  82 106 150 204 236 282 354
#     4  11  20  31  49  81 123 157 181 230 274 340
#     4  10  22  35  53  83 113 148 196 230 283 348
#
# _framework density 18.306408000000001
#
# number of rings (size 3 to 8) (size 9 to 14) (size 15 to 20)
#    0.000    1.600    2.667    4.400    1.867    1.600 
#    4.800    0.000    5.867    1.600    0.000    0.000 
#    0.000    0.000    0.000    0.000    0.000    0.000 
#
# Total GULP energy -167378.227125 kJ/mol
# GULP energy per Si atom -5579.274237 kJ/mol
# Density = 1.826474 g / cm^3
# Si number density = 18.306408 Si / 1000 Ang^3
#
#
#
# Elastic Constant Matrix: (Units=GPa)
#
#
# Indices 1 2 3 4 5 6 
#
# 1 84.0417 29.3537 37.1150 -0.0137 -10.7343 0.0099
# 2 29.3537 83.3097 41.1173 -0.0031 -2.5501 0.0033
# 3 37.1150 41.1173 119.6868 -0.0107 -21.4136 0.0021
# 4 -0.0137 -0.0031 -0.0107 20.8673 0.0070 -2.4210
# 5 -10.7343 -2.5501 -21.4136 0.0070 39.6753 -0.0056
# 6 0.0099 0.0033 0.0021 -2.4210 -0.0056 9.7294
#
#
#
# Elastic Compliance Matrix: (Units=1/GPa)
#
#
# Indices 1 2 3 4 5 6 
#
# 1 0.014755 -0.003693 -0.002917 0.000006 0.002180 -0.000011
# 2 -0.003693 0.015514 -0.004632 -0.000002 -0.002502 -0.000002
# 3 -0.002917 -0.004632 0.011796 0.000002 0.005279 0.000006
# 4 0.000006 -0.000002 0.000002 0.049347 -0.000004 0.012279
# 5 0.002180 -0.002502 0.005279 -0.000004 0.028483 0.000013
# 6 -0.000011 -0.000002 0.000006 0.012279 0.000013 0.105837
#
#
# Mechanical properties :
#
#
# Convention : Reuss Voigt Hill
#
# Bulk Modulus (GPa) = 51.06892 55.80113 53.43503
# Shear Modulus (GPa) = 19.62763 26.01788 22.82276
#
# Velocity S-wave (km/s) = 3.27796 3.77403 3.53471
# Velocity P-wave (km/s) = 6.50261 7.03839 6.77580
#
# Compressibility (1/GPa) = 0.01958138
#
# Stress axis : x y z
#
# Youngs Moduli (GPa) = 67.77243 64.45738 84.77692
#
# Poissons Ratio (x) = 0.23801 0.24729
# Poissons Ratio (y) = 0.25025 0.39272
# Poissons Ratio (z) = 0.19769 0.29859
#
# Static dielectric constant tensor:
#      x y z
#    x 1.668560 0.000000 -0.016570 
#    y 0.000000 1.569920 0.000000 
#    z -0.016570 0.000000 1.693760 
# 
# From -- ./inp_files/271016.got.cif
#   From: 2010.05.17/outbox.cif.g08.bks.cpg/sg15_136_cif.got.tgz:271016.got - 2010.06.03 18:47:42.
