data_PCOD9261968
_publ_section_title
;
Structure prediction by ZEFSAII (Michael W. Deem and Ramdas Pophale) SiO2 
 PCOD9261968
Probable space group: C 2/C
;
_chemical_formula_sum "Si O2"
_cell_formula_units_Z 64
_cell_length_a 12.979976
_cell_length_b 23.197202
_cell_length_c 11.232745
_cell_angle_alpha 90.000000
_cell_angle_beta 89.164147
_cell_angle_gamma 90.000000
_cell_volume 3381.809801
_symmetry_space_group_name_H-M "C 2/C"
_symmetry_group_IT_number 15
_symmetry_cell_setting 'monoclinic'
loop_
_space_group_symop_operation_xyz
x,y,z
-x,y,1/2-z
-x,-y,-z
x,-y,1/2+z
1/2+x,1/2+y,z
1/2-x,1/2+y,1/2-z
1/2-x,1/2-y,-z
1/2+x,1/2-y,1/2+z
loop_
_atom_site_type_symbol
_atom_site_label
_atom_site_fract_x
_atom_site_fract_y
_atom_site_fract_z
Si Si1 0.822545 0.081954 0.207614
Si Si2 0.054036 0.813880 0.879815
Si Si3 0.138074 0.872146 0.528172
Si Si4 0.322541 0.081948 0.707615
Si Si5 0.109784 0.046394 0.805347
Si Si6 0.609786 0.953599 0.805341
Si Si7 0.138087 0.627853 0.528172
Si Si8 0.554033 0.186109 0.879817
O O1 0.862297 0.135057 0.127862
O O2 0.854724 0.098061 0.342546
O O3 0.701006 0.068951 0.217104
O O4 0.875301 0.021719 0.173737
O O5 0.095717 0.749995 0.903213
O O6 0.000000 0.812317 0.750000
O O7 0.959624 0.830234 0.967635
O O8 0.122163 0.920164 0.428509
O O9 0.249994 0.844217 0.500002
O O10 0.201002 0.068943 0.717105
O O11 0.354710 0.098060 0.842547
O O12 0.362299 0.135047 0.627855
O O13 0.375303 0.021713 0.673752
O O14 0.000000 0.057333 0.750000
O O15 0.500000 0.942655 0.750000
O O16 0.622172 0.920164 0.928508
O O17 0.040384 0.669762 0.532366
O O18 0.500000 0.187670 0.750000
#
# Coordination Sequence:
#
# PCOD9261968 Si02
#       8
#     8   8   8   8   8   8   8   8
#     4   9  19  33  50  75 101 125 160 203 242 286
#     4   9  17  31  52  74  96 126 165 206 242 279
#     4   9  18  32  50  75 101 125 160 202 242 287
#     4   9  19  33  50  75 101 125 160 203 242 286
#     4  10  19  32  51  74 101 130 158 195 246 295
#     4  10  19  32  51  74 101 130 158 195 246 295
#     4   9  18  32  50  75 101 125 160 202 242 287
#     4   9  17  31  52  74  96 126 165 206 242 279
#
# _framework density 18.924776999999999
#
# number of rings (size 3 to 8) (size 9 to 14) (size 15 to 20)
#    0.000    2.750    0.000    2.250    0.000    4.500 
#    0.000    7.500    0.000    4.500    0.000    0.000 
#    0.000    0.000    0.000    0.000    0.000    0.000 
#
# Total GULP energy -178428.221228 kJ/mol
# GULP energy per Si atom -5575.881913 kJ/mol
# Density = 1.888170 g / cm^3
# Si number density = 18.924777 Si / 1000 Ang^3
#
#
#
# Elastic Constant Matrix: (Units=GPa)
#
#
# Indices 1 2 3 4 5 6 
#
# 1 115.6610 69.4447 22.6541 0.0000 -6.6499 0.0000
# 2 69.4447 131.8431 12.6125 0.0000 -25.7370 0.0000
# 3 22.6541 12.6125 26.5428 0.0000 -17.3926 0.0000
# 4 0.0000 0.0000 0.0000 7.3970 0.0000 -0.3297
# 5 -6.6499 -25.7370 -17.3926 0.0000 22.3060 0.0000
# 6 0.0000 0.0000 0.0000 -0.3297 0.0000 12.5298
#
#
#
# Elastic Compliance Matrix: (Units=1/GPa)
#
#
# Indices 1 2 3 4 5 6 
#
# 1 0.026676 -0.019572 -0.047139 0.000000 -0.051386 0.000000
# 2 -0.019572 0.024579 0.040455 0.000000 0.054068 0.000000
# 3 -0.047139 0.040455 0.163703 0.000000 0.160268 0.000000
# 4 0.000000 0.000000 0.000000 0.135349 0.000000 0.003561
# 5 -0.051386 0.054068 0.160268 0.000000 0.216861 0.000000
# 6 0.000000 0.000000 0.000000 0.003561 0.000000 0.079903
#
#
# Mechanical properties :
#
#
# Convention : Reuss Voigt Hill
#
# Bulk Modulus (GPa) = 6.15597 53.71885 29.93741
# Shear Modulus (GPa) = 6.63365 19.73560 13.18463
#
# Velocity S-wave (km/s) = 1.87427 3.23281 2.64234
# Velocity P-wave (km/s) = 2.81847 6.51014 5.01626
#
# Compressibility (1/GPa) = 0.16244383
#
# Stress axis : x y z
#
# Youngs Moduli (GPa) = 37.48677 40.68594 6.10863
#
# Poissons Ratio (x) = 0.79632 0.28795
# Poissons Ratio (y) = 0.73371 -0.24712
# Poissons Ratio (z) = 1.76709 -1.64593
#
# Static dielectric constant tensor:
#      x y z
#    x 1.695300 0.000000 -0.021610 
#    y 0.000000 1.648100 0.000000 
#    z -0.021610 0.000000 1.649260 
# 
# From -- ./inp_files/90832.got.cif
#   From: 2010.05.17/outbox.cif.g08.bks.cpg/sg15_46_cif.got.tgz:90832.got - 2010.06.03 18:47:42.
