data_PCOD9261932
_publ_section_title
;
Structure prediction by ZEFSAII (Michael W. Deem and Ramdas Pophale) SiO2 
 PCOD9261932
Probable space group: C 2/C
;
_chemical_formula_sum "Si O2"
_cell_formula_units_Z 56
_cell_length_a 21.190111
_cell_length_b 5.126365
_cell_length_c 27.779366
_cell_angle_alpha 90.000000
_cell_angle_beta 113.263512
_cell_angle_gamma 90.000000
_cell_volume 2772.285166
_symmetry_space_group_name_H-M "C 2/C"
_symmetry_group_IT_number 15
_symmetry_cell_setting 'monoclinic'
loop_
_space_group_symop_operation_xyz
x,y,z
-x,y,1/2-z
-x,-y,-z
x,-y,1/2+z
1/2+x,1/2+y,z
1/2-x,1/2+y,1/2-z
1/2-x,1/2-y,-z
1/2+x,1/2-y,1/2+z
loop_
_atom_site_type_symbol
_atom_site_label
_atom_site_fract_x
_atom_site_fract_y
_atom_site_fract_z
Si Si1 0.107218 0.493047 0.501386
Si Si2 0.296106 0.506990 0.707328
Si Si3 0.965534 0.239986 0.942935
Si Si4 0.282947 0.003670 0.535187
Si Si5 0.590663 0.740649 0.125876
Si Si6 0.340281 0.984771 0.266303
Si Si7 0.281532 0.729646 0.397161
O O1 0.079077 0.236954 0.520826
O O2 0.137786 0.473270 0.456966
O O3 0.168904 0.605958 0.552542
O O4 0.042788 0.687011 0.480125
O O5 0.345637 0.724534 0.746713
O O6 0.226577 0.503698 0.718868
O O7 0.324933 0.217286 0.719088
O O8 0.273040 0.596762 0.647873
O O9 0.934466 0.496000 0.907675
O O10 0.958348 0.993417 0.905885
O O11 0.250000 0.750000 0.500000
O O12 0.259025 0.978675 0.582961
O O13 0.250000 0.250000 0.500000
O O14 0.602814 0.841630 0.183623
O O15 0.664251 0.636196 0.127124
#
# Coordination Sequence:
#
# PCOD9261932 Si02
#       7
#     8   8   8   8   8   8   8
#     4   9  20  34  49  73 103 131 165 199 234 287
#     4   9  17  28  45  69  95 123 151 192 247 292
#     4  10  20  32  50  72  99 133 164 197 237 281
#     4  10  20  33  49  69  97 132 162 195 236 282
#     4  10  19  32  50  73  98 128 162 200 243 286
#     4   9  17  29  45  68  96 120 154 198 241 289
#     4   9  19  32  50  73 101 129 159 196 244 294
#
# _framework density 20.199940999999999
#
# number of rings (size 3 to 8) (size 9 to 14) (size 15 to 20)
#    0.000    2.571    0.000    1.714    0.000   16.571 
#    0.000    0.000    0.000    0.000    0.000    6.000 
#    0.000    0.000    0.000    0.000    0.000    0.000 
#
# Total GULP energy -155986.952363 kJ/mol
# GULP energy per Si atom -5570.962584 kJ/mol
# Density = 2.015397 g / cm^3
# Si number density = 20.199941 Si / 1000 Ang^3
#
#
#
# Elastic Constant Matrix: (Units=GPa)
#
#
# Indices 1 2 3 4 5 6 
#
# 1 57.8593 3.2572 13.4499 0.0001 -5.1247 -0.0024
# 2 3.2572 87.3527 -1.0956 0.0005 4.7104 -0.0023
# 3 13.4499 -1.0956 59.1629 -0.0002 7.1717 0.0003
# 4 0.0001 0.0005 -0.0002 28.8071 0.0002 2.7708
# 5 -5.1247 4.7104 7.1717 0.0002 12.2447 0.0003
# 6 -0.0024 -0.0023 0.0003 2.7708 0.0003 7.3688
#
#
#
# Elastic Compliance Matrix: (Units=1/GPa)
#
#
# Indices 1 2 3 4 5 6 
#
# 1 0.019876 -0.001488 -0.006054 -0.000001 0.012436 0.000006
# 2 -0.001488 0.011839 0.001276 0.000000 -0.005924 0.000003
# 3 -0.006054 0.001276 0.020096 0.000000 -0.014794 -0.000002
# 4 -0.000001 0.000000 0.000000 0.036016 -0.000001 -0.013543
# 5 0.012436 -0.005924 -0.014794 -0.000001 0.097817 -0.000001
# 6 0.000006 0.000003 -0.000002 -0.013543 -0.000001 0.140800
#
#
# Mechanical properties :
#
#
# Convention : Reuss Voigt Hill
#
# Bulk Modulus (GPa) = 25.45906 26.17756 25.81831
# Shear Modulus (GPa) = 14.20181 22.26834 18.23507
#
# Velocity S-wave (km/s) = 2.65441 3.32384 3.00780
# Velocity P-wave (km/s) = 4.69312 5.26478 4.98715
#
# Compressibility (1/GPa) = 0.03927875
#
# Stress axis : x y z
#
# Youngs Moduli (GPa) = 50.31246 84.46829 49.76195
#
# Poissons Ratio (x) = 0.12566 0.30124
# Poissons Ratio (y) = 0.07485 -0.06347
# Poissons Ratio (z) = 0.30457 -0.10774
#
# Static dielectric constant tensor:
#      x y z
#    x 1.783550 0.000000 -0.032340 
#    y 0.000000 1.746520 0.000000 
#    z -0.032340 0.000000 1.788770 
# 
# From -- ./inp_files/278634.got.cif
#   From: 2010.05.17/outbox.cif.g08.bks.cpg/sg15_140_cif.got.tgz:278634.got - 2010.06.03 18:47:42.
