data_PCOD9261075
_publ_section_title
;
Structure prediction by ZEFSAII (Michael W. Deem and Ramdas Pophale) SiO2 
 PCOD9261075
Probable space group: C 2/C
;
_chemical_formula_sum "Si O2"
_cell_formula_units_Z 44
_cell_length_a 11.005744
_cell_length_b 9.913506
_cell_length_c 19.854856
_cell_angle_alpha 90.000000
_cell_angle_beta 86.814605
_cell_angle_gamma 90.000000
_cell_volume 2162.927195
_symmetry_space_group_name_H-M "C 2/C"
_symmetry_group_IT_number 15
_symmetry_cell_setting 'monoclinic'
loop_
_space_group_symop_operation_xyz
x,y,z
-x,y,1/2-z
-x,-y,-z
x,-y,1/2+z
1/2+x,1/2+y,z
1/2-x,1/2+y,1/2-z
1/2-x,1/2-y,-z
1/2+x,1/2-y,1/2+z
loop_
_atom_site_type_symbol
_atom_site_label
_atom_site_fract_x
_atom_site_fract_y
_atom_site_fract_z
Si Si1 0.500000 0.270653 0.750000
Si Si2 0.574271 0.882568 0.031463
Si Si3 0.511165 0.382693 0.605185
Si Si4 0.367050 0.006306 0.733225
Si Si5 0.718636 0.859171 0.894583
Si Si6 0.725502 0.448207 0.366777
O O1 0.524351 0.357291 0.684348
O O2 0.392547 0.166813 0.734363
O O3 0.498022 0.762380 0.068606
O O4 0.662965 0.949891 0.083889
O O5 0.647699 0.827805 0.965267
O O6 0.500000 0.000000 0.000000
O O7 0.651188 0.417820 0.584073
O O8 0.397686 0.483199 0.601052
O O9 0.500000 0.947624 0.750000
O O10 0.333893 0.959199 0.659822
O O11 0.268488 0.982821 0.795333
O O12 0.716452 0.713393 0.857890
#
# Coordination Sequence:
#
# PCOD9261075 Si02
#       6
#     4   8   8   8   8   8
#     4  10  18  40  62  88 122 170 206 258 320 364
#     4  11  23  43  64  90 125 168 213 265 326 387
#     4  11  22  39  63  91 130 163 213 266 323 384
#     4  10  20  40  63  87 125 168 209 257 319 376
#     4  11  22  41  62  93 130 161 212 272 314 386
#     4  11  23  39  65  94 124 170 213 261 330 383
#
# _framework density 20.342801999999999
#
# number of rings (size 3 to 8) (size 9 to 14) (size 15 to 20)
#    0.545    0.727    3.636    5.455    0.000    3.636 
#    4.909    1.818    0.000    0.000    0.000    0.000 
#    0.000    0.000    0.000    0.000    0.000    0.000 
#
# Total GULP energy -122522.684866 kJ/mol
# GULP energy per Si atom -5569.212948 kJ/mol
# Density = 2.029650 g / cm^3
# Si number density = 20.342802 Si / 1000 Ang^3
#
#
#
# Elastic Constant Matrix: (Units=GPa)
#
#
# Indices 1 2 3 4 5 6 
#
# 1 63.2417 25.7930 -14.9779 0.0000 -8.7732 0.0000
# 2 25.7930 33.0353 -0.5327 0.0000 6.2359 0.0000
# 3 -14.9779 -0.5327 82.9230 0.0000 -11.2249 0.0000
# 4 0.0000 0.0000 0.0000 33.2003 0.0000 -7.6937
# 5 -8.7732 6.2359 -11.2249 0.0000 38.3798 0.0000
# 6 0.0000 0.0000 0.0000 -7.6937 0.0000 30.7043
#
#
#
# Elastic Compliance Matrix: (Units=1/GPa)
#
#
# Indices 1 2 3 4 5 6 
#
# 1 0.029643 -0.025476 0.006943 0.000000 0.012946 0.000000
# 2 -0.025476 0.053144 -0.006474 0.000000 -0.016352 0.000000
# 3 0.006943 -0.006474 0.014191 0.000000 0.006789 0.000000
# 4 0.000000 0.000000 0.000000 0.031977 0.000000 0.008013
# 5 0.012946 -0.016352 0.006789 0.000000 0.033657 0.000000
# 6 0.000000 0.000000 0.000000 0.008013 0.000000 0.034576
#
#
# Mechanical properties :
#
#
# Convention : Reuss Voigt Hill
#
# Bulk Modulus (GPa) = 21.29283 22.19611 21.74447
# Shear Modulus (GPa) = 19.02173 31.71807 25.36990
#
# Velocity S-wave (km/s) = 3.06119 3.95293 3.53529
# Velocity P-wave (km/s) = 4.79419 5.63639 5.23226
#
# Compressibility (1/GPa) = 0.04696416
#
# Stress axis : x y z
#
# Youngs Moduli (GPa) = 33.73466 18.81680 70.46760
#
# Poissons Ratio (x) = 0.47938 -0.48926
# Poissons Ratio (y) = 0.85943 0.45619
# Poissons Ratio (z) = -0.23422 0.12181
#
# Static dielectric constant tensor:
#      x y z
#    x 1.654150 0.000000 0.205640 
#    y 0.000000 1.726910 0.000000 
#    z 0.205640 0.000000 1.322380 
# 
# From -- ./inp_files/236137.got.cif
#   From: 2010.05.17/outbox.cif.g08.bks.cpg/sg15_119_cif.got.tgz:236137.got - 2010.06.03 18:47:42.
