data_PCOD9261369
_publ_section_title
;
Structure prediction by ZEFSAII (Michael W. Deem and Ramdas Pophale) SiO2 
 PCOD9261369
Probable space group: C 2/C
;
_chemical_formula_sum "Si O2"
_cell_formula_units_Z 48
_cell_length_a 22.734193
_cell_length_b 22.020518
_cell_length_c 10.770584
_cell_angle_alpha 90.000000
_cell_angle_beta 19.864293
_cell_angle_gamma 90.000000
_cell_volume 1832.151500
_symmetry_space_group_name_H-M "C 2/C"
_symmetry_group_IT_number 15
_symmetry_cell_setting 'monoclinic'
loop_
_space_group_symop_operation_xyz
x,y,z
-x,y,1/2-z
-x,-y,-z
x,-y,1/2+z
1/2+x,1/2+y,z
1/2-x,1/2+y,1/2-z
1/2-x,1/2-y,-z
1/2+x,1/2-y,1/2+z
loop_
_atom_site_type_symbol
_atom_site_label
_atom_site_fract_x
_atom_site_fract_y
_atom_site_fract_z
Si Si1 0.175358 0.038543 0.660372
Si Si2 0.665335 0.188132 0.834572
Si Si3 0.709315 0.464064 0.816885
Si Si4 0.130801 0.831489 0.352788
Si Si5 0.447151 0.206197 0.061793
Si Si6 0.204011 0.170685 0.316647
O O1 0.116564 0.107375 0.804526
O O2 0.271444 0.033245 0.337206
O O3 0.269312 0.013640 0.597557
O O4 0.000000 0.000000 0.000000
O O5 0.500000 0.171695 0.250000
O O6 0.610901 0.173916 0.801454
O O7 0.695369 0.260956 0.779927
O O8 0.824768 0.157051 0.590612
O O9 0.500000 0.471174 0.250000
O O10 0.746994 0.397412 0.687084
O O11 0.007523 0.775894 0.560581
O O12 0.305910 0.799279 0.951134
O O13 0.346592 0.179603 0.143692
O O14 0.000000 0.162795 0.750000
#
# Coordination Sequence:
#
# PCOD9261369 Si02
#       6
#     8   8   8   8   8   8
#     4  10  19  29  44  66  97 128 153 189 236 280
#     4   8  15  21  37  64  88 118 141 189 247 274
#     4   9  18  28  42  63  93 125 153 184 229 280
#     4   9  15  25  39  65  96 117 148 191 243 281
#     4   9  15  23  41  64  94 118 142 200 249 267
#     4   9  14  23  38  62  93 117 144 186 239 284
#
# _framework density 26.198706999999999
#
# number of rings (size 3 to 8) (size 9 to 14) (size 15 to 20)
#    0.000    3.000    1.667    3.000    4.667    0.000 
#    0.000    0.000    0.000    1.000    0.000    4.667 
#    0.000    0.000    0.000    0.000    0.000    0.000 
#
# Total GULP energy -133728.434564 kJ/mol
# GULP energy per Si atom -5572.018107 kJ/mol
# Density = 2.613908 g / cm^3
# Si number density = 26.198707 Si / 1000 Ang^3
#
#
#
# Elastic Constant Matrix: (Units=GPa)
#
#
# Indices 1 2 3 4 5 6 
#
# 1 160.4229 40.6761 41.7731 -0.0027 -23.4150 0.0116
# 2 40.6761 115.2732 17.2095 -0.0047 9.2622 0.0022
# 3 41.7731 17.2095 53.9419 -0.0053 0.6641 -0.0024
# 4 -0.0027 -0.0047 -0.0053 15.0260 -0.0022 14.6771
# 5 -23.4150 9.2622 0.6641 -0.0022 37.6644 0.0004
# 6 0.0116 0.0022 -0.0024 14.6771 0.0004 30.6513
#
#
#
# Elastic Compliance Matrix: (Units=1/GPa)
#
#
# Indices 1 2 3 4 5 6 
#
# 1 0.009738 -0.002996 -0.006671 0.000006 0.006908 -0.000007
# 2 -0.002996 0.010214 -0.000885 0.000002 -0.004359 -0.000001
# 3 -0.006671 -0.000885 0.024041 0.000004 -0.004353 0.000003
# 4 0.000006 0.000002 0.000004 0.125030 0.000011 -0.059869
# 5 0.006908 -0.004359 -0.004353 0.000011 0.031994 -0.000009
# 6 -0.000007 -0.000001 0.000003 -0.059869 -0.000009 0.061293
#
#
# Mechanical properties :
#
#
# Convention : Reuss Voigt Hill
#
# Bulk Modulus (GPa) = 43.68756 58.77282 51.23019
# Shear Modulus (GPa) = 17.17954 32.00031 24.58993
#
# Velocity S-wave (km/s) = 2.56352 3.49871 3.06697
# Velocity P-wave (km/s) = 5.04716 6.22924 5.66910
#
# Compressibility (1/GPa) = 0.02288981
#
# Stress axis : x y z
#
# Youngs Moduli (GPa) = 102.68559 97.90043 41.59639
#
# Poissons Ratio (x) = 0.29327 0.27749
# Poissons Ratio (y) = 0.30760 0.03683
# Poissons Ratio (z) = 0.68501 0.08668
#
# Static dielectric constant tensor:
#      x y z
#    x 2.646930 -0.000020 0.220990 
#    y -0.000020 1.937760 0.000000 
#    z 0.220990 0.000000 2.325260 
# 
# From -- ./inp_files/113911.got.cif
#   From: 2010.05.17/outbox.cif.g08.bks.cpg/sg15_57_cif.got.tgz:113911.got - 2010.06.03 18:47:42.
