data_PCOD9261591
_publ_section_title
;
Structure prediction by ZEFSAII (Michael W. Deem and Ramdas Pophale) SiO2 
 PCOD9261591
Probable space group: C 2/C
;
_chemical_formula_sum "Si O2"
_cell_formula_units_Z 48
_cell_length_a 22.243528
_cell_length_b 12.769716
_cell_length_c 14.264576
_cell_angle_alpha 90.000000
_cell_angle_beta 37.549348
_cell_angle_gamma 90.000000
_cell_volume 2469.323238
_symmetry_space_group_name_H-M "C 2/C"
_symmetry_group_IT_number 15
_symmetry_cell_setting 'monoclinic'
loop_
_space_group_symop_operation_xyz
x,y,z
-x,y,1/2-z
-x,-y,-z
x,-y,1/2+z
1/2+x,1/2+y,z
1/2-x,1/2+y,1/2-z
1/2-x,1/2-y,-z
1/2+x,1/2-y,1/2+z
loop_
_atom_site_type_symbol
_atom_site_label
_atom_site_fract_x
_atom_site_fract_y
_atom_site_fract_z
Si Si1 0.894715 0.057725 0.145735
Si Si2 0.422639 0.785062 0.018262
Si Si3 0.724271 0.381402 0.311513
Si Si4 0.391895 0.572929 0.369094
Si Si5 0.848882 0.158558 0.942583
Si Si6 0.144507 0.726437 0.257990
O O1 0.905425 0.174364 0.092262
O O2 0.870148 0.067657 0.286040
O O3 0.815198 0.986757 0.189763
O O4 0.000000 0.000000 0.000000
O O5 0.340417 0.865579 0.154452
O O6 0.398856 0.751253 0.940488
O O7 0.534988 0.818968 0.894371
O O8 0.688181 0.377109 0.463133
O O9 0.672924 0.286181 0.317727
O O10 0.500000 0.621696 0.250000
O O11 0.397678 0.452787 0.397872
O O12 0.855050 0.187431 0.826063
O O13 0.735156 0.152658 0.116455
#
# Coordination Sequence:
#
# PCOD9261591 Si02
#       6
#     8   8   8   8   8   8
#     4  12  20  37  62  83 111 148 193 237 281 336
#     4  11  21  36  56  82 121 147 183 236 287 335
#     4  11  23  35  55  90 108 148 191 229 291 339
#     4  12  20  34  59  84 111 144 194 237 282 334
#     4  10  19  30  57  85 110 140 186 238 287 328
#     4  10  19  35  53  85 114 141 183 238 286 335
#
# _framework density 19.438524999999998
#
# number of rings (size 3 to 8) (size 9 to 14) (size 15 to 20)
#    0.000    1.000    6.667    1.500    0.000    0.667 
#    0.000    0.833    0.000    0.000    0.000    0.000 
#    0.000    0.000    0.000    0.000    0.000    0.000 
#
# Total GULP energy -134042.440708 kJ/mol
# GULP energy per Si atom -5585.101696 kJ/mol
# Density = 1.939428 g / cm^3
# Si number density = 19.438525 Si / 1000 Ang^3
#
#
#
# Elastic Constant Matrix: (Units=GPa)
#
#
# Indices 1 2 3 4 5 6 
#
# 1 75.3935 2.7424 65.1669 0.0000 5.8565 0.0000
# 2 2.7424 24.1286 25.2532 0.0000 -1.5796 0.0000
# 3 65.1669 25.2532 156.7343 0.0000 -10.4628 0.0000
# 4 0.0000 0.0000 0.0000 23.5412 0.0000 -3.5447
# 5 5.8565 -1.5796 -10.4628 0.0000 58.0759 0.0000
# 6 0.0000 0.0000 0.0000 -3.5447 0.0000 19.7279
#
#
#
# Elastic Compliance Matrix: (Units=1/GPa)
#
#
# Indices 1 2 3 4 5 6 
#
# 1 0.023005 0.008918 -0.011276 0.000000 -0.004109 0.000000
# 2 0.008918 0.053309 -0.012410 0.000000 -0.001685 0.000000
# 3 -0.011276 -0.012410 0.013281 0.000000 0.003192 0.000000
# 4 0.000000 0.000000 0.000000 0.043660 0.000000 0.007845
# 5 -0.004109 -0.001685 0.003192 0.000000 0.018162 0.000000
# 6 0.000000 0.000000 0.000000 0.007845 0.000000 0.052099
#
#
# Mechanical properties :
#
#
# Convention : Reuss Voigt Hill
#
# Bulk Modulus (GPa) = 16.65008 49.17569 32.91289
# Shear Modulus (GPa) = 19.75718 31.14191 25.44955
#
# Velocity S-wave (km/s) = 3.19155 4.00693 3.62226
# Velocity P-wave (km/s) = 4.70802 6.83815 5.87051
#
# Compressibility (1/GPa) = 0.06005977
#
# Stress axis : x y z
#
# Youngs Moduli (GPa) = 43.46823 18.75864 75.29409
#
# Poissons Ratio (x) = -0.16729 0.84904
# Poissons Ratio (y) = -0.38766 0.93437
# Poissons Ratio (z) = 0.49016 0.23279
#
# Static dielectric constant tensor:
#      x y z
#    x 1.723260 0.000000 0.002020 
#    y 0.000000 1.666000 0.000000 
#    z 0.002020 0.000000 1.699320 
# 
# From -- ./inp_files/96842.got.cif
#   From: 2010.05.17/outbox.cif.g08.bks.cpg/sg15_49_cif.got.tgz:96842.got - 2010.06.03 18:47:42.
