data_PCOD9261244
_publ_section_title
;
Structure prediction by ZEFSAII (Michael W. Deem and Ramdas Pophale) SiO2 
 PCOD9261244
Probable space group: C 2/C
;
_chemical_formula_sum "Si O2"
_cell_formula_units_Z 52
_cell_length_a 15.002911
_cell_length_b 10.646959
_cell_length_c 22.136010
_cell_angle_alpha 90.000000
_cell_angle_beta 47.617796
_cell_angle_gamma 90.000000
_cell_volume 2611.847567
_symmetry_space_group_name_H-M "C 2/C"
_symmetry_group_IT_number 15
_symmetry_cell_setting 'monoclinic'
loop_
_space_group_symop_operation_xyz
x,y,z
-x,y,1/2-z
-x,-y,-z
x,-y,1/2+z
1/2+x,1/2+y,z
1/2-x,1/2+y,1/2-z
1/2-x,1/2-y,-z
1/2+x,1/2-y,1/2+z
loop_
_atom_site_type_symbol
_atom_site_label
_atom_site_fract_x
_atom_site_fract_y
_atom_site_fract_z
Si Si1 0.500000 0.904995 0.750000
Si Si2 0.181627 0.360246 0.567311
Si Si3 0.054401 0.215704 0.362839
Si Si4 0.087056 0.446786 0.011375
Si Si5 0.636058 0.473296 0.920793
Si Si6 0.165171 0.635020 0.704808
Si Si7 0.177885 0.813060 0.588557
O O1 0.580047 0.829312 0.664770
O O2 0.591040 0.004291 0.740820
O O3 0.250000 0.250000 0.500000
O O4 0.116142 0.451184 0.549525
O O5 0.283274 0.436648 0.558367
O O6 0.132401 0.138819 0.374473
O O7 0.133628 0.276927 0.274440
O O8 0.983803 0.328221 0.428441
O O9 0.946254 0.133382 0.382026
O O10 0.220846 0.402567 0.928747
O O11 0.000000 0.500000 0.000000
O O12 0.696327 0.594886 0.863418
O O13 0.500000 0.500000 0.000000
O O14 0.137616 0.708224 0.655146
O O15 0.250000 0.750000 0.500000
#
# Coordination Sequence:
#
# PCOD9261244 Si02
#       7
#     4   8   8   8   8   8   8
#     4  10  18  42  66  88 126 172 222 270 330 396
#     4  11  23  42  66  92 131 181 218 266 340 400
#     4  11  20  38  61  91 121 163 214 261 321 393
#     4  11  22  38  64  92 126 162 216 269 322 388
#     4  11  23  40  61  94 127 166 216 268 333 400
#     4  11  20  38  64  91 124 166 215 275 330 388
#     4  10  19  36  63  88 118 163 209 263 318 382
#
# _framework density 19.909278
#
# number of rings (size 3 to 8) (size 9 to 14) (size 15 to 20)
#    0.000    1.231    3.077    6.462    0.000    1.231 
#    5.538    0.000    3.385    0.000    0.000    0.000 
#    0.000    0.000    0.000    0.000    0.000    0.000 
#
# Total GULP energy -145115.474226 kJ/mol
# GULP energy per Si atom -5581.364393 kJ/mol
# Density = 1.986396 g / cm^3
# Si number density = 19.909278 Si / 1000 Ang^3
#
#
#
# Elastic Constant Matrix: (Units=GPa)
#
#
# Indices 1 2 3 4 5 6 
#
# 1 147.6218 30.7770 36.5538 0.0000 4.7429 0.0000
# 2 30.7770 39.9578 26.2490 0.0000 13.4509 0.0000
# 3 36.5538 26.2490 118.7583 0.0000 -2.2024 0.0000
# 4 0.0000 0.0000 0.0000 41.9356 0.0000 -9.1022
# 5 4.7429 13.4509 -2.2024 0.0000 31.1094 0.0000
# 6 0.0000 0.0000 0.0000 -9.1022 0.0000 34.4335
#
#
#
# Elastic Compliance Matrix: (Units=1/GPa)
#
#
# Indices 1 2 3 4 5 6 
#
# 1 0.008285 -0.006017 -0.001197 0.000000 0.001254 0.000000
# 2 -0.006017 0.040208 -0.007350 0.000000 -0.016988 0.000000
# 3 -0.001197 -0.007350 0.010490 0.000000 0.004103 0.000000
# 4 0.000000 0.000000 0.000000 0.025298 0.000000 0.006687
# 5 0.001254 -0.016988 0.004103 0.000000 0.039589 0.000000
# 6 0.000000 0.000000 0.000000 0.006687 0.000000 0.030809
#
#
# Mechanical properties :
#
#
# Convention : Reuss Voigt Hill
#
# Bulk Modulus (GPa) = 33.49608 54.83304 44.16456
# Shear Modulus (GPa) = 25.80550 35.67958 30.74254
#
# Velocity S-wave (km/s) = 3.60412 4.23792 3.93381
# Velocity P-wave (km/s) = 5.84641 7.17969 6.54707
#
# Compressibility (1/GPa) = 0.02985424
#
# Stress axis : x y z
#
# Youngs Moduli (GPa) = 120.70617 24.87071 95.33314
#
# Poissons Ratio (x) = 0.14965 0.11410
# Poissons Ratio (y) = 0.72628 0.70071
# Poissons Ratio (z) = 0.14446 0.18280
#
# Static dielectric constant tensor:
#      x y z
#    x 1.757710 0.000000 -0.021360 
#    y 0.000000 1.730150 0.000000 
#    z -0.021360 0.000000 1.725270 
# 
# From -- ./inp_files/243632.got.cif
#   From: 2010.05.17/outbox.cif.g08.bks.cpg/sg15_122_cif.got.tgz:243632.got - 2010.06.03 18:47:42.
