data_PCOD9261338
_publ_section_title
;
Structure prediction by ZEFSAII (Michael W. Deem and Ramdas Pophale) SiO2 
 PCOD9261338
Probable space group: C 2/C
;
_chemical_formula_sum "Si O2"
_cell_formula_units_Z 48
_cell_length_a 13.523380
_cell_length_b 20.901578
_cell_length_c 8.515603
_cell_angle_alpha 90.000000
_cell_angle_beta 50.333375
_cell_angle_gamma 90.000000
_cell_volume 1852.855564
_symmetry_space_group_name_H-M "C 2/C"
_symmetry_group_IT_number 15
_symmetry_cell_setting 'monoclinic'
loop_
_space_group_symop_operation_xyz
x,y,z
-x,y,1/2-z
-x,-y,-z
x,-y,1/2+z
1/2+x,1/2+y,z
1/2-x,1/2+y,1/2-z
1/2-x,1/2-y,-z
1/2+x,1/2-y,1/2+z
loop_
_atom_site_type_symbol
_atom_site_label
_atom_site_fract_x
_atom_site_fract_y
_atom_site_fract_z
Si Si1 0.613711 0.460521 0.966701
Si Si2 0.783536 0.929723 0.932874
Si Si3 0.676929 0.267893 0.303722
Si Si4 0.131156 0.379154 0.379739
Si Si5 0.618266 0.140305 0.229653
Si Si6 0.000000 0.179001 0.250000
Si Si7 0.500000 0.657591 0.750000
O O1 0.735310 0.446407 0.730743
O O2 0.651901 0.505847 0.068555
O O3 0.500000 0.500000 0.000000
O O4 0.559409 0.392010 0.066805
O O5 0.684226 0.913956 0.171816
O O6 0.885044 0.870861 0.825789
O O7 0.806600 0.307950 0.203559
O O8 0.698120 0.194737 0.235161
O O9 0.572583 0.277022 0.548344
O O10 0.607569 0.302012 0.227963
O O11 0.978741 0.389410 0.544500
O O12 0.173873 0.396656 0.519572
O O13 0.500000 0.175322 0.250000
#
# Coordination Sequence:
#
# PCOD9261338 Si02
#       7
#     8   8   8   8   8   4   4
#     4  12  19  29  47  74 108 135 165 205 256 317
#     4  11  19  32  47  74 107 139 164 206 261 308
#     4  11  18  32  53  80 104 134 172 204 264 313
#     4   8  19  33  55  73 103 138 174 213 260 299
#     4   8  18  35  56  73  96 138 177 217 246 302
#     4  10  19  28  48  74 114 134 152 211 260 314
#     4  12  19  28  50  78 110 132 164 205 254 322
#
# _framework density 25.905957000000001
#
# number of rings (size 3 to 8) (size 9 to 14) (size 15 to 20)
#    1.000    0.667    5.833    1.500    0.000    0.000 
#    0.000    3.333    3.667    4.000    0.000    0.000 
#    0.000    0.000    0.000    0.000    0.000    0.000 
#
# Total GULP energy -133784.354627 kJ/mol
# GULP energy per Si atom -5574.348109 kJ/mol
# Density = 2.584699 g / cm^3
# Si number density = 25.905957 Si / 1000 Ang^3
#
#
#
# Elastic Constant Matrix: (Units=GPa)
#
#
# Indices 1 2 3 4 5 6 
#
# 1 43.6708 18.4027 12.8360 0.0000 -25.2856 0.0000
# 2 18.4027 58.0378 23.4948 0.0000 -8.7359 0.0000
# 3 12.8360 23.4948 280.0119 0.0000 -10.7600 0.0000
# 4 0.0000 0.0000 0.0000 30.6610 0.0000 4.5581
# 5 -25.2856 -8.7359 -10.7600 0.0000 23.5428 0.0000
# 6 0.0000 0.0000 0.0000 4.5581 0.0000 21.7866
#
#
#
# Elastic Compliance Matrix: (Units=1/GPa)
#
#
# Indices 1 2 3 4 5 6 
#
# 1 0.066601 -0.011134 0.000480 0.000000 0.067619 0.000000
# 2 -0.011134 0.020583 -0.001407 0.000000 -0.004964 0.000000
# 3 0.000480 -0.001407 0.003733 0.000000 0.001699 0.000000
# 4 0.000000 0.000000 0.000000 0.033662 0.000000 -0.007043
# 5 0.067619 -0.004964 0.001699 0.000000 0.114035 0.000000
# 6 0.000000 0.000000 0.000000 -0.007043 0.000000 0.047373
#
#
# Mechanical properties :
#
#
# Convention : Reuss Voigt Hill
#
# Bulk Modulus (GPa) = 14.97159 54.57640 34.77399
# Shear Modulus (GPa) = 15.04327 36.99723 26.02025
#
# Velocity S-wave (km/s) = 2.41236 3.78317 3.17268
# Velocity P-wave (km/s) = 3.68118 6.34003 5.18397
#
# Compressibility (1/GPa) = 0.06679318
#
# Stress axis : x y z
#
# Youngs Moduli (GPa) = 15.01476 48.58349 267.90524
#
# Poissons Ratio (x) = 0.54093 -0.12847
# Poissons Ratio (y) = 0.16717 0.37705
# Poissons Ratio (z) = -0.00720 0.06838
#
# Static dielectric constant tensor:
#      x y z
#    x 2.155360 0.000000 -0.014240 
#    y 0.000000 2.000940 0.000000 
#    z -0.014240 0.000000 2.188570 
# 
# From -- ./inp_files/58880.got.cif
#   From: 2010.05.17/outbox.cif.g08.bks.cpg/sg15_30_cif.got.tgz:58880.got - 2010.06.03 18:47:42.
