data_PCOD9261662
_publ_section_title
;
Structure prediction by ZEFSAII (Michael W. Deem and Ramdas Pophale) SiO2 
 PCOD9261662
Probable space group: C 2/C
;
_chemical_formula_sum "Si O2"
_cell_formula_units_Z 60
_cell_length_a 26.745266
_cell_length_b 12.739469
_cell_length_c 23.747253
_cell_angle_alpha 90.000000
_cell_angle_beta 156.206580
_cell_angle_gamma 90.000000
_cell_volume 3264.305646
_symmetry_space_group_name_H-M "C 2/C"
_symmetry_group_IT_number 15
_symmetry_cell_setting 'monoclinic'
loop_
_space_group_symop_operation_xyz
x,y,z
-x,y,1/2-z
-x,-y,-z
x,-y,1/2+z
1/2+x,1/2+y,z
1/2-x,1/2+y,1/2-z
1/2-x,1/2-y,-z
1/2+x,1/2-y,1/2+z
loop_
_atom_site_type_symbol
_atom_site_label
_atom_site_fract_x
_atom_site_fract_y
_atom_site_fract_z
Si Si1 0.500000 0.117518 0.750000
Si Si2 0.230646 0.545692 0.277147
Si Si3 0.115447 0.246637 0.626505
Si Si4 0.581550 0.398008 0.988148
Si Si5 0.106746 0.769324 0.769419
Si Si6 0.648541 0.464983 0.213716
Si Si7 0.466080 0.118222 0.899168
Si Si8 0.322926 0.933304 0.972715
O O1 0.585346 0.194599 0.800331
O O2 0.584066 0.051063 0.879531
O O3 0.214782 0.669732 0.252041
O O4 0.323996 0.495046 0.419318
O O5 0.277558 0.500214 0.265803
O O6 0.100976 0.490056 0.157505
O O7 0.138753 0.186460 0.590886
O O8 0.098385 0.151588 0.651912
O O9 0.998384 0.318055 0.488773
O O10 0.519658 0.337644 0.871877
O O11 0.461605 0.451354 0.893606
O O12 0.115712 0.693226 0.724639
O O13 0.225676 0.843517 0.891310
O O14 0.909935 0.600689 0.509961
O O15 0.762652 0.975207 0.140802
#
# Coordination Sequence:
#
# PCOD9261662 Si02
#       8
#     4   8   8   8   8   8   8   8
#     4  10  20  34  60  84  96 134 180 218 286 320
#     4  11  20  31  50  78 110 145 182 214 248 317
#     4  10  19  31  48  75 102 153 178 205 249 312
#     4   9  21  35  48  75 107 147 175 219 263 303
#     4   9  20  35  58  74 110 137 171 221 274 325
#     4  10  21  34  51  70 112 144 184 214 260 309
#     4  10  21  31  49  78 113 140 179 213 257 304
#     4  10  20  37  48  81 108 136 170 226 268 313
#
# _framework density 18.380631999999999
#
# number of rings (size 3 to 8) (size 9 to 14) (size 15 to 20)
#    0.000    2.133    1.333    2.400    7.467    4.267 
#    0.000    0.000    0.000    0.000    0.000    4.667 
#    0.000    0.000    0.000    0.000    0.000    0.000 
#
# Total GULP energy -167126.983240 kJ/mol
# GULP energy per Si atom -5570.899441 kJ/mol
# Density = 1.833880 g / cm^3
# Si number density = 18.380632 Si / 1000 Ang^3
#
#
#
# Elastic Constant Matrix: (Units=GPa)
#
#
# Indices 1 2 3 4 5 6 
#
# 1 41.6085 21.7401 28.4604 0.0000 -7.6015 0.0000
# 2 21.7401 73.7637 22.8406 -0.0002 -12.3663 0.0000
# 3 28.4604 22.8406 65.1613 -0.0003 -10.8390 -0.0001
# 4 0.0000 -0.0002 -0.0003 22.7908 -0.0001 2.2615
# 5 -7.6015 -12.3663 -10.8390 -0.0001 25.3466 0.0000
# 6 0.0000 0.0000 -0.0001 2.2615 0.0000 8.1162
#
#
#
# Elastic Compliance Matrix: (Units=1/GPa)
#
#
# Indices 1 2 3 4 5 6 
#
# 1 0.037045 -0.006340 -0.013591 0.000000 0.002205 0.000000
# 2 -0.006340 0.017049 -0.002303 0.000000 0.005432 0.000000
# 3 -0.013591 -0.002303 0.022851 0.000000 0.004572 0.000000
# 4 0.000000 0.000000 0.000000 0.045125 0.000000 -0.012574
# 5 0.002205 0.005432 0.004572 0.000000 0.044719 0.000000
# 6 0.000000 0.000000 0.000000 -0.012574 0.000000 0.126714
#
#
# Mechanical properties :
#
#
# Convention : Reuss Voigt Hill
#
# Bulk Modulus (GPa) = 30.79228 36.29062 33.54145
# Shear Modulus (GPa) = 14.33494 18.41691 16.37593
#
# Velocity S-wave (km/s) = 2.79569 3.16883 2.98809
# Velocity P-wave (km/s) = 5.21633 5.75981 5.49480
#
# Compressibility (1/GPa) = 0.03247567
#
# Stress axis : x y z
#
# Youngs Moduli (GPa) = 26.99388 58.65351 43.76251
#
# Poissons Ratio (x) = 0.37188 0.59478
# Poissons Ratio (y) = 0.17115 0.10081
# Poissons Ratio (z) = 0.36688 0.13511
#
# Static dielectric constant tensor:
#      x y z
#    x 1.618480 0.000000 -0.010210 
#    y 0.000000 1.649930 0.000000 
#    z -0.010210 0.000000 1.731260 
# 
# From -- ./inp_files/320278.got.cif
#   From: 2010.05.17/outbox.cif.g08.bks.cpg/sg15_161_cif.got.tgz:320278.got - 2010.06.03 18:47:42.
