data_PCOD9261495
_publ_section_title
;
Structure prediction by ZEFSAII (Michael W. Deem and Ramdas Pophale) SiO2 
 PCOD9261495
Probable space group: C 2/C
;
_chemical_formula_sum "Si O2"
_cell_formula_units_Z 56
_cell_length_a 21.376745
_cell_length_b 16.908511
_cell_length_c 26.346214
_cell_angle_alpha 90.000000
_cell_angle_beta 21.734237
_cell_angle_gamma 90.000000
_cell_volume 3526.314867
_symmetry_space_group_name_H-M "C 2/C"
_symmetry_group_IT_number 15
_symmetry_cell_setting 'monoclinic'
loop_
_space_group_symop_operation_xyz
x,y,z
-x,y,1/2-z
-x,-y,-z
x,-y,1/2+z
1/2+x,1/2+y,z
1/2-x,1/2+y,1/2-z
1/2-x,1/2-y,-z
1/2+x,1/2-y,1/2+z
loop_
_atom_site_type_symbol
_atom_site_label
_atom_site_fract_x
_atom_site_fract_y
_atom_site_fract_z
Si Si1 0.619193 0.857051 0.795994
Si Si2 0.148610 0.105100 0.754508
Si Si3 0.580595 0.006328 0.995545
Si Si4 0.479917 0.417073 0.486204
Si Si5 0.049396 0.755624 0.154247
Si Si6 0.192699 0.758503 0.335326
Si Si7 0.524998 0.163058 0.924865
O O1 0.795398 0.885838 0.639835
O O2 0.518200 0.818533 0.826352
O O3 0.641982 0.790323 0.822607
O O4 0.520439 0.929089 0.896260
O O5 0.316116 0.144456 0.655759
O O6 0.041261 0.168962 0.804041
O O7 0.230584 0.038071 0.656831
O O8 0.031196 0.072332 0.888418
O O9 0.545234 0.919273 0.043655
O O10 0.500000 0.000000 0.000000
O O11 0.500000 0.500000 0.500000
O O12 0.600928 0.343478 0.409940
O O13 0.000000 0.754022 0.250000
O O14 0.250000 0.750000 0.000000
O O15 0.388981 0.779526 0.180901
O O16 0.123866 0.704764 0.432251
#
# Coordination Sequence:
#
# PCOD9261495 Si02
#       7
#     8   8   8   8   8   8   8
#     4  12  20  34  48  68 105 136 175 222 241 298
#     4  10  19  34  47  66  98 127 179 224 242 296
#     4  10  19  31  51  70  93 132 180 203 265 315
#     4  11  21  31  49  74  96 136 176 207 267 311
#     4  12  24  34  51  72  99 148 193 214 242 286
#     4  11  18  29  48  67 101 130 168 202 246 301
#     4  10  19  30  49  71  95 134 172 200 262 309
#
# _framework density 15.880601
#
# number of rings (size 3 to 8) (size 9 to 14) (size 15 to 20)
#    0.000    1.143    7.143    4.286    0.000    0.000 
#    0.000    0.000    0.000    0.000    0.000    0.000 
#    0.000    0.000    0.000   81.000    0.286    0.000 
#
# Total GULP energy -155964.673794 kJ/mol
# GULP energy per Si atom -5570.166921 kJ/mol
# Density = 1.584446 g / cm^3
# Si number density = 15.880601 Si / 1000 Ang^3
#
#
#
# Elastic Constant Matrix: (Units=GPa)
#
#
# Indices 1 2 3 4 5 6 
#
# 1 42.7275 32.1096 38.9945 0.0065 14.9267 -0.0025
# 2 32.1096 104.8212 44.0035 0.0052 10.0339 -0.0030
# 3 38.9945 44.0035 113.3851 -0.0006 25.6337 -0.0015
# 4 0.0065 0.0052 -0.0006 26.8041 -0.0002 7.6498
# 5 14.9267 10.0339 25.6337 -0.0002 29.1115 -0.0006
# 6 -0.0025 -0.0030 -0.0015 7.6498 -0.0006 26.2948
#
#
#
# Elastic Compliance Matrix: (Units=1/GPa)
#
#
# Indices 1 2 3 4 5 6 
#
# 1 0.040918 -0.007906 -0.008586 -0.000010 -0.010695 0.000005
# 2 -0.007906 0.012924 -0.002755 -0.000001 0.002025 0.000001
# 3 -0.008586 -0.002755 0.014522 0.000003 -0.007436 -0.000001
# 4 -0.000010 -0.000001 0.000003 0.040686 0.000003 -0.011836
# 5 -0.010695 0.002025 -0.007436 0.000003 0.045684 -0.000001
# 6 0.000005 0.000001 -0.000001 -0.011836 -0.000001 0.041474
#
#
# Mechanical properties :
#
#
# Convention : Reuss Voigt Hill
#
# Bulk Modulus (GPa) = 33.47697 54.57211 44.02454
# Shear Modulus (GPa) = 20.43668 26.16382 23.30025
#
# Velocity S-wave (km/s) = 3.59123 4.06339 3.83458
# Velocity P-wave (km/s) = 6.19048 7.51355 6.88387
#
# Compressibility (1/GPa) = 0.02987128
#
# Stress axis : x y z
#
# Youngs Moduli (GPa) = 24.43939 77.37274 68.85949
#
# Poissons Ratio (x) = 0.61171 0.59122
# Poissons Ratio (y) = 0.19322 0.18968
# Poissons Ratio (z) = 0.20983 0.21313
#
# Static dielectric constant tensor:
#      x y z
#    x 1.506100 0.000000 0.024140 
#    y 0.000000 1.560990 0.000000 
#    z 0.024140 0.000000 1.540100 
# 
# From -- ./inp_files/301302.got.cif
#   From: 2010.05.17/outbox.cif.g08.bks.cpg/sg15_151_cif.got.tgz:301302.got - 2010.06.03 18:47:42.
