data_PCOD9261586
_publ_section_title
;
Structure prediction by ZEFSAII (Michael W. Deem and Ramdas Pophale) SiO2 
 PCOD9261586
Probable space group: C 2/C
;
_chemical_formula_sum "Si O2"
_cell_formula_units_Z 60
_cell_length_a 14.914547
_cell_length_b 19.755416
_cell_length_c 11.404249
_cell_angle_alpha 90.000000
_cell_angle_beta 115.485547
_cell_angle_gamma 90.000000
_cell_volume 3033.216589
_symmetry_space_group_name_H-M "C 2/C"
_symmetry_group_IT_number 15
_symmetry_cell_setting 'monoclinic'
loop_
_space_group_symop_operation_xyz
x,y,z
-x,y,1/2-z
-x,-y,-z
x,-y,1/2+z
1/2+x,1/2+y,z
1/2-x,1/2+y,1/2-z
1/2-x,1/2-y,-z
1/2+x,1/2-y,1/2+z
loop_
_atom_site_type_symbol
_atom_site_label
_atom_site_fract_x
_atom_site_fract_y
_atom_site_fract_z
Si Si1 0.806116 0.566153 0.250571
Si Si2 0.124509 0.158777 0.203136
Si Si3 0.662864 0.299069 0.990814
Si Si4 0.018703 0.287948 0.120110
Si Si5 0.531344 0.538718 0.397731
Si Si6 0.241208 0.929801 0.103304
Si Si7 0.500000 0.956726 0.750000
Si Si8 0.931726 0.573379 0.554756
O O1 0.718862 0.620700 0.203448
O O2 0.762025 0.491123 0.203248
O O3 0.895399 0.580118 0.208762
O O4 0.861251 0.567271 0.404737
O O5 0.136165 0.166042 0.350431
O O6 0.107805 0.235584 0.149414
O O7 0.029407 0.110139 0.126678
O O8 0.575588 0.251283 0.986296
O O9 0.750000 0.250000 0.000000
O O10 0.696376 0.355594 0.102906
O O11 0.009963 0.365975 0.080590
O O12 0.000000 0.287771 0.250000
O O13 0.500000 0.512072 0.250000
O O14 0.500000 0.500000 0.500000
O O15 0.651568 0.541178 0.471389
O O16 0.348562 0.912556 0.108239
O O17 0.485332 0.006348 0.630417
#
# Coordination Sequence:
#
# PCOD9261586 Si02
#       8
#     8   8   8   8   8   8   4   8
#     4  11  22  37  55  82 116 159 200 255 311 380
#     4  11  20  33  55  87 123 160 196 251 326 385
#     4  11  18  31  52  85 127 157 190 250 320 379
#     4  10  19  30  55  86 121 151 192 253 319 379
#     4  12  21  36  56  88 131 174 208 256 314 386
#     4  11  21  32  55  86 127 160 201 246 315 380
#     4  10  24  38  58  80 114 158 202 256 304 376
#     4  11  20  38  57  85 118 154 205 254 314 375
#
# _framework density 19.78098
#
# number of rings (size 3 to 8) (size 9 to 14) (size 15 to 20)
#    0.000    1.067    7.333    0.800    0.000    0.000 
#    0.000    0.000    0.000    0.800    1.733    0.000 
#    0.000    0.000    0.000    0.000    0.000    0.000 
#
# Total GULP energy -167046.809677 kJ/mol
# GULP energy per Si atom -5568.226989 kJ/mol
# Density = 1.973596 g / cm^3
# Si number density = 19.780980 Si / 1000 Ang^3
#
#
#
# Elastic Constant Matrix: (Units=GPa)
#
#
# Indices 1 2 3 4 5 6 
#
# 1 94.3844 37.1274 6.8884 0.0000 18.2596 0.0000
# 2 37.1274 79.8766 40.0497 0.0000 7.9618 0.0000
# 3 6.8884 40.0497 70.0099 0.0000 10.0801 0.0000
# 4 0.0000 0.0000 0.0000 30.0436 0.0000 12.6323
# 5 18.2596 7.9618 10.0801 0.0000 23.1728 0.0000
# 6 0.0000 0.0000 0.0000 12.6323 0.0000 39.2861
#
#
#
# Elastic Compliance Matrix: (Units=1/GPa)
#
#
# Indices 1 2 3 4 5 6 
#
# 1 0.015985 -0.008857 0.005195 0.000000 -0.011812 0.000000
# 2 -0.008857 0.022531 -0.012703 0.000000 0.004764 0.000000
# 3 0.005195 -0.012703 0.022404 0.000000 -0.009474 0.000000
# 4 0.000000 0.000000 0.000000 0.038489 0.000000 -0.012376
# 5 -0.011812 0.004764 -0.009474 0.000000 0.054946 0.000000
# 6 0.000000 0.000000 0.000000 -0.012376 0.000000 0.029434
#
#
# Mechanical properties :
#
#
# Convention : Reuss Voigt Hill
#
# Bulk Modulus (GPa) = 35.47595 45.82241 40.64918
# Shear Modulus (GPa) = 22.13209 29.18086 25.65648
#
# Velocity S-wave (km/s) = 3.34856 3.84500 3.60533
# Velocity P-wave (km/s) = 5.73793 6.55188 6.15837
#
# Compressibility (1/GPa) = 0.02818811
#
# Stress axis : x y z
#
# Youngs Moduli (GPa) = 62.55769 44.38358 44.63533
#
# Poissons Ratio (x) = 0.39312 -0.23188
# Poissons Ratio (y) = 0.55410 0.56702
# Poissons Ratio (z) = -0.32498 0.56382
#
# Static dielectric constant tensor:
#      x y z
#    x 1.797440 0.000000 0.008460 
#    y 0.000000 1.775420 0.000000 
#    z 0.008460 0.000000 1.737940 
# 
# From -- ./inp_files/106720.got.cif
#   From: 2010.05.17/outbox.cif.g08.bks.cpg/sg15_54_cif.got.tgz:106720.got - 2010.06.03 18:47:42.
