data_PCOD9261043
_publ_section_title
;
Structure prediction by ZEFSAII (Michael W. Deem and Ramdas Pophale) SiO2 
 PCOD9261043
Probable space group: C 2/C
;
_chemical_formula_sum "Si O2"
_cell_formula_units_Z 44
_cell_length_a 13.796243
_cell_length_b 10.062637
_cell_length_c 26.525208
_cell_angle_alpha 90.000000
_cell_angle_beta 32.911884
_cell_angle_gamma 90.000000
_cell_volume 2000.829041
_symmetry_space_group_name_H-M "C 2/C"
_symmetry_group_IT_number 15
_symmetry_cell_setting 'monoclinic'
loop_
_space_group_symop_operation_xyz
x,y,z
-x,y,1/2-z
-x,-y,-z
x,-y,1/2+z
1/2+x,1/2+y,z
1/2-x,1/2+y,1/2-z
1/2-x,1/2-y,-z
1/2+x,1/2-y,1/2+z
loop_
_atom_site_type_symbol
_atom_site_label
_atom_site_fract_x
_atom_site_fract_y
_atom_site_fract_z
Si Si1 0.292295 0.535693 0.585088
Si Si2 0.575495 0.972566 0.586601
Si Si3 0.000000 0.829370 0.250000
Si Si4 0.652177 0.893797 0.449098
Si Si5 0.783050 0.607405 0.283593
Si Si6 0.547235 0.253694 0.543522
O O1 0.500000 0.500000 0.500000
O O2 0.193485 0.453299 0.584791
O O3 0.209783 0.504925 0.675497
O O4 0.292627 0.680062 0.557823
O O5 0.592454 0.120031 0.554060
O O6 0.635023 0.876911 0.515788
O O7 0.374820 0.946929 0.693119
O O8 0.147669 0.917438 0.156883
O O9 0.099391 0.732550 0.247137
O O10 0.590636 0.772431 0.441950
O O11 0.500000 0.000000 0.500000
O O12 0.575479 0.650514 0.368357
#
# Coordination Sequence:
#
# PCOD9261043 Si02
#       6
#     8   8   4   8   8   8
#     4  10  20  38  58  85 124 159 202 247 299 364
#     4  11  20  38  62  89 120 153 207 249 303 362
#     4  10  18  40  60  82 128 158 202 250 306 358
#     4   9  21  39  60  88 123 158 199 256 306 364
#     4  10  20  37  59  89 117 160 206 250 294 369
#     4   9  21  39  58  85 125 158 196 255 308 356
#
# _framework density 21.990886
#
# number of rings (size 3 to 8) (size 9 to 14) (size 15 to 20)
#    0.000    2.182    1.818    0.545    0.000    2.182 
#   19.636    0.000   16.000    0.000    0.000    0.000 
#    0.000    0.000    0.000    0.000    0.000    0.000 
#
# Total GULP energy -122473.146666 kJ/mol
# GULP energy per Si atom -5566.961212 kJ/mol
# Density = 2.194083 g / cm^3
# Si number density = 21.990886 Si / 1000 Ang^3
#
#
#
# Elastic Constant Matrix: (Units=GPa)
#
#
# Indices 1 2 3 4 5 6 
#
# 1 58.6958 -1.1522 22.0236 0.0000 14.2743 0.0000
# 2 -1.1522 51.3355 33.7231 0.0000 4.2008 0.0000
# 3 22.0236 33.7231 158.1723 0.0000 26.4967 0.0000
# 4 0.0000 0.0000 0.0000 41.1844 0.0000 -0.7255
# 5 14.2743 4.2008 26.4967 0.0000 32.3950 0.0000
# 6 0.0000 0.0000 0.0000 -0.7255 0.0000 20.0657
#
#
#
# Elastic Compliance Matrix: (Units=1/GPa)
#
#
# Indices 1 2 3 4 5 6 
#
# 1 0.019614 0.002358 -0.002010 0.000000 -0.007304 0.000000
# 2 0.002358 0.022974 -0.005276 0.000000 0.000297 0.000000
# 3 -0.002010 -0.005276 0.008649 0.000000 -0.005504 0.000000
# 4 0.000000 0.000000 0.000000 0.024297 0.000000 0.000879
# 5 -0.007304 0.000297 -0.005504 0.000000 0.038551 0.000000
# 6 0.000000 0.000000 0.000000 0.000879 0.000000 0.049868
#
#
# Mechanical properties :
#
#
# Convention : Reuss Voigt Hill
#
# Bulk Modulus (GPa) = 24.16566 41.93252 33.04909
# Shear Modulus (GPa) = 26.65199 32.96962 29.81081
#
# Velocity S-wave (km/s) = 3.48509 3.87620 3.68584
# Velocity P-wave (km/s) = 5.21606 6.25642 5.75978
#
# Compressibility (1/GPa) = 0.04138103
#
# Stress axis : x y z
#
# Youngs Moduli (GPa) = 50.98436 43.52652 115.61798
#
# Poissons Ratio (x) = -0.10266 0.23242
# Poissons Ratio (y) = -0.12025 0.61005
# Poissons Ratio (z) = 0.10249 0.22967
#
# Static dielectric constant tensor:
#      x y z
#    x 1.859280 0.000000 -0.041200 
#    y 0.000000 1.938510 0.000000 
#    z -0.041200 0.000000 1.899130 
# 
# From -- ./inp_files/151741.got.cif
#   From: 2010.05.17/outbox.cif.g08.bks.cpg/sg15_76_cif.got.tgz:151741.got - 2010.06.03 18:47:42.
