data_PCOD9261178
_publ_section_title
;
Structure prediction by ZEFSAII (Michael W. Deem and Ramdas Pophale) SiO2 
 PCOD9261178
Probable space group: C 2/C
;
_chemical_formula_sum "Si O2"
_cell_formula_units_Z 36
_cell_length_a 11.023825
_cell_length_b 11.373515
_cell_length_c 12.174965
_cell_angle_alpha 90.000000
_cell_angle_beta 102.418562
_cell_angle_gamma 90.000000
_cell_volume 1490.776847
_symmetry_space_group_name_H-M "C 2/C"
_symmetry_group_IT_number 15
_symmetry_cell_setting 'monoclinic'
loop_
_space_group_symop_operation_xyz
x,y,z
-x,y,1/2-z
-x,-y,-z
x,-y,1/2+z
1/2+x,1/2+y,z
1/2-x,1/2+y,1/2-z
1/2-x,1/2-y,-z
1/2+x,1/2-y,1/2+z
loop_
_atom_site_type_symbol
_atom_site_label
_atom_site_fract_x
_atom_site_fract_y
_atom_site_fract_z
Si Si1 0.430346 0.673633 0.003966
Si Si2 0.000000 0.167889 0.250000
Si Si3 0.784344 0.647328 0.717049
Si Si4 0.811799 0.132100 0.562901
Si Si5 0.609799 0.948880 0.446879
O O1 0.312519 0.661824 0.901311
O O2 0.549688 0.641062 0.955662
O O3 0.454314 0.609999 0.127100
O O4 0.414956 0.810221 0.036825
O O5 0.878781 0.245460 0.258729
O O6 0.704902 0.629960 0.809721
O O7 0.872677 0.545615 0.682659
O O8 0.750000 0.250000 0.500000
O O9 0.729691 0.020989 0.510178
O O10 0.500000 0.000000 0.500000
#
# Coordination Sequence:
#
# PCOD9261178 Si02
#       5
#     8   4   8   8   8
#     4  11  24  45  73 107 146 197 246 309 385 449
#     4  10  18  40  70  94 146 186 238 304 364 456
#     4  11  24  44  69 111 148 188 256 305 383 463
#     4  12  23  45  71 106 151 193 245 318 371 444
#     4  11  23  43  72 107 142 195 251 299 372 452
#
# _framework density 24.148485000000001
#
# number of rings (size 3 to 8) (size 9 to 14) (size 15 to 20)
#    0.000    0.889    4.444    4.667    0.000    2.667 
#    8.000    0.000    0.000    0.000    0.000    0.000 
#    0.000    0.000    0.000    0.000    0.000    0.000 
#
# Total GULP energy -100343.710897 kJ/mol
# GULP energy per Si atom -5574.650605 kJ/mol
# Density = 2.409352 g / cm^3
# Si number density = 24.148485 Si / 1000 Ang^3
#
#
#
# Elastic Constant Matrix: (Units=GPa)
#
#
# Indices 1 2 3 4 5 6 
#
# 1 202.4274 34.7333 71.0471 0.0000 -10.3874 0.0000
# 2 34.7333 80.4827 39.6821 0.0000 -4.0298 0.0000
# 3 71.0471 39.6821 194.1611 0.0000 -19.8031 0.0000
# 4 0.0000 0.0000 0.0000 19.9797 0.0000 -0.3192
# 5 -10.3874 -4.0298 -19.8031 0.0000 72.4489 0.0000
# 6 0.0000 0.0000 0.0000 -0.3192 0.0000 39.0382
#
#
#
# Elastic Compliance Matrix: (Units=1/GPa)
#
#
# Indices 1 2 3 4 5 6 
#
# 1 0.005860 -0.001637 -0.001783 0.000000 0.000262 0.000000
# 2 -0.001637 0.014275 -0.002326 0.000000 -0.000077 0.000000
# 3 -0.001783 -0.002326 0.006418 0.000000 0.001369 0.000000
# 4 0.000000 0.000000 0.000000 0.050057 0.000000 0.000409
# 5 0.000262 -0.000077 0.001369 0.000000 0.014210 0.000000
# 6 0.000000 0.000000 0.000000 0.000409 0.000000 0.025619
#
#
# Mechanical properties :
#
#
# Convention : Reuss Voigt Hill
#
# Bulk Modulus (GPa) = 66.39968 85.33291 75.86630
# Shear Modulus (GPa) = 37.60757 48.40061 43.00409
#
# Velocity S-wave (km/s) = 3.95060 4.48179 4.22455
# Velocity P-wave (km/s) = 6.95455 7.88640 7.43509
#
# Compressibility (1/GPa) = 0.01506031
#
# Stress axis : x y z
#
# Youngs Moduli (GPa) = 170.64415 70.05485 155.81347
#
# Poissons Ratio (x) = 0.11466 0.27783
# Poissons Ratio (y) = 0.27930 0.36247
# Poissons Ratio (z) = 0.30428 0.16297
#
# Static dielectric constant tensor:
#      x y z
#    x 2.032020 0.000000 0.002160 
#    y 0.000000 1.966590 0.000000 
#    z 0.002160 0.000000 1.977920 
# 
# From -- ./inp_files/84344.got.cif
#   From: 2010.05.17/outbox.cif.g08.bks.cpg/sg15_43_cif.got.tgz:84344.got - 2010.06.03 18:47:42.
