data_PCOD9261356
_publ_section_title
;
Structure prediction by ZEFSAII (Michael W. Deem and Ramdas Pophale) SiO2 
 PCOD9261356
Probable space group: C 2/C
;
_chemical_formula_sum "Si O2"
_cell_formula_units_Z 60
_cell_length_a 10.295308
_cell_length_b 9.333650
_cell_length_c 23.371807
_cell_angle_alpha 90.000000
_cell_angle_beta 63.582148
_cell_angle_gamma 90.000000
_cell_volume 2011.334139
_symmetry_space_group_name_H-M "C 2/C"
_symmetry_group_IT_number 15
_symmetry_cell_setting 'monoclinic'
loop_
_space_group_symop_operation_xyz
x,y,z
-x,y,1/2-z
-x,-y,-z
x,-y,1/2+z
1/2+x,1/2+y,z
1/2-x,1/2+y,1/2-z
1/2-x,1/2-y,-z
1/2+x,1/2-y,1/2+z
loop_
_atom_site_type_symbol
_atom_site_label
_atom_site_fract_x
_atom_site_fract_y
_atom_site_fract_z
Si Si1 0.890965 0.867257 0.652970
Si Si2 0.006045 0.389127 0.919860
Si Si3 0.907444 0.911601 0.316675
Si Si4 0.204686 0.424283 0.118100
Si Si5 0.282259 0.097640 0.549593
Si Si6 0.620331 0.641547 0.015976
Si Si7 0.199404 0.621064 0.285371
Si Si8 0.500000 0.908561 0.250000
O O1 0.801317 0.789218 0.721724
O O2 0.989289 0.982753 0.667471
O O3 0.989638 0.805478 0.582121
O O4 0.766952 0.952583 0.645031
O O5 0.904916 0.505742 0.906557
O O6 0.120513 0.476478 0.936790
O O7 0.094851 0.306459 0.853079
O O8 0.892881 0.319190 0.986674
O O9 0.803520 0.017517 0.301532
O O10 0.000000 0.830179 0.250000
O O11 0.808162 0.829293 0.382008
O O12 0.105500 0.331271 0.181892
O O13 0.352723 0.373175 0.057194
O O14 0.169124 0.009830 0.532932
O O15 0.750000 0.750000 0.000000
O O16 0.095757 0.513850 0.270718
#
# Coordination Sequence:
#
# PCOD9261356 Si02
#       8
#     8   8   8   8   8   8   8   4
#     4   9  16  26  41  62  84 116 150 186 226 269
#     4   8  13  23  41  64  82 104 139 191 228 256
#     4   8  13  21  35  57  89 112 136 176 225 267
#     4   9  16  27  45  65  87 112 146 188 230 270
#     4   8  14  24  39  59  82 111 147 179 220 266
#     4  10  19  29  42  59  90 126 148 178 225 277
#     4   8  13  22  38  62  87 109 134 186 233 266
#     4   8  14  24  42  64  88 108 138 184 230 266
#
# _framework density 29.830946000000001
#
# number of rings (size 3 to 8) (size 9 to 14) (size 15 to 20)
#    0.000    3.467    0.000    0.400    0.000    0.000 
#    0.000    0.000   14.667    0.800    0.000    0.000 
#    0.000    0.000   90.000    0.000    0.000    0.000 
#
# Total GULP energy -167853.179426 kJ/mol
# GULP energy per Si atom -5595.105981 kJ/mol
# Density = 2.976305 g / cm^3
# Si number density = 29.830946 Si / 1000 Ang^3
#
#
#
# Elastic Constant Matrix: (Units=GPa)
#
#
# Indices 1 2 3 4 5 6 
#
# 1 98.5524 53.8410 32.3862 0.0000 -13.2063 0.0000
# 2 53.8410 91.9915 45.7049 0.0000 -0.2387 0.0000
# 3 32.3862 45.7049 439.6772 0.0000 -72.8482 0.0000
# 4 0.0000 0.0000 0.0000 35.3556 0.0000 -14.7960
# 5 -13.2063 -0.2387 -72.8482 0.0000 73.7698 0.0000
# 6 0.0000 0.0000 0.0000 -14.7960 0.0000 35.1955
#
#
#
# Elastic Compliance Matrix: (Units=1/GPa)
#
#
# Indices 1 2 3 4 5 6 
#
# 1 0.015486 -0.009217 0.000325 0.000000 0.003063 0.000000
# 2 -0.009217 0.017064 -0.001625 0.000000 -0.003200 0.000000
# 3 0.000325 -0.001625 0.002903 0.000000 0.002920 0.000000
# 4 0.000000 0.000000 0.000000 0.034323 0.000000 0.014429
# 5 0.003063 -0.003200 0.002920 0.000000 0.016977 0.000000
# 6 0.000000 0.000000 0.000000 0.014429 0.000000 0.034479
#
#
# Mechanical properties :
#
#
# Convention : Reuss Voigt Hill
#
# Bulk Modulus (GPa) = 69.35284 99.34282 84.34783
# Shear Modulus (GPa) = 33.99670 62.08343 48.04007
#
# Velocity S-wave (km/s) = 3.37953 4.56694 4.01735
# Velocity P-wave (km/s) = 6.20704 7.82199 7.06084
#
# Compressibility (1/GPa) = 0.01441902
#
# Stress axis : x y z
#
# Youngs Moduli (GPa) = 64.57362 58.60148 344.45327
#
# Poissons Ratio (x) = 0.54015 -0.11196
# Poissons Ratio (y) = 0.59520 0.55976
# Poissons Ratio (z) = -0.02099 0.09523
#
# Static dielectric constant tensor:
#      x y z
#    x 2.345830 0.000000 -0.109990 
#    y 0.000000 2.410520 0.000000 
#    z -0.109990 0.000000 2.816240 
# 
# From -- ./inp_files/239337.got.cif
#   From: 2010.05.17/outbox.cif.g08.bks.cpg/sg15_120_cif.got.tgz:239337.got - 2010.06.03 18:47:42.
