data_PCOD9261322
_publ_section_title
;
Structure prediction by ZEFSAII (Michael W. Deem and Ramdas Pophale) SiO2 
 PCOD9261322
Probable space group: C 2/C
;
_chemical_formula_sum "Si O2"
_cell_formula_units_Z 48
_cell_length_a 14.424016
_cell_length_b 16.125040
_cell_length_c 13.641754
_cell_angle_alpha 90.000000
_cell_angle_beta 45.916975
_cell_angle_gamma 90.000000
_cell_volume 2279.201342
_symmetry_space_group_name_H-M "C 2/C"
_symmetry_group_IT_number 15
_symmetry_cell_setting 'monoclinic'
loop_
_space_group_symop_operation_xyz
x,y,z
-x,y,1/2-z
-x,-y,-z
x,-y,1/2+z
1/2+x,1/2+y,z
1/2-x,1/2+y,1/2-z
1/2-x,1/2-y,-z
1/2+x,1/2-y,1/2+z
loop_
_atom_site_type_symbol
_atom_site_label
_atom_site_fract_x
_atom_site_fract_y
_atom_site_fract_z
Si Si1 0.559020 0.697167 0.989854
Si Si2 0.855950 0.025745 0.573288
Si Si3 0.226785 0.145330 0.358443
Si Si4 0.636232 0.696508 0.702615
Si Si5 0.908054 0.619439 0.037772
Si Si6 0.687297 0.051353 0.893205
O O1 0.626863 0.616246 0.988102
O O2 0.608223 0.697379 0.840703
O O3 0.587482 0.788453 0.012006
O O4 0.406115 0.679644 0.091934
O O5 0.767867 0.035793 0.734287
O O6 0.198042 0.058587 0.433602
O O7 0.000000 0.000000 0.500000
O O8 0.290614 0.218117 0.373164
O O9 0.325949 0.128461 0.197431
O O10 0.500000 0.690962 0.750000
O O11 0.726290 0.618296 0.615642
O O12 0.846084 0.537575 0.033104
O O13 0.052754 0.593865 0.961369
#
# Coordination Sequence:
#
# PCOD9261322 Si02
#       6
#     8   8   8   8   8   8
#     4   9  16  28  43  63  85 111 144 179 218 256
#     4   8  15  26  44  60  82 108 138 183 217 249
#     4   9  16  28  39  60  86 111 144 175 215 258
#     4  10  19  28  41  61  90 123 145 169 208 264
#     4   9  16  26  44  61  83 110 140 185 222 247
#     4   9  16  28  41  60  85 112 144 176 213 256
#
# _framework density 21.060009000000001
#
# number of rings (size 3 to 8) (size 9 to 14) (size 15 to 20)
#    0.000    3.000    1.667    0.000    0.000    0.667 
#    0.000    0.000    0.000    0.000    0.000    1.167 
#    0.000   45.333    0.000    0.000    0.000    0.000 
#
# Total GULP energy -133640.075581 kJ/mol
# GULP energy per Si atom -5568.336483 kJ/mol
# Density = 2.101208 g / cm^3
# Si number density = 21.060009 Si / 1000 Ang^3
#
#
#
# Elastic Constant Matrix: (Units=GPa)
#
#
# Indices 1 2 3 4 5 6 
#
# 1 31.6286 49.0767 17.8432 0.0000 -15.8021 0.0000
# 2 49.0767 255.8182 46.8952 0.0000 -46.1381 0.0000
# 3 17.8432 46.8952 116.6757 0.0000 -23.5798 0.0000
# 4 0.0000 0.0000 0.0000 35.4708 0.0000 -17.1935
# 5 -15.8021 -46.1381 -23.5798 0.0000 26.7218 0.0000
# 6 0.0000 0.0000 0.0000 -17.1935 0.0000 13.9879
#
#
#
# Elastic Compliance Matrix: (Units=1/GPa)
#
#
# Indices 1 2 3 4 5 6 
#
# 1 0.051321 -0.006290 -0.001682 0.000000 0.018005 0.000000
# 2 -0.006290 0.006461 -0.000161 0.000000 0.007293 0.000000
# 3 -0.001682 -0.000161 0.010510 0.000000 0.008002 0.000000
# 4 0.000000 0.000000 0.000000 0.069749 0.000000 0.085732
# 5 0.018005 0.007293 0.008002 0.000000 0.067724 0.000000
# 6 0.000000 0.000000 0.000000 0.085732 0.000000 0.176870
#
#
# Mechanical properties :
#
#
# Convention : Reuss Voigt Hill
#
# Bulk Modulus (GPa) = 19.22110 70.19475 44.70793
# Shear Modulus (GPa) = 12.01230 34.58994 23.30112
#
# Velocity S-wave (km/s) = 2.39086 4.05711 3.32989
# Velocity P-wave (km/s) = 4.09491 7.43976 6.00493
#
# Compressibility (1/GPa) = 0.05202615
#
# Stress axis : x y z
#
# Youngs Moduli (GPa) = 19.48525 154.78450 95.14994
#
# Poissons Ratio (x) = 0.97360 0.16002
# Poissons Ratio (y) = 0.12256 0.01530
# Poissons Ratio (z) = 0.03277 0.02489
#
# Static dielectric constant tensor:
#      x y z
#    x 1.695110 0.000000 0.003500 
#    y 0.000000 1.890020 0.000000 
#    z 0.003500 0.000000 1.737120 
# 
# From -- ./inp_files/280123.got.cif
#   From: 2010.05.17/outbox.cif.g08.bks.cpg/sg15_141_cif.got.tgz:280123.got - 2010.06.03 18:47:42.
