data_PCOD9261053
_publ_section_title
;
Structure prediction by ZEFSAII (Michael W. Deem and Ramdas Pophale) SiO2 
 PCOD9261053
Probable space group: C 2/C
;
_chemical_formula_sum "Si O2"
_cell_formula_units_Z 44
_cell_length_a 10.080332
_cell_length_b 30.660386
_cell_length_c 9.226538
_cell_angle_alpha 90.000000
_cell_angle_beta 121.571467
_cell_angle_gamma 90.000000
_cell_volume 2429.543000
_symmetry_space_group_name_H-M "C 2/C"
_symmetry_group_IT_number 15
_symmetry_cell_setting 'monoclinic'
loop_
_space_group_symop_operation_xyz
x,y,z
-x,y,1/2-z
-x,-y,-z
x,-y,1/2+z
1/2+x,1/2+y,z
1/2-x,1/2+y,1/2-z
1/2-x,1/2-y,-z
1/2+x,1/2-y,1/2+z
loop_
_atom_site_type_symbol
_atom_site_label
_atom_site_fract_x
_atom_site_fract_y
_atom_site_fract_z
Si Si1 0.868480 0.639890 0.796285
Si Si2 0.000000 0.490102 0.750000
Si Si3 0.586593 0.938088 0.524348
Si Si4 0.771180 0.724406 0.363197
Si Si5 0.379864 0.229225 0.969735
Si Si6 0.672011 0.632425 0.412994
O O1 0.850371 0.679109 0.901043
O O2 0.712122 0.634667 0.608928
O O3 0.000000 0.652315 0.750000
O O4 0.940344 0.595121 0.906056
O O5 0.081826 0.458879 0.680387
O O6 0.909918 0.523373 0.592356
O O7 0.738743 0.909785 0.590437
O O8 0.750000 0.750000 0.500000
O O9 0.637160 0.741423 0.182873
O O10 0.754510 0.674052 0.388681
O O11 0.939042 0.732367 0.385290
O O12 0.250000 0.250000 0.000000
O O13 0.500000 0.632640 0.250000
#
# Coordination Sequence:
#
# PCOD9261053 Si02
#       6
#     8   4   8   8   8   8
#     4  10  18  40  61  81 118 169 205 248 307 375
#     4  10  20  36  70  98 114 154 206 254 314 386
#     4  10  20  39  66  92 122 157 202 256 310 377
#     4  12  22  39  60  82 114 168 214 249 287 371
#     4  12  24  37  56  88 122 155 206 264 306 342
#     4  11  21  37  63  88 117 165 214 246 304 371
#
# _framework density 18.110401
#
# number of rings (size 3 to 8) (size 9 to 14) (size 15 to 20)
#    0.000    1.091    8.182    2.182    0.000    1.455 
#    0.000    0.909    0.000    0.000    0.000    0.000 
#    0.000    0.000    0.000    0.000    0.000    0.000 
#
# Total GULP energy -122556.034451 kJ/mol
# GULP energy per Si atom -5570.728839 kJ/mol
# Density = 1.806918 g / cm^3
# Si number density = 18.110401 Si / 1000 Ang^3
#
#
#
# Elastic Constant Matrix: (Units=GPa)
#
#
# Indices 1 2 3 4 5 6 
#
# 1 81.5215 35.7454 32.6496 0.0000 1.2077 0.0000
# 2 35.7454 84.6094 15.4573 0.0000 -9.1131 0.0000
# 3 32.6496 15.4573 85.9025 0.0000 9.1410 0.0000
# 4 0.0000 0.0000 0.0000 20.9997 0.0000 -12.5310
# 5 1.2077 -9.1131 9.1410 0.0000 38.7247 0.0000
# 6 0.0000 0.0000 0.0000 -12.5310 0.0000 29.7311
#
#
#
# Elastic Compliance Matrix: (Units=1/GPa)
#
#
# Indices 1 2 3 4 5 6 
#
# 1 0.017202 -0.006383 -0.005306 0.000000 -0.000786 0.000000
# 2 -0.006383 0.015065 -0.000701 0.000000 0.003910 0.000000
# 3 -0.005306 -0.000701 0.014139 0.000000 -0.003337 0.000000
# 4 0.000000 0.000000 0.000000 0.063621 0.000000 0.026815
# 5 -0.000786 0.003910 -0.003337 0.000000 0.027556 0.000000
# 6 0.000000 0.000000 0.000000 0.026815 0.000000 0.044937
#
#
# Mechanical properties :
#
#
# Convention : Reuss Voigt Hill
#
# Bulk Modulus (GPa) = 46.23927 46.63758 46.43842
# Shear Modulus (GPa) = 23.30930 29.10318 26.20624
#
# Velocity S-wave (km/s) = 3.59146 4.01307 3.80811
# Velocity P-wave (km/s) = 6.54106 6.87610 6.71067
#
# Compressibility (1/GPa) = 0.02162664
#
# Stress axis : x y z
#
# Youngs Moduli (GPa) = 58.13239 66.38031 70.72647
#
# Poissons Ratio (x) = 0.42369 0.37527
# Poissons Ratio (y) = 0.37105 0.04957
# Poissons Ratio (z) = 0.30845 0.04652
#
# Static dielectric constant tensor:
#      x y z
#    x 1.618650 0.000000 -0.039890 
#    y 0.000000 1.668100 0.000000 
#    z -0.039890 0.000000 1.312630 
# 
# From -- ./inp_files/26248.got.cif
#   From: 2010.05.17/outbox.cif.g08.bks.cpg/sg15_14_cif.got.tgz:26248.got - 2010.06.03 18:47:42.
