data_PCOD9261203
_publ_section_title
;
Structure prediction by ZEFSAII (Michael W. Deem and Ramdas Pophale) SiO2 
 PCOD9261203
Probable space group: C 2/C
;
_chemical_formula_sum "Si O2"
_cell_formula_units_Z 64
_cell_length_a 10.809743
_cell_length_b 21.646255
_cell_length_c 19.136480
_cell_angle_alpha 90.000000
_cell_angle_beta 132.914748
_cell_angle_gamma 90.000000
_cell_volume 3279.361933
_symmetry_space_group_name_H-M "C 2/C"
_symmetry_group_IT_number 15
_symmetry_cell_setting 'monoclinic'
loop_
_space_group_symop_operation_xyz
x,y,z
-x,y,1/2-z
-x,-y,-z
x,-y,1/2+z
1/2+x,1/2+y,z
1/2-x,1/2+y,1/2-z
1/2-x,1/2-y,-z
1/2+x,1/2-y,1/2+z
loop_
_atom_site_type_symbol
_atom_site_label
_atom_site_fract_x
_atom_site_fract_y
_atom_site_fract_z
Si Si1 0.006813 0.423027 0.929204
Si Si2 0.655599 0.145417 0.259489
Si Si3 0.487012 0.583561 0.438766
Si Si4 0.847039 0.209195 0.765330
Si Si5 0.601779 0.122511 0.718879
Si Si6 0.356066 0.941607 0.021472
Si Si7 0.058977 0.053520 0.624646
Si Si8 0.332444 0.360735 0.110592
O O1 0.885297 0.393235 0.825456
O O2 0.100134 0.486883 0.940818
O O3 0.895737 0.438413 0.954730
O O4 0.151880 0.372996 0.006287
O O5 0.500000 0.127551 0.250000
O O6 0.643398 0.218877 0.244170
O O7 0.841681 0.130692 0.360298
O O8 0.673073 0.582770 0.475357
O O9 0.506274 0.584067 0.530135
O O10 0.422295 0.517246 0.387654
O O11 0.685378 0.190028 0.747939
O O12 0.820132 0.168286 0.683577
O O13 0.024505 0.185296 0.866106
O O14 0.500000 0.113559 0.750000
O O15 0.487011 0.103164 0.610514
O O16 0.762406 0.078067 0.782104
O O17 0.925391 0.073121 0.633177
#
# Coordination Sequence:
#
# PCOD9261203 Si02
#       8
#     8   8   8   8   8   8   8   8
#     4  11  24  41  68  95 133 170 216 274 333 390
#     4  12  26  45  64  95 132 176 220 270 322 388
#     4  11  23  40  60  97 137 163 212 267 330 402
#     4  10  23  43  64  93 127 169 227 270 310 389
#     4  11  21  40  66  93 126 168 217 267 325 392
#     4  11  23  42  63 100 131 170 218 265 336 405
#     4  10  21  36  66  96 125 167 206 272 334 381
#     4  10  18  41  65  93 122 163 217 274 313 375
#
# _framework density 19.515992000000001
#
# number of rings (size 3 to 8) (size 9 to 14) (size 15 to 20)
#    0.000    1.250    5.000    1.500    1.750    2.000 
#    6.750    0.625    0.000    0.000    0.000    0.000 
#    0.000    0.000    0.000    0.000    0.000    0.000 
#
# Total GULP energy -178386.084073 kJ/mol
# GULP energy per Si atom -5574.565127 kJ/mol
# Density = 1.947157 g / cm^3
# Si number density = 19.515992 Si / 1000 Ang^3
#
#
#
# Elastic Constant Matrix: (Units=GPa)
#
#
# Indices 1 2 3 4 5 6 
#
# 1 48.6599 17.3288 11.8807 0.0000 9.1512 0.0000
# 2 17.3288 71.7853 29.9916 0.0000 5.1578 0.0000
# 3 11.8807 29.9916 55.9081 0.0000 16.2071 0.0000
# 4 0.0000 0.0000 0.0000 16.9594 0.0000 -0.9054
# 5 9.1512 5.1578 16.2071 0.0000 30.3242 0.0000
# 6 0.0000 0.0000 0.0000 -0.9054 0.0000 18.5092
#
#
#
# Elastic Compliance Matrix: (Units=1/GPa)
#
#
# Indices 1 2 3 4 5 6 
#
# 1 0.023604 -0.005021 -0.000598 0.000000 -0.005950 0.000000
# 2 -0.005021 0.019181 -0.010314 0.000000 0.003765 0.000000
# 3 -0.000598 -0.010314 0.027200 0.000000 -0.012602 0.000000
# 4 0.000000 0.000000 0.000000 0.059119 0.000000 0.002892
# 5 -0.005950 0.003765 -0.012602 0.000000 0.040867 0.000000
# 6 0.000000 0.000000 0.000000 0.002892 0.000000 0.054169
#
#
# Mechanical properties :
#
#
# Convention : Reuss Voigt Hill
#
# Bulk Modulus (GPa) = 26.23347 32.75061 29.49204
# Shear Modulus (GPa) = 18.60733 20.96870 19.78802
#
# Velocity S-wave (km/s) = 3.09113 3.28142 3.18769
# Velocity P-wave (km/s) = 5.11970 5.58344 5.35659
#
# Compressibility (1/GPa) = 0.03811924
#
# Stress axis : x y z
#
# Youngs Moduli (GPa) = 42.36639 52.13466 36.76493
#
# Poissons Ratio (x) = 0.26175 0.02198
# Poissons Ratio (y) = 0.21270 0.37920
# Poissons Ratio (z) = 0.02533 0.53773
#
# Static dielectric constant tensor:
#      x y z
#    x 1.728730 0.000000 0.000460 
#    y 0.000000 1.697010 0.000000 
#    z 0.000460 0.000000 1.683400 
# 
# From -- ./inp_files/240441.got.cif
#   From: 2010.05.17/outbox.cif.g08.bks.cpg/sg15_121_cif.got.tgz:240441.got - 2010.06.03 18:47:42.
