data_PCOD9261510
_publ_section_title
;
Structure prediction by ZEFSAII (Michael W. Deem and Ramdas Pophale) SiO2 
 PCOD9261510
Probable space group: C 2/C
;
_chemical_formula_sum "Si O2"
_cell_formula_units_Z 48
_cell_length_a 5.057517
_cell_length_b 23.772140
_cell_length_c 24.536155
_cell_angle_alpha 90.000000
_cell_angle_beta 116.219025
_cell_angle_gamma 90.000000
_cell_volume 2646.419371
_symmetry_space_group_name_H-M "C 2/C"
_symmetry_group_IT_number 15
_symmetry_cell_setting 'monoclinic'
loop_
_space_group_symop_operation_xyz
x,y,z
-x,y,1/2-z
-x,-y,-z
x,-y,1/2+z
1/2+x,1/2+y,z
1/2-x,1/2+y,1/2-z
1/2-x,1/2-y,-z
1/2+x,1/2-y,1/2+z
loop_
_atom_site_type_symbol
_atom_site_label
_atom_site_fract_x
_atom_site_fract_y
_atom_site_fract_z
Si Si1 0.155174 0.952860 0.206644
Si Si2 0.658173 0.416847 0.706434
Si Si3 0.004587 0.857305 0.917703
Si Si4 0.737410 0.549884 0.516805
Si Si5 0.881733 0.311297 0.520007
Si Si6 0.363875 0.592644 0.577102
O O1 0.500000 0.943891 0.250000
O O2 0.000000 0.947388 0.250000
O O3 0.001048 0.912263 0.149178
O O4 0.108617 0.018046 0.183626
O O5 0.500000 0.407930 0.750000
O O6 0.578910 0.374089 0.651015
O O7 0.000000 0.411849 0.750000
O O8 0.748024 0.838962 0.936110
O O9 0.265796 0.811911 0.943805
O O10 0.146251 0.913478 0.956628
O O11 0.500000 0.500000 0.500000
O O12 0.641694 0.583206 0.562545
O O13 0.093407 0.546698 0.548842
O O14 0.750000 0.250000 0.500000
O O15 0.784914 0.350887 0.460273
#
# Coordination Sequence:
#
# PCOD9261510 Si02
#       6
#     8   8   8   8   8   8
#     4  10  20  33  51  75 107 145 176 205 249 314
#     4  10  20  33  51  76 108 143 172 202 248 314
#     4  10  20  34  54  78 104 136 174 216 267 321
#     4  10  19  30  49  77 107 133 164 213 266 318
#     4  10  21  37  57  79 101 134 177 229 280 313
#     4  10  20  33  51  75 103 137 175 215 262 314
#
# _framework density 18.137715
#
# number of rings (size 3 to 8) (size 9 to 14) (size 15 to 20)
#    0.000    2.000    0.000    4.000    0.000    5.333 
#    0.000    0.000    0.000    6.000    0.000    0.000 
#    0.000    0.000    0.000    0.000    0.000    0.000 
#
# Total GULP energy -133737.545894 kJ/mol
# GULP energy per Si atom -5572.397746 kJ/mol
# Density = 1.809643 g / cm^3
# Si number density = 18.137715 Si / 1000 Ang^3
#
#
#
# Elastic Constant Matrix: (Units=GPa)
#
#
# Indices 1 2 3 4 5 6 
#
# 1 107.2730 3.2963 25.6516 0.0000 4.4270 0.0000
# 2 3.2963 58.8006 33.8413 0.0000 -0.2144 0.0000
# 3 25.6516 33.8413 96.5878 0.0000 -6.8066 0.0000
# 4 0.0000 0.0000 0.0000 16.1776 0.0000 2.7444
# 5 4.4270 -0.2144 -6.8066 0.0000 4.0513 0.0000
# 6 0.0000 0.0000 0.0000 2.7444 0.0000 24.7908
#
#
#
# Elastic Compliance Matrix: (Units=1/GPa)
#
#
# Indices 1 2 3 4 5 6 
#
# 1 0.011415 0.002372 -0.005368 0.000000 -0.021367 0.000000
# 2 0.002372 0.022411 -0.009733 0.000000 -0.017759 0.000000
# 3 -0.005368 -0.009733 0.017657 0.000000 0.035017 0.000000
# 4 0.000000 0.000000 0.000000 0.062997 0.000000 -0.006974
# 5 -0.021367 -0.017759 0.035017 0.000000 0.328077 0.000000
# 6 0.000000 0.000000 0.000000 -0.006974 0.000000 0.041109
#
#
# Mechanical properties :
#
#
# Convention : Reuss Voigt Hill
#
# Bulk Modulus (GPa) = 38.42825 43.13777 40.78301
# Shear Modulus (GPa) = 9.65626 22.32877 15.99251
#
# Velocity S-wave (km/s) = 2.30985 3.51246 2.97261
# Velocity P-wave (km/s) = 5.32417 6.34704 5.85798
#
# Compressibility (1/GPa) = 0.02602252
#
# Stress axis : x y z
#
# Youngs Moduli (GPa) = 87.60741 44.62137 56.63512
#
# Poissons Ratio (x) = -0.10583 0.30403
# Poissons Ratio (y) = -0.20778 0.55125
# Poissons Ratio (z) = 0.47029 0.43432
#
# Static dielectric constant tensor:
#      x y z
#    x 1.634430 0.000000 0.002830 
#    y 0.000000 1.694630 0.000000 
#    z 0.002830 0.000000 1.594430 
# 
# From -- ./inp_files/185292.got.cif
#   From: 2010.05.17/outbox.cif.g08.bks.cpg/sg15_93_cif.got.tgz:185292.got - 2010.06.03 18:47:42.
