data_PCOD9261034
_publ_section_title
;
Structure prediction by ZEFSAII (Michael W. Deem and Ramdas Pophale) SiO2 
 PCOD9261034
Probable space group: C 2/C
;
_chemical_formula_sum "Si O2"
_cell_formula_units_Z 44
_cell_length_a 11.874409
_cell_length_b 13.403500
_cell_length_c 14.167733
_cell_angle_alpha 90.000000
_cell_angle_beta 62.993974
_cell_angle_gamma 90.000000
_cell_volume 2009.038197
_symmetry_space_group_name_H-M "C 2/C"
_symmetry_group_IT_number 15
_symmetry_cell_setting 'monoclinic'
loop_
_space_group_symop_operation_xyz
x,y,z
-x,y,1/2-z
-x,-y,-z
x,-y,1/2+z
1/2+x,1/2+y,z
1/2-x,1/2+y,1/2-z
1/2-x,1/2-y,-z
1/2+x,1/2-y,1/2+z
loop_
_atom_site_type_symbol
_atom_site_label
_atom_site_fract_x
_atom_site_fract_y
_atom_site_fract_z
Si Si1 0.245290 0.376210 0.292069
Si Si2 0.224599 0.412402 0.795094
Si Si3 0.120427 0.241501 0.603261
Si Si4 0.382253 0.290973 0.077172
Si Si5 0.540931 0.719406 0.342861
Si Si6 0.500000 0.919219 0.750000
O O1 0.259293 0.484877 0.332426
O O2 0.347298 0.309146 0.309640
O O3 0.285734 0.364707 0.166728
O O4 0.111052 0.320001 0.352465
O O5 0.168020 0.320749 0.877333
O O6 0.348028 0.364654 0.698008
O O7 0.118089 0.458993 0.764626
O O8 0.250000 0.250000 0.500000
O O9 0.069070 0.349913 0.647392
O O10 0.016291 0.190935 0.577986
O O11 0.419106 0.301467 0.954052
O O12 0.500000 0.730213 0.250000
#
# Coordination Sequence:
#
# PCOD9261034 Si02
#       6
#     8   8   8   8   8   4
#     4  11  22  38  63  98 122 161 210 258 312 374
#     4  10  23  39  62  97 125 157 219 252 307 376
#     4  11  17  36  65  88 117 159 208 251 308 364
#     4  10  21  42  66  85 130 171 202 266 309 362
#     4  11  24  43  61  88 131 170 204 251 323 379
#     4  10  18  40  58  86 122 160 200 256 296 374
#
# _framework density 21.901029000000001
#
# number of rings (size 3 to 8) (size 9 to 14) (size 15 to 20)
#    0.000    1.455    7.273    0.000    1.273    5.818 
#    0.000    3.636    0.000    0.000    0.000    0.000 
#    0.000    0.000    0.000    0.000    0.000    0.000 
#
# Total GULP energy -122587.829036 kJ/mol
# GULP energy per Si atom -5572.174047 kJ/mol
# Density = 2.185118 g / cm^3
# Si number density = 21.901029 Si / 1000 Ang^3
#
#
#
# Elastic Constant Matrix: (Units=GPa)
#
#
# Indices 1 2 3 4 5 6 
#
# 1 45.6935 15.7096 15.0264 0.0000 -4.4875 0.0000
# 2 15.7096 80.6278 6.3195 0.0000 -12.9377 0.0000
# 3 15.0264 6.3195 125.8986 0.0000 -10.3150 0.0000
# 4 0.0000 0.0000 0.0000 3.3810 0.0000 -5.0845
# 5 -4.4875 -12.9377 -10.3150 0.0000 39.7439 0.0000
# 6 0.0000 0.0000 0.0000 -5.0845 0.0000 2.7838
#
#
#
# Elastic Compliance Matrix: (Units=1/GPa)
#
#
# Indices 1 2 3 4 5 6 
#
# 1 0.024336 -0.004436 -0.002631 0.000000 0.000621 0.000000
# 2 -0.004436 0.013907 0.000165 0.000000 0.004069 0.000000
# 3 -0.002631 0.000165 0.008407 0.000000 0.001939 0.000000
# 4 0.000000 0.000000 0.000000 -0.169326 0.000000 -0.309268
# 5 0.000621 0.004069 0.001939 0.000000 0.027059 0.000000
# 6 0.000000 0.000000 0.000000 -0.309268 0.000000 -0.205648
#
#
# Mechanical properties :
#
#
# Convention : Reuss Voigt Hill
#
# Bulk Modulus (GPa) = 30.44481 36.25902 33.35192
# Shear Modulus (GPa) = -18.08242 23.52603 2.72180
#
# Velocity S-wave (km/s) = -2.87652 3.28105 1.11601
# Velocity P-wave (km/s) = 1.70259 5.56287 4.11366
#
# Compressibility (1/GPa) = 0.03284632
#
# Stress axis : x y z
#
# Youngs Moduli (GPa) = 41.09101 71.90651 118.94160
#
# Poissons Ratio (x) = 0.31897 0.31294
# Poissons Ratio (y) = 0.18227 -0.01959
# Poissons Ratio (z) = 0.10811 -0.01185
#
# Static dielectric constant tensor:
#      x y z
#    x 1.743120 0.000000 -0.125190 
#    y 0.000000 1.810940 0.000000 
#    z -0.125190 0.000000 1.748880 
# 
# From -- ./inp_files/143368.got.cif
#   From: 2010.05.17/outbox.cif.g08.bks.cpg/sg15_72_cif.got.tgz:143368.got - 2010.06.03 18:47:42.
