data_PCOD9261339
_publ_section_title
;
Structure prediction by ZEFSAII (Michael W. Deem and Ramdas Pophale) SiO2 
 PCOD9261339
Probable space group: C 2/C
;
_chemical_formula_sum "Si O2"
_cell_formula_units_Z 64
_cell_length_a 15.536142
_cell_length_b 18.837388
_cell_length_c 12.406960
_cell_angle_alpha 90.000000
_cell_angle_beta 107.968203
_cell_angle_gamma 90.000000
_cell_volume 3453.932215
_symmetry_space_group_name_H-M "C 2/C"
_symmetry_group_IT_number 15
_symmetry_cell_setting 'monoclinic'
loop_
_space_group_symop_operation_xyz
x,y,z
-x,y,1/2-z
-x,-y,-z
x,-y,1/2+z
1/2+x,1/2+y,z
1/2-x,1/2+y,1/2-z
1/2-x,1/2-y,-z
1/2+x,1/2-y,1/2+z
loop_
_atom_site_type_symbol
_atom_site_label
_atom_site_fract_x
_atom_site_fract_y
_atom_site_fract_z
Si Si1 0.599334 0.096919 0.340088
Si Si2 0.384545 0.986475 0.329616
Si Si3 0.480459 0.253987 0.429503
Si Si4 0.144177 0.748067 0.333584
Si Si5 0.565608 0.514765 0.871378
Si Si6 0.210553 0.892344 0.299940
Si Si7 0.418105 0.600312 0.952685
Si Si8 0.012945 0.597099 0.996474
O O1 0.500000 0.117024 0.250000
O O2 0.665314 0.164145 0.350896
O O3 0.570884 0.085750 0.451648
O O4 0.629096 0.027445 0.288135
O O5 0.301455 0.936394 0.324026
O O6 0.474865 0.937983 0.373712
O O7 0.405642 0.051242 0.421307
O O8 0.579157 0.261524 0.411777
O O9 0.415168 0.253978 0.299119
O O10 0.452981 0.320850 0.490400
O O11 0.470372 0.180456 0.489452
O O12 0.215925 0.811514 0.347163
O O13 0.500000 0.488947 0.750000
O O14 0.642386 0.564564 0.851055
O O15 0.500961 0.562490 0.921620
O O16 0.603214 0.449378 0.954693
O O17 0.163133 0.893077 0.164053
#
# Coordination Sequence:
#
# PCOD9261339 Si02
#       8
#     8   8   8   8   8   8   8   8
#     4   9  15  30  52  73  93 127 173 213 249 297
#     4  10  19  31  47  76 103 131 167 206 265 302
#     4   9  13  27  52  74  91 123 170 209 252 299
#     4   9  13  26  49  75  95 118 158 216 254 292
#     4   9  17  31  49  73 102 135 166 199 243 307
#     4  10  19  28  48  77 106 127 159 214 255 301
#     4   9  17  29  53  74  97 135 171 197 248 306
#     4   9  18  32  53  73  96 131 175 218 250 298
#
# _framework density 18.529605
#
# number of rings (size 3 to 8) (size 9 to 14) (size 15 to 20)
#    0.000    2.750    5.000    0.000    0.000    1.000 
#    0.000    2.500    8.250    4.500    0.000    0.000 
#    0.000    0.000    0.000    0.000    0.000    0.000 
#
# Total GULP energy -178143.520279 kJ/mol
# GULP energy per Si atom -5566.985009 kJ/mol
# Density = 1.848743 g / cm^3
# Si number density = 18.529605 Si / 1000 Ang^3
#
#
#
# Elastic Constant Matrix: (Units=GPa)
#
#
# Indices 1 2 3 4 5 6 
#
# 1 42.0213 32.7215 5.7552 0.0000 5.5461 0.0000
# 2 32.7215 148.7427 38.5200 0.0000 4.6570 0.0000
# 3 5.7552 38.5200 39.1905 0.0000 -3.6666 0.0000
# 4 0.0000 0.0000 0.0000 14.4481 0.0000 -3.4449
# 5 5.5461 4.6570 -3.6666 0.0000 10.1202 0.0000
# 6 0.0000 0.0000 0.0000 -3.4449 0.0000 34.1733
#
#
#
# Elastic Compliance Matrix: (Units=1/GPa)
#
#
# Indices 1 2 3 4 5 6 
#
# 1 0.030522 -0.006440 0.000580 0.000000 -0.013553 0.000000
# 2 -0.006440 0.010983 -0.010343 0.000000 -0.005272 0.000000
# 3 0.000580 -0.010343 0.037276 0.000000 0.017947 0.000000
# 4 0.000000 0.000000 0.000000 0.070918 0.000000 0.007149
# 5 -0.013553 -0.005272 0.017947 0.000000 0.115167 0.000000
# 6 0.000000 0.000000 0.000000 0.007149 0.000000 0.029983
#
#
# Mechanical properties :
#
#
# Convention : Reuss Voigt Hill
#
# Bulk Modulus (GPa) = 21.56345 42.66087 32.11216
# Shear Modulus (GPa) = 14.58938 21.94550 18.26744
#
# Velocity S-wave (km/s) = 2.80903 3.44517 3.14323
# Velocity P-wave (km/s) = 4.70993 6.23688 5.52639
#
# Compressibility (1/GPa) = 0.04637477
#
# Stress axis : x y z
#
# Youngs Moduli (GPa) = 32.76353 91.04687 26.82670
#
# Poissons Ratio (x) = 0.58636 -0.01555
# Poissons Ratio (y) = 0.21100 0.27747
# Poissons Ratio (z) = -0.01900 0.94169
#
# Static dielectric constant tensor:
#      x y z
#    x 1.637080 0.000000 0.017690 
#    y 0.000000 1.683210 0.000000 
#    z 0.017690 0.000000 1.704900 
# 
# From -- ./inp_files/154886.got.cif
#   From: 2010.05.17/outbox.cif.g08.bks.cpg/sg15_78_cif.got.tgz:154886.got - 2010.06.03 18:47:42.
