data_PCOD9261389
_publ_section_title
;
Structure prediction by ZEFSAII (Michael W. Deem and Ramdas Pophale) SiO2 
 PCOD9261389
Probable space group: C 2/C
;
_chemical_formula_sum "Si O2"
_cell_formula_units_Z 48
_cell_length_a 20.676169
_cell_length_b 6.789860
_cell_length_c 15.193004
_cell_angle_alpha 90.000000
_cell_angle_beta 117.928603
_cell_angle_gamma 90.000000
_cell_volume 1884.502813
_symmetry_space_group_name_H-M "C 2/C"
_symmetry_group_IT_number 15
_symmetry_cell_setting 'monoclinic'
loop_
_space_group_symop_operation_xyz
x,y,z
-x,y,1/2-z
-x,-y,-z
x,-y,1/2+z
1/2+x,1/2+y,z
1/2-x,1/2+y,1/2-z
1/2-x,1/2-y,-z
1/2+x,1/2-y,1/2+z
loop_
_atom_site_type_symbol
_atom_site_label
_atom_site_fract_x
_atom_site_fract_y
_atom_site_fract_z
Si Si1 0.418560 0.780364 0.974277
Si Si2 0.805001 0.371127 0.777758
Si Si3 0.920565 0.707586 0.667797
Si Si4 0.326883 0.815031 0.595523
Si Si5 0.440648 0.247073 0.027690
Si Si6 0.640173 0.316869 0.696305
O O1 0.338155 0.765180 0.883910
O O2 0.432415 0.011631 0.005330
O O3 0.431437 0.692847 0.079169
O O4 0.473439 0.723108 0.930472
O O5 0.818497 0.269493 0.692831
O O6 0.720186 0.404533 0.738604
O O7 0.845719 0.580264 0.797757
O O8 0.854598 0.546221 0.613248
O O9 0.897937 0.847004 0.734320
O O10 0.000000 0.619493 0.750000
O O11 0.250000 0.750000 0.500000
O O12 0.393401 0.717525 0.584220
O O13 0.404679 0.354223 0.920960
#
# Coordination Sequence:
#
# PCOD9261389 Si02
#       6
#     8   8   8   8   8   8
#     4   9  18  30  49  78 105 131 175 233 271 305
#     4  10  21  33  52  80 109 142 179 221 276 325
#     4  10  19  32  55  83 106 137 186 230 266 314
#     4  10  19  29  47  77 110 139 172 218 277 318
#     4   9  16  29  50  73 105 133 170 226 272 304
#     4  10  19  34  53  80 108 140 178 221 276 322
#
# _framework density 25.470908999999999
#
# number of rings (size 3 to 8) (size 9 to 14) (size 15 to 20)
#    0.000    2.333    3.333    0.000    7.000    0.667 
#    0.000    0.000    0.000    1.000    4.333    0.000 
#    0.000    0.000    0.000    0.000    0.000    0.000 
#
# Total GULP energy -134027.155974 kJ/mol
# GULP energy per Si atom -5584.464832 kJ/mol
# Density = 2.541294 g / cm^3
# Si number density = 25.470909 Si / 1000 Ang^3
#
#
#
# Elastic Constant Matrix: (Units=GPa)
#
#
# Indices 1 2 3 4 5 6 
#
# 1 123.5933 9.1149 31.0750 0.0000 -27.5539 0.0000
# 2 9.1149 77.5901 -0.1715 0.0000 -0.3597 0.0000
# 3 31.0750 -0.1715 119.6967 0.0000 -22.9790 0.0000
# 4 0.0000 0.0000 0.0000 6.2264 0.0000 -18.8944
# 5 -27.5539 -0.3597 -22.9790 0.0000 58.6412 0.0000
# 6 0.0000 0.0000 0.0000 -18.8944 0.0000 -16.8188
#
#
#
# Elastic Compliance Matrix: (Units=1/GPa)
#
#
# Indices 1 2 3 4 5 6 
#
# 1 0.009444 -0.001096 -0.001733 0.000000 0.003752 0.000000
# 2 -0.001096 0.013016 0.000237 0.000000 -0.000342 0.000000
# 3 -0.001733 0.000237 0.009352 0.000000 0.002852 0.000000
# 4 0.000000 0.000000 0.000000 0.036427 0.000000 -0.040922
# 5 0.003752 -0.000342 0.002852 0.000000 0.019931 0.000000
# 6 0.000000 0.000000 0.000000 -0.040922 0.000000 -0.013485
#
#
# Mechanical properties :
#
#
# Convention : Reuss Voigt Hill
#
# Bulk Modulus (GPa) = 37.55290 44.54633 41.04961
# Shear Modulus (GPa) = 56.34183 28.33386 42.33785
#
# Velocity S-wave (km/s) = 4.70830 3.33889 4.08144
# Velocity P-wave (km/s) = 6.65830 5.69133 6.19371
#
# Compressibility (1/GPa) = 0.02662910
#
# Stress axis : x y z
#
# Youngs Moduli (GPa) = 105.88708 76.82896 106.92632
#
# Poissons Ratio (x) = 0.08420 0.18532
# Poissons Ratio (y) = 0.11604 -0.02539
# Poissons Ratio (z) = 0.18352 -0.01825
#
# Static dielectric constant tensor:
#      x y z
#    x 1.948550 0.000000 -0.008450 
#    y 0.000000 2.196860 0.000000 
#    z -0.008450 0.000000 1.993050 
# 
# From -- ./inp_files/160469.got.cif
#   From: 2010.05.17/outbox.cif.g08.bks.cpg/sg15_81_cif.got.tgz:160469.got - 2010.06.03 18:47:42.
