data_PCOD9261758
_publ_section_title
;
Structure prediction by ZEFSAII (Michael W. Deem and Ramdas Pophale) SiO2 
 PCOD9261758
Probable space group: C 2/C
;
_chemical_formula_sum "Si O2"
_cell_formula_units_Z 40
_cell_length_a 17.474241
_cell_length_b 20.632976
_cell_length_c 7.752620
_cell_angle_alpha 90.000000
_cell_angle_beta 129.208883
_cell_angle_gamma 90.000000
_cell_volume 2165.829985
_symmetry_space_group_name_H-M "C 2/C"
_symmetry_group_IT_number 15
_symmetry_cell_setting 'monoclinic'
loop_
_space_group_symop_operation_xyz
x,y,z
-x,y,1/2-z
-x,-y,-z
x,-y,1/2+z
1/2+x,1/2+y,z
1/2-x,1/2+y,1/2-z
1/2-x,1/2-y,-z
1/2+x,1/2-y,1/2+z
loop_
_atom_site_type_symbol
_atom_site_label
_atom_site_fract_x
_atom_site_fract_y
_atom_site_fract_z
Si Si1 0.106716 0.552019 0.980302
Si Si2 0.741184 0.654970 0.345504
Si Si3 0.887164 0.778990 0.547143
Si Si4 0.290453 0.677942 0.584691
Si Si5 0.392366 0.093890 0.122432
O O1 0.197646 0.589926 0.022763
O O2 0.110229 0.575212 0.180928
O O3 0.113176 0.474318 0.984339
O O4 0.000000 0.569336 0.750000
O O5 0.823374 0.712529 0.452464
O O6 0.662944 0.676659 0.376881
O O7 0.693280 0.650501 0.085055
O O8 0.876634 0.814447 0.346912
O O9 0.000000 0.764794 0.750000
O O10 0.250000 0.750000 0.500000
O O11 0.200898 0.638457 0.545350
O O12 0.500000 0.125322 0.250000
#
# Coordination Sequence:
#
# PCOD9261758 Si02
#       5
#     8   8   8   8   8
#     4  10  19  31  52  82 114 138 176 215 281 330
#     4   9  20  36  52  81 111 138 177 227 269 326
#     4  10  20  35  57  78 106 145 184 220 272 314
#     4   9  20  38  50  79 111 142 181 216 270 319
#     4  10  20  32  53  84 110 144 175 219 279 330
#
# _framework density 18.468669999999999
#
# number of rings (size 3 to 8) (size 9 to 14) (size 15 to 20)
#    0.000    2.400    0.000    3.000    5.600    0.800 
#   18.000    0.000    0.000    1.200    0.000    0.000 
#    0.000    0.000    0.000    0.000    0.000    0.000 
#
# Total GULP energy -111530.554646 kJ/mol
# GULP energy per Si atom -5576.527732 kJ/mol
# Density = 1.842663 g / cm^3
# Si number density = 18.468670 Si / 1000 Ang^3
#
#
#
# Elastic Constant Matrix: (Units=GPa)
#
#
# Indices 1 2 3 4 5 6 
#
# 1 50.5346 -1.6777 22.4859 0.0000 -0.6101 0.0000
# 2 -1.6777 31.4946 5.2734 0.0000 5.9931 0.0000
# 3 22.4859 5.2734 95.4485 0.0000 -4.7200 0.0000
# 4 0.0000 0.0000 0.0000 8.3468 0.0000 -18.1286
# 5 -0.6101 5.9931 -4.7200 0.0000 16.9605 0.0000
# 6 0.0000 0.0000 0.0000 -18.1286 0.0000 -104.8129
#
#
#
# Elastic Compliance Matrix: (Units=1/GPa)
#
#
# Indices 1 2 3 4 5 6 
#
# 1 0.022278 0.002398 -0.005458 0.000000 -0.001565 0.000000
# 2 0.002398 0.034902 -0.003142 0.000000 -0.013121 0.000000
# 3 -0.005458 -0.003142 0.012149 0.000000 0.004295 0.000000
# 4 0.000000 0.000000 0.000000 0.087090 0.000000 -0.015063
# 5 -0.001565 -0.013121 0.004295 0.000000 0.064736 0.000000
# 6 0.000000 0.000000 0.000000 -0.015063 0.000000 -0.006935
#
#
# Mechanical properties :
#
#
# Convention : Reuss Voigt Hill
#
# Bulk Modulus (GPa) = 17.56698 25.51566 21.54132
# Shear Modulus (GPa) = 20.35849 -5.80805 7.27522
#
# Velocity S-wave (km/s) = 3.32373 -1.77529 1.98690
# Velocity P-wave (km/s) = 4.92565 3.10539 4.11737
#
# Compressibility (1/GPa) = 0.05692497
#
# Stress axis : x y z
#
# Youngs Moduli (GPa) = 44.88765 28.65146 82.31342
#
# Poissons Ratio (x) = -0.06872 0.44928
# Poissons Ratio (y) = -0.10766 0.25865
# Poissons Ratio (z) = 0.24500 0.09003
#
# Static dielectric constant tensor:
#      x y z
#    x 1.635620 0.000000 -0.001980 
#    y 0.000000 1.659820 0.000000 
#    z -0.001980 0.000000 1.617780 
# 
# From -- ./inp_files/30196.got.cif
#   From: 2010.05.17/outbox.cif.g08.bks.cpg/sg15_16_cif.got.tgz:30196.got - 2010.06.03 18:47:42.
