data_PCOD9261751
_publ_section_title
;
Structure prediction by ZEFSAII (Michael W. Deem and Ramdas Pophale) SiO2 
 PCOD9261751
Probable space group: C 2/C
;
_chemical_formula_sum "Si O2"
_cell_formula_units_Z 64
_cell_length_a 24.668814
_cell_length_b 21.128877
_cell_length_c 12.210002
_cell_angle_alpha 90.000000
_cell_angle_beta 31.326291
_cell_angle_gamma 90.000000
_cell_volume 3308.792570
_symmetry_space_group_name_H-M "C 2/C"
_symmetry_group_IT_number 15
_symmetry_cell_setting 'monoclinic'
loop_
_space_group_symop_operation_xyz
x,y,z
-x,y,1/2-z
-x,-y,-z
x,-y,1/2+z
1/2+x,1/2+y,z
1/2-x,1/2+y,1/2-z
1/2-x,1/2-y,-z
1/2+x,1/2-y,1/2+z
loop_
_atom_site_type_symbol
_atom_site_label
_atom_site_fract_x
_atom_site_fract_y
_atom_site_fract_z
Si Si1 0.848888 0.710789 0.951544
Si Si2 0.757452 0.160351 0.556793
Si Si3 0.640758 0.755762 0.623028
Si Si4 0.595788 0.410337 0.841181
Si Si5 0.254345 0.644204 0.798545
Si Si6 0.928748 0.747165 0.022971
Si Si7 0.620003 0.621208 0.541208
Si Si8 0.145287 0.054698 0.708565
O O1 0.819824 0.657873 0.913183
O O2 0.955816 0.742089 0.723521
O O3 0.763375 0.766429 0.086294
O O4 0.865374 0.697973 0.052347
O O5 0.866154 0.135460 0.320295
O O6 0.734269 0.124534 0.708760
O O7 0.750000 0.750000 0.500000
O O8 0.659839 0.813820 0.509231
O O9 0.564710 0.763700 0.857872
O O10 0.622483 0.692100 0.585823
O O11 0.635967 0.480272 0.742564
O O12 0.645289 0.385337 0.869908
O O13 0.470902 0.416206 0.068361
O O14 0.359609 0.689195 0.622508
O O15 0.278250 0.586697 0.837070
O O16 0.500000 0.598977 0.750000
O O17 0.675912 0.576665 0.533366
#
# Coordination Sequence:
#
# PCOD9261751 Si02
#       8
#     8   8   8   8   8   8   8   8
#     4   9  19  31  49  74 107 130 173 205 263 310
#     4  10  21  31  49  73 105 138 168 217 249 308
#     4  10  19  31  52  75 103 134 171 210 266 308
#     4  10  23  33  54  73 104 144 175 215 253 306
#     4  10  20  33  50  75 106 138 171 210 259 319
#     4   9  17  32  50  73 101 139 161 210 259 315
#     4  10  21  34  52  75 104 134 176 217 253 310
#     4  10  20  38  50  75 105 140 179 207 257 315
#
# _framework density 19.342403000000001
#
# number of rings (size 3 to 8) (size 9 to 14) (size 15 to 20)
#    0.000    2.250    2.500    0.750   10.500    1.500 
#    0.000    0.000    0.000    0.000    0.000    0.875 
#    3.750    0.000    0.000    0.000    0.000    0.000 
#
# Total GULP energy -178151.882112 kJ/mol
# GULP energy per Si atom -5567.246316 kJ/mol
# Density = 1.929838 g / cm^3
# Si number density = 19.342403 Si / 1000 Ang^3
#
#
#
# Elastic Constant Matrix: (Units=GPa)
#
#
# Indices 1 2 3 4 5 6 
#
# 1 104.7568 38.0189 17.7795 0.0000 40.0407 0.0000
# 2 38.0189 41.2856 9.9637 0.0000 18.5728 0.0000
# 3 17.7795 9.9637 49.6856 0.0000 30.2858 0.0000
# 4 0.0000 0.0000 0.0000 20.5552 0.0000 -4.1501
# 5 40.0407 18.5728 30.2858 0.0000 38.7925 0.0000
# 6 0.0000 0.0000 0.0000 -4.1501 0.0000 14.6889
#
#
#
# Elastic Compliance Matrix: (Units=1/GPa)
#
#
# Indices 1 2 3 4 5 6 
#
# 1 0.020905 -0.010915 0.008921 0.000000 -0.023317 0.000000
# 2 -0.010915 0.037341 0.000854 0.000000 -0.007279 0.000000
# 3 0.008921 0.000854 0.043168 0.000000 -0.043319 0.000000
# 4 0.000000 0.000000 0.000000 0.051593 0.000000 0.014576
# 5 -0.023317 -0.007279 -0.043319 0.000000 0.087150 0.000000
# 6 0.000000 0.000000 0.000000 0.014576 0.000000 0.072197
#
#
# Mechanical properties :
#
#
# Convention : Reuss Voigt Hill
#
# Bulk Modulus (GPa) = 10.08726 36.36135 23.22430
# Shear Modulus (GPa) = 14.38114 23.47171 18.92643
#
# Velocity S-wave (km/s) = 2.72968 3.48729 3.13148
# Velocity P-wave (km/s) = 3.89375 5.92068 5.01078
#
# Compressibility (1/GPa) = 0.09913494
#
# Stress axis : x y z
#
# Youngs Moduli (GPa) = 47.83438 26.78023 23.16545
#
# Poissons Ratio (x) = 0.29230 -0.20666
# Poissons Ratio (y) = 0.52210 -0.01979
# Poissons Ratio (z) = -0.42672 -0.02288
#
# Static dielectric constant tensor:
#      x y z
#    x 1.764590 0.000000 0.036470 
#    y 0.000000 1.676110 0.000000 
#    z 0.036470 0.000000 1.748400 
# 
# From -- ./inp_files/119716.got.cif
#   From: 2010.05.17/outbox.cif.g08.bks.cpg/sg15_60_cif.got.tgz:119716.got - 2010.06.03 18:47:42.
