data_PCOD9261779
_publ_section_title
;
Structure prediction by ZEFSAII (Michael W. Deem and Ramdas Pophale) SiO2 
 PCOD9261779
Probable space group: C 2/C
;
_chemical_formula_sum "Si O2"
_cell_formula_units_Z 64
_cell_length_a 11.723680
_cell_length_b 16.910625
_cell_length_c 13.811541
_cell_angle_alpha 90.000000
_cell_angle_beta 61.143314
_cell_angle_gamma 90.000000
_cell_volume 2398.199912
_symmetry_space_group_name_H-M "C 2/C"
_symmetry_group_IT_number 15
_symmetry_cell_setting 'monoclinic'
loop_
_space_group_symop_operation_xyz
x,y,z
-x,y,1/2-z
-x,-y,-z
x,-y,1/2+z
1/2+x,1/2+y,z
1/2-x,1/2+y,1/2-z
1/2-x,1/2-y,-z
1/2+x,1/2-y,1/2+z
loop_
_atom_site_type_symbol
_atom_site_label
_atom_site_fract_x
_atom_site_fract_y
_atom_site_fract_z
Si Si1 0.748660 0.550615 0.231075
Si Si2 0.740301 0.870436 0.232641
Si Si3 0.168443 0.670705 0.562593
Si Si4 0.868296 0.386723 0.851929
Si Si5 0.467981 0.611590 0.976661
Si Si6 0.993849 0.406662 0.520325
Si Si7 0.892724 0.055543 0.407343
Si Si8 0.632417 0.701657 0.647621
O O1 0.792681 0.460100 0.225749
O O2 0.746464 0.578464 0.343969
O O3 0.862387 0.605201 0.139362
O O4 0.634030 0.551063 0.197701
O O5 0.884262 0.873232 0.124422
O O6 0.754935 0.826407 0.327601
O O7 0.654291 0.831845 0.183895
O O8 0.250000 0.750000 0.500000
O O9 0.037183 0.651552 0.556092
O O10 0.256214 0.593173 0.499997
O O11 0.873153 0.294205 0.836335
O O12 0.000000 0.423819 0.750000
O O13 0.884153 0.396963 0.959014
O O14 0.425202 0.529544 0.940717
O O15 0.379359 0.677614 0.960020
O O16 0.501142 0.609319 0.078535
O O17 0.000000 0.500000 0.500000
O O18 0.500000 0.667157 0.750000
#
# Coordination Sequence:
#
# PCOD9261779 Si02
#       8
#     8   8   8   8   8   8   8   8
#     4  10  19  33  52  80 103 141 181 229 270 332
#     4  10  19  31  53  80 109 138 177 223 274 335
#     4  10  22  33  55  84 110 139 187 236 277 322
#     4   9  19  31  51  74 101 131 179 223 268 313
#     4   9  17  31  49  77 106 138 168 215 275 334
#     4  10  21  37  55  76 105 145 186 234 280 339
#     4   9  18  30  48  77 108 135 172 220 274 330
#     4   9  17  28  49  76 103 130 168 213 264 316
#
# _framework density 26.686682000000001
#
# number of rings (size 3 to 8) (size 9 to 14) (size 15 to 20)
#    0.000    2.500    1.250    0.750   10.500    0.000 
#    0.000    0.000    0.000    2.250    6.500    0.000 
#    0.000    0.000    0.000    0.000    0.000    0.000 
#
# Total GULP energy -178683.829641 kJ/mol
# GULP energy per Si atom -5583.869676 kJ/mol
# Density = 2.662594 g / cm^3
# Si number density = 26.686682 Si / 1000 Ang^3
#
#
#
# Elastic Constant Matrix: (Units=GPa)
#
#
# Indices 1 2 3 4 5 6 
#
# 1 160.1657 10.4368 68.8123 0.0000 48.9011 0.0000
# 2 10.4368 76.6597 37.3169 0.0000 31.3937 0.0000
# 3 68.8123 37.3169 198.7650 0.0000 71.4068 0.0000
# 4 0.0000 0.0000 0.0000 35.7981 0.0000 8.1520
# 5 48.9011 31.3937 71.4068 0.0000 64.9329 0.0000
# 6 0.0000 0.0000 0.0000 8.1520 0.0000 35.9268
#
#
#
# Elastic Compliance Matrix: (Units=1/GPa)
#
#
# Indices 1 2 3 4 5 6 
#
# 1 0.008441 0.001863 -0.001099 0.000000 -0.006049 0.000000
# 2 0.001863 0.016693 -0.000621 0.000000 -0.008791 0.000000
# 3 -0.001099 -0.000621 0.008469 0.000000 -0.008185 0.000000
# 4 0.000000 0.000000 0.000000 0.029457 0.000000 -0.006684
# 5 -0.006049 -0.008791 -0.008185 0.000000 0.033208 0.000000
# 6 0.000000 0.000000 0.000000 -0.006684 0.000000 0.029351
#
#
# Mechanical properties :
#
#
# Convention : Reuss Voigt Hill
#
# Bulk Modulus (GPa) = 29.50710 74.30249 51.90480
# Shear Modulus (GPa) = 36.59551 48.59985 42.59768
#
# Velocity S-wave (km/s) = 3.70713 4.27210 3.99960
# Velocity P-wave (km/s) = 5.42260 7.22754 6.38913
#
# Compressibility (1/GPa) = 0.03389014
#
# Stress axis : x y z
#
# Youngs Moduli (GPa) = 118.46630 59.90379 118.08322
#
# Poissons Ratio (x) = -0.11160 0.12975
# Poissons Ratio (y) = -0.22071 0.07330
# Poissons Ratio (z) = 0.13018 0.03719
#
# Static dielectric constant tensor:
#      x y z
#    x 2.244660 0.000000 -0.097190 
#    y 0.000000 2.795270 0.000000 
#    z -0.097190 0.000000 2.360360 
# 
# From -- ./inp_files/154842.got.cif
#   From: 2010.05.17/outbox.cif.g08.bks.cpg/sg15_78_cif.got.tgz:154842.got - 2010.06.03 18:47:42.
