data_PCOD9261278
_publ_section_title
;
Structure prediction by ZEFSAII (Michael W. Deem and Ramdas Pophale) SiO2 
 PCOD9261278
Probable space group: C 2/C
;
_chemical_formula_sum "Si O2"
_cell_formula_units_Z 48
_cell_length_a 19.111356
_cell_length_b 13.413144
_cell_length_c 24.235838
_cell_angle_alpha 90.000000
_cell_angle_beta 21.711669
_cell_angle_gamma 90.000000
_cell_volume 2298.299921
_symmetry_space_group_name_H-M "C 2/C"
_symmetry_group_IT_number 15
_symmetry_cell_setting 'monoclinic'
loop_
_space_group_symop_operation_xyz
x,y,z
-x,y,1/2-z
-x,-y,-z
x,-y,1/2+z
1/2+x,1/2+y,z
1/2-x,1/2+y,1/2-z
1/2-x,1/2-y,-z
1/2+x,1/2-y,1/2+z
loop_
_atom_site_type_symbol
_atom_site_label
_atom_site_fract_x
_atom_site_fract_y
_atom_site_fract_z
Si Si1 0.843062 0.844767 0.905861
Si Si2 0.500000 0.335435 0.250000
Si Si3 0.910944 0.966097 0.422084
Si Si4 0.783726 0.851867 0.246772
Si Si5 0.000000 0.512153 0.250000
Si Si6 0.591899 0.822851 0.506150
Si Si7 0.502207 0.039942 0.873399
O O1 0.000000 0.808262 0.750000
O O2 0.908960 0.919258 0.905665
O O3 0.750000 0.750000 0.000000
O O4 0.702742 0.910509 0.971399
O O5 0.466193 0.403164 0.328052
O O6 0.290596 0.289507 0.390709
O O7 0.067486 0.940992 0.351762
O O8 0.699374 0.934849 0.593740
O O9 0.654804 0.837147 0.396160
O O10 0.651169 0.890047 0.294930
O O11 0.921408 0.756594 0.136871
O O12 0.034722 0.458965 0.283382
O O13 0.520048 0.927740 0.585885
#
# Coordination Sequence:
#
# PCOD9261278 Si02
#       7
#     8   4   8   8   4   8   8
#     4  11  23  41  68  95 130 181 237 283 339 411
#     4  10  18  43  73  96 140 184 230 283 349 420
#     4  10  21  42  66  98 136 183 226 285 355 400
#     4  11  27  43  72 105 143 187 224 292 362 419
#     4  10  22  41  75  96 130 184 238 285 329 404
#     4  11  24  46  72 106 139 188 234 287 356 420
#     4  11  25  48  70 101 148 181 238 282 361 420
#
# _framework density 20.885003000000001
#
# number of rings (size 3 to 8) (size 9 to 14) (size 15 to 20)
#    0.000    1.333    4.167    1.500    7.000    6.667 
#    0.000    0.000    0.000    0.000    0.000    0.000 
#    0.000    0.000    0.000    0.000    0.000    0.000 
#
# Total GULP energy -133851.018855 kJ/mol
# GULP energy per Si atom -5577.125786 kJ/mol
# Density = 2.083747 g / cm^3
# Si number density = 20.885003 Si / 1000 Ang^3
#
#
#
# Elastic Constant Matrix: (Units=GPa)
#
#
# Indices 1 2 3 4 5 6 
#
# 1 121.4038 45.3787 41.3393 0.0111 1.3222 -0.0116
# 2 45.3787 135.3928 49.3395 0.0391 7.7629 -0.0299
# 3 41.3393 49.3395 120.9552 0.0289 25.2967 -0.0183
# 4 0.0111 0.0391 0.0289 9.7246 -0.0104 5.2211
# 5 1.3222 7.7629 25.2967 -0.0104 24.3739 0.0138
# 6 -0.0116 -0.0299 -0.0183 5.2211 0.0138 -4.7271
#
#
#
# Elastic Compliance Matrix: (Units=1/GPa)
#
#
# Indices 1 2 3 4 5 6 
#
# 1 0.010218 -0.002448 -0.003245 0.000003 0.003593 0.000017
# 2 -0.002448 0.009288 -0.003016 -0.000002 0.000305 -0.000043
# 3 -0.003245 -0.003016 0.013244 -0.000003 -0.012609 -0.000064
# 4 0.000003 -0.000002 -0.000003 0.064553 -0.000010 0.071298
# 5 0.003593 0.000305 -0.012609 -0.000010 0.053821 0.000185
# 6 0.000017 -0.000043 -0.000064 0.071298 0.000185 -0.132796
#
#
# Mechanical properties :
#
#
# Convention : Reuss Voigt Hill
#
# Bulk Modulus (GPa) = 65.22420 72.20745 68.71583
# Shear Modulus (GPa) = 122.38119 21.98723 72.18421
#
# Velocity S-wave (km/s) = 7.66321 3.24817 5.88538
# Velocity P-wave (km/s) = 10.46889 6.97971 8.89703
#
# Compressibility (1/GPa) = 0.01533173
#
# Stress axis : x y z
#
# Youngs Moduli (GPa) = 97.86743 107.66657 75.50743
#
# Poissons Ratio (x) = 0.26358 0.24503
# Poissons Ratio (y) = 0.23959 0.22771
# Poissons Ratio (z) = 0.31759 0.32469
#
# Static dielectric constant tensor:
#      x y z
#    x 1.826590 -0.000010 0.013350 
#    y -0.000010 1.770920 0.000010 
#    z 0.013350 0.000010 1.793400 
# 
# From -- ./inp_files/300938.got.cif
#   From: 2010.05.17/outbox.cif.g08.bks.cpg/sg15_151_cif.got.tgz:300938.got - 2010.06.03 18:47:42.
