data_PCOD9261201
_publ_section_title
;
Structure prediction by ZEFSAII (Michael W. Deem and Ramdas Pophale) SiO2 
 PCOD9261201
Probable space group: C 2/C
;
_chemical_formula_sum "Si O2"
_cell_formula_units_Z 64
_cell_length_a 13.664908
_cell_length_b 25.279589
_cell_length_c 17.398334
_cell_angle_alpha 90.000000
_cell_angle_beta 148.037718
_cell_angle_gamma 90.000000
_cell_volume 3181.531486
_symmetry_space_group_name_H-M "C 2/C"
_symmetry_group_IT_number 15
_symmetry_cell_setting 'monoclinic'
loop_
_space_group_symop_operation_xyz
x,y,z
-x,y,1/2-z
-x,-y,-z
x,-y,1/2+z
1/2+x,1/2+y,z
1/2-x,1/2+y,1/2-z
1/2-x,1/2-y,-z
1/2+x,1/2-y,1/2+z
loop_
_atom_site_type_symbol
_atom_site_label
_atom_site_fract_x
_atom_site_fract_y
_atom_site_fract_z
Si Si1 0.726980 0.617578 0.075831
Si Si2 0.904644 0.285601 0.950207
Si Si3 0.117602 0.304034 0.251025
Si Si4 0.310508 0.999736 0.158813
Si Si5 0.894438 0.122356 0.257183
Si Si6 0.874969 0.892773 0.442801
Si Si7 0.084161 0.545501 0.107129
Si Si8 0.050586 0.352208 0.913165
O O1 0.768118 0.555202 0.087886
O O2 0.867980 0.638746 0.236702
O O3 0.780571 0.648840 0.034322
O O4 0.522323 0.617951 0.973652
O O5 0.807967 0.229125 0.878338
O O6 0.735111 0.326896 0.838593
O O7 0.022725 0.304318 0.954304
O O8 0.011584 0.290531 0.101899
O O9 0.181868 0.364944 0.295097
O O10 0.000000 0.292433 0.250000
O O11 0.500000 0.977532 0.250000
O O12 0.157209 0.954572 0.060661
O O13 0.351136 0.018865 0.271436
O O14 0.760341 0.073950 0.187575
O O15 0.000000 0.111695 0.250000
O O16 0.036928 0.130945 0.421211
O O17 0.945536 0.593863 0.034247
O O18 0.000000 0.500000 0.000000
#
# Coordination Sequence:
#
# PCOD9261201 Si02
#       8
#     8   8   8   8   8   8   8   8
#     4  10  18  41  65  90 126 175 217 261 323 378
#     4  11  23  44  69  93 128 163 217 259 329 390
#     4  12  26  44  69  98 130 170 204 273 331 385
#     4  11  21  37  60  90 127 176 215 262 317 389
#     4  11  23  38  59  89 124 164 211 263 309 382
#     4  12  24  38  63  95 130 163 221 266 320 386
#     4  10  21  35  56  83 126 163 212 252 321 367
#     4   9  19  39  68  87 120 175 213 262 322 376
#
# _framework density 20.116098000000001
#
# number of rings (size 3 to 8) (size 9 to 14) (size 15 to 20)
#    0.000    1.250    6.250    3.000    5.250    0.000 
#    0.000    1.250    0.000    0.000    0.000    0.000 
#    0.000    0.000    0.000    0.000    0.000    0.000 
#
# Total GULP energy -178694.733386 kJ/mol
# GULP energy per Si atom -5584.210418 kJ/mol
# Density = 2.007031 g / cm^3
# Si number density = 20.116098 Si / 1000 Ang^3
#
#
#
# Elastic Constant Matrix: (Units=GPa)
#
#
# Indices 1 2 3 4 5 6 
#
# 1 162.0234 21.9340 6.8068 -0.0001 -2.1059 0.0000
# 2 21.9340 54.0509 8.0131 -0.0001 -5.7523 0.0000
# 3 6.8068 8.0131 33.6190 -0.0003 -5.9843 -0.0001
# 4 -0.0001 -0.0001 -0.0003 82.6100 0.0000 16.0565
# 5 -2.1059 -5.7523 -5.9843 0.0000 19.2604 0.0000
# 6 0.0000 0.0000 -0.0001 16.0565 0.0000 21.5612
#
#
#
# Elastic Compliance Matrix: (Units=1/GPa)
#
#
# Indices 1 2 3 4 5 6 
#
# 1 0.006549 -0.002575 -0.000764 0.000000 -0.000290 0.000000
# 2 -0.002575 0.020577 -0.003535 0.000000 0.004766 0.000000
# 3 -0.000764 -0.003535 0.032327 0.000000 0.008905 0.000000
# 4 0.000000 0.000000 0.000000 0.014154 0.000000 -0.010540
# 5 -0.000290 0.004766 0.008905 0.000000 0.056079 0.000000
# 6 0.000000 0.000000 0.000000 -0.010540 0.000000 0.054229
#
#
# Mechanical properties :
#
#
# Convention : Reuss Voigt Hill
#
# Bulk Modulus (GPa) = 21.87908 35.91124 28.89516
# Shear Modulus (GPa) = 23.48540 38.88226 31.18383
#
# Velocity S-wave (km/s) = 3.42057 4.40124 3.94152
# Velocity P-wave (km/s) = 5.14785 6.61200 5.92533
#
# Compressibility (1/GPa) = 0.04570576
#
# Stress axis : x y z
#
# Youngs Moduli (GPa) = 152.69771 48.59706 30.93348
#
# Poissons Ratio (x) = 0.12515 0.02363
# Poissons Ratio (y) = 0.39323 0.10935
# Poissons Ratio (z) = 0.11664 0.17179
#
# Static dielectric constant tensor:
#      x y z
#    x 1.715810 0.000000 0.015330 
#    y 0.000000 1.761690 0.000000 
#    z 0.015330 0.000000 1.706950 
# 
# From -- ./inp_files/207351.got.cif
#   From: 2010.05.17/outbox.cif.g08.bks.cpg/sg15_104_cif.got.tgz:207351.got - 2010.06.03 18:47:42.
