data_PCOD9261782
_publ_section_title
;
Structure prediction by ZEFSAII (Michael W. Deem and Ramdas Pophale) SiO2 
 PCOD9261782
Probable space group: C 2/C
;
_chemical_formula_sum "Si O2"
_cell_formula_units_Z 64
_cell_length_a 14.552933
_cell_length_b 29.526947
_cell_length_c 7.653320
_cell_angle_alpha 90.000000
_cell_angle_beta 111.305501
_cell_angle_gamma 90.000000
_cell_volume 3063.900757
_symmetry_space_group_name_H-M "C 2/C"
_symmetry_group_IT_number 15
_symmetry_cell_setting 'monoclinic'
loop_
_space_group_symop_operation_xyz
x,y,z
-x,y,1/2-z
-x,-y,-z
x,-y,1/2+z
1/2+x,1/2+y,z
1/2-x,1/2+y,1/2-z
1/2-x,1/2-y,-z
1/2+x,1/2-y,1/2+z
loop_
_atom_site_type_symbol
_atom_site_label
_atom_site_fract_x
_atom_site_fract_y
_atom_site_fract_z
Si Si1 0.962024 0.176383 0.524945
Si Si2 0.189622 0.718660 0.148443
Si Si3 0.527658 0.218585 0.473702
Si Si4 0.168998 0.809887 0.038793
Si Si5 0.419554 0.050011 0.926497
Si Si6 0.259276 0.628961 0.364337
Si Si7 0.132933 0.544959 0.200614
Si Si8 0.674339 0.860941 0.181206
O O1 0.933920 0.229765 0.492606
O O2 0.873371 0.142680 0.417664
O O3 0.000000 0.168382 0.750000
O O4 0.058895 0.173208 0.471137
O O5 0.184320 0.771522 0.202324
O O6 0.199500 0.674573 0.273389
O O7 0.077302 0.715247 0.995739
O O8 0.288879 0.714732 0.101726
O O9 0.500000 0.210596 0.250000
O O10 0.604642 0.181618 0.590668
O O11 0.247899 0.848650 0.118650
O O12 0.390409 0.096400 0.817725
O O13 0.352381 0.009150 0.806426
O O14 0.538590 0.047375 0.004768
O O15 0.399520 0.052579 0.120913
O O16 0.215325 0.584293 0.237620
O O17 0.238583 0.625275 0.556270
#
# Coordination Sequence:
#
# PCOD9261782 Si02
#       8
#     8   8   8   8   8   8   8   8
#     4  10  20  34  53  79 107 148 193 230 264 314
#     4  10  21  35  51  77 114 149 181 229 275 325
#     4  10  19  31  53  81 113 145 184 224 270 333
#     4  10  22  36  49  77 115 146 186 230 274 314
#     4   9  19  34  55  79 111 136 173 221 284 343
#     4  11  20  33  57  79 103 145 191 226 271 328
#     4   9  19  35  54  81 106 138 172 224 281 344
#     4  11  20  32  55  81 106 143 181 227 271 334
#
# _framework density 20.888404000000001
#
# number of rings (size 3 to 8) (size 9 to 14) (size 15 to 20)
#    0.000    2.000    2.500    1.500    1.750    3.000 
#    0.000    6.250    0.000    0.750    0.000    0.000 
#    0.000    0.000    0.000    0.000    0.000    0.000 
#
# Total GULP energy -178268.736530 kJ/mol
# GULP energy per Si atom -5570.898017 kJ/mol
# Density = 2.084086 g / cm^3
# Si number density = 20.888404 Si / 1000 Ang^3
#
#
#
# Elastic Constant Matrix: (Units=GPa)
#
#
# Indices 1 2 3 4 5 6 
#
# 1 129.7737 34.8560 24.5618 0.0000 20.6384 0.0000
# 2 34.8560 107.9205 37.7550 0.0000 34.1235 0.0000
# 3 24.5618 37.7550 51.9048 0.0000 20.3886 0.0000
# 4 0.0000 0.0000 0.0000 29.1152 0.0000 8.5990
# 5 20.6384 34.1235 20.3886 0.0000 28.7574 0.0000
# 6 0.0000 0.0000 0.0000 8.5990 0.0000 27.8616
#
#
#
# Elastic Compliance Matrix: (Units=1/GPa)
#
#
# Indices 1 2 3 4 5 6 
#
# 1 0.008961 -0.000970 -0.002024 0.000000 -0.003844 0.000000
# 2 -0.000970 0.016100 -0.005573 0.000000 -0.014457 0.000000
# 3 -0.002024 -0.005573 0.029258 0.000000 -0.012677 0.000000
# 4 0.000000 0.000000 0.000000 0.037791 0.000000 -0.011664
# 5 -0.003844 -0.014457 -0.012677 0.000000 0.063675 0.000000
# 6 0.000000 0.000000 0.000000 -0.011664 0.000000 0.039492
#
#
# Mechanical properties :
#
#
# Convention : Reuss Voigt Hill
#
# Bulk Modulus (GPa) = 26.89431 53.77162 40.33297
# Shear Modulus (GPa) = 22.24130 29.97525 26.10828
#
# Velocity S-wave (km/s) = 3.26662 3.79227 3.53922
# Velocity P-wave (km/s) = 5.20873 6.70622 6.00434
#
# Compressibility (1/GPa) = 0.03718258
#
# Stress axis : x y z
#
# Youngs Moduli (GPa) = 111.59609 62.11018 34.17910
#
# Poissons Ratio (x) = 0.06027 0.06919
# Poissons Ratio (y) = 0.10830 0.19049
# Poissons Ratio (z) = 0.22592 0.34616
#
# Static dielectric constant tensor:
#      x y z
#    x 1.822340 0.000000 -0.060700 
#    y 0.000000 1.796390 0.000000 
#    z -0.060700 0.000000 1.843790 
# 
# From -- ./inp_files/44575.got.cif
#   From: 2010.05.17/outbox.cif.g08.bks.cpg/sg15_23_cif.got.tgz:44575.got - 2010.06.03 18:47:42.
