data_PCOD9261884
_publ_section_title
;
Structure prediction by ZEFSAII (Michael W. Deem and Ramdas Pophale) SiO2 
 PCOD9261884
Probable space group: C 2/C
;
_chemical_formula_sum "Si O2"
_cell_formula_units_Z 52
_cell_length_a 16.115886
_cell_length_b 26.049896
_cell_length_c 12.649186
_cell_angle_alpha 90.000000
_cell_angle_beta 35.719140
_cell_angle_gamma 90.000000
_cell_volume 3100.245737
_symmetry_space_group_name_H-M "C 2/C"
_symmetry_group_IT_number 15
_symmetry_cell_setting 'monoclinic'
loop_
_space_group_symop_operation_xyz
x,y,z
-x,y,1/2-z
-x,-y,-z
x,-y,1/2+z
1/2+x,1/2+y,z
1/2-x,1/2+y,1/2-z
1/2-x,1/2-y,-z
1/2+x,1/2-y,1/2+z
loop_
_atom_site_type_symbol
_atom_site_label
_atom_site_fract_x
_atom_site_fract_y
_atom_site_fract_z
Si Si1 0.500000 0.140750 0.750000
Si Si2 0.118119 0.558529 0.787993
Si Si3 0.929517 0.541059 0.424583
Si Si4 0.101052 0.980941 0.241405
Si Si5 0.795457 0.276485 0.562974
Si Si6 0.939329 0.070109 0.494559
Si Si7 0.993299 0.813341 0.885952
O O1 0.583422 0.104906 0.745729
O O2 0.602704 0.177074 0.575695
O O3 0.287285 0.549332 0.609987
O O4 0.025038 0.509643 0.848393
O O5 0.080662 0.568674 0.950627
O O6 0.769271 0.526133 0.557496
O O7 0.000000 0.568047 0.250000
O O8 0.054419 0.947652 0.390937
O O9 0.000000 0.965611 0.250000
O O10 0.064312 0.040257 0.305181
O O11 0.750000 0.250000 0.500000
O O12 0.883644 0.231820 0.529341
O O13 0.650354 0.297530 0.762264
O O14 0.948218 0.130758 0.471291
O O15 0.000000 0.815878 0.750000
#
# Coordination Sequence:
#
# PCOD9261884 Si02
#       7
#     4   8   8   8   8   8   8
#     4  12  20  32  52  78 106 136 180 214 262 316
#     4  10  21  32  53  76 101 144 176 217 264 308
#     4  10  20  36  49  73 108 140 180 219 255 314
#     4  10  21  35  53  76 105 140 176 219 252 310
#     4  10  19  32  48  73 107 133 167 210 265 311
#     4  10  21  35  53  77 104 140 180 208 263 313
#     4  10  19  32  50  74 105 137 163 212 259 317
#
# _framework density 16.772864999999999
#
# number of rings (size 3 to 8) (size 9 to 14) (size 15 to 20)
#    0.000    1.846    3.077    3.231    2.154    1.231 
#    0.000    0.000    0.000    0.000    0.000    2.154 
#    0.000    0.154    0.000    0.000    0.000    0.000 
#
# Total GULP energy -144975.160298 kJ/mol
# GULP energy per Si atom -5575.967704 kJ/mol
# Density = 1.673469 g / cm^3
# Si number density = 16.772865 Si / 1000 Ang^3
#
#
#
# Elastic Constant Matrix: (Units=GPa)
#
#
# Indices 1 2 3 4 5 6 
#
# 1 100.9196 30.1146 32.0663 0.0000 -9.0142 0.0001
# 2 30.1146 76.3974 16.4003 0.0000 -6.1245 0.0000
# 3 32.0663 16.4003 70.3474 -0.0002 -12.0123 0.0002
# 4 0.0000 0.0000 -0.0002 16.4309 0.0001 0.0646
# 5 -9.0142 -6.1245 -12.0123 0.0001 28.4673 -0.0001
# 6 0.0001 0.0000 0.0002 0.0646 -0.0001 18.5093
#
#
#
# Elastic Compliance Matrix: (Units=1/GPa)
#
#
# Indices 1 2 3 4 5 6 
#
# 1 0.012658 -0.003893 -0.004656 0.000000 0.001206 0.000000
# 2 -0.003893 0.015056 -0.001501 0.000000 0.001373 0.000000
# 3 -0.004656 -0.001501 0.017653 0.000000 0.005651 0.000000
# 4 0.000000 0.000000 0.000000 0.060862 0.000000 -0.000212
# 5 0.001206 0.001373 0.005651 0.000000 0.038190 0.000000
# 6 0.000000 0.000000 0.000000 -0.000212 0.000000 0.054028
#
#
# Mechanical properties :
#
#
# Convention : Reuss Voigt Hill
#
# Bulk Modulus (GPa) = 39.57935 44.98076 42.28005
# Shear Modulus (GPa) = 22.02941 23.95370 22.99155
#
# Velocity S-wave (km/s) = 3.62801 3.78315 3.70639
# Velocity P-wave (km/s) = 6.41860 6.77929 6.60141
#
# Compressibility (1/GPa) = 0.02526570
#
# Stress axis : x y z
#
# Youngs Moduli (GPa) = 79.00254 66.41685 56.64893
#
# Poissons Ratio (x) = 0.25858 0.26377
# Poissons Ratio (y) = 0.30758 0.08503
# Poissons Ratio (z) = 0.36786 0.09969
#
# Static dielectric constant tensor:
#      x y z
#    x 1.586540 0.000000 -0.002600 
#    y 0.000000 1.561300 0.000000 
#    z -0.002600 0.000000 1.600410 
# 
# From -- ./inp_files/42321.got.cif
#   From: 2010.05.17/outbox.cif.g08.bks.cpg/sg15_22_cif.got.tgz:42321.got - 2010.06.03 18:47:42.
