data_PCOD9261627
_publ_section_title
;
Structure prediction by ZEFSAII (Michael W. Deem and Ramdas Pophale) SiO2 
 PCOD9261627
Probable space group: C 2/C
;
_chemical_formula_sum "Si O2"
_cell_formula_units_Z 64
_cell_length_a 28.525893
_cell_length_b 15.428964
_cell_length_c 8.608388
_cell_angle_alpha 90.000000
_cell_angle_beta 80.338169
_cell_angle_gamma 90.000000
_cell_volume 3735.024780
_symmetry_space_group_name_H-M "C 2/C"
_symmetry_group_IT_number 15
_symmetry_cell_setting 'monoclinic'
loop_
_space_group_symop_operation_xyz
x,y,z
-x,y,1/2-z
-x,-y,-z
x,-y,1/2+z
1/2+x,1/2+y,z
1/2-x,1/2+y,1/2-z
1/2-x,1/2-y,-z
1/2+x,1/2-y,1/2+z
loop_
_atom_site_type_symbol
_atom_site_label
_atom_site_fract_x
_atom_site_fract_y
_atom_site_fract_z
Si Si1 0.190809 0.219911 0.705796
Si Si2 0.611249 0.853257 0.843428
Si Si3 0.717800 0.335707 0.522210
Si Si4 0.716384 0.654886 0.358697
Si Si5 0.223408 0.509625 0.609394
Si Si6 0.941876 0.426367 0.924834
Si Si7 0.845446 0.465370 0.098029
Si Si8 0.473531 0.127542 0.918695
O O1 0.145084 0.279914 0.758463
O O2 0.238221 0.279938 0.673677
O O3 0.190058 0.174036 0.536982
O O4 0.194194 0.162877 0.863178
O O5 0.578249 0.892980 0.726147
O O6 0.643125 0.932379 0.890676
O O7 0.573997 0.825233 0.997318
O O8 0.750000 0.250000 0.500000
O O9 0.691038 0.333669 0.704139
O O10 0.751660 0.419533 0.510497
O O11 0.737620 0.558158 0.356979
O O12 0.182459 0.454931 0.546152
O O13 0.193373 0.560840 0.754938
O O14 0.956895 0.527196 0.900812
O O15 0.896663 0.421487 0.066661
O O16 0.986547 0.376848 0.969622
O O17 0.500000 0.158792 0.750000
#
# Coordination Sequence:
#
# PCOD9261627 Si02
#       8
#     8   8   8   8   8   8   8   8
#     4  10  20  36  51  71 102 135 174 231 272 301
#     4  11  20  34  47  68 100 135 179 214 266 319
#     4  10  21  35  49  71 104 136 176 228 273 314
#     4  10  20  35  51  73  99 135 179 223 273 312
#     4  12  19  33  50  74 101 139 187 218 256 317
#     4  10  19  31  47  68 101 135 171 221 260 306
#     4  11  19  27  47  73  96 131 183 219 240 300
#     4  10  20  32  47  70  96 133 174 216 266 304
#
# _framework density 17.135093999999999
#
# number of rings (size 3 to 8) (size 9 to 14) (size 15 to 20)
#    0.000    1.500    3.750    4.125    1.750    2.000 
#    2.250    0.000    0.000    0.000    0.000    0.000 
#    0.000    0.000    0.000    7.875    0.000    0.000 
#
# Total GULP energy -178293.038168 kJ/mol
# GULP energy per Si atom -5571.657443 kJ/mol
# Density = 1.709609 g / cm^3
# Si number density = 17.135094 Si / 1000 Ang^3
#
#
#
# Elastic Constant Matrix: (Units=GPa)
#
#
# Indices 1 2 3 4 5 6 
#
# 1 54.7404 14.9385 34.3715 0.0000 -5.3871 0.0000
# 2 14.9385 21.7317 18.1618 0.0000 -7.0641 0.0000
# 3 34.3715 18.1618 130.4395 0.0000 -12.3524 0.0000
# 4 0.0000 0.0000 0.0000 18.2948 0.0000 -3.7307
# 5 -5.3871 -7.0641 -12.3524 0.0000 28.7607 0.0000
# 6 0.0000 0.0000 0.0000 -3.7307 0.0000 11.8060
#
#
#
# Elastic Compliance Matrix: (Units=1/GPa)
#
#
# Indices 1 2 3 4 5 6 
#
# 1 0.024816 -0.013304 -0.004749 0.000000 -0.000659 0.000000
# 2 -0.013304 0.062174 -0.004108 0.000000 0.011015 0.000000
# 3 -0.004749 -0.004108 0.009705 0.000000 0.002269 0.000000
# 4 0.000000 0.000000 0.000000 0.058425 0.000000 0.018463
# 5 -0.000659 0.011015 0.002269 0.000000 0.038326 0.000000
# 6 0.000000 0.000000 0.000000 0.018463 0.000000 0.090537
#
#
# Mechanical properties :
#
#
# Convention : Reuss Voigt Hill
#
# Bulk Modulus (GPa) = 19.09388 37.98392 28.53890
# Shear Modulus (GPa) = 14.46076 21.06829 17.76452
#
# Velocity S-wave (km/s) = 2.90819 3.51028 3.22333
# Velocity P-wave (km/s) = 4.73752 6.21650 5.52671
#
# Compressibility (1/GPa) = 0.05237279
#
# Stress axis : x y z
#
# Youngs Moduli (GPa) = 40.29710 16.08377 103.04244
#
# Poissons Ratio (x) = 0.21397 0.48936
# Poissons Ratio (y) = 0.53610 0.42332
# Poissons Ratio (z) = 0.19138 0.06608
#
# Static dielectric constant tensor:
#      x y z
#    x 1.586720 0.000000 -0.032380 
#    y 0.000000 1.569460 0.000000 
#    z -0.032380 0.000000 1.779730 
# 
# From -- ./inp_files/69733.got.cif
#   From: 2010.05.17/outbox.cif.g08.bks.cpg/sg15_35_cif.got.tgz:69733.got - 2010.06.03 18:47:42.
