data_PCOD9261040
_publ_section_title
;
Structure prediction by ZEFSAII (Michael W. Deem and Ramdas Pophale) SiO2 
 PCOD9261040
Probable space group: C 2/C
;
_chemical_formula_sum "Si O2"
_cell_formula_units_Z 48
_cell_length_a 8.065270
_cell_length_b 20.034613
_cell_length_c 20.592556
_cell_angle_alpha 90.000000
_cell_angle_beta 38.156965
_cell_angle_gamma 90.000000
_cell_volume 2055.751684
_symmetry_space_group_name_H-M "C 2/C"
_symmetry_group_IT_number 15
_symmetry_cell_setting 'monoclinic'
loop_
_space_group_symop_operation_xyz
x,y,z
-x,y,1/2-z
-x,-y,-z
x,-y,1/2+z
1/2+x,1/2+y,z
1/2-x,1/2+y,1/2-z
1/2-x,1/2-y,-z
1/2+x,1/2-y,1/2+z
loop_
_atom_site_type_symbol
_atom_site_label
_atom_site_fract_x
_atom_site_fract_y
_atom_site_fract_z
Si Si1 0.086540 0.291085 0.872703
Si Si2 0.062971 0.106421 0.085198
Si Si3 0.406456 0.261026 0.558861
Si Si4 0.500000 0.400965 0.750000
Si Si5 0.000000 0.156338 0.750000
Si Si6 0.987404 0.421496 0.153048
Si Si7 0.500000 0.962011 0.750000
Si Si8 0.500000 0.817294 0.250000
O O1 0.251734 0.355439 0.804023
O O2 0.268082 0.229348 0.792532
O O3 0.800193 0.296248 0.927824
O O4 0.084337 0.278928 0.950954
O O5 0.034962 0.185048 0.068567
O O6 0.770347 0.079073 0.156022
O O7 0.096909 0.077649 0.148703
O O8 0.317703 0.077455 0.968153
O O9 0.221452 0.205629 0.650371
O O10 0.810941 0.106433 0.767246
O O11 0.969110 0.490124 0.197038
O O12 0.120650 0.365991 0.159283
#
# Coordination Sequence:
#
# PCOD9261040 Si02
#       8
#     8   8   8   4   4   8   4   4
#     4  10  20  35  58 101 138 176 212 265 338 418
#     4  12  25  47  70 101 138 189 234 287 351 409
#     4  11  22  36  66 101 144 177 217 274 348 422
#     4  11  24  38  62  96 140 176 221 280 334 424
#     4  12  23  39  63 107 138 180 220 272 348 420
#     4  11  25  44  70  97 135 184 230 287 345 412
#     4  11  27  49  74  96 128 180 247 302 348 409
#     4  10  18  40  59  95 134 170 226 262 328 407
#
# _framework density 23.349124
#
# number of rings (size 3 to 8) (size 9 to 14) (size 15 to 20)
#    0.000    1.000    3.333    4.000    2.333    2.000 
#    0.000    6.667    0.000    0.000    0.000    0.000 
#    0.000    0.000    0.000    0.000    0.000    0.000 
#
# Total GULP energy -133851.530402 kJ/mol
# GULP energy per Si atom -5577.147100 kJ/mol
# Density = 2.329598 g / cm^3
# Si number density = 23.349124 Si / 1000 Ang^3
#
#
#
# Elastic Constant Matrix: (Units=GPa)
#
#
# Indices 1 2 3 4 5 6 
#
# 1 92.6383 4.2139 4.0177 0.0017 13.2326 -0.0061
# 2 4.2139 43.0968 25.2380 0.0000 14.3851 0.0001
# 3 4.0177 25.2380 138.4450 0.0001 33.7924 0.0032
# 4 0.0017 0.0000 0.0001 21.9391 -0.0010 0.0150
# 5 13.2326 14.3851 33.7924 -0.0010 38.5344 0.0024
# 6 -0.0061 0.0001 0.0032 0.0150 0.0024 20.5141
#
#
#
# Elastic Compliance Matrix: (Units=1/GPa)
#
#
# Indices 1 2 3 4 5 6 
#
# 1 0.011420 -0.000049 0.000802 -0.000001 -0.004607 0.000004
# 2 -0.000049 0.027577 -0.003203 0.000000 -0.007470 0.000001
# 3 0.000802 -0.003203 0.009618 0.000000 -0.007514 0.000000
# 4 -0.000001 0.000000 0.000000 0.045581 0.000002 -0.000033
# 5 -0.004607 -0.007470 -0.007514 0.000002 0.036910 -0.000004
# 6 0.000004 0.000001 0.000000 -0.000033 -0.000004 0.048747
#
#
# Mechanical properties :
#
#
# Convention : Reuss Voigt Hill
#
# Bulk Modulus (GPa) = 22.87477 37.90213 30.38845
# Shear Modulus (GPa) = 25.08484 32.24490 28.66487
#
# Velocity S-wave (km/s) = 3.28126 3.72020 3.50760
# Velocity P-wave (km/s) = 4.91668 5.89247 5.42655
#
# Compressibility (1/GPa) = 0.04371629
#
# Stress axis : x y z
#
# Youngs Moduli (GPa) = 87.56472 36.26207 103.97520
#
# Poissons Ratio (x) = 0.00176 -0.08337
# Poissons Ratio (y) = 0.00425 0.33299
# Poissons Ratio (z) = -0.07021 0.11613
#
# Static dielectric constant tensor:
#      x y z
#    x 1.981890 0.000000 0.081690 
#    y 0.000000 1.887950 0.000000 
#    z 0.081690 0.000000 2.041710 
# 
# From -- ./inp_files/233740.got.cif
#   From: 2010.05.17/outbox.cif.g08.bks.cpg/sg15_117_cif.got.tgz:233740.got - 2010.06.03 18:47:42.
