data_PCOD9261417
_publ_section_title
;
Structure prediction by ZEFSAII (Michael W. Deem and Ramdas Pophale) SiO2 
 PCOD9261417
Probable space group: C 2/C
;
_chemical_formula_sum "Si O2"
_cell_formula_units_Z 48
_cell_length_a 21.718162
_cell_length_b 11.980955
_cell_length_c 8.839096
_cell_angle_alpha 90.000000
_cell_angle_beta 90.465541
_cell_angle_gamma 90.000000
_cell_volume 2299.895058
_symmetry_space_group_name_H-M "C 2/C"
_symmetry_group_IT_number 15
_symmetry_cell_setting 'monoclinic'
loop_
_space_group_symop_operation_xyz
x,y,z
-x,y,1/2-z
-x,-y,-z
x,-y,1/2+z
1/2+x,1/2+y,z
1/2-x,1/2+y,1/2-z
1/2-x,1/2-y,-z
1/2+x,1/2-y,1/2+z
loop_
_atom_site_type_symbol
_atom_site_label
_atom_site_fract_x
_atom_site_fract_y
_atom_site_fract_z
Si Si1 0.012308 0.378319 0.070467
Si Si2 0.210941 0.134953 0.081906
Si Si3 0.145472 0.649146 0.661771
Si Si4 0.606900 0.246080 0.989985
Si Si5 0.824174 0.052764 0.112375
Si Si6 0.805934 0.399090 0.820586
O O1 0.083313 0.342940 0.061898
O O2 0.000000 0.387098 0.250000
O O3 0.964188 0.289542 0.002074
O O4 0.000000 0.500000 0.000000
O O5 0.195925 0.263923 0.103531
O O6 0.221623 0.610569 0.348464
O O7 0.168976 0.071359 0.208877
O O8 0.188782 0.074618 0.930929
O O9 0.130763 0.687073 0.834232
O O10 0.166348 0.521763 0.662224
O O11 0.624097 0.375606 0.970199
O O12 0.645243 0.191255 0.126400
O O13 0.756759 0.109714 0.080356
#
# Coordination Sequence:
#
# PCOD9261417 Si02
#       6
#     8   8   8   8   8   8
#     4  10  20  37  56  79 106 138 184 222 270 314
#     4   9  21  34  53  78 112 141 180 218 269 327
#     4  10  20  35  54  82 108 141 179 228 269 317
#     4  10  19  35  56  76 108 149 176 216 270 334
#     4   9  20  35  52  78 108 146 177 213 270 325
#     4  10  19  29  57  77 113 129 186 209 277 315
#
# _framework density 20.870517
#
# number of rings (size 3 to 8) (size 9 to 14) (size 15 to 20)
#    1.000    1.333    1.667    1.500    2.333    0.667 
#    0.000    4.167    0.000    0.000    0.000    0.000 
#    0.000    0.000    0.000    0.000    0.000    0.000 
#
# Total GULP energy -133805.414539 kJ/mol
# GULP energy per Si atom -5575.225606 kJ/mol
# Density = 2.082302 g / cm^3
# Si number density = 20.870517 Si / 1000 Ang^3
#
#
#
# Elastic Constant Matrix: (Units=GPa)
#
#
# Indices 1 2 3 4 5 6 
#
# 1 85.0501 8.1138 -4.3126 0.0000 21.7516 0.0000
# 2 8.1138 42.1581 13.9141 0.0000 6.8491 0.0000
# 3 -4.3126 13.9141 29.2610 0.0000 5.9074 0.0000
# 4 0.0000 0.0000 0.0000 24.5986 0.0000 -0.0144
# 5 21.7516 6.8491 5.9074 0.0000 15.1663 0.0000
# 6 0.0000 0.0000 0.0000 -0.0144 0.0000 30.3302
#
#
#
# Elastic Compliance Matrix: (Units=1/GPa)
#
#
# Indices 1 2 3 4 5 6 
#
# 1 0.021093 -0.002224 0.010931 0.000000 -0.033505 0.000000
# 2 -0.002224 0.029327 -0.013288 0.000000 -0.004878 0.000000
# 3 0.010931 -0.013288 0.047819 0.000000 -0.028302 0.000000
# 4 0.000000 0.000000 0.000000 0.040653 0.000000 0.000019
# 5 -0.033505 -0.004878 -0.028302 0.000000 0.127216 0.000000
# 6 0.000000 0.000000 0.000000 0.000019 0.000000 0.032970
#
#
# Mechanical properties :
#
#
# Convention : Reuss Voigt Hill
#
# Bulk Modulus (GPa) = 11.22647 21.32222 16.27434
# Shear Modulus (GPa) = 14.79588 23.26928 19.03258
#
# Velocity S-wave (km/s) = 2.66548 3.34269 3.02310
# Velocity P-wave (km/s) = 3.85536 5.01365 4.47216
#
# Compressibility (1/GPa) = 0.08907522
#
# Stress axis : x y z
#
# Youngs Moduli (GPa) = 47.40881 34.09884 20.91231
#
# Poissons Ratio (x) = 0.07583 -0.22858
# Poissons Ratio (y) = 0.10544 0.27789
# Poissons Ratio (z) = -0.51821 0.45311
#
# Static dielectric constant tensor:
#      x y z
#    x 1.799610 0.000000 -0.068620 
#    y 0.000000 1.726410 0.000000 
#    z -0.068620 0.000000 1.793970 
# 
# From -- ./inp_files/116441.got.cif
#   From: 2010.05.17/outbox.cif.g08.bks.cpg/sg15_59_cif.got.tgz:116441.got - 2010.06.03 18:47:42.
