data_PCOD9261167
_publ_section_title
;
Structure prediction by ZEFSAII (Michael W. Deem and Ramdas Pophale) SiO2 
 PCOD9261167
Probable space group: C 2/C
;
_chemical_formula_sum "Si O2"
_cell_formula_units_Z 44
_cell_length_a 7.536814
_cell_length_b 27.775572
_cell_length_c 7.983159
_cell_angle_alpha 90.000000
_cell_angle_beta 82.452161
_cell_angle_gamma 90.000000
_cell_volume 1656.709114
_symmetry_space_group_name_H-M "C 2/C"
_symmetry_group_IT_number 15
_symmetry_cell_setting 'monoclinic'
loop_
_space_group_symop_operation_xyz
x,y,z
-x,y,1/2-z
-x,-y,-z
x,-y,1/2+z
1/2+x,1/2+y,z
1/2-x,1/2+y,1/2-z
1/2-x,1/2-y,-z
1/2+x,1/2-y,1/2+z
loop_
_atom_site_type_symbol
_atom_site_label
_atom_site_fract_x
_atom_site_fract_y
_atom_site_fract_z
Si Si1 0.271404 0.352577 0.352674
Si Si2 0.708462 0.947867 0.176537
Si Si3 0.627371 0.306593 0.478292
Si Si4 0.500000 0.372685 0.750000
Si Si5 0.209423 0.556178 0.275576
Si Si6 0.070541 0.281763 0.552908
O O1 0.289723 0.406273 0.282785
O O2 0.446341 0.332982 0.425732
O O3 0.243947 0.320358 0.188452
O O4 0.107005 0.335599 0.487904
O O5 0.500000 0.945248 0.250000
O O6 0.762005 0.002023 0.215828
O O7 0.728263 0.939162 0.975363
O O8 0.641630 0.336521 0.644728
O O9 0.576050 0.251750 0.517135
O O10 0.641491 0.408589 0.821982
O O11 0.000000 0.563520 0.250000
O O12 0.250000 0.250000 0.500000
O O13 0.000000 0.280949 0.750000
#
# Coordination Sequence:
#
# PCOD9261167 Si02
#       6
#     8   8   8   4   8   8
#     4  10  21  42  71  97 145 194 247 304 377 437
#     4  11  24  46  68 104 146 191 245 309 373 443
#     4  10  21  41  67 105 151 184 250 311 356 454
#     4  12  26  44  74 114 148 204 242 302 388 446
#     4  11  26  47  74 106 151 192 249 310 372 449
#     4  10  18  40  69 105 142 196 240 308 380 436
#
# _framework density 26.558675999999998
#
# number of rings (size 3 to 8) (size 9 to 14) (size 15 to 20)
#    0.000    1.455    5.455    2.182    5.091    2.182 
#    8.182    1.818    0.000    0.000    0.000    0.000 
#    0.000    0.000    0.000    0.000    0.000    0.000 
#
# Total GULP energy -123025.826063 kJ/mol
# GULP energy per Si atom -5592.083003 kJ/mol
# Density = 2.649823 g / cm^3
# Si number density = 26.558676 Si / 1000 Ang^3
#
#
#
# Elastic Constant Matrix: (Units=GPa)
#
#
# Indices 1 2 3 4 5 6 
#
# 1 96.7427 3.4175 11.9224 0.0000 3.3309 0.0000
# 2 3.4175 104.8395 39.4195 0.0000 9.7454 0.0000
# 3 11.9224 39.4195 119.0230 0.0000 -20.1482 0.0000
# 4 0.0000 0.0000 0.0000 47.3376 0.0000 -2.5893
# 5 3.3309 9.7454 -20.1482 0.0000 36.9920 0.0000
# 6 0.0000 0.0000 0.0000 -2.5893 0.0000 -9.4219
#
#
#
# Elastic Compliance Matrix: (Units=1/GPa)
#
#
# Indices 1 2 3 4 5 6 
#
# 1 0.010573 0.000397 -0.001509 0.000000 -0.001878 0.000000
# 2 0.000397 0.011954 -0.004999 0.000000 -0.005908 0.000000
# 3 -0.001509 -0.004999 0.011516 0.000000 0.007725 0.000000
# 4 0.000000 0.000000 0.000000 0.020812 0.000000 -0.005720
# 5 -0.001878 -0.005908 0.007725 0.000000 0.032966 0.000000
# 6 0.000000 0.000000 0.000000 -0.005720 0.000000 -0.104564
#
#
# Mechanical properties :
#
#
# Convention : Reuss Voigt Hill
#
# Bulk Modulus (GPa) = 45.82362 47.79154 46.80758
# Shear Modulus (GPa) = 1816.29785 32.70460 924.50122
#
# Velocity S-wave (km/s) = 26.17949 3.51295 18.67762
# Velocity P-wave (km/s) = 30.51413 5.87267 21.97272
#
# Compressibility (1/GPa) = 0.02182281
#
# Stress axis : x y z
#
# Youngs Moduli (GPa) = 94.57817 83.65234 86.83395
#
# Poissons Ratio (x) = -0.03323 0.13100
# Poissons Ratio (y) = -0.03757 0.43408
# Poissons Ratio (z) = 0.14268 0.41818
#
# Static dielectric constant tensor:
#      x y z
#    x 2.299710 0.000000 -0.120960 
#    y 0.000000 2.121340 0.000000 
#    z -0.120960 0.000000 2.444260 
# 
# From -- ./inp_files/25541.got.cif
#   From: 2010.05.17/outbox.cif.g08.bks.cpg/sg15_13_cif.got.tgz:25541.got - 2010.06.03 18:47:42.
