data_PCOD9261862
_publ_section_title
;
Structure prediction by ZEFSAII (Michael W. Deem and Ramdas Pophale) SiO2 
 PCOD9261862
Probable space group: C 2/C
;
_chemical_formula_sum "Si O2"
_cell_formula_units_Z 48
_cell_length_a 11.371132
_cell_length_b 28.151870
_cell_length_c 11.476685
_cell_angle_alpha 90.000000
_cell_angle_beta 39.386232
_cell_angle_gamma 90.000000
_cell_volume 2331.254605
_symmetry_space_group_name_H-M "C 2/C"
_symmetry_group_IT_number 15
_symmetry_cell_setting 'monoclinic'
loop_
_space_group_symop_operation_xyz
x,y,z
-x,y,1/2-z
-x,-y,-z
x,-y,1/2+z
1/2+x,1/2+y,z
1/2-x,1/2+y,1/2-z
1/2-x,1/2-y,-z
1/2+x,1/2-y,1/2+z
loop_
_atom_site_type_symbol
_atom_site_label
_atom_site_fract_x
_atom_site_fract_y
_atom_site_fract_z
Si Si1 0.184350 0.715418 0.157618
Si Si2 0.438940 0.310274 0.162270
Si Si3 0.790756 0.396723 0.220759
Si Si4 0.934761 0.053837 0.078324
Si Si5 0.112190 0.537047 0.498853
Si Si6 0.791415 0.047877 0.951425
O O1 0.121295 0.755161 0.297501
O O2 0.000000 0.689849 0.250000
O O3 0.250000 0.750000 0.000000
O O4 0.363526 0.685571 0.054287
O O5 0.500000 0.322988 0.250000
O O6 0.269442 0.342513 0.251587
O O7 0.623604 0.416951 0.428041
O O8 0.780672 0.419026 0.097259
O O9 0.981610 0.418140 0.122438
O O10 0.799667 0.053529 0.290872
O O11 0.811314 0.070445 0.062258
O O12 0.000000 0.000000 0.000000
O O13 0.179998 0.501187 0.546675
O O14 0.000000 0.500000 0.500000
O O15 0.000000 0.036603 0.750000
#
# Coordination Sequence:
#
# PCOD9261862 Si02
#       6
#     8   8   8   8   8   8
#     4   7  13  25  43  58  80 113 143 178 231 283
#     4   9  15  29  44  60  90 115 153 195 228 274
#     4  10  20  31  44  66  92 121 162 202 218 269
#     4  11  18  32  47  64  92 125 164 192 235 272
#     4  10  19  32  44  65  92 120 165 193 231 270
#     4   9  17  30  49  62  90 128 160 194 233 265
#
# _framework density 20.589772
#
# number of rings (size 3 to 8) (size 9 to 14) (size 15 to 20)
#    0.000    3.000    5.000    1.500    0.000    2.667 
#    9.000    0.000    0.000    0.000    0.000    0.000 
#    0.000    0.000    0.000   10.500    0.000    1.667 
#
# Total GULP energy -133606.706676 kJ/mol
# GULP energy per Si atom -5566.946111 kJ/mol
# Density = 2.054291 g / cm^3
# Si number density = 20.589772 Si / 1000 Ang^3
#
#
#
# Elastic Constant Matrix: (Units=GPa)
#
#
# Indices 1 2 3 4 5 6 
#
# 1 22.2508 12.5832 7.9091 0.0000 -8.2617 0.0000
# 2 12.5832 66.3031 17.8509 0.0000 -14.7538 0.0000
# 3 7.9091 17.8509 93.8978 0.0000 -11.5169 0.0000
# 4 0.0000 0.0000 0.0000 21.4151 0.0000 -12.9372
# 5 -8.2617 -14.7538 -11.5169 0.0000 17.5801 0.0000
# 6 0.0000 0.0000 0.0000 -12.9372 0.0000 20.8606
#
#
#
# Elastic Compliance Matrix: (Units=1/GPa)
#
#
# Indices 1 2 3 4 5 6 
#
# 1 0.056355 -0.005740 -0.001085 0.000000 0.020956 0.000000
# 2 -0.005740 0.019401 -0.001673 0.000000 0.012488 0.000000
# 3 -0.001085 -0.001673 0.011770 0.000000 0.005797 0.000000
# 4 0.000000 0.000000 0.000000 0.074673 0.000000 0.046310
# 5 0.020956 0.012488 0.005797 0.000000 0.081009 0.000000
# 6 0.000000 0.000000 0.000000 0.046310 0.000000 0.076658
#
#
# Mechanical properties :
#
#
# Convention : Reuss Voigt Hill
#
# Bulk Modulus (GPa) = 14.17848 28.79313 21.48581
# Shear Modulus (GPa) = 13.87455 21.57839 17.72647
#
# Velocity S-wave (km/s) = 2.59869 3.24082 2.93735
# Velocity P-wave (km/s) = 3.98816 5.29324 4.68635
#
# Compressibility (1/GPa) = 0.07052940
#
# Stress axis : x y z
#
# Youngs Moduli (GPa) = 17.74473 51.54375 84.95925
#
# Poissons Ratio (x) = 0.29586 0.09221
# Poissons Ratio (y) = 0.10185 0.14215
# Poissons Ratio (z) = 0.01926 0.08624
#
# Static dielectric constant tensor:
#      x y z
#    x 1.849370 0.000000 0.006440 
#    y 0.000000 1.806240 0.000000 
#    z 0.006440 0.000000 1.846230 
# 
# From -- ./inp_files/157371.got.cif
#   From: 2010.05.17/outbox.cif.g08.bks.cpg/sg15_79_cif.got.tgz:157371.got - 2010.06.03 18:47:42.
