data_PCOD9261653
_publ_section_title
;
Structure prediction by ZEFSAII (Michael W. Deem and Ramdas Pophale) SiO2 
 PCOD9261653
Probable space group: C 2/C
;
_chemical_formula_sum "Si O2"
_cell_formula_units_Z 56
_cell_length_a 5.422599
_cell_length_b 28.737462
_cell_length_c 23.188684
_cell_angle_alpha 90.000000
_cell_angle_beta 49.517660
_cell_angle_gamma 90.000000
_cell_volume 2748.475116
_symmetry_space_group_name_H-M "C 2/C"
_symmetry_group_IT_number 15
_symmetry_cell_setting 'monoclinic'
loop_
_space_group_symop_operation_xyz
x,y,z
-x,y,1/2-z
-x,-y,-z
x,-y,1/2+z
1/2+x,1/2+y,z
1/2-x,1/2+y,1/2-z
1/2-x,1/2-y,-z
1/2+x,1/2-y,1/2+z
loop_
_atom_site_type_symbol
_atom_site_label
_atom_site_fract_x
_atom_site_fract_y
_atom_site_fract_z
Si Si1 0.388409 0.484775 0.413235
Si Si2 0.906665 0.447746 0.404679
Si Si3 0.396260 0.591331 0.115773
Si Si4 0.216932 0.694642 0.004269
Si Si5 0.259759 0.860552 0.664327
Si Si6 0.841601 0.647041 0.958492
Si Si7 0.254154 0.995707 0.748732
O O1 0.526774 0.453616 0.444323
O O2 0.512567 0.537138 0.403583
O O3 0.578041 0.473022 0.323661
O O4 0.026782 0.475378 0.443892
O O5 0.003240 0.394126 0.396713
O O6 0.072510 0.472923 0.325035
O O7 0.537237 0.609986 0.154393
O O8 0.622787 0.616795 0.034955
O O9 0.035115 0.607826 0.153688
O O10 0.578244 0.675464 0.962035
O O11 0.969867 0.675253 0.091880
O O12 0.077412 0.676577 0.963928
O O13 0.250000 0.750000 0.000000
O O14 0.000000 0.840305 0.750000
O O15 0.500000 0.966506 0.750000
O O16 0.000000 0.967617 0.750000
#
# Coordination Sequence:
#
# PCOD9261653 Si02
#       7
#     8   8   8   8   8   8   8
#     4  10  19  31  48  72 107 154 195 224 258 305
#     4  10  19  31  49  72 106 145 183 226 260 307
#     4  10  21  34  51  80 114 146 185 226 266 317
#     4  10  21  40  63  83 107 139 176 224 288 356
#     4  10  21  36  57  83 112 140 174 230 283 328
#     4  10  21  36  55  83 109 139 181 225 279 330
#     4   8  16  28  42  63  91 135 182 218 250 287
#
# _framework density 20.374935000000001
#
# number of rings (size 3 to 8) (size 9 to 14) (size 15 to 20)
#    0.000    2.286    0.000    2.571    0.000    6.286 
#    0.000    0.000    0.000    7.714    0.000    0.000 
#    0.000    0.000    0.000    0.000    0.000    0.000 
#
# Total GULP energy -155971.192983 kJ/mol
# GULP energy per Si atom -5570.399749 kJ/mol
# Density = 2.032856 g / cm^3
# Si number density = 20.374935 Si / 1000 Ang^3
#
#
#
# Elastic Constant Matrix: (Units=GPa)
#
#
# Indices 1 2 3 4 5 6 
#
# 1 223.2038 71.9643 27.6779 0.0000 28.7718 0.0000
# 2 71.9643 137.7178 22.7525 0.0000 10.2880 0.0000
# 3 27.6779 22.7525 58.5247 0.0000 -2.2564 0.0000
# 4 0.0000 0.0000 0.0000 22.3617 0.0000 -0.0607
# 5 28.7718 10.2880 -2.2564 0.0000 27.1650 0.0000
# 6 0.0000 0.0000 0.0000 -0.0607 0.0000 29.0081
#
#
#
# Elastic Compliance Matrix: (Units=1/GPa)
#
#
# Indices 1 2 3 4 5 6 
#
# 1 0.006330 -0.002491 -0.002254 0.000000 -0.005948 0.000000
# 2 -0.002491 0.009027 -0.002369 0.000000 -0.000978 0.000000
# 3 -0.002254 -0.002369 0.019262 0.000000 0.004885 0.000000
# 4 0.000000 0.000000 0.000000 0.044720 0.000000 0.000094
# 5 -0.005948 -0.000978 0.004885 0.000000 0.043888 0.000000
# 6 0.000000 0.000000 0.000000 0.000094 0.000000 0.034473
#
#
# Mechanical properties :
#
#
# Convention : Reuss Voigt Hill
#
# Bulk Modulus (GPa) = 49.04271 73.80396 61.42333
# Shear Modulus (GPa) = 27.97588 35.51039 31.74314
#
# Velocity S-wave (km/s) = 3.70949 4.17927 3.95137
# Velocity P-wave (km/s) = 6.51686 7.71945 7.14351
#
# Compressibility (1/GPa) = 0.02039039
#
# Stress axis : x y z
#
# Youngs Moduli (GPa) = 157.99033 110.77641 51.91460
#
# Poissons Ratio (x) = 0.27591 0.11704
# Poissons Ratio (y) = 0.39351 0.12300
# Poissons Ratio (z) = 0.35617 0.26246
#
# Static dielectric constant tensor:
#      x y z
#    x 1.892280 0.000000 -0.081330 
#    y 0.000000 1.701900 0.000000 
#    z -0.081330 0.000000 1.885890 
# 
# From -- ./inp_files/261636.got.cif
#   From: 2010.05.17/outbox.cif.g08.bks.cpg/sg15_131_cif.got.tgz:261636.got - 2010.06.03 18:47:42.
