data_PCOD9261553
_publ_section_title
;
Structure prediction by ZEFSAII (Michael W. Deem and Ramdas Pophale) SiO2 
 PCOD9261553
Probable space group: C 2/C
;
_chemical_formula_sum "Si O2"
_cell_formula_units_Z 56
_cell_length_a 23.367584
_cell_length_b 16.275406
_cell_length_c 12.968754
_cell_angle_alpha 90.000000
_cell_angle_beta 145.346309
_cell_angle_gamma 90.000000
_cell_volume 2804.542909
_symmetry_space_group_name_H-M "C 2/C"
_symmetry_group_IT_number 15
_symmetry_cell_setting 'monoclinic'
loop_
_space_group_symop_operation_xyz
x,y,z
-x,y,1/2-z
-x,-y,-z
x,-y,1/2+z
1/2+x,1/2+y,z
1/2-x,1/2+y,1/2-z
1/2-x,1/2-y,-z
1/2+x,1/2-y,1/2+z
loop_
_atom_site_type_symbol
_atom_site_label
_atom_site_fract_x
_atom_site_fract_y
_atom_site_fract_z
Si Si1 0.427960 0.264005 0.042697
Si Si2 0.519453 0.209458 0.590762
Si Si3 0.500000 0.454516 0.750000
Si Si4 0.500000 0.079155 0.750000
Si Si5 0.712786 0.075786 0.067152
Si Si6 0.579605 0.548382 0.047287
Si Si7 0.201215 0.256873 0.678267
Si Si8 0.336008 0.663504 0.085204
O O1 0.500000 0.263167 0.250000
O O2 0.457693 0.199069 0.996589
O O3 0.435283 0.353551 0.993975
O O4 0.309488 0.249758 0.894026
O O5 0.510906 0.136695 0.663544
O O6 0.407547 0.251000 0.428563
O O7 0.612299 0.263767 0.772696
O O8 0.428865 0.510612 0.577578
O O9 0.570961 0.398003 0.787327
O O10 0.394433 0.032182 0.591085
O O11 0.810831 0.027812 0.246532
O O12 0.702825 0.151898 0.131371
O O13 0.746349 0.117972 0.010175
O O14 0.500000 0.500000 0.000000
O O15 0.195630 0.195692 0.572852
#
# Coordination Sequence:
#
# PCOD9261553 Si02
#       8
#     8   8   4   4   8   8   8   8
#     4  11  23  36  50  75 120 156 180 217 272 345
#     4  11  17  31  54  81 110 136 178 227 281 328
#     4  12  21  32  54  84 112 137 184 228 286 328
#     4  10  19  32  56  88 106 135 186 234 284 326
#     4  10  19  31  53  79 116 138 174 230 284 324
#     4  11  21  35  52  80 110 146 188 228 270 323
#     4  10  19  30  52  81 107 141 178 228 285 322
#     4  12  17  31  55  86 108 134 174 244 289 315
#
# _framework density 19.967604000000001
#
# number of rings (size 3 to 8) (size 9 to 14) (size 15 to 20)
#    0.000    1.143    9.286    1.286    0.000    0.571 
#    0.000    0.000    0.000    0.857    1.857    0.000 
#    0.000    0.000    0.000    0.000    0.000    0.000 
#
# Total GULP energy -155954.086428 kJ/mol
# GULP energy per Si atom -5569.788801 kJ/mol
# Density = 1.992216 g / cm^3
# Si number density = 19.967604 Si / 1000 Ang^3
#
#
#
# Elastic Constant Matrix: (Units=GPa)
#
#
# Indices 1 2 3 4 5 6 
#
# 1 58.7679 -7.0830 26.6842 0.0000 18.9275 0.0000
# 2 -7.0830 13.7479 6.8070 0.0000 -1.2799 0.0000
# 3 26.6842 6.8070 138.4674 0.0000 18.6441 0.0000
# 4 0.0000 0.0000 0.0000 28.7067 0.0000 14.7835
# 5 18.9275 -1.2799 18.6441 0.0000 42.3934 0.0000
# 6 0.0000 0.0000 0.0000 14.7835 0.0000 16.9035
#
#
#
# Elastic Compliance Matrix: (Units=1/GPa)
#
#
# Indices 1 2 3 4 5 6 
#
# 1 0.023020 0.013076 -0.003984 0.000000 -0.008131 0.000000
# 2 0.013076 0.082658 -0.006519 0.000000 -0.000475 0.000000
# 3 -0.003984 -0.006519 0.008607 0.000000 -0.002203 0.000000
# 4 0.000000 0.000000 0.000000 0.063382 0.000000 -0.055433
# 5 -0.008131 -0.000475 -0.002203 0.000000 0.028173 0.000000
# 6 0.000000 0.000000 0.000000 -0.055433 0.000000 0.107640
#
#
# Mechanical properties :
#
#
# Convention : Reuss Voigt Hill
#
# Bulk Modulus (GPa) = 8.37315 29.31109 18.84212
# Shear Modulus (GPa) = 14.36179 29.90570 22.13374
#
# Velocity S-wave (km/s) = 2.68480 3.87423 3.33300
# Velocity P-wave (km/s) = 3.71663 5.89271 4.92633
#
# Compressibility (1/GPa) = 0.11942937
#
# Stress axis : x y z
#
# Youngs Moduli (GPa) = 43.44088 12.09797 116.18649
#
# Poissons Ratio (x) = -0.15819 0.46291
# Poissons Ratio (y) = -0.56802 0.75745
# Poissons Ratio (z) = 0.17308 0.07887
#
# Static dielectric constant tensor:
#      x y z
#    x 1.683970 0.000000 0.043300 
#    y 0.000000 1.774300 0.000000 
#    z 0.043300 0.000000 1.737730 
# 
# From -- ./inp_files/178462.got.cif
#   From: 2010.05.17/outbox.cif.g08.bks.cpg/sg15_90_cif.got.tgz:178462.got - 2010.06.03 18:47:42.
