data_PCOD9261721
_publ_section_title
;
Structure prediction by ZEFSAII (Michael W. Deem and Ramdas Pophale) SiO2 
 PCOD9261721
Probable space group: C 2/C
;
_chemical_formula_sum "Si O2"
_cell_formula_units_Z 40
_cell_length_a 14.817552
_cell_length_b 27.485516
_cell_length_c 5.233757
_cell_angle_alpha 90.000000
_cell_angle_beta 64.863953
_cell_angle_gamma 90.000000
_cell_volume 1929.688747
_symmetry_space_group_name_H-M "C 2/C"
_symmetry_group_IT_number 15
_symmetry_cell_setting 'monoclinic'
loop_
_space_group_symop_operation_xyz
x,y,z
-x,y,1/2-z
-x,-y,-z
x,-y,1/2+z
1/2+x,1/2+y,z
1/2-x,1/2+y,1/2-z
1/2-x,1/2-y,-z
1/2+x,1/2-y,1/2+z
loop_
_atom_site_type_symbol
_atom_site_label
_atom_site_fract_x
_atom_site_fract_y
_atom_site_fract_z
Si Si1 0.338900 0.129766 0.821280
Si Si2 0.640560 0.809137 0.715780
Si Si3 0.387161 0.979991 0.172363
Si Si4 0.603265 0.352778 0.572150
Si Si5 0.873701 0.205551 0.962589
O O1 0.364977 0.157085 0.526913
O O2 0.381593 0.075617 0.760857
O O3 0.384841 0.160302 0.001515
O O4 0.216270 0.127277 0.984898
O O5 0.755079 0.795303 0.628637
O O6 0.596299 0.757062 0.694154
O O7 0.339048 0.011995 0.453926
O O8 0.500000 0.000000 0.000000
O O9 0.500000 0.382030 0.750000
O O10 0.593202 0.308892 0.792803
O O11 0.602275 0.334583 0.281359
#
# Coordination Sequence:
#
# PCOD9261721 Si02
#       5
#     8   8   8   8   8
#     4  10  19  33  56  81  99 140 187 219 275 327
#     4   9  17  30  52  78 103 137 185 228 249 322
#     4  10  21  38  61  79 102 134 168 231 289 343
#     4  10  19  31  51  75 112 146 183 217 252 327
#     4   9  17  30  49  74 107 148 181 214 268 293
#
# _framework density 20.728731
#
# number of rings (size 3 to 8) (size 9 to 14) (size 15 to 20)
#    0.000    2.400    0.000    3.000    0.000    4.800 
#    0.000    0.000   44.000    1.200    0.000    0.000 
#    0.000    0.000    0.000    0.000    0.000    0.000 
#
# Total GULP energy -111411.217919 kJ/mol
# GULP energy per Si atom -5570.560896 kJ/mol
# Density = 2.068155 g / cm^3
# Si number density = 20.728731 Si / 1000 Ang^3
#
#
#
# Elastic Constant Matrix: (Units=GPa)
#
#
# Indices 1 2 3 4 5 6 
#
# 1 82.0130 17.0278 47.3708 0.0000 -2.4124 0.0000
# 2 17.0278 103.6722 32.0575 0.0000 5.3089 0.0000
# 3 47.3708 32.0575 99.0575 0.0000 35.6750 0.0000
# 4 0.0000 0.0000 0.0000 26.2084 0.0000 -10.2880
# 5 -2.4124 5.3089 35.6750 0.0000 43.0123 0.0000
# 6 0.0000 0.0000 0.0000 -10.2880 0.0000 27.6606
#
#
#
# Elastic Compliance Matrix: (Units=1/GPa)
#
#
# Indices 1 2 3 4 5 6 
#
# 1 0.021400 0.000542 -0.015424 0.000000 0.013927 0.000000
# 2 0.000542 0.010882 -0.004717 0.000000 0.002600 0.000000
# 3 -0.015424 -0.004717 0.027235 0.000000 -0.022872 0.000000
# 4 0.000000 0.000000 0.000000 0.044679 0.000000 0.016618
# 5 0.013927 0.002600 -0.022872 0.000000 0.042680 0.000000
# 6 0.000000 0.000000 0.000000 0.016618 0.000000 0.042333
#
#
# Mechanical properties :
#
#
# Convention : Reuss Voigt Hill
#
# Bulk Modulus (GPa) = 49.21917 53.07277 51.14597
# Shear Modulus (GPa) = 21.26018 31.92870 26.59444
#
# Velocity S-wave (km/s) = 3.20603 3.92894 3.58575
# Velocity P-wave (km/s) = 6.12379 6.80008 6.47078
#
# Compressibility (1/GPa) = 0.02031729
#
# Stress axis : x y z
#
# Youngs Moduli (GPa) = 46.72992 91.89235 36.71721
#
# Poissons Ratio (x) = -0.04977 0.56634
# Poissons Ratio (y) = -0.02531 0.17320
# Poissons Ratio (z) = 0.72078 0.43346
#
# Static dielectric constant tensor:
#      x y z
#    x 1.853620 0.000000 -0.035930 
#    y 0.000000 1.730810 0.000000 
#    z -0.035930 0.000000 1.785610 
# 
# From -- ./inp_files/11045.got.cif
#   From: 2010.05.17/outbox.cif.g08.bks.cpg/sg15_6_cif.got.tgz:11045.got - 2010.06.03 18:47:42.
