data_PCOD9261585
_publ_section_title
;
Structure prediction by ZEFSAII (Michael W. Deem and Ramdas Pophale) SiO2 
 PCOD9261585
Probable space group: C 2/C
;
_chemical_formula_sum "Si O2"
_cell_formula_units_Z 56
_cell_length_a 20.237549
_cell_length_b 11.465146
_cell_length_c 13.436950
_cell_angle_alpha 90.000000
_cell_angle_beta 86.465236
_cell_angle_gamma 90.000000
_cell_volume 3111.796613
_symmetry_space_group_name_H-M "C 2/C"
_symmetry_group_IT_number 15
_symmetry_cell_setting 'monoclinic'
loop_
_space_group_symop_operation_xyz
x,y,z
-x,y,1/2-z
-x,-y,-z
x,-y,1/2+z
1/2+x,1/2+y,z
1/2-x,1/2+y,1/2-z
1/2-x,1/2-y,-z
1/2+x,1/2-y,1/2+z
loop_
_atom_site_type_symbol
_atom_site_label
_atom_site_fract_x
_atom_site_fract_y
_atom_site_fract_z
Si Si1 0.024571 0.614407 0.858946
Si Si2 0.764908 0.367186 0.558474
Si Si3 0.789793 0.997883 0.601333
Si Si4 0.345659 0.745082 0.112185
Si Si5 0.412730 0.947665 0.492222
Si Si6 0.719929 0.278864 0.256719
Si Si7 0.155317 0.354974 0.605069
O O1 0.084337 0.706428 0.857216
O O2 0.000000 0.596258 0.750000
O O3 0.961146 0.643301 0.934451
O O4 0.054929 0.501148 0.911744
O O5 0.750000 0.250000 0.500000
O O6 0.714998 0.459440 0.513356
O O7 0.839860 0.404662 0.526462
O O8 0.761144 0.329205 0.672480
O O9 0.841111 0.894623 0.614881
O O10 0.718633 0.936020 0.622280
O O11 0.795004 0.108305 0.674246
O O12 0.284634 0.797597 0.181886
O O13 0.335133 0.788089 0.000057
O O14 0.403265 0.054531 0.413791
O O15 0.658515 0.237569 0.194027
#
# Coordination Sequence:
#
# PCOD9261585 Si02
#       7
#     8   8   8   8   8   8   8
#     4  10  22  34  57  77 104 146 182 228 257 323
#     4   9  19  32  53  81 110 137 171 227 270 326
#     4   9  18  32  49  77 114 139 170 218 273 321
#     4  10  21  34  50  80 111 142 179 221 271 327
#     4   9  20  38  53  82 110 136 184 224 282 308
#     4  10  19  30  55  86 106 142 177 219 279 330
#     4   9  19  32  52  76 113 137 173 223 270 329
#
# _framework density 17.996034000000002
#
# number of rings (size 3 to 8) (size 9 to 14) (size 15 to 20)
#    0.000    2.571    0.000    1.714    8.000    8.000 
#    0.000    0.000    0.000    3.429   14.857    0.000 
#    0.000    0.000    0.000    0.000    0.000    0.000 
#
# Total GULP energy -155899.894017 kJ/mol
# GULP energy per Si atom -5567.853358 kJ/mol
# Density = 1.795507 g / cm^3
# Si number density = 17.996034 Si / 1000 Ang^3
#
#
#
# Elastic Constant Matrix: (Units=GPa)
#
#
# Indices 1 2 3 4 5 6 
#
# 1 72.9304 31.1705 37.4944 0.0000 17.6030 0.0000
# 2 31.1705 69.6380 30.9283 0.0000 13.3862 0.0000
# 3 37.4944 30.9283 103.7085 0.0000 33.0144 0.0000
# 4 0.0000 0.0000 0.0000 21.9953 0.0000 0.3533
# 5 17.6030 13.3862 33.0144 0.0000 25.3132 0.0000
# 6 0.0000 0.0000 0.0000 0.3533 0.0000 16.5977
#
#
#
# Elastic Compliance Matrix: (Units=1/GPa)
#
#
# Indices 1 2 3 4 5 6 
#
# 1 0.019464 -0.006089 -0.003313 0.000000 -0.005995 0.000000
# 2 -0.006089 0.018692 -0.002692 0.000000 -0.002140 0.000000
# 3 -0.003313 -0.002692 0.017880 0.000000 -0.019592 0.000000
# 4 0.000000 0.000000 0.000000 0.045480 0.000000 -0.000968
# 5 -0.005995 -0.002140 -0.019592 0.000000 0.070359 0.000000
# 6 0.000000 0.000000 0.000000 -0.000968 0.000000 0.060270
#
#
# Mechanical properties :
#
#
# Convention : Reuss Voigt Hill
#
# Bulk Modulus (GPa) = 31.39773 49.49591 40.44682
# Shear Modulus (GPa) = 18.73025 22.56015 20.64520
#
# Velocity S-wave (km/s) = 3.22964 3.54449 3.39072
# Velocity P-wave (km/s) = 5.60289 6.65693 6.15252
#
# Compressibility (1/GPa) = 0.03184944
#
# Stress axis : x y z
#
# Youngs Moduli (GPa) = 51.37664 53.49823 55.92877
#
# Poissons Ratio (x) = 0.32573 0.18528
# Poissons Ratio (y) = 0.31281 0.15056
# Poissons Ratio (z) = 0.17020 0.14402
#
# Static dielectric constant tensor:
#      x y z
#    x 1.637760 0.000000 -0.005040 
#    y 0.000000 1.658210 0.000000 
#    z -0.005040 0.000000 1.669190 
# 
# From -- ./inp_files/111069.got.cif
#   From: 2010.05.17/outbox.cif.g08.bks.cpg/sg15_56_cif.got.tgz:111069.got - 2010.06.03 18:47:42.
