data_PCOD9261514
_publ_section_title
;
Structure prediction by ZEFSAII (Michael W. Deem and Ramdas Pophale) SiO2 
 PCOD9261514
Probable space group: C 2/C
;
_chemical_formula_sum "Si O2"
_cell_formula_units_Z 64
_cell_length_a 26.364618
_cell_length_b 5.253680
_cell_length_c 30.539930
_cell_angle_alpha 90.000000
_cell_angle_beta 120.174561
_cell_angle_gamma 90.000000
_cell_volume 3656.934295
_symmetry_space_group_name_H-M "C 2/C"
_symmetry_group_IT_number 15
_symmetry_cell_setting 'monoclinic'
loop_
_space_group_symop_operation_xyz
x,y,z
-x,y,1/2-z
-x,-y,-z
x,-y,1/2+z
1/2+x,1/2+y,z
1/2-x,1/2+y,1/2-z
1/2-x,1/2-y,-z
1/2+x,1/2-y,1/2+z
loop_
_atom_site_type_symbol
_atom_site_label
_atom_site_fract_x
_atom_site_fract_y
_atom_site_fract_z
Si Si1 0.902732 0.499482 0.140046
Si Si2 0.560517 0.494700 0.800005
Si Si3 0.919841 0.547962 0.310067
Si Si4 0.999935 0.975523 0.948021
Si Si5 0.460803 0.976132 0.583517
Si Si6 0.882492 0.955153 0.842604
Si Si7 0.245418 0.096478 0.718326
Si Si8 0.144912 0.344379 0.297050
O O1 0.925964 0.775190 0.162563
O O2 0.849334 0.454105 0.151082
O O3 0.967155 0.785610 0.059938
O O4 0.902670 0.490042 0.087773
O O5 0.500000 0.542105 0.750000
O O6 0.556497 0.233107 0.825576
O O7 0.615401 0.432084 0.791924
O O8 0.985499 0.527204 0.357712
O O9 0.898310 0.827371 0.314033
O O10 0.905176 0.492504 0.253047
O O11 0.885886 0.321864 0.321513
O O12 0.933097 0.973548 0.900849
O O13 0.028482 0.713997 0.943445
O O14 0.000000 0.000000 0.000000
O O15 0.817263 0.022355 0.829611
O O16 0.239535 0.353829 0.744396
O O17 0.296182 0.142050 0.704892
#
# Coordination Sequence:
#
# PCOD9261514 Si02
#       8
#     8   8   8   8   8   8   8   8
#     4  10  22  33  45  73 102 143 172 209 251 306
#     4  10  21  31  45  67  99 138 182 209 240 290
#     4  10  19  30  50  71 104 138 175 208 243 301
#     4  10  21  37  59  81 103 128 170 223 276 322
#     4  10  20  34  53  78 107 133 164 213 267 321
#     4  10  20  35  49  77 101 138 176 212 261 301
#     4  12  22  35  50  72 105 148 182 214 248 297
#     4  10  23  31  49  69 106 142 186 200 248 289
#
# _framework density 17.501000000000001
#
# number of rings (size 3 to 8) (size 9 to 14) (size 15 to 20)
#    0.750    1.000    2.500    2.250    5.250    1.000 
#    0.000    0.000    0.000    0.000    0.000    1.750 
#    0.000    0.000    0.000    0.000    0.000    0.000 
#
# Total GULP energy -178275.441650 kJ/mol
# GULP energy per Si atom -5571.107552 kJ/mol
# Density = 1.746117 g / cm^3
# Si number density = 17.501000 Si / 1000 Ang^3
#
#
#
# Elastic Constant Matrix: (Units=GPa)
#
#
# Indices 1 2 3 4 5 6 
#
# 1 79.2832 22.4992 27.1094 0.0021 -27.7206 0.0015
# 2 22.4992 89.3136 17.6422 0.0066 -7.2354 0.0043
# 3 27.1094 17.6422 66.1836 0.0031 -18.8747 -0.0033
# 4 0.0021 0.0066 0.0031 18.9272 -0.0035 -5.9150
# 5 -27.7206 -7.2354 -18.8747 -0.0035 23.2618 0.0004
# 6 0.0015 0.0043 -0.0033 -5.9150 0.0004 10.2707
#
#
#
# Elastic Compliance Matrix: (Units=1/GPa)
#
#
# Indices 1 2 3 4 5 6 
#
# 1 0.022787 -0.003461 -0.001267 0.000003 0.025050 -0.000002
# 2 -0.003461 0.012382 -0.002551 -0.000007 -0.002343 -0.000009
# 3 -0.001267 -0.002551 0.020364 0.000003 0.014220 0.000009
# 4 0.000003 -0.000007 0.000003 0.064430 0.000013 0.037106
# 5 0.025050 -0.002343 0.014220 0.000013 0.083649 0.000006
# 6 -0.000002 -0.000009 0.000009 0.037106 0.000006 0.118734
#
#
# Mechanical properties :
#
#
# Convention : Reuss Voigt Hill
#
# Bulk Modulus (GPa) = 24.40524 41.03132 32.71828
# Shear Modulus (GPa) = 14.26274 21.66059 17.96166
#
# Velocity S-wave (km/s) = 2.85786 3.52188 3.20710
# Velocity P-wave (km/s) = 4.98650 6.32726 5.69646
#
# Compressibility (1/GPa) = 0.04097480
#
# Stress axis : x y z
#
# Youngs Moduli (GPa) = 43.88485 80.75932 49.10645
#
# Poissons Ratio (x) = 0.27948 0.06223
# Poissons Ratio (y) = 0.15187 0.12529
# Poissons Ratio (z) = 0.05562 0.20604
#
# Static dielectric constant tensor:
#      x y z
#    x 1.656850 0.000000 -0.029330 
#    y 0.000000 1.608490 0.000000 
#    z -0.029330 0.000000 1.585390 
# 
# From -- ./inp_files/280999.got.cif
#   From: 2010.05.17/outbox.cif.g08.bks.cpg/sg15_141_cif.got.tgz:280999.got - 2010.06.03 18:47:42.
