data_PCOD9261582
_publ_section_title
;
Structure prediction by ZEFSAII (Michael W. Deem and Ramdas Pophale) SiO2 
 PCOD9261582
Probable space group: C 2/C
;
_chemical_formula_sum "Si O2"
_cell_formula_units_Z 56
_cell_length_a 10.416692
_cell_length_b 20.722222
_cell_length_c 17.846128
_cell_angle_alpha 90.000000
_cell_angle_beta 48.566684
_cell_angle_gamma 90.000000
_cell_volume 2888.104857
_symmetry_space_group_name_H-M "C 2/C"
_symmetry_group_IT_number 15
_symmetry_cell_setting 'monoclinic'
loop_
_space_group_symop_operation_xyz
x,y,z
-x,y,1/2-z
-x,-y,-z
x,-y,1/2+z
1/2+x,1/2+y,z
1/2-x,1/2+y,1/2-z
1/2-x,1/2-y,-z
1/2+x,1/2-y,1/2+z
loop_
_atom_site_type_symbol
_atom_site_label
_atom_site_fract_x
_atom_site_fract_y
_atom_site_fract_z
Si Si1 0.382026 0.510430 0.658133
Si Si2 0.913720 0.708137 0.201576
Si Si3 0.821261 0.361142 0.998140
Si Si4 0.181562 0.891485 0.711557
Si Si5 0.957296 0.429421 0.483449
Si Si6 0.268500 0.005541 0.444329
Si Si7 0.941642 0.851588 0.187898
O O1 0.340806 0.460661 0.739780
O O2 0.583458 0.502146 0.558172
O O3 0.271091 0.495752 0.627682
O O4 0.352507 0.584356 0.692506
O O5 0.765227 0.657681 0.238556
O O6 0.000000 0.699647 0.250000
O O7 0.060783 0.693061 0.083504
O O8 0.853067 0.782134 0.218714
O O9 0.847030 0.425646 0.937843
O O10 0.884720 0.382852 0.056732
O O11 0.622551 0.344997 0.074356
O O12 0.306544 0.900428 0.592772
O O13 0.000000 0.869261 0.750000
O O14 0.886686 0.447251 0.428900
O O15 0.000000 0.500000 0.500000
O O16 0.000000 0.864225 0.250000
#
# Coordination Sequence:
#
# PCOD9261582 Si02
#       7
#     8   8   8   8   8   8   8
#     4  10  19  30  55  82 110 141 182 228 278 324
#     4  10  21  37  57  83 110 147 194 236 279 338
#     4   9  18  33  57  78 110 144 185 231 277 332
#     4  11  20  34  59  82 109 148 189 231 283 335
#     4   9  18  31  51  79 113 139 177 229 278 333
#     4   9  17  31  49  85 110 138 174 231 276 327
#     4  10  21  35  57  79 110 147 189 228 283 338
#
# _framework density 19.389878
#
# number of rings (size 3 to 8) (size 9 to 14) (size 15 to 20)
#    0.000    2.286    1.429    1.714    4.000    0.000 
#    0.000    0.000    6.286    1.714    0.000    0.000 
#    0.000    0.000    0.000    0.000    0.000    0.000 
#
# Total GULP energy -156195.105211 kJ/mol
# GULP energy per Si atom -5578.396615 kJ/mol
# Density = 1.934575 g / cm^3
# Si number density = 19.389878 Si / 1000 Ang^3
#
#
#
# Elastic Constant Matrix: (Units=GPa)
#
#
# Indices 1 2 3 4 5 6 
#
# 1 85.8023 46.7984 -0.8449 0.0000 3.6357 0.0000
# 2 46.7984 99.7948 7.7800 0.0000 3.5286 0.0000
# 3 -0.8449 7.7800 20.6832 0.0000 -0.3822 0.0000
# 4 0.0000 0.0000 0.0000 20.1828 0.0000 -2.2905
# 5 3.6357 3.5286 -0.3822 0.0000 23.4060 0.0000
# 6 0.0000 0.0000 0.0000 -2.2905 0.0000 9.3974
#
#
#
# Elastic Compliance Matrix: (Units=1/GPa)
#
#
# Indices 1 2 3 4 5 6 
#
# 1 0.015947 -0.007709 0.003528 0.000000 -0.001257 0.000000
# 2 -0.007709 0.014112 -0.005642 0.000000 -0.001022 0.000000
# 3 0.003528 -0.005642 0.050636 0.000000 0.001129 0.000000
# 4 0.000000 0.000000 0.000000 0.050957 0.000000 0.012420
# 5 -0.001257 -0.001022 0.001129 0.000000 0.043092 0.000000
# 6 0.000000 0.000000 0.000000 0.012420 0.000000 0.109439
#
#
# Mechanical properties :
#
#
# Convention : Reuss Voigt Hill
#
# Bulk Modulus (GPa) = 16.38037 34.86080 25.62058
# Shear Modulus (GPa) = 15.42362 20.76703 18.09532
#
# Velocity S-wave (km/s) = 2.82343 3.27620 3.05820
# Velocity P-wave (km/s) = 4.36981 5.68588 5.07072
#
# Compressibility (1/GPa) = 0.06104867
#
# Stress axis : x y z
#
# Youngs Moduli (GPa) = 62.70615 70.86328 19.74897
#
# Poissons Ratio (x) = 0.54629 -0.06967
# Poissons Ratio (y) = 0.48341 0.11142
# Poissons Ratio (z) = -0.22123 0.39980
#
# Static dielectric constant tensor:
#      x y z
#    x 1.708430 0.000000 -0.034860 
#    y 0.000000 1.666180 0.000000 
#    z -0.034860 0.000000 1.721840 
# 
# From -- ./inp_files/239517.got.cif
#   From: 2010.05.17/outbox.cif.g08.bks.cpg/sg15_120_cif.got.tgz:239517.got - 2010.06.03 18:47:42.
