data_PCOD9261780
_publ_section_title
;
Structure prediction by ZEFSAII (Michael W. Deem and Ramdas Pophale) SiO2 
 PCOD9261780
Probable space group: C 2/C
;
_chemical_formula_sum "Si O2"
_cell_formula_units_Z 48
_cell_length_a 17.236729
_cell_length_b 13.261415
_cell_length_c 10.176844
_cell_angle_alpha 90.000000
_cell_angle_beta 125.839410
_cell_angle_gamma 90.000000
_cell_volume 1885.807086
_symmetry_space_group_name_H-M "C 2/C"
_symmetry_group_IT_number 15
_symmetry_cell_setting 'monoclinic'
loop_
_space_group_symop_operation_xyz
x,y,z
-x,y,1/2-z
-x,-y,-z
x,-y,1/2+z
1/2+x,1/2+y,z
1/2-x,1/2+y,1/2-z
1/2-x,1/2-y,-z
1/2+x,1/2-y,1/2+z
loop_
_atom_site_type_symbol
_atom_site_label
_atom_site_fract_x
_atom_site_fract_y
_atom_site_fract_z
Si Si1 0.314864 0.667941 0.632813
Si Si2 0.812214 0.478266 0.903003
Si Si3 0.365709 0.573161 0.425452
Si Si4 0.833570 0.167801 0.920952
Si Si5 0.384148 0.742493 0.256503
Si Si6 0.923789 0.452354 0.268914
O O1 0.250000 0.750000 0.500000
O O2 0.243406 0.580713 0.614363
O O3 0.377054 0.618008 0.580916
O O4 0.367786 0.708455 0.813416
O O5 0.737721 0.411797 0.747674
O O6 0.892562 0.496863 0.872846
O O7 0.841280 0.439076 0.074903
O O8 0.363225 0.451979 0.440836
O O9 0.420290 0.647713 0.379626
O O10 0.720623 0.206292 0.810589
O O11 0.874766 0.205498 0.098309
O O12 0.453172 0.839140 0.335371
O O13 0.000000 0.507002 0.250000
#
# Coordination Sequence:
#
# PCOD9261780 Si02
#       6
#     8   8   8   8   8   8
#     4  11  18  29  48  80 110 138 166 216 288 331
#     4  11  21  37  53  82 113 146 186 227 282 333
#     4  11  19  33  56  83 116 137 171 239 291 336
#     4  10  19  31  53  80 110 139 175 229 289 330
#     4  11  20  35  53  82 113 145 187 226 281 340
#     4  12  24  39  56  77 114 160 195 225 266 335
#
# _framework density 25.453292000000001
#
# number of rings (size 3 to 8) (size 9 to 14) (size 15 to 20)
#    0.000    1.000    6.667    4.500    0.000    0.000 
#    0.000    0.000    0.000    1.000    0.000    0.000 
#    0.000    0.000    0.000    0.000    0.000    0.000 
#
# Total GULP energy -133775.805642 kJ/mol
# GULP energy per Si atom -5573.991902 kJ/mol
# Density = 2.539536 g / cm^3
# Si number density = 25.453292 Si / 1000 Ang^3
#
#
#
# Elastic Constant Matrix: (Units=GPa)
#
#
# Indices 1 2 3 4 5 6 
#
# 1 54.5127 12.9913 31.2922 0.0000 -10.8855 0.0000
# 2 12.9913 119.1163 43.5822 0.0000 -19.6198 0.0000
# 3 31.2922 43.5822 165.9522 0.0000 -50.9422 0.0000
# 4 0.0000 0.0000 0.0000 43.6594 0.0000 -17.0096
# 5 -10.8855 -19.6198 -50.9422 0.0000 40.0888 0.0000
# 6 0.0000 0.0000 0.0000 -17.0096 0.0000 20.9693
#
#
#
# Elastic Compliance Matrix: (Units=1/GPa)
#
#
# Indices 1 2 3 4 5 6 
#
# 1 0.020679 -0.000867 -0.003407 0.000000 0.000861 0.000000
# 2 -0.000867 0.009463 -0.001594 0.000000 0.002370 0.000000
# 3 -0.003407 -0.001594 0.010761 0.000000 0.011969 0.000000
# 4 0.000000 0.000000 0.000000 0.033488 0.000000 0.027164
# 5 0.000861 0.002370 0.011969 0.000000 0.041548 0.000000
# 6 0.000000 0.000000 0.000000 0.027164 0.000000 0.069723
#
#
# Mechanical properties :
#
#
# Convention : Reuss Voigt Hill
#
# Bulk Modulus (GPa) = 34.28572 57.25695 45.77133
# Shear Modulus (GPa) = 24.14045 37.72453 30.93249
#
# Velocity S-wave (km/s) = 3.08299 3.85399 3.48985
# Velocity P-wave (km/s) = 5.11589 6.50754 5.85322
#
# Compressibility (1/GPa) = 0.02916666
#
# Stress axis : x y z
#
# Youngs Moduli (GPa) = 48.35884 105.67021 92.92714
#
# Poissons Ratio (x) = 0.09160 0.31663
# Poissons Ratio (y) = 0.04192 0.14815
# Poissons Ratio (z) = 0.16477 0.16846
#
# Static dielectric constant tensor:
#      x y z
#    x 2.370440 0.000000 0.099570 
#    y 0.000000 2.054500 0.000000 
#    z 0.099570 0.000000 2.029130 
# 
# From -- ./inp_files/55423.got.cif
#   From: 2010.05.17/outbox.cif.g08.bks.cpg/sg15_28_cif.got.tgz:55423.got - 2010.06.03 18:47:42.
