data_PCOD9261482
_publ_section_title
;
Structure prediction by ZEFSAII (Michael W. Deem and Ramdas Pophale) SiO2 
 PCOD9261482
Probable space group: C 2/C
;
_chemical_formula_sum "Si O2"
_cell_formula_units_Z 64
_cell_length_a 24.989009
_cell_length_b 7.307621
_cell_length_c 20.912366
_cell_angle_alpha 90.000000
_cell_angle_beta 127.215552
_cell_angle_gamma 90.000000
_cell_volume 3041.170786
_symmetry_space_group_name_H-M "C 2/C"
_symmetry_group_IT_number 15
_symmetry_cell_setting 'monoclinic'
loop_
_space_group_symop_operation_xyz
x,y,z
-x,y,1/2-z
-x,-y,-z
x,-y,1/2+z
1/2+x,1/2+y,z
1/2-x,1/2+y,1/2-z
1/2-x,1/2-y,-z
1/2+x,1/2-y,1/2+z
loop_
_atom_site_type_symbol
_atom_site_label
_atom_site_fract_x
_atom_site_fract_y
_atom_site_fract_z
Si Si1 0.163452 0.117151 0.237160
Si Si2 0.458841 0.848089 0.780299
Si Si3 0.310599 0.865578 0.863711
Si Si4 0.054453 0.723585 0.983405
Si Si5 0.828509 0.219139 0.403483
Si Si6 0.022325 0.216917 0.196035
Si Si7 0.317159 0.809615 0.723836
Si Si8 0.033054 0.720417 0.457773
O O1 0.234324 0.207742 0.310215
O O2 0.151750 0.174237 0.155536
O O3 0.097133 0.155705 0.229964
O O4 0.180727 0.903073 0.254084
O O5 0.500000 0.777262 0.750000
O O6 0.378844 0.836043 0.721110
O O7 0.485564 0.749326 0.863067
O O8 0.474423 0.062626 0.797487
O O9 0.327542 0.902345 0.800783
O O10 0.314896 0.063364 0.899510
O O11 0.368983 0.746051 0.938209
O O12 0.045169 0.500945 0.970803
O O13 0.029553 0.814592 0.899848
O O14 0.005557 0.776990 0.006087
O O15 0.754382 0.136584 0.357536
O O16 0.894260 0.185018 0.492973
O O17 0.000000 0.150289 0.250000
#
# Coordination Sequence:
#
# PCOD9261482 Si02
#       8
#     8   8   8   8   8   8   8   8
#     4  10  19  30  48  74 102 128 156 199 248 286
#     4  10  20  34  52  72  96 129 166 200 236 286
#     4   9  17  31  51  73  97 127 164 199 236 286
#     4   9  15  28  52  74  92 122 165 204 232 274
#     4   9  17  31  51  73  97 127 164 199 236 286
#     4  10  20  34  52  72  96 129 166 200 236 286
#     4  10  19  30  48  74 102 128 156 199 248 286
#     4   9  15  28  52  74  92 122 165 204 232 274
#
# _framework density 21.044526000000001
#
# number of rings (size 3 to 8) (size 9 to 14) (size 15 to 20)
#    0.000    2.500    2.500    0.750    0.000    1.500 
#    0.000    3.750    0.000    0.000    0.000    0.000 
#    0.000    0.000    0.000    0.000    0.000    0.000 
#
# Total GULP energy -178580.636613 kJ/mol
# GULP energy per Si atom -5580.644894 kJ/mol
# Density = 2.099663 g / cm^3
# Si number density = 21.044526 Si / 1000 Ang^3
#
#
#
# Elastic Constant Matrix: (Units=GPa)
#
#
# Indices 1 2 3 4 5 6 
#
# 1 144.1439 -11.9277 66.2099 0.0000 20.4130 0.0000
# 2 -11.9277 53.7137 -1.9325 0.0000 -0.3442 0.0001
# 3 66.2099 -1.9325 97.2157 0.0000 25.7395 0.0000
# 4 0.0000 0.0000 0.0000 10.6336 0.0000 8.1894
# 5 20.4130 -0.3442 25.7395 0.0000 33.2991 0.0000
# 6 0.0000 0.0001 0.0000 8.1894 0.0000 12.8840
#
#
#
# Elastic Compliance Matrix: (Units=1/GPa)
#
#
# Indices 1 2 3 4 5 6 
#
# 1 0.010349 0.002049 -0.006706 0.000000 -0.001139 0.000000
# 2 0.002049 0.019037 -0.000926 0.000000 -0.000343 0.000000
# 3 -0.006706 -0.000926 0.017287 0.000000 -0.009261 0.000000
# 4 0.000000 0.000000 0.000000 0.184221 0.000000 -0.117095
# 5 -0.001139 -0.000343 -0.009261 0.000000 0.037885 0.000000
# 6 0.000000 0.000000 0.000000 -0.117095 0.000000 0.152043
#
#
# Mechanical properties :
#
#
# Convention : Reuss Voigt Hill
#
# Bulk Modulus (GPa) = 28.16329 44.41919 36.29124
# Shear Modulus (GPa) = 11.26578 27.54493 19.40536
#
# Velocity S-wave (km/s) = 2.31623 3.62178 3.03992
# Velocity P-wave (km/s) = 4.53487 6.21633 5.44095
#
# Compressibility (1/GPa) = 0.03550722
#
# Stress axis : x y z
#
# Youngs Moduli (GPa) = 96.63186 52.52987 57.84686
#
# Poissons Ratio (x) = -0.10766 0.38790
# Poissons Ratio (y) = -0.19804 0.05359
# Poissons Ratio (z) = 0.64797 0.04867
#
# Static dielectric constant tensor:
#      x y z
#    x 1.738510 0.000000 0.037410 
#    y 0.000000 1.835120 0.000000 
#    z 0.037410 0.000000 1.767490 
# 
# From -- ./inp_files/254860.got.cif
#   From: 2010.05.17/outbox.cif.g08.bks.cpg/sg15_128_cif.got.tgz:254860.got - 2010.06.03 18:47:42.
