data_PCOD9261934
_publ_section_title
;
Structure prediction by ZEFSAII (Michael W. Deem and Ramdas Pophale) SiO2 
 PCOD9261934
Probable space group: C 2/C
;
_chemical_formula_sum "Si O2"
_cell_formula_units_Z 56
_cell_length_a 18.752431
_cell_length_b 8.527846
_cell_length_c 18.561641
_cell_angle_alpha 90.000000
_cell_angle_beta 117.771620
_cell_angle_gamma 90.000000
_cell_volume 2626.420374
_symmetry_space_group_name_H-M "C 2/C"
_symmetry_group_IT_number 15
_symmetry_cell_setting 'monoclinic'
loop_
_space_group_symop_operation_xyz
x,y,z
-x,y,1/2-z
-x,-y,-z
x,-y,1/2+z
1/2+x,1/2+y,z
1/2-x,1/2+y,1/2-z
1/2-x,1/2-y,-z
1/2+x,1/2-y,1/2+z
loop_
_atom_site_type_symbol
_atom_site_label
_atom_site_fract_x
_atom_site_fract_y
_atom_site_fract_z
Si Si1 0.228261 0.243628 0.573896
Si Si2 0.037908 0.782341 0.585781
Si Si3 0.392508 0.503685 0.008041
Si Si4 0.340875 0.227392 0.071906
Si Si5 0.782175 0.217255 0.691031
Si Si6 0.625856 0.044959 0.547267
Si Si7 0.174587 0.874501 0.755424
O O1 0.250000 0.250000 0.500000
O O2 0.189957 0.072134 0.563768
O O3 0.159105 0.369496 0.563318
O O4 0.303163 0.292128 0.658675
O O5 0.052699 0.607666 0.562169
O O6 0.093894 0.810685 0.680941
O O7 0.949391 0.850989 0.555086
O O8 0.070785 0.892894 0.536179
O O9 0.380115 0.394869 0.071497
O O10 0.334126 0.200060 0.153376
O O11 0.381656 0.099418 0.039438
O O12 0.701666 0.144655 0.615733
O O13 0.749387 0.327053 0.738469
O O14 0.827974 0.062303 0.740019
O O15 0.750000 0.250000 0.500000
#
# Coordination Sequence:
#
# PCOD9261934 Si02
#       7
#     8   8   8   8   8   8   8
#     4  11  21  33  51  80 105 137 186 231 269 317
#     4   9  19  35  53  78 106 142 175 213 276 329
#     4  10  19  33  56  80 106 137 179 220 258 324
#     4   9  16  31  50  72 102 134 169 211 261 317
#     4   9  17  29  48  74  98 132 171 212 264 312
#     4   8  17  31  49  71 103 137 171 214 267 323
#     4  10  19  32  50  74 106 134 172 223 269 318
#
# _framework density 21.321797
#
# number of rings (size 3 to 8) (size 9 to 14) (size 15 to 20)
#    0.000    2.571    0.000    4.286    0.000    1.714 
#    0.000    2.857    0.000    0.000    0.000   10.000 
#    0.000    0.000    0.000    0.000    0.000    0.000 
#
# Total GULP energy -156182.293385 kJ/mol
# GULP energy per Si atom -5577.939049 kJ/mol
# Density = 2.127327 g / cm^3
# Si number density = 21.321797 Si / 1000 Ang^3
#
#
#
# Elastic Constant Matrix: (Units=GPa)
#
#
# Indices 1 2 3 4 5 6 
#
# 1 34.4759 4.0041 22.9918 0.0000 -5.9729 0.0000
# 2 4.0041 42.9384 20.7780 0.0000 6.9798 0.0000
# 3 22.9918 20.7780 105.5791 0.0000 -8.7339 0.0000
# 4 0.0000 0.0000 0.0000 29.2654 0.0000 5.8622
# 5 -5.9729 6.9798 -8.7339 0.0000 31.6923 0.0000
# 6 0.0000 0.0000 0.0000 5.8622 0.0000 26.2702
#
#
#
# Elastic Compliance Matrix: (Units=1/GPa)
#
#
# Indices 1 2 3 4 5 6 
#
# 1 0.034574 -0.000591 -0.007023 0.000000 0.004711 0.000000
# 2 -0.000591 0.027478 -0.005924 0.000000 -0.007796 0.000000
# 3 -0.007023 -0.005924 0.012449 0.000000 0.003412 0.000000
# 4 0.000000 0.000000 0.000000 0.035769 0.000000 -0.007982
# 5 0.004711 -0.007796 0.003412 0.000000 0.035098 0.000000
# 6 0.000000 0.000000 0.000000 -0.007982 0.000000 0.039847
#
#
# Mechanical properties :
#
#
# Convention : Reuss Voigt Hill
#
# Bulk Modulus (GPa) = 21.08602 30.94900 26.01751
# Shear Modulus (GPa) = 21.92016 26.46021 24.19018
#
# Velocity S-wave (km/s) = 3.20982 3.52660 3.37193
# Velocity P-wave (km/s) = 4.86294 5.57936 5.23342
#
# Compressibility (1/GPa) = 0.04742478
#
# Stress axis : x y z
#
# Youngs Moduli (GPa) = 28.92322 36.39263 80.32773
#
# Poissons Ratio (x) = 0.02152 0.56415
# Poissons Ratio (y) = 0.01711 0.47584
# Poissons Ratio (z) = 0.20313 0.21558
#
# Static dielectric constant tensor:
#      x y z
#    x 1.833630 0.000000 -0.000470 
#    y 0.000000 1.834900 0.000000 
#    z -0.000470 0.000000 1.771340 
# 
# From -- ./inp_files/214851.got.cif
#   From: 2010.05.17/outbox.cif.g08.bks.cpg/sg15_108_cif.got.tgz:214851.got - 2010.06.03 18:47:42.
