data_PCOD9261007
_publ_section_title
;
Structure prediction by ZEFSAII (Michael W. Deem and Ramdas Pophale) SiO2 
 PCOD9261007
Probable space group: C 2/C
;
_chemical_formula_sum "Si O2"
_cell_formula_units_Z 56
_cell_length_a 8.147478
_cell_length_b 14.224945
_cell_length_c 26.232628
_cell_angle_alpha 90.000000
_cell_angle_beta 46.788960
_cell_angle_gamma 90.000000
_cell_volume 2215.877937
_symmetry_space_group_name_H-M "C 2/C"
_symmetry_group_IT_number 15
_symmetry_cell_setting 'monoclinic'
loop_
_space_group_symop_operation_xyz
x,y,z
-x,y,1/2-z
-x,-y,-z
x,-y,1/2+z
1/2+x,1/2+y,z
1/2-x,1/2+y,1/2-z
1/2-x,1/2-y,-z
1/2+x,1/2-y,1/2+z
loop_
_atom_site_type_symbol
_atom_site_label
_atom_site_fract_x
_atom_site_fract_y
_atom_site_fract_z
Si Si1 0.073426 0.030997 0.039720
Si Si2 0.744981 0.782736 0.781907
Si Si3 0.312434 0.835474 0.024813
Si Si4 0.315424 0.571774 0.190917
Si Si5 0.277152 0.603902 0.762301
Si Si6 0.501068 0.128407 0.585397
Si Si7 0.172773 0.583657 0.384260
O O1 0.242981 0.117619 0.988983
O O2 0.868170 0.059919 0.120443
O O3 0.177639 0.934378 0.043253
O O4 0.000000 0.000000 0.000000
O O5 0.721657 0.831048 0.731784
O O6 0.659404 0.678144 0.794687
O O7 0.623087 0.851638 0.846722
O O8 0.000000 0.777143 0.750000
O O9 0.347629 0.816186 0.077245
O O10 0.250000 0.750000 0.000000
O O11 0.563134 0.864721 0.954641
O O12 0.201357 0.488061 0.247338
O O13 0.566038 0.571949 0.161777
O O14 0.500000 0.588231 0.750000
O O15 0.075617 0.647696 0.840103
O O16 0.428692 0.018725 0.598549
#
# Coordination Sequence:
#
# PCOD9261007 Si02
#       7
#     8   8   8   8   8   8   8
#     4  11  24  43  65  94 133 178 222 272 345 403
#     4  10  24  40  63  94 127 168 224 267 334 404
#     4  11  23  38  68 100 130 167 229 274 326 405
#     4  11  20  45  67  88 128 183 216 271 336 411
#     4  12  23  40  70  96 129 171 230 277 337 398
#     4  11  21  44  67  95 128 185 225 272 340 409
#     4  10  18  39  68  90 121 174 221 264 321 407
#
# _framework density 25.272148000000001
#
# number of rings (size 3 to 8) (size 9 to 14) (size 15 to 20)
#    0.000    1.143    5.714    1.286    4.000    2.286 
#    5.143    2.143    0.000    0.000    0.000    0.000 
#    0.000    0.000    0.000    0.000    0.000    0.000 
#
# Total GULP energy -156313.396618 kJ/mol
# GULP energy per Si atom -5582.621308 kJ/mol
# Density = 2.521463 g / cm^3
# Si number density = 25.272148 Si / 1000 Ang^3
#
#
#
# Elastic Constant Matrix: (Units=GPa)
#
#
# Indices 1 2 3 4 5 6 
#
# 1 64.8128 -1.9289 24.3901 -0.0006 17.6126 0.0006
# 2 -1.9289 73.1174 -0.1745 -0.0003 11.0574 0.0002
# 3 24.3901 -0.1745 121.3919 -0.0009 20.6431 0.0004
# 4 -0.0006 -0.0003 -0.0009 33.7284 0.0007 9.8704
# 5 17.6126 11.0574 20.6431 0.0007 31.8573 -0.0006
# 6 0.0006 0.0002 0.0004 9.8704 -0.0006 19.3414
#
#
#
# Elastic Compliance Matrix: (Units=1/GPa)
#
#
# Indices 1 2 3 4 5 6 
#
# 1 0.018950 0.001973 -0.002143 0.000001 -0.009773 -0.000001
# 2 0.001973 0.014744 0.000765 0.000001 -0.006704 -0.000001
# 3 -0.002143 0.000765 0.009567 0.000001 -0.005280 -0.000001
# 4 0.000001 0.000001 0.000001 0.034854 -0.000002 -0.017787
# 5 -0.009773 -0.006704 -0.005280 -0.000002 0.042542 0.000003
# 6 -0.000001 -0.000001 -0.000001 -0.017787 0.000003 0.060780
#
#
# Mechanical properties :
#
#
# Convention : Reuss Voigt Hill
#
# Bulk Modulus (GPa) = 22.49649 33.76618 28.13134
# Shear Modulus (GPa) = 25.63265 32.78776 29.21021
#
# Velocity S-wave (km/s) = 3.18821 3.60583 3.40343
# Velocity P-wave (km/s) = 4.74067 5.54311 5.15752
#
# Compressibility (1/GPa) = 0.04445137
#
# Stress axis : x y z
#
# Youngs Moduli (GPa) = 52.77093 67.82270 104.52230
#
# Poissons Ratio (x) = -0.13380 0.22396
# Poissons Ratio (y) = -0.10410 -0.07994
# Poissons Ratio (z) = 0.11307 -0.05187
#
# Static dielectric constant tensor:
#      x y z
#    x 2.029290 0.000000 -0.060530 
#    y 0.000000 1.985240 0.000000 
#    z -0.060530 0.000000 2.128310 
# 
# From -- ./inp_files/264594.got.cif
#   From: 2010.05.17/outbox.cif.g08.bks.cpg/sg15_133_cif.got.tgz:264594.got - 2010.06.03 18:47:42.
