data_PCOD9261045
_publ_section_title
;
Structure prediction by ZEFSAII (Michael W. Deem and Ramdas Pophale) SiO2 
 PCOD9261045
Probable space group: C 2/C
;
_chemical_formula_sum "Si O2"
_cell_formula_units_Z 40
_cell_length_a 6.865175
_cell_length_b 30.232824
_cell_length_c 10.927585
_cell_angle_alpha 90.000000
_cell_angle_beta 107.432249
_cell_angle_gamma 90.000000
_cell_volume 2163.892138
_symmetry_space_group_name_H-M "C 2/C"
_symmetry_group_IT_number 15
_symmetry_cell_setting 'monoclinic'
loop_
_space_group_symop_operation_xyz
x,y,z
-x,y,1/2-z
-x,-y,-z
x,-y,1/2+z
1/2+x,1/2+y,z
1/2-x,1/2+y,1/2-z
1/2-x,1/2-y,-z
1/2+x,1/2-y,1/2+z
loop_
_atom_site_type_symbol
_atom_site_label
_atom_site_fract_x
_atom_site_fract_y
_atom_site_fract_z
Si Si1 0.500000 0.184042 0.750000
Si Si2 0.265299 0.610134 0.915189
Si Si3 0.969444 0.261728 0.490102
Si Si4 0.051619 0.528195 0.628685
Si Si5 0.000000 0.064499 0.750000
Si Si6 0.662376 0.316898 0.889434
O O1 0.677522 0.150626 0.820005
O O2 0.554173 0.213501 0.644076
O O3 0.443848 0.590689 0.864116
O O4 0.090147 0.572673 0.899230
O O5 0.319538 0.633782 0.053052
O O6 0.750000 0.250000 0.500000
O O7 0.117363 0.294069 0.596952
O O8 0.081189 0.215675 0.481260
O O9 0.291781 0.538802 0.679906
O O10 0.000000 0.505979 0.750000
O O11 0.000000 0.500000 0.500000
O O12 0.500000 0.315133 0.750000
#
# Coordination Sequence:
#
# PCOD9261045 Si02
#       6
#     4   8   8   8   4   8
#     4  10  18  40  60  85 124 158 227 254 286 382
#     4  10  21  37  64  88 122 159 206 255 298 381
#     4  10  22  37  61  82 118 170 207 262 312 349
#     4  10  22  43  65  97 126 153 207 257 313 396
#     4  10  20  40  68  89 118 166 193 240 328 366
#     4  10  22  41  52  88 127 152 210 262 302 367
#
# _framework density 18.485208
#
# number of rings (size 3 to 8) (size 9 to 14) (size 15 to 20)
#    0.000    2.000    4.000    0.000    2.800    4.000 
#    5.400    0.000    0.000    0.000    0.000    0.000 
#    0.000    0.000    0.000    0.000    0.000    0.000 
#
# Total GULP energy -111428.340099 kJ/mol
# GULP energy per Si atom -5571.417005 kJ/mol
# Density = 1.844313 g / cm^3
# Si number density = 18.485208 Si / 1000 Ang^3
#
#
#
# Elastic Constant Matrix: (Units=GPa)
#
#
# Indices 1 2 3 4 5 6 
#
# 1 159.3532 47.5349 55.4825 0.0000 5.1487 0.0000
# 2 47.5349 77.9853 54.6332 0.0000 -2.4471 0.0000
# 3 55.4825 54.6332 136.1266 0.0000 13.6257 0.0000
# 4 0.0000 0.0000 0.0000 31.0662 0.0000 -0.8699
# 5 5.1487 -2.4471 13.6257 0.0000 18.5140 0.0000
# 6 0.0000 0.0000 0.0000 -0.8699 0.0000 7.7220
#
#
#
# Elastic Compliance Matrix: (Units=1/GPa)
#
#
# Indices 1 2 3 4 5 6 
#
# 1 0.008018 -0.003837 -0.001569 0.000000 -0.001582 0.000000
# 2 -0.003837 0.020918 -0.007789 0.000000 0.009564 0.000000
# 3 -0.001569 -0.007789 0.012060 0.000000 -0.009468 0.000000
# 4 0.000000 0.000000 0.000000 0.032291 0.000000 0.003638
# 5 -0.001582 0.009564 -0.009468 0.000000 0.062686 0.000000
# 6 0.000000 0.000000 0.000000 0.003638 0.000000 0.129910
#
#
# Mechanical properties :
#
#
# Convention : Reuss Voigt Hill
#
# Bulk Modulus (GPa) = 68.47142 76.52960 72.50051
# Shear Modulus (GPa) = 16.82702 25.84807 21.33754
#
# Velocity S-wave (km/s) = 3.02038 3.74346 3.40119
# Velocity P-wave (km/s) = 7.02034 7.75725 7.39798
#
# Compressibility (1/GPa) = 0.01460463
#
# Stress axis : x y z
#
# Youngs Moduli (GPa) = 124.72668 47.80472 82.92203
#
# Poissons Ratio (x) = 0.18343 0.13014
# Poissons Ratio (y) = 0.47859 0.64587
# Poissons Ratio (z) = 0.19575 0.37234
#
# Static dielectric constant tensor:
#      x y z
#    x 1.655350 0.000000 0.028890 
#    y 0.000000 1.655590 0.000000 
#    z 0.028890 0.000000 1.688420 
# 
# From -- ./inp_files/73694.got.cif
#   From: 2010.05.17/outbox.cif.g08.bks.cpg/sg15_37_cif.got.tgz:73694.got - 2010.06.03 18:47:42.
