data_PCOD9261264
_publ_section_title
;
Structure prediction by ZEFSAII (Michael W. Deem and Ramdas Pophale) SiO2 
 PCOD9261264
Probable space group: C 2/C
;
_chemical_formula_sum "Si O2"
_cell_formula_units_Z 44
_cell_length_a 12.524087
_cell_length_b 8.384144
_cell_length_c 18.216492
_cell_angle_alpha 90.000000
_cell_angle_beta 116.588426
_cell_angle_gamma 90.000000
_cell_volume 1710.511157
_symmetry_space_group_name_H-M "C 2/C"
_symmetry_group_IT_number 15
_symmetry_cell_setting 'monoclinic'
loop_
_space_group_symop_operation_xyz
x,y,z
-x,y,1/2-z
-x,-y,-z
x,-y,1/2+z
1/2+x,1/2+y,z
1/2-x,1/2+y,1/2-z
1/2-x,1/2-y,-z
1/2+x,1/2-y,1/2+z
loop_
_atom_site_type_symbol
_atom_site_label
_atom_site_fract_x
_atom_site_fract_y
_atom_site_fract_z
Si Si1 0.017952 0.828624 0.607569
Si Si2 0.500000 0.476615 0.250000
Si Si3 0.703107 0.567936 0.895921
Si Si4 0.580166 0.854154 0.555679
Si Si5 0.796903 0.085540 0.441327
Si Si6 0.521318 0.014976 0.342280
O O1 0.986736 0.914502 0.674310
O O2 0.940872 0.782910 0.510460
O O3 0.039323 0.648256 0.646801
O O4 0.123529 0.937671 0.605939
O O5 0.379104 0.382318 0.198179
O O6 0.783851 0.414605 0.903039
O O7 0.785697 0.722042 0.934290
O O8 0.650562 0.549264 0.962207
O O9 0.531864 0.842028 0.623816
O O10 0.500000 0.000000 0.500000
O O11 0.664750 0.010398 0.398697
O O12 0.500000 0.032292 0.250000
#
# Coordination Sequence:
#
# PCOD9261264 Si02
#       6
#     8   4   8   8   8   8
#     4  11  23  45  68 102 143 187 240 302 368 441
#     4  12  30  44  64 106 154 178 242 324 364 444
#     4  11  23  44  68 102 139 189 242 300 372 442
#     4  10  18  42  71  98 137 186 244 289 366 446
#     4  11  22  42  75  98 141 191 240 301 364 450
#     4  11  22  40  73 112 137 192 251 299 370 441
#
# _framework density 25.723303000000001
#
# number of rings (size 3 to 8) (size 9 to 14) (size 15 to 20)
#    0.000    1.091    8.182    1.091    3.818    1.455 
#    0.000    0.000    0.000    0.000    0.000    0.000 
#    0.000    0.000    0.000    0.000    0.000    0.000 
#
# Total GULP energy -122801.187140 kJ/mol
# GULP energy per Si atom -5581.872143 kJ/mol
# Density = 2.566476 g / cm^3
# Si number density = 25.723303 Si / 1000 Ang^3
#
#
#
# Elastic Constant Matrix: (Units=GPa)
#
#
# Indices 1 2 3 4 5 6 
#
# 1 101.4463 12.8783 64.8943 0.0000 -6.1237 0.0000
# 2 12.8783 55.3642 38.5862 0.0000 -8.2950 0.0000
# 3 64.8943 38.5862 240.6891 0.0000 -11.9348 0.0000
# 4 0.0000 0.0000 0.0000 25.8604 0.0000 -15.5323
# 5 -6.1237 -8.2950 -11.9348 0.0000 47.0623 0.0000
# 6 0.0000 0.0000 0.0000 -15.5323 0.0000 12.9345
#
#
#
# Elastic Compliance Matrix: (Units=1/GPa)
#
#
# Indices 1 2 3 4 5 6 
#
# 1 0.011950 -0.000514 -0.003106 0.000000 0.000677 0.000000
# 2 -0.000514 0.020725 -0.003045 0.000000 0.002814 0.000000
# 3 -0.003106 -0.003045 0.005503 0.000000 0.000455 0.000000
# 4 0.000000 0.000000 0.000000 0.138725 0.000000 0.166587
# 5 0.000677 0.002814 0.000455 0.000000 0.021948 0.000000
# 6 0.000000 0.000000 0.000000 0.166587 0.000000 0.277358
#
#
# Mechanical properties :
#
#
# Convention : Reuss Voigt Hill
#
# Bulk Modulus (GPa) = 40.24156 70.02413 55.13285
# Shear Modulus (GPa) = 10.04377 35.91415 22.97896
#
# Velocity S-wave (km/s) = 1.97813 3.74059 2.99208
# Velocity P-wave (km/s) = 4.57114 6.77770 5.78068
#
# Compressibility (1/GPa) = 0.02484993
#
# Stress axis : x y z
#
# Youngs Moduli (GPa) = 83.67866 48.25041 181.72362
#
# Poissons Ratio (x) = 0.02478 0.56447
# Poissons Ratio (y) = 0.04297 0.55327
# Poissons Ratio (z) = 0.25992 0.14690
#
# Static dielectric constant tensor:
#      x y z
#    x 2.240170 0.000000 0.013840 
#    y 0.000000 2.084720 0.000000 
#    z 0.013840 0.000000 2.018420 
# 
# From -- ./inp_files/196309.got.cif
#   From: 2010.05.17/outbox.cif.g08.bks.cpg/sg15_99_cif.got.tgz:196309.got - 2010.06.03 18:47:42.
