data_PCOD9261580
_publ_section_title
;
Structure prediction by ZEFSAII (Michael W. Deem and Ramdas Pophale) SiO2 
 PCOD9261580
Probable space group: C 2/C
;
_chemical_formula_sum "Si O2"
_cell_formula_units_Z 32
_cell_length_a 9.638209
_cell_length_b 14.889712
_cell_length_c 13.175367
_cell_angle_alpha 90.000000
_cell_angle_beta 40.351631
_cell_angle_gamma 90.000000
_cell_volume 1224.248434
_symmetry_space_group_name_H-M "C 2/C"
_symmetry_group_IT_number 15
_symmetry_cell_setting 'monoclinic'
loop_
_space_group_symop_operation_xyz
x,y,z
-x,y,1/2-z
-x,-y,-z
x,-y,1/2+z
1/2+x,1/2+y,z
1/2-x,1/2+y,1/2-z
1/2-x,1/2-y,-z
1/2+x,1/2-y,1/2+z
loop_
_atom_site_type_symbol
_atom_site_label
_atom_site_fract_x
_atom_site_fract_y
_atom_site_fract_z
Si Si1 0.088926 0.813701 0.796912
Si Si2 0.151069 0.823722 0.981733
Si Si3 0.305142 0.068078 0.035383
Si Si4 0.500000 0.977800 0.750000
Si Si5 0.000000 0.912281 0.250000
O O1 0.105829 0.778048 0.899194
O O2 0.298930 0.865084 0.635962
O O3 0.000000 0.756588 0.750000
O O4 0.896890 0.887422 0.912576
O O5 0.299678 0.909074 0.868978
O O6 0.250000 0.750000 0.000000
O O7 0.974926 0.861373 0.157108
O O8 0.487902 0.042167 0.855091
O O9 0.209839 0.973714 0.124892
#
# Coordination Sequence:
#
# PCOD9261580 Si02
#       5
#     8   8   8   4   4
#     4   7  17  36  54  80 110 154 192 222 292 338
#     4  11  20  33  54  79 122 157 186 226 276 346
#     4   7  16  33  54  85 104 148 186 239 287 311
#     4  10  19  30  54  90 116 138 199 246 266 328
#     4   8  17  30  48  76 108 148 183 220 276 336
#
# _framework density 26.138484999999999
#
# number of rings (size 3 to 8) (size 9 to 14) (size 15 to 20)
#    1.500    2.000    0.000    0.750    0.000   10.000 
#    0.000    2.500    0.000    6.000    0.000    0.000 
#    3.750    0.000    0.000    0.250    0.000    0.000 
#
# Total GULP energy -89086.081447 kJ/mol
# GULP energy per Si atom -5567.880090 kJ/mol
# Density = 2.607899 g / cm^3
# Si number density = 26.138485 Si / 1000 Ang^3
#
#
#
# Elastic Constant Matrix: (Units=GPa)
#
#
# Indices 1 2 3 4 5 6 
#
# 1 94.3476 30.9353 73.9001 -0.0014 57.7115 0.0002
# 2 30.9353 70.5777 67.2780 -0.0007 8.8183 0.0008
# 3 73.9001 67.2780 217.3266 -0.0014 55.0052 0.0019
# 4 -0.0014 -0.0007 -0.0014 49.6208 0.0014 -17.7630
# 5 57.7115 8.8183 55.0052 0.0014 62.8024 -0.0010
# 6 0.0002 0.0008 0.0019 -17.7630 -0.0010 6.0792
#
#
#
# Elastic Compliance Matrix: (Units=1/GPa)
#
#
# Indices 1 2 3 4 5 6 
#
# 1 0.029694 -0.008968 -0.000942 -0.000001 -0.025202 -0.000007
# 2 -0.008968 0.023382 -0.006994 -0.000001 0.011084 -0.000002
# 3 -0.000942 -0.006994 0.008504 0.000015 -0.005601 0.000040
# 4 -0.000001 -0.000001 0.000015 -0.438365 -0.000022 -1.280867
# 5 -0.025202 0.011084 -0.005601 -0.000022 0.042431 -0.000055
# 6 -0.000007 -0.000002 0.000040 -1.280867 -0.000055 -3.578093
#
#
# Mechanical properties :
#
#
# Convention : Reuss Voigt Hill
#
# Bulk Modulus (GPa) = 36.00876 80.71986 58.36431
# Shear Modulus (GPa) = -1.29220 37.70971 18.20876
#
# Velocity S-wave (km/s) = -0.70387 3.80240 2.64223
# Velocity P-wave (km/s) = 3.62567 7.08705 5.62902
#
# Compressibility (1/GPa) = 0.02777102
#
# Stress axis : x y z
#
# Youngs Moduli (GPa) = 33.67739 42.76799 117.58542
#
# Poissons Ratio (x) = 0.38355 0.11077
# Poissons Ratio (y) = 0.30203 0.82241
# Poissons Ratio (z) = 0.03173 0.29913
#
# Static dielectric constant tensor:
#      x y z
#    x 2.174310 0.000000 -0.046490 
#    y 0.000000 2.069010 0.000000 
#    z -0.046490 0.000000 1.584050 
# 
# From -- ./inp_files/87020.got.cif
#   From: 2010.05.17/outbox.cif.g08.bks.cpg/sg15_44_cif.got.tgz:87020.got - 2010.06.03 18:47:42.
