data_PCOD9261738
_publ_section_title
;
Structure prediction by ZEFSAII (Michael W. Deem and Ramdas Pophale) SiO2 
 PCOD9261738
Probable space group: C 2/C
;
_chemical_formula_sum "Si O2"
_cell_formula_units_Z 40
_cell_length_a 12.017291
_cell_length_b 24.739678
_cell_length_c 5.650415
_cell_angle_alpha 90.000000
_cell_angle_beta 74.877759
_cell_angle_gamma 90.000000
_cell_volume 1621.718276
_symmetry_space_group_name_H-M "C 2/C"
_symmetry_group_IT_number 15
_symmetry_cell_setting 'monoclinic'
loop_
_space_group_symop_operation_xyz
x,y,z
-x,y,1/2-z
-x,-y,-z
x,-y,1/2+z
1/2+x,1/2+y,z
1/2-x,1/2+y,1/2-z
1/2-x,1/2-y,-z
1/2+x,1/2-y,1/2+z
loop_
_atom_site_type_symbol
_atom_site_label
_atom_site_fract_x
_atom_site_fract_y
_atom_site_fract_z
Si Si1 0.375362 0.900093 0.385878
Si Si2 0.815604 0.806726 0.465788
Si Si3 0.544467 0.561121 0.476463
Si Si4 0.693497 0.081216 0.076074
Si Si5 0.681833 0.692997 0.034558
O O1 0.500000 0.876242 0.250000
O O2 0.382489 0.926373 0.644828
O O3 0.276022 0.855292 0.471676
O O4 0.343321 0.935787 0.170069
O O5 0.750000 0.750000 0.500000
O O6 0.719570 0.854426 0.527166
O O7 0.879419 0.811191 0.679661
O O8 0.880138 0.809899 0.181870
O O9 0.500000 0.584319 0.250000
O O10 0.500000 0.500000 0.500000
O O11 0.681562 0.558941 0.421654
O O12 0.500000 0.585557 0.750000
O O13 0.750000 0.750000 0.000000
#
# Coordination Sequence:
#
# PCOD9261738 Si02
#       5
#     8   8   8   8   8
#     4  10  19  31  51  81 113 153 195 227 278 354
#     4   8  14  25  44  66  96 142 179 215 275 323
#     4  10  21  38  61  90 114 143 191 242 304 367
#     4  10  19  33  55  80 113 149 188 242 286 341
#     4   8  14  25  42  63  95 141 188 232 271 307
#
# _framework density 24.665198
#
# number of rings (size 3 to 8) (size 9 to 14) (size 15 to 20)
#    0.000    2.800    0.000    1.800    0.000    0.000 
#    0.000    0.000    0.000   57.600    0.000   56.000 
#    0.000    0.000    0.000    0.000    0.000    0.000 
#
# Total GULP energy -111478.125872 kJ/mol
# GULP energy per Si atom -5573.906294 kJ/mol
# Density = 2.460906 g / cm^3
# Si number density = 24.665198 Si / 1000 Ang^3
#
#
#
# Elastic Constant Matrix: (Units=GPa)
#
#
# Indices 1 2 3 4 5 6 
#
# 1 77.9810 18.8663 60.4116 0.0000 5.6178 0.0000
# 2 18.8663 82.7346 1.8356 0.0000 6.7820 0.0000
# 3 60.4116 1.8356 358.6485 0.0000 43.7874 0.0000
# 4 0.0000 0.0000 0.0000 -18.7269 0.0000 3.2170
# 5 5.6178 6.7820 43.7874 0.0000 56.6321 0.0000
# 6 0.0000 0.0000 0.0000 3.2170 0.0000 -6.2117
#
#
#
# Elastic Compliance Matrix: (Units=1/GPa)
#
#
# Indices 1 2 3 4 5 6 
#
# 1 0.015764 -0.003616 -0.002759 0.000000 0.001003 0.000000
# 2 -0.003616 0.013041 0.000761 0.000000 -0.001791 0.000000
# 3 -0.002759 0.000761 0.003563 0.000000 -0.002572 0.000000
# 4 0.000000 0.000000 0.000000 -0.058614 0.000000 -0.030355
# 5 0.001003 -0.001791 -0.002572 0.000000 0.019762 0.000000
# 6 0.000000 0.000000 0.000000 -0.030355 0.000000 -0.176706
#
#
# Mechanical properties :
#
#
# Convention : Reuss Voigt Hill
#
# Bulk Modulus (GPa) = 47.30243 75.73233 61.51738
# Shear Modulus (GPa) = -30.31864 35.55540 2.61838
#
# Velocity S-wave (km/s) = -3.50981 3.80086 1.03144
# Velocity P-wave (km/s) = 1.67165 7.07339 5.13942
#
# Compressibility (1/GPa) = 0.02114056
#
# Stress axis : x y z
#
# Youngs Moduli (GPa) = 63.43704 76.67952 280.64804
#
# Poissons Ratio (x) = 0.27724 0.77436
# Poissons Ratio (y) = 0.22936 -0.21357
# Poissons Ratio (z) = 0.17503 -0.05835
#
# Static dielectric constant tensor:
#      x y z
#    x 1.889220 0.000000 0.057190 
#    y 0.000000 1.939030 0.000000 
#    z 0.057190 0.000000 2.065630 
# 
# From -- ./inp_files/4922.got.cif
#   From: 2010.05.17/outbox.cif.g08.bks.cpg/sg15_3_cif.got.tgz:4922.got - 2010.06.03 18:47:42.
