data_PCOD9261279
_publ_section_title
;
Structure prediction by ZEFSAII (Michael W. Deem and Ramdas Pophale) SiO2 
 PCOD9261279
Probable space group: C 2/C
;
_chemical_formula_sum "Si O2"
_cell_formula_units_Z 44
_cell_length_a 23.315015
_cell_length_b 11.521671
_cell_length_c 15.895311
_cell_angle_alpha 90.000000
_cell_angle_beta 155.387800
_cell_angle_gamma 90.000000
_cell_volume 1778.314198
_symmetry_space_group_name_H-M "C 2/C"
_symmetry_group_IT_number 15
_symmetry_cell_setting 'monoclinic'
loop_
_space_group_symop_operation_xyz
x,y,z
-x,y,1/2-z
-x,-y,-z
x,-y,1/2+z
1/2+x,1/2+y,z
1/2-x,1/2+y,1/2-z
1/2-x,1/2-y,-z
1/2+x,1/2-y,1/2+z
loop_
_atom_site_type_symbol
_atom_site_label
_atom_site_fract_x
_atom_site_fract_y
_atom_site_fract_z
Si Si1 0.150998 0.076707 0.029406
Si Si2 0.860727 0.336689 0.459174
Si Si3 0.210228 0.274404 0.332744
Si Si4 0.660379 0.521339 0.226247
Si Si5 0.000000 0.886669 0.750000
Si Si6 0.080159 0.494136 0.195238
O O1 0.107527 0.209027 0.965192
O O2 0.217630 0.056849 0.209765
O O3 0.267664 0.045669 0.117306
O O4 0.028344 0.983400 0.860100
O O5 0.814330 0.310681 0.299050
O O6 0.739431 0.401737 0.348326
O O7 0.989649 0.424083 0.633072
O O8 0.186192 0.138258 0.312385
O O9 0.363835 0.310230 0.562785
O O10 0.104775 0.357536 0.243063
O O11 0.500000 0.500000 0.000000
O O12 0.000000 0.500000 0.000000
#
# Coordination Sequence:
#
# PCOD9261279 Si02
#       6
#     8   8   8   8   4   8
#     4  10  21  36  62  86 117 161 199 252 298 371
#     4  10  20  35  61  91 114 153 209 259 291 355
#     4   9  20  35  62  85 119 159 198 247 295 374
#     4  11  22  35  59  94 120 153 210 259 296 350
#     4  10  18  44  60  86 124 166 194 236 328 366
#     4   9  16  35  56  85 111 154 202 241 302 345
#
# _framework density 24.742533000000002
#
# number of rings (size 3 to 8) (size 9 to 14) (size 15 to 20)
#    0.000    2.182    5.455    0.000    7.636    0.000 
#    0.000    5.455    4.000    0.000    0.000    0.000 
#    0.000    0.000    0.000    0.000    0.000    0.000 
#
# Total GULP energy -122870.212877 kJ/mol
# GULP energy per Si atom -5585.009676 kJ/mol
# Density = 2.468622 g / cm^3
# Si number density = 24.742533 Si / 1000 Ang^3
#
#
#
# Elastic Constant Matrix: (Units=GPa)
#
#
# Indices 1 2 3 4 5 6 
#
# 1 53.0019 30.8681 28.5440 0.0000 0.5070 0.0000
# 2 30.8681 196.4399 61.4249 0.0000 8.6405 0.0000
# 3 28.5440 61.4249 135.2723 0.0000 12.9103 0.0000
# 4 0.0000 0.0000 0.0000 34.1200 0.0000 1.4048
# 5 0.5070 8.6405 12.9103 0.0000 37.2053 0.0000
# 6 0.0000 0.0000 0.0000 1.4048 0.0000 22.1028
#
#
#
# Elastic Compliance Matrix: (Units=1/GPa)
#
#
# Indices 1 2 3 4 5 6 
#
# 1 0.022271 -0.002392 -0.003762 0.000000 0.001557 0.000000
# 2 -0.002392 0.006197 -0.002250 0.000000 -0.000626 0.000000
# 3 -0.003762 -0.002250 0.009467 0.000000 -0.002711 0.000000
# 4 0.000000 0.000000 0.000000 0.029385 0.000000 -0.001868
# 5 0.001557 -0.000626 -0.002711 0.000000 0.027943 0.000000
# 6 0.000000 0.000000 0.000000 -0.001868 0.000000 0.045362
#
#
# Mechanical properties :
#
#
# Convention : Reuss Voigt Hill
#
# Bulk Modulus (GPa) = 47.32992 69.59870 58.46431
# Shear Modulus (GPa) = 30.39968 36.27742 33.33855
#
# Velocity S-wave (km/s) = 3.50900 3.83325 3.67470
# Velocity P-wave (km/s) = 5.96556 6.91245 6.45639
#
# Compressibility (1/GPa) = 0.02112828
#
# Stress axis : x y z
#
# Youngs Moduli (GPa) = 44.90070 161.35640 105.63398
#
# Poissons Ratio (x) = 0.38593 0.39740
# Poissons Ratio (y) = 0.10739 0.23765
# Poissons Ratio (z) = 0.16892 0.36301
#
# Static dielectric constant tensor:
#      x y z
#    x 2.088520 0.000000 -0.065870 
#    y 0.000000 1.969290 0.000000 
#    z -0.065870 0.000000 1.966010 
# 
# From -- ./inp_files/103292.got.cif
#   From: 2010.05.17/outbox.cif.g08.bks.cpg/sg15_52_cif.got.tgz:103292.got - 2010.06.03 18:47:42.
