data_PCOD9261387
_publ_section_title
;
Structure prediction by ZEFSAII (Michael W. Deem and Ramdas Pophale) SiO2 
 PCOD9261387
Probable space group: C 2/C
;
_chemical_formula_sum "Si O2"
_cell_formula_units_Z 48
_cell_length_a 12.115446
_cell_length_b 25.869020
_cell_length_c 8.679146
_cell_angle_alpha 90.000000
_cell_angle_beta 92.688621
_cell_angle_gamma 90.000000
_cell_volume 2717.177733
_symmetry_space_group_name_H-M "C 2/C"
_symmetry_group_IT_number 15
_symmetry_cell_setting 'monoclinic'
loop_
_space_group_symop_operation_xyz
x,y,z
-x,y,1/2-z
-x,-y,-z
x,-y,1/2+z
1/2+x,1/2+y,z
1/2-x,1/2+y,1/2-z
1/2-x,1/2-y,-z
1/2+x,1/2-y,1/2+z
loop_
_atom_site_type_symbol
_atom_site_label
_atom_site_fract_x
_atom_site_fract_y
_atom_site_fract_z
Si Si1 0.403385 0.757769 0.450320
Si Si2 0.377324 0.480931 0.541578
Si Si3 0.370647 0.378319 0.727927
Si Si4 0.147239 0.226408 0.406680
Si Si5 0.769199 0.836805 0.036786
Si Si6 0.135715 0.076196 0.765473
O O1 0.532716 0.746126 0.472945
O O2 0.366098 0.744315 0.272397
O O3 0.355186 0.814674 0.480566
O O4 0.341981 0.715317 0.549914
O O5 0.500000 0.500000 0.500000
O O6 0.370391 0.437630 0.674585
O O7 0.330690 0.534006 0.603367
O O8 0.331799 0.450790 0.391707
O O9 0.500000 0.365087 0.750000
O O10 0.335175 0.335627 0.600281
O O11 0.308528 0.366391 0.883684
O O12 0.250000 0.250000 0.500000
O O13 0.802169 0.872102 0.182685
O O14 0.000000 0.083561 0.750000
#
# Coordination Sequence:
#
# PCOD9261387 Si02
#       6
#     8   8   8   8   8   8
#     4   9  20  36  50  79 111 145 191 232 278 336
#     4  10  20  30  47  77 112 146 190 227 280 347
#     4  11  18  34  51  73 111 154 179 231 286 329
#     4  10  20  34  56  78 109 147 190 236 282 339
#     4  10  19  33  53  72 110 151 182 225 282 331
#     4  10  19  29  47  76 106 148 183 230 280 341
#
# _framework density 17.665388
#
# number of rings (size 3 to 8) (size 9 to 14) (size 15 to 20)
#    0.000    2.000    3.333    4.500    2.333    0.000 
#    0.000    6.667    0.000    0.000    0.000    1.167 
#    0.000    0.000    0.000    0.000    0.000    0.000 
#
# Total GULP energy -133643.319326 kJ/mol
# GULP energy per Si atom -5568.471639 kJ/mol
# Density = 1.762518 g / cm^3
# Si number density = 17.665388 Si / 1000 Ang^3
#
#
#
# Elastic Constant Matrix: (Units=GPa)
#
#
# Indices 1 2 3 4 5 6 
#
# 1 63.0032 28.4778 15.2365 0.0000 8.0139 0.0000
# 2 28.4778 112.6748 26.4992 0.0000 8.6326 0.0000
# 3 15.2365 26.4992 41.1830 0.0000 1.4791 0.0000
# 4 0.0000 0.0000 0.0000 11.6337 0.0000 -0.9901
# 5 8.0139 8.6326 1.4791 0.0000 23.7223 0.0000
# 6 0.0000 0.0000 0.0000 -0.9901 0.0000 22.5759
#
#
#
# Elastic Compliance Matrix: (Units=1/GPa)
#
#
# Indices 1 2 3 4 5 6 
#
# 1 0.019166 -0.003344 -0.004761 0.000000 -0.004961 0.000000
# 2 -0.003344 0.011321 -0.005953 0.000000 -0.002619 0.000000
# 3 -0.004761 -0.005953 0.029805 0.000000 0.001916 0.000000
# 4 0.000000 0.000000 0.000000 0.086279 0.000000 0.003784
# 5 -0.004961 -0.002619 0.001916 0.000000 0.044664 0.000000
# 6 0.000000 0.000000 0.000000 0.003784 0.000000 0.044461
#
#
# Mechanical properties :
#
#
# Convention : Reuss Voigt Hill
#
# Bulk Modulus (GPa) = 31.07955 39.69869 35.38912
# Shear Modulus (GPa) = 18.21239 21.36288 19.78764
#
# Velocity S-wave (km/s) = 3.21435 3.48128 3.35047
# Velocity P-wave (km/s) = 5.60426 6.21936 5.91980
#
# Compressibility (1/GPa) = 0.03217550
#
# Stress axis : x y z
#
# Youngs Moduli (GPa) = 52.17503 88.33064 33.55141
#
# Poissons Ratio (x) = 0.29541 0.15973
# Poissons Ratio (y) = 0.17449 0.19974
# Poissons Ratio (z) = 0.24840 0.52585
#
# Static dielectric constant tensor:
#      x y z
#    x 1.600160 0.000000 -0.031050 
#    y 0.000000 1.680660 0.000000 
#    z -0.031050 0.000000 1.696840 
# 
# From -- ./inp_files/32024.got.cif
#   From: 2010.05.17/outbox.cif.g08.bks.cpg/sg15_17_cif.got.tgz:32024.got - 2010.06.03 18:47:42.
