data_PCOD9261844
_publ_section_title
;
Structure prediction by ZEFSAII (Michael W. Deem and Ramdas Pophale) SiO2 
 PCOD9261844
Probable space group: C 2/C
;
_chemical_formula_sum "Si O2"
_cell_formula_units_Z 52
_cell_length_a 9.405070
_cell_length_b 15.839852
_cell_length_c 20.239578
_cell_angle_alpha 90.000000
_cell_angle_beta 136.477863
_cell_angle_gamma 90.000000
_cell_volume 2076.364331
_symmetry_space_group_name_H-M "C 2/C"
_symmetry_group_IT_number 15
_symmetry_cell_setting 'monoclinic'
loop_
_space_group_symop_operation_xyz
x,y,z
-x,y,1/2-z
-x,-y,-z
x,-y,1/2+z
1/2+x,1/2+y,z
1/2-x,1/2+y,1/2-z
1/2-x,1/2-y,-z
1/2+x,1/2-y,1/2+z
loop_
_atom_site_type_symbol
_atom_site_label
_atom_site_fract_x
_atom_site_fract_y
_atom_site_fract_z
Si Si1 0.441006 0.447381 0.126294
Si Si2 0.292971 0.601953 0.907001
Si Si3 0.000000 0.803910 0.250000
Si Si4 0.500000 0.757105 0.250000
Si Si5 0.182272 0.893484 0.739856
Si Si6 0.000000 0.527576 0.250000
Si Si7 0.144814 0.204847 0.066033
Si Si8 0.562710 0.866996 0.952525
O O1 0.549298 0.438630 0.092012
O O2 0.517310 0.366347 0.193556
O O3 0.516626 0.532636 0.183509
O O4 0.198880 0.436549 0.035130
O O5 0.108002 0.531803 0.843260
O O6 0.178807 0.681983 0.836450
O O7 0.451524 0.641243 0.015085
O O8 0.204312 0.748743 0.330148
O O9 0.424738 0.695922 0.283387
O O10 0.345207 0.897869 0.854367
O O11 0.325074 0.915877 0.724737
O O12 0.303423 0.162222 0.066761
O O13 0.050019 0.285148 0.994761
#
# Coordination Sequence:
#
# PCOD9261844 Si02
#       8
#     8   8   4   4   8   4   8   8
#     4   9  20  38  57  85 127 161 193 243 319 362
#     4   9  18  40  62  83 118 174 192 241 310 378
#     4  10  19  31  57  93 122 150 198 264 297 343
#     4  11  21  34  66  92 118 154 220 239 293 366
#     4  11  21  39  59  95 115 164 202 253 289 376
#     4   9  22  39  65  83 134 156 202 245 316 347
#     4   9  17  34  58  89 114 156 203 253 295 359
#     4   9  18  35  59  82 120 161 200 235 313 368
#
# _framework density 25.043773999999999
#
# number of rings (size 3 to 8) (size 9 to 14) (size 15 to 20)
#    0.000    2.462    1.538    1.385    0.000    0.615 
#    2.769   10.769    0.000    2.769    0.000    0.000 
#    0.000    0.000    0.000    0.000    0.000    0.000 
#
# Total GULP energy -145325.087009 kJ/mol
# GULP energy per Si atom -5589.426423 kJ/mol
# Density = 2.498677 g / cm^3
# Si number density = 25.043774 Si / 1000 Ang^3
#
#
#
# Elastic Constant Matrix: (Units=GPa)
#
#
# Indices 1 2 3 4 5 6 
#
# 1 58.1198 25.2653 -13.0030 0.0000 1.7344 0.0000
# 2 25.2653 144.7161 43.0619 0.0000 11.5152 0.0000
# 3 -13.0030 43.0619 117.5526 0.0000 18.1511 0.0000
# 4 0.0000 0.0000 0.0000 37.5451 0.0000 -4.9070
# 5 1.7344 11.5152 18.1511 0.0000 28.6950 0.0000
# 6 0.0000 0.0000 0.0000 -4.9070 0.0000 22.5951
#
#
#
# Elastic Compliance Matrix: (Units=1/GPa)
#
#
# Indices 1 2 3 4 5 6 
#
# 1 0.020233 -0.004635 0.004253 0.000000 -0.002053 0.000000
# 2 -0.004635 0.008872 -0.003609 0.000000 -0.000998 0.000000
# 3 0.004253 -0.003609 0.011210 0.000000 -0.005900 0.000000
# 4 0.000000 0.000000 0.000000 0.027413 0.000000 0.005953
# 5 -0.002053 -0.000998 -0.005900 0.000000 0.039106 0.000000
# 6 0.000000 0.000000 0.000000 0.005953 0.000000 0.045550
#
#
# Mechanical properties :
#
#
# Convention : Reuss Voigt Hill
#
# Bulk Modulus (GPa) = 30.92617 47.89295 39.40956
# Shear Modulus (GPa) = 29.21520 35.43799 32.32659
#
# Velocity S-wave (km/s) = 3.41921 3.76579 3.59667
# Velocity P-wave (km/s) = 5.28806 6.17036 5.74617
#
# Compressibility (1/GPa) = 0.03233507
#
# Stress axis : x y z
#
# Youngs Moduli (GPa) = 49.42350 112.70898 89.20436
#
# Poissons Ratio (x) = 0.52235 -0.37937
# Poissons Ratio (y) = 0.22905 0.32192
# Poissons Ratio (z) = -0.21019 0.40674
#
# Static dielectric constant tensor:
#      x y z
#    x 2.002700 0.000000 -0.074940 
#    y 0.000000 1.962790 0.000000 
#    z -0.074940 0.000000 2.043100 
# 
# From -- ./inp_files/270016.got.cif
#   From: 2010.05.17/outbox.cif.g08.bks.cpg/sg15_136_cif.got.tgz:270016.got - 2010.06.03 18:47:42.
