data_PCOD9261065
_publ_section_title
;
Structure prediction by ZEFSAII (Michael W. Deem and Ramdas Pophale) SiO2 
 PCOD9261065
Probable space group: C 2/C
;
_chemical_formula_sum "Si O2"
_cell_formula_units_Z 60
_cell_length_a 11.534301
_cell_length_b 11.252979
_cell_length_c 20.829158
_cell_angle_alpha 90.000000
_cell_angle_beta 57.244565
_cell_angle_gamma 90.000000
_cell_volume 2273.631847
_symmetry_space_group_name_H-M "C 2/C"
_symmetry_group_IT_number 15
_symmetry_cell_setting 'monoclinic'
loop_
_space_group_symop_operation_xyz
x,y,z
-x,y,1/2-z
-x,-y,-z
x,-y,1/2+z
1/2+x,1/2+y,z
1/2-x,1/2+y,1/2-z
1/2-x,1/2-y,-z
1/2+x,1/2-y,1/2+z
loop_
_atom_site_type_symbol
_atom_site_label
_atom_site_fract_x
_atom_site_fract_y
_atom_site_fract_z
Si Si1 0.748015 0.646543 0.604131
Si Si2 0.425107 0.987151 0.713953
Si Si3 0.107959 0.574075 0.420426
Si Si4 0.000000 0.180288 0.750000
Si Si5 0.469652 0.767864 0.144846
Si Si6 0.133250 0.066413 0.515160
Si Si7 0.894407 0.818384 0.011187
Si Si8 0.107913 0.989988 0.813999
O O1 0.753609 0.503914 0.616126
O O2 0.615071 0.721117 0.664841
O O3 0.862973 0.689276 0.620678
O O4 0.741307 0.634273 0.528357
O O5 0.500000 0.923906 0.750000
O O6 0.434953 0.927002 0.641156
O O7 0.267440 0.995697 0.783593
O O8 0.484825 0.118833 0.684656
O O9 0.000000 0.500000 0.500000
O O10 0.134559 0.707303 0.434870
O O11 0.090497 0.091884 0.766918
O O12 0.599975 0.732286 0.062711
O O13 0.419601 0.648112 0.194290
O O14 0.051107 0.143593 0.487681
O O15 0.185702 0.943784 0.467536
O O16 0.005869 0.024751 0.598975
#
# Coordination Sequence:
#
# PCOD9261065 Si02
#       8
#     8   8   8   4   8   8   8   8
#     4  10  20  39  63  92 126 167 214 264 329 379
#     4  11  24  43  62  97 130 166 219 269 324 385
#     4  11  21  42  66  94 131 169 210 267 327 389
#     4  10  18  40  62  84 126 166 216 264 314 392
#     4  10  21  40  63  90 129 170 208 272 326 385
#     4   9  22  39  63  96 124 171 215 269 321 385
#     4  10  20  42  63  91 135 163 213 267 324 389
#     4  10  21  40  61  89 128 167 219 265 324 388
#
# _framework density 26.389496999999999
#
# number of rings (size 3 to 8) (size 9 to 14) (size 15 to 20)
#    0.000    1.867    5.333    0.000    0.933    3.200 
#    8.400    0.000    0.000    0.000    0.000    0.000 
#    0.000    0.000    0.000    0.000    0.000    0.000 
#
# Total GULP energy -167406.094580 kJ/mol
# GULP energy per Si atom -5580.203153 kJ/mol
# Density = 2.632943 g / cm^3
# Si number density = 26.389497 Si / 1000 Ang^3
#
#
#
# Elastic Constant Matrix: (Units=GPa)
#
#
# Indices 1 2 3 4 5 6 
#
# 1 103.6379 -25.8023 16.6278 0.0000 20.3155 0.0000
# 2 -25.8023 71.4941 16.7504 0.0000 12.5580 0.0000
# 3 16.6278 16.7504 83.3595 0.0000 7.7306 0.0000
# 4 0.0000 0.0000 0.0000 114.1886 0.0000 69.7129
# 5 20.3155 12.5580 7.7306 0.0000 44.0072 0.0000
# 6 0.0000 0.0000 0.0000 69.7129 0.0000 61.7489
#
#
#
# Elastic Compliance Matrix: (Units=1/GPa)
#
#
# Indices 1 2 3 4 5 6 
#
# 1 0.013410 0.006962 -0.003370 0.000000 -0.007585 0.000000
# 2 0.006962 0.018921 -0.004465 0.000000 -0.007829 0.000000
# 3 -0.003370 -0.004465 0.013523 0.000000 0.000454 0.000000
# 4 0.000000 0.000000 0.000000 0.028181 0.000000 -0.031816
# 5 -0.007585 -0.007829 0.000454 0.000000 0.028379 0.000000
# 6 0.000000 0.000000 0.000000 -0.031816 0.000000 0.052114
#
#
# Mechanical properties :
#
#
# Convention : Reuss Voigt Hill
#
# Bulk Modulus (GPa) = 22.67199 30.40481 26.53840
# Shear Modulus (GPa) = 29.24352 60.71663 44.98007
#
# Velocity S-wave (km/s) = 3.33250 4.80186 4.13300
# Velocity P-wave (km/s) = 4.83915 6.50310 5.73183
#
# Compressibility (1/GPa) = 0.04410728
#
# Stress axis : x y z
#
# Youngs Moduli (GPa) = 74.57268 52.85213 73.94536
#
# Poissons Ratio (x) = -0.36793 0.24922
# Poissons Ratio (y) = -0.51914 0.33013
# Poissons Ratio (z) = 0.25133 0.23596
#
# Static dielectric constant tensor:
#      x y z
#    x 2.063760 0.000000 -0.022460 
#    y 0.000000 2.148790 0.000000 
#    z -0.022460 0.000000 2.147530 
# 
# From -- ./inp_files/292260.got.cif
#   From: 2010.05.17/outbox.cif.g08.bks.cpg/sg15_147_cif.got.tgz:292260.got - 2010.06.03 18:47:42.
