data_PCOD9261527
_publ_section_title
;
Structure prediction by ZEFSAII (Michael W. Deem and Ramdas Pophale) SiO2 
 PCOD9261527
Probable space group: C 2/C
;
_chemical_formula_sum "Si O2"
_cell_formula_units_Z 48
_cell_length_a 17.781799
_cell_length_b 10.331953
_cell_length_c 9.232716
_cell_angle_alpha 90.000000
_cell_angle_beta 88.156960
_cell_angle_gamma 90.000000
_cell_volume 1695.363658
_symmetry_space_group_name_H-M "C 2/C"
_symmetry_group_IT_number 15
_symmetry_cell_setting 'monoclinic'
loop_
_space_group_symop_operation_xyz
x,y,z
-x,y,1/2-z
-x,-y,-z
x,-y,1/2+z
1/2+x,1/2+y,z
1/2-x,1/2+y,1/2-z
1/2-x,1/2-y,-z
1/2+x,1/2-y,1/2+z
loop_
_atom_site_type_symbol
_atom_site_label
_atom_site_fract_x
_atom_site_fract_y
_atom_site_fract_z
Si Si1 0.617653 0.721671 0.279730
Si Si2 0.826834 0.962361 0.283156
Si Si3 0.580834 0.074391 0.219110
Si Si4 0.123182 0.774576 0.436641
Si Si5 0.796350 0.611599 0.515386
Si Si6 0.537050 0.339466 0.054425
O O1 0.668414 0.594852 0.302604
O O2 0.645554 0.848422 0.360297
O O3 0.546443 0.680271 0.382012
O O4 0.624384 0.737853 0.108139
O O5 0.816032 0.844112 0.170776
O O6 0.763014 0.979714 0.405564
O O7 0.901788 0.931376 0.374112
O O8 0.500000 0.999346 0.250000
O O9 0.607020 0.135011 0.369320
O O10 0.553268 0.200866 0.127567
O O11 0.656520 0.050907 0.119499
O O12 0.049690 0.866095 0.411480
O O13 0.750000 0.750000 0.500000
#
# Coordination Sequence:
#
# PCOD9261527 Si02
#       6
#     8   8   8   8   8   8
#     4  11  22  32  52  80 112 146 188 227 268 316
#     4  11  21  35  52  77 112 153 189 214 271 338
#     4   8  16  33  55  76 105 147 185 212 268 333
#     4  10  19  30  50  80 114 144 187 217 254 338
#     4  11  20  39  55  73 115 153 178 226 280 330
#     4   9  18  33  49  75 117 153 172 208 273 338
#
# _framework density 28.312508999999999
#
# number of rings (size 3 to 8) (size 9 to 14) (size 15 to 20)
#    0.000    2.000    5.000    3.000    0.000    4.667 
#    0.000    0.000    0.000    0.000    0.000    1.167 
#    0.000   12.667    0.000    0.000    0.000    0.000 
#
# Total GULP energy -134127.550966 kJ/mol
# GULP energy per Si atom -5588.647957 kJ/mol
# Density = 2.824807 g / cm^3
# Si number density = 28.312509 Si / 1000 Ang^3
#
#
#
# Elastic Constant Matrix: (Units=GPa)
#
#
# Indices 1 2 3 4 5 6 
#
# 1 88.7821 7.1327 52.8226 0.0000 -33.0907 0.0000
# 2 7.1327 69.3193 18.5509 0.0000 -2.3835 0.0000
# 3 52.8226 18.5509 255.2167 0.0000 -10.7756 0.0000
# 4 0.0000 0.0000 0.0000 41.4683 0.0000 8.8569
# 5 -33.0907 -2.3835 -10.7756 0.0000 61.9878 0.0000
# 6 0.0000 0.0000 0.0000 8.8569 0.0000 17.8441
#
#
#
# Elastic Compliance Matrix: (Units=1/GPa)
#
#
# Indices 1 2 3 4 5 6 
#
# 1 0.016056 -0.000589 -0.002941 0.000000 0.008037 0.000000
# 2 -0.000589 0.014743 -0.000946 0.000000 0.000088 0.000000
# 3 -0.002941 -0.000946 0.004561 0.000000 -0.000813 0.000000
# 4 0.000000 0.000000 0.000000 0.026974 0.000000 -0.013389
# 5 0.008037 0.000088 -0.000813 0.000000 0.020285 0.000000
# 6 0.000000 0.000000 0.000000 -0.013389 0.000000 0.062686
#
#
# Mechanical properties :
#
#
# Convention : Reuss Voigt Hill
#
# Bulk Modulus (GPa) = 37.86604 63.37006 50.61805
# Shear Modulus (GPa) = 30.66348 46.58085 38.62216
#
# Velocity S-wave (km/s) = 3.29452 4.06056 3.69743
# Velocity P-wave (km/s) = 5.27970 6.66446 6.01208
#
# Compressibility (1/GPa) = 0.02640889
#
# Stress axis : x y z
#
# Youngs Moduli (GPa) = 62.28068 67.82983 219.23213
#
# Poissons Ratio (x) = 0.03993 0.64478
# Poissons Ratio (y) = 0.03666 0.20740
# Poissons Ratio (z) = 0.18317 0.06417
#
# Static dielectric constant tensor:
#      x y z
#    x 2.438460 0.000000 0.029360 
#    y 0.000000 2.205940 0.000000 
#    z 0.029360 0.000000 2.152700 
# 
# From -- ./inp_files/55230.got.cif
#   From: 2010.05.17/outbox.cif.g08.bks.cpg/sg15_28_cif.got.tgz:55230.got - 2010.06.03 18:47:42.
