data_PCOD9261294
_publ_section_title
;
Structure prediction by ZEFSAII (Michael W. Deem and Ramdas Pophale) SiO2 
 PCOD9261294
Probable space group: C 2/C
;
_chemical_formula_sum "Si O2"
_cell_formula_units_Z 40
_cell_length_a 19.283321
_cell_length_b 13.158291
_cell_length_c 5.473240
_cell_angle_alpha 90.000000
_cell_angle_beta 94.579399
_cell_angle_gamma 90.000000
_cell_volume 1384.322163
_symmetry_space_group_name_H-M "C 2/C"
_symmetry_group_IT_number 15
_symmetry_cell_setting 'monoclinic'
loop_
_space_group_symop_operation_xyz
x,y,z
-x,y,1/2-z
-x,-y,-z
x,-y,1/2+z
1/2+x,1/2+y,z
1/2-x,1/2+y,1/2-z
1/2-x,1/2-y,-z
1/2+x,1/2-y,1/2+z
loop_
_atom_site_type_symbol
_atom_site_label
_atom_site_fract_x
_atom_site_fract_y
_atom_site_fract_z
Si Si1 0.920718 0.538864 0.436451
Si Si2 0.783202 0.114436 0.272246
Si Si3 0.093937 0.226074 0.683342
Si Si4 0.066038 0.110933 0.176211
Si Si5 0.743742 0.839649 0.257194
O O1 0.891497 0.530119 0.705791
O O2 0.917975 0.653525 0.333359
O O3 0.000000 0.500000 0.500000
O O4 0.857459 0.058419 0.298722
O O5 0.740119 0.100592 0.505638
O O6 0.799925 0.236791 0.275587
O O7 0.739597 0.106141 0.014207
O O8 0.067888 0.183589 0.415662
O O9 0.175566 0.198425 0.717300
O O10 0.064122 0.171636 0.919321
O O11 0.000000 0.043920 0.250000
#
# Coordination Sequence:
#
# PCOD9261294 Si02
#       5
#     8   8   8   8   8
#     4  10  21  30  38  48  66  94 118 157 185 211
#     4   8  14  25  36  54  68  85 106 139 183 198
#     4  10  19  29  39  52  65  93 126 148 181 208
#     4  10  19  25  39  54  73  91 114 148 172 221
#     4   8  14  25  40  50  66  83 112 147 169 213
#
# _framework density 28.895009999999999
#
# number of rings (size 3 to 8) (size 9 to 14) (size 15 to 20)
#    0.000    2.800    0.000    1.800    8.400    0.000 
#    0.000    0.000    0.000    0.000    0.000    0.000 
#    0.000    0.000    0.000    0.000    0.000    2.000 
#
# Total GULP energy -111907.303306 kJ/mol
# GULP energy per Si atom -5595.365165 kJ/mol
# Density = 2.882924 g / cm^3
# Si number density = 28.895010 Si / 1000 Ang^3
#
#
#
# Elastic Constant Matrix: (Units=GPa)
#
#
# Indices 1 2 3 4 5 6 
#
# 1 122.8576 -3.7264 46.0896 0.0000 -9.6708 0.0000
# 2 -3.7264 149.6877 49.5439 0.0000 7.4454 0.0000
# 3 46.0896 49.5439 340.7799 0.0000 -25.0677 0.0000
# 4 0.0000 0.0000 0.0000 23.0500 0.0000 2.0583
# 5 -9.6708 7.4454 -25.0677 0.0000 52.6887 0.0000
# 6 0.0000 0.0000 0.0000 2.0583 0.0000 -9.8712
#
#
#
# Elastic Compliance Matrix: (Units=1/GPa)
#
#
# Indices 1 2 3 4 5 6 
#
# 1 0.008676 0.000561 -0.001185 0.000000 0.000949 0.000000
# 2 0.000561 0.007176 -0.001229 0.000000 -0.001496 0.000000
# 3 -0.001185 -0.001229 0.003389 0.000000 0.001568 0.000000
# 4 0.000000 0.000000 0.000000 0.042591 0.000000 0.008881
# 5 0.000949 -0.001496 0.001568 0.000000 0.020111 0.000000
# 6 0.000000 0.000000 0.000000 0.008881 0.000000 -0.099453
#
#
# Mechanical properties :
#
#
# Convention : Reuss Voigt Hill
#
# Bulk Modulus (GPa) = 64.37529 88.57103 76.47316
# Shear Modulus (GPa) = -579.64534 47.93470 -265.85532
#
# Velocity S-wave (km/s) = -14.17884 4.07741 -9.60245
# Velocity P-wave (km/s) = 15.67562 7.27230 9.81934
#
# Compressibility (1/GPa) = 0.01553391
#
# Stress axis : x y z
#
# Youngs Moduli (GPa) = 115.26262 139.35792 295.08942
#
# Poissons Ratio (x) = -0.07818 0.34972
# Poissons Ratio (y) = -0.06466 0.36271
# Poissons Ratio (z) = 0.13660 0.17129
#
# Static dielectric constant tensor:
#      x y z
#    x 2.408090 0.000000 -0.027530 
#    y 0.000000 2.234940 0.000000 
#    z -0.027530 0.000000 2.310390 
# 
# From -- ./inp_files/7862.got.cif
#   From: 2010.05.17/outbox.cif.g08.bks.cpg/sg15_4_cif.got.tgz:7862.got - 2010.06.03 18:47:42.
