data_PCOD9261905
_publ_section_title
;
Structure prediction by ZEFSAII (Michael W. Deem and Ramdas Pophale) SiO2 
 PCOD9261905
Probable space group: C 2/C
;
_chemical_formula_sum "Si O2"
_cell_formula_units_Z 64
_cell_length_a 22.111117
_cell_length_b 5.687233
_cell_length_c 22.823310
_cell_angle_alpha 90.000000
_cell_angle_beta 76.979159
_cell_angle_gamma 90.000000
_cell_volume 2796.261382
_symmetry_space_group_name_H-M "C 2/C"
_symmetry_group_IT_number 15
_symmetry_cell_setting 'monoclinic'
loop_
_space_group_symop_operation_xyz
x,y,z
-x,y,1/2-z
-x,-y,-z
x,-y,1/2+z
1/2+x,1/2+y,z
1/2-x,1/2+y,1/2-z
1/2-x,1/2-y,-z
1/2+x,1/2-y,1/2+z
loop_
_atom_site_type_symbol
_atom_site_label
_atom_site_fract_x
_atom_site_fract_y
_atom_site_fract_z
Si Si1 0.502397 0.241809 0.420277
Si Si2 0.698701 0.198773 0.931260
Si Si3 0.197667 0.524610 0.547026
Si Si4 0.837556 0.656714 0.240461
Si Si5 0.692330 0.410299 0.636709
Si Si6 0.308461 0.671949 0.227991
Si Si7 0.902494 0.724846 0.346952
Si Si8 0.437434 0.739818 0.060790
O O1 0.467496 0.213654 0.365490
O O2 0.533695 0.501556 0.417368
O O3 0.456577 0.253414 0.487258
O O4 0.541060 0.998082 0.420532
O O5 0.736030 0.403493 0.956220
O O6 0.636198 0.289509 0.917682
O O7 0.750435 0.089817 0.878383
O O8 0.679471 0.007910 0.984316
O O9 0.201635 0.775902 0.574446
O O10 0.145992 0.402954 0.599085
O O11 0.763869 0.655611 0.274438
O O12 0.842245 0.415012 0.203174
O O13 0.885526 0.645195 0.284593
O O14 0.841445 0.918502 0.211101
O O15 0.695558 0.298920 0.699832
O O16 0.623254 0.510916 0.648038
#
# Coordination Sequence:
#
# PCOD9261905 Si02
#       8
#     8   8   8   8   8   8   8   8
#     4  10  22  35  53  70  97 137 174 214 252 286
#     4  10  21  33  47  74 102 140 175 206 249 300
#     4  10  19  32  49  73 104 138 168 206 249 308
#     4   9  17  29  49  71 105 133 159 203 252 311
#     4  10  20  30  51  74 107 137 165 209 253 311
#     4   9  17  30  46  74 104 134 161 196 256 311
#     4  10  19  32  50  77 103 133 170 210 258 304
#     4  10  22  37  50  70  98 137 176 214 244 292
#
# _framework density 22.887702000000001
#
# number of rings (size 3 to 8) (size 9 to 14) (size 15 to 20)
#    0.000    2.250    2.500    0.375    3.500    1.000 
#    0.000    0.000    0.000    0.000    0.000    0.875 
#    0.000    0.000    0.000    0.000    0.000    0.000 
#
# Total GULP energy -178269.388094 kJ/mol
# GULP energy per Si atom -5570.918378 kJ/mol
# Density = 2.283561 g / cm^3
# Si number density = 22.887702 Si / 1000 Ang^3
#
#
#
# Elastic Constant Matrix: (Units=GPa)
#
#
# Indices 1 2 3 4 5 6 
#
# 1 72.3583 29.5861 15.9518 0.0000 35.6145 0.0000
# 2 29.5861 137.3127 24.1205 0.0000 16.8147 0.0000
# 3 15.9518 24.1205 64.6212 0.0000 18.4363 0.0000
# 4 0.0000 0.0000 0.0000 26.7707 0.0000 8.9745
# 5 35.6145 16.8147 18.4363 0.0000 32.3447 0.0000
# 6 0.0000 0.0000 0.0000 8.9745 0.0000 12.6825
#
#
#
# Elastic Compliance Matrix: (Units=1/GPa)
#
#
# Indices 1 2 3 4 5 6 
#
# 1 0.031653 -0.003108 0.003378 0.000000 -0.035163 0.000000
# 2 -0.003108 0.008327 -0.002486 0.000000 0.000511 0.000000
# 3 0.003378 -0.002486 0.019419 0.000000 -0.013496 0.000000
# 4 0.000000 0.000000 0.000000 0.048971 0.000000 -0.034654
# 5 -0.035163 0.000511 -0.013496 0.000000 0.077063 0.000000
# 6 0.000000 0.000000 0.000000 -0.034654 0.000000 0.103371
#
#
# Mechanical properties :
#
#
# Convention : Reuss Voigt Hill
#
# Bulk Modulus (GPa) = 18.19252 45.95656 32.07454
# Shear Modulus (GPa) = 16.04836 28.00182 22.02509
#
# Velocity S-wave (km/s) = 2.65085 3.50157 3.10548
# Velocity P-wave (km/s) = 4.16356 6.03910 5.18681
#
# Compressibility (1/GPa) = 0.05496765
#
# Stress axis : x y z
#
# Youngs Moduli (GPa) = 31.59220 120.09835 51.49499
#
# Poissons Ratio (x) = 0.37323 -0.17397
# Poissons Ratio (y) = 0.09818 0.12804
# Poissons Ratio (z) = -0.10673 0.29862
#
# Static dielectric constant tensor:
#      x y z
#    x 1.818540 0.000000 0.008960 
#    y 0.000000 2.038300 0.000000 
#    z 0.008960 0.000000 1.899210 
# 
# From -- ./inp_files/301609.got.cif
#   From: 2010.05.17/outbox.cif.g08.bks.cpg/sg15_151_cif.got.tgz:301609.got - 2010.06.03 18:47:42.
