data_PCOD9261786
_publ_section_title
;
Structure prediction by ZEFSAII (Michael W. Deem and Ramdas Pophale) SiO2 
 PCOD9261786
Probable space group: C 2/C
;
_chemical_formula_sum "Si O2"
_cell_formula_units_Z 52
_cell_length_a 17.610948
_cell_length_b 21.570304
_cell_length_c 13.031437
_cell_angle_alpha 90.000000
_cell_angle_beta 30.836917
_cell_angle_gamma 90.000000
_cell_volume 2537.503775
_symmetry_space_group_name_H-M "C 2/C"
_symmetry_group_IT_number 15
_symmetry_cell_setting 'monoclinic'
loop_
_space_group_symop_operation_xyz
x,y,z
-x,y,1/2-z
-x,-y,-z
x,-y,1/2+z
1/2+x,1/2+y,z
1/2-x,1/2+y,1/2-z
1/2-x,1/2-y,-z
1/2+x,1/2-y,1/2+z
loop_
_atom_site_type_symbol
_atom_site_label
_atom_site_fract_x
_atom_site_fract_y
_atom_site_fract_z
Si Si1 0.875248 0.738060 0.109789
Si Si2 0.143242 0.978052 0.401463
Si Si3 0.669652 0.294866 0.673433
Si Si4 0.078703 0.097294 0.558019
Si Si5 0.729530 0.633742 0.684746
Si Si6 0.806790 0.685471 0.390492
Si Si7 0.000000 0.100462 0.250000
O O1 0.778292 0.696736 0.144440
O O2 0.781031 0.801306 0.242428
O O3 0.913593 0.703540 0.172705
O O4 0.022480 0.760914 0.883897
O O5 0.254682 0.930928 0.215220
O O6 0.083421 0.939745 0.567857
O O7 0.190625 0.046300 0.383077
O O8 0.000000 0.000000 0.500000
O O9 0.750000 0.250000 0.500000
O O10 0.615358 0.356139 0.677868
O O11 0.169620 0.154961 0.491650
O O12 0.000000 0.068450 0.750000
O O13 0.943427 0.122107 0.646971
O O14 0.827579 0.643972 0.468515
O O15 0.750000 0.750000 0.500000
#
# Coordination Sequence:
#
# PCOD9261786 Si02
#       7
#     8   8   8   8   8   8   4
#     4  11  21  35  57  83 119 161 199 239 304 359
#     4  10  19  31  53  83 117 153 195 251 312 350
#     4  12  22  38  58  85 123 159 198 247 303 367
#     4   9  16  29  51  79 120 153 194 249 307 351
#     4   9  17  33  49  80 118 155 192 241 299 356
#     4   9  19  31  49  78 119 159 191 238 303 370
#     4  12  22  38  54  86 126 154 196 254 312 354
#
# _framework density 20.49258
#
# number of rings (size 3 to 8) (size 9 to 14) (size 15 to 20)
#    0.000    1.846    3.846    0.923    2.154    1.231 
#    0.000    2.308    0.000    0.000    0.000    4.308 
#   13.846    1.231    0.000    0.000    0.000    0.000 
#
# Total GULP energy -144861.444179 kJ/mol
# GULP energy per Si atom -5571.594007 kJ/mol
# Density = 2.044594 g / cm^3
# Si number density = 20.492580 Si / 1000 Ang^3
#
#
#
# Elastic Constant Matrix: (Units=GPa)
#
#
# Indices 1 2 3 4 5 6 
#
# 1 76.2213 39.2596 31.1959 0.0027 21.6917 -0.0041
# 2 39.2596 112.2816 22.9125 0.0008 13.1690 -0.0017
# 3 31.1959 22.9125 87.4312 -0.0025 19.8563 0.0014
# 4 0.0027 0.0008 -0.0025 21.9896 0.0004 18.0457
# 5 21.6917 13.1690 19.8563 0.0004 29.0344 0.0003
# 6 -0.0041 -0.0017 0.0014 18.0457 0.0003 33.5414
#
#
#
# Elastic Compliance Matrix: (Units=1/GPa)
#
#
# Indices 1 2 3 4 5 6 
#
# 1 0.020121 -0.005111 -0.003495 -0.000008 -0.010324 0.000007
# 2 -0.005111 0.010943 -0.000928 0.000000 -0.000510 0.000000
# 3 -0.003495 -0.000928 0.014490 0.000005 -0.006877 -0.000004
# 4 -0.000008 0.000000 0.000005 0.081428 0.000001 -0.043810
# 5 -0.010324 -0.000510 -0.006877 0.000001 0.047089 -0.000002
# 6 0.000007 0.000000 -0.000004 -0.043810 -0.000002 0.053384
#
#
# Mechanical properties :
#
#
# Convention : Reuss Voigt Hill
#
# Bulk Modulus (GPa) = 37.75857 51.40779 44.58318
# Shear Modulus (GPa) = 19.58080 29.08414 24.33247
#
# Velocity S-wave (km/s) = 3.09448 3.77138 3.44958
# Velocity P-wave (km/s) = 5.58867 6.64116 6.13752
#
# Compressibility (1/GPa) = 0.02648406
#
# Stress axis : x y z
#
# Youngs Moduli (GPa) = 49.69959 91.38651 69.01437
#
# Poissons Ratio (x) = 0.46710 0.24122
# Poissons Ratio (y) = 0.25403 0.06405
# Poissons Ratio (z) = 0.17371 0.08482
#
# Static dielectric constant tensor:
#      x y z
#    x 1.828150 0.000000 0.049730 
#    y 0.000000 1.765020 0.000000 
#    z 0.049730 0.000000 1.760380 
# 
# From -- ./inp_files/169412.got.cif
#   From: 2010.05.17/outbox.cif.g08.bks.cpg/sg15_85_cif.got.tgz:169412.got - 2010.06.03 18:47:42.
