data_PCOD9261287
_publ_section_title
;
Structure prediction by ZEFSAII (Michael W. Deem and Ramdas Pophale) SiO2 
 PCOD9261287
Probable space group: C 2/C
;
_chemical_formula_sum "Si O2"
_cell_formula_units_Z 40
_cell_length_a 12.739864
_cell_length_b 7.628903
_cell_length_c 24.663047
_cell_angle_alpha 90.000000
_cell_angle_beta 46.553600
_cell_angle_gamma 90.000000
_cell_volume 1740.287527
_symmetry_space_group_name_H-M "C 2/C"
_symmetry_group_IT_number 15
_symmetry_cell_setting 'monoclinic'
loop_
_space_group_symop_operation_xyz
x,y,z
-x,y,1/2-z
-x,-y,-z
x,-y,1/2+z
1/2+x,1/2+y,z
1/2-x,1/2+y,1/2-z
1/2-x,1/2-y,-z
1/2+x,1/2-y,1/2+z
loop_
_atom_site_type_symbol
_atom_site_label
_atom_site_fract_x
_atom_site_fract_y
_atom_site_fract_z
Si Si1 0.307204 0.354985 0.106551
Si Si2 0.445534 0.950920 0.851363
Si Si3 0.425450 0.274061 0.551916
Si Si4 0.000000 0.147605 0.750000
Si Si5 0.750000 0.250000 0.000000
Si Si6 0.206258 0.514813 0.322397
O O1 0.146722 0.396734 0.143257
O O2 0.381142 0.540704 0.095079
O O3 0.307899 0.213811 0.153159
O O4 0.405224 0.279813 0.022490
O O5 0.436109 0.778332 0.817497
O O6 0.612622 0.999694 0.801168
O O7 0.369105 0.893783 0.934196
O O8 0.343845 0.272420 0.523182
O O9 0.373316 0.114672 0.606891
O O10 0.873412 0.038531 0.766328
#
# Coordination Sequence:
#
# PCOD9261287 Si02
#       6
#     8   8   8   4   4   8
#     4  10  22  42  70 107 138 172 229 292 353 415
#     4  11  26  46  72 104 140 183 238 292 352 425
#     4  10  21  43  71 110 142 169 233 302 345 420
#     4  12  28  50  64 100 150 186 238 296 332 430
#     4  10  18  44  74 100 144 174 222 312 342 400
#     4  12  25  47  72 100 141 195 230 286 356 424
#
# _framework density 22.984708999999999
#
# number of rings (size 3 to 8) (size 9 to 14) (size 15 to 20)
#    0.000    1.200    6.000    0.600    0.000    4.800 
#   10.800    0.000    0.000    0.000    0.000    0.000 
#    0.000    0.000    0.000    0.000    0.000    0.000 
#
# Total GULP energy -111350.239852 kJ/mol
# GULP energy per Si atom -5567.511993 kJ/mol
# Density = 2.293240 g / cm^3
# Si number density = 22.984709 Si / 1000 Ang^3
#
#
#
# Elastic Constant Matrix: (Units=GPa)
#
#
# Indices 1 2 3 4 5 6 
#
# 1 103.9339 22.0288 24.5594 -0.0001 -30.7731 0.0001
# 2 22.0288 73.0685 14.3347 -0.0001 6.3354 0.0000
# 3 24.5594 14.3347 29.8725 0.0000 -21.7028 0.0000
# 4 -0.0001 -0.0001 0.0000 -5.1880 0.0000 13.2492
# 5 -30.7731 6.3354 -21.7028 0.0000 28.9346 0.0000
# 6 0.0001 0.0000 0.0000 13.2492 0.0000 5.5535
#
#
#
# Elastic Compliance Matrix: (Units=1/GPa)
#
#
# Indices 1 2 3 4 5 6 
#
# 1 0.018125 -0.010779 0.013165 0.000000 0.031512 0.000000
# 2 -0.010779 0.028691 -0.039111 0.000000 -0.047082 0.000000
# 3 0.013165 -0.039111 0.127045 0.000000 0.117857 0.000000
# 4 0.000000 0.000000 0.000000 -0.027176 0.000000 0.064835
# 5 0.031512 -0.047082 0.117857 0.000000 0.166783 0.000000
# 6 0.000000 0.000000 0.000000 0.064835 0.000000 0.025387
#
#
# Mechanical properties :
#
#
# Convention : Reuss Voigt Hill
#
# Bulk Modulus (GPa) = 9.95929 36.52452 23.24190
# Shear Modulus (GPa) = 11.21634 15.59015 13.40324
#
# Velocity S-wave (km/s) = 2.21145 2.60721 2.41744
# Velocity P-wave (km/s) = 3.29592 4.99887 4.23390
#
# Compressibility (1/GPa) = 0.10040876
#
# Stress axis : x y z
#
# Youngs Moduli (GPa) = 55.17095 34.85441 7.87122
#
# Poissons Ratio (x) = 0.37571 -0.10362
# Poissons Ratio (y) = 0.59471 0.30786
# Poissons Ratio (z) = -0.72630 1.36321
#
# Static dielectric constant tensor:
#      x y z
#    x 1.863960 0.000000 -0.077990 
#    y 0.000000 1.827960 0.000000 
#    z -0.077990 0.000000 1.962140 
# 
# From -- ./inp_files/241756.got.cif
#   From: 2010.05.17/outbox.cif.g08.bks.cpg/sg15_121_cif.got.tgz:241756.got - 2010.06.03 18:47:42.
