data_PCOD9261134
_publ_section_title
;
Structure prediction by ZEFSAII (Michael W. Deem and Ramdas Pophale) SiO2 
 PCOD9261134
Probable space group: C 2/C
;
_chemical_formula_sum "Si O2"
_cell_formula_units_Z 60
_cell_length_a 25.467114
_cell_length_b 7.670363
_cell_length_c 23.973011
_cell_angle_alpha 90.000000
_cell_angle_beta 147.741714
_cell_angle_gamma 90.000000
_cell_volume 2499.455427
_symmetry_space_group_name_H-M "C 2/C"
_symmetry_group_IT_number 15
_symmetry_cell_setting 'monoclinic'
loop_
_space_group_symop_operation_xyz
x,y,z
-x,y,1/2-z
-x,-y,-z
x,-y,1/2+z
1/2+x,1/2+y,z
1/2-x,1/2+y,1/2-z
1/2-x,1/2-y,-z
1/2+x,1/2-y,1/2+z
loop_
_atom_site_type_symbol
_atom_site_label
_atom_site_fract_x
_atom_site_fract_y
_atom_site_fract_z
Si Si1 0.285215 0.948851 0.023945
Si Si2 0.707385 0.558632 0.057703
Si Si3 0.415980 0.844695 0.789568
Si Si4 0.128300 0.152648 0.092905
Si Si5 0.002677 0.627378 0.554884
Si Si6 0.188951 0.086960 0.733985
Si Si7 0.783936 0.656374 0.402932
Si Si8 0.000000 0.580909 0.250000
O O1 0.210339 0.066009 0.993413
O O2 0.397472 0.975273 0.146835
O O3 0.250000 0.750000 0.000000
O O4 0.280441 0.971635 0.953483
O O5 0.805583 0.651323 0.166679
O O6 0.620110 0.628540 0.018739
O O7 0.728677 0.355276 0.090002
O O8 0.402294 0.696883 0.824311
O O9 0.441543 0.024547 0.845116
O O10 0.481881 0.822799 0.793198
O O11 0.046079 0.200638 0.064557
O O12 0.210656 0.302405 0.174499
O O13 0.173634 0.975217 0.157512
O O14 0.000000 0.500000 0.500000
O O15 0.893293 0.649541 0.477743
O O16 0.208628 0.918814 0.790317
#
# Coordination Sequence:
#
# PCOD9261134 Si02
#       8
#     8   8   8   8   8   8   8   4
#     4   9  19  38  65  92 123 165 213 257 312 377
#     4   9  21  38  64  89 116 162 208 244 309 372
#     4  10  22  41  63  87 121 166 202 253 315 370
#     4  11  22  39  61  88 123 163 201 251 307 384
#     4  12  24  38  59  90 127 157 198 257 315 364
#     4  11  22  39  63  87 118 164 207 244 310 381
#     4  11  21  39  63  90 120 157 206 260 307 368
#     4  10  18  40  66  90 126 166 210 264 316 374
#
# _framework density 24.005230999999998
#
# number of rings (size 3 to 8) (size 9 to 14) (size 15 to 20)
#    0.000    1.600    2.667    3.200    1.867    0.533 
#    0.000    7.333    5.867    0.000    0.000    0.000 
#    0.000    0.000    0.000    0.000    0.000    0.000 
#
# Total GULP energy -167499.964218 kJ/mol
# GULP energy per Si atom -5583.332141 kJ/mol
# Density = 2.395059 g / cm^3
# Si number density = 24.005231 Si / 1000 Ang^3
#
#
#
# Elastic Constant Matrix: (Units=GPa)
#
#
# Indices 1 2 3 4 5 6 
#
# 1 195.0730 22.8040 28.7431 0.0000 -7.1084 0.0000
# 2 22.8040 54.4805 1.7384 0.0001 4.5118 0.0001
# 3 28.7431 1.7384 55.5664 0.0000 4.2589 0.0000
# 4 0.0000 0.0001 0.0000 21.3677 0.0000 -3.9341
# 5 -7.1084 4.5118 4.2589 0.0000 38.9004 0.0000
# 6 0.0000 0.0001 0.0000 -3.9341 0.0000 31.8051
#
#
#
# Elastic Compliance Matrix: (Units=1/GPa)
#
#
# Indices 1 2 3 4 5 6 
#
# 1 0.005946 -0.002532 -0.003129 0.000000 0.001723 0.000000
# 2 -0.002532 0.019621 0.000913 0.000000 -0.002838 0.000000
# 3 -0.003129 0.000913 0.019804 0.000000 -0.002846 0.000000
# 4 0.000000 0.000000 0.000000 0.047890 0.000000 0.005924
# 5 0.001723 -0.002838 -0.002846 0.000000 0.026662 0.000000
# 6 0.000000 0.000000 0.000000 0.005924 0.000000 0.032174
#
#
# Mechanical properties :
#
#
# Convention : Reuss Voigt Hill
#
# Bulk Modulus (GPa) = 27.87280 45.74344 36.80812
# Shear Modulus (GPa) = 28.81001 35.20361 32.00681
#
# Velocity S-wave (km/s) = 3.46808 3.83364 3.65544
# Velocity P-wave (km/s) = 5.26053 6.22035 5.76046
#
# Compressibility (1/GPa) = 0.03587727
#
# Stress axis : x y z
#
# Youngs Moduli (GPa) = 168.18061 50.96637 50.49398
#
# Poissons Ratio (x) = 0.12903 0.15797
# Poissons Ratio (y) = 0.42578 -0.04612
# Poissons Ratio (z) = 0.52616 -0.04655
#
# Static dielectric constant tensor:
#      x y z
#    x 1.998960 0.000000 0.001930 
#    y 0.000000 1.968490 0.000000 
#    z 0.001930 0.000000 1.893380 
# 
# From -- ./inp_files/303106.got.cif
#   From: 2010.05.17/outbox.cif.g08.bks.cpg/sg15_152_cif.got.tgz:303106.got - 2010.06.03 18:47:42.
