data_PCOD9261687
_publ_section_title
;
Structure prediction by ZEFSAII (Michael W. Deem and Ramdas Pophale) SiO2 
 PCOD9261687
Probable space group: C 2/C
;
_chemical_formula_sum "Si O2"
_cell_formula_units_Z 56
_cell_length_a 21.390772
_cell_length_b 27.496825
_cell_length_c 5.092726
_cell_angle_alpha 90.000000
_cell_angle_beta 95.092972
_cell_angle_gamma 90.000000
_cell_volume 2983.604918
_symmetry_space_group_name_H-M "C 2/C"
_symmetry_group_IT_number 15
_symmetry_cell_setting 'monoclinic'
loop_
_space_group_symop_operation_xyz
x,y,z
-x,y,1/2-z
-x,-y,-z
x,-y,1/2+z
1/2+x,1/2+y,z
1/2-x,1/2+y,1/2-z
1/2-x,1/2-y,-z
1/2+x,1/2-y,1/2+z
loop_
_atom_site_type_symbol
_atom_site_label
_atom_site_fract_x
_atom_site_fract_y
_atom_site_fract_z
Si Si1 0.886114 0.970479 0.476253
Si Si2 0.265890 0.131483 0.807431
Si Si3 0.285192 0.804660 0.794076
Si Si4 0.733287 0.972851 0.394218
Si Si5 0.041196 0.793335 0.508149
Si Si6 0.348273 0.727443 0.141753
Si Si7 0.878498 0.864279 0.294996
O O1 0.903244 0.915154 0.416229
O O2 0.906776 0.991411 0.762064
O O3 0.809514 0.970605 0.438937
O O4 0.273444 0.162745 0.547482
O O5 0.191401 0.127621 0.849368
O O6 0.297990 0.160553 0.055080
O O7 0.287911 0.077751 0.739728
O O8 0.217874 0.777878 0.732037
O O9 0.335741 0.765061 0.902632
O O10 0.714007 0.014871 0.182729
O O11 0.096753 0.759365 0.638227
O O12 0.075379 0.840541 0.398798
O O13 0.000000 0.804175 0.750000
O O14 0.000000 0.773664 0.250000
O O15 0.367574 0.676189 0.016510
#
# Coordination Sequence:
#
# PCOD9261687 Si02
#       7
#     8   8   8   8   8   8   8
#     4   9  19  30  48  72  91 120 159 210 265 305
#     4  10  19  31  49  76 102 135 164 208 257 290
#     4  10  21  32  53  76 107 125 162 209 255 307
#     4   9  16  27  43  66  99 132 169 199 232 295
#     4  12  24  37  54  74  95 128 173 212 251 306
#     4  10  22  36  54  77  99 131 164 205 261 302
#     4  10  21  35  55  71 101 125 169 214 258 306
#
# _framework density 18.769241000000001
#
# number of rings (size 3 to 8) (size 9 to 14) (size 15 to 20)
#    0.000    2.000    2.857    0.857    4.000    5.143 
#    0.000    0.000    0.000    2.571    0.000    0.000 
#    0.000    0.000    0.000    0.000    0.000   50.000 
#
# Total GULP energy -156290.842800 kJ/mol
# GULP energy per Si atom -5581.815814 kJ/mol
# Density = 1.872652 g / cm^3
# Si number density = 18.769241 Si / 1000 Ang^3
#
#
#
# Elastic Constant Matrix: (Units=GPa)
#
#
# Indices 1 2 3 4 5 6 
#
# 1 39.2975 18.3756 22.5811 0.0000 8.3084 0.0000
# 2 18.3756 36.4360 6.2193 0.0000 7.8440 0.0000
# 3 22.5811 6.2193 66.8155 0.0000 -9.0465 0.0000
# 4 0.0000 0.0000 0.0000 26.2455 0.0000 -5.1128
# 5 8.3084 7.8440 -9.0465 0.0000 20.6983 0.0000
# 6 0.0000 0.0000 0.0000 -5.1128 0.0000 4.6996
#
#
#
# Elastic Compliance Matrix: (Units=1/GPa)
#
#
# Indices 1 2 3 4 5 6 
#
# 1 0.047377 -0.016597 -0.017208 0.000000 -0.020249 0.000000
# 2 -0.016597 0.037081 0.001230 0.000000 -0.006853 0.000000
# 3 -0.017208 0.001230 0.022895 0.000000 0.016448 0.000000
# 4 0.000000 0.000000 0.000000 0.048349 0.000000 0.052600
# 5 -0.020249 -0.006853 0.016448 0.000000 0.066227 0.000000
# 6 0.000000 0.000000 0.000000 0.052600 0.000000 0.270010
#
#
# Mechanical properties :
#
#
# Convention : Reuss Voigt Hill
#
# Bulk Modulus (GPa) = 23.69567 26.32232 25.00899
# Shear Modulus (GPa) = 8.75417 16.68688 12.72052
#
# Velocity S-wave (km/s) = 2.16200 2.98494 2.60615
# Velocity P-wave (km/s) = 4.34562 5.09259 4.73386
#
# Compressibility (1/GPa) = 0.04220181
#
# Stress axis : x y z
#
# Youngs Moduli (GPa) = 21.10732 26.96802 43.67785
#
# Poissons Ratio (x) = 0.44758 0.75162
# Poissons Ratio (y) = 0.35031 -0.05371
# Poissons Ratio (z) = 0.36322 -0.03316
#
# Static dielectric constant tensor:
#      x y z
#    x 1.680580 0.000000 0.007130 
#    y 0.000000 1.679370 0.000000 
#    z 0.007130 0.000000 1.696010 
# 
# From -- ./inp_files/13674.got.cif
#   From: 2010.05.17/outbox.cif.g08.bks.cpg/sg15_7_cif.got.tgz:13674.got - 2010.06.03 18:47:42.
