data_PCOD9261299
_publ_section_title
;
Structure prediction by ZEFSAII (Michael W. Deem and Ramdas Pophale) SiO2 
 PCOD9261299
Probable space group: C 2/C
;
_chemical_formula_sum "Si O2"
_cell_formula_units_Z 56
_cell_length_a 21.583242
_cell_length_b 26.783812
_cell_length_c 17.595668
_cell_angle_alpha 90.000000
_cell_angle_beta 158.829030
_cell_angle_gamma 90.000000
_cell_volume 3673.542128
_symmetry_space_group_name_H-M "C 2/C"
_symmetry_group_IT_number 15
_symmetry_cell_setting 'monoclinic'
loop_
_space_group_symop_operation_xyz
x,y,z
-x,y,1/2-z
-x,-y,-z
x,-y,1/2+z
1/2+x,1/2+y,z
1/2-x,1/2+y,1/2-z
1/2-x,1/2-y,-z
1/2+x,1/2-y,1/2+z
loop_
_atom_site_type_symbol
_atom_site_label
_atom_site_fract_x
_atom_site_fract_y
_atom_site_fract_z
Si Si1 0.170989 0.532820 0.905643
Si Si2 0.767514 0.473263 0.663782
Si Si3 0.805865 0.693004 0.556047
Si Si4 0.993695 0.942755 0.462748
Si Si5 0.790573 0.382380 0.164216
Si Si6 0.099334 0.895012 0.737551
Si Si7 0.136396 0.565512 0.611107
O O1 0.264759 0.494917 0.956684
O O2 0.118374 0.578476 0.788699
O O3 0.000000 0.512984 0.750000
O O4 0.293366 0.558708 0.106444
O O5 0.611266 0.443470 0.522655
O O6 0.809795 0.519493 0.770415
O O7 0.947943 0.444511 0.865490
O O8 0.750000 0.750000 0.500000
O O9 0.798408 0.669751 0.631599
O O10 0.691129 0.656032 0.371047
O O11 0.000000 0.690154 0.750000
O O12 0.073363 0.906348 0.618630
O O13 0.790928 0.930620 0.227764
O O14 0.000000 0.000000 0.500000
O O15 0.864875 0.387796 0.332931
O O16 0.589894 0.396350 0.942201
#
# Coordination Sequence:
#
# PCOD9261299 Si02
#       7
#     8   8   8   8   8   8   8
#     4  10  19  26  38  60  81 112 143 180 222 256
#     4   9  17  27  40  55  82 104 139 184 214 259
#     4  11  21  31  45  63  86 115 148 187 224 263
#     4   9  18  28  44  60  80 109 146 189 221 256
#     4   9  17  30  43  59  78 108 145 186 218 255
#     4  10  19  31  45  61  84 112 152 190 220 266
#     4   8  16  27  41  58  75 103 140 179 217 256
#
# _framework density 15.244142999999999
#
# number of rings (size 3 to 8) (size 9 to 14) (size 15 to 20)
#    0.000    2.571    0.000    5.143   10.000    0.000 
#    0.000    0.000    0.000    0.000    0.000    0.000 
#    0.000    0.000    0.000    0.000    0.000    5.714 
#
# Total GULP energy -155916.170522 kJ/mol
# GULP energy per Si atom -5568.434661 kJ/mol
# Density = 1.520945 g / cm^3
# Si number density = 15.244143 Si / 1000 Ang^3
#
#
#
# Elastic Constant Matrix: (Units=GPa)
#
#
# Indices 1 2 3 4 5 6 
#
# 1 79.8724 29.4833 35.1359 0.0000 28.3537 0.0000
# 2 29.4833 60.3319 24.3615 0.0000 2.1438 0.0000
# 3 35.1359 24.3615 67.4527 -0.0001 20.2373 0.0000
# 4 0.0000 0.0000 -0.0001 15.8207 0.0000 2.4882
# 5 28.3537 2.1438 20.2373 0.0000 18.7585 0.0000
# 6 0.0000 0.0000 0.0000 2.4882 0.0000 18.6048
#
#
#
# Elastic Compliance Matrix: (Units=1/GPa)
#
#
# Indices 1 2 3 4 5 6 
#
# 1 0.040216 -0.019563 0.005447 0.000000 -0.064428 0.000000
# 2 -0.019563 0.029747 -0.012427 0.000000 0.039577 0.000000
# 3 0.005447 -0.012427 0.027384 0.000000 -0.036355 0.000000
# 4 0.000000 0.000000 0.000000 0.064566 0.000000 -0.008635
# 5 -0.064428 0.039577 -0.036355 0.000000 0.185391 0.000000
# 6 0.000000 0.000000 0.000000 -0.008635 0.000000 0.054904
#
#
# Mechanical properties :
#
#
# Convention : Reuss Voigt Hill
#
# Bulk Modulus (GPa) = 22.59392 42.84648 32.72020
# Shear Modulus (GPa) = 10.63719 18.54855 14.59287
#
# Velocity S-wave (km/s) = 2.64444 3.49200 3.09735
# Velocity P-wave (km/s) = 4.91707 6.66533 5.85680
#
# Compressibility (1/GPa) = 0.04425969
#
# Stress axis : x y z
#
# Youngs Moduli (GPa) = 24.86552 33.61706 36.51823
#
# Poissons Ratio (x) = 0.65765 -0.19890
# Poissons Ratio (y) = 0.48645 0.45382
# Poissons Ratio (z) = -0.13544 0.41776
#
# Static dielectric constant tensor:
#      x y z
#    x 1.539020 0.000000 0.004370 
#    y 0.000000 1.498720 0.000000 
#    z 0.004370 0.000000 1.545980 
# 
# From -- ./inp_files/217086.got.cif
#   From: 2010.05.17/outbox.cif.g08.bks.cpg/sg15_109_cif.got.tgz:217086.got - 2010.06.03 18:47:42.
