data_PCOD9261019
_publ_section_title
;
Structure prediction by ZEFSAII (Michael W. Deem and Ramdas Pophale) SiO2 
 PCOD9261019
Probable space group: C 2/C
;
_chemical_formula_sum "Si O2"
_cell_formula_units_Z 44
_cell_length_a 13.587514
_cell_length_b 11.152113
_cell_length_c 14.271848
_cell_angle_alpha 90.000000
_cell_angle_beta 60.376502
_cell_angle_gamma 90.000000
_cell_volume 1879.936593
_symmetry_space_group_name_H-M "C 2/C"
_symmetry_group_IT_number 15
_symmetry_cell_setting 'monoclinic'
loop_
_space_group_symop_operation_xyz
x,y,z
-x,y,1/2-z
-x,-y,-z
x,-y,1/2+z
1/2+x,1/2+y,z
1/2-x,1/2+y,1/2-z
1/2-x,1/2-y,-z
1/2+x,1/2-y,1/2+z
loop_
_atom_site_type_symbol
_atom_site_label
_atom_site_fract_x
_atom_site_fract_y
_atom_site_fract_z
Si Si1 0.000000 0.779102 0.250000
Si Si2 0.244316 0.532218 0.692917
Si Si3 0.191720 0.970793 0.147020
Si Si4 0.034857 0.659723 0.840816
Si Si5 0.105119 0.578016 0.086932
Si Si6 0.859036 0.834598 0.978939
O O1 0.892532 0.864261 0.287096
O O2 0.966388 0.694684 0.353648
O O3 0.281277 0.462897 0.767858
O O4 0.166853 0.637541 0.773933
O O5 0.170090 0.457330 0.653451
O O6 0.335913 0.597004 0.586011
O O7 0.134332 0.064764 0.103982
O O8 0.300902 0.920977 0.038412
O O9 0.000000 0.686237 0.750000
O O10 0.978116 0.532600 0.893696
O O11 0.972603 0.758016 0.930819
O O12 0.750000 0.750000 0.000000
#
# Coordination Sequence:
#
# PCOD9261019 Si02
#       6
#     4   8   8   8   8   8
#     4  12  24  44  62  90 144 176 192 270 346 378
#     4  10  22  41  67 101 121 169 230 258 313 398
#     4  11  26  40  66 100 129 167 217 271 328 381
#     4  10  18  39  71  93 124 172 218 266 321 374
#     4  10  21  46  64  88 134 176 211 260 323 391
#     4  11  21  42  68  96 136 166 213 279 325 375
#
# _framework density 23.405044
#
# number of rings (size 3 to 8) (size 9 to 14) (size 15 to 20)
#    0.000    1.455    8.182    0.545    1.273    3.636 
#    0.000    3.636    0.000    0.000    0.000    0.000 
#    0.000    0.000    0.000    0.000    0.000    0.000 
#
# Total GULP energy -123002.725988 kJ/mol
# GULP energy per Si atom -5591.032999 kJ/mol
# Density = 2.335177 g / cm^3
# Si number density = 23.405044 Si / 1000 Ang^3
#
#
#
# Elastic Constant Matrix: (Units=GPa)
#
#
# Indices 1 2 3 4 5 6 
#
# 1 28.3864 14.4289 59.1965 0.0000 2.5141 0.0000
# 2 14.4289 85.2221 41.9179 0.0000 -4.4277 0.0000
# 3 59.1965 41.9179 146.2374 0.0000 12.1838 0.0000
# 4 0.0000 0.0000 0.0000 28.7662 0.0000 -22.9065
# 5 2.5141 -4.4277 12.1838 0.0000 32.3332 0.0000
# 6 0.0000 0.0000 0.0000 -22.9065 0.0000 12.1742
#
#
#
# Elastic Compliance Matrix: (Units=1/GPa)
#
#
# Indices 1 2 3 4 5 6 
#
# 1 0.244036 0.010799 -0.103678 0.000000 0.021571 0.000000
# 2 0.010799 0.014522 -0.008909 0.000000 0.004506 0.000000
# 3 -0.103678 -0.008909 0.052437 0.000000 -0.012917 0.000000
# 4 0.000000 0.000000 0.000000 -0.069766 0.000000 -0.131268
# 5 0.021571 0.004506 -0.012917 0.000000 0.034735 0.000000
# 6 0.000000 0.000000 0.000000 -0.131268 0.000000 -0.164848
#
#
# Mechanical properties :
#
#
# Convention : Reuss Voigt Hill
#
# Bulk Modulus (GPa) = 9.30942 54.54805 31.92874
# Shear Modulus (GPa) = 14.26540 24.27489 19.27015
#
# Velocity S-wave (km/s) = 2.47149 3.22400 2.87249
# Velocity P-wave (km/s) = 3.48288 6.10046 4.96720
#
# Compressibility (1/GPa) = 0.10741810
#
# Stress axis : x y z
#
# Youngs Moduli (GPa) = 4.09776 68.86075 19.07066
#
# Poissons Ratio (x) = -0.74360 1.97720
# Poissons Ratio (y) = -0.04425 0.16991
# Poissons Ratio (z) = 0.42485 0.61350
#
# Static dielectric constant tensor:
#      x y z
#    x 1.965260 0.000000 0.022080 
#    y 0.000000 1.868310 0.000000 
#    z 0.022080 0.000000 1.881190 
# 
# From -- ./inp_files/160251.got.cif
#   From: 2010.05.17/outbox.cif.g08.bks.cpg/sg15_81_cif.got.tgz:160251.got - 2010.06.03 18:47:42.
