data_PCOD9261169
_publ_section_title
;
Structure prediction by ZEFSAII (Michael W. Deem and Ramdas Pophale) SiO2 
 PCOD9261169
Probable space group: C 2/C
;
_chemical_formula_sum "Si O2"
_cell_formula_units_Z 44
_cell_length_a 7.468476
_cell_length_b 30.376545
_cell_length_c 9.173500
_cell_angle_alpha 90.000000
_cell_angle_beta 69.731063
_cell_angle_gamma 90.000000
_cell_volume 1952.287922
_symmetry_space_group_name_H-M "C 2/C"
_symmetry_group_IT_number 15
_symmetry_cell_setting 'monoclinic'
loop_
_space_group_symop_operation_xyz
x,y,z
-x,y,1/2-z
-x,-y,-z
x,-y,1/2+z
1/2+x,1/2+y,z
1/2-x,1/2+y,1/2-z
1/2-x,1/2-y,-z
1/2+x,1/2-y,1/2+z
loop_
_atom_site_type_symbol
_atom_site_label
_atom_site_fract_x
_atom_site_fract_y
_atom_site_fract_z
Si Si1 0.500000 0.169048 0.750000
Si Si2 0.500000 0.145870 0.250000
Si Si3 0.000000 0.133753 0.750000
Si Si4 0.402918 0.449330 0.086139
Si Si5 0.631033 0.099933 0.471818
Si Si6 0.719046 0.201231 0.951154
Si Si7 0.816072 0.530535 0.578853
O O1 0.608709 0.137942 0.601374
O O2 0.632226 0.199247 0.813207
O O3 0.649699 0.116899 0.301246
O O4 0.413888 0.177005 0.396137
O O5 0.089804 0.097948 0.833453
O O6 0.107076 0.167604 0.614554
O O7 0.261515 0.475625 0.234965
O O8 0.293782 0.435497 0.969725
O O9 0.380592 0.531511 0.961842
O O10 0.420297 0.077706 0.534935
O O11 0.750000 0.250000 0.000000
O O12 0.000000 0.500000 0.500000
#
# Coordination Sequence:
#
# PCOD9261169 Si02
#       7
#     4   4   4   8   8   8   8
#     4  10  18  40  69  84 126 194 230 258 357 446
#     4  10  23  40  65 100 136 168 240 306 339 402
#     4  10  19  40  68  94 128 180 238 264 330 458
#     4  10  19  39  71  95 129 194 235 266 358 437
#     4  11  19  42  66  94 130 186 232 281 347 428
#     4  11  22  40  64  99 136 174 224 299 356 405
#     4  10  21  37  66 105 135 169 232 294 343 418
#
# _framework density 22.537659000000001
#
# number of rings (size 3 to 8) (size 9 to 14) (size 15 to 20)
#    0.000    1.818    3.636    3.818    0.000    0.727 
#    6.545    5.455    8.000    0.000    0.000    0.000 
#    0.000    0.000    0.000    0.000    0.000    0.000 
#
# Total GULP energy -122582.780327 kJ/mol
# GULP energy per Si atom -5571.944560 kJ/mol
# Density = 2.248636 g / cm^3
# Si number density = 22.537659 Si / 1000 Ang^3
#
#
#
# Elastic Constant Matrix: (Units=GPa)
#
#
# Indices 1 2 3 4 5 6 
#
# 1 135.7686 60.8095 48.5638 0.0000 19.4138 0.0000
# 2 60.8095 96.6599 49.6256 0.0000 1.4544 0.0000
# 3 48.5638 49.6256 106.9026 0.0000 21.6157 0.0000
# 4 0.0000 0.0000 0.0000 35.4733 0.0000 10.6160
# 5 19.4138 1.4544 21.6157 0.0000 45.1788 0.0000
# 6 0.0000 0.0000 0.0000 10.6160 0.0000 43.9637
#
#
#
# Elastic Compliance Matrix: (Units=1/GPa)
#
#
# Indices 1 2 3 4 5 6 
#
# 1 0.011254 -0.006312 -0.001379 0.000000 -0.003973 0.000000
# 2 -0.006312 0.017464 -0.006282 0.000000 0.005156 0.000000
# 3 -0.001379 -0.006282 0.014100 0.000000 -0.005952 0.000000
# 4 0.000000 0.000000 0.000000 0.030386 0.000000 -0.007337
# 5 -0.003973 0.005156 -0.005952 0.000000 0.026523 0.000000
# 6 0.000000 0.000000 0.000000 -0.007337 0.000000 0.024518
#
#
# Mechanical properties :
#
#
# Convention : Reuss Voigt Hill
#
# Bulk Modulus (GPa) = 67.24010 73.03653 70.13831
# Shear Modulus (GPa) = 31.81682 36.94532 34.38107
#
# Velocity S-wave (km/s) = 3.76136 4.05318 3.90999
# Velocity P-wave (km/s) = 6.98306 7.37436 7.18137
#
# Compressibility (1/GPa) = 0.01487208
#
# Stress axis : x y z
#
# Youngs Moduli (GPa) = 88.85715 57.25948 70.92012
#
# Poissons Ratio (x) = 0.36144 0.09779
# Poissons Ratio (y) = 0.56089 0.44553
# Poissons Ratio (z) = 0.12253 0.35971
#
# Static dielectric constant tensor:
#      x y z
#    x 1.957920 0.000000 0.038340 
#    y 0.000000 1.924960 0.000000 
#    z 0.038340 0.000000 1.845380 
# 
# From -- ./inp_files/25597.got.cif
#   From: 2010.05.17/outbox.cif.g08.bks.cpg/sg15_13_cif.got.tgz:25597.got - 2010.06.03 18:47:42.
