data_PCOD9261854
_publ_section_title
;
Structure prediction by ZEFSAII (Michael W. Deem and Ramdas Pophale) SiO2 
 PCOD9261854
Probable space group: C 2/C
;
_chemical_formula_sum "Si O2"
_cell_formula_units_Z 48
_cell_length_a 12.271347
_cell_length_b 15.299016
_cell_length_c 14.620856
_cell_angle_alpha 90.000000
_cell_angle_beta 116.654746
_cell_angle_gamma 90.000000
_cell_volume 2453.199831
_symmetry_space_group_name_H-M "C 2/C"
_symmetry_group_IT_number 15
_symmetry_cell_setting 'monoclinic'
loop_
_space_group_symop_operation_xyz
x,y,z
-x,y,1/2-z
-x,-y,-z
x,-y,1/2+z
1/2+x,1/2+y,z
1/2-x,1/2+y,1/2-z
1/2-x,1/2-y,-z
1/2+x,1/2-y,1/2+z
loop_
_atom_site_type_symbol
_atom_site_label
_atom_site_fract_x
_atom_site_fract_y
_atom_site_fract_z
Si Si1 0.784606 0.799180 0.299830
Si Si2 0.909503 0.677088 0.934759
Si Si3 0.726492 0.942767 0.975456
Si Si4 0.604858 0.120489 0.867502
Si Si5 0.870445 0.326634 0.705211
Si Si6 0.941840 0.829008 0.091141
O O1 0.696001 0.821762 0.181752
O O2 0.702052 0.814752 0.356636
O O3 0.830172 0.701870 0.290419
O O4 0.914213 0.849023 0.350165
O O5 0.032428 0.659002 0.926110
O O6 0.870943 0.603245 0.993244
O O7 0.919697 0.767846 0.993784
O O8 0.722109 0.888261 0.879729
O O9 0.682421 0.038328 0.932993
O O10 0.858929 0.915369 0.063617
O O11 0.500000 0.099934 0.750000
O O12 0.000000 0.374101 0.750000
O O13 0.896866 0.238911 0.653863
#
# Coordination Sequence:
#
# PCOD9261854 Si02
#       6
#     8   8   8   8   8   8
#     4  10  19  35  53  81 110 146 182 223 284 334
#     4  10  19  37  55  81 110 145 185 229 277 331
#     4  11  18  33  55  84 106 138 190 233 267 322
#     4  10  23  35  52  79 117 152 175 227 289 335
#     4   9  16  30  55  81  99 134 183 229 265 317
#     4  10  19  31  61  80 101 142 188 235 262 327
#
# _framework density 19.566282999999999
#
# number of rings (size 3 to 8) (size 9 to 14) (size 15 to 20)
#    0.000    2.000    3.333    2.000    0.000    1.333 
#    0.000    0.000    0.000    0.000    0.000    0.000 
#    0.000    0.000    0.000    0.000    0.000    0.000 
#
# Total GULP energy -133606.792445 kJ/mol
# GULP energy per Si atom -5566.949685 kJ/mol
# Density = 1.952175 g / cm^3
# Si number density = 19.566283 Si / 1000 Ang^3
#
#
#
# Elastic Constant Matrix: (Units=GPa)
#
#
# Indices 1 2 3 4 5 6 
#
# 1 152.6262 42.4533 37.8357 0.0000 -10.5756 0.0000
# 2 42.4533 39.6534 20.0059 0.0000 -10.1847 0.0000
# 3 37.8357 20.0059 54.6961 0.0000 -4.9965 0.0000
# 4 0.0000 0.0000 0.0000 -4.7956 0.0000 -17.3595
# 5 -10.5756 -10.1847 -4.9965 0.0000 36.4327 0.0000
# 6 0.0000 0.0000 0.0000 -17.3595 0.0000 0.2679
#
#
#
# Elastic Compliance Matrix: (Units=1/GPa)
#
#
# Indices 1 2 3 4 5 6 
#
# 1 0.009888 -0.008771 -0.003639 0.000000 -0.000081 0.000000
# 2 -0.008771 0.040681 -0.008108 0.000000 0.007714 0.000000
# 3 -0.003639 -0.008108 0.023760 0.000000 -0.000064 0.000000
# 4 0.000000 0.000000 0.000000 -0.000885 0.000000 -0.057361
# 5 -0.000081 0.007714 -0.000064 0.000000 0.029572 0.000000
# 6 0.000000 0.000000 0.000000 -0.057361 0.000000 0.015846
#
#
# Mechanical properties :
#
#
# Convention : Reuss Voigt Hill
#
# Bulk Modulus (GPa) = 30.03639 49.72949 39.88294
# Shear Modulus (GPa) = 29.24053 16.15970 22.70012
#
# Velocity S-wave (km/s) = 3.86999 2.87696 3.40981
# Velocity P-wave (km/s) = 5.94588 6.04210 5.99418
#
# Compressibility (1/GPa) = 0.03329295
#
# Stress axis : x y z
#
# Youngs Moduli (GPa) = 101.13037 24.58172 42.08767
#
# Poissons Ratio (x) = 0.21561 0.15317
# Poissons Ratio (y) = 0.88702 0.34123
# Poissons Ratio (z) = 0.36805 0.19930
#
# Static dielectric constant tensor:
#      x y z
#    x 1.742100 0.000000 0.047850 
#    y 0.000000 1.674190 0.000000 
#    z 0.047850 0.000000 1.757780 
# 
# From -- ./inp_files/143796.got.cif
#   From: 2010.05.17/outbox.cif.g08.bks.cpg/sg15_72_cif.got.tgz:143796.got - 2010.06.03 18:47:42.
