data_PCOD9261401
_publ_section_title
;
Structure prediction by ZEFSAII (Michael W. Deem and Ramdas Pophale) SiO2 
 PCOD9261401
Probable space group: C 2/C
;
_chemical_formula_sum "Si O2"
_cell_formula_units_Z 48
_cell_length_a 9.746984
_cell_length_b 22.494915
_cell_length_c 9.229573
_cell_angle_alpha 90.000000
_cell_angle_beta 89.009521
_cell_angle_gamma 90.000000
_cell_volume 2023.351438
_symmetry_space_group_name_H-M "C 2/C"
_symmetry_group_IT_number 15
_symmetry_cell_setting 'monoclinic'
loop_
_space_group_symop_operation_xyz
x,y,z
-x,y,1/2-z
-x,-y,-z
x,-y,1/2+z
1/2+x,1/2+y,z
1/2-x,1/2+y,1/2-z
1/2-x,1/2-y,-z
1/2+x,1/2-y,1/2+z
loop_
_atom_site_type_symbol
_atom_site_label
_atom_site_fract_x
_atom_site_fract_y
_atom_site_fract_z
Si Si1 0.522746 0.919079 0.413471
Si Si2 0.135653 0.818790 0.903213
Si Si3 0.746842 0.692553 0.099044
Si Si4 0.299980 0.447245 0.585592
Si Si5 0.742736 0.440237 0.568035
Si Si6 0.542034 0.202318 0.037675
O O1 0.500000 0.940506 0.250000
O O2 0.666544 0.933434 0.487945
O O3 0.401263 0.944187 0.515390
O O4 0.510197 0.847065 0.415329
O O5 0.144441 0.801780 0.734572
O O6 0.105544 0.888449 0.928085
O O7 0.298722 0.811454 0.934090
O O8 0.049677 0.771656 0.995594
O O9 0.710679 0.628573 0.033461
O O10 0.908830 0.690128 0.141046
O O11 0.750000 0.750000 0.000000
O O12 0.269519 0.450075 0.758701
O O13 0.341324 0.511298 0.522028
#
# Coordination Sequence:
#
# PCOD9261401 Si02
#       6
#     8   8   8   8   8   8
#     4  10  19  29  50  79 109 142 177 225 278 341
#     4   9  19  35  55  77 111 150 181 225 273 334
#     4  10  21  34  55  83 112 141 182 237 285 328
#     4  10  19  34  50  74 108 147 183 221 281 339
#     4  10  20  33  50  74 109 145 178 226 278 335
#     4   9  19  34  53  79 110 147 185 221 275 333
#
# _framework density 23.723019000000001
#
# number of rings (size 3 to 8) (size 9 to 14) (size 15 to 20)
#    0.000    2.333    0.000    2.500    4.667    4.000 
#    3.000    0.000    0.000    1.000    0.000    0.000 
#    0.000    0.000    0.000    0.000    0.000    0.000 
#
# Total GULP energy -133807.143831 kJ/mol
# GULP energy per Si atom -5575.297660 kJ/mol
# Density = 2.366902 g / cm^3
# Si number density = 23.723019 Si / 1000 Ang^3
#
#
#
# Elastic Constant Matrix: (Units=GPa)
#
#
# Indices 1 2 3 4 5 6 
#
# 1 106.7453 27.2946 15.9407 0.0000 -17.9794 0.0000
# 2 27.2946 222.5895 58.0024 0.0000 -5.1536 0.0000
# 3 15.9407 58.0024 82.6183 0.0000 0.8695 0.0000
# 4 0.0000 0.0000 0.0000 10.4398 0.0000 9.4628
# 5 -17.9794 -5.1536 0.8695 0.0000 26.4381 0.0000
# 6 0.0000 0.0000 0.0000 9.4628 0.0000 31.2940
#
#
#
# Elastic Compliance Matrix: (Units=1/GPa)
#
#
# Indices 1 2 3 4 5 6 
#
# 1 0.011063 -0.000744 -0.001690 0.000000 0.007434 0.000000
# 2 -0.000744 0.005587 -0.003786 0.000000 0.000708 0.000000
# 3 -0.001690 -0.003786 0.015113 0.000000 -0.002385 0.000000
# 4 0.000000 0.000000 0.000000 0.131953 0.000000 -0.039900
# 5 0.007434 0.000708 -0.002385 0.000000 0.043096 0.000000
# 6 0.000000 0.000000 0.000000 -0.039900 0.000000 0.044020
#
#
# Mechanical properties :
#
#
# Convention : Reuss Voigt Hill
#
# Bulk Modulus (GPa) = 51.75509 68.26984 60.01247
# Shear Modulus (GPa) = 18.53814 34.34875 26.44345
#
# Velocity S-wave (km/s) = 2.79846 3.80927 3.34230
# Velocity P-wave (km/s) = 5.68380 6.94174 6.34403
#
# Compressibility (1/GPa) = 0.01932177
#
# Stress axis : x y z
#
# Youngs Moduli (GPa) = 90.39240 178.99442 66.16753
#
# Poissons Ratio (x) = 0.13316 0.11185
# Poissons Ratio (y) = 0.06725 0.25052
# Poissons Ratio (z) = 0.15280 0.67769
#
# Static dielectric constant tensor:
#      x y z
#    x 1.972530 0.000000 0.063080 
#    y 0.000000 1.981970 0.000000 
#    z 0.063080 0.000000 1.934990 
# 
# From -- ./inp_files/32004.got.cif
#   From: 2010.05.17/outbox.cif.g08.bks.cpg/sg15_17_cif.got.tgz:32004.got - 2010.06.03 18:47:42.
