data_PCOD9261948
_publ_section_title
;
Structure prediction by ZEFSAII (Michael W. Deem and Ramdas Pophale) SiO2 
 PCOD9261948
Probable space group: C 2/C
;
_chemical_formula_sum "Si O2"
_cell_formula_units_Z 56
_cell_length_a 24.273204
_cell_length_b 9.580699
_cell_length_c 14.242769
_cell_angle_alpha 90.000000
_cell_angle_beta 98.551761
_cell_angle_gamma 90.000000
_cell_volume 3275.391163
_symmetry_space_group_name_H-M "C 2/C"
_symmetry_group_IT_number 15
_symmetry_cell_setting 'monoclinic'
loop_
_space_group_symop_operation_xyz
x,y,z
-x,y,1/2-z
-x,-y,-z
x,-y,1/2+z
1/2+x,1/2+y,z
1/2-x,1/2+y,1/2-z
1/2-x,1/2-y,-z
1/2+x,1/2-y,1/2+z
loop_
_atom_site_type_symbol
_atom_site_label
_atom_site_fract_x
_atom_site_fract_y
_atom_site_fract_z
Si Si1 0.750355 0.590143 0.535183
Si Si2 0.065556 0.492564 0.530655
Si Si3 0.871494 0.460281 0.149205
Si Si4 0.628386 0.182054 0.195672
Si Si5 0.771031 0.510880 0.839375
Si Si6 0.666782 0.518939 0.674928
Si Si7 0.129048 0.711523 0.670161
O O1 0.750000 0.750000 0.500000
O O2 0.806523 0.562848 0.608545
O O3 0.754155 0.496797 0.443180
O O4 0.697011 0.554459 0.584275
O O5 0.095338 0.460592 0.439367
O O6 0.083295 0.375063 0.610568
O O7 0.090887 0.633464 0.583733
O O8 0.000000 0.500000 0.500000
O O9 0.879647 0.605870 0.206776
O O10 0.888049 0.343262 0.230461
O O11 0.631792 0.346926 0.197393
O O12 0.687309 0.117958 0.173139
O O13 0.717117 0.501947 0.761625
O O14 0.808880 0.646555 0.829224
O O15 0.632586 0.376267 0.662363
#
# Coordination Sequence:
#
# PCOD9261948 Si02
#       7
#     8   8   8   8   8   8   8
#     4  12  19  30  56  80 116 159 184 214 269 319
#     4  10  21  42  64  78 100 140 194 243 279 326
#     4  10  19  37  57  77 113 138 195 224 266 344
#     4  10  21  35  54  82 110 150 181 223 272 327
#     4  10  19  32  50  79 112 157 186 208 264 317
#     4  12  21  34  53  83 127 146 178 223 266 335
#     4  10  22  34  55  86 109 147 188 225 272 327
#
# _framework density 17.097193999999998
#
# number of rings (size 3 to 8) (size 9 to 14) (size 15 to 20)
#    0.000    1.714    7.143    1.714    0.000    4.000 
#    0.000    0.714    0.000    1.714    0.000    0.000 
#    0.000    0.000    0.000    0.000    0.000    0.000 
#
# Total GULP energy -156238.843142 kJ/mol
# GULP energy per Si atom -5579.958684 kJ/mol
# Density = 1.705828 g / cm^3
# Si number density = 17.097194 Si / 1000 Ang^3
#
#
#
# Elastic Constant Matrix: (Units=GPa)
#
#
# Indices 1 2 3 4 5 6 
#
# 1 47.8379 22.5370 24.9709 0.0000 19.5964 0.0000
# 2 22.5370 135.8089 28.0000 0.0000 11.1565 0.0000
# 3 24.9709 28.0000 103.9153 0.0000 2.8952 0.0000
# 4 0.0000 0.0000 0.0000 6.7860 0.0000 -4.7743
# 5 19.5964 11.1565 2.8952 0.0000 23.8450 0.0000
# 6 0.0000 0.0000 0.0000 -4.7743 0.0000 4.6126
#
#
#
# Elastic Compliance Matrix: (Units=1/GPa)
#
#
# Indices 1 2 3 4 5 6 
#
# 1 0.037960 -0.002318 -0.007684 0.000000 -0.029179 0.000000
# 2 -0.002318 0.008223 -0.001610 0.000000 -0.001747 0.000000
# 3 -0.007684 -0.001610 0.011746 0.000000 0.005642 0.000000
# 4 0.000000 0.000000 0.000000 0.542198 0.000000 0.561206
# 5 -0.029179 -0.001747 0.005642 0.000000 0.066050 0.000000
# 6 0.000000 0.000000 0.000000 0.561206 0.000000 0.797678
#
#
# Mechanical properties :
#
#
# Convention : Reuss Voigt Hill
#
# Bulk Modulus (GPa) = 28.81423 48.73087 38.77255
# Shear Modulus (GPa) = 3.33634 21.18566 12.26100
#
# Velocity S-wave (km/s) = 1.39844 3.52395 2.68084
# Velocity P-wave (km/s) = 4.41557 6.71727 5.68415
#
# Compressibility (1/GPa) = 0.03470507
#
# Stress axis : x y z
#
# Youngs Moduli (GPa) = 26.34348 121.60373 85.13241
#
# Poissons Ratio (x) = 0.28188 0.65418
# Poissons Ratio (y) = 0.06106 0.13707
# Poissons Ratio (z) = 0.20243 0.19580
#
# Static dielectric constant tensor:
#      x y z
#    x 1.576820 0.000000 -0.020030 
#    y 0.000000 1.600850 0.000000 
#    z -0.020030 0.000000 1.592610 
# 
# From -- ./inp_files/176232.got.cif
#   From: 2010.05.17/outbox.cif.g08.bks.cpg/sg15_89_cif.got.tgz:176232.got - 2010.06.03 18:47:42.
