data_PCOD9261060
_publ_section_title
;
Structure prediction by ZEFSAII (Michael W. Deem and Ramdas Pophale) SiO2 
 PCOD9261060
Probable space group: C 2/C
;
_chemical_formula_sum "Si O2"
_cell_formula_units_Z 48
_cell_length_a 18.715148
_cell_length_b 15.901504
_cell_length_c 9.574552
_cell_angle_alpha 90.000000
_cell_angle_beta 138.423206
_cell_angle_gamma 90.000000
_cell_volume 1890.912994
_symmetry_space_group_name_H-M "C 2/C"
_symmetry_group_IT_number 15
_symmetry_cell_setting 'monoclinic'
loop_
_space_group_symop_operation_xyz
x,y,z
-x,y,1/2-z
-x,-y,-z
x,-y,1/2+z
1/2+x,1/2+y,z
1/2-x,1/2+y,1/2-z
1/2-x,1/2-y,-z
1/2+x,1/2-y,1/2+z
loop_
_atom_site_type_symbol
_atom_site_label
_atom_site_fract_x
_atom_site_fract_y
_atom_site_fract_z
Si Si1 0.592445 0.399540 0.286447
Si Si2 0.632183 0.787740 0.866365
Si Si3 0.604880 0.626499 0.490431
Si Si4 0.855138 0.389806 0.327116
Si Si5 0.678974 0.923133 0.730773
Si Si6 0.160756 0.300407 0.459644
O O1 0.500000 0.434224 0.250000
O O2 0.571020 0.298596 0.253997
O O3 0.707510 0.424939 0.519247
O O4 0.593370 0.416667 0.124005
O O5 0.607289 0.864193 0.726779
O O6 0.750000 0.750000 0.000000
O O7 0.630281 0.828515 0.018034
O O8 0.500000 0.605466 0.250000
O O9 0.724402 0.603893 0.614249
O O10 0.609158 0.728992 0.483054
O O11 0.877564 0.488246 0.381849
O O12 0.902722 0.349092 0.255614
O O13 0.703420 0.871975 0.625404
O O14 0.250000 0.250000 0.500000
#
# Coordination Sequence:
#
# PCOD9261060 Si02
#       6
#     8   8   8   8   8   8
#     4  11  23  38  61  85 117 163 196 234 290 350
#     4  10  18  40  62  80 116 156 204 238 274 347
#     4  11  23  39  58  87 122 153 197 243 286 349
#     4  11  22  37  63  93 116 151 191 248 301 342
#     4  11  21  39  62  88 120 151 196 245 295 347
#     4  10  21  37  61  87 113 156 203 241 281 344
#
# _framework density 25.384561999999999
#
# number of rings (size 3 to 8) (size 9 to 14) (size 15 to 20)
#    0.000    1.333    5.000    4.000    7.000    0.667 
#    0.000    1.667    0.000    6.000    0.000    0.000 
#    0.000    0.000    0.000    0.000    0.000    0.000 
#
# Total GULP energy -134041.770023 kJ/mol
# GULP energy per Si atom -5585.073751 kJ/mol
# Density = 2.532679 g / cm^3
# Si number density = 25.384562 Si / 1000 Ang^3
#
#
#
# Elastic Constant Matrix: (Units=GPa)
#
#
# Indices 1 2 3 4 5 6 
#
# 1 82.2875 -1.9481 22.2322 0.0000 -18.9774 0.0000
# 2 -1.9481 169.7033 15.3711 0.0000 -25.3173 0.0000
# 3 22.2322 15.3711 131.9467 0.0000 -37.1918 0.0000
# 4 0.0000 0.0000 0.0000 18.2764 0.0000 -4.0120
# 5 -18.9774 -25.3173 -37.1918 0.0000 48.6709 0.0000
# 6 0.0000 0.0000 0.0000 -4.0120 0.0000 -1.1894
#
#
#
# Elastic Compliance Matrix: (Units=1/GPa)
#
#
# Indices 1 2 3 4 5 6 
#
# 1 0.013613 0.001003 -0.000978 0.000000 0.005082 0.000000
# 2 0.001003 0.006469 0.000173 0.000000 0.003888 0.000000
# 3 -0.000978 0.000173 0.009739 0.000000 0.007151 0.000000
# 4 0.000000 0.000000 0.000000 0.031437 0.000000 -0.106044
# 5 0.005082 0.003888 0.007151 0.000000 0.030015 0.000000
# 6 0.000000 0.000000 0.000000 -0.106044 0.000000 -0.483071
#
#
# Mechanical properties :
#
#
# Convention : Reuss Voigt Hill
#
# Bulk Modulus (GPa) = 33.09381 50.58310 41.83845
# Shear Modulus (GPa) = -13.08476 36.37041 11.64283
#
# Velocity S-wave (km/s) = -2.27284 3.78931 2.14395
# Velocity P-wave (km/s) = 2.48547 6.25421 4.75882
#
# Compressibility (1/GPa) = 0.03021713
#
# Stress axis : x y z
#
# Youngs Moduli (GPa) = 73.46166 154.59451 102.67960
#
# Poissons Ratio (x) = -0.15506 0.10042
# Poissons Ratio (y) = -0.07368 -0.01781
# Poissons Ratio (z) = 0.07184 -0.02682
#
# Static dielectric constant tensor:
#      x y z
#    x 2.273700 0.000000 0.094690 
#    y 0.000000 2.089020 0.000000 
#    z 0.094690 0.000000 2.022430 
# 
# From -- ./inp_files/56795.got.cif
#   From: 2010.05.17/outbox.cif.g08.bks.cpg/sg15_29_cif.got.tgz:56795.got - 2010.06.03 18:47:42.
