data_PCOD9261168
_publ_section_title
;
Structure prediction by ZEFSAII (Michael W. Deem and Ramdas Pophale) SiO2 
 PCOD9261168
Probable space group: C 2/C
;
_chemical_formula_sum "Si O2"
_cell_formula_units_Z 32
_cell_length_a 7.952323
_cell_length_b 17.361258
_cell_length_c 9.017158
_cell_angle_alpha 90.000000
_cell_angle_beta 76.412276
_cell_angle_gamma 90.000000
_cell_volume 1210.085960
_symmetry_space_group_name_H-M "C 2/C"
_symmetry_group_IT_number 15
_symmetry_cell_setting 'monoclinic'
loop_
_space_group_symop_operation_xyz
x,y,z
-x,y,1/2-z
-x,-y,-z
x,-y,1/2+z
1/2+x,1/2+y,z
1/2-x,1/2+y,1/2-z
1/2-x,1/2-y,-z
1/2+x,1/2-y,1/2+z
loop_
_atom_site_type_symbol
_atom_site_label
_atom_site_fract_x
_atom_site_fract_y
_atom_site_fract_z
Si Si1 0.583590 0.195267 0.953084
Si Si2 0.500000 0.300890 0.250000
Si Si3 0.876861 0.453872 0.913805
Si Si4 0.500000 0.319433 0.750000
Si Si5 0.219509 0.889076 0.441260
O O1 0.616184 0.260062 0.821543
O O2 0.403634 0.153632 0.936579
O O3 0.559958 0.245443 0.105087
O O4 0.691183 0.121647 0.989972
O O5 0.634572 0.352961 0.313488
O O6 0.740541 0.520170 0.905323
O O7 0.000000 0.432473 0.750000
O O8 0.000000 0.500000 0.000000
O O9 0.607184 0.369571 0.610570
#
# Coordination Sequence:
#
# PCOD9261168 Si02
#       5
#     8   4   8   4   8
#     4  10  21  41  72 108 132 190 247 283 338 422
#     4  10  18  40  69 109 140 176 226 300 360 394
#     4  10  22  43  73 104 133 185 246 290 334 414
#     4  10  20  40  71 111 142 178 220 308 352 404
#     4  10  23  41  70 109 145 179 239 289 355 423
#
# _framework density 26.444399000000001
#
# number of rings (size 3 to 8) (size 9 to 14) (size 15 to 20)
#    0.000    2.000    1.250    3.000    7.000    0.000 
#    0.000   30.000    0.000   18.000    9.750    0.000 
#    0.000    0.000    0.000    0.000    0.000    0.000 
#
# Total GULP energy -89548.495510 kJ/mol
# GULP energy per Si atom -5596.780969 kJ/mol
# Density = 2.638421 g / cm^3
# Si number density = 26.444399 Si / 1000 Ang^3
#
#
#
# Elastic Constant Matrix: (Units=GPa)
#
#
# Indices 1 2 3 4 5 6 
#
# 1 79.3655 48.7807 26.0324 0.0000 19.6034 0.0000
# 2 48.7807 205.5301 70.7016 0.0000 6.5629 0.0000
# 3 26.0324 70.7016 194.8767 0.0000 -8.2718 0.0000
# 4 0.0000 0.0000 0.0000 47.1696 0.0000 -1.9732
# 5 19.6034 6.5629 -8.2718 0.0000 62.8694 0.0000
# 6 0.0000 0.0000 0.0000 -1.9732 0.0000 29.1543
#
#
#
# Elastic Compliance Matrix: (Units=1/GPa)
#
#
# Indices 1 2 3 4 5 6 
#
# 1 0.016208 -0.003286 -0.001180 0.000000 -0.004866 0.000000
# 2 -0.003286 0.006271 -0.001831 0.000000 0.000129 0.000000
# 3 -0.001180 -0.001831 0.006011 0.000000 0.001350 0.000000
# 4 0.000000 0.000000 0.000000 0.021260 0.000000 0.001439
# 5 -0.004866 0.000129 0.001350 0.000000 0.017587 0.000000
# 6 0.000000 0.000000 0.000000 0.001439 0.000000 0.034398
#
#
# Mechanical properties :
#
#
# Convention : Reuss Voigt Hill
#
# Bulk Modulus (GPa) = 62.90257 85.64465 74.27361
# Shear Modulus (GPa) = 41.79675 50.12249 45.95962
#
# Velocity S-wave (km/s) = 3.97993 4.35833 4.17342
# Velocity P-wave (km/s) = 6.70508 7.60156 7.16735
#
# Compressibility (1/GPa) = 0.01589760
#
# Stress axis : x y z
#
# Youngs Moduli (GPa) = 61.69670 159.46563 166.37526
#
# Poissons Ratio (x) = 0.52396 0.19626
# Poissons Ratio (y) = 0.20272 0.30459
# Poissons Ratio (z) = 0.07278 0.29194
#
# Static dielectric constant tensor:
#      x y z
#    x 2.003380 0.000000 0.048850 
#    y 0.000000 2.025330 0.000000 
#    z 0.048850 0.000000 1.968830 
# 
# From -- ./inp_files/28461.got.cif
#   From: 2010.05.17/outbox.cif.g08.bks.cpg/sg15_15_cif.got.tgz:28461.got - 2010.06.03 18:47:42.
