data_PCOD9261012
_publ_section_title
;
Structure prediction by ZEFSAII (Michael W. Deem and Ramdas Pophale) SiO2 
 PCOD9261012
Probable space group: C 2/C
;
_chemical_formula_sum "Si O2"
_cell_formula_units_Z 60
_cell_length_a 15.405646
_cell_length_b 16.747364
_cell_length_c 11.505212
_cell_angle_alpha 90.000000
_cell_angle_beta 115.286429
_cell_angle_gamma 90.000000
_cell_volume 2683.970240
_symmetry_space_group_name_H-M "C 2/C"
_symmetry_group_IT_number 15
_symmetry_cell_setting 'monoclinic'
loop_
_space_group_symop_operation_xyz
x,y,z
-x,y,1/2-z
-x,-y,-z
x,-y,1/2+z
1/2+x,1/2+y,z
1/2-x,1/2+y,1/2-z
1/2-x,1/2-y,-z
1/2+x,1/2-y,1/2+z
loop_
_atom_site_type_symbol
_atom_site_label
_atom_site_fract_x
_atom_site_fract_y
_atom_site_fract_z
Si Si1 0.642433 0.264411 0.378881
Si Si2 0.520917 0.690119 0.012779
Si Si3 0.648975 0.287639 0.913582
Si Si4 0.500000 0.969644 0.250000
Si Si5 0.722868 0.406630 0.317721
Si Si6 0.327105 0.090416 0.128682
Si Si7 0.406284 0.838499 0.310180
Si Si8 0.160719 0.078815 0.224998
O O1 0.750000 0.250000 0.500000
O O2 0.560194 0.308909 0.405117
O O3 0.663607 0.324969 0.287701
O O4 0.617340 0.174541 0.334149
O O5 0.416685 0.696299 0.011572
O O6 0.572952 0.773665 0.080087
O O7 0.570522 0.614566 0.103938
O O8 0.601451 0.218684 0.806380
O O9 0.662964 0.366636 0.842378
O O10 0.750000 0.250000 0.000000
O O11 0.484919 0.907881 0.347162
O O12 0.405716 0.021747 0.182240
O O13 0.769958 0.418182 0.473538
O O14 0.808715 0.386467 0.278832
O O15 0.662875 0.485077 0.253396
O O16 0.252040 0.091762 0.192275
#
# Coordination Sequence:
#
# PCOD9261012 Si02
#       8
#     8   8   8   4   8   8   8   8
#     4  10  18  39  69  92 124 177 213 262 330 401
#     4  11  20  43  70  92 130 173 222 268 336 390
#     4  11  26  42  68  96 131 173 225 276 334 399
#     4  12  24  36  64 106 138 162 218 284 338 406
#     4  11  22  39  69  94 130 177 221 267 327 401
#     4  11  23  40  63  99 140 171 218 273 338 400
#     4  11  20  40  66  97 131 172 210 273 341 394
#     4  11  22  39  66  98 130 174 217 276 325 389
#
# _framework density 22.354941
#
# number of rings (size 3 to 8) (size 9 to 14) (size 15 to 20)
#    0.000    1.067    8.000    2.000    1.867    1.600 
#    0.000    0.667    5.867    0.000    0.000    0.000 
#    0.000    0.000    0.000    0.000    0.000    0.000 
#
# Total GULP energy -167447.999950 kJ/mol
# GULP energy per Si atom -5581.599998 kJ/mol
# Density = 2.230406 g / cm^3
# Si number density = 22.354941 Si / 1000 Ang^3
#
#
#
# Elastic Constant Matrix: (Units=GPa)
#
#
# Indices 1 2 3 4 5 6 
#
# 1 149.9333 32.9631 26.3299 0.0000 -16.9773 0.0000
# 2 32.9631 157.5061 20.4172 0.0000 -2.9318 0.0000
# 3 26.3299 20.4172 43.3665 0.0000 -12.1876 0.0000
# 4 0.0000 0.0000 0.0000 18.0897 0.0000 -5.9400
# 5 -16.9773 -2.9318 -12.1876 0.0000 28.3048 0.0000
# 6 0.0000 0.0000 0.0000 -5.9400 0.0000 60.6549
#
#
#
# Elastic Compliance Matrix: (Units=1/GPa)
#
#
# Indices 1 2 3 4 5 6 
#
# 1 0.007869 -0.001154 -0.003346 0.000000 0.003159 0.000000
# 2 -0.001154 0.006945 -0.002914 0.000000 -0.001228 0.000000
# 3 -0.003346 -0.002914 0.029368 0.000000 0.010336 0.000000
# 4 0.000000 0.000000 0.000000 0.057117 0.000000 0.005594
# 5 0.003159 -0.001228 0.010336 0.000000 0.041548 0.000000
# 6 0.000000 0.000000 0.000000 0.005594 0.000000 0.017035
#
#
# Mechanical properties :
#
#
# Convention : Reuss Voigt Hill
#
# Bulk Modulus (GPa) = 34.06831 56.69182 45.38007
# Shear Modulus (GPa) = 27.10102 39.48293 33.29198
#
# Velocity S-wave (km/s) = 3.48560 4.20716 3.86326
# Velocity P-wave (km/s) = 5.60999 7.00108 6.34378
#
# Compressibility (1/GPa) = 0.02935279
#
# Stress axis : x y z
#
# Youngs Moduli (GPa) = 127.08490 143.97959 34.05085
#
# Poissons Ratio (x) = 0.16618 0.11394
# Poissons Ratio (y) = 0.14668 0.09923
# Poissons Ratio (z) = 0.42525 0.41959
#
# Static dielectric constant tensor:
#      x y z
#    x 1.700160 0.000000 0.289270 
#    y 0.000000 1.800960 0.000000 
#    z 0.289270 0.000000 1.597370 
# 
# From -- ./inp_files/154012.got.cif
#   From: 2010.05.17/outbox.cif.g08.bks.cpg/sg15_78_cif.got.tgz:154012.got - 2010.06.03 18:47:42.
