data_PCOD9261593
_publ_section_title
;
Structure prediction by ZEFSAII (Michael W. Deem and Ramdas Pophale) SiO2 
 PCOD9261593
Probable space group: C 2/C
;
_chemical_formula_sum "Si O2"
_cell_formula_units_Z 40
_cell_length_a 21.157572
_cell_length_b 5.578033
_cell_length_c 22.600736
_cell_angle_alpha 90.000000
_cell_angle_beta 142.219722
_cell_angle_gamma 90.000000
_cell_volume 1634.072489
_symmetry_space_group_name_H-M "C 2/C"
_symmetry_group_IT_number 15
_symmetry_cell_setting 'monoclinic'
loop_
_space_group_symop_operation_xyz
x,y,z
-x,y,1/2-z
-x,-y,-z
x,-y,1/2+z
1/2+x,1/2+y,z
1/2-x,1/2+y,1/2-z
1/2-x,1/2-y,-z
1/2+x,1/2-y,1/2+z
loop_
_atom_site_type_symbol
_atom_site_label
_atom_site_fract_x
_atom_site_fract_y
_atom_site_fract_z
Si Si1 0.884211 0.288998 0.339808
Si Si2 0.349967 0.288717 0.377705
Si Si3 0.123411 0.503827 0.852828
Si Si4 0.598432 0.748652 0.447513
Si Si5 0.876967 0.993023 0.147003
O O1 0.770779 0.287449 0.227976
O O2 0.895726 0.546924 0.380965
O O3 0.974507 0.267142 0.358744
O O4 0.891337 0.046559 0.384806
O O5 0.369959 0.265744 0.461857
O O6 0.135691 0.533418 0.933001
O O7 0.165048 0.755896 0.860205
O O8 0.000000 0.501764 0.750000
O O9 0.166332 0.254927 0.861626
O O10 0.630495 0.525562 0.429579
O O11 0.000000 0.990769 0.250000
#
# Coordination Sequence:
#
# PCOD9261593 Si02
#       5
#     8   8   8   8   8
#     4  10  22  35  47  71 102 126 159 204 237 274
#     4  10  22  35  47  71 102 126 159 204 237 274
#     4   8  16  28  45  73  98 117 153 199 235 277
#     4  10  19  30  58  70  92 132 167 184 240 294
#     4   8  16  28  45  73  98 117 153 199 235 277
#
# _framework density 24.478719000000002
#
# number of rings (size 3 to 8) (size 9 to 14) (size 15 to 20)
#    1.200    1.600    0.000    1.200    5.600    0.000 
#    0.000    0.000    0.000    4.800    0.000    5.600 
#    0.000    0.000    0.000    0.000    0.000    0.000 
#
# Total GULP energy -111584.611383 kJ/mol
# GULP energy per Si atom -5579.230569 kJ/mol
# Density = 2.442300 g / cm^3
# Si number density = 24.478719 Si / 1000 Ang^3
#
#
#
# Elastic Constant Matrix: (Units=GPa)
#
#
# Indices 1 2 3 4 5 6 
#
# 1 79.1681 19.4988 1.4013 0.0022 2.9824 0.0035
# 2 19.4988 242.0978 3.5643 0.0040 -8.3130 0.0025
# 3 1.4013 3.5643 73.3571 0.0020 -24.6871 0.0071
# 4 0.0022 0.0040 0.0020 -5.4732 0.0004 -3.4308
# 5 2.9824 -8.3130 -24.6871 0.0004 43.7524 0.0011
# 6 0.0035 0.0025 0.0071 -3.4308 0.0011 10.3263
#
#
#
# Elastic Compliance Matrix: (Units=1/GPa)
#
#
# Indices 1 2 3 4 5 6 
#
# 1 0.012967 -0.001085 -0.000694 0.000005 -0.001481 -0.000002
# 2 -0.001085 0.004249 0.000137 0.000003 0.000958 0.000000
# 3 -0.000694 0.000137 0.016866 0.000012 0.009590 -0.000009
# 4 0.000005 0.000003 0.000012 -0.151217 0.000009 -0.050240
# 5 -0.001481 0.000958 0.009590 0.000009 0.028550 -0.000006
# 6 -0.000002 0.000000 -0.000009 -0.050240 -0.000006 0.080148
#
#
# Mechanical properties :
#
#
# Convention : Reuss Voigt Hill
#
# Bulk Modulus (GPa) = 32.46964 49.28354 40.87659
# Shear Modulus (GPa) = 978.14527 34.39835 506.27181
#
# Velocity S-wave (km/s) = 20.01144 3.75271 14.39688
# Velocity P-wave (km/s) = 23.39309 6.24132 17.12003
#
# Compressibility (1/GPa) = 0.03079800
#
# Stress axis : x y z
#
# Youngs Moduli (GPa) = 77.12086 235.35801 59.29149
#
# Poissons Ratio (x) = 0.25536 0.04112
# Poissons Ratio (y) = 0.08368 -0.00811
# Poissons Ratio (z) = 0.05348 -0.03221
#
# Static dielectric constant tensor:
#      x y z
#    x 1.826170 0.000000 0.043540 
#    y 0.000000 2.019720 0.000000 
#    z 0.043540 0.000000 2.021970 
# 
# From -- ./inp_files/170500.got.cif
#   From: 2010.05.17/outbox.cif.g08.bks.cpg/sg15_86_cif.got.tgz:170500.got - 2010.06.03 18:47:42.
