data_PCOD9261469
_publ_section_title
;
Structure prediction by ZEFSAII (Michael W. Deem and Ramdas Pophale) SiO2 
 PCOD9261469
Probable space group: C 2/C
;
_chemical_formula_sum "Si O2"
_cell_formula_units_Z 48
_cell_length_a 17.719174
_cell_length_b 9.629812
_cell_length_c 20.369784
_cell_angle_alpha 90.000000
_cell_angle_beta 146.895970
_cell_angle_gamma 90.000000
_cell_volume 1898.315075
_symmetry_space_group_name_H-M "C 2/C"
_symmetry_group_IT_number 15
_symmetry_cell_setting 'monoclinic'
loop_
_space_group_symop_operation_xyz
x,y,z
-x,y,1/2-z
-x,-y,-z
x,-y,1/2+z
1/2+x,1/2+y,z
1/2-x,1/2+y,1/2-z
1/2-x,1/2-y,-z
1/2+x,1/2-y,1/2+z
loop_
_atom_site_type_symbol
_atom_site_label
_atom_site_fract_x
_atom_site_fract_y
_atom_site_fract_z
Si Si1 0.181500 0.119206 0.303264
Si Si2 0.524604 0.866850 0.469149
Si Si3 0.104065 0.065707 0.397761
Si Si4 0.761197 0.700863 0.840298
Si Si5 0.897221 0.539422 0.620845
Si Si6 0.445565 0.248998 0.105708
O O1 0.143332 0.106509 0.352583
O O2 0.218897 0.961160 0.310589
O O3 0.025002 0.143348 0.164809
O O4 0.326886 0.198019 0.400081
O O5 0.381772 0.783680 0.374342
O O6 0.500000 0.000000 0.500000
O O7 0.555415 0.922299 0.418252
O O8 0.249314 0.091297 0.537200
O O9 0.073310 0.901540 0.377987
O O10 0.612656 0.774196 0.719592
O O11 0.847623 0.738669 0.969680
O O12 0.894209 0.372261 0.615986
O O13 0.000000 0.591117 0.750000
#
# Coordination Sequence:
#
# PCOD9261469 Si02
#       6
#     8   8   8   8   8   8
#     4   8  15  26  46  64  91 136 162 184 225 287
#     4   9  16  34  47  63  94 143 168 190 233 297
#     4   9  16  25  40  72 104 124 150 193 237 293
#     4  10  19  30  48  66  99 138 170 195 236 295
#     4  11  20  27  48  75 105 127 160 199 251 296
#     4  11  19  28  46  77 104 136 154 198 246 301
#
# _framework density 25.285581000000001
#
# number of rings (size 3 to 8) (size 9 to 14) (size 15 to 20)
#    0.000    2.333    5.000    1.500    4.667    0.000 
#    0.000    0.000    3.667    4.000    0.000    1.167 
#    0.000    0.000    0.000    0.000    0.000    0.000 
#
# Total GULP energy -133932.570137 kJ/mol
# GULP energy per Si atom -5580.523756 kJ/mol
# Density = 2.522803 g / cm^3
# Si number density = 25.285581 Si / 1000 Ang^3
#
#
#
# Elastic Constant Matrix: (Units=GPa)
#
#
# Indices 1 2 3 4 5 6 
#
# 1 126.3601 32.1365 94.4607 0.0000 35.0194 0.0000
# 2 32.1365 78.2339 -21.0195 0.0002 2.7864 0.0000
# 3 94.4607 -21.0195 222.7595 0.0003 60.6470 0.0001
# 4 0.0000 0.0002 0.0003 -42.9781 0.0001 -6.7060
# 5 35.0194 2.7864 60.6470 0.0001 60.4147 0.0000
# 6 0.0000 0.0000 0.0001 -6.7060 0.0000 25.1942
#
#
#
# Elastic Compliance Matrix: (Units=1/GPa)
#
#
# Indices 1 2 3 4 5 6 
#
# 1 0.015702 -0.008261 -0.006968 0.000000 -0.001726 0.000000
# 2 -0.008261 0.017750 0.005638 0.000000 -0.001690 0.000000
# 3 -0.006968 0.005638 0.009560 0.000000 -0.005818 0.000000
# 4 0.000000 0.000000 0.000000 -0.022340 0.000000 -0.005946
# 5 -0.001726 -0.001690 -0.005818 0.000000 0.023471 0.000000
# 6 0.000000 0.000000 0.000000 -0.005946 0.000000 0.038109
#
#
# Mechanical properties :
#
#
# Convention : Reuss Voigt Hill
#
# Bulk Modulus (GPa) = 41.96254 70.94543 56.45399
# Shear Modulus (GPa) = 45.71352 29.97789 37.84570
#
# Velocity S-wave (km/s) = 4.25654 3.44695 3.87296
# Velocity P-wave (km/s) = 6.38663 6.63027 6.50959
#
# Compressibility (1/GPa) = 0.02383078
#
# Stress axis : x y z
#
# Youngs Moduli (GPa) = 63.68601 56.33667 104.60520
#
# Poissons Ratio (x) = 0.46538 0.72889
# Poissons Ratio (y) = 0.52609 -0.58976
# Poissons Ratio (z) = 0.44376 -0.31762
#
# Static dielectric constant tensor:
#      x y z
#    x 2.054140 0.000000 -0.043270 
#    y 0.000000 2.003530 0.000000 
#    z -0.043270 0.000000 2.240520 
# 
# From -- ./inp_files/277436.got.cif
#   From: 2010.05.17/outbox.cif.g08.bks.cpg/sg15_139_cif.got.tgz:277436.got - 2010.06.03 18:47:42.
