data_PCOD9261398
_publ_section_title
;
Structure prediction by ZEFSAII (Michael W. Deem and Ramdas Pophale) SiO2 
 PCOD9261398
Probable space group: C 2/C
;
_chemical_formula_sum "Si O2"
_cell_formula_units_Z 64
_cell_length_a 17.547174
_cell_length_b 17.848909
_cell_length_c 9.347397
_cell_angle_alpha 90.000000
_cell_angle_beta 54.758295
_cell_angle_gamma 90.000000
_cell_volume 2391.032342
_symmetry_space_group_name_H-M "C 2/C"
_symmetry_group_IT_number 15
_symmetry_cell_setting 'monoclinic'
loop_
_space_group_symop_operation_xyz
x,y,z
-x,y,1/2-z
-x,-y,-z
x,-y,1/2+z
1/2+x,1/2+y,z
1/2-x,1/2+y,1/2-z
1/2-x,1/2-y,-z
1/2+x,1/2-y,1/2+z
loop_
_atom_site_type_symbol
_atom_site_label
_atom_site_fract_x
_atom_site_fract_y
_atom_site_fract_z
Si Si1 0.444690 0.706851 0.972764
Si Si2 0.698351 0.656646 0.951896
Si Si3 0.366468 0.147899 0.556306
Si Si4 0.247239 0.514251 0.932247
Si Si5 0.928089 0.934837 0.127728
Si Si6 0.585091 0.798160 0.007100
Si Si7 0.758340 0.872666 0.762817
Si Si8 0.919795 0.434064 0.260786
O O1 0.409252 0.781219 0.926367
O O2 0.350673 0.658778 0.090292
O O3 0.522208 0.641691 0.871209
O O4 0.492589 0.758444 0.046228
O O5 0.719238 0.641908 0.093552
O O6 0.790106 0.674818 0.758219
O O7 0.636967 0.594540 0.933493
O O8 0.635761 0.729567 0.025457
O O9 0.305424 0.092484 0.528137
O O10 0.433372 0.095178 0.584610
O O11 0.356981 0.532273 0.823579
O O12 0.244263 0.461578 0.792969
O O13 0.180624 0.471558 0.115252
O O14 0.000000 0.000000 0.000000
O O15 0.664279 0.831337 0.814926
O O16 0.580905 0.865840 0.123681
O O17 0.000000 0.483805 0.250000
#
# Coordination Sequence:
#
# PCOD9261398 Si02
#       8
#     8   8   8   8   8   8   8   8
#     4  11  21  33  57  84 124 161 195 250 304 375
#     4  10  19  30  54  79 122 158 187 238 300 360
#     4  11  20  35  56  86 118 158 201 245 309 359
#     4  10  23  38  54  83 125 157 202 247 296 371
#     4  10  21  37  51  83 123 161 203 236 297 371
#     4  10  19  29  49  85 119 150 190 239 301 373
#     4  11  19  34  52  83 119 162 198 243 300 357
#     4  11  21  36  57  83 124 156 195 250 304 362
#
# _framework density 26.766680999999998
#
# number of rings (size 3 to 8) (size 9 to 14) (size 15 to 20)
#    0.000    1.500    6.250    1.125    0.000    2.000 
#    0.000    0.000    0.000    0.000    0.000    7.875 
#    0.000    0.000    0.000    0.000    0.000    0.000 
#
# Total GULP energy -178442.072940 kJ/mol
# GULP energy per Si atom -5576.314779 kJ/mol
# Density = 2.670576 g / cm^3
# Si number density = 26.766681 Si / 1000 Ang^3
#
#
#
# Elastic Constant Matrix: (Units=GPa)
#
#
# Indices 1 2 3 4 5 6 
#
# 1 83.6783 41.0260 42.5133 0.0000 -18.2761 0.0000
# 2 41.0260 154.4227 52.7356 0.0000 -14.0696 0.0000
# 3 42.5133 52.7356 83.2590 0.0000 -22.0178 0.0000
# 4 0.0000 0.0000 0.0000 31.6315 0.0000 -22.8178
# 5 -18.2761 -14.0696 -22.0178 0.0000 36.7659 0.0000
# 6 0.0000 0.0000 0.0000 -22.8178 0.0000 51.1737
#
#
#
# Elastic Compliance Matrix: (Units=1/GPa)
#
#
# Indices 1 2 3 4 5 6 
#
# 1 0.017025 -0.001979 -0.006418 0.000000 0.003862 0.000000
# 2 -0.001979 0.008493 -0.004479 0.000000 -0.000416 0.000000
# 3 -0.006418 -0.004479 0.019994 0.000000 0.007069 0.000000
# 4 0.000000 0.000000 0.000000 0.046604 0.000000 0.020780
# 5 0.003862 -0.000416 0.007069 0.000000 0.033193 0.000000
# 6 0.000000 0.000000 0.000000 0.020780 0.000000 0.028807
#
#
# Mechanical properties :
#
#
# Convention : Reuss Voigt Hill
#
# Bulk Modulus (GPa) = 50.60785 65.98995 58.29890
# Shear Modulus (GPa) = 26.81578 36.25324 31.53451
#
# Velocity S-wave (km/s) = 3.16861 3.68423 3.43611
# Velocity P-wave (km/s) = 5.68638 6.54258 6.12945
#
# Compressibility (1/GPa) = 0.01975978
#
# Stress axis : x y z
#
# Youngs Moduli (GPa) = 58.73574 117.74070 50.01408
#
# Poissons Ratio (x) = 0.23306 0.32101
# Poissons Ratio (y) = 0.11626 0.22400
# Poissons Ratio (z) = 0.37699 0.52734
#
# Static dielectric constant tensor:
#      x y z
#    x 2.177720 0.000000 -0.054510 
#    y 0.000000 2.207660 0.000000 
#    z -0.054510 0.000000 2.204240 
# 
# From -- ./inp_files/113673.got.cif
#   From: 2010.05.17/outbox.cif.g08.bks.cpg/sg15_57_cif.got.tgz:113673.got - 2010.06.03 18:47:42.
