data_PCOD9261515
_publ_section_title
;
Structure prediction by ZEFSAII (Michael W. Deem and Ramdas Pophale) SiO2 
 PCOD9261515
Probable space group: C 2/C
;
_chemical_formula_sum "Si O2"
_cell_formula_units_Z 56
_cell_length_a 25.734554
_cell_length_b 14.278515
_cell_length_c 14.401242
_cell_angle_alpha 90.000000
_cell_angle_beta 152.377527
_cell_angle_gamma 90.000000
_cell_volume 2453.487781
_symmetry_space_group_name_H-M "C 2/C"
_symmetry_group_IT_number 15
_symmetry_cell_setting 'monoclinic'
loop_
_space_group_symop_operation_xyz
x,y,z
-x,y,1/2-z
-x,-y,-z
x,-y,1/2+z
1/2+x,1/2+y,z
1/2-x,1/2+y,1/2-z
1/2-x,1/2-y,-z
1/2+x,1/2-y,1/2+z
loop_
_atom_site_type_symbol
_atom_site_label
_atom_site_fract_x
_atom_site_fract_y
_atom_site_fract_z
Si Si1 0.126789 0.786186 0.335702
Si Si2 0.627548 0.020524 0.586856
Si Si3 0.000000 0.362004 0.750000
Si Si4 0.935619 0.792667 0.459081
Si Si5 0.224771 0.837326 0.675243
Si Si6 0.586182 0.895427 0.208102
Si Si7 0.500000 0.680407 0.250000
Si Si8 0.781528 0.700924 0.454020
O O1 0.250000 0.750000 0.500000
O O2 0.049103 0.699397 0.243481
O O3 0.076116 0.833065 0.163071
O O4 0.141275 0.840656 0.456190
O O5 0.715662 0.937401 0.720457
O O6 0.508487 0.970971 0.419423
O O7 0.602888 0.080728 0.456987
O O8 0.650076 0.082386 0.713962
O O9 0.816417 0.741990 0.291992
O O10 0.020323 0.703204 0.593475
O O11 0.975518 0.859391 0.607589
O O12 0.194152 0.809909 0.732515
O O13 0.668818 0.895216 0.426825
O O14 0.609912 0.744535 0.411901
O O15 0.750000 0.750000 0.500000
#
# Coordination Sequence:
#
# PCOD9261515 Si02
#       8
#     8   8   4   8   8   8   4   8
#     4  10  21  34  51  80 125 151 191 239 297 346
#     4  10  19  32  55  81 116 148 186 236 302 346
#     4  12  22  33  60  90 115 156 198 240 286 353
#     4   8  14  31  48  73 105 150 176 228 277 350
#     4   9  19  33  47  75 117 156 181 229 296 346
#     4   9  17  30  50  78 111 142 182 231 290 346
#     4   8  16  29  50  70 103 140 178 228 286 325
#     4  10  19  30  50  73 109 151 187 230 280 344
#
# _framework density 22.824649000000001
#
# number of rings (size 3 to 8) (size 9 to 14) (size 15 to 20)
#    0.000    2.571    1.429    1.714    4.000    1.143 
#    0.000    0.000    0.000    0.000    0.000    2.000 
#    0.000    0.571    0.000    0.000    0.000    0.000 
#
# Total GULP energy -155950.628369 kJ/mol
# GULP energy per Si atom -5569.665299 kJ/mol
# Density = 2.277270 g / cm^3
# Si number density = 22.824649 Si / 1000 Ang^3
#
#
#
# Elastic Constant Matrix: (Units=GPa)
#
#
# Indices 1 2 3 4 5 6 
#
# 1 97.1738 15.3069 53.3112 0.0000 -39.2096 0.0000
# 2 15.3069 20.3754 13.6083 0.0000 -8.4157 0.0000
# 3 53.3112 13.6083 137.8295 0.0000 -67.4224 0.0000
# 4 0.0000 0.0000 0.0000 -12.3379 0.0000 63.7494
# 5 -39.2096 -8.4157 -67.4224 0.0000 65.8724 0.0000
# 6 0.0000 0.0000 0.0000 63.7494 0.0000 -111.2469
#
#
#
# Elastic Compliance Matrix: (Units=1/GPa)
#
#
# Indices 1 2 3 4 5 6 
#
# 1 0.014992 -0.007395 -0.002334 0.000000 0.005590 0.000000
# 2 -0.007395 0.056452 -0.002681 0.000000 0.000067 0.000000
# 3 -0.002334 -0.002681 0.015172 0.000000 0.013797 0.000000
# 4 0.000000 0.000000 0.000000 0.041334 0.000000 0.023686
# 5 0.005590 0.000067 0.013797 0.000000 0.032638 0.000000
# 6 0.000000 0.000000 0.000000 0.023686 0.000000 0.004584
#
#
# Mechanical properties :
#
#
# Convention : Reuss Voigt Hill
#
# Bulk Modulus (GPa) = 16.18219 46.64793 31.41506
# Shear Modulus (GPa) = 23.74275 0.00100 11.87188
#
# Velocity S-wave (km/s) = 3.22875 0.02099 2.28312
# Velocity P-wave (km/s) = 4.58312 4.52576 4.55453
#
# Compressibility (1/GPa) = 0.06179633
#
# Stress axis : x y z
#
# Youngs Moduli (GPa) = 66.70349 17.71412 65.91064
#
# Poissons Ratio (x) = 0.13099 0.15385
# Poissons Ratio (y) = 0.49325 0.17670
# Poissons Ratio (z) = 0.15570 0.04749
#
# Static dielectric constant tensor:
#      x y z
#    x 1.916160 0.000000 -0.035900 
#    y 0.000000 1.917610 0.000000 
#    z -0.035900 0.000000 1.938110 
# 
# From -- ./inp_files/182682.got.cif
#   From: 2010.05.17/outbox.cif.g08.bks.cpg/sg15_92_cif.got.tgz:182682.got - 2010.06.03 18:47:42.
