data_PCOD9261643
_publ_section_title
;
Structure prediction by ZEFSAII (Michael W. Deem and Ramdas Pophale) SiO2 
 PCOD9261643
Probable space group: C 2/C
;
_chemical_formula_sum "Si O2"
_cell_formula_units_Z 56
_cell_length_a 17.746369
_cell_length_b 23.870357
_cell_length_c 13.424530
_cell_angle_alpha 90.000000
_cell_angle_beta 139.153792
_cell_angle_gamma 90.000000
_cell_volume 3719.339093
_symmetry_space_group_name_H-M "C 2/C"
_symmetry_group_IT_number 15
_symmetry_cell_setting 'monoclinic'
loop_
_space_group_symop_operation_xyz
x,y,z
-x,y,1/2-z
-x,-y,-z
x,-y,1/2+z
1/2+x,1/2+y,z
1/2-x,1/2+y,1/2-z
1/2-x,1/2-y,-z
1/2+x,1/2-y,1/2+z
loop_
_atom_site_type_symbol
_atom_site_label
_atom_site_fract_x
_atom_site_fract_y
_atom_site_fract_z
Si Si1 0.500000 0.373705 0.369543
Si Si2 0.231491 0.187132 0.101951
Si Si3 0.295495 0.500000 0.295495
Si Si4 0.500000 0.491322 0.633225
Si Si5 0.634861 0.079152 0.267240
Si Si6 0.231491 0.187132 0.861032
Si Si7 0.634862 0.079152 0.502483
O O1 0.500000 0.366658 0.250000
O O2 0.614981 0.343173 0.522047
O O3 0.500000 0.440679 0.382413
O O4 0.385020 0.343172 0.292086
O O5 0.335035 0.143955 0.224400
O O6 0.250000 0.250000 0.158404
O O7 0.221767 0.191156 0.971767
O O8 0.384038 0.471385 0.462462
O O9 0.384038 0.528615 0.305614
O O10 0.215172 0.541328 0.278332
O O11 0.215172 0.458672 0.152012
O O12 0.500000 0.479922 0.750000
O O13 0.663068 0.069585 0.413068
O O14 0.500000 0.067776 0.117912
O O15 0.335035 0.143955 0.945670
#
# Coordination Sequence:
#
# PCOD9261643 Si02
#       7
#     8   8   8   8   8   8   8
#     4   9  15  27  43  60  87 118 151 183 220 269
#     4   9  17  27  42  63  89 124 156 181 218 272
#     4  11  19  30  48  66  91 127 156 196 230 273
#     4  10  19  31  48  69  93 122 152 193 237 274
#     4  10  20  32  45  65  96 130 160 188 224 273
#     4   9  17  27  42  63  89 124 156 181 218 272
#     4  10  20  32  45  65  96 130 160 188 224 273
#
# _framework density 15.056438999999999
#
# number of rings (size 3 to 8) (size 9 to 14) (size 15 to 20)
#    0.000    2.286    2.857    1.286    2.000    0.000 
#    0.000    0.000    0.000    0.000    0.000    0.000 
#    0.000    4.571    1.714    0.000    0.000    0.000 
#
# Total GULP energy -155889.552010 kJ/mol
# GULP energy per Si atom -5567.484000 kJ/mol
# Density = 1.502217 g / cm^3
# Si number density = 15.056439 Si / 1000 Ang^3
#
#
#
# Elastic Constant Matrix: (Units=GPa)
#
#
# Indices 1 2 3 4 5 6 
#
# 1 93.2748 34.8809 39.1574 0.0000 6.4915 0.0000
# 2 34.8809 65.2469 35.0105 0.0000 5.4586 0.0000
# 3 39.1574 35.0105 93.5789 0.0000 6.3339 0.0000
# 4 0.0000 0.0000 0.0000 14.2205 0.0000 1.4717
# 5 6.4915 5.4586 6.3339 0.0000 20.4939 0.0000
# 6 0.0000 0.0000 0.0000 1.4717 0.0000 14.1858
#
#
#
# Elastic Compliance Matrix: (Units=1/GPa)
#
#
# Indices 1 2 3 4 5 6 
#
# 1 0.014558 -0.005533 -0.003891 0.000000 -0.001935 0.000000
# 2 -0.005533 0.021456 -0.005560 0.000000 -0.002244 0.000000
# 3 -0.003891 -0.005560 0.014514 0.000000 -0.001773 0.000000
# 4 0.000000 0.000000 0.000000 0.071084 0.000000 -0.007374
# 5 -0.001935 -0.002244 -0.001773 0.000000 0.050553 0.000000
# 6 0.000000 0.000000 0.000000 -0.007374 0.000000 0.071258
#
#
# Mechanical properties :
#
#
# Convention : Reuss Voigt Hill
#
# Bulk Modulus (GPa) = 48.63714 52.24423 50.44069
# Shear Modulus (GPa) = 17.84153 19.31682 18.57917
#
# Velocity S-wave (km/s) = 3.44608 3.58573 3.51660
# Velocity P-wave (km/s) = 6.94315 7.20538 7.07548
#
# Compressibility (1/GPa) = 0.02056042
#
# Stress axis : x y z
#
# Youngs Moduli (GPa) = 68.68978 46.60799 68.89764
#
# Poissons Ratio (x) = 0.25789 0.26806
# Poissons Ratio (y) = 0.38008 0.38307
# Poissons Ratio (z) = 0.26725 0.25914
#
# Static dielectric constant tensor:
#      x y z
#    x 1.515440 0.000000 0.019790 
#    y 0.000000 1.506020 0.000000 
#    z 0.019790 0.000000 1.515900 
# 
# From -- ./inp_files/107994.got.cif
#   From: 2010.05.17/outbox.cif.g08.bks.cpg/sg15_54_cif.got.tgz:107994.got - 2010.06.03 18:47:42.
