data_PCOD9261470
_publ_section_title
;
Structure prediction by ZEFSAII (Michael W. Deem and Ramdas Pophale) SiO2 
 PCOD9261470
Probable space group: C 2/C
;
_chemical_formula_sum "Si O2"
_cell_formula_units_Z 40
_cell_length_a 12.861172
_cell_length_b 23.520687
_cell_length_c 11.386689
_cell_angle_alpha 90.000000
_cell_angle_beta 37.478572
_cell_angle_gamma 90.000000
_cell_volume 2095.865372
_symmetry_space_group_name_H-M "C 2/C"
_symmetry_group_IT_number 15
_symmetry_cell_setting 'monoclinic'
loop_
_space_group_symop_operation_xyz
x,y,z
-x,y,1/2-z
-x,-y,-z
x,-y,1/2+z
1/2+x,1/2+y,z
1/2-x,1/2+y,1/2-z
1/2-x,1/2-y,-z
1/2+x,1/2-y,1/2+z
loop_
_atom_site_type_symbol
_atom_site_label
_atom_site_fract_x
_atom_site_fract_y
_atom_site_fract_z
Si Si1 0.686601 0.995592 0.069731
Si Si2 0.199169 0.815520 0.538477
Si Si3 0.289052 0.896887 0.251571
Si Si4 0.045431 0.943148 0.034132
Si Si5 0.830399 0.597010 0.109971
O O1 0.500000 0.022995 0.250000
O O2 0.696212 0.947105 0.163095
O O3 0.845771 0.035503 0.952558
O O4 0.692133 0.961916 0.942734
O O5 0.250000 0.750000 0.500000
O O6 0.245184 0.842039 0.370410
O O7 0.299949 0.852813 0.544095
O O8 0.000000 0.823063 0.750000
O O9 0.132422 0.909709 0.306080
O O10 0.474005 0.896917 0.025437
O O11 0.183596 0.905852 0.837827
O O12 0.000000 0.000000 0.000000
#
# Coordination Sequence:
#
# PCOD9261470 Si02
#       5
#     8   8   8   8   8
#     4   8  17  29  45  67  94 131 172 197 247 298
#     4  11  19  31  50  72  99 136 168 203 250 305
#     4   9  18  31  44  67  95 129 168 200 241 295
#     4  10  19  30  48  68  95 142 170 202 253 292
#     4  10  19  34  47  67 106 133 165 214 240 296
#
# _framework density 19.085194999999999
#
# number of rings (size 3 to 8) (size 9 to 14) (size 15 to 20)
#    0.000    2.400    2.000    3.000    0.000    7.200 
#    0.000    2.000    0.000    0.000    0.000    0.000 
#    0.000    1.600    3.600    5.000    0.800    0.000 
#
# Total GULP energy -111622.687460 kJ/mol
# GULP energy per Si atom -5581.134373 kJ/mol
# Density = 1.904176 g / cm^3
# Si number density = 19.085195 Si / 1000 Ang^3
#
#
#
# Elastic Constant Matrix: (Units=GPa)
#
#
# Indices 1 2 3 4 5 6 
#
# 1 86.4009 43.8432 62.4028 0.0000 -41.3241 0.0000
# 2 43.8432 80.2275 28.8586 0.0000 -10.1490 0.0000
# 3 62.4028 28.8586 103.0189 0.0000 -42.2398 0.0000
# 4 0.0000 0.0000 0.0000 24.4011 0.0000 -3.2858
# 5 -41.3241 -10.1490 -42.2398 0.0000 41.6306 0.0000
# 6 0.0000 0.0000 0.0000 -3.2858 0.0000 17.4278
#
#
#
# Elastic Compliance Matrix: (Units=1/GPa)
#
#
# Indices 1 2 3 4 5 6 
#
# 1 0.035778 -0.013636 -0.007969 0.000000 0.024105 0.000000
# 2 -0.013636 0.019081 -0.001246 0.000000 -0.010149 0.000000
# 3 -0.007969 -0.001246 0.019719 0.000000 0.011793 0.000000
# 4 0.000000 0.000000 0.000000 0.042049 0.000000 0.007928
# 5 0.024105 -0.010149 0.011793 0.000000 0.057440 0.000000
# 6 0.000000 0.000000 0.000000 0.007928 0.000000 0.058874
#
#
# Mechanical properties :
#
#
# Convention : Reuss Voigt Hill
#
# Bulk Modulus (GPa) = 34.63238 59.98405 47.30821
# Shear Modulus (GPa) = 17.34496 25.66141 21.50318
#
# Velocity S-wave (km/s) = 3.01793 3.67082 3.36027
# Velocity P-wave (km/s) = 5.50722 7.03309 6.31640
#
# Compressibility (1/GPa) = 0.02887471
#
# Stress axis : x y z
#
# Youngs Moduli (GPa) = 27.95027 52.40803 50.71375
#
# Poissons Ratio (x) = 0.71465 0.40413
# Poissons Ratio (y) = 0.38114 0.06320
# Poissons Ratio (z) = 0.22273 0.06531
#
# Static dielectric constant tensor:
#      x y z
#    x 1.707850 0.000000 0.018410 
#    y 0.000000 1.639830 0.000000 
#    z 0.018410 0.000000 1.758210 
# 
# From -- ./inp_files/67472.got.cif
#   From: 2010.05.17/outbox.cif.g08.bks.cpg/sg15_34_cif.got.tgz:67472.got - 2010.06.03 18:47:42.
