data_PCOD9261876
_publ_section_title
;
Structure prediction by ZEFSAII (Michael W. Deem and Ramdas Pophale) SiO2 
 PCOD9261876
Probable space group: C 2/C
;
_chemical_formula_sum "Si O2"
_cell_formula_units_Z 40
_cell_length_a 30.033960
_cell_length_b 7.697733
_cell_length_c 9.066948
_cell_angle_alpha 90.000000
_cell_angle_beta 53.161968
_cell_angle_gamma 90.000000
_cell_volume 1677.674106
_symmetry_space_group_name_H-M "C 2/C"
_symmetry_group_IT_number 15
_symmetry_cell_setting 'monoclinic'
loop_
_space_group_symop_operation_xyz
x,y,z
-x,y,1/2-z
-x,-y,-z
x,-y,1/2+z
1/2+x,1/2+y,z
1/2-x,1/2+y,1/2-z
1/2-x,1/2-y,-z
1/2+x,1/2-y,1/2+z
loop_
_atom_site_type_symbol
_atom_site_label
_atom_site_fract_x
_atom_site_fract_y
_atom_site_fract_z
Si Si1 0.330099 0.313848 0.844242
Si Si2 0.063815 0.652603 0.481797
Si Si3 0.753476 0.753479 0.746511
Si Si4 0.554845 0.218130 0.845640
Si Si5 0.822003 0.399199 0.860592
O O1 0.290107 0.366387 0.789486
O O2 0.395855 0.352518 0.710184
O O3 0.331330 0.103807 0.834092
O O4 0.293682 0.343997 0.062731
O O5 0.069220 0.662644 0.647844
O O6 0.054623 0.450462 0.453395
O O7 0.120961 0.699929 0.288381
O O8 0.010460 0.763769 0.536277
O O9 0.799072 0.644575 0.566349
O O10 0.720678 0.847659 0.681601
#
# Coordination Sequence:
#
# PCOD9261876 Si02
#       5
#     8   8   8   8   8
#     4  10  19  32  47  68  98 128 152 194 231 268
#     4   9  17  28  44  66  93 126 154 180 231 291
#     4  10  20  30  46  68  94 126 166 184 224 286
#     4   9  17  28  44  66  93 126 154 180 231 291
#     4  10  19  32  47  68  98 128 152 194 231 268
#
# _framework density 23.842534000000001
#
# number of rings (size 3 to 8) (size 9 to 14) (size 15 to 20)
#    0.000    2.400    2.000    1.200    8.400    0.000 
#    0.000    0.000    0.000    0.000    0.000    0.000 
#    0.000  112.000    0.000    0.000    0.000    0.000 
#
# Total GULP energy -111644.446755 kJ/mol
# GULP energy per Si atom -5582.222338 kJ/mol
# Density = 2.378827 g / cm^3
# Si number density = 23.842534 Si / 1000 Ang^3
#
#
#
# Elastic Constant Matrix: (Units=GPa)
#
#
# Indices 1 2 3 4 5 6 
#
# 1 125.8292 10.3887 59.2634 0.0000 -22.0974 0.0000
# 2 10.3887 22.5369 21.0556 0.0000 -5.0362 0.0000
# 3 59.2634 21.0556 146.8424 0.0000 -16.0267 0.0000
# 4 0.0000 0.0000 0.0000 25.4076 0.0000 1.0539
# 5 -22.0974 -5.0362 -16.0267 0.0000 54.9411 0.0000
# 6 0.0000 0.0000 0.0000 1.0539 0.0000 27.2845
#
#
#
# Elastic Compliance Matrix: (Units=1/GPa)
#
#
# Indices 1 2 3 4 5 6 
#
# 1 0.010282 -0.000576 -0.003740 0.000000 0.002991 0.000000
# 2 -0.000576 0.051640 -0.006900 0.000000 0.002489 0.000000
# 3 -0.003740 -0.006900 0.009374 0.000000 0.000598 0.000000
# 4 0.000000 0.000000 0.000000 0.039421 0.000000 -0.001523
# 5 0.002991 0.002489 0.000598 0.000000 0.019807 0.000000
# 6 0.000000 0.000000 0.000000 -0.001523 0.000000 0.036710
#
#
# Mechanical properties :
#
#
# Convention : Reuss Voigt Hill
#
# Bulk Modulus (GPa) = 20.46582 52.95821 36.71201
# Shear Modulus (GPa) = 24.27697 35.16004 29.71850
#
# Velocity S-wave (km/s) = 3.19442 3.84432 3.53434
# Velocity P-wave (km/s) = 4.71255 6.47803 5.66450
#
# Compressibility (1/GPa) = 0.04886196
#
# Stress axis : x y z
#
# Youngs Moduli (GPa) = 97.25811 19.36469 106.67493
#
# Poissons Ratio (x) = 0.01116 0.39901
# Poissons Ratio (y) = 0.05607 0.73609
# Poissons Ratio (z) = 0.36379 0.13362
#
# Static dielectric constant tensor:
#      x y z
#    x 1.979190 0.000000 -0.079190 
#    y 0.000000 1.977520 0.000000 
#    z -0.079190 0.000000 1.897490 
# 
# From -- ./inp_files/46719.got.cif
#   From: 2010.05.17/outbox.cif.g08.bks.cpg/sg15_24_cif.got.tgz:46719.got - 2010.06.03 18:47:42.
