data_PCOD9261209
_publ_section_title
;
Structure prediction by ZEFSAII (Michael W. Deem and Ramdas Pophale) SiO2 
 PCOD9261209
Probable space group: C 2/C
;
_chemical_formula_sum "Si O2"
_cell_formula_units_Z 48
_cell_length_a 11.384098
_cell_length_b 23.894824
_cell_length_c 8.622113
_cell_angle_alpha 90.000000
_cell_angle_beta 103.999292
_cell_angle_gamma 90.000000
_cell_volume 2275.734684
_symmetry_space_group_name_H-M "C 2/C"
_symmetry_group_IT_number 15
_symmetry_cell_setting 'monoclinic'
loop_
_space_group_symop_operation_xyz
x,y,z
-x,y,1/2-z
-x,-y,-z
x,-y,1/2+z
1/2+x,1/2+y,z
1/2-x,1/2+y,1/2-z
1/2-x,1/2-y,-z
1/2+x,1/2-y,1/2+z
loop_
_atom_site_type_symbol
_atom_site_label
_atom_site_fract_x
_atom_site_fract_y
_atom_site_fract_z
Si Si1 0.833189 0.131322 0.436460
Si Si2 0.500000 0.343038 0.250000
Si Si3 0.640985 0.732267 0.256875
Si Si4 0.500000 0.438329 0.750000
Si Si5 0.228000 0.952328 0.008018
Si Si6 0.642604 0.050822 0.271038
Si Si7 0.299799 0.325884 0.405897
O O1 0.898861 0.123766 0.621074
O O2 0.830828 0.196113 0.386086
O O3 0.919178 0.100649 0.336734
O O4 0.702639 0.103285 0.379383
O O5 0.424019 0.310859 0.356587
O O6 0.500000 0.733840 0.250000
O O7 0.699477 0.697791 0.419321
O O8 0.695698 0.794114 0.279190
O O9 0.400935 0.469506 0.611943
O O10 0.208527 0.892487 0.082448
O O11 0.283245 0.997831 0.139516
O O12 0.322523 0.944070 0.897853
O O13 0.500000 0.045691 0.250000
#
# Coordination Sequence:
#
# PCOD9261209 Si02
#       7
#     8   4   8   4   8   8   8
#     4  11  21  41  68  93 135 168 215 275 321 380
#     4  12  22  41  66 102 136 158 227 274 318 388
#     4  11  20  46  67  92 132 178 211 267 331 389
#     4  10  18  41  66  94 124 166 215 266 328 378
#     4  11  23  44  67  97 128 174 216 272 329 386
#     4  11  26  44  65  94 136 174 217 269 324 397
#     4  11  24  40  70  98 129 174 217 267 328 390
#
# _framework density 21.092089000000001
#
# number of rings (size 3 to 8) (size 9 to 14) (size 15 to 20)
#    0.000    1.000    7.500    0.500    2.333    4.667 
#    4.500    0.000    0.000    0.000    0.000    0.000 
#    0.000    0.000    0.000    0.000    0.000    0.000 
#
# Total GULP energy -134071.783042 kJ/mol
# GULP energy per Si atom -5586.324293 kJ/mol
# Density = 2.104408 g / cm^3
# Si number density = 21.092089 Si / 1000 Ang^3
#
#
#
# Elastic Constant Matrix: (Units=GPa)
#
#
# Indices 1 2 3 4 5 6 
#
# 1 86.7540 41.5559 19.5708 0.0000 19.9200 0.0000
# 2 41.5559 84.7499 37.6270 0.0000 24.3808 0.0000
# 3 19.5708 37.6270 90.9075 0.0000 6.6831 0.0000
# 4 0.0000 0.0000 0.0000 19.3566 0.0000 10.1120
# 5 19.9200 24.3808 6.6831 0.0000 37.5065 0.0000
# 6 0.0000 0.0000 0.0000 10.1120 0.0000 20.8740
#
#
#
# Elastic Compliance Matrix: (Units=1/GPa)
#
#
# Indices 1 2 3 4 5 6 
#
# 1 0.015569 -0.006239 -0.000466 0.000000 -0.004130 0.000000
# 2 -0.006239 0.020182 -0.006373 0.000000 -0.008670 0.000000
# 3 -0.000466 -0.006373 0.013594 0.000000 0.001968 0.000000
# 4 0.000000 0.000000 0.000000 0.069166 0.000000 -0.033506
# 5 -0.004130 -0.008670 0.001968 0.000000 0.034141 0.000000
# 6 0.000000 0.000000 0.000000 -0.033506 0.000000 0.064138
#
#
# Mechanical properties :
#
#
# Convention : Reuss Voigt Hill
#
# Bulk Modulus (GPa) = 43.12344 51.10208 47.11276
# Shear Modulus (GPa) = 19.94620 26.45794 23.20207
#
# Velocity S-wave (km/s) = 3.07851 3.54559 3.32028
# Velocity P-wave (km/s) = 5.75552 6.40643 6.08968
#
# Compressibility (1/GPa) = 0.02318924
#
# Stress axis : x y z
#
# Youngs Moduli (GPa) = 64.23107 49.54821 73.56408
#
# Poissons Ratio (x) = 0.30913 0.03426
# Poissons Ratio (y) = 0.40074 0.46883
# Poissons Ratio (z) = 0.02991 0.31577
#
# Static dielectric constant tensor:
#      x y z
#    x 1.747870 0.000000 0.008250 
#    y 0.000000 1.768820 0.000000 
#    z 0.008250 0.000000 1.807830 
# 
# From -- ./inp_files/32673.got.cif
#   From: 2010.05.17/outbox.cif.g08.bks.cpg/sg15_17_cif.got.tgz:32673.got - 2010.06.03 18:47:42.
