data_PCOD9261534
_publ_section_title
;
Structure prediction by ZEFSAII (Michael W. Deem and Ramdas Pophale) SiO2 
 PCOD9261534
Probable space group: C 2/C
;
_chemical_formula_sum "Si O2"
_cell_formula_units_Z 56
_cell_length_a 10.819772
_cell_length_b 16.658275
_cell_length_c 16.606267
_cell_angle_alpha 90.000000
_cell_angle_beta 115.176763
_cell_angle_gamma 90.000000
_cell_volume 2708.747777
_symmetry_space_group_name_H-M "C 2/C"
_symmetry_group_IT_number 15
_symmetry_cell_setting 'monoclinic'
loop_
_space_group_symop_operation_xyz
x,y,z
-x,y,1/2-z
-x,-y,-z
x,-y,1/2+z
1/2+x,1/2+y,z
1/2-x,1/2+y,1/2-z
1/2-x,1/2-y,-z
1/2+x,1/2-y,1/2+z
loop_
_atom_site_type_symbol
_atom_site_label
_atom_site_fract_x
_atom_site_fract_y
_atom_site_fract_z
Si Si1 0.500000 0.706263 0.750000
Si Si2 0.104210 0.603892 0.021770
Si Si3 0.243662 0.891836 0.287287
Si Si4 0.782983 0.323564 0.618820
Si Si5 0.225182 0.428115 0.726809
Si Si6 0.000000 0.152019 0.250000
Si Si7 0.475262 0.767098 0.387825
Si Si8 0.701780 0.939699 0.028155
O O1 0.392575 0.655579 0.773903
O O2 0.403511 0.758807 0.663705
O O3 0.200596 0.534885 0.009647
O O4 0.091504 0.687421 0.971100
O O5 0.137951 0.601650 0.125974
O O6 0.947650 0.575173 0.975269
O O7 0.372617 0.831975 0.317496
O O8 0.207646 0.916523 0.370373
O O9 0.281309 0.977029 0.259911
O O10 0.807512 0.380473 0.702206
O O11 0.635270 0.280785 0.587866
O O12 0.782947 0.378741 0.540364
O O13 0.376746 0.403342 0.743096
O O14 0.033494 0.208725 0.335524
#
# Coordination Sequence:
#
# PCOD9261534 Si02
#       8
#     4   8   8   8   8   4   8   8
#     4  10  19  30  51  78 100 128 166 204 251 296
#     4   9  18  33  53  76 100 135 173 204 249 305
#     4   9  19  35  53  73 101 136 168 203 250 302
#     4  10  20  32  51  79 104 130 167 213 255 295
#     4  10  20  35  55  74 100 138 173 203 249 307
#     4  10  21  36  51  74 108 136 162 210 261 296
#     4   9  20  34  50  75 104 132 167 210 257 293
#     4   9  18  33  52  76 105 132 166 212 253 293
#
# _framework density 20.673760000000001
#
# number of rings (size 3 to 8) (size 9 to 14) (size 15 to 20)
#    0.000    2.571    0.000    2.143    0.000    8.000 
#    0.000    0.000    0.000   28.286    0.000    0.000 
#    0.000    0.000    0.000    0.000    0.000    0.000 
#
# Total GULP energy -156048.343706 kJ/mol
# GULP energy per Si atom -5573.155132 kJ/mol
# Density = 2.062671 g / cm^3
# Si number density = 20.673760 Si / 1000 Ang^3
#
#
#
# Elastic Constant Matrix: (Units=GPa)
#
#
# Indices 1 2 3 4 5 6 
#
# 1 15.5714 6.7184 -4.4939 0.0000 -3.5331 0.0000
# 2 6.7184 94.7491 17.2633 0.0000 -5.2906 0.0000
# 3 -4.4939 17.2633 36.5150 0.0000 3.1889 0.0000
# 4 0.0000 0.0000 0.0000 -1.4721 0.0000 7.2416
# 5 -3.5331 -5.2906 3.1889 0.0000 10.7137 0.0000
# 6 0.0000 0.0000 0.0000 7.2416 0.0000 -59.5027
#
#
#
# Elastic Compliance Matrix: (Units=1/GPa)
#
#
# Indices 1 2 3 4 5 6 
#
# 1 0.074015 -0.006123 0.010407 0.000000 0.018287 0.000000
# 2 -0.006123 0.012678 -0.007308 0.000000 0.006416 0.000000
# 3 0.010407 -0.007308 0.032995 0.000000 -0.009997 0.000000
# 4 0.000000 0.000000 0.000000 -1.692748 0.000000 -0.206010
# 5 0.018287 0.006416 -0.009997 0.000000 0.105513 0.000000
# 6 0.000000 0.000000 0.000000 -0.206010 0.000000 -0.041878
#
#
# Mechanical properties :
#
#
# Convention : Reuss Voigt Hill
#
# Bulk Modulus (GPa) = 8.79977 20.64568 14.72272
# Shear Modulus (GPa) = -3.41181 -1.56237 -2.48709
#
# Velocity S-wave (km/s) = -1.28604 -0.87027 -1.09801
# Velocity P-wave (km/s) = 1.43546 2.99971 2.35147
#
# Compressibility (1/GPa) = 0.11363936
#
# Stress axis : x y z
#
# Youngs Moduli (GPa) = 13.51081 78.87596 30.30781
#
# Poissons Ratio (x) = 0.48298 -0.31541
# Poissons Ratio (y) = 0.08273 0.22148
# Poissons Ratio (z) = -0.14060 0.57641
#
# Static dielectric constant tensor:
#      x y z
#    x 1.755740 0.000000 0.064380 
#    y 0.000000 1.868360 0.000000 
#    z 0.064380 0.000000 1.803440 
# 
# From -- ./inp_files/145591.got.cif
#   From: 2010.05.17/outbox.cif.g08.bks.cpg/sg15_73_cif.got.tgz:145591.got - 2010.06.03 18:47:42.
