data_PCOD9261708
_publ_section_title
;
Structure prediction by ZEFSAII (Michael W. Deem and Ramdas Pophale) SiO2 
 PCOD9261708
Probable space group: C 2/C
;
_chemical_formula_sum "Si O2"
_cell_formula_units_Z 56
_cell_length_a 23.187654
_cell_length_b 16.203767
_cell_length_c 9.589027
_cell_angle_alpha 90.000000
_cell_angle_beta 51.771604
_cell_angle_gamma 90.000000
_cell_volume 2830.227506
_symmetry_space_group_name_H-M "C 2/C"
_symmetry_group_IT_number 15
_symmetry_cell_setting 'monoclinic'
loop_
_space_group_symop_operation_xyz
x,y,z
-x,y,1/2-z
-x,-y,-z
x,-y,1/2+z
1/2+x,1/2+y,z
1/2-x,1/2+y,1/2-z
1/2-x,1/2-y,-z
1/2+x,1/2-y,1/2+z
loop_
_atom_site_type_symbol
_atom_site_label
_atom_site_fract_x
_atom_site_fract_y
_atom_site_fract_z
Si Si1 0.303189 0.326781 0.136945
Si Si2 0.121351 0.788899 0.763307
Si Si3 0.742620 0.340148 0.803476
Si Si4 0.956681 0.944604 0.672150
Si Si5 0.142423 0.607637 0.795859
Si Si6 0.180400 0.058276 0.648684
Si Si7 0.667328 0.977769 0.978655
O O1 0.276945 0.250278 0.271986
O O2 0.229729 0.369350 0.182547
O O3 0.343264 0.392018 0.176804
O O4 0.349812 0.290574 0.939409
O O5 0.187167 0.825872 0.757958
O O6 0.055645 0.853213 0.867938
O O7 0.105441 0.697258 0.841260
O O8 0.805129 0.404905 0.664613
O O9 0.697495 0.379033 0.997816
O O10 0.000000 0.941643 0.750000
O O11 0.877506 0.988923 0.808210
O O12 0.000000 0.000000 0.500000
O O13 0.126510 0.547657 0.949513
O O14 0.128941 0.560692 0.670987
O O15 0.257818 0.017913 0.573991
#
# Coordination Sequence:
#
# PCOD9261708 Si02
#       7
#     8   8   8   8   8   8   8
#     4  10  19  31  52  78 109 151 174 210 275 343
#     4  11  20  36  52  73 108 148 184 231 272 313
#     4  11  18  31  50  78 114 142 176 215 272 349
#     4  12  25  39  56  76 104 152 204 236 262 306
#     4  10  19  31  50  79 109 143 173 211 270 348
#     4  11  22  33  51  76 113 146 182 230 274 312
#     4  11  18  30  52  79 112 143 170 210 277 350
#
# _framework density 19.786394999999999
#
# number of rings (size 3 to 8) (size 9 to 14) (size 15 to 20)
#    0.000    1.143    5.714    3.000    2.000    0.000 
#    0.000    0.000    0.000    0.000    0.000    1.000 
#    0.000    0.000    0.000    0.429    0.000    0.000 
#
# Total GULP energy -156403.585109 kJ/mol
# GULP energy per Si atom -5585.842325 kJ/mol
# Density = 1.974136 g / cm^3
# Si number density = 19.786395 Si / 1000 Ang^3
#
#
#
# Elastic Constant Matrix: (Units=GPa)
#
#
# Indices 1 2 3 4 5 6 
#
# 1 52.2873 47.1014 12.6376 0.0000 18.6301 0.0000
# 2 47.1014 143.9139 42.9767 0.0000 25.7912 0.0000
# 3 12.6376 42.9767 43.1538 0.0000 11.5481 0.0000
# 4 0.0000 0.0000 0.0000 35.9028 0.0000 11.1964
# 5 18.6301 25.7912 11.5481 0.0000 15.4105 0.0000
# 6 0.0000 0.0000 0.0000 11.1964 0.0000 26.0853
#
#
#
# Elastic Compliance Matrix: (Units=1/GPa)
#
#
# Indices 1 2 3 4 5 6 
#
# 1 0.037930 -0.007551 0.006631 0.000000 -0.038187 0.000000
# 2 -0.007551 0.013332 -0.009429 0.000000 -0.006119 0.000000
# 3 0.006631 -0.009429 0.035703 0.000000 -0.018991 0.000000
# 4 0.000000 0.000000 0.000000 0.032157 0.000000 -0.013803
# 5 -0.038187 -0.006119 -0.018991 0.000000 0.135528 0.000000
# 6 0.000000 0.000000 0.000000 -0.013803 0.000000 0.044260
#
#
# Mechanical properties :
#
#
# Convention : Reuss Voigt Hill
#
# Bulk Modulus (GPa) = 15.09019 49.42072 32.25545
# Shear Modulus (GPa) = 14.63280 24.58900 19.61090
#
# Velocity S-wave (km/s) = 2.72240 3.52905 3.15164
# Velocity P-wave (km/s) = 4.18629 6.45267 5.43884
#
# Compressibility (1/GPa) = 0.06626824
#
# Stress axis : x y z
#
# Youngs Moduli (GPa) = 26.36403 75.00656 28.00877
#
# Poissons Ratio (x) = 0.56636 -0.18572
# Poissons Ratio (y) = 0.19907 0.26409
# Poissons Ratio (z) = -0.17481 0.70722
#
# Static dielectric constant tensor:
#      x y z
#    x 1.684920 0.000000 0.005940 
#    y 0.000000 1.732340 0.000000 
#    z 0.005940 0.000000 1.710530 
# 
# From -- ./inp_files/61494.got.cif
#   From: 2010.05.17/outbox.cif.g08.bks.cpg/sg15_31_cif.got.tgz:61494.got - 2010.06.03 18:47:42.
