data_PCOD9261700
_publ_section_title
;
Structure prediction by ZEFSAII (Michael W. Deem and Ramdas Pophale) SiO2 
 PCOD9261700
Probable space group: C 2/C
;
_chemical_formula_sum "Si O2"
_cell_formula_units_Z 48
_cell_length_a 9.551042
_cell_length_b 19.876101
_cell_length_c 11.753201
_cell_angle_alpha 90.000000
_cell_angle_beta 90.000000
_cell_angle_gamma 90.000000
_cell_volume 2231.198006
_symmetry_space_group_name_H-M "C 2/C"
_symmetry_group_IT_number 15
_symmetry_cell_setting 'monoclinic'
loop_
_space_group_symop_operation_xyz
x,y,z
-x,y,1/2-z
-x,-y,-z
x,-y,1/2+z
1/2+x,1/2+y,z
1/2-x,1/2+y,1/2-z
1/2-x,1/2-y,-z
1/2+x,1/2-y,1/2+z
loop_
_atom_site_type_symbol
_atom_site_label
_atom_site_fract_x
_atom_site_fract_y
_atom_site_fract_z
Si Si1 0.414227 0.238543 0.635518
Si Si2 0.585773 0.261457 0.135518
Si Si3 0.408016 0.417228 0.401234
Si Si4 0.089333 0.046239 0.347378
Si Si5 0.408016 0.082772 0.598766
Si Si6 0.589333 0.046239 0.152622
O O1 0.500000 0.262098 0.750000
O O2 0.458321 0.250000 0.500000
O O3 0.250000 0.260669 0.642718
O O4 0.417840 0.157196 0.645656
O O5 0.500000 0.237902 0.250000
O O6 0.582160 0.342804 0.145656
O O7 0.522267 0.472264 0.366338
O O8 0.422298 0.413217 0.536907
O O9 0.250000 0.443307 0.379111
O O10 0.250000 0.040488 0.317294
O O11 0.000000 0.079712 0.250000
O O12 0.422298 0.086783 0.463093
O O13 0.522266 0.027735 0.633662
O O14 0.500000 0.079712 0.250000
#
# Coordination Sequence:
#
# PCOD9261700 Si02
#       6
#     8   8   8   8   8   8
#     4  10  22  40  60  83 112 146 187 234 280 329
#     4  10  22  40  60  83 112 146 187 234 280 329
#     4   9  19  35  53  75 105 141 180 222 269 322
#     4  10  19  31  50  77 108 140 175 219 270 324
#     4   9  19  35  53  75 105 141 180 222 269 322
#     4  10  19  31  50  77 108 140 175 219 270 324
#
# _framework density 21.513107999999999
#
# number of rings (size 3 to 8) (size 9 to 14) (size 15 to 20)
#    0.000    2.333    0.000    2.000    0.000    7.333 
#    0.000    0.000    0.000    0.000    0.000    0.000 
#    0.000    0.000    0.000    0.000    0.000    0.000 
#
# Total GULP energy -133720.494252 kJ/mol
# GULP energy per Si atom -5571.687261 kJ/mol
# Density = 2.146414 g / cm^3
# Si number density = 21.513108 Si / 1000 Ang^3
#
#
#
# Elastic Constant Matrix: (Units=GPa)
#
#
# Indices 1 2 3 4 5 6 
#
# 1 143.5460 19.3262 76.8114 0.0000 0.0001 0.0000
# 2 19.3262 52.6304 4.5789 0.0000 -0.0001 0.0000
# 3 76.8114 4.5789 188.4735 0.0000 0.0002 0.0000
# 4 0.0000 0.0000 0.0000 16.0685 0.0000 -0.0002
# 5 0.0001 -0.0001 0.0002 0.0000 30.1809 0.0000
# 6 0.0000 0.0000 0.0000 -0.0002 0.0000 -3.5585
#
#
#
# Elastic Compliance Matrix: (Units=1/GPa)
#
#
# Indices 1 2 3 4 5 6 
#
# 1 0.009395 -0.003123 -0.003753 0.000000 0.000000 0.000000
# 2 -0.003123 0.020079 0.000785 0.000000 0.000000 0.000000
# 3 -0.003753 0.000785 0.006816 0.000000 0.000000 0.000000
# 4 0.000000 0.000000 0.000000 0.062233 0.000000 -0.000003
# 5 0.000000 0.000000 0.000000 0.000000 0.033134 0.000000
# 6 0.000000 0.000000 0.000000 -0.000003 0.000000 -0.281019
#
#
# Mechanical properties :
#
#
# Convention : Reuss Voigt Hill
#
# Bulk Modulus (GPa) = 41.48046 65.12031 53.30038
# Shear Modulus (GPa) = -38.71698 27.46709 -5.62495
#
# Velocity S-wave (km/s) = -4.24688 3.57706 -1.61875
# Velocity P-wave (km/s) = 2.17363 6.88449 4.61907
#
# Compressibility (1/GPa) = 0.02410774
#
# Stress axis : x y z
#
# Youngs Moduli (GPa) = 106.43729 49.80308 146.70804
#
# Poissons Ratio (x) = 0.15556 0.55061
# Poissons Ratio (y) = 0.33245 -0.11519
# Poissons Ratio (z) = 0.39947 -0.03910
#
# Static dielectric constant tensor:
#      x y z
#    x 1.766530 0.000000 0.000000 
#    y 0.000000 1.798950 0.000000 
#    z 0.000000 0.000000 1.905440 
# 
# From -- ./inp_files/79241.got.cif
#   From: 2010.05.17/outbox.cif.g08.bks.cpg/sg15_40_cif.got.tgz:79241.got - 2010.06.03 18:47:42.
