data_PCOD9261446
_publ_section_title
;
Structure prediction by ZEFSAII (Michael W. Deem and Ramdas Pophale) SiO2 
 PCOD9261446
Probable space group: C 2/C
;
_chemical_formula_sum "Si O2"
_cell_formula_units_Z 48
_cell_length_a 22.248885
_cell_length_b 14.800560
_cell_length_c 14.280877
_cell_angle_alpha 90.000000
_cell_angle_beta 147.823721
_cell_angle_gamma 90.000000
_cell_volume 2504.274962
_symmetry_space_group_name_H-M "C 2/C"
_symmetry_group_IT_number 15
_symmetry_cell_setting 'monoclinic'
loop_
_space_group_symop_operation_xyz
x,y,z
-x,y,1/2-z
-x,-y,-z
x,-y,1/2+z
1/2+x,1/2+y,z
1/2-x,1/2+y,1/2-z
1/2-x,1/2-y,-z
1/2+x,1/2-y,1/2+z
loop_
_atom_site_type_symbol
_atom_site_label
_atom_site_fract_x
_atom_site_fract_y
_atom_site_fract_z
Si Si1 0.638482 0.641387 0.285881
Si Si2 0.965280 0.007328 0.594777
Si Si3 0.212431 0.305876 0.686743
Si Si4 0.056936 0.790593 0.424493
Si Si5 0.768081 0.888461 0.381716
Si Si6 0.468611 0.823532 0.427804
O O1 0.547825 0.562128 0.152923
O O2 0.731018 0.642200 0.326021
O O3 0.690907 0.628351 0.457688
O O4 0.578132 0.739023 0.196301
O O5 0.837497 0.970100 0.427011
O O6 0.000000 0.002991 0.750000
O O7 0.981742 0.110962 0.590615
O O8 0.200440 0.202613 0.633893
O O9 0.093014 0.346170 0.557881
O O10 0.306618 0.299636 0.892829
O O11 0.024991 0.716795 0.459136
O O12 0.000000 0.773411 0.250000
O O13 0.632576 0.895653 0.205366
#
# Coordination Sequence:
#
# PCOD9261446 Si02
#       6
#     8   8   8   8   8   8
#     4   9  17  28  49  74 103 127 155 202 246 295
#     4   9  16  31  52  75  98 128 164 204 244 286
#     4  10  19  30  45  75 101 128 166 197 247 296
#     4   9  20  35  51  70  96 130 174 211 241 276
#     4   9  17  29  48  74 104 130 157 194 251 298
#     4  10  19  30  47  75 101 128 163 198 249 297
#
# _framework density 19.167224999999998
#
# number of rings (size 3 to 8) (size 9 to 14) (size 15 to 20)
#    0.000    3.000    1.667    2.000    0.000    5.333 
#    0.000    0.833    0.000    0.000    0.000    0.000 
#    0.000    0.000    0.000    0.000    0.000    0.000 
#
# Total GULP energy -133782.503344 kJ/mol
# GULP energy per Si atom -5574.270973 kJ/mol
# Density = 1.912360 g / cm^3
# Si number density = 19.167225 Si / 1000 Ang^3
#
#
#
# Elastic Constant Matrix: (Units=GPa)
#
#
# Indices 1 2 3 4 5 6 
#
# 1 56.4912 9.4232 49.4710 0.0000 14.2984 0.0000
# 2 9.4232 17.8451 17.7603 0.0000 -1.1885 0.0000
# 3 49.4710 17.7603 109.7299 0.0000 4.3065 0.0000
# 4 0.0000 0.0000 0.0000 18.6062 0.0000 -0.0532
# 5 14.2984 -1.1885 4.3065 0.0000 50.2458 0.0000
# 6 0.0000 0.0000 0.0000 -0.0532 0.0000 1.8223
#
#
#
# Elastic Compliance Matrix: (Units=1/GPa)
#
#
# Indices 1 2 3 4 5 6 
#
# 1 0.032362 -0.004086 -0.013609 0.000000 -0.008139 0.000000
# 2 -0.004086 0.067633 -0.009244 0.000000 0.003555 0.000000
# 3 -0.013609 -0.009244 0.016658 0.000000 0.002226 0.000000
# 4 0.000000 0.000000 0.000000 0.053750 0.000000 0.001568
# 5 -0.008139 0.003555 0.002226 0.000000 0.022112 0.000000
# 6 0.000000 0.000000 0.000000 0.001568 0.000000 0.548811
#
#
# Mechanical properties :
#
#
# Convention : Reuss Voigt Hill
#
# Bulk Modulus (GPa) = 15.93041 37.48613 26.70827
# Shear Modulus (GPa) = 6.12649 21.29562 13.71106
#
# Velocity S-wave (km/s) = 1.78977 3.33685 2.67748
# Velocity P-wave (km/s) = 3.54970 5.86907 4.85007
#
# Compressibility (1/GPa) = 0.06277303
#
# Stress axis : x y z
#
# Youngs Moduli (GPa) = 30.90080 14.78579 60.03234
#
# Poissons Ratio (x) = 0.06042 0.81699
# Poissons Ratio (y) = 0.12627 0.55493
# Poissons Ratio (z) = 0.42053 0.13668
#
# Static dielectric constant tensor:
#      x y z
#    x 1.669590 0.000000 0.004130 
#    y 0.000000 1.672460 0.000000 
#    z 0.004130 0.000000 1.708830 
# 
# From -- ./inp_files/173724.got.cif
#   From: 2010.05.17/outbox.cif.g08.bks.cpg/sg15_87_cif.got.tgz:173724.got - 2010.06.03 18:47:42.
