data_PCOD9261480
_publ_section_title
;
Structure prediction by ZEFSAII (Michael W. Deem and Ramdas Pophale) SiO2 
 PCOD9261480
Probable space group: C 2/C
;
_chemical_formula_sum "Si O2"
_cell_formula_units_Z 56
_cell_length_a 20.079169
_cell_length_b 16.898118
_cell_length_c 8.515560
_cell_angle_alpha 90.000000
_cell_angle_beta 125.436824
_cell_angle_gamma 90.000000
_cell_volume 2354.097757
_symmetry_space_group_name_H-M "C 2/C"
_symmetry_group_IT_number 15
_symmetry_cell_setting 'monoclinic'
loop_
_space_group_symop_operation_xyz
x,y,z
-x,y,1/2-z
-x,-y,-z
x,-y,1/2+z
1/2+x,1/2+y,z
1/2-x,1/2+y,1/2-z
1/2-x,1/2-y,-z
1/2+x,1/2-y,1/2+z
loop_
_atom_site_type_symbol
_atom_site_label
_atom_site_fract_x
_atom_site_fract_y
_atom_site_fract_z
Si Si1 0.549945 0.939208 0.962452
Si Si2 0.665512 0.925995 0.612649
Si Si3 0.139116 0.721283 0.236282
Si Si4 0.344418 0.612824 0.867651
Si Si5 0.668874 0.706830 0.097560
Si Si6 0.679316 0.159490 0.813163
Si Si7 0.166397 0.958619 0.493375
O O1 0.500000 0.905286 0.750000
O O2 0.618389 0.998350 0.983403
O O3 0.500000 0.000000 0.000000
O O4 0.596759 0.878933 0.136701
O O5 0.608787 0.862583 0.628842
O O6 0.696424 0.875299 0.506638
O O7 0.738904 0.959829 0.819585
O O8 0.114405 0.801468 0.109316
O O9 0.236971 0.706924 0.337649
O O10 0.126992 0.740369 0.403102
O O11 0.254463 0.636519 0.804456
O O12 0.373394 0.543270 0.024168
O O13 0.338206 0.567897 0.692550
O O14 0.667505 0.747325 0.265458
O O15 0.633987 0.618404 0.043540
#
# Coordination Sequence:
#
# PCOD9261480 Si02
#       7
#     8   8   8   8   8   8   8
#     4  12  26  38  48  70  96 130 174 212 242 283
#     4  11  21  33  49  68  93 128 165 206 246 285
#     4   8  17  31  47  67  94 127 158 193 243 296
#     4  10  19  30  48  72  99 130 160 194 244 295
#     4   8  17  31  47  67  94 127 158 193 243 297
#     4  11  21  33  49  68  93 128 165 206 246 284
#     4  10  19  30  48  72  99 130 160 194 244 296
#
# _framework density 23.788309000000002
#
# number of rings (size 3 to 8) (size 9 to 14) (size 15 to 20)
#    0.000    2.000    2.857    3.429    4.000    6.286 
#    0.000    0.000    0.000    0.000    0.000    0.000 
#    0.000    2.286    0.000    0.143    0.000    0.143 
#
# Total GULP energy -156294.451447 kJ/mol
# GULP energy per Si atom -5581.944695 kJ/mol
# Density = 2.373417 g / cm^3
# Si number density = 23.788309 Si / 1000 Ang^3
#
#
#
# Elastic Constant Matrix: (Units=GPa)
#
#
# Indices 1 2 3 4 5 6 
#
# 1 17.0241 -5.2947 0.8541 0.0000 -12.7961 0.0000
# 2 -5.2947 109.5965 -3.8404 0.0000 3.2540 0.0000
# 3 0.8541 -3.8404 50.1978 0.0000 -6.3443 0.0000
# 4 0.0000 0.0000 0.0000 40.8671 0.0000 -10.5516
# 5 -12.7961 3.2540 -6.3443 0.0000 18.7917 0.0000
# 6 0.0000 0.0000 0.0000 -10.5516 0.0000 25.7055
#
#
#
# Elastic Compliance Matrix: (Units=1/GPa)
#
#
# Indices 1 2 3 4 5 6 
#
# 1 0.125596 0.003780 0.009274 0.000000 0.088001 0.000000
# 2 0.003780 0.009298 0.000803 0.000000 0.001235 0.000000
# 3 0.009274 0.000803 0.021524 0.000000 0.013443 0.000000
# 4 0.000000 0.000000 0.000000 0.027370 0.000000 0.011235
# 5 0.088001 0.001235 0.013443 0.000000 0.117463 0.000000
# 6 0.000000 0.000000 0.000000 0.011235 0.000000 0.043514
#
#
# Mechanical properties :
#
#
# Convention : Reuss Voigt Hill
#
# Bulk Modulus (GPa) = 5.43086 17.80625 11.61856
# Shear Modulus (GPa) = 13.21253 29.41284 21.31269
#
# Velocity S-wave (km/s) = 2.35929 3.52012 2.99646
# Velocity P-wave (km/s) = 3.11603 4.90135 4.10688
#
# Compressibility (1/GPa) = 0.18413298
#
# Stress axis : x y z
#
# Youngs Moduli (GPa) = 7.96203 107.54460 46.46011
#
# Poissons Ratio (x) = -0.40651 -0.43088
# Poissons Ratio (y) = -0.03010 -0.03731
# Poissons Ratio (z) = -0.07384 -0.08638
#
# Static dielectric constant tensor:
#      x y z
#    x 1.952270 0.000000 0.008530 
#    y 0.000000 2.038830 0.000000 
#    z 0.008530 0.000000 1.914100 
# 
# From -- ./inp_files/62564.got.cif
#   From: 2010.05.17/outbox.cif.g08.bks.cpg/sg15_32_cif.got.tgz:62564.got - 2010.06.03 18:47:42.
