data_PCOD9261309
_publ_section_title
;
Structure prediction by ZEFSAII (Michael W. Deem and Ramdas Pophale) SiO2 
 PCOD9261309
Probable space group: C 2/C
;
_chemical_formula_sum "Si O2"
_cell_formula_units_Z 40
_cell_length_a 18.910674
_cell_length_b 9.273317
_cell_length_c 13.244979
_cell_angle_alpha 90.000000
_cell_angle_beta 137.373732
_cell_angle_gamma 90.000000
_cell_volume 1572.964470
_symmetry_space_group_name_H-M "C 2/C"
_symmetry_group_IT_number 15
_symmetry_cell_setting 'monoclinic'
loop_
_space_group_symop_operation_xyz
x,y,z
-x,y,1/2-z
-x,-y,-z
x,-y,1/2+z
1/2+x,1/2+y,z
1/2-x,1/2+y,1/2-z
1/2-x,1/2-y,-z
1/2+x,1/2-y,1/2+z
loop_
_atom_site_type_symbol
_atom_site_label
_atom_site_fract_x
_atom_site_fract_y
_atom_site_fract_z
Si Si1 0.032666 0.555867 0.394155
Si Si2 0.690010 0.139932 0.298081
Si Si3 0.544373 0.630477 0.192156
Si Si4 0.252994 0.543255 0.590635
Si Si5 0.415499 0.645662 0.482228
O O1 0.146978 0.489905 0.534065
O O2 0.068618 0.723910 0.424693
O O3 0.000000 0.502652 0.250000
O O4 0.923128 0.567692 0.339010
O O5 0.691794 0.316100 0.299693
O O6 0.719931 0.092565 0.443525
O O7 0.794543 0.101193 0.346317
O O8 0.500000 0.689969 0.250000
O O9 0.661898 0.579649 0.333633
O O10 0.547178 0.708936 0.086981
O O11 0.477668 0.489059 0.091091
#
# Coordination Sequence:
#
# PCOD9261309 Si02
#       5
#     8   8   8   8   8
#     4   9  16  28  49  74  91 112 147 192 232 261
#     4   9  15  27  45  67  92 113 149 186 226 264
#     4  11  19  30  43  67 101 117 148 181 228 273
#     4   9  16  25  45  66  93 119 140 189 229 261
#     4  10  19  27  45  70  91 124 143 184 230 266
#
# _framework density 25.429690999999998
#
# number of rings (size 3 to 8) (size 9 to 14) (size 15 to 20)
#    0.000    2.400    4.000    1.800    0.000    0.000 
#    0.000    1.000    0.000    1.200    0.000    0.000 
#    0.000    0.000    0.000    0.000    0.000    0.000 
#
# Total GULP energy -111568.260010 kJ/mol
# GULP energy per Si atom -5578.413001 kJ/mol
# Density = 2.537181 g / cm^3
# Si number density = 25.429691 Si / 1000 Ang^3
#
#
#
# Elastic Constant Matrix: (Units=GPa)
#
#
# Indices 1 2 3 4 5 6 
#
# 1 210.9250 13.3028 66.4638 0.0000 11.4216 0.0000
# 2 13.3028 42.2124 34.7690 0.0000 6.4392 0.0000
# 3 66.4638 34.7690 106.9326 0.0000 23.5716 0.0000
# 4 0.0000 0.0000 0.0000 7.9218 0.0000 4.0206
# 5 11.4216 6.4392 23.5716 0.0000 64.5744 0.0000
# 6 0.0000 0.0000 0.0000 4.0206 0.0000 5.4903
#
#
#
# Elastic Compliance Matrix: (Units=1/GPa)
#
#
# Indices 1 2 3 4 5 6 
#
# 1 0.005982 0.001622 -0.004325 0.000000 0.000359 0.000000
# 2 0.001622 0.032821 -0.011849 0.000000 0.000765 0.000000
# 3 -0.004325 -0.011849 0.016816 0.000000 -0.004192 0.000000
# 4 0.000000 0.000000 0.000000 0.200902 0.000000 -0.147121
# 5 0.000359 0.000765 -0.004192 0.000000 0.016876 0.000000
# 6 0.000000 0.000000 0.000000 -0.147121 0.000000 0.289875
#
#
# Mechanical properties :
#
#
# Convention : Reuss Voigt Hill
#
# Bulk Modulus (GPa) = 37.71155 65.46014 51.58585
# Shear Modulus (GPa) = 8.31650 31.96629 20.14140
#
# Velocity S-wave (km/s) = 1.81038 3.54933 2.81738
# Velocity P-wave (km/s) = 4.38542 6.52645 5.55996
#
# Compressibility (1/GPa) = 0.02651707
#
# Stress axis : x y z
#
# Youngs Moduli (GPa) = 167.16792 30.46814 59.46596
#
# Poissons Ratio (x) = -0.04942 0.25717
# Poissons Ratio (y) = -0.27118 0.70460
# Poissons Ratio (z) = 0.72294 0.36101
#
# Static dielectric constant tensor:
#      x y z
#    x 2.147590 0.000000 0.002180 
#    y 0.000000 1.920810 0.000000 
#    z 0.002180 0.000000 2.000710 
# 
# From -- ./inp_files/39410.got.cif
#   From: 2010.05.17/outbox.cif.g08.bks.cpg/sg15_20_cif.got.tgz:39410.got - 2010.06.03 18:47:42.
