data_PCOD9261009
_publ_section_title
;
Structure prediction by ZEFSAII (Michael W. Deem and Ramdas Pophale) SiO2 
 PCOD9261009
Probable space group: C 2/C
;
_chemical_formula_sum "Si O2"
_cell_formula_units_Z 44
_cell_length_a 11.153867
_cell_length_b 13.029660
_cell_length_c 14.603530
_cell_angle_alpha 90.000000
_cell_angle_beta 58.602433
_cell_angle_gamma 90.000000
_cell_volume 1811.577928
_symmetry_space_group_name_H-M "C 2/C"
_symmetry_group_IT_number 15
_symmetry_cell_setting 'monoclinic'
loop_
_space_group_symop_operation_xyz
x,y,z
-x,y,1/2-z
-x,-y,-z
x,-y,1/2+z
1/2+x,1/2+y,z
1/2-x,1/2+y,1/2-z
1/2-x,1/2-y,-z
1/2+x,1/2-y,1/2+z
loop_
_atom_site_type_symbol
_atom_site_label
_atom_site_fract_x
_atom_site_fract_y
_atom_site_fract_z
Si Si1 0.881209 0.921447 0.224021
Si Si2 0.343424 0.971198 0.585311
Si Si3 0.574796 0.365942 0.889695
Si Si4 0.265523 0.358171 0.044528
Si Si5 0.867751 0.315449 0.743241
Si Si6 0.000000 0.285651 0.250000
O O1 0.895397 0.801063 0.202177
O O2 0.000000 0.948977 0.250000
O O3 0.733536 0.936364 0.333937
O O4 0.894489 0.015887 0.148654
O O5 0.265286 0.940610 0.522732
O O6 0.343519 0.879724 0.659979
O O7 0.500000 0.000000 0.500000
O O8 0.726449 0.325112 0.860943
O O9 0.541233 0.291484 0.816097
O O10 0.430301 0.363438 0.003590
O O11 0.137397 0.353693 0.168362
O O12 0.250000 0.250000 0.000000
O O13 0.000000 0.352604 0.750000
#
# Coordination Sequence:
#
# PCOD9261009 Si02
#       6
#     8   8   8   8   8   4
#     4  10  18  39  68  94 130 181 217 270 338 407
#     4  11  24  43  69  99 140 180 221 280 354 396
#     4  10  18  39  68  98 131 180 226 279 343 400
#     4  10  20  38  70 105 128 174 233 284 338 392
#     4  10  23  41  67 102 137 179 226 278 334 412
#     4  10  20  36  72 104 132 166 236 300 332 388
#
# _framework density 24.288217
#
# number of rings (size 3 to 8) (size 9 to 14) (size 15 to 20)
#    0.000    1.818    2.727    3.273    5.091    0.000 
#    1.636    5.455    0.000   10.909    0.000    0.000 
#    0.000    0.000    0.000    0.000    0.000    0.000 
#
# Total GULP energy -122972.762956 kJ/mol
# GULP energy per Si atom -5589.671043 kJ/mol
# Density = 2.423294 g / cm^3
# Si number density = 24.288217 Si / 1000 Ang^3
#
#
#
# Elastic Constant Matrix: (Units=GPa)
#
#
# Indices 1 2 3 4 5 6 
#
# 1 103.4274 -4.5618 55.8999 0.0000 -32.5150 0.0000
# 2 -4.5618 60.7195 16.4104 0.0000 6.0455 0.0000
# 3 55.8999 16.4104 145.4571 0.0000 -37.3902 0.0000
# 4 0.0000 0.0000 0.0000 19.1708 0.0000 -6.5083
# 5 -32.5150 6.0455 -37.3902 0.0000 55.8025 0.0000
# 6 0.0000 0.0000 0.0000 -6.5083 0.0000 33.1947
#
#
#
# Elastic Compliance Matrix: (Units=1/GPa)
#
#
# Indices 1 2 3 4 5 6 
#
# 1 0.013515 0.001633 -0.004107 0.000000 0.004947 0.000000
# 2 0.001633 0.017869 -0.003499 0.000000 -0.003329 0.000000
# 3 -0.004107 -0.003499 0.010064 0.000000 0.004729 0.000000
# 4 0.000000 0.000000 0.000000 0.055882 0.000000 0.010956
# 5 0.004947 -0.003329 0.004729 0.000000 0.024332 0.000000
# 6 0.000000 0.000000 0.000000 0.010956 0.000000 0.032273
#
#
# Mechanical properties :
#
#
# Convention : Reuss Voigt Hill
#
# Bulk Modulus (GPa) = 33.89647 49.45567 41.67607
# Shear Modulus (GPa) = 28.45506 37.75731 33.10619
#
# Velocity S-wave (km/s) = 3.42652 3.94706 3.69596
# Velocity P-wave (km/s) = 5.44435 6.41705 5.95061
#
# Compressibility (1/GPa) = 0.02950160
#
# Stress axis : x y z
#
# Youngs Moduli (GPa) = 73.99057 55.96274 99.36866
#
# Poissons Ratio (x) = -0.09137 0.40807
# Poissons Ratio (y) = -0.12081 0.34771
# Poissons Ratio (z) = 0.30385 0.19583
#
# Static dielectric constant tensor:
#      x y z
#    x 1.941320 0.000000 -0.001120 
#    y 0.000000 1.878700 0.000000 
#    z -0.001120 0.000000 1.985670 
# 
# From -- ./inp_files/197631.got.cif
#   From: 2010.05.17/outbox.cif.g08.bks.cpg/sg15_99_cif.got.tgz:197631.got - 2010.06.03 18:47:42.
