data_PCOD9261080
_publ_section_title
;
Structure prediction by ZEFSAII (Michael W. Deem and Ramdas Pophale) SiO2 
 PCOD9261080
Probable space group: C 2/C
;
_chemical_formula_sum "Si O2"
_cell_formula_units_Z 48
_cell_length_a 23.220862
_cell_length_b 4.834154
_cell_length_c 15.197650
_cell_angle_alpha 90.000000
_cell_angle_beta 83.974713
_cell_angle_gamma 90.000000
_cell_volume 1696.560761
_symmetry_space_group_name_H-M "C 2/C"
_symmetry_group_IT_number 15
_symmetry_cell_setting 'monoclinic'
loop_
_space_group_symop_operation_xyz
x,y,z
-x,y,1/2-z
-x,-y,-z
x,-y,1/2+z
1/2+x,1/2+y,z
1/2-x,1/2+y,1/2-z
1/2-x,1/2-y,-z
1/2+x,1/2-y,1/2+z
loop_
_atom_site_type_symbol
_atom_site_label
_atom_site_fract_x
_atom_site_fract_y
_atom_site_fract_z
Si Si1 0.000000 0.829202 0.750000
Si Si2 0.331465 0.515989 0.396138
Si Si3 0.940212 0.714967 0.383872
Si Si4 0.093065 0.059974 0.952775
Si Si5 0.619704 0.187657 0.784627
Si Si6 0.000000 0.500000 0.000000
Si Si7 0.769991 0.383872 0.693133
O O1 0.945658 0.632828 0.733980
O O2 0.028347 0.061822 0.679713
O O3 0.371359 0.239302 0.379296
O O4 0.354701 0.617279 0.486784
O O5 0.351825 0.689856 0.308407
O O6 0.263053 0.516266 0.389940
O O7 0.968622 0.429954 0.406114
O O8 0.052785 0.682647 0.442309
O O9 0.113558 0.913554 0.861901
O O10 0.054004 0.822557 0.011493
O O11 0.662749 0.957864 0.815217
O O12 0.758074 0.070855 0.723658
#
# Coordination Sequence:
#
# PCOD9261080 Si02
#       7
#     4   8   8   8   8   4   8
#     4  10  18  40  62  92 136 176 224 280 360 424
#     4   8  21  42  62  92 136 178 233 292 351 414
#     4   9  21  37  56  88 129 172 220 285 337 425
#     4  10  22  40  60  95 137 177 229 286 349 416
#     4  10  20  39  71  93 138 181 229 290 354 424
#     4  12  20  34  62  88 136 180 220 282 352 416
#     4  10  22  45  72 100 140 187 242 294 349 420
#
# _framework density 28.292532999999999
#
# number of rings (size 3 to 8) (size 9 to 14) (size 15 to 20)
#    1.000    1.333    1.667    0.500    0.000    3.333 
#    6.000    2.500    0.000   18.000    0.000    0.000 
#    0.000    0.000    0.000    0.000    0.000    0.000 
#
# Total GULP energy -133967.780396 kJ/mol
# GULP energy per Si atom -5581.990850 kJ/mol
# Density = 2.822814 g / cm^3
# Si number density = 28.292533 Si / 1000 Ang^3
#
#
#
# Elastic Constant Matrix: (Units=GPa)
#
#
# Indices 1 2 3 4 5 6 
#
# 1 173.5279 20.2601 48.7102 0.0000 43.9392 0.0000
# 2 20.2601 96.4865 22.3202 0.0000 -7.1676 0.0000
# 3 48.7102 22.3202 117.9466 0.0000 46.7014 0.0000
# 4 0.0000 0.0000 0.0000 34.2577 0.0000 6.6498
# 5 43.9392 -7.1676 46.7014 0.0000 67.2175 0.0000
# 6 0.0000 0.0000 0.0000 6.6498 0.0000 41.0060
#
#
#
# Elastic Compliance Matrix: (Units=1/GPa)
#
#
# Indices 1 2 3 4 5 6 
#
# 1 0.007314 -0.001609 -0.001042 0.000000 -0.004229 0.000000
# 2 -0.001609 0.011847 -0.003441 0.000000 0.004706 0.000000
# 3 -0.001042 -0.003441 0.013016 0.000000 -0.008729 0.000000
# 4 0.000000 0.000000 0.000000 0.030139 0.000000 -0.004888
# 5 -0.004229 0.004706 -0.008729 0.000000 0.024208 0.000000
# 6 0.000000 0.000000 0.000000 -0.004888 0.000000 0.025179
#
#
# Mechanical properties :
#
#
# Convention : Reuss Voigt Hill
#
# Bulk Modulus (GPa) = 50.01296 63.39357 56.70327
# Shear Modulus (GPa) = 38.29901 48.27427 43.28664
#
# Velocity S-wave (km/s) = 3.68323 4.13517 3.91572
# Velocity P-wave (km/s) = 5.98362 6.72715 6.36625
#
# Compressibility (1/GPa) = 0.01999482
#
# Stress axis : x y z
#
# Youngs Moduli (GPa) = 136.72834 84.40600 76.82768
#
# Poissons Ratio (x) = 0.13580 0.08002
# Poissons Ratio (y) = 0.21998 0.26435
# Poissons Ratio (z) = 0.14242 0.29042
#
# Static dielectric constant tensor:
#      x y z
#    x 5.000040 0.000000 1.726570 
#    y 0.000000 5.331120 0.000000 
#    z 1.726570 0.000000 3.582630 
# 
# From -- ./inp_files/217600.got.cif
#   From: 2010.05.17/outbox.cif.g08.bks.cpg/sg15_109_cif.got.tgz:217600.got - 2010.06.03 18:47:42.
