data_PCOD9261031
_publ_section_title
;
Structure prediction by ZEFSAII (Michael W. Deem and Ramdas Pophale) SiO2 
 PCOD9261031
Probable space group: C 2/C
;
_chemical_formula_sum "Si O2"
_cell_formula_units_Z 52
_cell_length_a 20.194093
_cell_length_b 30.401528
_cell_length_c 8.395883
_cell_angle_alpha 90.000000
_cell_angle_beta 33.962331
_cell_angle_gamma 90.000000
_cell_volume 2879.547077
_symmetry_space_group_name_H-M "C 2/C"
_symmetry_group_IT_number 15
_symmetry_cell_setting 'monoclinic'
loop_
_space_group_symop_operation_xyz
x,y,z
-x,y,1/2-z
-x,-y,-z
x,-y,1/2+z
1/2+x,1/2+y,z
1/2-x,1/2+y,1/2-z
1/2-x,1/2-y,-z
1/2+x,1/2-y,1/2+z
loop_
_atom_site_type_symbol
_atom_site_label
_atom_site_fract_x
_atom_site_fract_y
_atom_site_fract_z
Si Si1 0.768550 0.560802 0.946443
Si Si2 0.364912 0.135898 0.555126
Si Si3 0.867728 0.876158 0.577605
Si Si4 0.715413 0.799794 0.034095
Si Si5 0.631003 0.987505 0.946893
Si Si6 0.000000 0.667644 0.750000
Si Si7 0.331557 0.897849 0.779420
O O1 0.854553 0.598940 0.711741
O O2 0.774898 0.523832 0.797887
O O3 0.653961 0.587288 0.239183
O O4 0.823908 0.536560 0.986224
O O5 0.304462 0.177732 0.754291
O O6 0.310279 0.116167 0.503193
O O7 0.500000 0.145968 0.250000
O O8 0.784696 0.891722 0.597124
O O9 0.814411 0.830036 0.748752
O O10 0.000000 0.872843 0.250000
O O11 0.595736 0.805502 0.165214
O O12 0.750000 0.750000 0.000000
O O13 0.623918 0.947983 0.831288
O O14 0.500000 0.005500 0.250000
O O15 0.073870 0.635686 0.486172
#
# Coordination Sequence:
#
# PCOD9261031 Si02
#       7
#     8   8   8   8   8   4   8
#     4  10  21  32  51  82 115 151 191 240 279 337
#     4  11  19  34  57  85 116 146 185 231 298 342
#     4   9  21  42  58  74 116 160 197 230 289 337
#     4  10  22  39  60  87 113 146 188 242 286 348
#     4  11  18  30  51  85 120 145 189 236 292 336
#     4  10  18  40  58  84 120 148 178 234 292 340
#     4  10  19  34  60  84 114 157 185 227 292 342
#
# _framework density 18.058395000000001
#
# number of rings (size 3 to 8) (size 9 to 14) (size 15 to 20)
#    0.000    1.846    2.308    3.692    0.000    0.615 
#    2.769    6.923    0.000    0.000    0.000    0.000 
#    0.000    0.000    0.000    0.000    0.000    0.000 
#
# Total GULP energy -144962.989717 kJ/mol
# GULP energy per Si atom -5575.499604 kJ/mol
# Density = 1.801729 g / cm^3
# Si number density = 18.058395 Si / 1000 Ang^3
#
#
#
# Elastic Constant Matrix: (Units=GPa)
#
#
# Indices 1 2 3 4 5 6 
#
# 1 61.7654 33.3162 39.2067 0.0000 11.1631 0.0000
# 2 33.3162 129.6012 57.6046 0.0000 7.8139 0.0000
# 3 39.2067 57.6046 139.6967 0.0000 0.2385 0.0000
# 4 0.0000 0.0000 0.0000 14.1400 0.0000 2.9822
# 5 11.1631 7.8139 0.2385 0.0000 29.0655 0.0000
# 6 0.0000 0.0000 0.0000 2.9822 0.0000 27.8419
#
#
#
# Elastic Compliance Matrix: (Units=1/GPa)
#
#
# Indices 1 2 3 4 5 6 
#
# 1 0.022431 -0.003069 -0.005016 0.000000 -0.007749 0.000000
# 2 -0.003069 0.010054 -0.003282 0.000000 -0.001497 0.000000
# 3 -0.005016 -0.003282 0.009915 0.000000 0.002728 0.000000
# 4 0.000000 0.000000 0.000000 0.072356 0.000000 -0.007750
# 5 -0.007749 -0.001497 0.002728 0.000000 0.037761 0.000000
# 6 0.000000 0.000000 0.000000 -0.007750 0.000000 0.036747
#
#
# Mechanical properties :
#
#
# Convention : Reuss Voigt Hill
#
# Bulk Modulus (GPa) = 50.85354 65.70205 58.27779
# Shear Modulus (GPa) = 22.87768 27.60519 25.24144
#
# Velocity S-wave (km/s) = 3.56318 3.91405 3.74273
# Velocity P-wave (km/s) = 6.71938 7.54245 7.14278
#
# Compressibility (1/GPa) = 0.01966432
#
# Stress axis : x y z
#
# Youngs Moduli (GPa) = 44.58204 99.46334 100.85876
#
# Poissons Ratio (x) = 0.30529 0.50595
# Poissons Ratio (y) = 0.13684 0.33100
# Poissons Ratio (z) = 0.22364 0.32642
#
# Static dielectric constant tensor:
#      x y z
#    x 1.651250 0.000000 0.029700 
#    y 0.000000 1.640060 0.000000 
#    z 0.029700 0.000000 1.620590 
# 
# From -- ./inp_files/33620.got.cif
#   From: 2010.05.17/outbox.cif.g08.bks.cpg/sg15_17_cif.got.tgz:33620.got - 2010.06.03 18:47:42.
