data_PCOD9261068
_publ_section_title
;
Structure prediction by ZEFSAII (Michael W. Deem and Ramdas Pophale) SiO2 
 PCOD9261068
Probable space group: C 2/C
;
_chemical_formula_sum "Si O2"
_cell_formula_units_Z 44
_cell_length_a 14.149001
_cell_length_b 8.221188
_cell_length_c 14.085860
_cell_angle_alpha 90.000000
_cell_angle_beta 90.149232
_cell_angle_gamma 90.000000
_cell_volume 1638.484176
_symmetry_space_group_name_H-M "C 2/C"
_symmetry_group_IT_number 15
_symmetry_cell_setting 'monoclinic'
loop_
_space_group_symop_operation_xyz
x,y,z
-x,y,1/2-z
-x,-y,-z
x,-y,1/2+z
1/2+x,1/2+y,z
1/2-x,1/2+y,1/2-z
1/2-x,1/2-y,-z
1/2+x,1/2-y,1/2+z
loop_
_atom_site_type_symbol
_atom_site_label
_atom_site_fract_x
_atom_site_fract_y
_atom_site_fract_z
Si Si1 0.700514 0.056520 0.303320
Si Si2 0.314971 0.315463 0.638055
Si Si3 0.041260 0.634558 0.429743
Si Si4 0.410178 0.584776 0.950477
Si Si5 0.353162 0.254409 0.891067
Si Si6 0.500000 0.762583 0.250000
O O1 0.740796 0.075884 0.196823
O O2 0.592296 0.080210 0.334655
O O3 0.749302 0.218889 0.351135
O O4 0.715533 0.873608 0.347035
O O5 0.332595 0.370901 0.530225
O O6 0.420915 0.326233 0.684006
O O7 0.121963 0.709913 0.501718
O O8 0.000000 0.500000 0.500000
O O9 0.955040 0.754274 0.408151
O O10 0.500000 0.500000 0.000000
O O11 0.379484 0.446369 0.878878
O O12 0.426494 0.159333 0.824571
#
# Coordination Sequence:
#
# PCOD9261068 Si02
#       6
#     8   8   8   8   8   4
#     4  11  25  40  61  92 129 159 213 263 324 364
#     4  11  23  41  61  92 124 167 207 268 310 387
#     4  11  20  40  62  90 120 163 212 251 305 371
#     4  10  20  39  65  88 119 167 209 250 313 376
#     4  10  22  37  65  91 123 167 203 261 315 381
#     4  10  18  40  62  86 120 160 214 244 322 362
#
# _framework density 26.854088999999998
#
# number of rings (size 3 to 8) (size 9 to 14) (size 15 to 20)
#    0.000    1.455    5.455    0.545    5.091    0.727 
#    0.000    1.818    0.000    1.091    0.000    0.000 
#    0.000    0.000    0.000    0.000    0.000    0.000 
#
# Total GULP energy -122729.768937 kJ/mol
# GULP energy per Si atom -5578.625861 kJ/mol
# Density = 2.679297 g / cm^3
# Si number density = 26.854089 Si / 1000 Ang^3
#
#
#
# Elastic Constant Matrix: (Units=GPa)
#
#
# Indices 1 2 3 4 5 6 
#
# 1 86.9504 36.1245 54.9494 0.0000 -34.4258 0.0000
# 2 36.1245 126.0679 44.3052 0.0000 -30.1544 0.0000
# 3 54.9494 44.3052 165.7275 0.0000 -55.2599 0.0000
# 4 0.0000 0.0000 0.0000 46.9430 0.0000 -6.7647
# 5 -34.4258 -30.1544 -55.2599 0.0000 66.1444 0.0000
# 6 0.0000 0.0000 0.0000 -6.7647 0.0000 32.3580
#
#
#
# Elastic Compliance Matrix: (Units=1/GPa)
#
#
# Indices 1 2 3 4 5 6 
#
# 1 0.016425 -0.002442 -0.003207 0.000000 0.004756 0.000000
# 2 -0.002442 0.009515 -0.000986 0.000000 0.002243 0.000000
# 3 -0.003207 -0.000986 0.009224 0.000000 0.005587 0.000000
# 4 0.000000 0.000000 0.000000 0.021964 0.000000 0.004592
# 5 0.004756 0.002243 0.005587 0.000000 0.023284 0.000000
# 6 0.000000 0.000000 0.000000 0.004592 0.000000 0.031864
#
#
# Mechanical properties :
#
#
# Convention : Reuss Voigt Hill
#
# Bulk Modulus (GPa) = 45.67570 72.16711 58.92141
# Shear Modulus (GPa) = 37.63766 45.31354 41.47560
#
# Velocity S-wave (km/s) = 3.74781 4.11225 3.93425
# Velocity P-wave (km/s) = 5.98112 7.03417 6.52891
#
# Compressibility (1/GPa) = 0.02189348
#
# Stress axis : x y z
#
# Youngs Moduli (GPa) = 60.88181 105.09693 108.41117
#
# Poissons Ratio (x) = 0.25663 0.34772
# Poissons Ratio (y) = 0.14866 0.10692
# Poissons Ratio (z) = 0.19527 0.10365
#
# Static dielectric constant tensor:
#      x y z
#    x 2.294230 0.000000 0.104240 
#    y 0.000000 2.290970 0.000000 
#    z 0.104240 0.000000 2.090530 
# 
# From -- ./inp_files/202563.got.cif
#   From: 2010.05.17/outbox.cif.g08.bks.cpg/sg15_102_cif.got.tgz:202563.got - 2010.06.03 18:47:42.
