data_PCOD9261106
_publ_section_title
;
Structure prediction by ZEFSAII (Michael W. Deem and Ramdas Pophale) SiO2 
 PCOD9261106
Probable space group: C 2/C
;
_chemical_formula_sum "Si O2"
_cell_formula_units_Z 36
_cell_length_a 11.515870
_cell_length_b 13.572603
_cell_length_c 10.456133
_cell_angle_alpha 90.000000
_cell_angle_beta 82.007201
_cell_angle_gamma 90.000000
_cell_volume 1618.420763
_symmetry_space_group_name_H-M "C 2/C"
_symmetry_group_IT_number 15
_symmetry_cell_setting 'monoclinic'
loop_
_space_group_symop_operation_xyz
x,y,z
-x,y,1/2-z
-x,-y,-z
x,-y,1/2+z
1/2+x,1/2+y,z
1/2-x,1/2+y,1/2-z
1/2-x,1/2-y,-z
1/2+x,1/2-y,1/2+z
loop_
_atom_site_type_symbol
_atom_site_label
_atom_site_fract_x
_atom_site_fract_y
_atom_site_fract_z
Si Si1 0.792418 0.519073 0.420993
Si Si2 0.946209 0.693634 0.498013
Si Si3 0.500000 0.921117 0.250000
Si Si4 0.297105 0.170749 0.095847
Si Si5 0.108267 0.872253 0.829988
O O1 0.843561 0.624039 0.460755
O O2 0.886332 0.484161 0.301362
O O3 0.789674 0.437515 0.532414
O O4 0.665774 0.529369 0.376955
O O5 0.918643 0.804036 0.544083
O O6 0.979090 0.644300 0.629214
O O7 0.065726 0.689040 0.398209
O O8 0.212345 0.176254 0.229816
O O9 0.250000 0.250000 0.000000
O O10 0.000000 0.884093 0.750000
#
# Coordination Sequence:
#
# PCOD9261106 Si02
#       5
#     8   8   4   8   8
#     4  11  23  37  66  94 117 157 212 251 293 361
#     4  11  21  41  64  91 121 157 208 251 295 358
#     4  10  18  40  64  92 116 156 202 254 302 344
#     4  11  22  41  65  88 122 161 200 248 308 359
#     4  12  23  41  62  88 128 163 196 249 313 360
#
# _framework density 22.243907
#
# number of rings (size 3 to 8) (size 9 to 14) (size 15 to 20)
#    0.000    0.889    3.333    7.333    0.000    0.889 
#    0.000    0.000    0.000    0.000    0.000    0.000 
#    0.000    0.000    0.000    0.000    0.000    0.000 
#
# Total GULP energy -100669.163921 kJ/mol
# GULP energy per Si atom -5592.731329 kJ/mol
# Density = 2.219328 g / cm^3
# Si number density = 22.243907 Si / 1000 Ang^3
#
#
#
# Elastic Constant Matrix: (Units=GPa)
#
#
# Indices 1 2 3 4 5 6 
#
# 1 125.0728 33.7261 17.0724 0.0000 -4.5518 0.0000
# 2 33.7261 44.1492 -12.5755 0.0000 1.8517 0.0000
# 3 17.0724 -12.5755 39.5364 0.0000 -14.4266 0.0000
# 4 0.0000 0.0000 0.0000 9.3112 0.0000 1.8751
# 5 -4.5518 1.8517 -14.4266 0.0000 30.4620 0.0000
# 6 0.0000 0.0000 0.0000 1.8751 0.0000 33.6989
#
#
#
# Elastic Compliance Matrix: (Units=1/GPa)
#
#
# Indices 1 2 3 4 5 6 
#
# 1 0.012697 -0.012534 -0.010275 0.000000 -0.002207 0.000000
# 2 -0.012534 0.037465 0.019118 0.000000 0.004904 0.000000
# 3 -0.010275 0.019118 0.042103 0.000000 0.017242 0.000000
# 4 0.000000 0.000000 0.000000 0.108615 0.000000 -0.006044
# 5 -0.002207 0.004904 0.017242 0.000000 0.040366 0.000000
# 6 0.000000 0.000000 0.000000 -0.006044 0.000000 0.030011
#
#
# Mechanical properties :
#
#
# Convention : Reuss Voigt Hill
#
# Bulk Modulus (GPa) = 11.78070 31.68938 21.73504
# Shear Modulus (GPa) = 16.29027 26.06343 21.17685
#
# Velocity S-wave (km/s) = 2.70913 3.42674 3.08884
# Velocity P-wave (km/s) = 3.88503 5.47120 4.74486
#
# Compressibility (1/GPa) = 0.08488463
#
# Stress axis : x y z
#
# Youngs Moduli (GPa) = 78.75713 26.69152 23.75155
#
# Poissons Ratio (x) = 0.33454 0.24404
# Poissons Ratio (y) = 0.98712 -0.45409
# Poissons Ratio (z) = 0.80921 -0.51030
#
# Static dielectric constant tensor:
#      x y z
#    x 1.842910 0.000000 0.008460 
#    y 0.000000 1.843260 0.000000 
#    z 0.008460 0.000000 1.823860 
# 
# From -- ./inp_files/84350.got.cif
#   From: 2010.05.17/outbox.cif.g08.bks.cpg/sg15_43_cif.got.tgz:84350.got - 2010.06.03 18:47:42.
