data_PCOD9261163
_publ_section_title
;
Structure prediction by ZEFSAII (Michael W. Deem and Ramdas Pophale) SiO2 
 PCOD9261163
Probable space group: C 2/C
;
_chemical_formula_sum "Si O2"
_cell_formula_units_Z 36
_cell_length_a 21.965472
_cell_length_b 9.556979
_cell_length_c 13.349956
_cell_angle_alpha 90.000000
_cell_angle_beta 138.362822
_cell_angle_gamma 90.000000
_cell_volume 1861.992889
_symmetry_space_group_name_H-M "C 2/C"
_symmetry_group_IT_number 15
_symmetry_cell_setting 'monoclinic'
loop_
_space_group_symop_operation_xyz
x,y,z
-x,y,1/2-z
-x,-y,-z
x,-y,1/2+z
1/2+x,1/2+y,z
1/2-x,1/2+y,1/2-z
1/2-x,1/2-y,-z
1/2+x,1/2-y,1/2+z
loop_
_atom_site_type_symbol
_atom_site_label
_atom_site_fract_x
_atom_site_fract_y
_atom_site_fract_z
Si Si1 0.282248 0.120167 0.974134
Si Si2 0.500000 0.782618 0.250000
Si Si3 0.052639 0.532154 0.185559
Si Si4 0.380997 0.160734 0.893925
Si Si5 0.831557 0.156568 0.145654
O O1 0.306198 0.155955 0.889038
O O2 0.207323 0.998280 0.891047
O O3 0.250000 0.250000 0.000000
O O4 0.377522 0.069054 0.141046
O O5 0.414502 0.684869 0.170882
O O6 0.497143 0.892923 0.153646
O O7 0.113594 0.480226 0.167116
O O8 0.981958 0.653330 0.069016
O O9 0.361539 0.283005 0.790814
O O10 0.750000 0.250000 0.000000
#
# Coordination Sequence:
#
# PCOD9261163 Si02
#       5
#     8   4   8   8   8
#     4  12  25  42  64  98 139 175 217 279 339 405
#     4  10  18  40  68  94 130 172 228 276 324 396
#     4  10  19  41  68  96 125 181 220 271 330 409
#     4  10  21  38  71  93 126 173 227 265 332 397
#     4  11  22  41  68 100 129 175 226 278 326 404
#
# _framework density 19.334123000000002
#
# number of rings (size 3 to 8) (size 9 to 14) (size 15 to 20)
#    0.000    1.333    6.667    0.000    3.111    0.000 
#    4.000    1.111    0.000    0.000    0.000    0.000 
#    0.000    0.000    0.000    0.000    0.000    0.000 
#
# Total GULP energy -100336.995380 kJ/mol
# GULP energy per Si atom -5574.277521 kJ/mol
# Density = 1.929012 g / cm^3
# Si number density = 19.334123 Si / 1000 Ang^3
#
#
#
# Elastic Constant Matrix: (Units=GPa)
#
#
# Indices 1 2 3 4 5 6 
#
# 1 176.7028 72.5670 42.4578 0.0000 0.3580 0.0000
# 2 72.5670 122.8355 45.1060 0.0000 9.9504 0.0000
# 3 42.4578 45.1060 86.3020 0.0000 5.0071 0.0000
# 4 0.0000 0.0000 0.0000 33.2775 0.0000 -0.7693
# 5 0.3580 9.9504 5.0071 0.0000 31.3920 0.0000
# 6 0.0000 0.0000 0.0000 -0.7693 0.0000 13.2880
#
#
#
# Elastic Compliance Matrix: (Units=1/GPa)
#
#
# Indices 1 2 3 4 5 6 
#
# 1 0.007744 -0.004039 -0.001784 0.000000 0.001477 0.000000
# 2 -0.004039 0.012360 -0.004288 0.000000 -0.003188 0.000000
# 3 -0.001784 -0.004288 0.014763 0.000000 -0.000975 0.000000
# 4 0.000000 0.000000 0.000000 0.030091 0.000000 0.001742
# 5 0.001477 -0.003188 -0.000975 0.000000 0.033004 0.000000
# 6 0.000000 0.000000 0.000000 0.001742 0.000000 0.075356
#
#
# Mechanical properties :
#
#
# Convention : Reuss Voigt Hill
#
# Bulk Modulus (GPa) = 68.28852 78.45578 73.37215
# Shear Modulus (GPa) = 25.19888 30.63880 27.91884
#
# Velocity S-wave (km/s) = 3.61409 3.98515 3.80415
# Velocity P-wave (km/s) = 7.26722 7.86398 7.57148
#
# Compressibility (1/GPa) = 0.01464375
#
# Stress axis : x y z
#
# Youngs Moduli (GPa) = 129.13704 80.90670 67.73844
#
# Poissons Ratio (x) = 0.32679 0.12086
# Poissons Ratio (y) = 0.52160 0.29045
# Poissons Ratio (z) = 0.23041 0.34692
#
# Static dielectric constant tensor:
#      x y z
#    x 1.731350 0.000000 -0.005260 
#    y 0.000000 1.667930 0.000000 
#    z -0.005260 0.000000 1.723900 
# 
# From -- ./inp_files/159578.got.cif
#   From: 2010.05.17/outbox.cif.g08.bks.cpg/sg15_80_cif.got.tgz:159578.got - 2010.06.03 18:47:42.
