data_PCOD9261530
_publ_section_title
;
Structure prediction by ZEFSAII (Michael W. Deem and Ramdas Pophale) SiO2 
 PCOD9261530
Probable space group: C 2/C
;
_chemical_formula_sum "Si O2"
_cell_formula_units_Z 48
_cell_length_a 22.283816
_cell_length_b 14.538373
_cell_length_c 21.617256
_cell_angle_alpha 90.000000
_cell_angle_beta 21.351501
_cell_angle_gamma 90.000000
_cell_volume 2549.840133
_symmetry_space_group_name_H-M "C 2/C"
_symmetry_group_IT_number 15
_symmetry_cell_setting 'monoclinic'
loop_
_space_group_symop_operation_xyz
x,y,z
-x,y,1/2-z
-x,-y,-z
x,-y,1/2+z
1/2+x,1/2+y,z
1/2-x,1/2+y,1/2-z
1/2-x,1/2-y,-z
1/2+x,1/2-y,1/2+z
loop_
_atom_site_type_symbol
_atom_site_label
_atom_site_fract_x
_atom_site_fract_y
_atom_site_fract_z
Si Si1 0.023412 0.434044 0.546717
Si Si2 0.058664 0.146777 0.566286
Si Si3 0.687245 0.890977 0.274116
Si Si4 0.716514 0.321092 0.781647
Si Si5 0.487593 0.462396 0.582462
Si Si6 0.573849 0.824644 0.747045
O O1 0.956202 0.538559 0.611500
O O2 0.886596 0.366966 0.643534
O O3 0.029408 0.391810 0.608699
O O4 0.183957 0.424599 0.349653
O O5 0.101599 0.174231 0.453664
O O6 0.234739 0.147738 0.431945
O O7 0.943938 0.222847 0.706856
O O8 0.986040 0.044788 0.632105
O O9 0.700786 0.781761 0.271123
O O10 0.834605 0.914082 0.086281
O O11 0.651731 0.386397 0.789108
O O12 0.500000 0.500000 0.500000
O O13 0.500000 0.825543 0.750000
#
# Coordination Sequence:
#
# PCOD9261530 Si02
#       6
#     8   8   8   8   8   8
#     4  10  21  30  46  78 102 134 171 211 245 315
#     4  10  21  34  50  76 106 139 173 213 249 309
#     4  11  18  31  49  71 109 130 171 201 266 308
#     4  10  19  30  51  74 104 138 159 205 262 312
#     4  10  19  32  48  74 106 138 163 206 263 306
#     4  11  21  36  52  75 104 145 178 210 254 300
#
# _framework density 18.82471
#
# number of rings (size 3 to 8) (size 9 to 14) (size 15 to 20)
#    0.000    1.667    6.667    1.500    7.000    0.000 
#    0.000    0.000    0.000    0.000    0.000    2.333 
#    0.000    0.000    0.000    0.000    0.000    0.000 
#
# Total GULP energy -133665.057506 kJ/mol
# GULP energy per Si atom -5569.377396 kJ/mol
# Density = 1.878186 g / cm^3
# Si number density = 18.824710 Si / 1000 Ang^3
#
#
#
# Elastic Constant Matrix: (Units=GPa)
#
#
# Indices 1 2 3 4 5 6 
#
# 1 82.2959 60.9371 22.9554 -0.0007 -1.8502 0.0000
# 2 60.9371 140.2567 16.5064 -0.0071 -1.9108 0.0030
# 3 22.9554 16.5064 43.4390 -0.0089 -7.8830 0.0041
# 4 -0.0007 -0.0071 -0.0089 17.6990 0.0027 -1.7327
# 5 -1.8502 -1.9108 -7.8830 0.0027 19.7087 -0.0005
# 6 0.0000 0.0030 0.0041 -1.7327 -0.0005 13.4287
#
#
#
# Elastic Compliance Matrix: (Units=1/GPa)
#
#
# Indices 1 2 3 4 5 6 
#
# 1 0.020153 -0.007837 -0.008051 -0.000006 -0.002088 0.000004
# 2 -0.007837 0.010515 0.000213 0.000004 0.000369 -0.000002
# 3 -0.008051 0.000213 0.029179 0.000012 0.010936 -0.000007
# 4 -0.000006 0.000004 0.000012 0.057223 -0.000003 0.007384
# 5 -0.002088 0.000369 0.010936 -0.000003 0.054953 -0.000002
# 6 0.000004 -0.000002 -0.000007 0.007384 -0.000002 0.075420
#
#
# Mechanical properties :
#
#
# Convention : Reuss Voigt Hill
#
# Bulk Modulus (GPa) = 35.09155 51.86546 43.47851
# Shear Modulus (GPa) = 17.34360 21.20679 19.27520
#
# Velocity S-wave (km/s) = 3.03862 3.36004 3.20336
# Velocity P-wave (km/s) = 5.56710 6.53183 6.06867
#
# Compressibility (1/GPa) = 0.02849689
#
# Stress axis : x y z
#
# Youngs Moduli (GPa) = 49.62087 95.10609 34.27132
#
# Poissons Ratio (x) = 0.74532 0.27591
# Poissons Ratio (y) = 0.38887 -0.00729
# Poissons Ratio (z) = 0.39949 -0.02024
#
# Static dielectric constant tensor:
#      x y z
#    x 1.656780 0.000000 -0.083670 
#    y 0.000000 1.727300 0.000000 
#    z -0.083670 0.000000 1.815310 
# 
# From -- ./inp_files/252866.got.cif
#   From: 2010.05.17/outbox.cif.g08.bks.cpg/sg15_127_cif.got.tgz:252866.got - 2010.06.03 18:47:42.
