data_PCOD9261699
_publ_section_title
;
Structure prediction by ZEFSAII (Michael W. Deem and Ramdas Pophale) SiO2 
 PCOD9261699
Probable space group: C 2/C
;
_chemical_formula_sum "Si O2"
_cell_formula_units_Z 52
_cell_length_a 14.640093
_cell_length_b 13.688826
_cell_length_c 25.734414
_cell_angle_alpha 90.000000
_cell_angle_beta 153.770516
_cell_angle_gamma 90.000000
_cell_volume 2279.369190
_symmetry_space_group_name_H-M "C 2/C"
_symmetry_group_IT_number 15
_symmetry_cell_setting 'monoclinic'
loop_
_space_group_symop_operation_xyz
x,y,z
-x,y,1/2-z
-x,-y,-z
x,-y,1/2+z
1/2+x,1/2+y,z
1/2-x,1/2+y,1/2-z
1/2-x,1/2-y,-z
1/2+x,1/2-y,1/2+z
loop_
_atom_site_type_symbol
_atom_site_label
_atom_site_fract_x
_atom_site_fract_y
_atom_site_fract_z
Si Si1 0.353544 0.131055 0.529923
Si Si2 0.084886 0.820432 0.675900
Si Si3 0.899820 0.777610 0.011506
Si Si4 0.727121 0.735613 0.356569
Si Si5 0.000000 0.094949 0.750000
Si Si6 0.391425 0.043861 0.994946
Si Si7 0.051613 0.256352 0.700174
O O1 0.506402 0.207439 0.634199
O O2 0.300962 0.179021 0.446083
O O3 0.129709 0.124303 0.442917
O O4 0.451631 0.025387 0.572696
O O5 0.177470 0.834444 0.780992
O O6 0.263325 0.825450 0.723842
O O7 0.081736 0.803634 0.064207
O O8 0.975010 0.797171 0.108274
O O9 0.901054 0.658762 0.008244
O O10 0.658230 0.805290 0.884034
O O11 0.500000 0.781070 0.250000
O O12 0.851869 0.030219 0.640200
O O13 0.877639 0.170179 0.725116
O O14 0.500000 0.000000 0.000000
#
# Coordination Sequence:
#
# PCOD9261699 Si02
#       7
#     8   8   8   8   4   8   8
#     4  10  19  31  50  76 108 137 169 216 265 322
#     4   9  19  32  47  71 104 141 179 206 257 316
#     4   9  18  32  48  71 104 140 169 209 263 316
#     4   9  17  30  49  70 103 138 170 209 256 310
#     4  10  22  30  50  80 102 138 168 212 270 312
#     4  11  20  30  50  80 113 131 162 214 275 322
#     4   9  18  33  47  68 102 137 179 209 248 316
#
# _framework density 22.813329
#
# number of rings (size 3 to 8) (size 9 to 14) (size 15 to 20)
#    0.000    2.462    1.538    0.923    5.385    0.000 
#    0.000    0.000    0.000    0.000   10.000    1.077 
#    0.000    0.154    0.000    0.000    0.000    0.000 
#
# Total GULP energy -144840.699978 kJ/mol
# GULP energy per Si atom -5570.796153 kJ/mol
# Density = 2.276140 g / cm^3
# Si number density = 22.813329 Si / 1000 Ang^3
#
#
#
# Elastic Constant Matrix: (Units=GPa)
#
#
# Indices 1 2 3 4 5 6 
#
# 1 117.9142 16.9843 25.9749 0.0000 37.4577 0.0000
# 2 16.9843 35.0207 -0.3277 0.0008 -11.9760 -0.0001
# 3 25.9749 -0.3277 72.5223 0.0021 17.2547 -0.0006
# 4 0.0000 0.0008 0.0021 17.3437 -0.0002 -3.6816
# 5 37.4577 -11.9760 17.2547 -0.0002 57.8467 -0.0002
# 6 0.0000 -0.0001 -0.0006 -3.6816 -0.0002 22.4603
#
#
#
# Elastic Compliance Matrix: (Units=1/GPa)
#
#
# Indices 1 2 3 4 5 6 
#
# 1 0.013777 -0.010221 -0.002535 0.000001 -0.010281 0.000000
# 2 -0.010221 0.038462 0.000393 -0.000002 0.014464 0.000000
# 3 -0.002535 0.000393 0.015380 -0.000002 -0.002865 0.000000
# 4 0.000001 -0.000002 -0.000002 0.059736 0.000000 0.009792
# 5 -0.010281 0.014464 -0.002865 0.000000 0.027794 0.000000
# 6 0.000000 0.000000 0.000000 0.009792 0.000000 0.046128
#
#
# Mechanical properties :
#
#
# Convention : Reuss Voigt Hill
#
# Bulk Modulus (GPa) = 23.31331 34.52446 28.91888
# Shear Modulus (GPa) = 20.80728 31.71852 26.26290
#
# Velocity S-wave (km/s) = 3.02332 3.73279 3.39663
# Velocity P-wave (km/s) = 4.73589 5.80901 5.29968
#
# Compressibility (1/GPa) = 0.04289396
#
# Stress axis : x y z
#
# Youngs Moduli (GPa) = 72.58225 25.99996 65.01916
#
# Poissons Ratio (x) = 0.26576 0.16480
# Poissons Ratio (y) = 0.74189 -0.02558
# Poissons Ratio (z) = 0.18397 -0.01023
#
# Static dielectric constant tensor:
#      x y z
#    x 1.995100 0.000000 0.064490 
#    y 0.000000 1.838250 0.000000 
#    z 0.064490 0.000000 1.928090 
# 
# From -- ./inp_files/153369.got.cif
#   From: 2010.05.17/outbox.cif.g08.bks.cpg/sg15_77_cif.got.tgz:153369.got - 2010.06.03 18:47:42.
