data_PCOD9261396
_publ_section_title
;
Structure prediction by ZEFSAII (Michael W. Deem and Ramdas Pophale) SiO2 
 PCOD9261396
Probable space group: C 2/C
;
_chemical_formula_sum "Si O2"
_cell_formula_units_Z 56
_cell_length_a 24.712521
_cell_length_b 5.766948
_cell_length_c 23.756637
_cell_angle_alpha 90.000000
_cell_angle_beta 127.226819
_cell_angle_gamma 90.000000
_cell_volume 2695.850255
_symmetry_space_group_name_H-M "C 2/C"
_symmetry_group_IT_number 15
_symmetry_cell_setting 'monoclinic'
loop_
_space_group_symop_operation_xyz
x,y,z
-x,y,1/2-z
-x,-y,-z
x,-y,1/2+z
1/2+x,1/2+y,z
1/2-x,1/2+y,1/2-z
1/2-x,1/2-y,-z
1/2+x,1/2-y,1/2+z
loop_
_atom_site_type_symbol
_atom_site_label
_atom_site_fract_x
_atom_site_fract_y
_atom_site_fract_z
Si Si1 0.050970 0.579525 0.952860
Si Si2 0.266215 0.448374 0.055043
Si Si3 0.210047 0.425468 0.726471
Si Si4 0.658841 0.330570 0.094855
Si Si5 0.942211 0.192165 0.452574
Si Si6 0.202639 0.574686 0.345536
Si Si7 0.357398 0.840373 0.083881
O O1 0.072071 0.593650 0.901161
O O2 0.975453 0.651852 0.924364
O O3 0.103811 0.760370 0.014193
O O4 0.065341 0.340345 0.994873
O O5 0.271076 0.327331 0.118352
O O6 0.336672 0.578274 0.086570
O O7 0.250000 0.250000 0.000000
O O8 0.200999 0.603405 0.999730
O O9 0.246849 0.678217 0.745435
O O10 0.165728 0.377904 0.643364
O O11 0.173743 0.425113 0.764531
O O12 0.626186 0.555427 0.104587
O O13 0.731293 0.408321 0.116454
O O14 0.000000 0.000000 0.500000
O O15 0.156265 0.482251 0.367229
#
# Coordination Sequence:
#
# PCOD9261396 Si02
#       7
#     8   8   8   8   8   8   8
#     4  10  19  33  56  81 112 147 189 239 299 348
#     4   9  17  28  45  74 109 148 175 216 282 345
#     4  10  24  37  56  84 117 159 196 234 283 350
#     4  10  20  34  55  78 116 150 190 240 285 348
#     4   9  20  35  52  81 107 144 191 239 288 344
#     4  10  21  33  50  80 117 148 186 228 289 354
#     4  10  19  29  49  80 112 146 178 230 290 352
#
# _framework density 20.772667999999999
#
# number of rings (size 3 to 8) (size 9 to 14) (size 15 to 20)
#    0.000    2.286    0.000    3.429   10.000    3.429 
#    0.000    0.000    0.000    0.000    0.000   24.000 
#    0.000    0.000    0.000    0.000    0.000    0.000 
#
# Total GULP energy -155927.578716 kJ/mol
# GULP energy per Si atom -5568.842097 kJ/mol
# Density = 2.072539 g / cm^3
# Si number density = 20.772668 Si / 1000 Ang^3
#
#
#
# Elastic Constant Matrix: (Units=GPa)
#
#
# Indices 1 2 3 4 5 6 
#
# 1 119.6731 26.8363 27.5264 0.0000 -35.8303 0.0011
# 2 26.8363 81.0055 4.0389 -0.0003 -5.2198 0.0059
# 3 27.5264 4.0389 26.1672 0.0001 -21.5230 0.0004
# 4 0.0000 -0.0003 0.0001 26.3376 0.0001 1.8563
# 5 -35.8303 -5.2198 -21.5230 0.0001 24.9589 -0.0003
# 6 0.0011 0.0059 0.0004 1.8563 -0.0003 28.6085
#
#
#
# Elastic Compliance Matrix: (Units=1/GPa)
#
#
# Indices 1 2 3 4 5 6 
#
# 1 0.016088 -0.003854 0.006896 0.000000 0.028237 0.000000
# 2 -0.003854 0.013441 -0.000891 0.000000 -0.003491 -0.000003
# 3 0.006896 -0.000891 0.134460 -0.000001 0.125664 -0.000001
# 4 0.000000 0.000000 -0.000001 0.038143 -0.000002 -0.002475
# 5 0.028237 -0.003491 0.125664 -0.000002 0.188237 0.000000
# 6 0.000000 -0.000003 -0.000001 -0.002475 0.000000 0.035115
#
#
# Mechanical properties :
#
#
# Convention : Reuss Voigt Hill
#
# Bulk Modulus (GPa) = 5.94210 38.18323 22.06266
# Shear Modulus (GPa) = 10.47603 27.21060 18.84331
#
# Velocity S-wave (km/s) = 2.24814 3.62321 3.01511
# Velocity P-wave (km/s) = 3.09929 5.99374 4.77130
#
# Compressibility (1/GPa) = 0.16829076
#
# Stress axis : x y z
#
# Youngs Moduli (GPa) = 62.15700 74.39800 7.43715
#
# Poissons Ratio (x) = 0.28675 -0.05129
# Poissons Ratio (y) = 0.23957 0.00663
# Poissons Ratio (z) = -0.42864 0.06631
#
# Static dielectric constant tensor:
#      x y z
#    x 1.822050 0.000000 -0.012140 
#    y 0.000000 1.874810 0.000000 
#    z -0.012140 0.000000 1.748660 
# 
# From -- ./inp_files/281034.got.cif
#   From: 2010.05.17/outbox.cif.g08.bks.cpg/sg15_141_cif.got.tgz:281034.got - 2010.06.03 18:47:42.
