data_PCOD9261808
_publ_section_title
;
Structure prediction by ZEFSAII (Michael W. Deem and Ramdas Pophale) SiO2 
 PCOD9261808
Probable space group: C 2/C
;
_chemical_formula_sum "Si O2"
_cell_formula_units_Z 52
_cell_length_a 25.639090
_cell_length_b 8.490940
_cell_length_c 14.652124
_cell_angle_alpha 90.000000
_cell_angle_beta 39.189152
_cell_angle_gamma 90.000000
_cell_volume 2015.558182
_symmetry_space_group_name_H-M "C 2/C"
_symmetry_group_IT_number 15
_symmetry_cell_setting 'monoclinic'
loop_
_space_group_symop_operation_xyz
x,y,z
-x,y,1/2-z
-x,-y,-z
x,-y,1/2+z
1/2+x,1/2+y,z
1/2-x,1/2+y,1/2-z
1/2-x,1/2-y,-z
1/2+x,1/2-y,1/2+z
loop_
_atom_site_type_symbol
_atom_site_label
_atom_site_fract_x
_atom_site_fract_y
_atom_site_fract_z
Si Si1 0.944468 0.846508 0.561880
Si Si2 0.346685 0.799578 0.482102
Si Si3 0.418691 0.272959 0.405412
Si Si4 0.500000 0.960647 0.250000
Si Si5 0.889356 0.693707 0.139239
Si Si6 0.197299 0.368823 0.217362
Si Si7 0.237868 0.623995 0.880751
O O1 0.906746 0.868503 0.512770
O O2 0.866929 0.771115 0.718786
O O3 0.015742 0.713239 0.465271
O O4 0.000000 0.000000 0.500000
O O5 0.427596 0.845835 0.315291
O O6 0.379072 0.792551 0.543427
O O7 0.285473 0.654390 0.549158
O O8 0.287145 0.950771 0.556504
O O9 0.500000 0.346527 0.250000
O O10 0.329667 0.242208 0.482256
O O11 0.451906 0.091231 0.376930
O O12 0.848722 0.533571 0.230609
O O13 0.832403 0.829295 0.261112
O O14 0.218366 0.361649 0.297887
#
# Coordination Sequence:
#
# PCOD9261808 Si02
#       7
#     8   8   8   4   8   8   8
#     4  11  21  34  56  84 109 140 184 238 279 316
#     4   9  16  31  55  80 107 146 185 227 264 331
#     4   8  17  34  56  79 106 144 185 221 269 339
#     4   8  16  32  58  78 110 152 192 210 272 334
#     4  10  19  31  54  82 112 137 185 235 277 313
#     4   9  18  30  50  79 111 141 178 226 277 319
#     4   8  15  30  52  78 101 142 186 220 263 324
#
# _framework density 25.799306000000001
#
# number of rings (size 3 to 8) (size 9 to 14) (size 15 to 20)
#    0.462    2.462    0.000    2.308    0.000    3.692 
#    0.000    0.769    6.769    1.846    0.000    0.000 
#    0.000    0.000    0.000    0.000    0.000    0.000 
#
# Total GULP energy -144931.483254 kJ/mol
# GULP energy per Si atom -5574.287817 kJ/mol
# Density = 2.574059 g / cm^3
# Si number density = 25.799306 Si / 1000 Ang^3
#
#
#
# Elastic Constant Matrix: (Units=GPa)
#
#
# Indices 1 2 3 4 5 6 
#
# 1 49.7191 0.8980 4.3363 0.0006 0.7832 -0.0001
# 2 0.8980 60.7055 6.8268 0.0056 -14.5236 -0.0030
# 3 4.3363 6.8268 118.3166 0.0030 -41.7898 -0.0015
# 4 0.0006 0.0056 0.0030 35.6977 -0.0011 -16.0769
# 5 0.7832 -14.5236 -41.7898 -0.0011 34.6656 0.0003
# 6 -0.0001 -0.0030 -0.0015 -16.0769 0.0003 20.2514
#
#
#
# Elastic Compliance Matrix: (Units=1/GPa)
#
#
# Indices 1 2 3 4 5 6 
#
# 1 0.020321 -0.000789 -0.001703 0.000000 -0.002843 0.000000
# 2 -0.000789 0.018920 0.003036 -0.000002 0.011604 0.000001
# 3 -0.001703 0.003036 0.015329 -0.000001 0.019790 0.000001
# 4 0.000000 -0.000002 -0.000001 0.043602 -0.000001 0.034614
# 5 -0.002843 0.011604 0.019790 -0.000001 0.057630 0.000001
# 6 0.000000 0.000001 0.000001 0.034614 0.000001 0.076859
#
#
# Mechanical properties :
#
#
# Convention : Reuss Voigt Hill
#
# Bulk Modulus (GPa) = 17.96770 28.09593 23.03181
# Shear Modulus (GPa) = 19.99000 32.56826 26.27913
#
# Velocity S-wave (km/s) = 2.78659 3.55684 3.19501
# Velocity P-wave (km/s) = 4.16329 5.27086 4.74947
#
# Compressibility (1/GPa) = 0.05565544
#
# Stress axis : x y z
#
# Youngs Moduli (GPa) = 49.21107 52.85546 65.23606
#
# Poissons Ratio (x) = 0.04172 0.11113
# Poissons Ratio (y) = 0.03884 -0.19805
# Poissons Ratio (z) = 0.08383 -0.16047
#
# Static dielectric constant tensor:
#      x y z
#    x 2.057230 0.000000 0.074020 
#    y 0.000000 2.077320 0.000000 
#    z 0.074020 0.000000 2.102910 
# 
# From -- ./inp_files/258822.got.cif
#   From: 2010.05.17/outbox.cif.g08.bks.cpg/sg15_130_cif.got.tgz:258822.got - 2010.06.03 18:47:42.
