data_PCOD9261165
_publ_section_title
;
Structure prediction by ZEFSAII (Michael W. Deem and Ramdas Pophale) SiO2 
 PCOD9261165
Probable space group: C 2/C
;
_chemical_formula_sum "Si O2"
_cell_formula_units_Z 44
_cell_length_a 20.273386
_cell_length_b 4.890520
_cell_length_c 17.920186
_cell_angle_alpha 90.000000
_cell_angle_beta 72.825457
_cell_angle_gamma 90.000000
_cell_volume 1697.514399
_symmetry_space_group_name_H-M "C 2/C"
_symmetry_group_IT_number 15
_symmetry_cell_setting 'monoclinic'
loop_
_space_group_symop_operation_xyz
x,y,z
-x,y,1/2-z
-x,-y,-z
x,-y,1/2+z
1/2+x,1/2+y,z
1/2-x,1/2+y,1/2-z
1/2-x,1/2-y,-z
1/2+x,1/2-y,1/2+z
loop_
_atom_site_type_symbol
_atom_site_label
_atom_site_fract_x
_atom_site_fract_y
_atom_site_fract_z
Si Si1 0.000000 0.928836 0.250000
Si Si2 0.328852 0.422792 0.134958
Si Si3 0.974998 0.093577 0.102977
Si Si4 0.099426 0.746760 0.998803
Si Si5 0.704491 0.555463 0.185637
Si Si6 0.126394 0.563370 0.148881
O O1 0.061352 0.723535 0.205726
O O2 0.015261 0.129855 0.313527
O O3 0.410602 0.380887 0.121303
O O4 0.303520 0.551699 0.221816
O O5 0.280190 0.165256 0.140277
O O6 0.333978 0.606741 0.058906
O O7 0.944658 0.332021 0.060742
O O8 0.046133 0.972652 0.049323
O O9 0.116152 0.556624 0.062735
O O10 0.687690 0.265817 0.154801
O O11 0.648652 0.770819 0.172319
#
# Coordination Sequence:
#
# PCOD9261165 Si02
#       6
#     4   8   8   8   8   8
#     4  10  18  40  68  96 138 170 234 278 328 406
#     4  10  21  41  66 100 137 180 224 284 330 414
#     4   8  16  37  69  99 131 185 222 287 333 397
#     4   8  18  40  69  98 139 173 232 281 344 387
#     4  12  25  42  69 100 138 180 227 269 346 404
#     4  11  24  43  67 103 132 182 223 280 337 406
#
# _framework density 25.920252000000001
#
# number of rings (size 3 to 8) (size 9 to 14) (size 15 to 20)
#    1.091    1.091    1.818    1.091    0.000    2.182 
#    0.000    5.455    0.000    8.727    0.000    0.000 
#    0.000    0.000    0.000    0.000    0.000    0.000 
#
# Total GULP energy -122924.106918 kJ/mol
# GULP energy per Si atom -5587.459405 kJ/mol
# Density = 2.586126 g / cm^3
# Si number density = 25.920252 Si / 1000 Ang^3
#
#
#
# Elastic Constant Matrix: (Units=GPa)
#
#
# Indices 1 2 3 4 5 6 
#
# 1 111.6524 21.3086 43.4433 0.0000 -14.5719 0.0000
# 2 21.3086 86.0361 37.2134 0.0002 -1.7589 0.0002
# 3 43.4433 37.2134 143.3804 0.0000 15.0813 0.0001
# 4 0.0000 0.0002 0.0000 23.5018 0.0000 -6.2261
# 5 -14.5719 -1.7589 15.0813 0.0000 64.5563 0.0000
# 6 0.0000 0.0002 0.0001 -6.2261 0.0000 -12.1111
#
#
#
# Elastic Compliance Matrix: (Units=1/GPa)
#
#
# Indices 1 2 3 4 5 6 
#
# 1 0.010898 -0.001194 -0.003329 0.000000 0.003205 0.000000
# 2 -0.001194 0.013312 -0.003181 0.000000 0.000836 0.000000
# 3 -0.003329 -0.003181 0.009121 0.000000 -0.002969 0.000000
# 4 0.000000 0.000000 0.000000 0.037450 0.000000 -0.019252
# 5 0.003205 0.000836 -0.002969 0.000000 0.016930 0.000000
# 6 0.000000 0.000000 0.000000 -0.019252 0.000000 -0.072672
#
#
# Mechanical properties :
#
#
# Convention : Reuss Voigt Hill
#
# Bulk Modulus (GPa) = 55.79591 60.55552 58.17571
# Shear Modulus (GPa) = 137.28051 31.12962 84.20506
#
# Velocity S-wave (km/s) = 7.28544 3.46927 5.70585
# Velocity P-wave (km/s) = 9.60952 6.28178 8.11799
#
# Compressibility (1/GPa) = 0.01792246
#
# Stress axis : x y z
#
# Youngs Moduli (GPa) = 91.76081 75.12159 109.63442
#
# Poissons Ratio (x) = 0.08966 0.36501
# Poissons Ratio (y) = 0.10952 0.34878
# Poissons Ratio (z) = 0.30551 0.23899
#
# Static dielectric constant tensor:
#      x y z
#    x 2.081100 0.000000 0.019000 
#    y 0.000000 1.999900 0.000000 
#    z 0.019000 0.000000 2.050910 
# 
# From -- ./inp_files/250615.got.cif
#   From: 2010.05.17/outbox.cif.g08.bks.cpg/sg15_126_cif.got.tgz:250615.got - 2010.06.03 18:47:42.
