data_PCOD9261310
_publ_section_title
;
Structure prediction by ZEFSAII (Michael W. Deem and Ramdas Pophale) SiO2 
 PCOD9261310
Probable space group: C 2/C
;
_chemical_formula_sum "Si O2"
_cell_formula_units_Z 40
_cell_length_a 6.973660
_cell_length_b 28.285533
_cell_length_c 11.301238
_cell_angle_alpha 90.000000
_cell_angle_beta 43.426548
_cell_angle_gamma 90.000000
_cell_volume 1532.413285
_symmetry_space_group_name_H-M "C 2/C"
_symmetry_group_IT_number 15
_symmetry_cell_setting 'monoclinic'
loop_
_space_group_symop_operation_xyz
x,y,z
-x,y,1/2-z
-x,-y,-z
x,-y,1/2+z
1/2+x,1/2+y,z
1/2-x,1/2+y,1/2-z
1/2-x,1/2-y,-z
1/2+x,1/2-y,1/2+z
loop_
_atom_site_type_symbol
_atom_site_label
_atom_site_fract_x
_atom_site_fract_y
_atom_site_fract_z
Si Si1 0.967330 0.191713 0.017655
Si Si2 0.704656 0.458979 0.882608
Si Si3 0.217436 0.364295 0.297418
Si Si4 0.413369 0.203626 0.100520
Si Si5 0.006190 0.444694 0.962564
O O1 0.684692 0.195966 0.064215
O O2 0.848939 0.188221 0.202770
O O3 0.112237 0.241765 0.924174
O O4 0.167284 0.150073 0.882276
O O5 0.759915 0.430082 0.977743
O O6 0.000000 0.485902 0.750000
O O7 0.724020 0.435766 0.744548
O O8 0.500000 0.500000 0.000000
O O9 0.500000 0.360943 0.250000
O O10 0.002552 0.325905 0.446436
O O11 0.062361 0.413565 0.393342
O O12 0.000000 0.500000 0.000000
#
# Coordination Sequence:
#
# PCOD9261310 Si02
#       5
#     8   8   8   8   8
#     4   9  15  24  41  58  95 134 177 215 267 335
#     4   8  20  36  56  78 104 149 194 241 287 336
#     4  10  19  27  45  70  97 142 188 221 278 343
#     4   9  15  25  37  62  93 133 176 218 266 331
#     4   9  21  34  53  76 108 146 193 238 285 333
#
# _framework density 26.102619000000001
#
# number of rings (size 3 to 8) (size 9 to 14) (size 15 to 20)
#    1.200    1.600    2.000    0.000    2.800    6.400 
#    0.000    0.000    0.000    0.000    0.000    0.000 
#    0.000    0.000    0.000   25.200    0.000    5.000 
#
# Total GULP energy -111494.888125 kJ/mol
# GULP energy per Si atom -5574.744406 kJ/mol
# Density = 2.604321 g / cm^3
# Si number density = 26.102619 Si / 1000 Ang^3
#
#
#
# Elastic Constant Matrix: (Units=GPa)
#
#
# Indices 1 2 3 4 5 6 
#
# 1 85.3111 4.9231 29.9732 0.0000 25.0613 0.0000
# 2 4.9231 140.0621 88.9346 0.0000 5.0744 0.0000
# 3 29.9732 88.9346 230.7373 0.0000 12.1561 0.0000
# 4 0.0000 0.0000 0.0000 56.3022 0.0000 -2.0679
# 5 25.0613 5.0744 12.1561 0.0000 37.6427 0.0000
# 6 0.0000 0.0000 0.0000 -2.0679 0.0000 14.0235
#
#
#
# Elastic Compliance Matrix: (Units=1/GPa)
#
#
# Indices 1 2 3 4 5 6 
#
# 1 0.015136 0.000984 -0.001839 0.000000 -0.009616 0.000000
# 2 0.000984 0.009518 -0.003758 0.000000 -0.000724 0.000000
# 3 -0.001839 -0.003758 0.006033 0.000000 -0.000217 0.000000
# 4 0.000000 0.000000 0.000000 0.017858 0.000000 0.002633
# 5 -0.009616 -0.000724 -0.000217 0.000000 0.033135 0.000000
# 6 0.000000 0.000000 0.000000 0.002633 0.000000 0.071697
#
#
# Mechanical properties :
#
#
# Convention : Reuss Voigt Hill
#
# Bulk Modulus (GPa) = 46.59771 78.19692 62.39732
# Shear Modulus (GPa) = 29.45405 43.74566 36.59986
#
# Velocity S-wave (km/s) = 3.36280 4.09823 3.74860
# Velocity P-wave (km/s) = 5.74181 7.23993 6.53395
#
# Compressibility (1/GPa) = 0.02146028
#
# Stress axis : x y z
#
# Youngs Moduli (GPa) = 66.06831 105.06846 165.76183
#
# Poissons Ratio (x) = -0.10338 0.30481
# Poissons Ratio (y) = -0.06501 0.62295
# Poissons Ratio (z) = 0.12149 0.39486
#
# Static dielectric constant tensor:
#      x y z
#    x 2.271980 0.000000 0.096220 
#    y 0.000000 1.994140 0.000000 
#    z 0.096220 0.000000 2.124710 
# 
# From -- ./inp_files/148324.got.cif
#   From: 2010.05.17/outbox.cif.g08.bks.cpg/sg15_75_cif.got.tgz:148324.got - 2010.06.03 18:47:42.
