data_PCOD9261978
_publ_section_title
;
Structure prediction by ZEFSAII (Michael W. Deem and Ramdas Pophale) SiO2 
 PCOD9261978
Probable space group: C 2/C
;
_chemical_formula_sum "Si O2"
_cell_formula_units_Z 48
_cell_length_a 15.078698
_cell_length_b 14.638930
_cell_length_c 7.983082
_cell_angle_alpha 90.000000
_cell_angle_beta 80.675154
_cell_angle_gamma 90.000000
_cell_volume 1738.867725
_symmetry_space_group_name_H-M "C 2/C"
_symmetry_group_IT_number 15
_symmetry_cell_setting 'monoclinic'
loop_
_space_group_symop_operation_xyz
x,y,z
-x,y,1/2-z
-x,-y,-z
x,-y,1/2+z
1/2+x,1/2+y,z
1/2-x,1/2+y,1/2-z
1/2-x,1/2-y,-z
1/2+x,1/2-y,1/2+z
loop_
_atom_site_type_symbol
_atom_site_label
_atom_site_fract_x
_atom_site_fract_y
_atom_site_fract_z
Si Si1 0.143108 0.412025 0.097800
Si Si2 0.394586 0.707300 0.430583
Si Si3 0.410133 0.890594 0.888005
Si Si4 0.301056 0.605534 0.756036
Si Si5 0.723880 0.592498 0.247163
Si Si6 0.061577 0.188858 0.560403
O O1 0.084816 0.500523 0.078002
O O2 0.193101 0.404894 0.263168
O O3 0.096256 0.316233 0.078644
O O4 0.226271 0.423924 0.946680
O O5 0.333481 0.681297 0.611899
O O6 0.343523 0.672914 0.281524
O O7 0.489341 0.660619 0.442718
O O8 0.500000 0.879438 0.750000
O O9 0.311029 0.887502 0.832159
O O10 0.413900 0.793984 0.981381
O O11 0.329286 0.501756 0.704027
O O12 0.348193 0.634149 0.915676
O O13 0.000000 0.182062 0.750000
#
# Coordination Sequence:
#
# PCOD9261978 Si02
#       6
#     8   8   8   8   8   8
#     4  10  19  33  55  79 104 137 173 211 261 313
#     4  10  19  33  55  77 101 138 175 211 257 312
#     4  10  20  33  53  79 106 134 171 218 261 306
#     4   9  18  32  51  76 103 133 174 213 251 301
#     4  10  19  32  51  76 103 136 175 213 253 302
#     4   9  17  31  51  74 101 136 172 209 253 303
#
# _framework density 27.604168999999999
#
# number of rings (size 3 to 8) (size 9 to 14) (size 15 to 20)
#    0.000    2.333    0.000    6.000    0.000    3.333 
#    0.000    0.833    0.000   11.000    0.000    0.000 
#    0.000    0.000    0.000    0.000    0.000    0.000 
#
# Total GULP energy -134060.743825 kJ/mol
# GULP energy per Si atom -5585.864326 kJ/mol
# Density = 2.754134 g / cm^3
# Si number density = 27.604169 Si / 1000 Ang^3
#
#
#
# Elastic Constant Matrix: (Units=GPa)
#
#
# Indices 1 2 3 4 5 6 
#
# 1 145.7124 53.8855 42.9138 0.0000 34.6008 0.0000
# 2 53.8855 149.4844 32.3959 0.0000 22.6758 0.0000
# 3 42.9138 32.3959 76.9208 0.0000 39.6036 0.0000
# 4 0.0000 0.0000 0.0000 40.2661 0.0000 -12.2276
# 5 34.6008 22.6758 39.6036 0.0000 69.8284 0.0000
# 6 0.0000 0.0000 0.0000 -12.2276 0.0000 14.0502
#
#
#
# Elastic Compliance Matrix: (Units=1/GPa)
#
#
# Indices 1 2 3 4 5 6 
#
# 1 0.009099 -0.002310 -0.003063 0.000000 -0.002022 0.000000
# 2 -0.002310 0.007987 -0.001877 0.000000 -0.000385 0.000000
# 3 -0.003063 -0.001877 0.020346 0.000000 -0.009412 0.000000
# 4 0.000000 0.000000 0.000000 0.033756 0.000000 0.029377
# 5 -0.002022 -0.000385 -0.009412 0.000000 0.020785 0.000000
# 6 0.000000 0.000000 0.000000 0.029377 0.000000 0.096739
#
#
# Mechanical properties :
#
#
# Convention : Reuss Voigt Hill
#
# Bulk Modulus (GPa) = 43.60638 70.05644 56.83141
# Shear Modulus (GPa) = 23.71290 41.02379 32.36834
#
# Velocity S-wave (km/s) = 2.93411 3.85924 3.42802
# Velocity P-wave (km/s) = 5.22589 6.72996 6.02504
#
# Compressibility (1/GPa) = 0.02293243
#
# Stress axis : x y z
#
# Youngs Moduli (GPa) = 109.90249 125.19694 49.15073
#
# Poissons Ratio (x) = 0.28915 0.15054
# Poissons Ratio (y) = 0.25382 0.09228
# Poissons Ratio (z) = 0.33660 0.23506
#
# Static dielectric constant tensor:
#      x y z
#    x 2.138930 0.000000 -0.042170 
#    y 0.000000 2.096450 0.000000 
#    z -0.042170 0.000000 2.382760 
# 
# From -- ./inp_files/96332.got.cif
#   From: 2010.05.17/outbox.cif.g08.bks.cpg/sg15_49_cif.got.tgz:96332.got - 2010.06.03 18:47:42.
