data_PCOD9261928
_publ_section_title
;
Structure prediction by ZEFSAII (Michael W. Deem and Ramdas Pophale) SiO2 
 PCOD9261928
Probable space group: C 2/C
;
_chemical_formula_sum "Si O2"
_cell_formula_units_Z 48
_cell_length_a 13.580367
_cell_length_b 31.817319
_cell_length_c 9.959718
_cell_angle_alpha 90.000000
_cell_angle_beta 31.911997
_cell_angle_gamma 90.000000
_cell_volume 2274.901024
_symmetry_space_group_name_H-M "C 2/C"
_symmetry_group_IT_number 15
_symmetry_cell_setting 'monoclinic'
loop_
_space_group_symop_operation_xyz
x,y,z
-x,y,1/2-z
-x,-y,-z
x,-y,1/2+z
1/2+x,1/2+y,z
1/2-x,1/2+y,1/2-z
1/2-x,1/2-y,-z
1/2+x,1/2-y,1/2+z
loop_
_atom_site_type_symbol
_atom_site_label
_atom_site_fract_x
_atom_site_fract_y
_atom_site_fract_z
Si Si1 0.632700 0.487066 0.723158
Si Si2 0.752772 0.641563 0.758047
Si Si3 0.775059 0.394423 0.518221
Si Si4 0.813719 0.639757 0.242768
Si Si5 0.290362 0.424963 0.431724
Si Si6 0.223581 0.298235 0.492833
O O1 0.500000 0.483051 0.750000
O O2 0.727581 0.441909 0.617928
O O3 0.761056 0.527612 0.547095
O O4 0.500000 0.500000 0.000000
O O5 0.694515 0.622797 0.970330
O O6 0.723179 0.604560 0.682974
O O7 0.693343 0.683465 0.742758
O O8 0.971985 0.651176 0.528846
O O9 0.715461 0.366360 0.714479
O O10 0.000000 0.393011 0.250000
O O11 0.824350 0.596701 0.316629
O O12 0.713399 0.672651 0.456020
O O13 0.500000 0.425363 0.250000
O O14 0.250000 0.250000 0.500000
O O15 0.000000 0.305462 0.750000
#
# Coordination Sequence:
#
# PCOD9261928 Si02
#       6
#     8   8   8   8   8   8
#     4  11  22  35  49  73 110 145 177 223 271 307
#     4   9  19  35  54  76 103 134 171 219 262 304
#     4  10  20  35  55  77 103 141 184 219 260 314
#     4   9  19  35  53  75 103 134 170 216 263 307
#     4  10  19  32  50  72 100 140 180 213 255 309
#     4   9  18  34  55  77 102 130 166 212 262 317
#
# _framework density 21.099819
#
# number of rings (size 3 to 8) (size 9 to 14) (size 15 to 20)
#    0.000    2.333    0.000    4.500    0.000    4.000 
#    0.000    5.000    0.000    0.000    0.000    0.000 
#    0.000    0.000    0.000    0.000    0.000    0.000 
#
# Total GULP energy -133793.218944 kJ/mol
# GULP energy per Si atom -5574.717456 kJ/mol
# Density = 2.105180 g / cm^3
# Si number density = 21.099819 Si / 1000 Ang^3
#
#
#
# Elastic Constant Matrix: (Units=GPa)
#
#
# Indices 1 2 3 4 5 6 
#
# 1 105.3557 37.0952 39.1690 0.0000 45.1667 0.0000
# 2 37.0952 144.5398 37.2593 0.0000 34.5852 0.0000
# 3 39.1690 37.2593 90.6033 0.0000 34.3154 0.0000
# 4 0.0000 0.0000 0.0000 7.5094 0.0000 -5.5384
# 5 45.1667 34.5852 34.3154 0.0000 50.9094 0.0000
# 6 0.0000 0.0000 0.0000 -5.5384 0.0000 27.0915
#
#
#
# Elastic Compliance Matrix: (Units=1/GPa)
#
#
# Indices 1 2 3 4 5 6 
#
# 1 0.015631 -0.000610 -0.001895 0.000000 -0.012176 0.000000
# 2 -0.000610 0.008487 -0.001675 0.000000 -0.004095 0.000000
# 3 -0.001895 -0.001675 0.015412 0.000000 -0.007569 0.000000
# 4 0.000000 0.000000 0.000000 0.156809 0.000000 0.032057
# 5 -0.012176 -0.004095 -0.007569 0.000000 0.038329 0.000000
# 6 0.000000 0.000000 0.000000 0.032057 0.000000 0.043466
#
#
# Mechanical properties :
#
#
# Convention : Reuss Voigt Hill
#
# Bulk Modulus (GPa) = 32.08267 63.06064 47.57166
# Shear Modulus (GPa) = 16.84161 32.23374 24.53768
#
# Velocity S-wave (km/s) = 2.82829 3.91279 3.41388
# Velocity P-wave (km/s) = 5.08958 7.09683 6.17530
#
# Compressibility (1/GPa) = 0.03116948
#
# Stress axis : x y z
#
# Youngs Moduli (GPa) = 63.97614 117.83046 64.88405
#
# Poissons Ratio (x) = 0.07182 0.12296
# Poissons Ratio (y) = 0.03900 0.10871
# Poissons Ratio (z) = 0.12124 0.19742
#
# Static dielectric constant tensor:
#      x y z
#    x 1.814770 0.000000 -0.030170 
#    y 0.000000 1.792450 0.000000 
#    z -0.030170 0.000000 1.849090 
# 
# From -- ./inp_files/44396.got.cif
#   From: 2010.05.17/outbox.cif.g08.bks.cpg/sg15_23_cif.got.tgz:44396.got - 2010.06.03 18:47:42.
