data_PCOD9261058
_publ_section_title
;
Structure prediction by ZEFSAII (Michael W. Deem and Ramdas Pophale) SiO2 
 PCOD9261058
Probable space group: C 2/C
;
_chemical_formula_sum "Si O2"
_cell_formula_units_Z 48
_cell_length_a 13.397631
_cell_length_b 34.822707
_cell_length_c 5.818980
_cell_angle_alpha 90.000000
_cell_angle_beta 62.552201
_cell_angle_gamma 90.000000
_cell_volume 2409.195685
_symmetry_space_group_name_H-M "C 2/C"
_symmetry_group_IT_number 15
_symmetry_cell_setting 'monoclinic'
loop_
_space_group_symop_operation_xyz
x,y,z
-x,y,1/2-z
-x,-y,-z
x,-y,1/2+z
1/2+x,1/2+y,z
1/2-x,1/2+y,1/2-z
1/2-x,1/2-y,-z
1/2+x,1/2-y,1/2+z
loop_
_atom_site_type_symbol
_atom_site_label
_atom_site_fract_x
_atom_site_fract_y
_atom_site_fract_z
Si Si1 0.132671 0.103706 0.558526
Si Si2 0.219572 0.649526 0.776270
Si Si3 0.642581 0.209003 0.245696
Si Si4 0.867223 0.014094 0.931301
Si Si5 0.500000 0.837365 0.250000
Si Si6 0.000000 0.221428 0.750000
Si Si7 0.851803 0.179186 0.251319
O O1 0.220343 0.113614 0.668466
O O2 0.143980 0.058977 0.492052
O O3 0.161463 0.136272 0.340965
O O4 0.000000 0.109379 0.750000
O O5 0.112261 0.641185 0.724711
O O6 0.323353 0.671023 0.543088
O O7 0.173282 0.679646 0.010999
O O8 0.544649 0.189668 0.499681
O O9 0.600885 0.250199 0.213043
O O10 0.751958 0.208031 0.287200
O O11 0.000000 0.004452 0.750000
O O12 0.823420 0.006989 0.712845
O O13 0.041029 0.196886 0.488292
#
# Coordination Sequence:
#
# PCOD9261058 Si02
#       7
#     8   8   8   8   4   4   8
#     4  10  21  39  56  86 127 155 194 243 297 370
#     4  10  21  38  60  83 114 155 199 256 300 360
#     4  10  21  39  55  78 110 150 206 258 298 360
#     4   9  19  35  59  90 121 165 204 241 297 370
#     4  10  18  40  62  80 108 149 207 256 304 352
#     4  12  20  40  54  78 114 157 199 258 304 360
#     4  10  23  37  53  84 114 158 202 244 311 357
#
# _framework density 19.923660000000002
#
# number of rings (size 3 to 8) (size 9 to 14) (size 15 to 20)
#    0.000    2.000    2.500    0.500    2.333    1.333 
#    6.000    0.000    0.000    0.000    0.000    1.167 
#    0.000    0.000    0.000    0.000    0.000    0.000 
#
# Total GULP energy -133636.326886 kJ/mol
# GULP energy per Si atom -5568.180287 kJ/mol
# Density = 1.987831 g / cm^3
# Si number density = 19.923660 Si / 1000 Ang^3
#
#
#
# Elastic Constant Matrix: (Units=GPa)
#
#
# Indices 1 2 3 4 5 6 
#
# 1 79.3156 12.1903 4.6550 0.0000 -10.4566 0.0000
# 2 12.1903 77.2043 36.4666 0.0000 -6.2739 0.0000
# 3 4.6550 36.4666 117.5536 0.0000 -7.8794 0.0000
# 4 0.0000 0.0000 0.0000 -10.6400 0.0000 10.4217
# 5 -10.4566 -6.2739 -7.8794 0.0000 22.9938 0.0000
# 6 0.0000 0.0000 0.0000 10.4217 0.0000 22.5266
#
#
#
# Elastic Compliance Matrix: (Units=1/GPa)
#
#
# Indices 1 2 3 4 5 6 
#
# 1 0.013642 -0.001885 0.000436 0.000000 0.005839 0.000000
# 2 -0.001885 0.015589 -0.004640 0.000000 0.001806 0.000000
# 3 0.000436 -0.004640 0.010089 0.000000 0.002390 0.000000
# 4 0.000000 0.000000 0.000000 -0.064677 0.000000 0.029922
# 5 0.005839 0.001806 0.002390 0.000000 0.047457 0.000000
# 6 0.000000 0.000000 0.000000 0.029922 0.000000 0.030549
#
#
# Mechanical properties :
#
#
# Convention : Reuss Voigt Hill
#
# Bulk Modulus (GPa) = 36.84523 42.29969 39.57246
# Shear Modulus (GPa) = 67.68248 21.69353 44.68800
#
# Velocity S-wave (km/s) = 5.83478 3.30333 4.74113
# Velocity P-wave (km/s) = 7.99539 5.98550 7.06231
#
# Compressibility (1/GPa) = 0.02714056
#
# Stress axis : x y z
#
# Youngs Moduli (GPa) = 73.30416 64.14855 99.11703
#
# Poissons Ratio (x) = 0.12095 -0.04322
# Poissons Ratio (y) = 0.13821 0.45992
# Poissons Ratio (z) = -0.03196 0.29766
#
# Static dielectric constant tensor:
#      x y z
#    x 1.797880 0.000000 0.048780 
#    y 0.000000 1.653210 0.000000 
#    z 0.048780 0.000000 1.771750 
# 
# From -- ./inp_files/8981.got.cif
#   From: 2010.05.17/outbox.cif.g08.bks.cpg/sg15_5_cif.got.tgz:8981.got - 2010.06.03 18:47:42.
