data_PCOD9261891
_publ_section_title
;
Structure prediction by ZEFSAII (Michael W. Deem and Ramdas Pophale) SiO2 
 PCOD9261891
Probable space group: C 2/C
;
_chemical_formula_sum "Si O2"
_cell_formula_units_Z 48
_cell_length_a 20.477584
_cell_length_b 33.971893
_cell_length_c 5.297668
_cell_angle_alpha 90.000000
_cell_angle_beta 68.762448
_cell_angle_gamma 90.000000
_cell_volume 3435.100609
_symmetry_space_group_name_H-M "C 2/C"
_symmetry_group_IT_number 15
_symmetry_cell_setting 'monoclinic'
loop_
_space_group_symop_operation_xyz
x,y,z
-x,y,1/2-z
-x,-y,-z
x,-y,1/2+z
1/2+x,1/2+y,z
1/2-x,1/2+y,1/2-z
1/2-x,1/2-y,-z
1/2+x,1/2-y,1/2+z
loop_
_atom_site_type_symbol
_atom_site_label
_atom_site_fract_x
_atom_site_fract_y
_atom_site_fract_z
Si Si1 0.582760 0.113052 0.068057
Si Si2 0.762651 0.202692 0.452230
Si Si3 0.456839 0.237160 0.049346
Si Si4 0.880096 0.658957 0.996308
Si Si5 0.915000 0.478217 0.884314
Si Si6 0.813776 0.781715 0.380650
O O1 0.500000 0.115856 0.250000
O O2 0.623315 0.133250 0.244448
O O3 0.602008 0.067020 0.033552
O O4 0.596004 0.134180 0.781667
O O5 0.750000 0.250000 0.500000
O O6 0.692209 0.180516 0.474906
O O7 0.790715 0.190294 0.685124
O O8 0.817084 0.198331 0.148308
O O9 0.500000 0.235262 0.250000
O O10 0.385333 0.260490 0.206351
O O11 0.500000 0.253996 0.750000
O O12 0.433288 0.193875 0.993322
O O13 0.890622 0.494017 0.647261
O O14 0.000000 0.480228 0.750000
O O15 0.750000 0.750000 0.500000
#
# Coordination Sequence:
#
# PCOD9261891 Si02
#       6
#     8   8   8   8   8   8
#     4  11  22  32  42  66  91 108 132 182 242 278
#     4  10  19  32  49  57  74 114 153 169 202 279
#     4  12  23  31  45  65  85 107 139 185 239 276
#     4  12  21  32  44  63  89 110 136 182 236 280
#     4   9  17  31  48  59  76 110 145 167 203 274
#     4  10  19  34  47  57  77 109 150 174 204 281
#
# _framework density 13.97339
#
# number of rings (size 3 to 8) (size 9 to 14) (size 15 to 20)
#    0.000    1.333    3.333    6.000    4.667    2.667 
#    0.000    0.000    0.000    0.000    0.000    0.000 
#    0.000    0.000    0.000    0.000    0.000    0.000 
#
# Total GULP energy -133784.516720 kJ/mol
# GULP energy per Si atom -5574.354863 kJ/mol
# Density = 1.394159 g / cm^3
# Si number density = 13.973390 Si / 1000 Ang^3
#
#
#
# Elastic Constant Matrix: (Units=GPa)
#
#
# Indices 1 2 3 4 5 6 
#
# 1 68.2641 29.8400 43.9861 0.0000 8.9748 0.0000
# 2 29.8400 42.7372 20.8380 0.0000 2.2973 0.0000
# 3 43.9861 20.8380 119.7858 0.0000 18.4944 0.0000
# 4 0.0000 0.0000 0.0000 17.4140 0.0000 2.3008
# 5 8.9748 2.2973 18.4944 0.0000 30.3672 0.0000
# 6 0.0000 0.0000 0.0000 2.3008 0.0000 11.4527
#
#
#
# Elastic Compliance Matrix: (Units=1/GPa)
#
#
# Indices 1 2 3 4 5 6 
#
# 1 0.025472 -0.014509 -0.006442 0.000000 -0.002507 0.000000
# 2 -0.014509 0.033852 -0.000914 0.000000 0.002284 0.000000
# 3 -0.006442 -0.000914 0.011665 0.000000 -0.005131 0.000000
# 4 0.000000 0.000000 0.000000 0.058991 0.000000 -0.011851
# 5 -0.002507 0.002284 -0.005131 0.000000 0.036623 0.000000
# 6 0.000000 0.000000 0.000000 -0.011851 0.000000 0.089696
#
#
# Mechanical properties :
#
#
# Convention : Reuss Voigt Hill
#
# Bulk Modulus (GPa) = 36.68534 46.67948 41.68241
# Shear Modulus (GPa) = 16.17514 20.92167 18.54841
#
# Velocity S-wave (km/s) = 3.40599 3.87363 3.64732
# Velocity P-wave (km/s) = 6.46362 7.31336 6.90158
#
# Compressibility (1/GPa) = 0.02725885
#
# Stress axis : x y z
#
# Youngs Moduli (GPa) = 39.25870 29.54023 85.72565
#
# Poissons Ratio (x) = 0.42860 0.55228
# Poissons Ratio (y) = 0.56961 0.07832
# Poissons Ratio (z) = 0.25292 0.02699
#
# Static dielectric constant tensor:
#      x y z
#    x 1.451960 0.000000 0.012400 
#    y 0.000000 1.419730 0.000000 
#    z 0.012400 0.000000 1.515450 
# 
# From -- ./inp_files/11792.got.cif
#   From: 2010.05.17/outbox.cif.g08.bks.cpg/sg15_6_cif.got.tgz:11792.got - 2010.06.03 18:47:42.
