data_PCOD9261750
_publ_section_title
;
Structure prediction by ZEFSAII (Michael W. Deem and Ramdas Pophale) SiO2 
 PCOD9261750
Probable space group: C 2/C
;
_chemical_formula_sum "Si O2"
_cell_formula_units_Z 56
_cell_length_a 20.307752
_cell_length_b 17.209302
_cell_length_c 19.257701
_cell_angle_alpha 90.000000
_cell_angle_beta 21.650922
_cell_angle_gamma 90.000000
_cell_volume 2483.121364
_symmetry_space_group_name_H-M "C 2/C"
_symmetry_group_IT_number 15
_symmetry_cell_setting 'monoclinic'
loop_
_space_group_symop_operation_xyz
x,y,z
-x,y,1/2-z
-x,-y,-z
x,-y,1/2+z
1/2+x,1/2+y,z
1/2-x,1/2+y,1/2-z
1/2-x,1/2-y,-z
1/2+x,1/2-y,1/2+z
loop_
_atom_site_type_symbol
_atom_site_label
_atom_site_fract_x
_atom_site_fract_y
_atom_site_fract_z
Si Si1 0.522011 0.214755 0.046552
Si Si2 0.772397 0.005657 0.348247
Si Si3 0.607084 0.368532 0.356065
Si Si4 0.718116 0.044961 0.553422
Si Si5 0.560361 0.090797 0.270469
Si Si6 0.370728 0.167323 0.049402
Si Si7 0.727942 0.663295 0.889336
O O1 0.537791 0.307595 0.029562
O O2 0.432969 0.173799 0.199761
O O3 0.405579 0.192599 0.093598
O O4 0.712229 0.175225 0.846518
O O5 0.892458 0.951046 0.182286
O O6 0.584997 0.958339 0.542183
O O7 0.814467 0.022988 0.387476
O O8 0.741727 0.089530 0.345048
O O9 0.621615 0.367726 0.425640
O O10 0.500000 0.058551 0.750000
O O11 0.803832 0.117458 0.508732
O O12 0.719661 0.970521 0.603416
O O13 0.500000 0.103981 0.250000
O O14 0.296619 0.243779 0.083916
O O15 0.564341 0.148040 0.829280
#
# Coordination Sequence:
#
# PCOD9261750 Si02
#       7
#     8   8   8   8   8   8   8
#     4   9  18  31  50  77 101 129 168 210 244 303
#     4   9  17  31  49  74  97 134 168 210 240 296
#     4   9  19  32  54  75 104 129 170 207 255 290
#     4   9  16  30  47  76 101 125 169 212 243 290
#     4   8  15  28  49  74  96 124 170 208 240 286
#     4  10  19  31  52  75 103 131 171 203 255 292
#     4  10  19  32  51  78 103 132 165 212 247 305
#
# _framework density 22.552261000000001
#
# number of rings (size 3 to 8) (size 9 to 14) (size 15 to 20)
#    0.000    3.143    2.857    0.000    2.000    2.286 
#    0.000    6.429    3.143    3.429    3.714    0.000 
#    0.000    0.000    0.000    0.000    0.000    0.000 
#
# Total GULP energy -156160.744463 kJ/mol
# GULP energy per Si atom -5577.169445 kJ/mol
# Density = 2.250093 g / cm^3
# Si number density = 22.552261 Si / 1000 Ang^3
#
#
#
# Elastic Constant Matrix: (Units=GPa)
#
#
# Indices 1 2 3 4 5 6 
#
# 1 40.6225 30.4192 14.3975 0.0025 1.3033 -0.0026
# 2 30.4192 85.3222 30.0641 0.0072 1.9427 -0.0048
# 3 14.3975 30.0641 48.2235 0.0162 -6.7339 -0.0057
# 4 0.0025 0.0072 0.0162 17.8524 -0.0151 18.4725
# 5 1.3033 1.9427 -6.7339 -0.0151 18.8248 0.0038
# 6 -0.0026 -0.0048 -0.0057 18.4725 0.0038 39.6887
#
#
#
# Elastic Compliance Matrix: (Units=1/GPa)
#
#
# Indices 1 2 3 4 5 6 
#
# 1 0.034113 -0.010744 -0.003854 0.000000 -0.002632 0.000001
# 2 -0.010744 0.018895 -0.009200 -0.000004 -0.004497 0.000003
# 3 -0.003854 -0.009200 0.029254 -0.000027 0.011681 0.000014
# 4 0.000000 -0.000004 -0.000027 0.108055 0.000088 -0.050293
# 5 -0.002632 -0.004497 0.011681 0.000088 0.057946 -0.000045
# 6 0.000001 0.000003 0.000014 -0.050293 -0.000045 0.048604
#
#
# Mechanical properties :
#
#
# Convention : Reuss Voigt Hill
#
# Bulk Modulus (GPa) = 28.84683 35.99219 32.41951
# Shear Modulus (GPa) = 14.04424 21.89231 17.96828
#
# Velocity S-wave (km/s) = 2.49819 3.11905 2.82572
# Velocity P-wave (km/s) = 4.59784 5.38195 5.00527
#
# Compressibility (1/GPa) = 0.03466586
#
# Stress axis : x y z
#
# Youngs Moduli (GPa) = 29.31465 52.92458 34.18332
#
# Poissons Ratio (x) = 0.56862 0.13174
# Poissons Ratio (y) = 0.31496 0.31448
# Poissons Ratio (z) = 0.11298 0.48690
#
# Static dielectric constant tensor:
#      x y z
#    x 1.847700 -0.000010 -0.047050 
#    y -0.000010 1.893930 0.000020 
#    z -0.047050 0.000020 1.932910 
# 
# From -- ./inp_files/211193.got.cif
#   From: 2010.05.17/outbox.cif.g08.bks.cpg/sg15_106_cif.got.tgz:211193.got - 2010.06.03 18:47:42.
