data_PCOD9261682
_publ_section_title
;
Structure prediction by ZEFSAII (Michael W. Deem and Ramdas Pophale) SiO2 
 PCOD9261682
Probable space group: C 2/C
;
_chemical_formula_sum "Si O2"
_cell_formula_units_Z 40
_cell_length_a 5.445227
_cell_length_b 26.334144
_cell_length_c 12.693417
_cell_angle_alpha 90.000000
_cell_angle_beta 82.167471
_cell_angle_gamma 90.000000
_cell_volume 1803.196396
_symmetry_space_group_name_H-M "C 2/C"
_symmetry_group_IT_number 15
_symmetry_cell_setting 'monoclinic'
loop_
_space_group_symop_operation_xyz
x,y,z
-x,y,1/2-z
-x,-y,-z
x,-y,1/2+z
1/2+x,1/2+y,z
1/2-x,1/2+y,1/2-z
1/2-x,1/2-y,-z
1/2+x,1/2-y,1/2+z
loop_
_atom_site_type_symbol
_atom_site_label
_atom_site_fract_x
_atom_site_fract_y
_atom_site_fract_z
Si Si1 0.748094 0.508538 0.757145
Si Si2 0.975522 0.800845 0.091182
Si Si3 0.455143 0.258255 0.639093
Si Si4 0.391968 0.412079 0.055982
Si Si5 0.599099 0.944293 0.467376
O O1 0.500000 0.478240 0.750000
O O2 0.686008 0.542524 0.861339
O O3 0.806718 0.548622 0.659259
O O4 0.000000 0.477657 0.750000
O O5 0.198153 0.773884 0.143049
O O6 0.701546 0.776979 0.117881
O O7 0.952902 0.860434 0.112753
O O8 0.044331 0.793835 0.963398
O O9 0.500000 0.283790 0.750000
O O10 0.649370 0.429069 0.987211
O O11 0.134795 0.406941 0.006584
O O12 0.500000 0.000000 0.500000
#
# Coordination Sequence:
#
# PCOD9261682 Si02
#       5
#     8   8   8   8   8
#     4   8  16  28  44  67  93 125 159 206 262 306
#     4  10  21  36  56  85 112 147 191 228 281 338
#     4  10  21  36  56  82 117 150 181 230 282 339
#     4  10  19  33  52  74 104 138 178 226 268 321
#     4  10  19  31  49  74 103 135 171 220 279 323
#
# _framework density 22.182831
#
# number of rings (size 3 to 8) (size 9 to 14) (size 15 to 20)
#    0.000    2.400    0.000    2.400    0.000    7.200 
#    0.000    0.000    0.000   10.800    0.000    0.000 
#    0.000    0.000    0.000    0.000    0.000    0.000 
#
# Total GULP energy -111339.471424 kJ/mol
# GULP energy per Si atom -5566.973571 kJ/mol
# Density = 2.213234 g / cm^3
# Si number density = 22.182831 Si / 1000 Ang^3
#
#
#
# Elastic Constant Matrix: (Units=GPa)
#
#
# Indices 1 2 3 4 5 6 
#
# 1 245.6963 8.0916 21.4458 0.0000 -23.5642 0.0000
# 2 8.0916 18.2152 -0.9383 0.0000 -0.5517 0.0000
# 3 21.4458 -0.9383 55.5604 0.0000 21.9810 0.0000
# 4 0.0000 0.0000 0.0000 2.7199 0.0000 0.6967
# 5 -23.5642 -0.5517 21.9810 0.0000 33.9965 0.0000
# 6 0.0000 0.0000 0.0000 0.6967 0.0000 22.7035
#
#
#
# Elastic Compliance Matrix: (Units=1/GPa)
#
#
# Indices 1 2 3 4 5 6 
#
# 1 0.005179 -0.002341 -0.004627 0.000000 0.006543 0.000000
# 2 -0.002341 0.056009 0.002864 0.000000 -0.002565 0.000000
# 3 -0.004627 0.002864 0.028330 0.000000 -0.021478 0.000000
# 4 0.000000 0.000000 0.000000 0.370579 0.000000 -0.011372
# 5 0.006543 -0.002565 -0.021478 0.000000 0.047795 0.000000
# 6 0.000000 0.000000 0.000000 -0.011372 0.000000 0.044395
#
#
# Mechanical properties :
#
#
# Convention : Reuss Voigt Hill
#
# Bulk Modulus (GPa) = 12.29856 41.85224 27.07540
# Shear Modulus (GPa) = 8.50924 31.27548 19.89236
#
# Velocity S-wave (km/s) = 1.96069 3.75893 2.99782
# Velocity P-wave (km/s) = 3.26832 6.14389 4.92084
#
# Compressibility (1/GPa) = 0.08131032
#
# Stress axis : x y z
#
# Youngs Moduli (GPa) = 193.10388 17.85439 35.29840
#
# Poissons Ratio (x) = 0.04179 0.16333
# Poissons Ratio (y) = 0.45198 -0.10110
# Poissons Ratio (z) = 0.89349 -0.05114
#
# Static dielectric constant tensor:
#      x y z
#    x 2.030730 0.000000 0.073060 
#    y 0.000000 1.758200 0.000000 
#    z 0.073060 0.000000 1.907040 
# 
# From -- ./inp_files/73793.got.cif
#   From: 2010.05.17/outbox.cif.g08.bks.cpg/sg15_37_cif.got.tgz:73793.got - 2010.06.03 18:47:42.
