data_PCOD9261836
_publ_section_title
;
Structure prediction by ZEFSAII (Michael W. Deem and Ramdas Pophale) SiO2 
 PCOD9261836
Probable space group: C 2/C
;
_chemical_formula_sum "Si O2"
_cell_formula_units_Z 56
_cell_length_a 15.410583
_cell_length_b 14.263655
_cell_length_c 16.421918
_cell_angle_alpha 90.000000
_cell_angle_beta 53.508715
_cell_angle_gamma 90.000000
_cell_volume 2902.026471
_symmetry_space_group_name_H-M "C 2/C"
_symmetry_group_IT_number 15
_symmetry_cell_setting 'monoclinic'
loop_
_space_group_symop_operation_xyz
x,y,z
-x,y,1/2-z
-x,-y,-z
x,-y,1/2+z
1/2+x,1/2+y,z
1/2-x,1/2+y,1/2-z
1/2-x,1/2-y,-z
1/2+x,1/2-y,1/2+z
loop_
_atom_site_type_symbol
_atom_site_label
_atom_site_fract_x
_atom_site_fract_y
_atom_site_fract_z
Si Si1 0.692827 0.248872 0.162124
Si Si2 0.959842 0.027750 0.865142
Si Si3 0.403374 0.277838 0.444700
Si Si4 0.247341 0.886617 0.731925
Si Si5 0.886277 0.249452 0.561646
Si Si6 0.501326 0.320716 0.657238
Si Si7 0.821246 0.911653 0.198555
O O1 0.604754 0.236794 0.141072
O O2 0.703324 0.161658 0.215965
O O3 0.678996 0.340316 0.225477
O O4 0.806436 0.259329 0.052702
O O5 0.883834 0.110671 0.938276
O O6 0.000000 0.046529 0.750000
O O7 0.060888 0.041055 0.869154
O O8 0.931248 0.918943 0.880324
O O9 0.514751 0.258423 0.428609
O O10 0.315238 0.841051 0.620002
O O11 0.122909 0.849606 0.794003
O O12 0.251838 0.998508 0.740954
O O13 0.813136 0.157460 0.625550
O O14 0.942452 0.241734 0.442757
O O15 0.500000 0.283031 0.750000
#
# Coordination Sequence:
#
# PCOD9261836 Si02
#       7
#     8   8   8   8   8   8   8
#     4  10  19  33  55  86 119 144 184 237 283 350
#     4   9  16  29  51  81 109 136 178 238 289 328
#     4  10  19  31  56  86 116 143 182 234 300 340
#     4  10  21  36  55  85 114 150 190 235 286 343
#     4  10  21  36  59  85 115 152 190 237 295 344
#     4  10  21  36  57  82 110 149 200 243 285 327
#     4   9  19  32  53  82 117 143 183 233 282 339
#
# _framework density 19.296859999999999
#
# number of rings (size 3 to 8) (size 9 to 14) (size 15 to 20)
#    0.000    2.286    2.857    0.000    2.000    2.286 
#    0.000    0.714    0.000    0.000    0.000    0.000 
#    0.000    0.000    0.000    0.000    0.000    0.000 
#
# Total GULP energy -155889.830714 kJ/mol
# GULP energy per Si atom -5567.493954 kJ/mol
# Density = 1.925294 g / cm^3
# Si number density = 19.296860 Si / 1000 Ang^3
#
#
#
# Elastic Constant Matrix: (Units=GPa)
#
#
# Indices 1 2 3 4 5 6 
#
# 1 37.2671 20.5188 24.2120 0.0000 16.2160 0.0000
# 2 20.5188 59.2280 31.5691 0.0000 9.9678 0.0000
# 3 24.2120 31.5691 115.9203 0.0000 10.2130 0.0000
# 4 0.0000 0.0000 0.0000 19.5970 0.0000 -6.2253
# 5 16.2160 9.9678 10.2130 0.0000 26.8764 0.0000
# 6 0.0000 0.0000 0.0000 -6.2253 0.0000 17.6632
#
#
#
# Elastic Compliance Matrix: (Units=1/GPa)
#
#
# Indices 1 2 3 4 5 6 
#
# 1 0.044430 -0.009160 -0.004886 0.000000 -0.021553 0.000000
# 2 -0.009160 0.022447 -0.004090 0.000000 -0.001244 0.000000
# 3 -0.004886 -0.004090 0.010727 0.000000 0.000389 0.000000
# 4 0.000000 0.000000 0.000000 0.057462 0.000000 0.020252
# 5 -0.021553 -0.001244 0.000389 0.000000 0.050525 0.000000
# 6 0.000000 0.000000 0.000000 0.020252 0.000000 0.063752
#
#
# Mechanical properties :
#
#
# Convention : Reuss Voigt Hill
#
# Bulk Modulus (GPa) = 24.19577 40.55723 32.37650
# Shear Modulus (GPa) = 16.70049 21.90169 19.30109
#
# Velocity S-wave (km/s) = 2.94505 3.37261 3.16606
# Velocity P-wave (km/s) = 4.91226 6.01907 5.49361
#
# Compressibility (1/GPa) = 0.04132954
#
# Stress axis : x y z
#
# Youngs Moduli (GPa) = 22.50743 44.54972 93.22402
#
# Poissons Ratio (x) = 0.40809 0.45553
# Poissons Ratio (y) = 0.20618 0.38130
# Poissons Ratio (z) = 0.10998 0.18222
#
# Static dielectric constant tensor:
#      x y z
#    x 1.731900 0.000000 0.004770 
#    y 0.000000 1.699420 0.000000 
#    z 0.004770 0.000000 1.717500 
# 
# From -- ./inp_files/205342.got.cif
#   From: 2010.05.17/outbox.cif.g08.bks.cpg/sg15_103_cif.got.tgz:205342.got - 2010.06.03 18:47:42.
