data_PCOD9261037
_publ_section_title
;
Structure prediction by ZEFSAII (Michael W. Deem and Ramdas Pophale) SiO2 
 PCOD9261037
Probable space group: C 2/C
;
_chemical_formula_sum "Si O2"
_cell_formula_units_Z 56
_cell_length_a 22.289423
_cell_length_b 9.087421
_cell_length_c 30.214230
_cell_angle_alpha 90.000000
_cell_angle_beta 154.575121
_cell_angle_gamma 90.000000
_cell_volume 2627.480798
_symmetry_space_group_name_H-M "C 2/C"
_symmetry_group_IT_number 15
_symmetry_cell_setting 'monoclinic'
loop_
_space_group_symop_operation_xyz
x,y,z
-x,y,1/2-z
-x,-y,-z
x,-y,1/2+z
1/2+x,1/2+y,z
1/2-x,1/2+y,1/2-z
1/2-x,1/2-y,-z
1/2+x,1/2-y,1/2+z
loop_
_atom_site_type_symbol
_atom_site_label
_atom_site_fract_x
_atom_site_fract_y
_atom_site_fract_z
Si Si1 0.500000 0.020298 0.750000
Si Si2 0.158830 0.265637 0.881159
Si Si3 0.415005 0.423596 0.379309
Si Si4 0.089472 0.591541 0.658202
Si Si5 0.071405 0.213267 0.515941
Si Si6 0.529348 0.788692 0.885514
Si Si7 0.400546 0.743745 0.247497
Si Si8 0.000000 0.998525 0.750000
O O1 0.634479 0.915863 0.839049
O O2 0.510862 0.124924 0.715403
O O3 0.038620 0.280556 0.838870
O O4 0.129320 0.108553 0.840392
O O5 0.314791 0.260756 0.999890
O O6 0.250618 0.463091 0.267027
O O7 0.513977 0.564714 0.453641
O O8 0.444952 0.319162 0.442265
O O9 0.437695 0.329868 0.350088
O O10 0.090086 0.725854 0.694228
O O11 0.020941 0.656054 0.567608
O O12 0.003842 0.451170 0.618970
O O13 0.238624 0.243796 0.623175
O O14 0.471887 0.600251 0.274289
#
# Coordination Sequence:
#
# PCOD9261037 Si02
#       8
#     4   8   8   8   8   8   8   4
#     4  10  18  40  58  90 118 166 198 246 306 364
#     4  10  22  38  62  88 125 159 200 253 306 362
#     4  10  23  41  63  89 123 163 208 250 308 362
#     4  11  22  40  63  92 123 161 206 255 306 361
#     4  10  22  41  61  89 121 162 203 254 309 359
#     4  11  22  40  60  93 121 158 208 251 305 367
#     4  10  21  38  63  88 125 158 203 250 304 368
#     4  10  22  40  56  92 120 158 202 246 306 360
#
# _framework density 21.313189999999999
#
# number of rings (size 3 to 8) (size 9 to 14) (size 15 to 20)
#    0.000    1.714    1.429    2.571    2.000    0.571 
#    5.143    2.143    0.000    0.000    0.000    0.000 
#    0.000    0.000    0.000    0.000    0.000    0.000 
#
# Total GULP energy -156038.619692 kJ/mol
# GULP energy per Si atom -5572.807846 kJ/mol
# Density = 2.126468 g / cm^3
# Si number density = 21.313190 Si / 1000 Ang^3
#
#
#
# Elastic Constant Matrix: (Units=GPa)
#
#
# Indices 1 2 3 4 5 6 
#
# 1 21.1624 1.1896 -3.9291 0.0072 2.7590 -0.0012
# 2 1.1896 74.2587 -1.5251 0.0343 -2.2771 -0.0054
# 3 -3.9291 -1.5251 79.0311 0.0535 -2.1643 -0.0077
# 4 0.0072 0.0343 0.0535 -127.7271 0.0086 21.5327
# 5 2.7590 -2.2771 -2.1643 0.0086 18.2815 -0.0013
# 6 -0.0012 -0.0054 -0.0077 21.5327 -0.0013 24.0485
#
#
#
# Elastic Compliance Matrix: (Units=1/GPa)
#
#
# Indices 1 2 3 4 5 6 
#
# 1 0.048655 -0.000955 0.002203 0.000003 -0.007201 0.000000
# 2 -0.000955 0.013544 0.000265 0.000004 0.001863 0.000000
# 3 0.002203 0.000265 0.012801 0.000006 0.001216 -0.000001
# 4 0.000003 0.000004 0.000006 -0.006802 0.000004 0.006091
# 5 -0.007201 0.001863 0.001216 0.000004 0.056163 0.000000
# 6 0.000000 0.000000 -0.000001 0.006091 0.000000 0.036129
#
#
# Mechanical properties :
#
#
# Convention : Reuss Voigt Hill
#
# Bulk Modulus (GPa) = 12.81607 18.43589 15.62598
# Shear Modulus (GPa) = 27.25201 -5.16496 11.04353
#
# Velocity S-wave (km/s) = 3.57969 -1.55840 2.27877
# Velocity P-wave (km/s) = 4.80748 2.33037 3.77773
#
# Compressibility (1/GPa) = 0.07802705
#
# Stress axis : x y z
#
# Youngs Moduli (GPa) = 20.55282 73.83189 78.11772
#
# Poissons Ratio (x) = 0.07051 -0.17212
# Poissons Ratio (y) = 0.01963 -0.02069
# Poissons Ratio (z) = -0.04528 -0.01956
#
# Static dielectric constant tensor:
#      x y z
#    x 1.916220 0.000000 -0.045970 
#    y 0.000000 1.775740 0.000000 
#    z -0.045970 0.000000 1.751100 
# 
# From -- ./inp_files/317591.got.cif
#   From: 2010.05.17/outbox.cif.g08.bks.cpg/sg15_159_cif.got.tgz:317591.got - 2010.06.03 18:47:42.
