data_PCOD9261518
_publ_section_title
;
Structure prediction by ZEFSAII (Michael W. Deem and Ramdas Pophale) SiO2 
 PCOD9261518
Probable space group: C 2/C
;
_chemical_formula_sum "Si O2"
_cell_formula_units_Z 40
_cell_length_a 17.076134
_cell_length_b 6.714649
_cell_length_c 12.613004
_cell_angle_alpha 90.000000
_cell_angle_beta 88.810210
_cell_angle_gamma 90.000000
_cell_volume 1445.898339
_symmetry_space_group_name_H-M "C 2/C"
_symmetry_group_IT_number 15
_symmetry_cell_setting 'monoclinic'
loop_
_space_group_symop_operation_xyz
x,y,z
-x,y,1/2-z
-x,-y,-z
x,-y,1/2+z
1/2+x,1/2+y,z
1/2-x,1/2+y,1/2-z
1/2-x,1/2-y,-z
1/2+x,1/2-y,1/2+z
loop_
_atom_site_type_symbol
_atom_site_label
_atom_site_fract_x
_atom_site_fract_y
_atom_site_fract_z
Si Si1 0.140199 0.246476 0.720677
Si Si2 0.055791 0.339944 0.915447
Si Si3 0.039371 0.261201 0.138183
Si Si4 0.657886 0.206311 0.984982
Si Si5 0.321815 0.206924 0.747150
O O1 0.081334 0.202797 0.817429
O O2 0.123081 0.218757 0.597163
O O3 0.228818 0.182196 0.747313
O O4 0.146842 0.485036 0.736451
O O5 0.996234 0.509858 0.874522
O O6 0.026097 0.211940 0.015609
O O7 0.127711 0.477421 0.964304
O O8 0.130041 0.194830 0.159552
O O9 0.000000 0.198178 0.250000
O O10 0.750000 0.250000 0.000000
O O11 0.648616 0.290141 0.866435
#
# Coordination Sequence:
#
# PCOD9261518 Si02
#       5
#     8   8   8   8   8
#     4  10  19  34  49  80 105 135 176 216 260 307
#     4  10  19  30  50  76 102 132 173 222 257 297
#     4  11  18  31  49  76 104 131 174 215 260 307
#     4   9  16  29  47  70 101 134 166 201 258 310
#     4  10  20  32  53  78 104 139 171 219 258 309
#
# _framework density 27.664460999999999
#
# number of rings (size 3 to 8) (size 9 to 14) (size 15 to 20)
#    0.000    2.000    6.000    0.000    0.000    0.800 
#    0.000    0.000    0.000    0.000    5.200   14.000 
#    0.000    0.000    0.000    0.000    0.000    0.000 
#
# Total GULP energy -111342.175173 kJ/mol
# GULP energy per Si atom -5567.108759 kJ/mol
# Density = 2.760150 g / cm^3
# Si number density = 27.664461 Si / 1000 Ang^3
#
#
#
# Elastic Constant Matrix: (Units=GPa)
#
#
# Indices 1 2 3 4 5 6 
#
# 1 152.5405 17.1979 98.3158 0.0000 34.3752 0.0000
# 2 17.1979 96.9485 38.1713 0.0000 12.0765 0.0000
# 3 98.3158 38.1713 295.5685 0.0000 -2.8170 0.0000
# 4 0.0000 0.0000 0.0000 -2.8373 0.0000 18.7865
# 5 34.3752 12.0765 -2.8170 0.0000 70.0991 0.0000
# 6 0.0000 0.0000 0.0000 18.7865 0.0000 24.5211
#
#
#
# Elastic Compliance Matrix: (Units=1/GPa)
#
#
# Indices 1 2 3 4 5 6 
#
# 1 0.009803 0.000193 -0.003333 0.000000 -0.004974 0.000000
# 2 0.000193 0.011138 -0.001522 0.000000 -0.002075 0.000000
# 3 -0.003333 -0.001522 0.004709 0.000000 0.002086 0.000000
# 4 0.000000 0.000000 0.000000 -0.058037 0.000000 0.044464
# 5 -0.004974 -0.002075 0.002086 0.000000 0.017146 0.000000
# 6 0.000000 0.000000 0.000000 0.044464 0.000000 0.006716
#
#
# Mechanical properties :
#
#
# Convention : Reuss Voigt Hill
#
# Bulk Modulus (GPa) = 61.25626 94.71417 77.98522
# Shear Modulus (GPa) = 801.10339 44.44807 422.77573
#
# Velocity S-wave (km/s) = 17.03547 4.01270 12.37556
# Velocity P-wave (km/s) = 20.22705 7.46861 15.24653
#
# Compressibility (1/GPa) = 0.01632486
#
# Stress axis : x y z
#
# Youngs Moduli (GPa) = 102.00738 89.77961 212.37983
#
# Poissons Ratio (x) = -0.01733 0.70791
# Poissons Ratio (y) = -0.01969 0.32334
# Poissons Ratio (z) = 0.34001 0.13668
#
# Static dielectric constant tensor:
#      x y z
#    x 2.543990 0.000000 -0.023740 
#    y 0.000000 2.284570 0.000000 
#    z -0.023740 0.000000 2.158270 
# 
# From -- ./inp_files/103320.got.cif
#   From: 2010.05.17/outbox.cif.g08.bks.cpg/sg15_52_cif.got.tgz:103320.got - 2010.06.03 18:47:42.
