data_PCOD9261098
_publ_section_title
;
Structure prediction by ZEFSAII (Michael W. Deem and Ramdas Pophale) SiO2 
 PCOD9261098
Probable space group: C 2/C
;
_chemical_formula_sum "Si O2"
_cell_formula_units_Z 44
_cell_length_a 15.553947
_cell_length_b 7.234278
_cell_length_c 19.283957
_cell_angle_alpha 90.000000
_cell_angle_beta 55.953843
_cell_angle_gamma 90.000000
_cell_volume 1797.918434
_symmetry_space_group_name_H-M "C 2/C"
_symmetry_group_IT_number 15
_symmetry_cell_setting 'monoclinic'
loop_
_space_group_symop_operation_xyz
x,y,z
-x,y,1/2-z
-x,-y,-z
x,-y,1/2+z
1/2+x,1/2+y,z
1/2-x,1/2+y,1/2-z
1/2-x,1/2-y,-z
1/2+x,1/2-y,1/2+z
loop_
_atom_site_type_symbol
_atom_site_label
_atom_site_fract_x
_atom_site_fract_y
_atom_site_fract_z
Si Si1 0.836752 0.909885 0.884365
Si Si2 0.343573 0.877156 0.219813
Si Si3 0.622627 0.968702 0.450034
Si Si4 0.376012 0.444033 0.217253
Si Si5 0.000000 0.383322 0.250000
Si Si6 0.560342 0.593544 0.538374
O O1 0.711459 0.897166 0.939637
O O2 0.863187 0.055422 0.807574
O O3 0.866591 0.965662 0.948258
O O4 0.913149 0.740003 0.830057
O O5 0.348479 0.957153 0.142443
O O6 0.381799 0.666052 0.201888
O O7 0.221041 0.878410 0.285995
O O8 0.422318 0.985902 0.233512
O O9 0.626820 0.768419 0.483891
O O10 0.500000 0.000000 0.500000
O O11 0.474761 0.356801 0.135610
O O12 0.500000 0.500000 0.500000
#
# Coordination Sequence:
#
# PCOD9261098 Si02
#       6
#     8   8   8   8   4   8
#     4  10  20  41  63  85 122 168 201 248 306 375
#     4  10  21  41  60  90 117 163 203 251 304 375
#     4  11  25  40  60  92 129 160 207 258 312 362
#     4  10  21  38  67  85 122 160 208 244 311 367
#     4  10  18  40  64  86 120 156 212 252 306 358
#     4  12  21  40  63  93 122 162 206 253 314 364
#
# _framework density 24.472746999999998
#
# number of rings (size 3 to 8) (size 9 to 14) (size 15 to 20)
#    0.000    1.455    5.455    0.545    7.636    0.000 
#    3.273    1.818    0.000    0.000    0.000    0.000 
#    0.000    0.000    0.000    0.000    0.000    0.000 
#
# Total GULP energy -122603.964334 kJ/mol
# GULP energy per Si atom -5572.907470 kJ/mol
# Density = 2.441705 g / cm^3
# Si number density = 24.472747 Si / 1000 Ang^3
#
#
#
# Elastic Constant Matrix: (Units=GPa)
#
#
# Indices 1 2 3 4 5 6 
#
# 1 181.8141 7.6789 64.3995 0.0000 6.7781 0.0002
# 2 7.6789 44.1199 20.6490 0.0001 8.6708 0.0005
# 3 64.3995 20.6490 52.5802 0.0000 6.9932 0.0000
# 4 0.0000 0.0001 0.0000 17.4721 0.0000 -2.4432
# 5 6.7781 8.6708 6.9932 0.0000 55.7602 0.0001
# 6 0.0002 0.0005 0.0000 -2.4432 0.0001 17.8769
#
#
#
# Elastic Compliance Matrix: (Units=1/GPa)
#
#
# Indices 1 2 3 4 5 6 
#
# 1 0.010604 0.005222 -0.015010 0.000000 -0.000219 0.000000
# 2 0.005222 0.030844 -0.018088 0.000000 -0.003163 -0.000001
# 3 -0.015010 -0.018088 0.044633 0.000000 -0.000960 0.000001
# 4 0.000000 0.000000 0.000000 0.058349 0.000000 0.007974
# 5 -0.000219 -0.003163 -0.000960 0.000000 0.018573 0.000000
# 6 0.000000 -0.000001 0.000001 0.007974 0.000000 0.057028
#
#
# Mechanical properties :
#
#
# Convention : Reuss Voigt Hill
#
# Bulk Modulus (GPa) = 32.97064 51.55213 42.26138
# Shear Modulus (GPa) = 17.48907 30.60760 24.04834
#
# Velocity S-wave (km/s) = 2.67617 3.54033 3.13814
# Velocity P-wave (km/s) = 4.80112 6.15002 5.51695
#
# Compressibility (1/GPa) = 0.03033002
#
# Stress axis : x y z
#
# Youngs Moduli (GPa) = 94.30219 32.42144 22.40476
#
# Poissons Ratio (x) = -0.16931 0.33629
# Poissons Ratio (y) = -0.49246 0.40526
# Poissons Ratio (z) = 1.41544 0.58645
#
# Static dielectric constant tensor:
#      x y z
#    x 2.465970 0.000000 -0.218170 
#    y 0.000000 2.040450 0.000000 
#    z -0.218170 0.000000 2.094000 
# 
# From -- ./inp_files/202935.got.cif
#   From: 2010.05.17/outbox.cif.g08.bks.cpg/sg15_102_cif.got.tgz:202935.got - 2010.06.03 18:47:42.
