data_PCOD9261532
_publ_section_title
;
Structure prediction by ZEFSAII (Michael W. Deem and Ramdas Pophale) SiO2 
 PCOD9261532
Probable space group: C 2/C
;
_chemical_formula_sum "Si O2"
_cell_formula_units_Z 64
_cell_length_a 24.709041
_cell_length_b 15.075986
_cell_length_c 14.675603
_cell_angle_alpha 90.000000
_cell_angle_beta 42.054733
_cell_angle_gamma 90.000000
_cell_volume 3661.919407
_symmetry_space_group_name_H-M "C 2/C"
_symmetry_group_IT_number 15
_symmetry_cell_setting 'monoclinic'
loop_
_space_group_symop_operation_xyz
x,y,z
-x,y,1/2-z
-x,-y,-z
x,-y,1/2+z
1/2+x,1/2+y,z
1/2-x,1/2+y,1/2-z
1/2-x,1/2-y,-z
1/2+x,1/2-y,1/2+z
loop_
_atom_site_type_symbol
_atom_site_label
_atom_site_fract_x
_atom_site_fract_y
_atom_site_fract_z
Si Si1 0.672837 0.545770 0.127064
Si Si2 0.693518 0.598516 0.303524
Si Si3 0.685153 0.579976 0.913097
Si Si4 0.254941 0.786629 0.177015
Si Si5 0.075484 0.291530 0.603618
Si Si6 0.018960 0.826880 0.018457
Si Si7 0.001677 0.133474 0.149631
Si Si8 0.635379 0.346428 0.180082
O O1 0.710608 0.578431 0.175333
O O2 0.577166 0.570710 0.251165
O O3 0.677875 0.439744 0.107057
O O4 0.706655 0.590271 0.992727
O O5 0.714785 0.513725 0.337045
O O6 0.728107 0.689401 0.302390
O O7 0.596566 0.610856 0.429342
O O8 0.718657 0.654213 0.803306
O O9 0.587093 0.583808 0.033048
O O10 0.193607 0.785564 0.168652
O O11 0.337920 0.829640 0.033669
O O12 0.037884 0.257258 0.556526
O O13 0.101426 0.207043 0.635532
O O14 0.000000 0.337036 0.750000
O O15 0.939987 0.869782 0.160547
O O16 0.006184 0.805840 0.928997
O O17 0.000000 0.179818 0.250000
#
# Coordination Sequence:
#
# PCOD9261532 Si02
#       8
#     8   8   8   8   8   8   8   8
#     4  10  19  30  51  75 109 141 165 196 256 318
#     4  10  20  34  48  76 110 140 170 205 253 303
#     4  11  20  33  50  77 108 137 171 207 249 300
#     4  11  21  33  52  75 106 135 169 213 255 302
#     4   9  20  32  49  75 102 131 168 213 259 305
#     4   9  16  30  49  73 108 136 159 201 254 313
#     4   9  17  28  47  75 106 141 164 190 243 322
#     4  11  18  32  53  80 105 131 166 209 262 309
#
# _framework density 17.477173000000001
#
# number of rings (size 3 to 8) (size 9 to 14) (size 15 to 20)
#    0.000    2.000    2.500    2.625    0.000    6.000 
#    0.000    0.000    0.000    0.000    0.000   16.625 
#    0.000    0.000    0.000    0.000    0.000    0.000 
#
# Total GULP energy -178152.915272 kJ/mol
# GULP energy per Si atom -5567.278602 kJ/mol
# Density = 1.743739 g / cm^3
# Si number density = 17.477173 Si / 1000 Ang^3
#
#
#
# Elastic Constant Matrix: (Units=GPa)
#
#
# Indices 1 2 3 4 5 6 
#
# 1 91.2011 22.9485 28.9593 0.0000 25.6474 0.0000
# 2 22.9485 44.9263 25.0761 0.0000 3.2408 0.0000
# 3 28.9593 25.0761 68.0596 0.0000 26.2784 0.0000
# 4 0.0000 0.0000 0.0000 7.5369 0.0000 2.9373
# 5 25.6474 3.2408 26.2784 0.0000 27.2214 0.0000
# 6 0.0000 0.0000 0.0000 2.9373 0.0000 11.6053
#
#
#
# Elastic Compliance Matrix: (Units=1/GPa)
#
#
# Indices 1 2 3 4 5 6 
#
# 1 0.017493 -0.009329 0.003075 0.000000 -0.018339 0.000000
# 2 -0.009329 0.035044 -0.017098 0.000000 0.021123 0.000000
# 3 0.003075 -0.017098 0.031911 0.000000 -0.031667 0.000000
# 4 0.000000 0.000000 0.000000 0.147200 0.000000 -0.037257
# 5 -0.018339 0.021123 -0.031667 0.000000 0.082070 0.000000
# 6 0.000000 0.000000 0.000000 -0.037257 0.000000 0.095597
#
#
# Mechanical properties :
#
#
# Convention : Reuss Voigt Hill
#
# Bulk Modulus (GPa) = 26.49429 39.79498 33.14463
# Shear Modulus (GPa) = 10.67007 17.75294 14.21150
#
# Velocity S-wave (km/s) = 2.47354 3.19059 2.85467
# Velocity P-wave (km/s) = 4.83220 6.03260 5.46545
#
# Compressibility (1/GPa) = 0.03774398
#
# Stress axis : x y z
#
# Youngs Moduli (GPa) = 57.16532 28.53590 31.33689
#
# Poissons Ratio (x) = 0.26621 -0.09635
# Poissons Ratio (y) = 0.53329 0.53580
# Poissons Ratio (z) = -0.17577 0.48790
#
# Static dielectric constant tensor:
#      x y z
#    x 1.631090 0.000000 0.008700 
#    y 0.000000 1.571660 0.000000 
#    z 0.008700 0.000000 1.648690 
# 
# From -- ./inp_files/173667.got.cif
#   From: 2010.05.17/outbox.cif.g08.bks.cpg/sg15_87_cif.got.tgz:173667.got - 2010.06.03 18:47:42.
