data_PCOD9261291
_publ_section_title
;
Structure prediction by ZEFSAII (Michael W. Deem and Ramdas Pophale) SiO2 
 PCOD9261291
Probable space group: C 2/C
;
_chemical_formula_sum "Si O2"
_cell_formula_units_Z 52
_cell_length_a 23.581187
_cell_length_b 13.168107
_cell_length_c 8.493858
_cell_angle_alpha 90.000000
_cell_angle_beta 74.851973
_cell_angle_gamma 90.000000
_cell_volume 2545.866248
_symmetry_space_group_name_H-M "C 2/C"
_symmetry_group_IT_number 15
_symmetry_cell_setting 'monoclinic'
loop_
_space_group_symop_operation_xyz
x,y,z
-x,y,1/2-z
-x,-y,-z
x,-y,1/2+z
1/2+x,1/2+y,z
1/2-x,1/2+y,1/2-z
1/2-x,1/2-y,-z
1/2+x,1/2-y,1/2+z
loop_
_atom_site_type_symbol
_atom_site_label
_atom_site_fract_x
_atom_site_fract_y
_atom_site_fract_z
Si Si1 0.791872 0.057517 0.675629
Si Si2 0.956945 0.551315 0.657887
Si Si3 0.123047 0.582012 0.052307
Si Si4 0.000000 0.957982 0.750000
Si Si5 0.718706 0.908786 0.921864
Si Si6 0.335499 0.747845 0.760526
Si Si7 0.421965 0.597881 0.581859
O O1 0.751939 0.098006 0.563080
O O2 0.796895 0.145733 0.805497
O O3 0.859891 0.046145 0.576465
O O4 0.764454 0.956459 0.764865
O O5 0.911359 0.611399 0.581968
O O6 0.920803 0.466642 0.784302
O O7 0.000000 0.606382 0.750000
O O8 0.000000 0.500000 0.500000
O O9 0.157648 0.675410 0.102198
O O10 0.167285 0.491619 0.977280
O O11 0.036092 0.893808 0.597497
O O12 0.955177 0.029806 0.686089
O O13 0.690654 0.808631 0.868821
O O14 0.399785 0.703785 0.669956
#
# Coordination Sequence:
#
# PCOD9261291 Si02
#       7
#     8   8   8   4   8   8   8
#     4  10  23  38  64  94 127 170 207 267 325 394
#     4   9  19  35  59  82 112 171 215 259 316 375
#     4  11  19  38  59  85 129 170 211 261 329 377
#     4  10  18  46  70  90 124 174 198 282 328 370
#     4  12  20  41  63  87 136 172 202 267 329 383
#     4  10  23  38  59  97 125 162 217 262 308 406
#     4   9  22  39  69  92 126 160 221 259 329 384
#
# _framework density 20.425269
#
# number of rings (size 3 to 8) (size 9 to 14) (size 15 to 20)
#    0.923    0.923    3.077    1.385    0.000    0.615 
#    4.154    1.538    6.769    0.000    0.000    0.000 
#    0.000    0.000    0.000    0.000    0.000    0.000 
#
# Total GULP energy -144939.452464 kJ/mol
# GULP energy per Si atom -5574.594326 kJ/mol
# Density = 2.037878 g / cm^3
# Si number density = 20.425269 Si / 1000 Ang^3
#
#
#
# Elastic Constant Matrix: (Units=GPa)
#
#
# Indices 1 2 3 4 5 6 
#
# 1 91.2127 1.2277 12.2082 0.0000 15.9248 0.0000
# 2 1.2277 35.5883 -9.5301 0.0000 -3.6002 0.0000
# 3 12.2082 -9.5301 47.4791 0.0000 8.9496 0.0000
# 4 0.0000 0.0000 0.0000 14.3151 0.0000 -6.4295
# 5 15.9248 -3.6002 8.9496 0.0000 49.7965 0.0000
# 6 0.0000 0.0000 0.0000 -6.4295 0.0000 13.3752
#
#
#
# Elastic Compliance Matrix: (Units=1/GPa)
#
#
# Indices 1 2 3 4 5 6 
#
# 1 0.011948 -0.001489 -0.002723 0.000000 -0.003439 0.000000
# 2 -0.001489 0.029941 0.006102 0.000000 0.001544 0.000000
# 3 -0.002723 0.006102 0.023537 0.000000 -0.002918 0.000000
# 4 0.000000 0.000000 0.000000 0.089092 0.000000 0.042827
# 5 -0.003439 0.001544 -0.002918 0.000000 0.021818 0.000000
# 6 0.000000 0.000000 0.000000 0.042827 0.000000 0.095353
#
#
# Mechanical properties :
#
#
# Convention : Reuss Voigt Hill
#
# Bulk Modulus (GPa) = 14.44988 20.23240 17.34114
# Shear Modulus (GPa) = 17.18346 26.85564 22.01955
#
# Velocity S-wave (km/s) = 2.90364 3.62998 3.28694
# Velocity P-wave (km/s) = 4.28151 5.24368 4.78683
#
# Compressibility (1/GPa) = 0.06920474
#
# Stress axis : x y z
#
# Youngs Moduli (GPa) = 83.69361 33.39937 42.48661
#
# Poissons Ratio (x) = 0.04974 0.11569
# Poissons Ratio (y) = 0.12464 -0.25924
# Poissons Ratio (z) = 0.22789 -0.20379
#
# Static dielectric constant tensor:
#      x y z
#    x 1.753120 0.000000 -0.000470 
#    y 0.000000 1.742100 0.000000 
#    z -0.000470 0.000000 1.741490 
# 
# From -- ./inp_files/55288.got.cif
#   From: 2010.05.17/outbox.cif.g08.bks.cpg/sg15_28_cif.got.tgz:55288.got - 2010.06.03 18:47:42.
