data_PCOD9261086
_publ_section_title
;
Structure prediction by ZEFSAII (Michael W. Deem and Ramdas Pophale) SiO2 
 PCOD9261086
Probable space group: C 2/C
;
_chemical_formula_sum "Si O2"
_cell_formula_units_Z 60
_cell_length_a 12.976690
_cell_length_b 10.385762
_cell_length_c 20.923103
_cell_angle_alpha 90.000000
_cell_angle_beta 72.989551
_cell_angle_gamma 90.000000
_cell_volume 2696.500358
_symmetry_space_group_name_H-M "C 2/C"
_symmetry_group_IT_number 15
_symmetry_cell_setting 'monoclinic'
loop_
_space_group_symop_operation_xyz
x,y,z
-x,y,1/2-z
-x,-y,-z
x,-y,1/2+z
1/2+x,1/2+y,z
1/2-x,1/2+y,1/2-z
1/2-x,1/2-y,-z
1/2+x,1/2-y,1/2+z
loop_
_atom_site_type_symbol
_atom_site_label
_atom_site_fract_x
_atom_site_fract_y
_atom_site_fract_z
Si Si1 0.481328 0.685461 0.853563
Si Si2 0.989032 0.482124 0.893566
Si Si3 0.617903 0.372711 0.526951
Si Si4 0.238955 0.393617 0.721489
Si Si5 0.408619 0.472670 0.587821
Si Si6 0.677132 0.624343 0.720546
Si Si7 0.656772 0.091540 0.468199
Si Si8 0.000000 0.497812 0.750000
O O1 0.475249 0.832898 0.875411
O O2 0.521549 0.595191 0.902430
O O3 0.575943 0.654063 0.785441
O O4 0.369527 0.644033 0.841489
O O5 0.095399 0.475241 0.919955
O O6 0.994535 0.556378 0.823764
O O7 0.893141 0.528225 0.957834
O O8 0.498074 0.362063 0.576756
O O9 0.624054 0.492462 0.477237
O O10 0.633720 0.243247 0.483211
O O11 0.714029 0.402289 0.558124
O O12 0.306263 0.445456 0.649364
O O13 0.277701 0.484068 0.772197
O O14 0.257212 0.241231 0.723663
O O15 0.112171 0.419098 0.734137
#
# Coordination Sequence:
#
# PCOD9261086 Si02
#       8
#     8   8   8   8   8   8   8   4
#     4  10  18  40  63  84 122 176 207 251 326 407
#     4  11  20  39  66  95 120 169 222 263 316 403
#     4  10  21  42  58  92 126 172 207 269 330 384
#     4  11  22  39  63  96 123 172 214 276 328 401
#     4  10  22  38  63  86 126 169 218 256 327 398
#     4  10  21  38  63  90 125 165 216 262 331 391
#     4  10  23  38  68  93 130 167 220 270 331 380
#     4  12  22  40  68  92 132 168 220 272 342 382
#
# _framework density 22.251062000000001
#
# number of rings (size 3 to 8) (size 9 to 14) (size 15 to 20)
#    0.000    1.600    4.000    0.800    0.000    2.133 
#    0.000    4.667    0.000    0.000    0.000    0.000 
#    0.000    0.000    0.000    0.000    0.000    0.000 
#
# Total GULP energy -167197.809232 kJ/mol
# GULP energy per Si atom -5573.260308 kJ/mol
# Density = 2.220042 g / cm^3
# Si number density = 22.251062 Si / 1000 Ang^3
#
#
#
# Elastic Constant Matrix: (Units=GPa)
#
#
# Indices 1 2 3 4 5 6 
#
# 1 101.8652 23.5659 23.0212 0.0000 2.7354 0.0000
# 2 23.5659 54.6495 5.7835 0.0000 3.1444 0.0000
# 3 23.0212 5.7835 94.1208 0.0000 3.4842 0.0000
# 4 0.0000 0.0000 0.0000 26.3980 0.0000 -4.8603
# 5 2.7354 3.1444 3.4842 0.0000 36.4959 0.0000
# 6 0.0000 0.0000 0.0000 -4.8603 0.0000 10.8746
#
#
#
# Elastic Compliance Matrix: (Units=1/GPa)
#
#
# Indices 1 2 3 4 5 6 
#
# 1 0.011470 -0.004668 -0.002511 0.000000 -0.000218 0.000000
# 2 -0.004668 0.020398 -0.000060 0.000000 -0.001402 0.000000
# 3 -0.002511 -0.000060 0.011275 0.000000 -0.000883 0.000000
# 4 0.000000 0.000000 0.000000 0.041278 0.000000 0.018449
# 5 -0.000218 -0.001402 -0.000883 0.000000 0.027622 0.000000
# 6 0.000000 0.000000 0.000000 0.018449 0.000000 0.100203
#
#
# Mechanical properties :
#
#
# Convention : Reuss Voigt Hill
#
# Bulk Modulus (GPa) = 34.88345 39.48630 37.18487
# Shear Modulus (GPa) = 21.16147 27.97135 24.56641
#
# Velocity S-wave (km/s) = 3.08723 3.54938 3.32634
# Velocity P-wave (km/s) = 5.33097 5.88063 5.61253
#
# Compressibility (1/GPa) = 0.02866689
#
# Stress axis : x y z
#
# Youngs Moduli (GPa) = 87.18383 49.02365 88.69124
#
# Poissons Ratio (x) = 0.22884 0.22267
# Poissons Ratio (y) = 0.40696 0.00530
# Poissons Ratio (z) = 0.21888 0.00293
#
# Static dielectric constant tensor:
#      x y z
#    x 1.855340 0.000000 0.008920 
#    y 0.000000 1.851750 0.000000 
#    z 0.008920 0.000000 1.866160 
# 
# From -- ./inp_files/268793.got.cif
#   From: 2010.05.17/outbox.cif.g08.bks.cpg/sg15_135_cif.got.tgz:268793.got - 2010.06.03 18:47:42.
