data_PCOD9261769
_publ_section_title
;
Structure prediction by ZEFSAII (Michael W. Deem and Ramdas Pophale) SiO2 
 PCOD9261769
Probable space group: C 2/C
;
_chemical_formula_sum "Si O2"
_cell_formula_units_Z 60
_cell_length_a 14.129653
_cell_length_b 18.307766
_cell_length_c 14.215239
_cell_angle_alpha 90.000000
_cell_angle_beta 69.441375
_cell_angle_gamma 90.000000
_cell_volume 3443.041352
_symmetry_space_group_name_H-M "C 2/C"
_symmetry_group_IT_number 15
_symmetry_cell_setting 'monoclinic'
loop_
_space_group_symop_operation_xyz
x,y,z
-x,y,1/2-z
-x,-y,-z
x,-y,1/2+z
1/2+x,1/2+y,z
1/2-x,1/2+y,1/2-z
1/2-x,1/2-y,-z
1/2+x,1/2-y,1/2+z
loop_
_atom_site_type_symbol
_atom_site_label
_atom_site_fract_x
_atom_site_fract_y
_atom_site_fract_z
Si Si1 0.105654 0.072552 0.879333
Si Si2 0.213594 0.953720 0.723662
Si Si3 0.500000 0.978671 0.750000
Si Si4 0.892925 0.006918 0.417965
Si Si5 0.259271 0.127296 0.550728
Si Si6 0.387930 0.704718 0.750481
Si Si7 0.410739 0.027342 0.596068
Si Si8 0.676964 0.140407 0.176028
O O1 0.117261 0.155589 0.841489
O O2 0.188378 0.025846 0.793227
O O3 0.112857 0.057202 0.987633
O O4 0.999214 0.036235 0.883453
O O5 0.130464 0.949924 0.670436
O O6 0.230497 0.890466 0.793711
O O7 0.321278 0.967399 0.636368
O O8 0.406454 0.924134 0.806934
O O9 0.460172 0.029720 0.681026
O O10 0.807186 0.944354 0.452267
O O11 0.191546 0.173493 0.645792
O O12 0.357685 0.098394 0.571668
O O13 0.288809 0.162205 0.440820
O O14 0.500000 0.692436 0.750000
O O15 0.369310 0.791007 0.752565
O O16 0.500000 0.000000 0.500000
#
# Coordination Sequence:
#
# PCOD9261769 Si02
#       8
#     8   8   4   8   8   8   8   8
#     4  11  19  35  59  85 112 142 184 239 287 327
#     4  10  20  34  54  79 110 146 184 228 273 339
#     4  10  20  34  54  82 104 150 180 222 274 332
#     4  10  20  33  58  88 109 137 190 239 282 328
#     4  11  20  36  55  85 114 141 186 235 276 333
#     4  12  22  37  55  84 116 146 182 232 286 338
#     4  10  19  31  53  77 111 136 183 229 267 316
#     4  11  22  36  54  80 116 149 184 224 285 332
#
# _framework density 17.426454
#
# number of rings (size 3 to 8) (size 9 to 14) (size 15 to 20)
#    0.000    1.333    7.333    0.800    0.000    0.000 
#    0.000    0.667    0.000    0.000    6.933    0.000 
#    0.000    0.000    0.000    0.000    0.000    0.000 
#
# Total GULP energy -167208.782943 kJ/mol
# GULP energy per Si atom -5573.626098 kJ/mol
# Density = 1.738679 g / cm^3
# Si number density = 17.426454 Si / 1000 Ang^3
#
#
#
# Elastic Constant Matrix: (Units=GPa)
#
#
# Indices 1 2 3 4 5 6 
#
# 1 84.0546 19.5210 32.5207 0.0000 13.5574 0.0000
# 2 19.5210 58.6434 18.3071 0.0000 13.5797 0.0000
# 3 32.5207 18.3071 77.1686 0.0000 12.9399 0.0000
# 4 0.0000 0.0000 0.0000 25.5196 0.0000 -2.1827
# 5 13.5574 13.5797 12.9399 0.0000 39.3979 0.0000
# 6 0.0000 0.0000 0.0000 -2.1827 0.0000 18.8083
#
#
#
# Elastic Compliance Matrix: (Units=1/GPa)
#
#
# Indices 1 2 3 4 5 6 
#
# 1 0.014965 -0.002775 -0.005234 0.000000 -0.002474 0.000000
# 2 -0.002775 0.019995 -0.002729 0.000000 -0.005041 0.000000
# 3 -0.005234 -0.002729 0.016247 0.000000 -0.002595 0.000000
# 4 0.000000 0.000000 0.000000 0.039578 0.000000 0.004593
# 5 -0.002474 -0.005041 -0.002595 0.000000 0.028823 0.000000
# 6 0.000000 0.000000 0.000000 0.004593 0.000000 0.053701
#
#
# Mechanical properties :
#
#
# Convention : Reuss Voigt Hill
#
# Bulk Modulus (GPa) = 33.63322 40.06269 36.84796
# Shear Modulus (GPa) = 24.42656 26.71302 25.56979
#
# Velocity S-wave (km/s) = 3.74798 3.91947 3.83469
# Velocity P-wave (km/s) = 6.17024 6.59716 6.38727
#
# Compressibility (1/GPa) = 0.02973251
#
# Stress axis : x y z
#
# Youngs Moduli (GPa) = 66.82060 50.01239 61.55121
#
# Poissons Ratio (x) = 0.13878 0.32213
# Poissons Ratio (y) = 0.18542 0.16797
# Poissons Ratio (z) = 0.34971 0.13648
#
# Static dielectric constant tensor:
#      x y z
#    x 1.616920 0.000000 -0.007950 
#    y 0.000000 1.579810 0.000000 
#    z -0.007950 0.000000 1.637300 
# 
# From -- ./inp_files/154809.got.cif
#   From: 2010.05.17/outbox.cif.g08.bks.cpg/sg15_78_cif.got.tgz:154809.got - 2010.06.03 18:47:42.
