data_PCOD9261479
_publ_section_title
;
Structure prediction by ZEFSAII (Michael W. Deem and Ramdas Pophale) SiO2 
 PCOD9261479
Probable space group: C 2/C
;
_chemical_formula_sum "Si O2"
_cell_formula_units_Z 48
_cell_length_a 23.882238
_cell_length_b 7.218515
_cell_length_c 20.813436
_cell_angle_alpha 90.000000
_cell_angle_beta 142.200847
_cell_angle_gamma 90.000000
_cell_volume 2199.140667
_symmetry_space_group_name_H-M "C 2/C"
_symmetry_group_IT_number 15
_symmetry_cell_setting 'monoclinic'
loop_
_space_group_symop_operation_xyz
x,y,z
-x,y,1/2-z
-x,-y,-z
x,-y,1/2+z
1/2+x,1/2+y,z
1/2-x,1/2+y,1/2-z
1/2-x,1/2-y,-z
1/2+x,1/2-y,1/2+z
loop_
_atom_site_type_symbol
_atom_site_label
_atom_site_fract_x
_atom_site_fract_y
_atom_site_fract_z
Si Si1 0.473636 0.899035 0.411312
Si Si2 0.730865 0.465990 0.002126
Si Si3 0.579007 0.954677 0.270167
Si Si4 0.600219 0.471357 0.622400
Si Si5 0.336962 0.434798 0.688856
Si Si6 0.838532 0.813798 0.438248
O O1 0.442247 0.017762 0.321704
O O2 0.397281 0.749158 0.363095
O O3 0.565761 0.793491 0.472762
O O4 0.500000 0.000000 0.500000
O O5 0.828186 0.532527 0.115593
O O6 0.666350 0.451533 0.005289
O O7 0.750000 0.250000 0.000000
O O8 0.690545 0.545775 0.900118
O O9 0.500000 0.982095 0.250000
O O10 0.596602 0.732936 0.274084
O O11 0.500000 0.500000 0.500000
O O12 0.618110 0.541784 0.710904
O O13 0.666137 0.568183 0.631310
O O14 0.244459 0.331943 0.630302
#
# Coordination Sequence:
#
# PCOD9261479 Si02
#       6
#     8   8   8   8   8   8
#     4  10  19  30  48  72  97 131 164 195 244 301
#     4   8  15  27  45  73  94 118 160 208 248 279
#     4   9  15  27  45  68  94 119 157 205 240 279
#     4   9  19  33  48  72 102 130 162 204 248 291
#     4   9  17  28  48  74  95 124 163 204 251 292
#     4   9  17  31  49  71  99 124 160 208 247 290
#
# _framework density 21.826706999999999
#
# number of rings (size 3 to 8) (size 9 to 14) (size 15 to 20)
#    0.000    3.333    0.000    3.000    0.000    4.000 
#    0.000    0.000    0.000    4.000    0.000   30.333 
#    0.000    0.000    0.000    0.000    0.000    0.000 
#
# Total GULP energy -133679.524483 kJ/mol
# GULP energy per Si atom -5569.980187 kJ/mol
# Density = 2.177703 g / cm^3
# Si number density = 21.826707 Si / 1000 Ang^3
#
#
#
# Elastic Constant Matrix: (Units=GPa)
#
#
# Indices 1 2 3 4 5 6 
#
# 1 98.5738 22.5816 67.7056 0.0000 -22.4667 0.0000
# 2 22.5816 47.0816 21.8376 -0.0001 -6.7366 -0.0001
# 3 67.7056 21.8376 204.9843 0.0000 -53.8874 0.0000
# 4 0.0000 -0.0001 0.0000 11.6972 0.0000 -5.9806
# 5 -22.4667 -6.7366 -53.8874 0.0000 50.0991 0.0000
# 6 0.0000 -0.0001 0.0000 -5.9806 0.0000 4.9561
#
#
#
# Elastic Compliance Matrix: (Units=1/GPa)
#
#
# Indices 1 2 3 4 5 6 
#
# 1 0.014202 -0.004839 -0.003726 0.000000 0.001711 0.000000
# 2 -0.004839 0.024006 -0.000950 0.000001 0.000037 0.000001
# 3 -0.003726 -0.000950 0.007999 0.000000 0.006806 0.000000
# 4 0.000000 0.000001 0.000000 0.223203 0.000000 0.269345
# 5 0.001711 0.000037 0.006806 0.000000 0.028053 0.000000
# 6 0.000000 0.000001 0.000000 0.269345 0.000000 0.526799
#
#
# Mechanical properties :
#
#
# Convention : Reuss Voigt Hill
#
# Bulk Modulus (GPa) = 36.79249 63.87659 50.33454
# Shear Modulus (GPa) = 5.86613 29.25147 17.55880
#
# Velocity S-wave (km/s) = 1.64117 3.66480 2.83938
# Velocity P-wave (km/s) = 4.52598 6.87289 5.81898
#
# Compressibility (1/GPa) = 0.02717946
#
# Stress axis : x y z
#
# Youngs Moduli (GPa) = 70.41213 41.65582 125.01131
#
# Poissons Ratio (x) = 0.20157 0.46575
# Poissons Ratio (y) = 0.34072 0.11870
# Poissons Ratio (z) = 0.26233 0.03955
#
# Static dielectric constant tensor:
#      x y z
#    x 1.760700 0.000000 -0.024510 
#    y 0.000000 1.882880 0.000000 
#    z -0.024510 0.000000 1.918130 
# 
# From -- ./inp_files/214091.got.cif
#   From: 2010.05.17/outbox.cif.g08.bks.cpg/sg15_108_cif.got.tgz:214091.got - 2010.06.03 18:47:42.
