data_PCOD9261810
_publ_section_title
;
Structure prediction by ZEFSAII (Michael W. Deem and Ramdas Pophale) SiO2 
 PCOD9261810
Probable space group: C 2/C
;
_chemical_formula_sum "Si O2"
_cell_formula_units_Z 40
_cell_length_a 17.047230
_cell_length_b 7.662908
_cell_length_c 10.377932
_cell_angle_alpha 90.000000
_cell_angle_beta 73.597814
_cell_angle_gamma 90.000000
_cell_volume 1300.511350
_symmetry_space_group_name_H-M "C 2/C"
_symmetry_group_IT_number 15
_symmetry_cell_setting 'monoclinic'
loop_
_space_group_symop_operation_xyz
x,y,z
-x,y,1/2-z
-x,-y,-z
x,-y,1/2+z
1/2+x,1/2+y,z
1/2-x,1/2+y,1/2-z
1/2-x,1/2-y,-z
1/2+x,1/2-y,1/2+z
loop_
_atom_site_type_symbol
_atom_site_label
_atom_site_fract_x
_atom_site_fract_y
_atom_site_fract_z
Si Si1 0.131082 0.429488 0.084868
Si Si2 0.326654 0.335028 0.533713
Si Si3 0.448078 0.838409 0.123498
Si Si4 0.588550 0.543508 0.736641
Si Si5 0.724193 0.770321 0.822820
O O1 0.086956 0.465252 0.248856
O O2 0.211122 0.342651 0.125710
O O3 0.044167 0.359868 0.062902
O O4 0.185022 0.418383 0.927211
O O5 0.250000 0.250000 0.500000
O O6 0.398090 0.185116 0.510460
O O7 0.367300 0.479427 0.423834
O O8 0.283107 0.355700 0.689590
O O9 0.434646 0.638920 0.183633
O O10 0.500000 0.626064 0.750000
O O11 0.649936 0.664490 0.789486
#
# Coordination Sequence:
#
# PCOD9261810 Si02
#       5
#     8   8   8   8   8
#     4   9  17  33  48  74 109 143 182 208 269 332
#     4   9  20  35  46  73 119 148 178 210 279 338
#     4  10  19  31  54  83 109 135 178 232 276 318
#     4  11  20  30  51  83 113 138 171 229 279 320
#     4   9  19  32  47  65 115 157 172 205 265 340
#
# _framework density 30.757135000000002
#
# number of rings (size 3 to 8) (size 9 to 14) (size 15 to 20)
#    0.000    2.400    2.000    1.200    2.800    1.600 
#    0.000    0.000    0.000    0.000    0.000    1.400 
#  192.000    6.000    0.000    0.000    0.000    0.000 
#
# Total GULP energy -111379.005986 kJ/mol
# GULP energy per Si atom -5568.950299 kJ/mol
# Density = 3.068713 g / cm^3
# Si number density = 30.757135 Si / 1000 Ang^3
#
#
#
# Elastic Constant Matrix: (Units=GPa)
#
#
# Indices 1 2 3 4 5 6 
#
# 1 333.8254 146.4261 109.1214 0.0000 12.5346 0.0000
# 2 146.4261 328.9434 186.6939 0.0000 44.7355 0.0000
# 3 109.1214 186.6939 340.3849 0.0000 2.7873 0.0000
# 4 0.0000 0.0000 0.0000 447.2252 0.0000 82.6302
# 5 12.5346 44.7355 2.7873 0.0000 91.5320 0.0000
# 6 0.0000 0.0000 0.0000 82.6302 0.0000 59.4242
#
#
#
# Elastic Compliance Matrix: (Units=1/GPa)
#
#
# Indices 1 2 3 4 5 6 
#
# 1 0.003767 -0.001482 -0.000397 0.000000 0.000220 0.000000
# 2 -0.001482 0.005434 -0.002486 0.000000 -0.002377 0.000000
# 3 -0.000397 -0.002486 0.004419 0.000000 0.001135 0.000000
# 4 0.000000 0.000000 0.000000 0.003009 0.000000 -0.004184
# 5 0.000220 -0.002377 0.001135 0.000000 0.012022 0.000000
# 6 0.000000 0.000000 0.000000 -0.004184 0.000000 0.022646
#
#
# Mechanical properties :
#
#
# Convention : Reuss Voigt Hill
#
# Bulk Modulus (GPa) = 204.44155 209.73738 207.08946
# Shear Modulus (GPa) = 81.09499 157.03043 119.06271
#
# Velocity S-wave (km/s) = 5.14038 7.15303 6.22853
# Velocity P-wave (km/s) = 10.09184 11.68591 10.91801
#
# Compressibility (1/GPa) = 0.00489137
#
# Stress axis : x y z
#
# Youngs Moduli (GPa) = 265.47303 184.03833 226.28600
#
# Poissons Ratio (x) = 0.27266 0.08979
# Poissons Ratio (y) = 0.39331 0.56251
# Poissons Ratio (z) = 0.10534 0.45749
#
# Static dielectric constant tensor:
#      x y z
#    x 2.691860 0.000000 0.524430 
#    y 0.000000 2.696740 0.000000 
#    z 0.524430 0.000000 2.767140 
# 
# From -- ./inp_files/103204.got.cif
#   From: 2010.05.17/outbox.cif.g08.bks.cpg/sg15_52_cif.got.tgz:103204.got - 2010.06.03 18:47:42.
