data_PCOD9261696
_publ_section_title
;
Structure prediction by ZEFSAII (Michael W. Deem and Ramdas Pophale) SiO2 
 PCOD9261696
Probable space group: C 2/C
;
_chemical_formula_sum "Si O2"
_cell_formula_units_Z 64
_cell_length_a 20.217398
_cell_length_b 9.207619
_cell_length_c 24.020065
_cell_angle_alpha 90.000000
_cell_angle_beta 48.270179
_cell_angle_gamma 90.000000
_cell_volume 3336.994384
_symmetry_space_group_name_H-M "C 2/C"
_symmetry_group_IT_number 15
_symmetry_cell_setting 'monoclinic'
loop_
_space_group_symop_operation_xyz
x,y,z
-x,y,1/2-z
-x,-y,-z
x,-y,1/2+z
1/2+x,1/2+y,z
1/2-x,1/2+y,1/2-z
1/2-x,1/2-y,-z
1/2+x,1/2-y,1/2+z
loop_
_atom_site_type_symbol
_atom_site_label
_atom_site_fract_x
_atom_site_fract_y
_atom_site_fract_z
Si Si1 0.862040 0.457440 0.612626
Si Si2 0.543062 0.995731 0.054252
Si Si3 0.318562 0.366065 0.300356
Si Si4 0.364276 0.364092 0.151301
Si Si5 0.441301 0.346732 0.463684
Si Si6 0.148678 0.117201 0.596342
Si Si7 0.763174 0.059446 0.127310
Si Si8 0.180251 0.535678 0.063207
O O1 0.907088 0.430293 0.527030
O O2 0.774792 0.550590 0.652473
O O3 0.842836 0.303761 0.651470
O O4 0.939014 0.536083 0.605909
O O5 0.552040 0.171281 0.043192
O O6 0.595317 0.963773 0.081815
O O7 0.368387 0.388478 0.214846
O O8 0.367283 0.413148 0.329994
O O9 0.293835 0.196492 0.321062
O O10 0.461777 0.396236 0.071860
O O11 0.290388 0.459857 0.163123
O O12 0.421474 0.409850 0.413113
O O13 0.355314 0.383589 0.548225
O O14 0.164146 0.291882 0.582978
O O15 0.238944 0.037664 0.526162
O O16 0.712488 0.979234 0.104924
#
# Coordination Sequence:
#
# PCOD9261696 Si02
#       8
#     8   8   8   8   8   8   8   8
#     4  10  19  31  50  74 100 127 163 203 244 293
#     4   9  15  30  54  76  94 121 167 213 239 281
#     4  11  19  34  52  71 100 135 164 200 254 295
#     4  11  23  31  46  76 107 131 163 201 244 305
#     4   9  17  33  53  75  97 126 169 212 244 282
#     4   8  14  26  51  74  92 123 165 207 244 283
#     4  10  19  34  53  72 101 134 162 205 251 291
#     4   8  13  27  51  76  93 120 167 208 242 280
#
# _framework density 19.178936
#
# number of rings (size 3 to 8) (size 9 to 14) (size 15 to 20)
#    0.000    2.500    2.500    2.625    0.000    0.500 
#    0.000    0.625    0.000    2.250    0.000    0.000 
#    0.000    0.000    0.000    0.000    0.000    0.000 
#
# Total GULP energy -178299.575448 kJ/mol
# GULP energy per Si atom -5571.861733 kJ/mol
# Density = 1.913528 g / cm^3
# Si number density = 19.178936 Si / 1000 Ang^3
#
#
#
# Elastic Constant Matrix: (Units=GPa)
#
#
# Indices 1 2 3 4 5 6 
#
# 1 70.8113 2.7931 2.0808 0.0000 14.5473 0.0001
# 2 2.7931 4.8565 3.5313 0.0000 5.0978 0.0003
# 3 2.0808 3.5313 39.3770 0.0000 15.4344 0.0000
# 4 0.0000 0.0000 0.0000 12.6594 0.0000 3.0270
# 5 14.5473 5.0978 15.4344 0.0000 30.4248 0.0000
# 6 0.0001 0.0003 0.0000 3.0270 0.0000 13.1280
#
#
#
# Elastic Compliance Matrix: (Units=1/GPa)
#
#
# Indices 1 2 3 4 5 6 
#
# 1 0.015899 -0.002058 0.002732 0.000000 -0.008643 0.000000
# 2 -0.002058 0.251902 -0.007893 0.000001 -0.037219 -0.000006
# 3 0.002732 -0.007893 0.032394 0.000000 -0.016417 0.000000
# 4 0.000000 0.000001 0.000000 0.083602 0.000000 -0.019276
# 5 -0.008643 -0.037219 -0.016417 0.000000 0.051565 0.000001
# 6 0.000000 -0.000006 0.000000 -0.019276 0.000001 0.080618
#
#
# Mechanical properties :
#
#
# Convention : Reuss Voigt Hill
#
# Bulk Modulus (GPa) = 3.49949 14.65058 9.07504
# Shear Modulus (GPa) = 7.99144 18.35174 13.17159
#
# Velocity S-wave (km/s) = 2.04348 3.09669 2.62348
# Velocity P-wave (km/s) = 2.71963 4.52122 3.73081
#
# Compressibility (1/GPa) = 0.28575580
#
# Stress axis : x y z
#
# Youngs Moduli (GPa) = 62.89897 3.96980 30.86997
#
# Poissons Ratio (x) = 0.00817 -0.08434
# Poissons Ratio (y) = 0.12945 0.24367
# Poissons Ratio (z) = -0.17185 0.03134
#
# Static dielectric constant tensor:
#      x y z
#    x 1.715520 0.000000 0.014570 
#    y 0.000000 1.651990 0.000000 
#    z 0.014570 0.000000 1.677120 
# 
# From -- ./inp_files/300356.got.cif
#   From: 2010.05.17/outbox.cif.g08.bks.cpg/sg15_151_cif.got.tgz:300356.got - 2010.06.03 18:47:42.
