data_PCOD9261420
_publ_section_title
;
Structure prediction by ZEFSAII (Michael W. Deem and Ramdas Pophale) SiO2 
 PCOD9261420
Probable space group: C 2/C
;
_chemical_formula_sum "Si O2"
_cell_formula_units_Z 56
_cell_length_a 23.469752
_cell_length_b 22.227106
_cell_length_c 5.407785
_cell_angle_alpha 90.000000
_cell_angle_beta 117.403774
_cell_angle_gamma 90.000000
_cell_volume 2504.486386
_symmetry_space_group_name_H-M "C 2/C"
_symmetry_group_IT_number 15
_symmetry_cell_setting 'monoclinic'
loop_
_space_group_symop_operation_xyz
x,y,z
-x,y,1/2-z
-x,-y,-z
x,-y,1/2+z
1/2+x,1/2+y,z
1/2-x,1/2+y,1/2-z
1/2-x,1/2-y,-z
1/2+x,1/2-y,1/2+z
loop_
_atom_site_type_symbol
_atom_site_label
_atom_site_fract_x
_atom_site_fract_y
_atom_site_fract_z
Si Si1 0.698273 0.604434 0.694170
Si Si2 0.766926 0.167372 0.234292
Si Si3 0.625008 0.107701 0.960624
Si Si4 0.572220 0.233158 0.856970
Si Si5 0.160473 0.583985 0.531201
Si Si6 0.647633 0.230461 0.505087
Si Si7 0.432910 0.463281 0.669294
O O1 0.705773 0.648831 0.476521
O O2 0.764759 0.565971 0.814397
O O3 0.632580 0.570519 0.516633
O O4 0.700027 0.632879 0.970218
O O5 0.693403 0.145181 0.092094
O O6 0.784799 0.236321 0.319903
O O7 0.627574 0.068392 0.209896
O O8 0.572892 0.159976 0.861151
O O9 0.625380 0.069723 0.713401
O O10 0.500000 0.255380 0.750000
O O11 0.603435 0.247754 0.652965
O O12 0.614782 0.249926 0.181866
O O13 0.156915 0.658402 0.518640
O O14 0.500000 0.429115 0.750000
O O15 0.433896 0.514748 0.456050
#
# Coordination Sequence:
#
# PCOD9261420 Si02
#       7
#     8   8   8   8   8   8   8
#     4  10  19  32  50  72  90 109 147 195 235 270
#     4  10  19  31  48  68  91 117 151 192 230 276
#     4   8  16  27  42  60  79 109 146 181 224 259
#     4  10  19  30  41  56  82 117 159 192 216 253
#     4   8  16  27  44  67  89 112 146 184 222 263
#     4  10  19  31  46  63  88 125 159 184 225 277
#     4  10  21  38  57  72  90 121 158 194 242 304
#
# _framework density 22.359873
#
# number of rings (size 3 to 8) (size 9 to 14) (size 15 to 20)
#    0.000    2.571    0.000    2.143    0.000   10.286 
#    0.000    4.286    0.000    0.000    0.000    0.000 
#    0.000    0.000    0.000    0.000    0.000 1157.143 
#
# Total GULP energy -156214.208613 kJ/mol
# GULP energy per Si atom -5579.078879 kJ/mol
# Density = 2.230898 g / cm^3
# Si number density = 22.359873 Si / 1000 Ang^3
#
#
#
# Elastic Constant Matrix: (Units=GPa)
#
#
# Indices 1 2 3 4 5 6 
#
# 1 74.2724 -3.5408 26.1852 0.0000 -12.5996 0.0000
# 2 -3.5408 22.8218 -8.7185 0.0000 -4.7344 0.0000
# 3 26.1852 -8.7185 118.0397 0.0000 -43.4169 0.0000
# 4 0.0000 0.0000 0.0000 2.7814 0.0000 16.2091
# 5 -12.5996 -4.7344 -43.4169 0.0000 48.0005 0.0000
# 6 0.0000 0.0000 0.0000 16.2091 0.0000 3.6084
#
#
#
# Elastic Compliance Matrix: (Units=1/GPa)
#
#
# Indices 1 2 3 4 5 6 
#
# 1 0.014724 0.001707 -0.002483 0.000000 0.001788 0.000000
# 2 0.001707 0.049681 0.007879 0.000000 0.012475 0.000000
# 3 -0.002483 0.007879 0.014462 0.000000 0.013207 0.000000
# 4 0.000000 0.000000 0.000000 -0.014279 0.000000 0.064144
# 5 0.001788 0.012475 0.013207 0.000000 0.034478 0.000000
# 6 0.000000 0.000000 0.000000 0.064144 0.000000 -0.011007
#
#
# Mechanical properties :
#
#
# Convention : Reuss Voigt Hill
#
# Bulk Modulus (GPa) = 10.74420 26.99842 18.87131
# Shear Modulus (GPa) = 47.67531 24.29191 35.98361
#
# Velocity S-wave (km/s) = 4.62256 3.29964 4.01595
# Velocity P-wave (km/s) = 5.77117 5.15922 5.47375
#
# Compressibility (1/GPa) = 0.09307350
#
# Stress axis : x y z
#
# Youngs Moduli (GPa) = 67.91698 20.12855 69.14661
#
# Poissons Ratio (x) = -0.03435 0.17167
# Poissons Ratio (y) = -0.11592 -0.54483
# Poissons Ratio (z) = 0.16862 -0.15860
#
# Static dielectric constant tensor:
#      x y z
#    x 1.851570 0.000000 -0.048790 
#    y 0.000000 1.858170 0.000000 
#    z -0.048790 0.000000 1.887840 
# 
# From -- ./inp_files/14234.got.cif
#   From: 2010.05.17/outbox.cif.g08.bks.cpg/sg15_8_cif.got.tgz:14234.got - 2010.06.03 18:47:42.
