data_PCOD9261728
_publ_section_title
;
Structure prediction by ZEFSAII (Michael W. Deem and Ramdas Pophale) SiO2 
 PCOD9261728
Probable space group: C 2/C
;
_chemical_formula_sum "Si O2"
_cell_formula_units_Z 48
_cell_length_a 16.707570
_cell_length_b 7.684629
_cell_length_c 15.188477
_cell_angle_alpha 90.000000
_cell_angle_beta 116.024461
_cell_angle_gamma 90.000000
_cell_volume 1752.347081
_symmetry_space_group_name_H-M "C 2/C"
_symmetry_group_IT_number 15
_symmetry_cell_setting 'monoclinic'
loop_
_space_group_symop_operation_xyz
x,y,z
-x,y,1/2-z
-x,-y,-z
x,-y,1/2+z
1/2+x,1/2+y,z
1/2-x,1/2+y,1/2-z
1/2-x,1/2-y,-z
1/2+x,1/2-y,1/2+z
loop_
_atom_site_type_symbol
_atom_site_label
_atom_site_fract_x
_atom_site_fract_y
_atom_site_fract_z
Si Si1 0.795919 0.044890 0.564240
Si Si2 0.578067 0.256036 0.856577
Si Si3 0.064723 0.740933 0.059257
Si Si4 0.893951 0.625079 0.190750
Si Si5 0.884481 0.351810 0.433335
Si Si6 0.794923 0.968879 0.851688
O O1 0.852782 0.200417 0.631949
O O2 0.698076 0.083305 0.550048
O O3 0.796241 0.034770 0.459368
O O4 0.833860 0.865968 0.620378
O O5 0.500000 0.302904 0.750000
O O6 0.560907 0.281881 0.952297
O O7 0.594893 0.053429 0.856399
O O8 0.959264 0.751277 0.026318
O O9 0.079369 0.535536 0.084408
O O10 0.139192 0.867430 0.137973
O O11 0.810739 0.558610 0.216189
O O12 0.000000 0.670363 0.250000
O O13 0.845975 0.207824 0.347857
#
# Coordination Sequence:
#
# PCOD9261728 Si02
#       6
#     8   8   8   8   8   8
#     4  10  19  33  55  79 106 137 182 229 263 316
#     4  10  20  34  54  75 106 144 187 221 266 324
#     4  10  20  33  53  81 108 141 178 226 273 322
#     4  10  19  31  51  78 104 136 176 219 266 314
#     4  10  19  32  53  80 111 135 174 228 280 319
#     4  10  19  33  54  81 108 136 180 224 270 315
#
# _framework density 27.391833999999999
#
# number of rings (size 3 to 8) (size 9 to 14) (size 15 to 20)
#    0.000    2.000    0.000    6.000    0.000    2.667 
#    0.000    0.000   14.667    0.000    8.667    0.000 
#    0.000    0.000    0.000    0.000    0.000    0.000 
#
# Total GULP energy -134014.861420 kJ/mol
# GULP energy per Si atom -5583.952559 kJ/mol
# Density = 2.732949 g / cm^3
# Si number density = 27.391834 Si / 1000 Ang^3
#
#
#
# Elastic Constant Matrix: (Units=GPa)
#
#
# Indices 1 2 3 4 5 6 
#
# 1 122.4575 26.1758 46.2359 0.0000 65.8496 0.0000
# 2 26.1758 66.9492 40.2631 0.0000 20.0496 0.0000
# 3 46.2359 40.2631 154.6474 0.0000 34.5079 0.0000
# 4 0.0000 0.0000 0.0000 47.9296 0.0000 25.3786
# 5 65.8496 20.0496 34.5079 0.0000 52.0820 0.0000
# 6 0.0000 0.0000 0.0000 25.3786 0.0000 44.3963
#
#
#
# Elastic Compliance Matrix: (Units=1/GPa)
#
#
# Indices 1 2 3 4 5 6 
#
# 1 0.025544 -0.000139 -0.000477 0.000000 -0.031927 0.000000
# 2 -0.000139 0.018620 -0.003809 0.000000 -0.004468 0.000000
# 3 -0.000477 -0.003809 0.008377 0.000000 -0.003482 0.000000
# 4 0.000000 0.000000 0.000000 0.029920 0.000000 -0.017103
# 5 -0.031927 -0.004468 -0.003482 0.000000 0.063595 0.000000
# 6 0.000000 0.000000 0.000000 -0.017103 0.000000 0.032301
#
#
# Mechanical properties :
#
#
# Convention : Reuss Voigt Hill
#
# Bulk Modulus (GPa) = 22.88760 63.26707 43.07734
# Shear Modulus (GPa) = 24.78048 44.30686 34.54367
#
# Velocity S-wave (km/s) = 3.01103 4.02620 3.55504
# Velocity P-wave (km/s) = 4.52351 6.69036 5.71065
#
# Compressibility (1/GPa) = 0.04369178
#
# Stress axis : x y z
#
# Youngs Moduli (GPa) = 39.14780 53.70550 119.36817
#
# Poissons Ratio (x) = 0.00747 0.05690
# Poissons Ratio (y) = 0.00545 0.45469
# Poissons Ratio (z) = 0.01866 0.20457
#
# Static dielectric constant tensor:
#      x y z
#    x 2.202210 0.000000 -0.008590 
#    y 0.000000 2.122780 0.000000 
#    z -0.008590 0.000000 2.234770 
# 
# From -- ./inp_files/247638.got.cif
#   From: 2010.05.17/outbox.cif.g08.bks.cpg/sg15_124_cif.got.tgz:247638.got - 2010.06.03 18:47:42.
