data_PCOD9261177
_publ_section_title
;
Structure prediction by ZEFSAII (Michael W. Deem and Ramdas Pophale) SiO2 
 PCOD9261177
Probable space group: C 2/C
;
_chemical_formula_sum "Si O2"
_cell_formula_units_Z 56
_cell_length_a 16.649780
_cell_length_b 11.764767
_cell_length_c 17.196245
_cell_angle_alpha 90.000000
_cell_angle_beta 51.755146
_cell_angle_gamma 90.000000
_cell_volume 2645.459770
_symmetry_space_group_name_H-M "C 2/C"
_symmetry_group_IT_number 15
_symmetry_cell_setting 'monoclinic'
loop_
_space_group_symop_operation_xyz
x,y,z
-x,y,1/2-z
-x,-y,-z
x,-y,1/2+z
1/2+x,1/2+y,z
1/2-x,1/2+y,1/2-z
1/2-x,1/2-y,-z
1/2+x,1/2-y,1/2+z
loop_
_atom_site_type_symbol
_atom_site_label
_atom_site_fract_x
_atom_site_fract_y
_atom_site_fract_z
Si Si1 0.664013 0.343871 0.034573
Si Si2 0.500000 0.705608 0.250000
Si Si3 0.186574 0.730197 0.411466
Si Si4 0.311397 0.593544 0.448611
Si Si5 0.542622 0.819761 0.502797
Si Si6 0.500000 0.286358 0.250000
Si Si7 0.353978 0.149387 0.721698
Si Si8 0.449887 0.930702 0.700335
O O1 0.706064 0.469783 0.004867
O O2 0.597052 0.290998 0.005996
O O3 0.582867 0.353361 0.153132
O O4 0.750000 0.250000 0.000000
O O5 0.421031 0.628064 0.345889
O O6 0.563186 0.784615 0.272883
O O7 0.234281 0.618717 0.423601
O O8 0.200929 0.821777 0.471526
O O9 0.251197 0.781803 0.301456
O O10 0.070787 0.709461 0.458065
O O11 0.609812 0.851144 0.388623
O O12 0.525498 0.915288 0.580771
O O13 0.564888 0.200627 0.266608
O O14 0.357335 0.015164 0.740102
O O15 0.500000 0.976539 0.750000
#
# Coordination Sequence:
#
# PCOD9261177 Si02
#       8
#     8   4   8   8   8   4   8   8
#     4  11  25  42  69  93 132 177 217 269 340 404
#     4  10  18  40  70  94 132 175 223 270 332 394
#     4  10  24  41  66 101 132 173 227 281 326 397
#     4  10  22  42  69  97 134 175 225 270 338 401
#     4  11  24  44  63 100 139 169 232 276 332 396
#     4   8  20  40  58  98 124 167 217 260 324 400
#     4  11  21  39  67 100 131 176 222 275 332 396
#     4   9  20  38  68  92 130 175 214 272 332 385
#
# _framework density 21.168344000000001
#
# number of rings (size 3 to 8) (size 9 to 14) (size 15 to 20)
#    0.429    1.429    2.143    0.857    2.000    6.286 
#    0.000    1.429    0.000    0.000    0.000    0.000 
#    0.000    0.000    0.000    0.000    0.000    0.000 
#
# Total GULP energy -156097.317491 kJ/mol
# GULP energy per Si atom -5574.904196 kJ/mol
# Density = 2.112016 g / cm^3
# Si number density = 21.168344 Si / 1000 Ang^3
#
#
#
# Elastic Constant Matrix: (Units=GPa)
#
#
# Indices 1 2 3 4 5 6 
#
# 1 77.2079 18.5678 22.6439 0.0000 -8.0247 0.0000
# 2 18.5678 84.8341 4.3267 0.0000 -4.0613 0.0000
# 3 22.6439 4.3267 97.9756 0.0000 16.5369 0.0000
# 4 0.0000 0.0000 0.0000 13.2588 0.0000 -4.1321
# 5 -8.0247 -4.0613 16.5369 0.0000 22.7704 0.0000
# 6 0.0000 0.0000 0.0000 -4.1321 0.0000 8.3293
#
#
#
# Elastic Compliance Matrix: (Units=1/GPa)
#
#
# Indices 1 2 3 4 5 6 
#
# 1 0.016038 -0.002829 -0.005072 0.000000 0.008831 0.000000
# 2 -0.002829 0.012476 -0.000119 0.000000 0.001315 0.000000
# 3 -0.005072 -0.000119 0.013323 0.000000 -0.011484 0.000000
# 4 0.000000 0.000000 0.000000 0.089214 0.000000 0.044258
# 5 0.008831 0.001315 -0.011484 0.000000 0.055604 0.000000
# 6 0.000000 0.000000 0.000000 0.044258 0.000000 0.142013
#
#
# Mechanical properties :
#
#
# Convention : Reuss Voigt Hill
#
# Bulk Modulus (GPa) = 38.76570 39.01048 38.88809
# Shear Modulus (GPa) = 14.15202 23.17033 18.66118
#
# Velocity S-wave (km/s) = 2.58843 3.31202 2.97233
# Velocity P-wave (km/s) = 5.22361 5.75280 5.49458
#
# Compressibility (1/GPa) = 0.02579600
#
# Stress axis : x y z
#
# Youngs Moduli (GPa) = 62.35252 80.15477 75.06071
#
# Poissons Ratio (x) = 0.22674 0.38073
# Poissons Ratio (y) = 0.17638 0.00894
# Poissons Ratio (z) = 0.31627 0.00955
#
# Static dielectric constant tensor:
#      x y z
#    x 1.714330 0.000000 -0.021790 
#    y 0.000000 1.763720 0.000000 
#    z -0.021790 0.000000 1.772750 
# 
# From -- ./inp_files/210603.got.cif
#   From: 2010.05.17/outbox.cif.g08.bks.cpg/sg15_106_cif.got.tgz:210603.got - 2010.06.03 18:47:42.
