data_PCOD9261182
_publ_section_title
;
Structure prediction by ZEFSAII (Michael W. Deem and Ramdas Pophale) SiO2 
 PCOD9261182
Probable space group: C 2/C
;
_chemical_formula_sum "Si O2"
_cell_formula_units_Z 48
_cell_length_a 17.772901
_cell_length_b 13.040772
_cell_length_c 22.927959
_cell_angle_alpha 90.000000
_cell_angle_beta 156.886310
_cell_angle_gamma 90.000000
_cell_volume 2086.073553
_symmetry_space_group_name_H-M "C 2/C"
_symmetry_group_IT_number 15
_symmetry_cell_setting 'monoclinic'
loop_
_space_group_symop_operation_xyz
x,y,z
-x,y,1/2-z
-x,-y,-z
x,-y,1/2+z
1/2+x,1/2+y,z
1/2-x,1/2+y,1/2-z
1/2-x,1/2-y,-z
1/2+x,1/2-y,1/2+z
loop_
_atom_site_type_symbol
_atom_site_label
_atom_site_fract_x
_atom_site_fract_y
_atom_site_fract_z
Si Si1 0.116590 0.178479 0.647755
Si Si2 0.500000 0.778693 0.750000
Si Si3 0.296033 0.447522 0.985372
Si Si4 0.364034 0.104503 0.723844
Si Si5 0.683704 0.157788 0.596863
Si Si6 0.500000 0.714990 0.250000
Si Si7 0.284522 0.966127 0.955181
O O1 0.969844 0.099120 0.572964
O O2 0.004485 0.285567 0.561696
O O3 0.183873 0.139090 0.633348
O O4 0.294695 0.179573 0.819215
O O5 0.644939 0.855077 0.886143
O O6 0.368061 0.713115 0.698717
O O7 0.204910 0.538140 0.880945
O O8 0.343881 0.485641 0.083950
O O9 0.483988 0.205558 0.791782
O O10 0.507179 0.040573 0.866452
O O11 0.195266 0.459817 0.085512
O O12 0.684937 0.642844 0.374974
#
# Coordination Sequence:
#
# PCOD9261182 Si02
#       7
#     8   4   8   8   8   4   8
#     4  11  27  43  71 105 145 181 227 290 360 412
#     4  10  18  40  70  98 132 172 226 280 346 406
#     4  11  21  44  70 103 135 181 234 284 348 412
#     4  12  26  46  67 100 139 190 232 289 346 416
#     4  11  25  45  70 108 138 182 230 295 350 415
#     4  12  26  44  70  98 130 190 236 284 342 416
#     4  12  24  45  73  98 139 180 242 289 340 417
#
# _framework density 23.009734999999999
#
# number of rings (size 3 to 8) (size 9 to 14) (size 15 to 20)
#    0.000    0.667    3.333    4.500    4.667    3.333 
#    3.000    0.000    0.000    0.000    0.000    0.000 
#    0.000    0.000    0.000    0.000    0.000    0.000 
#
# Total GULP energy -134292.104578 kJ/mol
# GULP energy per Si atom -5595.504357 kJ/mol
# Density = 2.295736 g / cm^3
# Si number density = 23.009735 Si / 1000 Ang^3
#
#
#
# Elastic Constant Matrix: (Units=GPa)
#
#
# Indices 1 2 3 4 5 6 
#
# 1 57.0459 10.4209 4.8511 0.0037 0.7449 -0.0022
# 2 10.4209 93.4964 25.3113 0.0074 -9.3972 -0.0006
# 3 4.8511 25.3113 63.5271 0.0141 -14.3264 0.0015
# 4 0.0037 0.0074 0.0141 37.9833 0.0013 -1.6678
# 5 0.7449 -9.3972 -14.3264 0.0013 39.3456 0.0018
# 6 -0.0022 -0.0006 0.0015 -1.6678 0.0018 19.1290
#
#
#
# Elastic Compliance Matrix: (Units=1/GPa)
#
#
# Indices 1 2 3 4 5 6 
#
# 1 0.017961 -0.001877 -0.000873 -0.000001 -0.001106 0.000002
# 2 -0.001877 0.012239 -0.004430 -0.000001 0.001346 0.000000
# 3 -0.000873 -0.004430 0.018889 -0.000006 0.005836 -0.000003
# 4 -0.000001 -0.000001 -0.000006 0.026429 -0.000003 0.002304
# 5 -0.001106 0.001346 0.005836 -0.000003 0.027883 -0.000003
# 6 0.000002 0.000000 -0.000003 0.002304 -0.000003 0.052477
#
#
# Mechanical properties :
#
#
# Convention : Reuss Voigt Hill
#
# Bulk Modulus (GPa) = 28.79334 32.80400 30.79867
# Shear Modulus (GPa) = 27.50044 30.85732 29.17888
#
# Velocity S-wave (km/s) = 3.46087 3.66601 3.56492
# Velocity P-wave (km/s) = 5.33956 5.67513 5.50990
#
# Compressibility (1/GPa) = 0.03473025
#
# Stress axis : x y z
#
# Youngs Moduli (GPa) = 55.67532 81.70437 52.94038
#
# Poissons Ratio (x) = 0.15333 0.04623
# Poissons Ratio (y) = 0.10449 0.23451
# Poissons Ratio (z) = 0.04862 0.36193
#
# Static dielectric constant tensor:
#      x y z
#    x 1.853470 0.000000 -0.011020 
#    y 0.000000 1.844970 -0.000010 
#    z -0.011020 -0.000010 1.923520 
# 
# From -- ./inp_files/300994.got.cif
#   From: 2010.05.17/outbox.cif.g08.bks.cpg/sg15_151_cif.got.tgz:300994.got - 2010.06.03 18:47:42.
