data_PCOD9261757
_publ_section_title
;
Structure prediction by ZEFSAII (Michael W. Deem and Ramdas Pophale) SiO2 
 PCOD9261757
Probable space group: C 2/C
;
_chemical_formula_sum "Si O2"
_cell_formula_units_Z 64
_cell_length_a 12.328348
_cell_length_b 14.648253
_cell_length_c 19.862057
_cell_angle_alpha 90.000000
_cell_angle_beta 105.312691
_cell_angle_gamma 90.000000
_cell_volume 3459.526798
_symmetry_space_group_name_H-M "C 2/C"
_symmetry_group_IT_number 15
_symmetry_cell_setting 'monoclinic'
loop_
_space_group_symop_operation_xyz
x,y,z
-x,y,1/2-z
-x,-y,-z
x,-y,1/2+z
1/2+x,1/2+y,z
1/2-x,1/2+y,1/2-z
1/2-x,1/2-y,-z
1/2+x,1/2-y,1/2+z
loop_
_atom_site_type_symbol
_atom_site_label
_atom_site_fract_x
_atom_site_fract_y
_atom_site_fract_z
Si Si1 0.619437 0.252193 0.503706
Si Si2 0.190567 0.065321 0.171043
Si Si3 0.824168 0.955936 0.980382
Si Si4 0.746078 0.040922 0.690125
Si Si5 0.189510 0.247580 0.781910
Si Si6 0.484858 0.720714 0.851865
Si Si7 0.106832 0.443550 0.042536
Si Si8 0.959644 0.990542 0.130297
O O1 0.750000 0.250000 0.500000
O O2 0.616181 0.357686 0.523814
O O3 0.529711 0.240389 0.429067
O O4 0.595309 0.166628 0.547291
O O5 0.203895 0.016309 0.100335
O O6 0.235663 0.168128 0.182552
O O7 0.057594 0.060051 0.163470
O O8 0.255052 0.011146 0.240057
O O9 0.708580 0.950529 0.004445
O O10 0.907246 0.004985 0.047136
O O11 0.751884 0.149366 0.703991
O O12 0.647954 0.019976 0.621246
O O13 0.859968 0.014089 0.668146
O O14 0.085674 0.242131 0.816809
O O15 0.130522 0.256288 0.699083
O O16 0.484227 0.610603 0.858076
O O17 0.000000 0.500000 0.000000
#
# Coordination Sequence:
#
# PCOD9261757 Si02
#       8
#     8   8   8   8   8   8   8   8
#     4   9  16  31  53  74 102 137 180 216 266 317
#     4  12  20  31  57  88 110 138 183 232 276 313
#     4   9  19  34  54  83 106 138 182 233 265 316
#     4  10  21  37  54  81 114 147 181 225 272 330
#     4  10  19  31  52  82 112 137 178 228 278 316
#     4   9  17  32  53  78 109 137 174 230 271 316
#     4  10  20  34  54  76 114 147 179 213 275 334
#     4   9  18  36  58  80 108 144 182 224 270 323
#
# _framework density 18.499641
#
# number of rings (size 3 to 8) (size 9 to 14) (size 15 to 20)
#    0.000    2.250    1.250    5.250    1.750    0.000 
#    0.000    0.000    0.000    6.000    0.000   10.500 
#    0.000    0.000    0.000    0.000    0.000    0.000 
#
# Total GULP energy -178232.695246 kJ/mol
# GULP energy per Si atom -5569.771726 kJ/mol
# Density = 1.845753 g / cm^3
# Si number density = 18.499641 Si / 1000 Ang^3
#
#
#
# Elastic Constant Matrix: (Units=GPa)
#
#
# Indices 1 2 3 4 5 6 
#
# 1 42.5274 36.8298 30.6753 0.0000 23.2997 0.0000
# 2 36.8298 65.5926 28.6764 0.0000 9.4116 0.0000
# 3 30.6753 28.6764 157.2517 0.0000 16.7933 0.0000
# 4 0.0000 0.0000 0.0000 23.2715 0.0000 5.1063
# 5 23.2997 9.4116 16.7933 0.0000 31.5144 0.0000
# 6 0.0000 0.0000 0.0000 5.1063 0.0000 24.6712
#
#
#
# Elastic Compliance Matrix: (Units=1/GPa)
#
#
# Indices 1 2 3 4 5 6 
#
# 1 0.093139 -0.042552 -0.004679 0.000000 -0.053660 0.000000
# 2 -0.042552 0.036388 -0.000566 0.000000 0.020895 0.000000
# 3 -0.004679 -0.000566 0.007409 0.000000 -0.000320 0.000000
# 4 0.000000 0.000000 0.000000 0.045015 0.000000 -0.009317
# 5 -0.053660 0.020895 -0.000320 0.000000 0.065334 0.000000
# 6 0.000000 0.000000 0.000000 -0.009317 0.000000 0.042461
#
#
# Mechanical properties :
#
#
# Convention : Reuss Voigt Hill
#
# Bulk Modulus (GPa) = 24.18843 50.85942 37.52392
# Shear Modulus (GPa) = 12.52750 27.17077 19.84914
#
# Velocity S-wave (km/s) = 2.60508 3.83654 3.27914
# Velocity P-wave (km/s) = 4.70660 6.86857 5.88767
#
# Compressibility (1/GPa) = 0.04134209
#
# Stress axis : x y z
#
# Youngs Moduli (GPa) = 10.73666 27.48172 134.96461
#
# Poissons Ratio (x) = 1.16940 0.63143
# Poissons Ratio (y) = 0.45687 0.07644
# Poissons Ratio (z) = 0.05023 0.01557
#
# Static dielectric constant tensor:
#      x y z
#    x 1.633800 0.000000 0.007270 
#    y 0.000000 1.655780 0.000000 
#    z 0.007270 0.000000 1.741070 
# 
# From -- ./inp_files/238775.got.cif
#   From: 2010.05.17/outbox.cif.g08.bks.cpg/sg15_120_cif.got.tgz:238775.got - 2010.06.03 18:47:42.
