data_PCOD9261964
_publ_section_title
;
Structure prediction by ZEFSAII (Michael W. Deem and Ramdas Pophale) SiO2 
 PCOD9261964
Probable space group: C 2/C
;
_chemical_formula_sum "Si O2"
_cell_formula_units_Z 56
_cell_length_a 14.617054
_cell_length_b 12.518119
_cell_length_c 30.952515
_cell_angle_alpha 90.000000
_cell_angle_beta 143.825881
_cell_angle_gamma 90.000000
_cell_volume 3342.907153
_symmetry_space_group_name_H-M "C 2/C"
_symmetry_group_IT_number 15
_symmetry_cell_setting 'monoclinic'
loop_
_space_group_symop_operation_xyz
x,y,z
-x,y,1/2-z
-x,-y,-z
x,-y,1/2+z
1/2+x,1/2+y,z
1/2-x,1/2+y,1/2-z
1/2-x,1/2-y,-z
1/2+x,1/2-y,1/2+z
loop_
_atom_site_type_symbol
_atom_site_label
_atom_site_fract_x
_atom_site_fract_y
_atom_site_fract_z
Si Si1 0.068270 0.087142 0.706778
Si Si2 0.719752 0.046960 0.920873
Si Si3 0.737830 0.557991 0.150718
Si Si4 0.919688 0.049750 0.079903
Si Si5 0.376133 0.726930 0.134700
Si Si6 0.000000 0.735717 0.250000
Si Si7 0.500000 0.410703 0.750000
Si Si8 0.382294 0.902924 0.274507
O O1 0.009571 0.187717 0.711799
O O2 0.238293 0.102325 0.751722
O O3 0.956937 0.050053 0.625335
O O4 0.071332 0.986996 0.740708
O O5 0.737204 0.173089 0.915390
O O6 0.790043 0.978361 0.908926
O O7 0.532734 0.031794 0.848941
O O8 0.794595 0.026725 0.995469
O O9 0.580129 0.577531 0.116584
O O10 0.825510 0.460697 0.209183
O O11 0.850551 0.659385 0.193563
O O12 0.871608 0.147976 0.092350
O O13 0.370084 0.659099 0.176072
O O14 0.543873 0.785750 0.202584
#
# Coordination Sequence:
#
# PCOD9261964 Si02
#       8
#     8   8   8   8   8   4   4   8
#     4   9  20  32  51  72  97 129 160 200 238 287
#     4  10  19  32  51  73 101 125 159 200 241 286
#     4  11  19  33  54  73  95 129 164 204 233 278
#     4  10  20  33  50  73 102 129 155 193 251 290
#     4   9  17  30  52  73  96 123 161 197 238 283
#     4  11  18  35  54  72  94 125 172 199 234 278
#     4   9  16  31  50  72  98 121 160 205 238 274
#     4   9  18  32  51  75  94 124 167 198 237 278
#
# _framework density 16.751885999999999
#
# number of rings (size 3 to 8) (size 9 to 14) (size 15 to 20)
#    0.857    1.429    1.429    2.571    0.000    0.000 
#    0.000    0.714    3.143    2.571    0.000    0.000 
#    0.000    0.000    0.000    0.000    0.000    0.000 
#
# Total GULP energy -155880.931114 kJ/mol
# GULP energy per Si atom -5567.176111 kJ/mol
# Density = 1.671376 g / cm^3
# Si number density = 16.751886 Si / 1000 Ang^3
#
#
#
# Elastic Constant Matrix: (Units=GPa)
#
#
# Indices 1 2 3 4 5 6 
#
# 1 49.7448 17.5498 21.8441 0.0000 -21.0150 0.0000
# 2 17.5498 57.8593 19.1117 0.0000 -20.2111 0.0000
# 3 21.8441 19.1117 88.8144 0.0000 -30.4353 0.0000
# 4 0.0000 0.0000 0.0000 8.5895 0.0000 -1.0221
# 5 -21.0150 -20.2111 -30.4353 0.0000 27.8860 0.0000
# 6 0.0000 0.0000 0.0000 -1.0221 0.0000 15.9850
#
#
#
# Elastic Compliance Matrix: (Units=1/GPa)
#
#
# Indices 1 2 3 4 5 6 
#
# 1 0.029614 -0.001555 0.000499 0.000000 0.021735 0.000000
# 2 -0.001555 0.023308 0.001205 0.000000 0.017036 0.000000
# 3 0.000499 0.001205 0.018060 0.000000 0.020961 0.000000
# 4 0.000000 0.000000 0.000000 0.117314 0.000000 0.007501
# 5 0.021735 0.017036 0.020961 0.000000 0.087465 0.000000
# 6 0.000000 0.000000 0.000000 0.007501 0.000000 0.063038
#
#
# Mechanical properties :
#
#
# Convention : Reuss Voigt Hill
#
# Bulk Modulus (GPa) = 14.02897 34.82549 24.42723
# Shear Modulus (GPa) = 13.80217 19.68628 16.74423
#
# Velocity S-wave (km/s) = 2.87351 3.43179 3.16498
# Velocity P-wave (km/s) = 4.40479 6.04459 5.28863
#
# Compressibility (1/GPa) = 0.07128105
#
# Stress axis : x y z
#
# Youngs Moduli (GPa) = 33.76765 42.90368 55.36991
#
# Poissons Ratio (x) = 0.06671 -0.02764
# Poissons Ratio (y) = 0.05251 -0.06672
# Poissons Ratio (z) = -0.01686 -0.05170
#
# Static dielectric constant tensor:
#      x y z
#    x 1.552160 0.000000 -0.004540 
#    y 0.000000 1.575340 0.000000 
#    z -0.004540 0.000000 1.562130 
# 
# From -- ./inp_files/243352.got.cif
#   From: 2010.05.17/outbox.cif.g08.bks.cpg/sg15_122_cif.got.tgz:243352.got - 2010.06.03 18:47:42.
