data_PCOD9261245
_publ_section_title
;
Structure prediction by ZEFSAII (Michael W. Deem and Ramdas Pophale) SiO2 
 PCOD9261245
Probable space group: C 2/C
;
_chemical_formula_sum "Si O2"
_cell_formula_units_Z 48
_cell_length_a 15.513789
_cell_length_b 8.403295
_cell_length_c 32.141897
_cell_angle_alpha 90.000000
_cell_angle_beta 33.496042
_cell_angle_gamma 90.000000
_cell_volume 2312.507566
_symmetry_space_group_name_H-M "C 2/C"
_symmetry_group_IT_number 15
_symmetry_cell_setting 'monoclinic'
loop_
_space_group_symop_operation_xyz
x,y,z
-x,y,1/2-z
-x,-y,-z
x,-y,1/2+z
1/2+x,1/2+y,z
1/2-x,1/2+y,1/2-z
1/2-x,1/2-y,-z
1/2+x,1/2-y,1/2+z
loop_
_atom_site_type_symbol
_atom_site_label
_atom_site_fract_x
_atom_site_fract_y
_atom_site_fract_z
Si Si1 0.000000 0.983077 0.250000
Si Si2 0.919462 0.905140 0.995735
Si Si3 0.669379 0.724177 0.129623
Si Si4 0.025545 0.278748 0.374129
Si Si5 0.645677 0.109759 0.064182
Si Si6 0.617645 0.236001 0.268262
Si Si7 0.500000 0.990065 0.250000
O O1 0.863503 0.087350 0.324596
O O2 0.937628 0.882967 0.236968
O O3 0.010528 0.841548 0.918973
O O4 0.846151 0.748074 0.045970
O O5 0.777459 0.015736 0.037179
O O6 0.000000 0.000000 0.000000
O O7 0.572492 0.712440 0.125714
O O8 0.608352 0.880546 0.178017
O O9 0.951204 0.453790 0.415236
O O10 0.207268 0.275418 0.287917
O O11 0.509771 0.196885 0.145268
O O12 0.750000 0.250000 0.000000
O O13 0.603331 0.093167 0.240260
#
# Coordination Sequence:
#
# PCOD9261245 Si02
#       7
#     4   8   8   8   8   8   4
#     4  10  26  36  66  92 134 168 216 276 332 392
#     4  11  24  45  68  98 134 182 224 278 340 409
#     4  10  21  42  64  96 130 178 223 269 336 403
#     4  11  25  42  71  96 134 178 229 273 341 406
#     4  11  26  46  67 100 136 177 225 287 338 404
#     4  11  24  42  65  99 132 172 224 279 343 394
#     4  10  18  42  66  88 140 168 224 270 336 396
#
# _framework density 20.756688
#
# number of rings (size 3 to 8) (size 9 to 14) (size 15 to 20)
#    0.000    1.333    3.333    3.000    9.333    1.333 
#    3.000    1.667    0.000    0.000    0.000    0.000 
#    0.000    0.000    0.000    0.000    0.000    0.000 
#
# Total GULP energy -133760.108657 kJ/mol
# GULP energy per Si atom -5573.337861 kJ/mol
# Density = 2.070945 g / cm^3
# Si number density = 20.756688 Si / 1000 Ang^3
#
#
#
# Elastic Constant Matrix: (Units=GPa)
#
#
# Indices 1 2 3 4 5 6 
#
# 1 72.1225 36.2709 44.9994 0.0000 -7.6761 0.0043
# 2 36.2709 92.9203 49.1650 0.0012 7.2090 0.0123
# 3 44.9994 49.1650 143.6549 -0.0002 4.8468 0.0006
# 4 0.0000 0.0012 -0.0002 38.5488 0.0000 26.3800
# 5 -7.6761 7.2090 4.8468 0.0000 35.8343 0.0021
# 6 0.0043 0.0123 0.0006 26.3800 0.0021 21.9994
#
#
#
# Elastic Compliance Matrix: (Units=1/GPa)
#
#
# Indices 1 2 3 4 5 6 
#
# 1 0.020389 -0.006044 -0.004527 0.000005 0.006196 -0.000007
# 2 -0.006044 0.015084 -0.003137 0.000023 -0.003905 -0.000034
# 3 -0.004527 -0.003137 0.009508 -0.000009 -0.001625 0.000013
# 4 0.000005 0.000023 -0.000009 0.144593 0.000008 -0.173384
# 5 0.006196 -0.003905 -0.001625 0.000008 0.030239 -0.000011
# 6 -0.000007 -0.000034 0.000013 -0.173384 -0.000011 0.253364
#
#
# Mechanical properties :
#
#
# Convention : Reuss Voigt Hill
#
# Bulk Modulus (GPa) = 56.93607 63.28536 60.11071
# Shear Modulus (GPa) = 9.87267 31.16067 20.51667
#
# Velocity S-wave (km/s) = 2.18328 3.87878 3.14735
# Velocity P-wave (km/s) = 5.81768 7.11444 6.49849
#
# Compressibility (1/GPa) = 0.01756356
#
# Stress axis : x y z
#
# Youngs Moduli (GPa) = 49.04606 66.29473 105.17585
#
# Poissons Ratio (x) = 0.40068 0.47616
# Poissons Ratio (y) = 0.29643 0.32999
# Poissons Ratio (z) = 0.22205 0.20800
#
# Static dielectric constant tensor:
#      x y z
#    x 1.608930 0.000010 -0.035470 
#    y 0.000010 1.810370 0.000010 
#    z -0.035470 0.000010 1.763630 
# 
# From -- ./inp_files/312832.got.cif
#   From: 2010.05.17/outbox.cif.g08.bks.cpg/sg15_157_cif.got.tgz:312832.got - 2010.06.03 18:47:42.
