data_PCOD9261336
_publ_section_title
;
Structure prediction by ZEFSAII (Michael W. Deem and Ramdas Pophale) SiO2 
 PCOD9261336
Probable space group: C 2/C
;
_chemical_formula_sum "Si O2"
_cell_formula_units_Z 64
_cell_length_a 23.847232
_cell_length_b 29.568044
_cell_length_c 5.505557
_cell_angle_alpha 90.000000
_cell_angle_beta 90.000303
_cell_angle_gamma 90.000000
_cell_volume 3882.056357
_symmetry_space_group_name_H-M "C 2/C"
_symmetry_group_IT_number 15
_symmetry_cell_setting 'monoclinic'
loop_
_space_group_symop_operation_xyz
x,y,z
-x,y,1/2-z
-x,-y,-z
x,-y,1/2+z
1/2+x,1/2+y,z
1/2-x,1/2+y,1/2-z
1/2-x,1/2-y,-z
1/2+x,1/2-y,1/2+z
loop_
_atom_site_type_symbol
_atom_site_label
_atom_site_fract_x
_atom_site_fract_y
_atom_site_fract_z
Si Si1 0.163227 0.278060 0.499998
Si Si2 0.233802 0.865067 0.499997
Si Si3 0.210485 0.818899 0.999997
Si Si4 0.029492 0.441064 0.500001
Si Si5 0.361282 0.825088 0.500002
Si Si6 0.014836 0.341347 1.000000
Si Si7 0.156884 0.545209 0.999956
Si Si8 0.800069 0.443475 0.500045
O O1 0.169308 0.223994 0.500000
O O2 0.226589 0.298118 0.500001
O O3 0.136746 0.296206 0.249600
O O4 0.136746 0.296206 0.750395
O O5 0.206756 0.846856 0.251279
O O6 0.299343 0.847836 0.500001
O O7 0.240116 0.919489 0.500002
O O8 0.206755 0.846854 0.748711
O O9 0.090993 0.461706 0.500003
O O10 0.000000 0.453626 0.250000
O O11 0.024697 0.386170 0.500001
O O12 0.000000 0.453626 0.750000
O O13 0.419008 0.853911 0.500002
O O14 0.000000 0.316784 0.250000
O O15 0.000000 0.316783 0.750000
O O16 0.190701 0.497765 0.999939
O O17 0.171789 0.570728 0.246249
O O18 0.171774 0.570724 0.753634
#
# Coordination Sequence:
#
# PCOD9261336 Si02
#       8
#     8   8   8   8   8   8   8   8
#     4   9  17  30  46  62  89  99 124 151 193 282
#     4  10  19  28  48  63  83 101 129 164 207 271
#     4   9  17  30  44  70  82 102 117 152 205 257
#     4  10  21  34  48  59  73 104 134 194 227 261
#     4  10  19  29  44  63  78 113 130 160 215 253
#     4  10  21  31  43  60  82 106 143 185 213 252
#     4  10  21  36  49  57  79 107 142 179 230 257
#     4  10  21  34  47  63  78 104 136 181 208 284
#
# _framework density 16.486108999999999
#
# number of rings (size 3 to 8) (size 9 to 14) (size 15 to 20)
#    0.000    2.250    0.000    3.000    7.000    3.000 
#    0.000    7.500    0.000    0.000    0.000    0.000 
#    0.000    0.000    0.000    0.000    0.000    0.000 
#
# Total GULP energy -178219.979490 kJ/mol
# GULP energy per Si atom -5569.374359 kJ/mol
# Density = 1.644859 g / cm^3
# Si number density = 16.486109 Si / 1000 Ang^3
#
#
#
# Elastic Constant Matrix: (Units=GPa)
#
#
# Indices 1 2 3 4 5 6 
#
# 1 13.7263 13.8499 8.1000 0.0000 -0.0009 0.0000
# 2 13.8499 62.0104 32.1773 0.0000 0.0014 0.0000
# 3 8.1000 32.1773 184.3795 0.0000 0.0052 0.0000
# 4 0.0000 0.0000 0.0000 4.0814 0.0000 0.0127
# 5 -0.0009 0.0014 0.0052 0.0000 20.4075 0.0000
# 6 0.0000 0.0000 0.0000 0.0127 0.0000 91.4913
#
#
#
# Elastic Compliance Matrix: (Units=1/GPa)
#
#
# Indices 1 2 3 4 5 6 
#
# 1 0.094091 -0.020749 -0.000512 0.000000 0.000006 0.000000
# 2 -0.020749 0.022308 -0.002982 0.000000 -0.000002 0.000000
# 3 -0.000512 -0.002982 0.005966 0.000000 -0.000001 0.000000
# 4 0.000000 0.000000 0.000000 0.245014 0.000000 -0.000034
# 5 0.000006 -0.000002 -0.000001 0.000000 0.049002 0.000000
# 6 0.000000 0.000000 0.000000 -0.000034 0.000000 0.010930
#
#
# Mechanical properties :
#
#
# Convention : Reuss Voigt Hill
#
# Bulk Modulus (GPa) = 13.53565 40.93008 27.23287
# Shear Modulus (GPa) = 9.99155 36.92865 23.46010
#
# Velocity S-wave (km/s) = 2.46450 4.73798 3.77639
# Velocity P-wave (km/s) = 4.04061 7.40353 5.96401
#
# Compressibility (1/GPa) = 0.07387896
#
# Stress axis : x y z
#
# Youngs Moduli (GPa) = 10.62801 44.82761 167.60427
#
# Poissons Ratio (x) = 0.93013 0.08590
# Poissons Ratio (y) = 0.22052 0.49972
# Poissons Ratio (z) = 0.00545 0.13365
#
# Static dielectric constant tensor:
#      x y z
#    x 1.524790 0.000000 0.000000 
#    y 0.000000 1.620190 0.000000 
#    z 0.000000 0.000000 1.636940 
# 
# From -- ./inp_files/16377.got.cif
#   From: 2010.05.17/outbox.cif.g08.bks.cpg/sg15_9_cif.got.tgz:16377.got - 2010.06.03 18:47:42.
