data_PCOD9261471
_publ_section_title
;
Structure prediction by ZEFSAII (Michael W. Deem and Ramdas Pophale) SiO2 
 PCOD9261471
Probable space group: C 2/C
;
_chemical_formula_sum "Si O2"
_cell_formula_units_Z 56
_cell_length_a 20.412256
_cell_length_b 25.200320
_cell_length_c 16.750185
_cell_angle_alpha 90.000000
_cell_angle_beta 159.758229
_cell_angle_gamma 90.000000
_cell_volume 2981.058927
_symmetry_space_group_name_H-M "C 2/C"
_symmetry_group_IT_number 15
_symmetry_cell_setting 'monoclinic'
loop_
_space_group_symop_operation_xyz
x,y,z
-x,y,1/2-z
-x,-y,-z
x,-y,1/2+z
1/2+x,1/2+y,z
1/2-x,1/2+y,1/2-z
1/2-x,1/2-y,-z
1/2+x,1/2-y,1/2+z
loop_
_atom_site_type_symbol
_atom_site_label
_atom_site_fract_x
_atom_site_fract_y
_atom_site_fract_z
Si Si1 0.240648 0.892247 0.162969
Si Si2 0.532011 0.708739 0.380867
Si Si3 0.137280 0.584450 0.121090
Si Si4 0.280354 0.478445 0.504354
Si Si5 0.464289 0.559954 0.928087
Si Si6 0.375747 0.825694 0.028018
Si Si7 0.624028 0.006456 0.485370
O O1 0.438271 0.903657 0.434791
O O2 0.080985 0.908370 0.043388
O O3 0.231835 0.929961 0.073580
O O4 0.200594 0.831962 0.092587
O O5 0.500000 0.710988 0.250000
O O6 0.560046 0.769615 0.437115
O O7 0.339569 0.684755 0.194018
O O8 0.347705 0.583643 0.397768
O O9 0.120787 0.626954 0.030540
O O10 0.124667 0.526359 0.067819
O O11 0.216455 0.467180 0.522894
O O12 0.100280 0.517233 0.281266
O O13 0.500000 0.496340 0.750000
O O14 0.274755 0.553901 0.659208
O O15 0.500000 0.500000 0.000000
O O16 0.500000 0.836022 0.250000
#
# Coordination Sequence:
#
# PCOD9261471 Si02
#       7
#     8   8   8   8   8   8   8
#     4  11  21  32  50  70  95 131 173 203 248 286
#     4  11  21  32  45  68  95 128 170 214 246 282
#     4  10  20  32  48  66  92 126 165 207 245 283
#     4  10  19  30  48  69  93 125 160 206 243 281
#     4  10  20  35  48  67  95 128 168 206 243 296
#     4  11  21  32  46  67  96 127 170 214 250 277
#     4   9  21  32  46  69  93 124 166 201 244 292
#
# _framework density 18.785271000000002
#
# number of rings (size 3 to 8) (size 9 to 14) (size 15 to 20)
#    0.000    1.714    1.429    5.571    6.000    6.286 
#    0.000    0.000    0.000    0.000    0.000    0.000 
#    0.000    0.000    0.000    5.143    8.000    5.571 
#
# Total GULP energy -155912.452290 kJ/mol
# GULP energy per Si atom -5568.301867 kJ/mol
# Density = 1.874251 g / cm^3
# Si number density = 18.785271 Si / 1000 Ang^3
#
#
#
# Elastic Constant Matrix: (Units=GPa)
#
#
# Indices 1 2 3 4 5 6 
#
# 1 34.2623 2.7761 8.3908 0.0000 15.5630 0.0000
# 2 2.7761 59.0539 34.6968 0.0000 -3.7432 0.0000
# 3 8.3908 34.6968 169.4661 -0.0001 25.7744 0.0000
# 4 0.0000 0.0000 -0.0001 37.7823 -0.0001 9.2694
# 5 15.5630 -3.7432 25.7744 -0.0001 26.3063 0.0000
# 6 0.0000 0.0000 0.0000 9.2694 0.0000 20.4595
#
#
#
# Elastic Compliance Matrix: (Units=1/GPa)
#
#
# Indices 1 2 3 4 5 6 
#
# 1 0.042074 -0.005934 0.003579 0.000000 -0.029242 0.000000
# 2 -0.005934 0.021534 -0.006011 0.000000 0.012464 0.000000
# 3 0.003579 -0.006011 0.008703 0.000000 -0.011500 0.000000
# 4 0.000000 0.000000 0.000000 0.029777 0.000000 -0.013491
# 5 -0.029242 0.012464 -0.011500 0.000000 0.068355 0.000000
# 6 0.000000 0.000000 0.000000 -0.013491 0.000000 0.054989
#
#
# Mechanical properties :
#
#
# Convention : Reuss Voigt Hill
#
# Bulk Modulus (GPa) = 17.99229 39.38999 28.69114
# Shear Modulus (GPa) = 19.17978 31.37088 25.27533
#
# Velocity S-wave (km/s) = 3.19878 4.09096 3.67207
# Velocity P-wave (km/s) = 4.82095 6.58245 5.76933
#
# Compressibility (1/GPa) = 0.05557935
#
# Stress axis : x y z
#
# Youngs Moduli (GPa) = 23.76790 46.43736 114.89713
#
# Poissons Ratio (x) = 0.27558 -0.41126
# Poissons Ratio (y) = 0.14105 0.69063
# Poissons Ratio (z) = -0.08507 0.27913
#
# Static dielectric constant tensor:
#      x y z
#    x 1.721910 0.000000 0.015000 
#    y 0.000000 1.664840 0.000000 
#    z 0.015000 0.000000 1.852530 
# 
# From -- ./inp_files/216925.got.cif
#   From: 2010.05.17/outbox.cif.g08.bks.cpg/sg15_109_cif.got.tgz:216925.got - 2010.06.03 18:47:42.
