data_PCOD9261811
_publ_section_title
;
Structure prediction by ZEFSAII (Michael W. Deem and Ramdas Pophale) SiO2 
 PCOD9261811
Probable space group: C 2/C
;
_chemical_formula_sum "Si O2"
_cell_formula_units_Z 48
_cell_length_a 5.011174
_cell_length_b 17.471442
_cell_length_c 27.896366
_cell_angle_alpha 90.000000
_cell_angle_beta 68.252831
_cell_angle_gamma 90.000000
_cell_volume 2268.564334
_symmetry_space_group_name_H-M "C 2/C"
_symmetry_group_IT_number 15
_symmetry_cell_setting 'monoclinic'
loop_
_space_group_symop_operation_xyz
x,y,z
-x,y,1/2-z
-x,-y,-z
x,-y,1/2+z
1/2+x,1/2+y,z
1/2-x,1/2+y,1/2-z
1/2-x,1/2-y,-z
1/2+x,1/2-y,1/2+z
loop_
_atom_site_type_symbol
_atom_site_label
_atom_site_fract_x
_atom_site_fract_y
_atom_site_fract_z
Si Si1 0.840383 0.299351 0.133649
Si Si2 0.280980 0.612813 0.305985
Si Si3 0.203072 0.331275 0.475554
Si Si4 0.850395 0.885146 0.631520
Si Si5 0.897999 0.082140 0.487565
Si Si6 0.217433 0.700090 0.694393
O O1 0.825628 0.320988 0.079242
O O2 0.847070 0.207044 0.133460
O O3 0.544230 0.324709 0.178353
O O4 0.100459 0.324211 0.150127
O O5 0.500000 0.587651 0.250000
O O6 0.400683 0.588368 0.349565
O O7 0.280750 0.706330 0.304210
O O8 0.951574 0.588008 0.326242
O O9 0.250000 0.250000 0.500000
O O10 0.493910 0.369234 0.474508
O O11 0.922106 0.385739 0.505470
O O12 0.912479 0.905564 0.572803
O O13 0.000000 0.000000 0.500000
O O14 0.000000 0.674551 0.750000
#
# Coordination Sequence:
#
# PCOD9261811 Si02
#       6
#     8   8   8   8   8   8
#     4  10  19  31  54  83 111 152 198 244 295 357
#     4   9  17  29  49  80 114 147 189 242 302 360
#     4  12  24  40  64  89 120 161 211 252 302 369
#     4  10  19  32  54  80 116 153 192 243 305 354
#     4  12  26  42  60  89 126 166 206 255 314 373
#     4   9  17  29  47  79 119 148 182 240 310 360
#
# _framework density 21.158753999999998
#
# number of rings (size 3 to 8) (size 9 to 14) (size 15 to 20)
#    0.000    1.667    1.667    4.000    4.667    4.000 
#    0.000    0.000    0.000    0.000    0.000   23.333 
#    0.000    0.000    0.000    0.000    0.000    0.000 
#
# Total GULP energy -133673.983161 kJ/mol
# GULP energy per Si atom -5569.749298 kJ/mol
# Density = 2.111060 g / cm^3
# Si number density = 21.158754 Si / 1000 Ang^3
#
#
#
# Elastic Constant Matrix: (Units=GPa)
#
#
# Indices 1 2 3 4 5 6 
#
# 1 80.6979 5.6558 -7.0763 0.0000 -0.1814 0.0000
# 2 5.6558 17.3089 0.8993 0.0000 1.5617 0.0000
# 3 -7.0763 0.8993 74.3480 0.0000 -1.9263 0.0000
# 4 0.0000 0.0000 0.0000 6.0733 0.0000 3.6337
# 5 -0.1814 1.5617 -1.9263 0.0000 37.5819 0.0000
# 6 0.0000 0.0000 0.0000 3.6337 0.0000 14.0805
#
#
#
# Elastic Compliance Matrix: (Units=1/GPa)
#
#
# Indices 1 2 3 4 5 6 
#
# 1 0.012804 -0.004278 0.001278 0.000000 0.000305 0.000000
# 2 -0.004278 0.059464 -0.001193 0.000000 -0.002553 0.000000
# 3 0.001278 -0.001193 0.013606 0.000000 0.000753 0.000000
# 4 0.000000 0.000000 0.000000 0.194722 0.000000 -0.050251
# 5 0.000305 -0.002553 0.000753 0.000000 0.026755 0.000000
# 6 0.000000 0.000000 0.000000 -0.050251 0.000000 0.083988
#
#
# Mechanical properties :
#
#
# Convention : Reuss Voigt Hill
#
# Bulk Modulus (GPa) = 12.90487 19.03472 15.96979
# Shear Modulus (GPa) = 11.74941 23.07220 17.41080
#
# Velocity S-wave (km/s) = 2.35903 3.30575 2.87167
# Velocity P-wave (km/s) = 3.67863 4.85658 4.30806
#
# Compressibility (1/GPa) = 0.07749013
#
# Stress axis : x y z
#
# Youngs Moduli (GPa) = 78.09759 16.81690 73.49772
#
# Poissons Ratio (x) = 0.07194 -0.09396
# Poissons Ratio (y) = 0.33409 0.08765
# Poissons Ratio (z) = -0.09984 0.02005
#
# Static dielectric constant tensor:
#      x y z
#    x 1.765450 0.000000 -0.002970 
#    y 0.000000 1.872040 0.000000 
#    z -0.002970 0.000000 1.788510 
# 
# From -- ./inp_files/285758.got.cif
#   From: 2010.05.17/outbox.cif.g08.bks.cpg/sg15_143_cif.got.tgz:285758.got - 2010.06.03 18:47:42.
