data_PCOD9261122
_publ_section_title
;
Structure prediction by ZEFSAII (Michael W. Deem and Ramdas Pophale) SiO2 
 PCOD9261122
Probable space group: C 2/C
;
_chemical_formula_sum "Si O2"
_cell_formula_units_Z 48
_cell_length_a 9.628687
_cell_length_b 25.689559
_cell_length_c 15.317707
_cell_angle_alpha 90.000000
_cell_angle_beta 142.118726
_cell_angle_gamma 90.000000
_cell_volume 2326.511139
_symmetry_space_group_name_H-M "C 2/C"
_symmetry_group_IT_number 15
_symmetry_cell_setting 'monoclinic'
loop_
_space_group_symop_operation_xyz
x,y,z
-x,y,1/2-z
-x,-y,-z
x,-y,1/2+z
1/2+x,1/2+y,z
1/2-x,1/2+y,1/2-z
1/2-x,1/2-y,-z
1/2+x,1/2-y,1/2+z
loop_
_atom_site_type_symbol
_atom_site_label
_atom_site_fract_x
_atom_site_fract_y
_atom_site_fract_z
Si Si1 0.428229 0.531528 0.549297
Si Si2 0.819126 0.630825 0.335524
Si Si3 0.471845 0.195421 0.919033
Si Si4 0.742934 0.878137 0.323445
Si Si5 0.960408 0.809058 0.569678
Si Si6 0.500000 0.458327 0.750000
Si Si7 0.000000 0.414505 0.750000
O O1 0.500000 0.500000 0.500000
O O2 0.625054 0.575020 0.657753
O O3 0.424410 0.494364 0.631628
O O4 0.186321 0.553738 0.398459
O O5 0.009099 0.656300 0.490356
O O6 0.629016 0.674545 0.229150
O O7 0.703572 0.579950 0.320838
O O8 0.890249 0.618775 0.272500
O O9 0.305928 0.169280 0.766829
O O10 0.443555 0.256295 0.925528
O O11 0.713822 0.196199 0.990115
O O12 0.500000 0.891956 0.250000
O O13 0.916070 0.856054 0.481049
#
# Coordination Sequence:
#
# PCOD9261122 Si02
#       7
#     8   8   8   8   8   4   4
#     4  12  27  46  67  99 135 180 232 283 346 406
#     4  12  23  44  66 100 138 175 226 275 342 405
#     4  10  21  34  72 103 129 172 222 280 325 396
#     4  10  22  39  65  98 137 170 216 280 333 399
#     4  10  18  40  66 102 136 170 218 274 339 390
#     4  12  26  44  72  97 129 180 234 290 330 410
#     4  12  28  46  68  91 141 184 214 286 350 402
#
# _framework density 20.631751000000001
#
# number of rings (size 3 to 8) (size 9 to 14) (size 15 to 20)
#    0.000    1.000    5.000    1.000    5.833    3.333 
#    0.000    0.833    0.000    0.000    0.000    0.000 
#    0.000    0.000    0.000    0.000    0.000    0.000 
#
# Total GULP energy -133894.443290 kJ/mol
# GULP energy per Si atom -5578.935137 kJ/mol
# Density = 2.058479 g / cm^3
# Si number density = 20.631751 Si / 1000 Ang^3
#
#
#
# Elastic Constant Matrix: (Units=GPa)
#
#
# Indices 1 2 3 4 5 6 
#
# 1 81.9761 38.3904 16.3792 0.0000 -21.2466 0.0000
# 2 38.3904 91.9238 13.5129 0.0000 -1.7881 0.0000
# 3 16.3792 13.5129 72.5149 0.0000 -4.3239 0.0000
# 4 0.0000 0.0000 0.0000 -17.3807 0.0000 7.0233
# 5 -21.2466 -1.7881 -4.3239 0.0000 32.4918 0.0000
# 6 0.0000 0.0000 0.0000 7.0233 0.0000 0.4136
#
#
#
# Elastic Compliance Matrix: (Units=1/GPa)
#
#
# Indices 1 2 3 4 5 6 
#
# 1 0.019215 -0.007465 -0.002242 0.000000 0.011856 0.000000
# 2 -0.007465 0.014089 -0.001194 0.000000 -0.004265 0.000000
# 3 -0.002242 -0.001194 0.014543 0.000000 0.000403 0.000000
# 4 0.000000 0.000000 0.000000 -0.007318 0.000000 0.124273
# 5 0.011856 -0.004265 0.000403 0.000000 0.038348 0.000000
# 6 0.000000 0.000000 0.000000 0.124273 0.000000 0.307542
#
#
# Mechanical properties :
#
#
# Convention : Reuss Voigt Hill
#
# Bulk Modulus (GPa) = 38.39366 42.55333 40.47350
# Shear Modulus (GPa) = 11.99321 14.98043 13.48682
#
# Velocity S-wave (km/s) = 2.41363 2.69752 2.55951
# Velocity P-wave (km/s) = 5.13974 5.51109 5.32865
#
# Compressibility (1/GPa) = 0.02604597
#
# Stress axis : x y z
#
# Youngs Moduli (GPa) = 52.04186 70.97945 68.76062
#
# Poissons Ratio (x) = 0.52984 0.15418
# Poissons Ratio (y) = 0.38848 0.08207
# Poissons Ratio (z) = 0.11669 0.08472
#
# Static dielectric constant tensor:
#      x y z
#    x 1.699280 0.000000 -0.084060 
#    y 0.000000 1.830000 0.000000 
#    z -0.084060 0.000000 1.498150 
# 
# From -- ./inp_files/139084.got.cif
#   From: 2010.05.17/outbox.cif.g08.bks.cpg/sg15_70_cif.got.tgz:139084.got - 2010.06.03 18:47:42.
