data_PCOD9261102
_publ_section_title
;
Structure prediction by ZEFSAII (Michael W. Deem and Ramdas Pophale) SiO2 
 PCOD9261102
Probable space group: C 2/C
;
_chemical_formula_sum "Si O2"
_cell_formula_units_Z 44
_cell_length_a 22.815319
_cell_length_b 7.683071
_cell_length_c 14.187817
_cell_angle_alpha 90.000000
_cell_angle_beta 45.087497
_cell_angle_gamma 90.000000
_cell_volume 1761.262856
_symmetry_space_group_name_H-M "C 2/C"
_symmetry_group_IT_number 15
_symmetry_cell_setting 'monoclinic'
loop_
_space_group_symop_operation_xyz
x,y,z
-x,y,1/2-z
-x,-y,-z
x,-y,1/2+z
1/2+x,1/2+y,z
1/2-x,1/2+y,1/2-z
1/2-x,1/2-y,-z
1/2+x,1/2-y,1/2+z
loop_
_atom_site_type_symbol
_atom_site_label
_atom_site_fract_x
_atom_site_fract_y
_atom_site_fract_z
Si Si1 0.420019 0.291053 0.540032
Si Si2 0.000000 0.914929 0.750000
Si Si3 0.889337 0.773181 0.367710
Si Si4 0.425279 0.290447 0.015232
Si Si5 0.770939 0.519907 0.456398
Si Si6 0.250470 0.799556 0.659461
O O1 0.429366 0.225076 0.422184
O O2 0.498072 0.224029 0.510796
O O3 0.421138 0.502128 0.538128
O O4 0.330404 0.263866 0.686824
O O5 0.936122 0.054846 0.775209
O O6 0.951689 0.793347 0.875990
O O7 0.862110 0.604289 0.341053
O O8 0.799475 0.847472 0.496372
O O9 0.334774 0.207975 0.124527
O O10 0.753547 0.357175 0.410416
O O11 0.754768 0.465828 0.584314
#
# Coordination Sequence:
#
# PCOD9261102 Si02
#       6
#     8   4   8   8   8   8
#     4  10  22  39  65  91 128 163 213 256 318 372
#     4  10  18  40  64  88 126 172 214 246 306 390
#     4  10  21  41  62  91 126 169 208 258 309 379
#     4  10  22  41  64  97 122 174 212 254 316 387
#     4  10  22  39  61  93 122 164 218 248 317 374
#     4  11  22  41  66  96 125 167 210 270 317 374
#
# _framework density 24.982077
#
# number of rings (size 3 to 8) (size 9 to 14) (size 15 to 20)
#    0.000    1.818    3.636    1.091    5.091    0.000 
#    9.818    0.909    0.000    0.000    0.000    0.000 
#    0.000    0.000    0.000    0.000    0.000    0.000 
#
# Total GULP energy -122852.403631 kJ/mol
# GULP energy per Si atom -5584.200165 kJ/mol
# Density = 2.492522 g / cm^3
# Si number density = 24.982077 Si / 1000 Ang^3
#
#
#
# Elastic Constant Matrix: (Units=GPa)
#
#
# Indices 1 2 3 4 5 6 
#
# 1 118.2721 13.3186 35.4214 -0.0014 -34.0308 0.0004
# 2 13.3186 37.8885 -17.8840 -0.0027 -5.4579 0.0015
# 3 35.4214 -17.8840 69.1120 -0.0048 -20.6398 0.0016
# 4 -0.0014 -0.0027 -0.0048 21.6502 0.0008 -11.6835
# 5 -34.0308 -5.4579 -20.6398 0.0008 35.5913 -0.0001
# 6 0.0004 0.0015 0.0016 -11.6835 -0.0001 17.9935
#
#
#
# Elastic Compliance Matrix: (Units=1/GPa)
#
#
# Indices 1 2 3 4 5 6 
#
# 1 0.013359 -0.006328 -0.005998 -0.000002 0.008325 0.000000
# 2 -0.006328 0.037130 0.015414 0.000008 0.008582 0.000001
# 3 -0.005998 0.015414 0.024825 0.000007 0.011024 0.000002
# 4 -0.000002 0.000008 0.000007 0.071104 0.000002 0.046170
# 5 0.008325 0.008582 0.011024 0.000002 0.043766 0.000000
# 6 0.000000 0.000001 0.000002 0.046170 0.000000 0.085555
#
#
# Mechanical properties :
#
#
# Convention : Reuss Voigt Hill
#
# Bulk Modulus (GPa) = 12.27157 31.88717 22.07937
# Shear Modulus (GPa) = 16.85052 28.00811 22.42932
#
# Velocity S-wave (km/s) = 2.59994 3.35196 2.99961
# Velocity P-wave (km/s) = 3.73306 5.26997 4.56663
#
# Compressibility (1/GPa) = 0.08148916
#
# Stress axis : x y z
#
# Youngs Moduli (GPa) = 74.85316 26.93255 40.28245
#
# Poissons Ratio (x) = 0.17044 0.24163
# Poissons Ratio (y) = 0.47369 -0.62093
# Poissons Ratio (z) = 0.44900 -0.41515
#
# Static dielectric constant tensor:
#      x y z
#    x 2.057310 0.000000 0.006320 
#    y 0.000000 2.070370 0.000000 
#    z 0.006320 0.000000 2.060800 
# 
# From -- ./inp_files/166459.got.cif
#   From: 2010.05.17/outbox.cif.g08.bks.cpg/sg15_84_cif.got.tgz:166459.got - 2010.06.03 18:47:42.
