data_PCOD9261008
_publ_section_title
;
Structure prediction by ZEFSAII (Michael W. Deem and Ramdas Pophale) SiO2 
 PCOD9261008
Probable space group: C 2/C
;
_chemical_formula_sum "Si O2"
_cell_formula_units_Z 56
_cell_length_a 16.316689
_cell_length_b 9.144191
_cell_length_c 21.675442
_cell_angle_alpha 90.000000
_cell_angle_beta 128.682763
_cell_angle_gamma 90.000000
_cell_volume 2524.550779
_symmetry_space_group_name_H-M "C 2/C"
_symmetry_group_IT_number 15
_symmetry_cell_setting 'monoclinic'
loop_
_space_group_symop_operation_xyz
x,y,z
-x,y,1/2-z
-x,-y,-z
x,-y,1/2+z
1/2+x,1/2+y,z
1/2-x,1/2+y,1/2-z
1/2-x,1/2-y,-z
1/2+x,1/2-y,1/2+z
loop_
_atom_site_type_symbol
_atom_site_label
_atom_site_fract_x
_atom_site_fract_y
_atom_site_fract_z
Si Si1 0.737786 0.073665 0.991989
Si Si2 0.500000 0.773732 0.750000
Si Si3 0.035673 0.059243 0.450681
Si Si4 0.500000 0.719444 0.250000
Si Si5 0.355606 0.899852 0.787728
Si Si6 0.160925 0.033631 0.845577
Si Si7 0.006302 0.370944 0.378082
Si Si8 0.163164 0.923707 0.202800
O O1 0.841795 0.023313 0.003981
O O2 0.748646 0.993639 0.063048
O O3 0.750000 0.250000 0.000000
O O4 0.618274 0.054840 0.914972
O O5 0.433015 0.860953 0.767966
O O6 0.582946 0.667468 0.823529
O O7 0.021681 0.233235 0.431035
O O8 0.000000 0.000000 0.500000
O O9 0.952829 0.982608 0.365421
O O10 0.406820 0.614880 0.183666
O O11 0.465171 0.808464 0.293328
O O12 0.329061 0.747323 0.808529
O O13 0.421274 0.012499 0.860089
O O14 0.250459 0.975248 0.712873
O O15 0.188220 0.059035 0.787252
#
# Coordination Sequence:
#
# PCOD9261008 Si02
#       8
#     8   4   8   4   8   8   8   8
#     4  10  20  38  64 100 136 173 228 270 336 410
#     4   9  21  40  66  98 130 176 234 282 338 400
#     4  11  23  40  63  97 136 175 216 283 342 407
#     4  11  17  34  72  92 130 176 234 268 316 404
#     4  11  24  43  66  98 134 171 226 289 331 408
#     4  10  18  39  68  94 130 176 225 282 333 400
#     4  11  23  40  64 103 133 180 231 274 338 409
#     4  11  24  43  68  96 129 177 231 281 350 395
#
# _framework density 22.182164
#
# number of rings (size 3 to 8) (size 9 to 14) (size 15 to 20)
#    0.000    1.429    4.286    3.000    0.000    4.571 
#    0.000    8.571    0.000    0.000    0.000    0.000 
#    0.000    0.000    0.000    0.000    0.000    0.000 
#
# Total GULP energy -156377.714443 kJ/mol
# GULP energy per Si atom -5584.918373 kJ/mol
# Density = 2.213168 g / cm^3
# Si number density = 22.182164 Si / 1000 Ang^3
#
#
#
# Elastic Constant Matrix: (Units=GPa)
#
#
# Indices 1 2 3 4 5 6 
#
# 1 105.9024 32.8245 40.0069 0.0000 13.7730 0.0000
# 2 32.8245 111.6391 27.3712 0.0000 14.9862 0.0000
# 3 40.0069 27.3712 49.7195 0.0000 5.8947 0.0000
# 4 0.0000 0.0000 0.0000 18.3385 0.0000 9.9052
# 5 13.7730 14.9862 5.8947 0.0000 41.8253 0.0000
# 6 0.0000 0.0000 0.0000 9.9052 0.0000 28.4498
#
#
#
# Elastic Compliance Matrix: (Units=1/GPa)
#
#
# Indices 1 2 3 4 5 6 
#
# 1 0.014084 -0.001242 -0.010324 0.000000 -0.002738 0.000000
# 2 -0.001242 0.010837 -0.004632 0.000000 -0.002821 0.000000
# 3 -0.010324 -0.004632 0.030886 0.000000 0.000706 0.000000
# 4 0.000000 0.000000 0.000000 0.067160 0.000000 -0.023383
# 5 -0.002738 -0.002821 0.000706 0.000000 0.025722 0.000000
# 6 0.000000 0.000000 0.000000 -0.023383 0.000000 0.043291
#
#
# Mechanical properties :
#
#
# Convention : Reuss Voigt Hill
#
# Bulk Modulus (GPa) = 42.71558 51.96293 47.33926
# Shear Modulus (GPa) = 21.53506 28.85995 25.19751
#
# Velocity S-wave (km/s) = 3.11919 3.61091 3.37402
# Velocity P-wave (km/s) = 5.68076 6.39228 6.04700
#
# Compressibility (1/GPa) = 0.02341066
#
# Stress axis : x y z
#
# Youngs Moduli (GPa) = 71.00290 92.27648 32.37673
#
# Poissons Ratio (x) = 0.11463 0.33426
# Poissons Ratio (y) = 0.08820 0.14996
# Poissons Ratio (z) = 0.73305 0.42741
#
# Static dielectric constant tensor:
#      x y z
#    x 1.851460 0.000000 -0.008080 
#    y 0.000000 1.862940 0.000000 
#    z -0.008080 0.000000 1.858850 
# 
# From -- ./inp_files/276654.got.cif
#   From: 2010.05.17/outbox.cif.g08.bks.cpg/sg15_139_cif.got.tgz:276654.got - 2010.06.03 18:47:42.
