data_PCOD9261222
_publ_section_title
;
Structure prediction by ZEFSAII (Michael W. Deem and Ramdas Pophale) SiO2 
 PCOD9261222
Probable space group: C 2/C
;
_chemical_formula_sum "Si O2"
_cell_formula_units_Z 64
_cell_length_a 17.194932
_cell_length_b 15.831890
_cell_length_c 21.306932
_cell_angle_alpha 90.000000
_cell_angle_beta 152.126968
_cell_angle_gamma 90.000000
_cell_volume 2711.743283
_symmetry_space_group_name_H-M "C 2/C"
_symmetry_group_IT_number 15
_symmetry_cell_setting 'monoclinic'
loop_
_space_group_symop_operation_xyz
x,y,z
-x,y,1/2-z
-x,-y,-z
x,-y,1/2+z
1/2+x,1/2+y,z
1/2-x,1/2+y,1/2-z
1/2-x,1/2-y,-z
1/2+x,1/2-y,1/2+z
loop_
_atom_site_type_symbol
_atom_site_label
_atom_site_fract_x
_atom_site_fract_y
_atom_site_fract_z
Si Si1 0.574239 0.976565 0.421254
Si Si2 0.631337 0.300955 0.461480
Si Si3 0.202627 0.470245 0.895162
Si Si4 0.268025 0.605563 0.849064
Si Si5 0.509461 0.140522 0.445155
Si Si6 0.818028 0.256700 0.120425
Si Si7 0.219451 0.903565 0.822280
Si Si8 0.661519 0.412863 0.244764
O O1 0.723245 0.985576 0.477814
O O2 0.509795 0.071270 0.389415
O O3 0.429497 0.910889 0.302608
O O4 0.643280 0.945306 0.535550
O O5 0.750000 0.250000 0.500000
O O6 0.743561 0.374447 0.570785
O O7 0.556096 0.232260 0.454232
O O8 0.477585 0.353756 0.322689
O O9 0.301627 0.522351 0.914041
O O10 0.000000 0.476733 0.750000
O O11 0.295060 0.684966 0.914474
O O12 0.343060 0.605446 0.833265
O O13 0.325246 0.137974 0.342128
O O14 0.657841 0.112687 0.598673
O O15 0.849113 0.169960 0.181746
O O16 0.000000 0.298263 0.250000
O O17 0.750000 0.250000 0.000000
O O18 0.126209 0.987632 0.731822
#
# Coordination Sequence:
#
# PCOD9261222 Si02
#       8
#     8   8   8   8   8   8   8   8
#     4  10  18  41  70  97 129 190 240 290 362 449
#     4  12  27  44  65 107 146 181 249 302 377 451
#     4  10  23  40  68  95 138 188 229 297 364 447
#     4  11  21  44  71 100 142 190 251 295 377 444
#     4  11  22  43  73  99 141 189 243 301 367 453
#     4  12  27  46  73 110 150 193 248 319 382 454
#     4  11  22  44  72 104 142 185 249 304 373 447
#     4  11  25  43  73 101 138 197 238 308 377 454
#
# _framework density 23.601053
#
# number of rings (size 3 to 8) (size 9 to 14) (size 15 to 20)
#    0.000    1.000    3.750    4.125    1.750    2.500 
#    2.250    0.000    0.000    0.000    0.000    0.000 
#    0.000    0.000    0.000    0.000    0.000    0.000 
#
# Total GULP energy -178595.854115 kJ/mol
# GULP energy per Si atom -5581.120441 kJ/mol
# Density = 2.354734 g / cm^3
# Si number density = 23.601053 Si / 1000 Ang^3
#
#
#
# Elastic Constant Matrix: (Units=GPa)
#
#
# Indices 1 2 3 4 5 6 
#
# 1 112.0159 54.8944 25.8567 -0.0015 -6.1868 0.0004
# 2 54.8944 133.6063 5.4260 -0.0137 -0.6402 -0.0068
# 3 25.8567 5.4260 56.5707 -0.0229 0.7100 -0.0129
# 4 -0.0015 -0.0137 -0.0229 27.2667 -0.0007 -11.7402
# 5 -6.1868 -0.6402 0.7100 -0.0007 33.5381 0.0005
# 6 0.0004 -0.0068 -0.0129 -11.7402 0.0005 34.0151
#
#
#
# Elastic Compliance Matrix: (Units=1/GPa)
#
#
# Indices 1 2 3 4 5 6 
#
# 1 0.012756 -0.005011 -0.005379 -0.000009 0.002371 -0.000006
# 2 -0.005011 0.009483 0.001391 0.000008 -0.000773 0.000005
# 3 -0.005379 0.001391 0.020020 0.000024 -0.001390 0.000016
# 4 -0.000009 0.000008 0.000024 0.043076 -0.000001 0.014868
# 5 0.002371 -0.000773 -0.001390 -0.000001 0.030269 -0.000002
# 6 -0.000006 0.000005 0.000016 0.014868 -0.000002 0.034530
#
#
# Mechanical properties :
#
#
# Convention : Reuss Voigt Hill
#
# Bulk Modulus (GPa) = 41.22171 52.72746 46.97458
# Shear Modulus (GPa) = 28.37352 33.36505 30.86928
#
# Velocity S-wave (km/s) = 3.47106 3.76401 3.62050
# Velocity P-wave (km/s) = 5.79381 6.42495 6.11753
#
# Compressibility (1/GPa) = 0.02425906
#
# Stress axis : x y z
#
# Youngs Moduli (GPa) = 78.39620 105.44746 49.95049
#
# Poissons Ratio (x) = 0.52841 0.26870
# Poissons Ratio (y) = 0.39285 -0.06946
# Poissons Ratio (z) = 0.42172 -0.14663
#
# Static dielectric constant tensor:
#      x y z
#    x 2.038710 0.000000 -0.048390 
#    y 0.000000 1.977900 0.000000 
#    z -0.048390 0.000000 1.983180 
# 
# From -- ./inp_files/277661.got.cif
#   From: 2010.05.17/outbox.cif.g08.bks.cpg/sg15_139_cif.got.tgz:277661.got - 2010.06.03 18:47:42.
