data_PCOD9261326
_publ_section_title
;
Structure prediction by ZEFSAII (Michael W. Deem and Ramdas Pophale) SiO2 
 PCOD9261326
Probable space group: C 2/C
;
_chemical_formula_sum "Si O2"
_cell_formula_units_Z 48
_cell_length_a 13.967811
_cell_length_b 27.442612
_cell_length_c 14.305083
_cell_angle_alpha 90.000000
_cell_angle_beta 30.427785
_cell_angle_gamma 90.000000
_cell_volume 2777.041971
_symmetry_space_group_name_H-M "C 2/C"
_symmetry_group_IT_number 15
_symmetry_cell_setting 'monoclinic'
loop_
_space_group_symop_operation_xyz
x,y,z
-x,y,1/2-z
-x,-y,-z
x,-y,1/2+z
1/2+x,1/2+y,z
1/2-x,1/2+y,1/2-z
1/2-x,1/2-y,-z
1/2+x,1/2-y,1/2+z
loop_
_atom_site_type_symbol
_atom_site_label
_atom_site_fract_x
_atom_site_fract_y
_atom_site_fract_z
Si Si1 0.224799 0.143054 0.059268
Si Si2 0.314000 0.673053 0.609115
Si Si3 0.968622 0.731312 0.889398
Si Si4 0.896491 0.070830 0.592420
Si Si5 0.528260 0.949862 0.115987
Si Si6 0.896615 0.991465 0.737786
O O1 0.000000 0.135544 0.250000
O O2 0.270453 0.145454 0.910698
O O3 0.290802 0.194546 0.046147
O O4 0.348893 0.099886 0.995930
O O5 0.438561 0.716439 0.460833
O O6 0.406965 0.629506 0.587906
O O7 0.137694 0.702654 0.797523
O O8 0.000000 0.735007 0.750000
O O9 0.678803 0.055996 0.753288
O O10 0.026119 0.049761 0.399209
O O11 0.947675 0.041897 0.643186
O O12 0.500000 0.960875 0.250000
O O13 0.672487 0.987519 0.946170
O O14 0.000000 0.985827 0.750000
#
# Coordination Sequence:
#
# PCOD9261326 Si02
#       6
#     8   8   8   8   8   8
#     4  11  18  28  47  71 106 147 177 204 253 312
#     4  11  18  31  43  71 103 137 174 211 252 318
#     4  10  19  28  43  67 103 144 175 205 255 309
#     4  11  23  38  55  81 108 141 180 217 266 315
#     4  12  19  35  55  78 111 146 173 216 263 314
#     4  11  23  38  59  79 104 140 181 225 267 314
#
# _framework density 17.284578
#
# number of rings (size 3 to 8) (size 9 to 14) (size 15 to 20)
#    0.000    1.000    5.000    6.000    0.000    0.667 
#    0.000    0.000    0.000    0.000    0.000    1.167 
#    0.000    0.000    0.000    0.000    0.000    0.000 
#
# Total GULP energy -133856.407533 kJ/mol
# GULP energy per Si atom -5577.350314 kJ/mol
# Density = 1.724524 g / cm^3
# Si number density = 17.284578 Si / 1000 Ang^3
#
#
#
# Elastic Constant Matrix: (Units=GPa)
#
#
# Indices 1 2 3 4 5 6 
#
# 1 22.1658 11.7272 16.7159 0.0003 8.0444 -0.0008
# 2 11.7272 104.2171 25.7167 -0.0001 15.3604 0.0000
# 3 16.7159 25.7167 104.4995 0.0001 -3.7152 -0.0001
# 4 0.0003 -0.0001 0.0001 27.0841 0.0000 -0.6329
# 5 8.0444 15.3604 -3.7152 0.0000 18.2480 0.0003
# 6 -0.0008 0.0000 -0.0001 -0.6329 0.0003 25.8688
#
#
#
# Elastic Compliance Matrix: (Units=1/GPa)
#
#
# Indices 1 2 3 4 5 6 
#
# 1 0.065052 0.000115 -0.011541 -0.000001 -0.031124 0.000002
# 2 0.000115 0.012010 -0.003359 0.000000 -0.010844 0.000000
# 3 -0.011541 -0.003359 0.012615 0.000000 0.010484 0.000000
# 4 -0.000001 0.000000 0.000000 0.036943 0.000000 0.000904
# 5 -0.031124 -0.010844 0.010484 0.000000 0.079783 -0.000002
# 6 0.000002 0.000000 0.000000 0.000904 -0.000002 0.038679
#
#
# Mechanical properties :
#
#
# Convention : Reuss Voigt Hill
#
# Bulk Modulus (GPa) = 16.63713 37.68911 27.16312
# Shear Modulus (GPa) = 16.96712 26.02170 21.49441
#
# Velocity S-wave (km/s) = 3.13650 3.88427 3.53024
# Velocity P-wave (km/s) = 4.77108 6.47836 5.68913
#
# Compressibility (1/GPa) = 0.06010651
#
# Stress axis : x y z
#
# Youngs Moduli (GPa) = 15.37228 83.26634 79.27117
#
# Poissons Ratio (x) = -0.00957 0.91484
# Poissons Ratio (y) = -0.00177 0.26630
# Poissons Ratio (z) = 0.17741 0.27973
#
# Static dielectric constant tensor:
#      x y z
#    x 1.568670 0.000000 -0.030650 
#    y 0.000000 1.658270 0.000000 
#    z -0.030650 0.000000 1.682420 
# 
# From -- ./inp_files/157370.got.cif
#   From: 2010.05.17/outbox.cif.g08.bks.cpg/sg15_79_cif.got.tgz:157370.got - 2010.06.03 18:47:42.
