data_PCOD9261999
_publ_section_title
;
Structure prediction by ZEFSAII (Michael W. Deem and Ramdas Pophale) SiO2 
 PCOD9261999
Probable space group: C 2/C
;
_chemical_formula_sum "Si O2"
_cell_formula_units_Z 64
_cell_length_a 20.323128
_cell_length_b 18.631488
_cell_length_c 8.727620
_cell_angle_alpha 90.000000
_cell_angle_beta 121.946028
_cell_angle_gamma 90.000000
_cell_volume 2804.205086
_symmetry_space_group_name_H-M "C 2/C"
_symmetry_group_IT_number 15
_symmetry_cell_setting 'monoclinic'
loop_
_space_group_symop_operation_xyz
x,y,z
-x,y,1/2-z
-x,-y,-z
x,-y,1/2+z
1/2+x,1/2+y,z
1/2-x,1/2+y,1/2-z
1/2-x,1/2-y,-z
1/2+x,1/2-y,1/2+z
loop_
_atom_site_type_symbol
_atom_site_label
_atom_site_fract_x
_atom_site_fract_y
_atom_site_fract_z
Si Si1 0.534452 0.713610 0.441022
Si Si2 0.557400 0.966669 0.443902
Si Si3 0.325991 0.376425 0.524281
Si Si4 0.125726 0.747617 0.342409
Si Si5 0.647032 0.918672 0.840964
Si Si6 0.614328 0.650142 0.112977
Si Si7 0.092219 0.028267 0.850682
Si Si8 0.293393 0.616672 0.672352
O O1 0.500000 0.755059 0.250000
O O2 0.612971 0.677315 0.479160
O O3 0.558110 0.749282 0.630231
O O4 0.466805 0.656936 0.396943
O O5 0.619588 0.927012 0.630731
O O6 0.500000 0.000000 0.500000
O O7 0.600333 0.027433 0.394714
O O8 0.500000 0.928224 0.250000
O O9 0.314550 0.345063 0.679822
O O10 0.367269 0.452086 0.602809
O O11 0.264659 0.387146 0.312543
O O12 0.137713 0.663908 0.379340
O O13 0.110531 0.786798 0.484117
O O14 0.192978 0.800774 0.359406
O O15 0.737793 0.927209 0.989979
O O16 0.616865 0.576095 0.026201
O O17 0.123423 0.076742 0.747469
O O18 0.000000 0.021835 0.750000
#
# Coordination Sequence:
#
# PCOD9261999 Si02
#       8
#     8   8   8   8   8   8   8   8
#     4   9  18  32  53  84 123 161 208 257 300 361
#     4   9  22  45  70 100 121 150 211 274 329 396
#     4  10  20  33  50  81 127 167 211 250 289 343
#     4  10  21  38  59  88 122 168 203 253 314 387
#     4  11  23  44  70  90 129 158 199 265 333 381
#     4  10  19  32  51  82 119 160 212 257 296 359
#     4  11  20  33  55  84 125 174 213 252 292 340
#     4  10  23  38  58  90 128 170 215 245 306 383
#
# _framework density 22.822868
#
# number of rings (size 3 to 8) (size 9 to 14) (size 15 to 20)
#    0.000    2.000    0.000    4.875    1.750    5.000 
#    0.000    6.875    0.000    0.000    0.000    0.000 
#    0.000    0.000    0.000    0.000    0.000    0.000 
#
# Total GULP energy -178314.223728 kJ/mol
# GULP energy per Si atom -5572.319491 kJ/mol
# Density = 2.277092 g / cm^3
# Si number density = 22.822868 Si / 1000 Ang^3
#
#
#
# Elastic Constant Matrix: (Units=GPa)
#
#
# Indices 1 2 3 4 5 6 
#
# 1 32.4737 16.0426 35.5563 0.0000 -3.2740 0.0000
# 2 16.0426 89.7499 20.9095 0.0000 -0.4830 0.0000
# 3 35.5563 20.9095 184.7568 0.0000 -15.2484 0.0000
# 4 0.0000 0.0000 0.0000 8.4618 0.0000 6.7961
# 5 -3.2740 -0.4830 -15.2484 0.0000 32.4461 0.0000
# 6 0.0000 0.0000 0.0000 6.7961 0.0000 6.1481
#
#
#
# Elastic Compliance Matrix: (Units=1/GPa)
#
#
# Indices 1 2 3 4 5 6 
#
# 1 0.041720 -0.005748 -0.007322 0.000000 0.000683 0.000000
# 2 -0.005748 0.012242 -0.000325 0.000000 -0.000550 0.000000
# 3 -0.007322 -0.000325 0.007071 0.000000 0.002580 0.000000
# 4 0.000000 0.000000 0.000000 1.053421 0.000000 -1.164458
# 5 0.000683 -0.000550 0.002580 0.000000 0.032093 0.000000
# 6 0.000000 0.000000 0.000000 -1.164458 0.000000 1.449851
#
#
# Mechanical properties :
#
#
# Convention : Reuss Voigt Hill
#
# Bulk Modulus (GPa) = 29.20222 50.22191 39.71206
# Shear Modulus (GPa) = 1.89782 25.04264 13.47023
#
# Velocity S-wave (km/s) = 0.91288 3.31609 2.43205
# Velocity P-wave (km/s) = 3.73284 6.05927 5.03234
#
# Compressibility (1/GPa) = 0.03424397
#
# Stress axis : x y z
#
# Youngs Moduli (GPa) = 23.96956 81.68488 141.41681
#
# Poissons Ratio (x) = 0.46950 1.03546
# Poissons Ratio (y) = 0.13777 0.04593
# Poissons Ratio (z) = 0.17551 0.02653
#
# Static dielectric constant tensor:
#      x y z
#    x 1.915420 0.000000 0.027960 
#    y 0.000000 1.808390 0.000000 
#    z 0.027960 0.000000 2.069450 
# 
# From -- ./inp_files/63430.got.cif
#   From: 2010.05.17/outbox.cif.g08.bks.cpg/sg15_32_cif.got.tgz:63430.got - 2010.06.03 18:47:42.
