data_PCOD9261467
_publ_section_title
;
Structure prediction by ZEFSAII (Michael W. Deem and Ramdas Pophale) SiO2 
 PCOD9261467
Probable space group: C 2/C
;
_chemical_formula_sum "Si O2"
_cell_formula_units_Z 56
_cell_length_a 19.122696
_cell_length_b 5.382566
_cell_length_c 21.883297
_cell_angle_alpha 90.000000
_cell_angle_beta 81.977128
_cell_angle_gamma 90.000000
_cell_volume 2230.383864
_symmetry_space_group_name_H-M "C 2/C"
_symmetry_group_IT_number 15
_symmetry_cell_setting 'monoclinic'
loop_
_space_group_symop_operation_xyz
x,y,z
-x,y,1/2-z
-x,-y,-z
x,-y,1/2+z
1/2+x,1/2+y,z
1/2-x,1/2+y,1/2-z
1/2-x,1/2-y,-z
1/2+x,1/2-y,1/2+z
loop_
_atom_site_type_symbol
_atom_site_label
_atom_site_fract_x
_atom_site_fract_y
_atom_site_fract_z
Si Si1 0.062923 0.302313 0.565824
Si Si2 0.954642 0.768636 0.190498
Si Si3 0.376237 0.303006 0.981532
Si Si4 0.081164 0.271376 0.262017
Si Si5 0.736138 0.439554 0.215758
Si Si6 0.835774 0.428044 0.841922
Si Si7 0.240169 0.714905 0.405483
O O1 0.067907 0.576438 0.534935
O O2 0.130569 0.331341 0.601351
O O3 0.081020 0.061551 0.523263
O O4 0.002011 0.249323 0.623407
O O5 0.912715 0.025845 0.198031
O O6 0.000000 0.761194 0.250000
O O7 0.910153 0.516087 0.197928
O O8 0.311998 0.321086 0.938053
O O9 0.329302 0.243307 0.046324
O O10 0.121189 0.346783 0.194349
O O11 0.000000 0.259712 0.250000
O O12 0.769279 0.201521 0.247394
O O13 0.664310 0.303635 0.203619
O O14 0.767558 0.512269 0.146331
O O15 0.759296 0.532564 0.867435
#
# Coordination Sequence:
#
# PCOD9261467 Si02
#       7
#     8   8   8   8   8   8   8
#     4  11  20  34  54  82 118 159 186 227 286 357
#     4  10  19  30  47  77 116 151 184 222 281 352
#     4  10  23  34  57  83 114 163 194 228 294 364
#     4  10  20  30  51  79 109 156 180 226 291 359
#     4  12  25  40  58  82 115 161 206 251 289 337
#     4  11  22  36  59  80 121 161 192 239 293 348
#     4  10  23  38  57  82 120 155 197 242 292 351
#
# _framework density 25.107783000000001
#
# number of rings (size 3 to 8) (size 9 to 14) (size 15 to 20)
#    0.000    1.429    5.714    0.857   10.000    1.714 
#    0.000    0.000    0.000    0.000    0.000    0.000 
#    0.000   22.857    0.000    0.000    0.000    0.000 
#
# Total GULP energy -156126.819297 kJ/mol
# GULP energy per Si atom -5575.957832 kJ/mol
# Density = 2.505064 g / cm^3
# Si number density = 25.107783 Si / 1000 Ang^3
#
#
#
# Elastic Constant Matrix: (Units=GPa)
#
#
# Indices 1 2 3 4 5 6 
#
# 1 31.5818 6.0281 7.1153 0.0000 0.4636 0.0000
# 2 6.0281 235.4428 66.3887 0.0000 -26.9944 0.0000
# 3 7.1153 66.3887 130.8347 0.0000 -45.4859 0.0000
# 4 0.0000 0.0000 0.0000 33.7047 0.0000 -15.2038
# 5 0.4636 -26.9944 -45.4859 0.0000 31.7781 0.0000
# 6 0.0000 0.0000 0.0000 -15.2038 0.0000 25.8281
#
#
#
# Elastic Compliance Matrix: (Units=1/GPa)
#
#
# Indices 1 2 3 4 5 6 
#
# 1 0.032674 -0.000511 -0.003651 0.000000 -0.006137 0.000000
# 2 -0.000511 0.004988 -0.002046 0.000000 0.001317 0.000000
# 3 -0.003651 -0.002046 0.016510 0.000000 0.021948 0.000000
# 4 0.000000 0.000000 0.000000 0.040396 0.000000 0.023779
# 5 -0.006137 0.001317 0.021948 0.000000 0.064091 0.000000
# 6 0.000000 0.000000 0.000000 0.023779 0.000000 0.052715
#
#
# Mechanical properties :
#
#
# Convention : Reuss Voigt Hill
#
# Bulk Modulus (GPa) = 23.94802 61.88038 42.91420
# Shear Modulus (GPa) = 21.03415 39.48399 30.25907
#
# Velocity S-wave (km/s) = 2.89754 3.96988 3.47532
# Velocity P-wave (km/s) = 4.55556 6.76111 5.76480
#
# Compressibility (1/GPa) = 0.04175711
#
# Stress axis : x y z
#
# Youngs Moduli (GPa) = 30.60532 200.47496 60.56924
#
# Poissons Ratio (x) = 0.10236 0.22117
# Poissons Ratio (y) = 0.01563 0.12390
# Poissons Ratio (z) = 0.11175 0.41008
#
# Static dielectric constant tensor:
#      x y z
#    x 3.670670 0.000000 1.537750 
#    y 0.000000 2.095430 0.000000 
#    z 1.537750 0.000000 3.542660 
# 
# From -- ./inp_files/280951.got.cif
#   From: 2010.05.17/outbox.cif.g08.bks.cpg/sg15_141_cif.got.tgz:280951.got - 2010.06.03 18:47:42.
