data_PCOD9261957
_publ_section_title
;
Structure prediction by ZEFSAII (Michael W. Deem and Ramdas Pophale) SiO2 
 PCOD9261957
Probable space group: C 2/C
;
_chemical_formula_sum "Si O2"
_cell_formula_units_Z 60
_cell_length_a 15.249437
_cell_length_b 15.278677
_cell_length_c 31.093227
_cell_angle_alpha 90.000000
_cell_angle_beta 155.179747
_cell_angle_gamma 90.000000
_cell_volume 3041.023632
_symmetry_space_group_name_H-M "C 2/C"
_symmetry_group_IT_number 15
_symmetry_cell_setting 'monoclinic'
loop_
_space_group_symop_operation_xyz
x,y,z
-x,y,1/2-z
-x,-y,-z
x,-y,1/2+z
1/2+x,1/2+y,z
1/2-x,1/2+y,1/2-z
1/2-x,1/2-y,-z
1/2+x,1/2-y,1/2+z
loop_
_atom_site_type_symbol
_atom_site_label
_atom_site_fract_x
_atom_site_fract_y
_atom_site_fract_z
Si Si1 0.513226 0.229554 0.343906
Si Si2 0.006654 0.057804 0.372061
Si Si3 0.787375 0.114876 0.515881
Si Si4 0.391161 0.267756 0.784623
Si Si5 0.152566 0.843229 0.112625
Si Si6 0.890274 0.499867 0.259447
Si Si7 0.252001 0.375355 0.440013
Si Si8 0.000000 0.344742 0.750000
O O1 0.570027 0.143528 0.397831
O O2 0.645356 0.309871 0.421014
O O3 0.271190 0.245023 0.247899
O O4 0.577244 0.215338 0.323196
O O5 0.086012 0.109140 0.449875
O O6 0.977417 0.133516 0.323951
O O7 0.782943 0.011620 0.280764
O O8 0.171601 0.977835 0.443407
O O9 0.945141 0.129638 0.545797
O O10 0.257574 0.240695 0.682612
O O11 0.579317 0.198747 0.873001
O O12 0.136944 0.845344 0.054608
O O13 0.310495 0.920881 0.194565
O O14 0.873476 0.586124 0.222826
O O15 0.119978 0.466515 0.375359
#
# Coordination Sequence:
#
# PCOD9261957 Si02
#       8
#     8   8   8   8   8   8   8   4
#     4  10  21  36  54  79 116 149 186 228 291 326
#     4  11  22  33  57  83 113 150 194 227 275 344
#     4   9  21  37  54  83 111 152 185 230 278 343
#     4  10  20  36  52  81 115 152 180 228 286 338
#     4   9  19  34  56  80 118 143 178 232 290 331
#     4  10  19  32  50  85 115 137 179 234 287 325
#     4  11  21  36  57  85 117 148 184 236 288 340
#     4  12  18  30  58  80 108 148 180 232 274 336
#
# _framework density 19.730198000000001
#
# number of rings (size 3 to 8) (size 9 to 14) (size 15 to 20)
#    0.000    1.867    2.667    3.200    1.867    1.067 
#    0.000    0.000    2.933    0.000    0.000    6.533 
#    0.000    0.000    0.000    0.000    0.000    0.000 
#
# Total GULP energy -167146.177322 kJ/mol
# GULP energy per Si atom -5571.539244 kJ/mol
# Density = 1.968529 g / cm^3
# Si number density = 19.730198 Si / 1000 Ang^3
#
#
#
# Elastic Constant Matrix: (Units=GPa)
#
#
# Indices 1 2 3 4 5 6 
#
# 1 42.7862 23.4387 14.6697 0.0001 -1.9001 0.0001
# 2 23.4387 99.1780 16.1283 -0.0004 -15.6163 0.0002
# 3 14.6697 16.1283 47.3141 0.0017 -3.1718 0.0005
# 4 0.0001 -0.0004 0.0017 26.5398 0.0002 0.5787
# 5 -1.9001 -15.6163 -3.1718 0.0002 23.1922 -0.0001
# 6 0.0001 0.0002 0.0005 0.5787 -0.0001 31.2005
#
#
#
# Elastic Compliance Matrix: (Units=1/GPa)
#
#
# Indices 1 2 3 4 5 6 
#
# 1 0.029047 -0.006140 -0.007096 0.000000 -0.002725 0.000000
# 2 -0.006140 0.013134 -0.002033 0.000000 0.008063 0.000000
# 3 -0.007096 -0.002033 0.024119 -0.000002 0.001348 0.000000
# 4 0.000000 0.000000 -0.000002 0.037695 0.000000 -0.000699
# 5 -0.002725 0.008063 0.001348 0.000000 0.048508 0.000000
# 6 0.000000 0.000000 0.000000 -0.000699 0.000000 0.032064
#
#
# Mechanical properties :
#
#
# Convention : Reuss Voigt Hill
#
# Bulk Modulus (GPa) = 27.96197 33.08352 30.52275
# Shear Modulus (GPa) = 22.02402 25.18927 23.60665
#
# Velocity S-wave (km/s) = 3.34467 3.57695 3.46276
# Velocity P-wave (km/s) = 5.39618 5.81926 5.61171
#
# Compressibility (1/GPa) = 0.03576286
#
# Stress axis : x y z
#
# Youngs Moduli (GPa) = 34.42650 76.13805 41.46142
#
# Poissons Ratio (x) = 0.46748 0.29421
# Poissons Ratio (y) = 0.21138 0.08429
# Poissons Ratio (z) = 0.24429 0.15478
#
# Static dielectric constant tensor:
#      x y z
#    x 1.705590 0.000000 0.020950 
#    y 0.000000 1.758220 0.000000 
#    z 0.020950 0.000000 1.751300 
# 
# From -- ./inp_files/270636.got.cif
#   From: 2010.05.17/outbox.cif.g08.bks.cpg/sg15_136_cif.got.tgz:270636.got - 2010.06.03 18:47:42.
