data_PCOD9261623
_publ_section_title
;
Structure prediction by ZEFSAII (Michael W. Deem and Ramdas Pophale) SiO2 
 PCOD9261623
Probable space group: C 2/C
;
_chemical_formula_sum "Si O2"
_cell_formula_units_Z 64
_cell_length_a 23.217852
_cell_length_b 13.008296
_cell_length_c 12.111299
_cell_angle_alpha 90.000000
_cell_angle_beta 85.212791
_cell_angle_gamma 90.000000
_cell_volume 3645.150773
_symmetry_space_group_name_H-M "C 2/C"
_symmetry_group_IT_number 15
_symmetry_cell_setting 'monoclinic'
loop_
_space_group_symop_operation_xyz
x,y,z
-x,y,1/2-z
-x,-y,-z
x,-y,1/2+z
1/2+x,1/2+y,z
1/2-x,1/2+y,1/2-z
1/2-x,1/2-y,-z
1/2+x,1/2-y,1/2+z
loop_
_atom_site_type_symbol
_atom_site_label
_atom_site_fract_x
_atom_site_fract_y
_atom_site_fract_z
Si Si1 0.456713 0.370360 0.043305
Si Si2 0.394851 0.650950 0.758655
Si Si3 0.244502 0.897260 0.588920
Si Si4 0.610883 0.419779 0.662065
Si Si5 0.224191 0.826065 0.345235
Si Si6 0.159337 0.790546 0.025660
Si Si7 0.222243 0.622556 0.886497
Si Si8 0.433017 0.607103 0.099329
O O1 0.411483 0.372899 0.949125
O O2 0.516543 0.337706 0.977575
O O3 0.441081 0.314866 0.160137
O O4 0.453530 0.488973 0.086120
O O5 0.405160 0.540932 0.818160
O O6 0.336805 0.637334 0.694546
O O7 0.379595 0.727343 0.859938
O O8 0.180281 0.909922 0.651871
O O9 0.236558 0.879699 0.459365
O O10 0.274420 0.795987 0.633135
O O11 0.280006 0.000655 0.602617
O O12 0.578615 0.368062 0.771230
O O13 0.270799 0.849207 0.242900
O O14 0.218166 0.841019 0.062742
O O15 0.173703 0.689069 0.954656
O O16 0.126945 0.871201 0.952322
#
# Coordination Sequence:
#
# PCOD9261623 Si02
#       8
#     8   8   8   8   8   8   8   8
#     4  10  19  31  46  71 103 139 173 206 269 316
#     4  10  19  32  49  69 105 137 170 215 256 320
#     4  11  20  33  52  74 106 140 174 223 264 320
#     4  11  18  31  50  67 104 141 169 209 261 316
#     4  10  21  32  48  78 101 136 183 213 269 315
#     4  10  19  34  47  75  96 135 184 207 262 315
#     4  10  21  34  53  72 104 143 175 220 264 326
#     4  10  20  29  47  72 102 137 174 213 252 326
#
# _framework density 17.557573999999999
#
# number of rings (size 3 to 8) (size 9 to 14) (size 15 to 20)
#    0.000    1.750    5.000    1.125    1.750    3.500 
#    0.000    0.000    0.000    0.000    0.000    0.875 
#    0.000    0.500    0.000    0.000    0.000    0.000 
#
# Total GULP energy -178338.313973 kJ/mol
# GULP energy per Si atom -5573.072312 kJ/mol
# Density = 1.751761 g / cm^3
# Si number density = 17.557574 Si / 1000 Ang^3
#
#
#
# Elastic Constant Matrix: (Units=GPa)
#
#
# Indices 1 2 3 4 5 6 
#
# 1 32.3330 -0.1951 18.5853 0.0000 -12.1439 0.0000
# 2 -0.1951 63.0279 36.9315 0.0000 -5.6387 0.0000
# 3 18.5853 36.9315 136.9991 0.0000 -30.0050 0.0000
# 4 0.0000 0.0000 0.0000 16.7781 0.0000 -3.9870
# 5 -12.1439 -5.6387 -30.0050 0.0000 32.6398 0.0000
# 6 0.0000 0.0000 0.0000 -3.9870 0.0000 11.2289
#
#
#
# Elastic Compliance Matrix: (Units=1/GPa)
#
#
# Indices 1 2 3 4 5 6 
#
# 1 0.037123 0.003124 -0.003424 0.000000 0.011204 0.000000
# 2 0.003124 0.019187 -0.005779 0.000000 -0.000836 0.000000
# 3 -0.003424 -0.005779 0.011049 0.000000 0.007884 0.000000
# 4 0.000000 0.000000 0.000000 0.065094 0.000000 0.023112
# 5 0.011204 -0.000836 0.007884 0.000000 0.041909 0.000000
# 6 0.000000 0.000000 0.000000 0.023112 0.000000 0.097262
#
#
# Mechanical properties :
#
#
# Convention : Reuss Voigt Hill
#
# Bulk Modulus (GPa) = 18.11609 38.11149 28.11379
# Shear Modulus (GPa) = 16.54622 23.93192 20.23907
#
# Velocity S-wave (km/s) = 3.07318 3.69596 3.39887
# Velocity P-wave (km/s) = 4.78885 6.32196 5.60804
#
# Compressibility (1/GPa) = 0.05519954
#
# Stress axis : x y z
#
# Youngs Moduli (GPa) = 26.93716 52.11795 90.50947
#
# Poissons Ratio (x) = -0.16281 0.30995
# Poissons Ratio (y) = -0.08415 0.52307
# Poissons Ratio (z) = 0.09225 0.30120
#
# Static dielectric constant tensor:
#      x y z
#    x 1.656360 0.000000 -0.030870 
#    y 0.000000 1.582040 0.000000 
#    z -0.030870 0.000000 1.656060 
# 
# From -- ./inp_files/122439.got.cif
#   From: 2010.05.17/outbox.cif.g08.bks.cpg/sg15_62_cif.got.tgz:122439.got - 2010.06.03 18:47:42.
