data_PCOD9261370
_publ_section_title
;
Structure prediction by ZEFSAII (Michael W. Deem and Ramdas Pophale) SiO2 
 PCOD9261370
Probable space group: C 2/C
;
_chemical_formula_sum "Si O2"
_cell_formula_units_Z 64
_cell_length_a 23.444408
_cell_length_b 5.644594
_cell_length_c 21.439030
_cell_angle_alpha 90.000000
_cell_angle_beta 73.776837
_cell_angle_gamma 90.000000
_cell_volume 2724.144488
_symmetry_space_group_name_H-M "C 2/C"
_symmetry_group_IT_number 15
_symmetry_cell_setting 'monoclinic'
loop_
_space_group_symop_operation_xyz
x,y,z
-x,y,1/2-z
-x,-y,-z
x,-y,1/2+z
1/2+x,1/2+y,z
1/2-x,1/2+y,1/2-z
1/2-x,1/2-y,-z
1/2+x,1/2-y,1/2+z
loop_
_atom_site_type_symbol
_atom_site_label
_atom_site_fract_x
_atom_site_fract_y
_atom_site_fract_z
Si Si1 0.069412 0.409952 0.598554
Si Si2 0.103394 0.068024 0.225713
Si Si3 0.430814 0.067721 0.259707
Si Si4 0.241316 0.994767 0.676216
Si Si5 0.284479 0.495235 0.672557
Si Si6 0.452913 0.072819 0.067006
Si Si7 0.917264 0.078028 0.106775
Si Si8 0.443987 0.590096 0.398829
O O1 0.093567 0.412452 0.661662
O O2 0.085432 0.667688 0.568227
O O3 0.996679 0.410296 0.614707
O O4 0.083294 0.153230 0.566502
O O5 0.093636 0.324101 0.260842
O O6 0.171550 0.040200 0.186408
O O7 0.064803 0.083668 0.173502
O O8 0.083353 0.823271 0.264262
O O9 0.500000 0.042066 0.250000
O O10 0.272489 0.751343 0.645576
O O11 0.248045 0.005287 0.750004
O O12 0.261793 0.253608 0.647130
O O13 0.354819 0.466034 0.660202
O O14 0.425234 0.331585 0.065649
O O15 0.410107 0.847230 0.083346
O O16 0.500000 0.000000 0.000000
O O17 0.985431 0.096056 0.111040
#
# Coordination Sequence:
#
# PCOD9261370 Si02
#       8
#     8   8   8   8   8   8   8   8
#     4   8  16  28  41  62  97 125 149 184 233 294
#     4  10  19  31  46  67  96 124 163 203 242 285
#     4  10  19  29  44  69 100 128 159 198 249 307
#     4  10  21  35  51  70  98 137 182 216 238 285
#     4  10  21  36  50  69  98 139 178 209 249 289
#     4  10  19  31  49  75 104 132 165 204 255 314
#     4  10  19  33  52  72 103 133 162 205 256 309
#     4   8  16  29  45  68  93 120 155 195 248 297
#
# _framework density 23.493614999999998
#
# number of rings (size 3 to 8) (size 9 to 14) (size 15 to 20)
#    0.000    2.500    0.000    2.250    0.000    6.000 
#    0.000    0.000    0.000    0.000    0.000    0.000 
#    0.000  180.000    0.000    0.000    0.000    0.000 
#
# Total GULP energy -178272.967779 kJ/mol
# GULP energy per Si atom -5571.030243 kJ/mol
# Density = 2.344014 g / cm^3
# Si number density = 23.493615 Si / 1000 Ang^3
#
#
#
# Elastic Constant Matrix: (Units=GPa)
#
#
# Indices 1 2 3 4 5 6 
#
# 1 64.6821 33.2119 3.8822 0.0000 -7.8843 0.0000
# 2 33.2119 283.4945 7.9618 -0.0003 2.7957 -0.0001
# 3 3.8822 7.9618 23.7816 -0.0001 4.8999 0.0000
# 4 0.0000 -0.0003 -0.0001 19.3459 0.0000 -8.2101
# 5 -7.8843 2.7957 4.8999 0.0000 10.0289 0.0000
# 6 0.0000 -0.0001 0.0000 -8.2101 0.0000 35.6314
#
#
#
# Elastic Compliance Matrix: (Units=1/GPa)
#
#
# Indices 1 2 3 4 5 6 
#
# 1 0.019305 -0.002271 -0.006280 0.000000 0.018878 0.000000
# 2 -0.002271 0.003830 -0.000360 0.000000 -0.002678 0.000000
# 3 -0.006280 -0.000360 0.049138 0.000000 -0.028845 0.000000
# 4 0.000000 0.000000 0.000000 0.057293 0.000000 0.013201
# 5 0.018878 -0.002678 -0.028845 0.000000 0.129392 0.000000
# 6 0.000000 0.000000 0.000000 0.013201 0.000000 0.031107
#
#
# Mechanical properties :
#
#
# Convention : Reuss Voigt Hill
#
# Bulk Modulus (GPa) = 18.36563 51.34109 34.85336
# Shear Modulus (GPa) = 15.33566 34.79474 25.06520
#
# Velocity S-wave (km/s) = 2.55769 3.85259 3.26988
# Velocity P-wave (km/s) = 4.06898 6.45682 5.39663
#
# Compressibility (1/GPa) = 0.05444954
#
# Stress axis : x y z
#
# Youngs Moduli (GPa) = 51.80137 261.09621 20.35075
#
# Poissons Ratio (x) = 0.59304 0.12781
# Poissons Ratio (y) = 0.11766 0.00732
# Poissons Ratio (z) = 0.32534 0.09394
#
# Static dielectric constant tensor:
#      x y z
#    x 1.858390 0.000000 0.077860 
#    y 0.000000 2.007290 0.000000 
#    z 0.077860 0.000000 1.946490 
# 
# From -- ./inp_files/256572.got.cif
#   From: 2010.05.17/outbox.cif.g08.bks.cpg/sg15_129_cif.got.tgz:256572.got - 2010.06.03 18:47:42.
