data_PCOD9261170
_publ_section_title
;
Structure prediction by ZEFSAII (Michael W. Deem and Ramdas Pophale) SiO2 
 PCOD9261170
Probable space group: C 2/C
;
_chemical_formula_sum "Si O2"
_cell_formula_units_Z 56
_cell_length_a 18.706969
_cell_length_b 7.249948
_cell_length_c 18.636985
_cell_angle_alpha 90.000000
_cell_angle_beta 78.796629
_cell_angle_gamma 90.000000
_cell_volume 2479.465488
_symmetry_space_group_name_H-M "C 2/C"
_symmetry_group_IT_number 15
_symmetry_cell_setting 'monoclinic'
loop_
_space_group_symop_operation_xyz
x,y,z
-x,y,1/2-z
-x,-y,-z
x,-y,1/2+z
1/2+x,1/2+y,z
1/2-x,1/2+y,1/2-z
1/2-x,1/2-y,-z
1/2+x,1/2-y,1/2+z
loop_
_atom_site_type_symbol
_atom_site_label
_atom_site_fract_x
_atom_site_fract_y
_atom_site_fract_z
Si Si1 0.476513 0.102782 0.170550
Si Si2 0.631769 0.770981 0.591699
Si Si3 0.181060 0.727242 0.716965
Si Si4 0.457501 0.308216 0.683963
Si Si5 0.162669 0.706537 0.247031
Si Si6 0.177275 0.326036 0.050604
Si Si7 0.060316 0.944327 0.545260
O O1 0.500000 0.097491 0.250000
O O2 0.547864 0.164598 0.115659
O O3 0.406518 0.235072 0.187510
O O4 0.457216 0.896405 0.149290
O O5 0.657012 0.713818 0.667380
O O6 0.624097 0.596555 0.541664
O O7 0.674992 0.951092 0.556467
O O8 0.125372 0.848214 0.775778
O O9 0.159712 0.514059 0.733408
O O10 0.262421 0.750579 0.728876
O O11 0.173419 0.751038 0.633279
O O12 0.500000 0.292491 0.750000
O O13 0.510292 0.430025 0.625916
O O14 0.104959 0.245396 0.026368
O O15 0.250000 0.250000 0.000000
O O16 0.000000 0.000000 0.500000
#
# Coordination Sequence:
#
# PCOD9261170 Si02
#       7
#     8   8   8   8   8   8   8
#     4   8  15  35  62  91 125 166 212 275 336 397
#     4  10  22  43  67  92 134 176 225 277 342 413
#     4  10  21  38  65  98 130 172 221 285 348 411
#     4  10  18  40  69  90 129 171 224 285 338 403
#     4   9  20  34  61 100 131 164 217 278 344 404
#     4  11  25  48  66  91 143 185 222 292 358 410
#     4  12  27  43  68 105 132 183 238 277 350 422
#
# _framework density 22.585512999999999
#
# number of rings (size 3 to 8) (size 9 to 14) (size 15 to 20)
#    0.000    2.000    2.857    1.714    2.000    7.429 
#    5.143    0.000    0.000    0.000    0.000    0.000 
#    0.000    0.000    0.000    0.000    0.000    0.000 
#
# Total GULP energy -156341.843939 kJ/mol
# GULP energy per Si atom -5583.637284 kJ/mol
# Density = 2.253411 g / cm^3
# Si number density = 22.585513 Si / 1000 Ang^3
#
#
#
# Elastic Constant Matrix: (Units=GPa)
#
#
# Indices 1 2 3 4 5 6 
#
# 1 118.8000 -6.7077 2.2386 0.0000 -1.9271 0.0000
# 2 -6.7077 64.9715 7.7978 0.0000 0.3239 0.0000
# 3 2.2386 7.7978 22.9254 0.0000 -6.8515 0.0000
# 4 0.0000 0.0000 0.0000 10.3544 0.0000 -2.6167
# 5 -1.9271 0.3239 -6.8515 0.0000 42.1135 0.0000
# 6 0.0000 0.0000 0.0000 -2.6167 0.0000 39.1194
#
#
#
# Elastic Compliance Matrix: (Units=1/GPa)
#
#
# Indices 1 2 3 4 5 6 
#
# 1 0.008499 0.001010 -0.001114 0.000000 0.000200 0.000000
# 2 0.001010 0.016212 -0.005924 0.000000 -0.001042 0.000000
# 3 -0.001114 -0.005924 0.048080 0.000000 0.007817 0.000000
# 4 0.000000 0.000000 0.000000 0.098238 0.000000 0.006571
# 5 0.000200 -0.001042 0.007817 0.000000 0.025034 0.000000
# 6 0.000000 0.000000 0.000000 0.006571 0.000000 0.026002
#
#
# Mechanical properties :
#
#
# Convention : Reuss Voigt Hill
#
# Bulk Modulus (GPa) = 16.46514 23.70602 20.08558
# Shear Modulus (GPa) = 19.65673 31.87535 25.76604
#
# Velocity S-wave (km/s) = 2.95333 3.76083 3.38127
# Velocity P-wave (km/s) = 4.35149 5.42009 4.91492
#
# Compressibility (1/GPa) = 0.06073437
#
# Stress axis : x y z
#
# Youngs Moduli (GPa) = 117.66413 61.68318 20.79881
#
# Poissons Ratio (x) = -0.06231 0.02316
# Poissons Ratio (y) = -0.11885 0.12322
# Poissons Ratio (z) = 0.13104 0.36543
#
# Static dielectric constant tensor:
#      x y z
#    x 1.864490 0.000000 -0.056380 
#    y 0.000000 1.951880 0.000000 
#    z -0.056380 0.000000 1.749530 
# 
# From -- ./inp_files/246934.got.cif
#   From: 2010.05.17/outbox.cif.g08.bks.cpg/sg15_124_cif.got.tgz:246934.got - 2010.06.03 18:47:42.
