data_PCOD9261865
_publ_section_title
;
Structure prediction by ZEFSAII (Michael W. Deem and Ramdas Pophale) SiO2 
 PCOD9261865
Probable space group: C 2/C
;
_chemical_formula_sum "Si O2"
_cell_formula_units_Z 52
_cell_length_a 29.947262
_cell_length_b 8.916068
_cell_length_c 8.082324
_cell_angle_alpha 90.000000
_cell_angle_beta 120.292042
_cell_angle_gamma 90.000000
_cell_volume 1863.424493
_symmetry_space_group_name_H-M "C 2/C"
_symmetry_group_IT_number 15
_symmetry_cell_setting 'monoclinic'
loop_
_space_group_symop_operation_xyz
x,y,z
-x,y,1/2-z
-x,-y,-z
x,-y,1/2+z
1/2+x,1/2+y,z
1/2-x,1/2+y,1/2-z
1/2-x,1/2-y,-z
1/2+x,1/2-y,1/2+z
loop_
_atom_site_type_symbol
_atom_site_label
_atom_site_fract_x
_atom_site_fract_y
_atom_site_fract_z
Si Si1 0.936861 0.296067 0.731417
Si Si2 0.821645 0.921990 0.903654
Si Si3 0.000000 0.015379 0.750000
Si Si4 0.651932 0.296327 0.195480
Si Si5 0.871329 0.638704 0.819995
Si Si6 0.219838 0.374493 0.554971
Si Si7 0.523389 0.210191 0.629190
O O1 0.952136 0.135392 0.673782
O O2 0.899745 0.270945 0.821292
O O3 0.904471 0.399717 0.545711
O O4 0.990348 0.346045 0.912078
O O5 0.843264 0.788647 0.832195
O O6 0.764946 0.966644 0.729878
O O7 0.858437 0.062493 0.943156
O O8 0.820380 0.862206 0.087451
O O9 0.011416 0.888856 0.629154
O O10 0.687585 0.197431 0.144595
O O11 0.824294 0.551448 0.643667
O O12 0.916627 0.678746 0.778293
O O13 0.250000 0.250000 0.500000
O O14 0.500000 0.142800 0.750000
#
# Coordination Sequence:
#
# PCOD9261865 Si02
#       7
#     8   8   4   8   8   8   8
#     4  11  20  30  46  72 106 141 186 212 251 322
#     4  10  21  34  54  73 102 138 185 228 268 318
#     4  10  20  26  42  64 106 138 182 210 242 290
#     4  11  22  34  55  78 102 142 184 216 275 321
#     4  10  19  32  45  66  99 143 180 218 256 298
#     4  10  21  38  52  71 101 138 186 232 271 309
#     4  10  20  27  42  65 101 139 177 216 243 304
#
# _framework density 27.905612000000001
#
# number of rings (size 3 to 8) (size 9 to 14) (size 15 to 20)
#    0.462    1.231    1.538    4.615    4.308    0.000 
#    0.000    0.000    0.000    0.000    0.000    0.000 
#    0.000    0.000    0.000  256.154    1.231    1.000 
#
# Total GULP energy -145414.939876 kJ/mol
# GULP energy per Si atom -5592.882303 kJ/mol
# Density = 2.784210 g / cm^3
# Si number density = 27.905612 Si / 1000 Ang^3
#
#
#
# Elastic Constant Matrix: (Units=GPa)
#
#
# Indices 1 2 3 4 5 6 
#
# 1 188.1467 39.6100 67.7702 0.0000 -20.7535 0.0000
# 2 39.6100 91.1082 44.4046 0.0000 -13.3324 0.0000
# 3 67.7702 44.4046 170.0680 0.0000 23.3198 0.0000
# 4 0.0000 0.0000 0.0000 26.1509 0.0000 -11.4795
# 5 -20.7535 -13.3324 23.3198 0.0000 67.5315 0.0000
# 6 0.0000 0.0000 0.0000 -11.4795 0.0000 43.5085
#
#
#
# Elastic Compliance Matrix: (Units=1/GPa)
#
#
# Indices 1 2 3 4 5 6 
#
# 1 0.006903 -0.001204 -0.002829 0.000000 0.002860 0.000000
# 2 -0.001204 0.013787 -0.003614 0.000000 0.003600 0.000000
# 3 -0.002829 -0.003614 0.008574 0.000000 -0.004543 0.000000
# 4 0.000000 0.000000 0.000000 0.043249 0.000000 0.011411
# 5 0.002860 0.003600 -0.004543 0.000000 0.017967 0.000000
# 6 0.000000 0.000000 0.000000 0.011411 0.000000 0.025995
#
#
# Mechanical properties :
#
#
# Convention : Reuss Voigt Hill
#
# Bulk Modulus (GPa) = 71.57433 83.65471 77.61452
# Shear Modulus (GPa) = 36.65051 47.27405 41.96228
#
# Velocity S-wave (km/s) = 3.62798 4.12037 3.88199
# Velocity P-wave (km/s) = 6.57678 7.25806 6.92580
#
# Compressibility (1/GPa) = 0.01397149
#
# Stress axis : x y z
#
# Youngs Moduli (GPa) = 144.86827 72.52979 116.63553
#
# Poissons Ratio (x) = 0.08732 0.32991
# Poissons Ratio (y) = 0.17440 0.42150
# Poissons Ratio (z) = 0.40977 0.26211
#
# Static dielectric constant tensor:
#      x y z
#    x 2.127410 0.000000 -0.042160 
#    y 0.000000 2.219800 0.000000 
#    z -0.042160 0.000000 2.247800 
# 
# From -- ./inp_files/65219.got.cif
#   From: 2010.05.17/outbox.cif.g08.bks.cpg/sg15_33_cif.got.tgz:65219.got - 2010.06.03 18:47:42.
