data_PCOD9261571
_publ_section_title
;
Structure prediction by ZEFSAII (Michael W. Deem and Ramdas Pophale) SiO2 
 PCOD9261571
Probable space group: C 2/C
;
_chemical_formula_sum "Si O2"
_cell_formula_units_Z 48
_cell_length_a 10.355610
_cell_length_b 15.802291
_cell_length_c 12.162448
_cell_angle_alpha 90.000000
_cell_angle_beta 106.042539
_cell_angle_gamma 90.000000
_cell_volume 1912.783369
_symmetry_space_group_name_H-M "C 2/C"
_symmetry_group_IT_number 15
_symmetry_cell_setting 'monoclinic'
loop_
_space_group_symop_operation_xyz
x,y,z
-x,y,1/2-z
-x,-y,-z
x,-y,1/2+z
1/2+x,1/2+y,z
1/2-x,1/2+y,1/2-z
1/2-x,1/2-y,-z
1/2+x,1/2-y,1/2+z
loop_
_atom_site_type_symbol
_atom_site_label
_atom_site_fract_x
_atom_site_fract_y
_atom_site_fract_z
Si Si1 0.787846 0.656155 0.191099
Si Si2 0.020058 0.099460 0.995771
Si Si3 0.882939 0.543800 0.040599
Si Si4 0.867412 0.190158 0.141225
Si Si5 0.153290 0.387212 0.334217
Si Si6 0.314894 0.356160 0.163337
O O1 0.653182 0.625939 0.095964
O O2 0.899581 0.603015 0.151700
O O3 0.753520 0.650234 0.313507
O O4 0.807057 0.755297 0.172471
O O5 0.905066 0.149599 0.033983
O O6 0.053081 0.122966 0.877047
O O7 0.000000 0.000000 0.000000
O O8 0.814026 0.460511 0.073143
O O9 0.802782 0.603977 0.939483
O O10 0.000000 0.500000 0.000000
O O11 0.849934 0.290833 0.124585
O O12 0.000000 0.180069 0.250000
O O13 0.268039 0.392905 0.268646
O O14 0.000000 0.402255 0.250000
#
# Coordination Sequence:
#
# PCOD9261571 Si02
#       6
#     8   8   8   8   8   8
#     4   9  20  37  56  79 107 141 188 225 266 327
#     4  10  19  30  54  80 105 136 179 226 268 316
#     4  11  20  29  56  86 111 137 180 237 271 320
#     4   8  17  33  52  74 104 141 182 221 264 319
#     4  10  19  33  53  83 112 141 181 230 276 321
#     4  10  21  38  55  83 109 145 190 224 266 329
#
# _framework density 25.094321999999998
#
# number of rings (size 3 to 8) (size 9 to 14) (size 15 to 20)
#    0.000    2.333    1.667    3.000    4.667    0.000 
#    0.000    0.000    0.000    4.000   34.667    0.000 
#    0.000    0.000    0.000    0.000    0.000    0.000 
#
# Total GULP energy -134137.826847 kJ/mol
# GULP energy per Si atom -5589.076119 kJ/mol
# Density = 2.503721 g / cm^3
# Si number density = 25.094322 Si / 1000 Ang^3
#
#
#
# Elastic Constant Matrix: (Units=GPa)
#
#
# Indices 1 2 3 4 5 6 
#
# 1 113.2454 29.6198 63.0016 0.0000 -28.9600 0.0000
# 2 29.6198 72.4404 73.7356 0.0000 -49.8426 0.0000
# 3 63.0016 73.7356 161.4022 0.0000 -72.4920 0.0000
# 4 0.0000 0.0000 0.0000 97.0798 0.0000 60.1105
# 5 -28.9600 -49.8426 -72.4920 0.0000 62.3111 0.0000
# 6 0.0000 0.0000 0.0000 60.1105 0.0000 141.7358
#
#
#
# Elastic Compliance Matrix: (Units=1/GPa)
#
#
# Indices 1 2 3 4 5 6 
#
# 1 0.011283 -0.000179 -0.004255 0.000000 0.000151 0.000000
# 2 -0.000179 0.034071 -0.006895 0.000000 0.019149 0.000000
# 3 -0.004255 -0.006895 0.016003 0.000000 0.011125 0.000000
# 4 0.000000 0.000000 0.000000 0.013969 0.000000 -0.005924
# 5 0.000151 0.019149 0.011125 0.000000 0.044379 0.000000
# 6 0.000000 0.000000 0.000000 -0.005924 0.000000 0.009568
#
#
# Mechanical properties :
#
#
# Convention : Reuss Voigt Hill
#
# Bulk Modulus (GPa) = 25.83936 75.53355 50.68645
# Shear Modulus (GPa) = 30.33442 72.27408 51.30425
#
# Velocity S-wave (km/s) = 3.48057 5.37248 4.52647
# Velocity P-wave (km/s) = 5.14507 8.28552 6.89644
#
# Compressibility (1/GPa) = 0.03870065
#
# Stress axis : x y z
#
# Youngs Moduli (GPa) = 88.63120 29.35036 62.48805
#
# Poissons Ratio (x) = 0.00525 0.26586
# Poissons Ratio (y) = 0.01584 0.43085
# Poissons Ratio (z) = 0.37709 0.20237
#
# Static dielectric constant tensor:
#      x y z
#    x 1.406490 0.000000 -0.333800 
#    y 0.000000 1.863630 0.000000 
#    z -0.333800 0.000000 1.853160 
# 
# From -- ./inp_files/143534.got.cif
#   From: 2010.05.17/outbox.cif.g08.bks.cpg/sg15_72_cif.got.tgz:143534.got - 2010.06.03 18:47:42.
