data_PCOD9261487
_publ_section_title
;
Structure prediction by ZEFSAII (Michael W. Deem and Ramdas Pophale) SiO2 
 PCOD9261487
Probable space group: C 2/C
;
_chemical_formula_sum "Si O2"
_cell_formula_units_Z 56
_cell_length_a 15.670965
_cell_length_b 28.518842
_cell_length_c 8.857320
_cell_angle_alpha 90.000000
_cell_angle_beta 128.768212
_cell_angle_gamma 90.000000
_cell_volume 3086.380128
_symmetry_space_group_name_H-M "C 2/C"
_symmetry_group_IT_number 15
_symmetry_cell_setting 'monoclinic'
loop_
_space_group_symop_operation_xyz
x,y,z
-x,y,1/2-z
-x,-y,-z
x,-y,1/2+z
1/2+x,1/2+y,z
1/2-x,1/2+y,1/2-z
1/2-x,1/2-y,-z
1/2+x,1/2-y,1/2+z
loop_
_atom_site_type_symbol
_atom_site_label
_atom_site_fract_x
_atom_site_fract_y
_atom_site_fract_z
Si Si1 0.594902 0.463830 0.555184
Si Si2 0.707135 0.070071 0.713557
Si Si3 0.638876 0.176029 0.641033
Si Si4 0.386618 0.712050 0.894095
Si Si5 0.545001 0.391954 0.969043
Si Si6 0.000000 0.735367 0.250000
Si Si7 0.249609 0.996540 0.978192
Si Si8 0.500000 0.782121 0.250000
O O1 0.500000 0.500000 0.500000
O O2 0.537498 0.414041 0.501318
O O3 0.691243 0.465772 0.785260
O O4 0.651129 0.479499 0.463893
O O5 0.647869 0.119846 0.636940
O O6 0.691389 0.038081 0.547834
O O7 0.836273 0.083957 0.876404
O O8 0.684785 0.036548 0.833431
O O9 0.759227 0.199179 0.767145
O O10 0.570944 0.201710 0.435385
O O11 0.578752 0.187833 0.730733
O O12 0.423977 0.732590 0.773872
O O13 0.446361 0.663131 0.995922
O O14 0.425540 0.749540 0.060726
O O15 0.500000 0.402064 0.750000
#
# Coordination Sequence:
#
# PCOD9261487 Si02
#       8
#     8   8   8   8   8   4   8   4
#     4  11  17  27  45  72 115 163 190 209 266 343
#     4  10  21  33  52  79 113 147 186 236 274 344
#     4  10  22  40  63  85 112 147 200 242 289 351
#     4  10  21  36  59  90 122 147 191 235 288 351
#     4  11  18  28  48  79 121 154 185 218 268 346
#     4  10  22  42  62  83 115 156 186 246 306 338
#     4  10  19  30  48  75 116 154 189 225 281 329
#     4  10  20  40  64  85 111 154 186 244 306 342
#
# _framework density 18.144234000000001
#
# number of rings (size 3 to 8) (size 9 to 14) (size 15 to 20)
#    0.000    1.714    5.000    1.286    0.000    2.286 
#    0.000    5.714    0.000    2.571    0.000    0.000 
#    0.000    0.000    0.000    0.000    0.000    0.000 
#
# Total GULP energy -156197.711384 kJ/mol
# GULP energy per Si atom -5578.489692 kJ/mol
# Density = 1.810294 g / cm^3
# Si number density = 18.144234 Si / 1000 Ang^3
#
#
#
# Elastic Constant Matrix: (Units=GPa)
#
#
# Indices 1 2 3 4 5 6 
#
# 1 89.2831 58.4634 36.1791 0.0000 -13.0420 0.0000
# 2 58.4634 122.0288 25.8043 0.0000 -5.2314 0.0000
# 3 36.1791 25.8043 41.7093 0.0000 -14.7056 0.0000
# 4 0.0000 0.0000 0.0000 28.2386 0.0000 1.9870
# 5 -13.0420 -5.2314 -14.7056 0.0000 24.7660 0.0000
# 6 0.0000 0.0000 0.0000 1.9870 0.0000 28.2770
#
#
#
# Elastic Compliance Matrix: (Units=1/GPa)
#
#
# Indices 1 2 3 4 5 6 
#
# 1 0.021980 -0.007543 -0.013761 0.000000 0.001811 0.000000
# 2 -0.007543 0.012085 -0.001814 0.000000 -0.002497 0.000000
# 3 -0.013761 -0.001814 0.043438 0.000000 0.018163 0.000000
# 4 0.000000 0.000000 0.000000 0.035588 0.000000 -0.002501
# 5 0.001811 -0.002497 0.018163 0.000000 0.051589 0.000000
# 6 0.000000 0.000000 0.000000 -0.002501 0.000000 0.035540
#
#
# Mechanical properties :
#
#
# Convention : Reuss Voigt Hill
#
# Bulk Modulus (GPa) = 31.98223 54.87944 43.43084
# Shear Modulus (GPa) = 19.46440 25.09460 22.27950
#
# Velocity S-wave (km/s) = 3.27885 3.72299 3.50796
# Velocity P-wave (km/s) = 5.65680 6.98518 6.35579
#
# Compressibility (1/GPa) = 0.03126736
#
# Stress axis : x y z
#
# Youngs Moduli (GPa) = 45.49529 82.74556 23.02145
#
# Poissons Ratio (x) = 0.62416 0.31679
# Poissons Ratio (y) = 0.34318 0.04176
# Poissons Ratio (z) = 0.62605 0.15010
#
# Static dielectric constant tensor:
#      x y z
#    x 1.616090 0.000000 -0.011650 
#    y 0.000000 1.623690 0.000000 
#    z -0.011650 0.000000 1.632240 
# 
# From -- ./inp_files/44623.got.cif
#   From: 2010.05.17/outbox.cif.g08.bks.cpg/sg15_23_cif.got.tgz:44623.got - 2010.06.03 18:47:42.
