data_PCOD9261874
_publ_section_title
;
Structure prediction by ZEFSAII (Michael W. Deem and Ramdas Pophale) SiO2 
 PCOD9261874
Probable space group: C 2/C
;
_chemical_formula_sum "Si O2"
_cell_formula_units_Z 56
_cell_length_a 28.109809
_cell_length_b 14.291548
_cell_length_c 23.275244
_cell_angle_alpha 90.000000
_cell_angle_beta 165.106710
_cell_angle_gamma 90.000000
_cell_volume 2403.242980
_symmetry_space_group_name_H-M "C 2/C"
_symmetry_group_IT_number 15
_symmetry_cell_setting 'monoclinic'
loop_
_space_group_symop_operation_xyz
x,y,z
-x,y,1/2-z
-x,-y,-z
x,-y,1/2+z
1/2+x,1/2+y,z
1/2-x,1/2+y,1/2-z
1/2-x,1/2-y,-z
1/2+x,1/2-y,1/2+z
loop_
_atom_site_type_symbol
_atom_site_label
_atom_site_fract_x
_atom_site_fract_y
_atom_site_fract_z
Si Si1 0.129998 0.994697 0.287055
Si Si2 0.543316 0.669118 0.113430
Si Si3 0.410443 0.850568 0.583365
Si Si4 0.000000 0.031799 0.250000
Si Si5 0.500000 0.903080 0.250000
Si Si6 0.344500 0.819244 0.732778
Si Si7 0.683402 0.814839 0.369646
Si Si8 0.293885 0.700013 0.312523
O O1 0.026856 0.074578 0.130887
O O2 0.308659 0.043946 0.524226
O O3 0.022849 0.968205 0.220005
O O4 0.227323 0.914841 0.363663
O O5 0.637682 0.751011 0.262172
O O6 0.662315 0.647930 0.195385
O O7 0.351002 0.716686 0.870182
O O8 0.500000 0.864858 0.750000
O O9 0.565809 0.873182 0.716514
O O10 0.328402 0.745807 0.486439
O O11 0.163360 0.104948 0.459496
O O12 0.502642 0.854918 0.190426
O O13 0.283512 0.859681 0.723830
O O14 0.517677 0.751441 0.949695
O O15 0.750000 0.750000 0.500000
#
# Coordination Sequence:
#
# PCOD9261874 Si02
#       8
#     8   8   8   4   4   8   8   8
#     4  11  22  35  54  90 131 158 188 252 304 371
#     4  11  19  31  59  86 125 171 211 232 288 349
#     4  11  22  43  69  96 112 150 191 256 339 390
#     4  10  21  34  46  83 136 164 198 235 296 350
#     4  10  19  32  46  79 136 160 200 237 292 340
#     4   9  21  44  66  84 115 145 203 273 304 356
#     4  11  19  28  52  80 124 178 215 235 276 345
#     4   9  20  38  59  90 115 161 218 247 270 350
#
# _framework density 23.301848
#
# number of rings (size 3 to 8) (size 9 to 14) (size 15 to 20)
#    0.000    1.714    3.571    2.571    0.000    0.000 
#    6.429    7.143    0.000    0.000    0.000    0.000 
#    0.000    0.000    0.000    0.000    0.000    0.000 
#
# Total GULP energy -156125.328778 kJ/mol
# GULP energy per Si atom -5575.904599 kJ/mol
# Density = 2.324881 g / cm^3
# Si number density = 23.301848 Si / 1000 Ang^3
#
#
#
# Elastic Constant Matrix: (Units=GPa)
#
#
# Indices 1 2 3 4 5 6 
#
# 1 184.4722 15.5335 6.7938 -0.0063 20.1015 -0.0190
# 2 15.5335 40.0935 -2.3227 -0.0088 0.0810 -0.0276
# 3 6.7938 -2.3227 52.9938 0.0037 -9.4696 -0.0065
# 4 -0.0063 -0.0088 0.0037 32.7520 0.0045 21.0619
# 5 20.1015 0.0810 -9.4696 0.0045 35.8520 -0.0041
# 6 -0.0190 -0.0276 -0.0065 21.0619 -0.0041 35.9189
#
#
#
# Elastic Compliance Matrix: (Units=1/GPa)
#
#
# Indices 1 2 3 4 5 6 
#
# 1 0.006103 -0.002448 -0.001574 0.000001 -0.003832 0.000000
# 2 -0.002448 0.025989 0.001771 -0.000010 0.001782 0.000025
# 3 -0.001574 0.001771 0.020263 -0.000010 0.006231 0.000011
# 4 0.000001 -0.000010 -0.000010 0.049015 -0.000013 -0.028741
# 5 -0.003832 0.001782 0.006231 -0.000013 0.031683 0.000012
# 6 0.000000 0.000025 0.000011 -0.028741 0.000012 0.044694
#
#
# Mechanical properties :
#
#
# Convention : Reuss Voigt Hill
#
# Bulk Modulus (GPa) = 20.89742 35.28543 28.09142
# Shear Modulus (GPa) = 25.22720 38.07489 31.65105
#
# Velocity S-wave (km/s) = 3.29390 4.04664 3.68952
# Velocity P-wave (km/s) = 4.84293 6.08354 5.49833
#
# Compressibility (1/GPa) = 0.04785281
#
# Stress axis : x y z
#
# Youngs Moduli (GPa) = 163.86681 38.47769 49.35108
#
# Poissons Ratio (x) = 0.09418 0.07770
# Poissons Ratio (y) = 0.40111 -0.08741
# Poissons Ratio (z) = 0.25798 -0.06815
#
# Static dielectric constant tensor:
#      x y z
#    x 1.911740 -0.000010 -0.001280 
#    y -0.000010 1.765880 -0.000020 
#    z -0.001280 -0.000020 1.856230 
# 
# From -- ./inp_files/255959.got.cif
#   From: 2010.05.17/outbox.cif.g08.bks.cpg/sg15_128_cif.got.tgz:255959.got - 2010.06.03 18:47:42.
