data_PCOD9261428
_publ_section_title
;
Structure prediction by ZEFSAII (Michael W. Deem and Ramdas Pophale) SiO2 
 PCOD9261428
Probable space group: C 2/C
;
_chemical_formula_sum "Si O2"
_cell_formula_units_Z 60
_cell_length_a 20.304748
_cell_length_b 26.239677
_cell_length_c 5.395069
_cell_angle_alpha 90.000000
_cell_angle_beta 87.353322
_cell_angle_gamma 90.000000
_cell_volume 2871.372753
_symmetry_space_group_name_H-M "C 2/C"
_symmetry_group_IT_number 15
_symmetry_cell_setting 'monoclinic'
loop_
_space_group_symop_operation_xyz
x,y,z
-x,y,1/2-z
-x,-y,-z
x,-y,1/2+z
1/2+x,1/2+y,z
1/2-x,1/2+y,1/2-z
1/2-x,1/2-y,-z
1/2+x,1/2-y,1/2+z
loop_
_atom_site_type_symbol
_atom_site_label
_atom_site_fract_x
_atom_site_fract_y
_atom_site_fract_z
Si Si1 0.568314 0.783895 0.341643
Si Si2 0.255710 0.321411 0.658312
Si Si3 0.084409 0.832325 0.863952
Si Si4 0.393738 0.356219 0.143672
Si Si5 0.142906 0.466659 0.257576
Si Si6 0.753434 0.379545 0.341508
Si Si7 0.137893 0.265808 0.825939
Si Si8 0.500000 0.034366 0.750000
O O1 0.500000 0.807285 0.250000
O O2 0.554286 0.723519 0.384857
O O3 0.598204 0.795038 0.610013
O O4 0.618312 0.787019 0.099868
O O5 0.335236 0.321212 0.657644
O O6 0.235752 0.341606 0.392392
O O7 0.214405 0.271370 0.737479
O O8 0.232690 0.358372 0.886307
O O9 0.068331 0.860839 0.616106
O O10 0.071182 0.865218 0.106162
O O11 0.325562 0.386702 0.147890
O O12 0.378426 0.294462 0.158670
O O13 0.145687 0.494302 0.524343
O O14 0.202526 0.428113 0.218120
O O15 0.071187 0.438904 0.246551
O O16 0.500000 0.000000 0.500000
#
# Coordination Sequence:
#
# PCOD9261428 Si02
#       8
#     8   8   8   8   8   8   8   4
#     4  10  19  30  44  60  84 119 157 190 221 259
#     4  10  19  31  48  69  89 116 153 191 228 260
#     4   8  16  27  42  63  83 107 148 186 219 255
#     4   8  16  27  42  66  89 112 143 181 222 253
#     4  10  19  33  52  71  89 113 148 184 230 283
#     4  10  19  30  47  70  94 110 140 188 235 271
#     4  10  19  31  48  65  86 120 161 191 215 268
#     4   8  16  30  50  68  80 104 146 188 214 264
#
# _framework density 20.895931000000001
#
# number of rings (size 3 to 8) (size 9 to 14) (size 15 to 20)
#    0.000    2.667    0.000    2.000    0.000    9.600 
#    0.000    0.000    8.800    0.000    0.000    0.000 
#    0.000    0.000    0.000    0.000    0.000 1080.000 
#
# Total GULP energy -167166.625165 kJ/mol
# GULP energy per Si atom -5572.220839 kJ/mol
# Density = 2.084837 g / cm^3
# Si number density = 20.895931 Si / 1000 Ang^3
#
#
#
# Elastic Constant Matrix: (Units=GPa)
#
#
# Indices 1 2 3 4 5 6 
#
# 1 78.0152 13.3171 13.8974 0.0000 6.0301 0.0000
# 2 13.3171 8.6487 -1.8539 0.0000 0.9158 0.0000
# 3 13.8974 -1.8539 166.3019 0.0000 5.7533 0.0000
# 4 0.0000 0.0000 0.0000 16.1978 0.0000 -2.4636
# 5 6.0301 0.9158 5.7533 0.0000 27.8473 0.0000
# 6 0.0000 0.0000 0.0000 -2.4636 0.0000 11.9427
#
#
#
# Elastic Compliance Matrix: (Units=1/GPa)
#
#
# Indices 1 2 3 4 5 6 
#
# 1 0.018106 -0.027970 -0.001733 0.000000 -0.002643 0.000000
# 2 -0.027970 0.159580 0.004118 0.000000 -0.000042 0.000000
# 3 -0.001733 0.004118 0.006240 0.000000 -0.001049 0.000000
# 4 0.000000 0.000000 0.000000 0.063736 0.000000 0.013148
# 5 -0.002643 -0.000042 -0.001049 0.000000 0.036701 0.000000
# 6 0.000000 0.000000 0.000000 0.013148 0.000000 0.086445
#
#
# Mechanical properties :
#
#
# Convention : Reuss Voigt Hill
#
# Bulk Modulus (GPa) = 7.53275 33.74301 20.63788
# Shear Modulus (GPa) = 10.72429 26.37124 18.54777
#
# Velocity S-wave (km/s) = 2.26790 3.55636 2.98254
# Velocity P-wave (km/s) = 3.23582 5.74863 4.66462
#
# Compressibility (1/GPa) = 0.13275371
#
# Stress axis : x y z
#
# Youngs Moduli (GPa) = 55.23160 6.26645 160.25067
#
# Poissons Ratio (x) = 0.17528 0.27778
# Poissons Ratio (y) = 1.54485 -0.65988
# Poissons Ratio (z) = 0.09574 -0.02580
#
# Static dielectric constant tensor:
#      x y z
#    x 1.874080 0.000000 0.017410 
#    y 0.000000 1.712550 0.000000 
#    z 0.017410 0.000000 1.860220 
# 
# From -- ./inp_files/12011.got.cif
#   From: 2010.05.17/outbox.cif.g08.bks.cpg/sg15_7_cif.got.tgz:12011.got - 2010.06.03 18:47:42.
