data_PCOD9261033
_publ_section_title
;
Structure prediction by ZEFSAII (Michael W. Deem and Ramdas Pophale) SiO2 
 PCOD9261033
Probable space group: C 2/C
;
_chemical_formula_sum "Si O2"
_cell_formula_units_Z 60
_cell_length_a 6.204974
_cell_length_b 15.379529
_cell_length_c 28.100043
_cell_angle_alpha 90.000000
_cell_angle_beta 88.995932
_cell_angle_gamma 90.000000
_cell_volume 2681.163487
_symmetry_space_group_name_H-M "C 2/C"
_symmetry_group_IT_number 15
_symmetry_cell_setting 'monoclinic'
loop_
_space_group_symop_operation_xyz
x,y,z
-x,y,1/2-z
-x,-y,-z
x,-y,1/2+z
1/2+x,1/2+y,z
1/2-x,1/2+y,1/2-z
1/2-x,1/2-y,-z
1/2+x,1/2-y,1/2+z
loop_
_atom_site_type_symbol
_atom_site_label
_atom_site_fract_x
_atom_site_fract_y
_atom_site_fract_z
Si Si1 0.617710 0.652989 0.299406
Si Si2 0.313863 0.213876 0.820614
Si Si3 0.017830 0.622148 0.343558
Si Si4 0.627524 0.377712 0.408177
Si Si5 0.821012 0.287867 0.932297
Si Si6 0.500000 0.374198 0.250000
Si Si7 0.935690 0.308984 0.476074
Si Si8 0.124277 0.008010 0.658572
O O1 0.500000 0.643934 0.250000
O O2 0.556361 0.750550 0.315948
O O3 0.867745 0.633896 0.298469
O O4 0.522518 0.575786 0.331300
O O5 0.271150 0.144072 0.861235
O O6 0.193542 0.180658 0.773655
O O7 0.190164 0.300682 0.838176
O O8 0.869961 0.646595 0.389331
O O9 0.135910 0.530514 0.346130
O O10 0.474392 0.295593 0.421620
O O11 0.802845 0.384284 0.449639
O O12 0.462857 0.449474 0.389572
O O13 0.580051 0.250391 0.939819
O O14 0.900491 0.330483 0.981704
O O15 0.407232 0.430912 0.294717
O O16 0.750000 0.250000 0.500000
#
# Coordination Sequence:
#
# PCOD9261033 Si02
#       8
#     8   8   8   8   8   4   8   8
#     4  11  21  36  55  80 110 157 198 244 306 363
#     4   9  19  34  58  80 112 146 200 252 293 354
#     4  10  21  37  56  82 118 159 195 247 301 375
#     4   9  18  34  56  83 115 150 192 246 298 357
#     4   9  18  34  59  87 113 150 199 240 308 362
#     4  10  18  40  58  86 118 150 206 262 298 364
#     4   9  17  32  59  89 115 144 189 255 298 362
#     4  10  22  37  55  82 122 157 196 245 309 361
#
# _framework density 22.378346000000001
#
# number of rings (size 3 to 8) (size 9 to 14) (size 15 to 20)
#    0.000    2.400    0.667    1.600    0.000    3.733 
#    0.000    8.667    0.000    8.000    0.000    0.000 
#    0.000    0.000    0.000    0.000    0.000    0.000 
#
# Total GULP energy -167343.797888 kJ/mol
# GULP energy per Si atom -5578.126596 kJ/mol
# Density = 2.232741 g / cm^3
# Si number density = 22.378346 Si / 1000 Ang^3
#
#
#
# Elastic Constant Matrix: (Units=GPa)
#
#
# Indices 1 2 3 4 5 6 
#
# 1 96.8337 30.3201 37.8393 0.0000 0.1233 0.0000
# 2 30.3201 55.9874 24.0852 0.0000 -2.5229 0.0000
# 3 37.8393 24.0852 91.2193 0.0000 -1.5985 0.0000
# 4 0.0000 0.0000 0.0000 12.7346 0.0000 3.7603
# 5 0.1233 -2.5229 -1.5985 0.0000 30.3152 0.0000
# 6 0.0000 0.0000 0.0000 3.7603 0.0000 39.3780
#
#
#
# Elastic Compliance Matrix: (Units=1/GPa)
#
#
# Indices 1 2 3 4 5 6 
#
# 1 0.013751 -0.005665 -0.004222 0.000000 -0.000750 0.000000
# 2 -0.005665 0.022543 -0.003572 0.000000 0.001711 0.000000
# 3 -0.004222 -0.003572 0.013665 0.000000 0.000440 0.000000
# 4 0.000000 0.000000 0.000000 0.080805 0.000000 -0.007716
# 5 -0.000750 0.001711 0.000440 0.000000 0.033155 0.000000
# 6 0.000000 0.000000 0.000000 -0.007716 0.000000 0.026132
#
#
# Mechanical properties :
#
#
# Convention : Reuss Voigt Hill
#
# Bulk Modulus (GPa) = 43.40022 47.61439 45.50730
# Shear Modulus (GPa) = 22.25693 26.60526 24.43110
#
# Velocity S-wave (km/s) = 3.15711 3.45176 3.30772
# Velocity P-wave (km/s) = 5.72064 6.09995 5.91334
#
# Compressibility (1/GPa) = 0.02304136
#
# Stress axis : x y z
#
# Youngs Moduli (GPa) = 72.72002 44.36016 73.18090
#
# Poissons Ratio (x) = 0.25129 0.30895
# Poissons Ratio (y) = 0.41194 0.26142
# Poissons Ratio (z) = 0.30701 0.15847
#
# Static dielectric constant tensor:
#      x y z
#    x 1.903560 0.000000 -0.001710 
#    y 0.000000 1.828190 0.000000 
#    z -0.001710 0.000000 1.896020 
# 
# From -- ./inp_files/305678.got.cif
#   From: 2010.05.17/outbox.cif.g08.bks.cpg/sg15_153_cif.got.tgz:305678.got - 2010.06.03 18:47:42.
