data_PCOD9261983
_publ_section_title
;
Structure prediction by ZEFSAII (Michael W. Deem and Ramdas Pophale) SiO2 
 PCOD9261983
Probable space group: C 2/C
;
_chemical_formula_sum "Si O2"
_cell_formula_units_Z 60
_cell_length_a 35.094914
_cell_length_b 13.788839
_cell_length_c 5.317180
_cell_angle_alpha 90.000000
_cell_angle_beta 88.408781
_cell_angle_gamma 90.000000
_cell_volume 2572.087519
_symmetry_space_group_name_H-M "C 2/C"
_symmetry_group_IT_number 15
_symmetry_cell_setting 'monoclinic'
loop_
_space_group_symop_operation_xyz
x,y,z
-x,y,1/2-z
-x,-y,-z
x,-y,1/2+z
1/2+x,1/2+y,z
1/2-x,1/2+y,1/2-z
1/2-x,1/2-y,-z
1/2+x,1/2-y,1/2+z
loop_
_atom_site_type_symbol
_atom_site_label
_atom_site_fract_x
_atom_site_fract_y
_atom_site_fract_z
Si Si1 0.920050 0.361284 0.840182
Si Si2 0.104988 0.649926 0.662062
Si Si3 0.181014 0.567183 0.783980
Si Si4 0.264561 0.435598 0.201699
Si Si5 0.575144 0.365329 0.156876
Si Si6 0.500000 0.062800 0.250000
Si Si7 0.957109 0.175600 0.334687
Si Si8 0.158475 0.056124 0.672982
O O1 0.893534 0.392040 0.617721
O O2 0.913627 0.247828 0.883675
O O3 0.963038 0.372336 0.749561
O O4 0.915711 0.409913 0.112690
O O5 0.148091 0.648050 0.755227
O O6 0.075961 0.741077 0.636113
O O7 0.177873 0.489783 0.551499
O O8 0.223455 0.612000 0.751446
O O9 0.265005 0.519354 0.420751
O O10 0.304513 0.381088 0.251058
O O11 0.545480 0.372125 0.391213
O O12 0.615435 0.410533 0.219569
O O13 0.557179 0.392351 0.891293
O O14 0.500000 0.000000 0.500000
O O15 0.000000 0.209557 0.250000
O O16 0.161928 0.030595 0.377978
#
# Coordination Sequence:
#
# PCOD9261983 Si02
#       8
#     8   8   8   8   8   4   8   8
#     4  10  23  37  55  76 106 146 187 226 282 329
#     4  10  21  33  55  73 103 138 188 227 270 315
#     4  10  19  32  51  76 110 145 180 218 280 344
#     4   8  16  30  51  80 109 144 177 214 266 334
#     4  10  21  36  60  84 108 148 188 226 279 344
#     4  12  26  40  56  80 106 134 186 248 280 308
#     4  10  21  36  58  76  97 143 197 229 263 326
#     4  10  19  35  61  90 118 139 178 233 277 323
#
# _framework density 23.327354
#
# number of rings (size 3 to 8) (size 9 to 14) (size 15 to 20)
#    0.000    2.133    0.000    2.800    7.467    3.200 
#    0.000    0.000    0.000   14.400    0.000    0.000 
#    0.000    0.000    0.000    0.000    0.000    0.000 
#
# Total GULP energy -167056.975105 kJ/mol
# GULP energy per Si atom -5568.565837 kJ/mol
# Density = 2.327426 g / cm^3
# Si number density = 23.327354 Si / 1000 Ang^3
#
#
#
# Elastic Constant Matrix: (Units=GPa)
#
#
# Indices 1 2 3 4 5 6 
#
# 1 127.2665 0.1224 6.5465 0.0000 -4.1048 0.0000
# 2 0.1224 27.1917 -5.1549 0.0000 3.8542 0.0000
# 3 6.5465 -5.1549 172.6152 0.0000 6.4324 0.0000
# 4 0.0000 0.0000 0.0000 3.3217 0.0000 -0.3949
# 5 -4.1048 3.8542 6.4324 0.0000 41.6931 0.0000
# 6 0.0000 0.0000 0.0000 -0.3949 0.0000 34.1873
#
#
#
# Elastic Compliance Matrix: (Units=1/GPa)
#
#
# Indices 1 2 3 4 5 6 
#
# 1 0.007903 -0.000220 -0.000338 0.000000 0.000851 0.000000
# 2 -0.000220 0.037540 0.001267 0.000000 -0.003687 0.000000
# 3 -0.000338 0.001267 0.005883 0.000000 -0.001058 0.000000
# 4 0.000000 0.000000 0.000000 0.301464 0.000000 0.003482
# 5 0.000851 -0.003687 -0.001058 0.000000 0.024573 0.000000
# 6 0.000000 0.000000 0.000000 0.003482 0.000000 0.029291
#
#
# Mechanical properties :
#
#
# Convention : Reuss Voigt Hill
#
# Bulk Modulus (GPa) = 18.95989 36.67792 27.81891
# Shear Modulus (GPa) = 11.82545 37.54438 24.68492
#
# Velocity S-wave (km/s) = 2.25396 4.01616 3.25652
# Velocity P-wave (km/s) = 3.86254 6.10437 5.10796
#
# Compressibility (1/GPa) = 0.05274292
#
# Stress axis : x y z
#
# Youngs Moduli (GPa) = 126.54135 26.63845 169.97234
#
# Poissons Ratio (x) = 0.00587 0.05745
# Poissons Ratio (y) = 0.02786 -0.21533
# Poissons Ratio (z) = 0.04277 -0.03375
#
# Static dielectric constant tensor:
#      x y z
#    x 1.900450 0.000000 -0.013320 
#    y 0.000000 1.907570 0.000000 
#    z -0.013320 0.000000 2.005440 
# 
# From -- ./inp_files/18354.got.cif
#   From: 2010.05.17/outbox.cif.g08.bks.cpg/sg15_10_cif.got.tgz:18354.got - 2010.06.03 18:47:42.
