data_PCOD9261451
_publ_section_title
;
Structure prediction by ZEFSAII (Michael W. Deem and Ramdas Pophale) SiO2 
 PCOD9261451
Probable space group: C 2/C
;
_chemical_formula_sum "Si O2"
_cell_formula_units_Z 44
_cell_length_a 12.476295
_cell_length_b 6.431030
_cell_length_c 23.155656
_cell_angle_alpha 90.000000
_cell_angle_beta 81.821193
_cell_angle_gamma 90.000000
_cell_volume 1839.007067
_symmetry_space_group_name_H-M "C 2/C"
_symmetry_group_IT_number 15
_symmetry_cell_setting 'monoclinic'
loop_
_space_group_symop_operation_xyz
x,y,z
-x,y,1/2-z
-x,-y,-z
x,-y,1/2+z
1/2+x,1/2+y,z
1/2-x,1/2+y,1/2-z
1/2-x,1/2-y,-z
1/2+x,1/2-y,1/2+z
loop_
_atom_site_type_symbol
_atom_site_label
_atom_site_fract_x
_atom_site_fract_y
_atom_site_fract_z
Si Si1 0.737334 0.674109 0.586360
Si Si2 0.000000 0.536004 0.750000
Si Si3 0.855151 0.156034 0.789035
Si Si4 0.526710 0.588337 0.060289
Si Si5 0.170207 0.558911 0.519117
Si Si6 0.570285 0.583354 0.316807
O O1 0.737975 0.656361 0.655623
O O2 0.629346 0.546372 0.574776
O O3 0.831281 0.571022 0.540449
O O4 0.715919 0.904024 0.563858
O O5 0.096145 0.385240 0.722256
O O6 0.048880 0.685943 0.795054
O O7 0.840758 0.040142 0.728414
O O8 0.956884 0.030029 0.808077
O O9 0.564592 0.826182 0.050380
O O10 0.430667 0.568738 0.114261
O O11 0.500000 0.500000 0.000000
O O12 0.250000 0.750000 0.500000
#
# Coordination Sequence:
#
# PCOD9261451 Si02
#       6
#     8   4   8   8   8   8
#     4   9  17  31  48  71  97 124 167 206 245 290
#     4   8  12  22  40  60  90 120 140 190 248 282
#     4   8  14  24  42  65  90 116 149 203 241 276
#     4  10  19  30  46  72 103 131 156 198 250 302
#     4   9  18  31  48  70  95 127 163 201 241 292
#     4   8  15  25  39  66  96 117 151 191 238 290
#
# _framework density 23.925954000000001
#
# number of rings (size 3 to 8) (size 9 to 14) (size 15 to 20)
#    0.000    3.636    0.000    1.091    0.000    2.182 
#    0.000    0.000    0.000    0.000   14.182    0.000 
#    0.000    0.000    0.000    0.000    0.000    0.000 
#
# Total GULP energy -122829.665574 kJ/mol
# GULP energy per Si atom -5583.166617 kJ/mol
# Density = 2.387150 g / cm^3
# Si number density = 23.925954 Si / 1000 Ang^3
#
#
#
# Elastic Constant Matrix: (Units=GPa)
#
#
# Indices 1 2 3 4 5 6 
#
# 1 79.6507 26.6631 30.9780 0.0000 -1.5081 0.0000
# 2 26.6631 153.5514 63.4542 0.0000 0.8912 0.0000
# 3 30.9780 63.4542 231.6449 0.0000 -5.1134 0.0000
# 4 0.0000 0.0000 0.0000 11.4418 0.0000 -9.5172
# 5 -1.5081 0.8912 -5.1134 0.0000 22.7785 0.0000
# 6 0.0000 0.0000 0.0000 -9.5172 0.0000 1.1623
#
#
#
# Elastic Compliance Matrix: (Units=1/GPa)
#
#
# Indices 1 2 3 4 5 6 
#
# 1 0.013694 -0.001840 -0.001312 0.000000 0.000684 0.000000
# 2 -0.001840 0.007603 -0.001855 0.000000 -0.000836 0.000000
# 3 -0.001312 -0.001855 0.005025 0.000000 0.001114 0.000000
# 4 0.000000 0.000000 0.000000 -0.015040 0.000000 -0.123155
# 5 0.000684 -0.000836 0.001114 0.000000 0.044229 0.000000
# 6 0.000000 0.000000 0.000000 -0.123155 0.000000 -0.148060
#
#
# Mechanical properties :
#
#
# Convention : Reuss Voigt Hill
#
# Bulk Modulus (GPa) = 61.31789 78.55973 69.93881
# Shear Modulus (GPa) = -64.85261 29.99330 -17.42966
#
# Velocity S-wave (km/s) = -5.21195 3.54445 -2.70197
# Velocity P-wave (km/s) = 3.24582 7.04674 4.42274
#
# Compressibility (1/GPa) = 0.01630845
#
# Stress axis : x y z
#
# Youngs Moduli (GPa) = 73.02505 131.51977 198.99558
#
# Poissons Ratio (x) = 0.24193 0.26114
# Poissons Ratio (y) = 0.13433 0.36919
# Poissons Ratio (z) = 0.09583 0.24400
#
# Static dielectric constant tensor:
#      x y z
#    x 2.002270 0.000000 -0.014240 
#    y 0.000000 1.885840 0.000000 
#    z -0.014240 0.000000 1.990520 
# 
# From -- ./inp_files/297280.got.cif
#   From: 2010.05.17/outbox.cif.g08.bks.cpg/sg15_149_cif.got.tgz:297280.got - 2010.06.03 18:47:42.
