data_PCOD9261363
_publ_section_title
;
Structure prediction by ZEFSAII (Michael W. Deem and Ramdas Pophale) SiO2 
 PCOD9261363
Probable space group: C 2/C
;
_chemical_formula_sum "Si O2"
_cell_formula_units_Z 64
_cell_length_a 22.697603
_cell_length_b 17.815445
_cell_length_c 23.058376
_cell_angle_alpha 90.000000
_cell_angle_beta 22.478348
_cell_angle_gamma 90.000000
_cell_volume 3564.910382
_symmetry_space_group_name_H-M "C 2/C"
_symmetry_group_IT_number 15
_symmetry_cell_setting 'monoclinic'
loop_
_space_group_symop_operation_xyz
x,y,z
-x,y,1/2-z
-x,-y,-z
x,-y,1/2+z
1/2+x,1/2+y,z
1/2-x,1/2+y,1/2-z
1/2-x,1/2-y,-z
1/2+x,1/2-y,1/2+z
loop_
_atom_site_type_symbol
_atom_site_label
_atom_site_fract_x
_atom_site_fract_y
_atom_site_fract_z
Si Si1 0.546809 0.350186 0.775397
Si Si2 0.763958 0.716083 0.923011
Si Si3 0.203357 0.031169 0.367405
Si Si4 0.721865 0.957056 0.890127
Si Si5 0.140818 0.927807 0.310468
Si Si6 0.333410 0.151493 0.168864
Si Si7 0.344397 0.197505 0.670710
Si Si8 0.087129 0.595378 0.777387
O O1 0.500000 0.352711 0.750000
O O2 0.680546 0.288491 0.662132
O O3 0.617167 0.427763 0.730926
O O4 0.399721 0.319658 0.943676
O O5 0.884529 0.649218 0.803206
O O6 0.750000 0.750000 0.000000
O O7 0.304324 0.101091 0.252354
O O8 0.039511 0.061756 0.538661
O O9 0.170118 0.979855 0.340628
O O10 0.294444 0.974100 0.326243
O O11 0.685654 0.906242 0.867004
O O12 0.750660 0.039429 0.839048
O O13 0.582204 0.939459 0.060527
O O14 0.200519 0.846287 0.273108
O O15 0.205646 0.216429 0.278908
O O16 0.502613 0.186268 0.006871
O O17 0.378811 0.153113 0.699848
#
# Coordination Sequence:
#
# PCOD9261363 Si02
#       8
#     8   8   8   8   8   8   8   8
#     4  10  20  32  45  62  85 115 152 198 240 278
#     4  10  20  32  45  62  85 115 153 198 241 278
#     4   9  17  29  45  65  89 118 154 194 234 281
#     4  10  19  31  47  65  88 122 162 199 239 287
#     4   9  17  29  45  65  89 118 154 194 235 282
#     4  10  19  29  43  65  93 124 158 195 234 281
#     4  10  19  29  43  65  93 124 158 195 235 282
#     4  10  19  31  47  65  88 122 162 199 239 287
#
# _framework density 17.952764999999999
#
# number of rings (size 3 to 8) (size 9 to 14) (size 15 to 20)
#    0.000    2.250    0.000    3.750    0.000    9.000 
#    0.000    0.000    0.000    0.000    0.000    0.000 
#    0.000    0.000    0.000   31.500    0.000    9.750 
#
# Total GULP energy -178416.393582 kJ/mol
# GULP energy per Si atom -5575.512299 kJ/mol
# Density = 1.791190 g / cm^3
# Si number density = 17.952765 Si / 1000 Ang^3
#
#
#
# Elastic Constant Matrix: (Units=GPa)
#
#
# Indices 1 2 3 4 5 6 
#
# 1 28.4650 11.8772 12.7605 0.0008 -0.1442 -0.0012
# 2 11.8772 43.8283 18.2400 -0.0097 7.8348 0.0021
# 3 12.7605 18.2400 81.4272 -0.0113 6.9223 0.0029
# 4 0.0008 -0.0097 -0.0113 25.9167 0.0034 0.1418
# 5 -0.1442 7.8348 6.9223 0.0034 16.3987 0.0016
# 6 -0.0012 0.0021 0.0029 0.1418 0.0016 19.0846
#
#
#
# Elastic Compliance Matrix: (Units=1/GPa)
#
#
# Indices 1 2 3 4 5 6 
#
# 1 0.041766 -0.010661 -0.004793 -0.000008 0.007484 0.000004
# 2 -0.010661 0.029571 -0.003884 0.000011 -0.012582 -0.000002
# 3 -0.004793 -0.003884 0.014260 0.000005 -0.004206 -0.000002
# 4 -0.000008 0.000011 0.000005 0.038587 -0.000016 -0.000287
# 5 0.007484 -0.012582 -0.004206 -0.000016 0.068833 -0.000003
# 6 0.000004 -0.000002 -0.000002 -0.000287 -0.000003 0.052400
#
#
# Mechanical properties :
#
#
# Convention : Reuss Voigt Hill
#
# Bulk Modulus (GPa) = 21.31285 26.60844 23.96064
# Shear Modulus (GPa) = 16.68149 19.66952 18.17550
#
# Velocity S-wave (km/s) = 3.05156 3.31362 3.18529
# Velocity P-wave (km/s) = 4.93087 5.43080 5.18686
#
# Compressibility (1/GPa) = 0.04692006
#
# Stress axis : x y z
#
# Youngs Moduli (GPa) = 23.94288 33.81699 70.12839
#
# Poissons Ratio (x) = 0.36054 0.33614
# Poissons Ratio (y) = 0.25527 0.27235
# Poissons Ratio (z) = 0.11476 0.13133
#
# Static dielectric constant tensor:
#      x y z
#    x 1.655030 0.000000 0.010760 
#    y 0.000000 1.610980 0.000010 
#    z 0.010760 0.000010 1.687960 
# 
# From -- ./inp_files/282241.got.cif
#   From: 2010.05.17/outbox.cif.g08.bks.cpg/sg15_142_cif.got.tgz:282241.got - 2010.06.03 18:47:42.
