data_PCOD9261570
_publ_section_title
;
Structure prediction by ZEFSAII (Michael W. Deem and Ramdas Pophale) SiO2 
 PCOD9261570
Probable space group: C 2/C
;
_chemical_formula_sum "Si O2"
_cell_formula_units_Z 60
_cell_length_a 16.324162
_cell_length_b 26.506054
_cell_length_c 8.818464
_cell_angle_alpha 90.000000
_cell_angle_beta 57.437953
_cell_angle_gamma 90.000000
_cell_volume 3215.867414
_symmetry_space_group_name_H-M "C 2/C"
_symmetry_group_IT_number 15
_symmetry_cell_setting 'monoclinic'
loop_
_space_group_symop_operation_xyz
x,y,z
-x,y,1/2-z
-x,-y,-z
x,-y,1/2+z
1/2+x,1/2+y,z
1/2-x,1/2+y,1/2-z
1/2-x,1/2-y,-z
1/2+x,1/2-y,1/2+z
loop_
_atom_site_type_symbol
_atom_site_label
_atom_site_fract_x
_atom_site_fract_y
_atom_site_fract_z
Si Si1 0.781274 0.828678 0.936434
Si Si2 0.654196 0.824187 0.801124
Si Si3 0.500000 0.786773 0.750000
Si Si4 0.168881 0.789578 0.310292
Si Si5 0.682180 0.628822 0.542395
Si Si6 0.598204 0.468012 0.254631
Si Si7 0.560464 0.699971 0.473127
Si Si8 0.393797 0.570738 0.404142
O O1 0.678177 0.830620 0.953353
O O2 0.863750 0.805398 0.740497
O O3 0.819785 0.883320 0.955112
O O4 0.774615 0.795391 0.091267
O O5 0.551185 0.822144 0.823117
O O6 0.686963 0.766494 0.733298
O O7 0.725228 0.863911 0.654515
O O8 0.566284 0.748016 0.582665
O O9 0.195913 0.833006 0.167589
O O10 0.052963 0.797594 0.459122
O O11 0.668541 0.572877 0.611361
O O12 0.588795 0.650729 0.544325
O O13 0.500000 0.463300 0.250000
O O14 0.629801 0.525208 0.188810
O O15 0.593852 0.452609 0.437373
O O16 0.500000 0.590635 0.250000
#
# Coordination Sequence:
#
# PCOD9261570 Si02
#       8
#     8   8   4   8   8   8   8   8
#     4  11  23  32  52  79 112 142 181 219 265 310
#     4  10  23  34  55  73 104 141 182 229 259 325
#     4  10  20  40  54  76  98 144 192 222 274 306
#     4  11  18  35  46  79 108 143 179 213 261 301
#     4  11  20  32  55  78 103 146 186 213 253 315
#     4  11  23  35  55  79 114 148 180 215 255 312
#     4  10  19  30  54  72 106 146 179 210 246 319
#     4  11  23  36  52  81 115 147 179 215 257 316
#
# _framework density 18.657484
#
# number of rings (size 3 to 8) (size 9 to 14) (size 15 to 20)
#    0.000    1.333    4.000    4.400    9.333    0.000 
#    0.000    0.000    0.000    0.000    0.000    0.933 
#    0.000    0.000    0.000    0.000    0.000    0.000 
#
# Total GULP energy -167237.986100 kJ/mol
# GULP energy per Si atom -5574.599537 kJ/mol
# Density = 1.861502 g / cm^3
# Si number density = 18.657484 Si / 1000 Ang^3
#
#
#
# Elastic Constant Matrix: (Units=GPa)
#
#
# Indices 1 2 3 4 5 6 
#
# 1 86.8795 8.4993 8.7128 0.0000 32.2118 0.0000
# 2 8.4993 54.5669 -1.6254 0.0000 0.6637 0.0000
# 3 8.7128 -1.6254 39.5297 0.0000 20.3707 0.0000
# 4 0.0000 0.0000 0.0000 25.1860 0.0000 7.7547
# 5 32.2118 0.6637 20.3707 0.0000 27.0128 0.0000
# 6 0.0000 0.0000 0.0000 7.7547 0.0000 14.7074
#
#
#
# Elastic Compliance Matrix: (Units=1/GPa)
#
#
# Indices 1 2 3 4 5 6 
#
# 1 0.026534 -0.003093 0.016832 0.000000 -0.044258 0.000000
# 2 -0.003093 0.018755 -0.000344 0.000000 0.003487 0.000000
# 3 0.016832 -0.000344 0.052196 0.000000 -0.059424 0.000000
# 4 0.000000 0.000000 0.000000 0.047400 0.000000 -0.024992
# 5 -0.044258 0.003487 -0.059424 0.000000 0.134522 0.000000
# 6 0.000000 0.000000 0.000000 -0.024992 0.000000 0.081171
#
#
# Mechanical properties :
#
#
# Convention : Reuss Voigt Hill
#
# Bulk Modulus (GPa) = 8.04674 23.57217 15.80946
# Shear Modulus (GPa) = 13.32572 24.40721 18.86646
#
# Velocity S-wave (km/s) = 2.67541 3.62079 3.18339
# Velocity P-wave (km/s) = 3.72370 5.49015 4.69083
#
# Compressibility (1/GPa) = 0.12427395
#
# Stress axis : x y z
#
# Youngs Moduli (GPa) = 37.68744 53.31839 19.15845
#
# Poissons Ratio (x) = 0.16493 -0.32247
# Poissons Ratio (y) = 0.11658 0.00659
# Poissons Ratio (z) = -0.63434 0.01835
#
# Static dielectric constant tensor:
#      x y z
#    x 1.735550 0.000000 0.034750 
#    y 0.000000 1.656890 0.000000 
#    z 0.034750 0.000000 1.687860 
# 
# From -- ./inp_files/51523.got.cif
#   From: 2010.05.17/outbox.cif.g08.bks.cpg/sg15_26_cif.got.tgz:51523.got - 2010.06.03 18:47:42.
