data_PCOD9261207
_publ_section_title
;
Structure prediction by ZEFSAII (Michael W. Deem and Ramdas Pophale) SiO2 
 PCOD9261207
Probable space group: C 2/C
;
_chemical_formula_sum "Si O2"
_cell_formula_units_Z 52
_cell_length_a 13.419828
_cell_length_b 28.500235
_cell_length_c 8.909586
_cell_angle_alpha 90.000000
_cell_angle_beta 128.216376
_cell_angle_gamma 90.000000
_cell_volume 2677.310086
_symmetry_space_group_name_H-M "C 2/C"
_symmetry_group_IT_number 15
_symmetry_cell_setting 'monoclinic'
loop_
_space_group_symop_operation_xyz
x,y,z
-x,y,1/2-z
-x,-y,-z
x,-y,1/2+z
1/2+x,1/2+y,z
1/2-x,1/2+y,1/2-z
1/2-x,1/2-y,-z
1/2+x,1/2-y,1/2+z
loop_
_atom_site_type_symbol
_atom_site_label
_atom_site_fract_x
_atom_site_fract_y
_atom_site_fract_z
Si Si1 0.000000 0.498725 0.250000
Si Si2 0.983761 0.870169 0.558092
Si Si3 0.134590 0.687789 0.455724
Si Si4 0.607881 0.292038 0.481500
Si Si5 0.732489 0.097371 0.672078
Si Si6 0.110240 0.054054 0.957798
Si Si7 0.174278 0.492569 0.668320
O O1 0.116554 0.476437 0.455053
O O2 0.075379 0.527411 0.196302
O O3 0.046637 0.821538 0.559692
O O4 0.052112 0.908044 0.515313
O O5 0.000000 0.876729 0.750000
O O6 0.838098 0.879441 0.377720
O O7 0.259539 0.688338 0.463775
O O8 0.137709 0.737649 0.545187
O O9 0.139696 0.639901 0.552175
O O10 0.000000 0.688563 0.250000
O O11 0.500000 0.294635 0.250000
O O12 0.800886 0.079808 0.581740
O O13 0.671694 0.049199 0.673640
O O14 0.000000 0.031783 0.750000
O O15 0.189014 0.020849 0.141672
#
# Coordination Sequence:
#
# PCOD9261207 Si02
#       7
#     4   8   8   8   8   8   8
#     4  10  24  40  58  82 122 176 208 252 322 376
#     4  11  23  38  64  94 128 163 203 267 329 374
#     4  10  21  34  70  96 116 161 215 260 303 387
#     4  10  18  41  66  92 123 159 213 261 316 375
#     4  11  22  40  63  90 124 164 215 258 312 380
#     4  10  22  41  64  89 121 164 217 268 307 375
#     4  11  23  41  61  87 125 172 211 263 313 381
#
# _framework density 19.422481000000001
#
# number of rings (size 3 to 8) (size 9 to 14) (size 15 to 20)
#    0.000    1.538    4.615    0.462    3.231    3.077 
#    0.000    0.769    1.692    0.000    0.000    0.000 
#    0.000    0.000    0.000    0.000    0.000    0.000 
#
# Total GULP energy -144742.011223 kJ/mol
# GULP energy per Si atom -5567.000432 kJ/mol
# Density = 1.937827 g / cm^3
# Si number density = 19.422481 Si / 1000 Ang^3
#
#
#
# Elastic Constant Matrix: (Units=GPa)
#
#
# Indices 1 2 3 4 5 6 
#
# 1 50.0634 3.9456 36.0801 0.0000 3.0806 0.0000
# 2 3.9456 87.5486 42.1226 0.0000 16.8634 0.0000
# 3 36.0801 42.1226 150.3830 0.0000 4.1703 0.0000
# 4 0.0000 0.0000 0.0000 40.9114 0.0000 21.4508
# 5 3.0806 16.8634 4.1703 0.0000 38.8933 0.0000
# 6 0.0000 0.0000 0.0000 21.4508 0.0000 15.7714
#
#
#
# Elastic Compliance Matrix: (Units=1/GPa)
#
#
# Indices 1 2 3 4 5 6 
#
# 1 0.024637 0.002486 -0.006543 0.000000 -0.002328 0.000000
# 2 0.002486 0.014661 -0.004535 0.000000 -0.006067 0.000000
# 3 -0.006543 -0.004535 0.009449 0.000000 0.001471 0.000000
# 4 0.000000 0.000000 0.000000 0.085208 0.000000 -0.115892
# 5 -0.002328 -0.006067 0.001471 0.000000 0.028369 0.000000
# 6 0.000000 0.000000 0.000000 -0.115892 0.000000 0.221031
#
#
# Mechanical properties :
#
#
# Convention : Reuss Voigt Hill
#
# Bulk Modulus (GPa) = 31.68188 50.25463 40.96826
# Shear Modulus (GPa) = 12.16373 32.83835 22.50104
#
# Velocity S-wave (km/s) = 2.50525 4.11632 3.40737
# Velocity P-wave (km/s) = 4.97150 6.96583 6.05139
#
# Compressibility (1/GPa) = 0.03156378
#
# Stress axis : x y z
#
# Youngs Moduli (GPa) = 40.58887 68.20992 105.83338
#
# Poissons Ratio (x) = -0.16957 0.69245
# Poissons Ratio (y) = -0.10090 0.47992
# Poissons Ratio (z) = 0.26556 0.30931
#
# Static dielectric constant tensor:
#      x y z
#    x 1.728110 0.000000 0.050120 
#    y 0.000000 1.705060 0.000000 
#    z 0.050120 0.000000 1.735170 
# 
# From -- ./inp_files/43669.got.cif
#   From: 2010.05.17/outbox.cif.g08.bks.cpg/sg15_22_cif.got.tgz:43669.got - 2010.06.03 18:47:42.
