data_PCOD9261672
_publ_section_title
;
Structure prediction by ZEFSAII (Michael W. Deem and Ramdas Pophale) SiO2 
 PCOD9261672
Probable space group: C 2/C
;
_chemical_formula_sum "Si O2"
_cell_formula_units_Z 48
_cell_length_a 24.494769
_cell_length_b 21.973818
_cell_length_c 5.034198
_cell_angle_alpha 90.000000
_cell_angle_beta 77.983876
_cell_angle_gamma 90.000000
_cell_volume 2650.254386
_symmetry_space_group_name_H-M "C 2/C"
_symmetry_group_IT_number 15
_symmetry_cell_setting 'monoclinic'
loop_
_space_group_symop_operation_xyz
x,y,z
-x,y,1/2-z
-x,-y,-z
x,-y,1/2+z
1/2+x,1/2+y,z
1/2-x,1/2+y,1/2-z
1/2-x,1/2-y,-z
1/2+x,1/2-y,1/2+z
loop_
_atom_site_type_symbol
_atom_site_label
_atom_site_fract_x
_atom_site_fract_y
_atom_site_fract_z
Si Si1 0.240515 0.459480 0.834915
Si Si2 0.067418 0.838566 0.691060
Si Si3 0.119059 0.457940 0.070601
Si Si4 0.961875 0.353248 0.536192
Si Si5 0.137952 0.956142 0.686298
Si Si6 0.567704 0.733535 0.692538
O O1 0.240719 0.481140 0.529603
O O2 0.181053 0.430244 0.962369
O O3 0.299317 0.428998 0.844337
O O4 0.093553 0.902500 0.746280
O O5 0.086588 0.817278 0.381798
O O6 0.000000 0.842805 0.750000
O O7 0.085232 0.786616 0.883177
O O8 0.114413 0.514264 0.868701
O O9 0.072677 0.409027 0.045770
O O10 0.922421 0.300124 0.695608
O O11 0.000000 0.371952 0.750000
O O12 0.000000 0.329634 0.250000
O O13 0.132432 0.992921 0.418694
O O14 0.500000 0.732239 0.750000
#
# Coordination Sequence:
#
# PCOD9261672 Si02
#       6
#     8   8   8   8   8   8
#     4   8  16  31  48  66  92 128 163 188 223 285
#     4  10  19  31  49  70  96 127 159 197 237 280
#     4  10  20  33  50  73 100 128 156 193 242 287
#     4  11  21  33  51  73  98 127 160 198 236 282
#     4  10  19  31  49  73  98 125 158 197 241 285
#     4   9  18  33  48  65  91 128 167 191 224 282
#
# _framework density 18.111470000000001
#
# number of rings (size 3 to 8) (size 9 to 14) (size 15 to 20)
#    0.000    2.333    0.000    4.500    0.000    2.667 
#    0.000    0.000    0.000    2.000    0.000    0.000 
#    0.000    4.000    0.000    0.000    0.000    0.000 
#
# Total GULP energy -133700.207162 kJ/mol
# GULP energy per Si atom -5570.841965 kJ/mol
# Density = 1.807025 g / cm^3
# Si number density = 18.111470 Si / 1000 Ang^3
#
#
#
# Elastic Constant Matrix: (Units=GPa)
#
#
# Indices 1 2 3 4 5 6 
#
# 1 61.4548 24.2884 12.6865 0.0000 5.4966 0.0000
# 2 24.2884 45.1696 -1.5919 0.0000 -5.5538 0.0000
# 3 12.6865 -1.5919 59.3384 0.0000 14.1235 0.0000
# 4 0.0000 0.0000 0.0000 18.7863 0.0000 10.2521
# 5 5.4966 -5.5538 14.1235 0.0000 19.5642 0.0000
# 6 0.0000 0.0000 0.0000 10.2521 0.0000 -1.8143
#
#
#
# Elastic Compliance Matrix: (Units=1/GPa)
#
#
# Indices 1 2 3 4 5 6 
#
# 1 0.022988 -0.013442 -0.003417 0.000000 -0.007807 0.000000
# 2 -0.013442 0.030862 0.000867 0.000000 0.011912 0.000000
# 3 -0.003417 0.000867 0.020913 0.000000 -0.013891 0.000000
# 4 0.000000 0.000000 0.000000 0.013035 0.000000 0.073656
# 5 -0.007807 0.011912 -0.013891 0.000000 0.066716 0.000000
# 6 0.000000 0.000000 0.000000 0.073656 0.000000 -0.134970
#
#
# Mechanical properties :
#
#
# Convention : Reuss Voigt Hill
#
# Bulk Modulus (GPa) = 23.37641 26.30318 24.83980
# Shear Modulus (GPa) = 76.00312 16.01258 46.00785
#
# Velocity S-wave (km/s) = 6.48500 2.97663 5.04557
# Velocity P-wave (km/s) = 8.30714 5.13500 6.90568
#
# Compressibility (1/GPa) = 0.04277816
#
# Stress axis : x y z
#
# Youngs Moduli (GPa) = 43.50048 32.40273 47.81817
#
# Poissons Ratio (x) = 0.43554 0.16340
# Poissons Ratio (y) = 0.58471 -0.04144
# Poissons Ratio (z) = 0.14865 -0.02808
#
# Static dielectric constant tensor:
#      x y z
#    x 1.646770 0.000000 -0.008740 
#    y 0.000000 1.610020 0.000000 
#    z -0.008740 0.000000 1.644660 
# 
# From -- ./inp_files/13244.got.cif
#   From: 2010.05.17/outbox.cif.g08.bks.cpg/sg15_7_cif.got.tgz:13244.got - 2010.06.03 18:47:42.
