data_PCOD9261792
_publ_section_title
;
Structure prediction by ZEFSAII (Michael W. Deem and Ramdas Pophale) SiO2 
 PCOD9261792
Probable space group: C 2/C
;
_chemical_formula_sum "Si O2"
_cell_formula_units_Z 56
_cell_length_a 18.094012
_cell_length_b 10.031436
_cell_length_c 19.275207
_cell_angle_alpha 90.000000
_cell_angle_beta 136.748455
_cell_angle_gamma 90.000000
_cell_volume 2397.265047
_symmetry_space_group_name_H-M "C 2/C"
_symmetry_group_IT_number 15
_symmetry_cell_setting 'monoclinic'
loop_
_space_group_symop_operation_xyz
x,y,z
-x,y,1/2-z
-x,-y,-z
x,-y,1/2+z
1/2+x,1/2+y,z
1/2-x,1/2+y,1/2-z
1/2-x,1/2-y,-z
1/2+x,1/2-y,1/2+z
loop_
_atom_site_type_symbol
_atom_site_label
_atom_site_fract_x
_atom_site_fract_y
_atom_site_fract_z
Si Si1 0.158589 0.025245 0.787219
Si Si2 0.149112 0.772681 0.026650
Si Si3 0.318353 0.770717 0.408086
Si Si4 0.112129 0.740130 0.797001
Si Si5 0.965803 0.040127 0.555787
Si Si6 0.675193 0.852550 0.688833
Si Si7 0.044019 0.401856 0.115755
O O1 0.233508 0.124659 0.882562
O O2 0.112740 0.899909 0.796919
O O3 0.243041 0.957034 0.791684
O O4 0.062051 0.080120 0.673425
O O5 0.273028 0.792279 0.090893
O O6 0.083461 0.898589 0.954391
O O7 0.150654 0.755185 0.112002
O O8 0.080198 0.641462 0.959757
O O9 0.377724 0.656720 0.491582
O O10 0.239257 0.702724 0.297623
O O11 0.411206 0.845702 0.426829
O O12 0.111176 0.679277 0.719180
O O13 0.000000 0.688843 0.750000
O O14 0.000000 0.000000 0.500000
O O15 0.573597 0.943357 0.640804
#
# Coordination Sequence:
#
# PCOD9261792 Si02
#       7
#     8   8   8   8   8   8   8
#     4  10  21  37  52  85 119 153 198 238 299 357
#     4  11  20  35  57  86 119 150 194 240 298 361
#     4  11  20  31  57  84 121 153 186 238 304 363
#     4  11  23  41  60  79 116 166 209 250 286 342
#     4  12  18  33  58  87 122 159 183 235 315 371
#     4  10  19  31  53  87 127 145 177 241 301 359
#     4  11  20  34  52  89 119 152 191 238 297 353
#
# _framework density 23.359953999999998
#
# number of rings (size 3 to 8) (size 9 to 14) (size 15 to 20)
#    0.000    1.143    7.143    2.143    0.000    0.571 
#    0.000    0.000    0.000    4.286    0.000    0.000 
#    0.000    0.000    0.000    0.000    0.000    0.000 
#
# Total GULP energy -156379.374996 kJ/mol
# GULP energy per Si atom -5584.977678 kJ/mol
# Density = 2.330679 g / cm^3
# Si number density = 23.359954 Si / 1000 Ang^3
#
#
#
# Elastic Constant Matrix: (Units=GPa)
#
#
# Indices 1 2 3 4 5 6 
#
# 1 30.5991 2.3229 18.6272 0.0000 17.1711 0.0000
# 2 2.3229 65.2090 28.0868 0.0000 4.8676 0.0000
# 3 18.6272 28.0868 140.6245 0.0000 22.6328 0.0000
# 4 0.0000 0.0000 0.0000 54.9647 0.0000 10.5911
# 5 17.1711 4.8676 22.6328 0.0000 32.4641 0.0000
# 6 0.0000 0.0000 0.0000 10.5911 0.0000 3.2857
#
#
#
# Elastic Compliance Matrix: (Units=1/GPa)
#
#
# Indices 1 2 3 4 5 6 
#
# 1 0.047347 0.001246 -0.002771 0.000000 -0.023298 0.000000
# 2 0.001246 0.016813 -0.003392 0.000000 -0.000815 0.000000
# 3 -0.002771 -0.003392 0.008828 0.000000 -0.004181 0.000000
# 4 0.000000 0.000000 0.000000 0.048018 0.000000 -0.154778
# 5 -0.023298 -0.000815 -0.004181 0.000000 0.046163 0.000000
# 6 0.000000 0.000000 0.000000 -0.154778 0.000000 0.803255
#
#
# Mechanical properties :
#
#
# Convention : Reuss Voigt Hill
#
# Bulk Modulus (GPa) = 15.83410 37.16738 26.50074
# Shear Modulus (GPa) = 4.99347 30.63596 17.81471
#
# Velocity S-wave (km/s) = 1.46365 3.62536 2.76455
# Velocity P-wave (km/s) = 3.10634 5.78529 4.64322
#
# Compressibility (1/GPa) = 0.06315485
#
# Stress axis : x y z
#
# Youngs Moduli (GPa) = 21.12074 59.47885 113.26997
#
# Poissons Ratio (x) = -0.07411 0.31384
# Poissons Ratio (y) = -0.02632 0.38419
# Poissons Ratio (z) = 0.05852 0.20174
#
# Static dielectric constant tensor:
#      x y z
#    x 1.957410 0.000000 0.015390 
#    y 0.000000 1.925080 0.000000 
#    z 0.015390 0.000000 1.896160 
# 
# From -- ./inp_files/300746.got.cif
#   From: 2010.05.17/outbox.cif.g08.bks.cpg/sg15_151_cif.got.tgz:300746.got - 2010.06.03 18:47:42.
