data_PCOD9261717
_publ_section_title
;
Structure prediction by ZEFSAII (Michael W. Deem and Ramdas Pophale) SiO2 
 PCOD9261717
Probable space group: C 2/C
;
_chemical_formula_sum "Si O2"
_cell_formula_units_Z 64
_cell_length_a 21.247296
_cell_length_b 26.566935
_cell_length_c 8.538980
_cell_angle_alpha 90.000000
_cell_angle_beta 128.829868
_cell_angle_gamma 90.000000
_cell_volume 3754.869320
_symmetry_space_group_name_H-M "C 2/C"
_symmetry_group_IT_number 15
_symmetry_cell_setting 'monoclinic'
loop_
_space_group_symop_operation_xyz
x,y,z
-x,y,1/2-z
-x,-y,-z
x,-y,1/2+z
1/2+x,1/2+y,z
1/2-x,1/2+y,1/2-z
1/2-x,1/2-y,-z
1/2+x,1/2-y,1/2+z
loop_
_atom_site_type_symbol
_atom_site_label
_atom_site_fract_x
_atom_site_fract_y
_atom_site_fract_z
Si Si1 0.903932 0.063960 0.107106
Si Si2 0.986235 0.308592 0.411610
Si Si3 0.654223 0.804759 0.085508
Si Si4 0.680558 0.647371 0.727137
Si Si5 0.232738 0.438096 0.932331
Si Si6 0.072859 0.777085 0.254627
Si Si7 0.066874 0.391501 0.740109
Si Si8 0.817781 0.978408 0.767697
O O1 0.871264 0.053340 0.230276
O O2 0.000000 0.067361 0.250000
O O3 0.863421 0.113582 0.971196
O O4 0.873703 0.016955 0.953591
O O5 0.893399 0.304809 0.324556
O O6 0.000000 0.303560 0.250000
O O7 0.032675 0.264505 0.578036
O O8 0.023044 0.361050 0.533090
O O9 0.747826 0.818820 0.233839
O O10 0.635050 0.753199 0.963629
O O11 0.609134 0.848280 0.913568
O O12 0.617898 0.681347 0.724283
O O13 0.722716 0.608498 0.913579
O O14 0.137613 0.427349 0.791118
O O15 0.267893 0.445903 0.814272
O O16 0.257357 0.487271 0.070479
O O17 0.000000 0.796927 0.250000
O O18 0.000000 0.415743 0.750000
#
# Coordination Sequence:
#
# PCOD9261717 Si02
#       8
#     8   8   8   8   8   8   8   8
#     4  10  20  33  50  71  95 124 157 195 239 284
#     4   9  17  30  49  71  97 130 161 190 228 274
#     4   8  16  32  50  68  95 131 161 185 229 286
#     4  10  19  31  51  74  94 122 161 201 232 270
#     4   9  18  33  52  72  94 123 159 196 236 282
#     4   9  18  32  48  68  98 131 158 189 233 281
#     4   8  15  30  51  72  95 126 161 191 225 279
#     4   9  19  35  51  68  95 127 155 191 242 292
#
# _framework density 17.044536000000001
#
# number of rings (size 3 to 8) (size 9 to 14) (size 15 to 20)
#    0.000    3.000    0.000    2.250    0.000    2.500 
#    0.000    5.000    0.000    0.000    0.000    0.000 
#    0.000    0.000    0.000    0.000    0.000    0.000 
#
# Total GULP energy -178337.865334 kJ/mol
# GULP energy per Si atom -5573.058292 kJ/mol
# Density = 1.700574 g / cm^3
# Si number density = 17.044536 Si / 1000 Ang^3
#
#
#
# Elastic Constant Matrix: (Units=GPa)
#
#
# Indices 1 2 3 4 5 6 
#
# 1 166.9556 50.9616 61.4869 0.0000 -1.1470 0.0000
# 2 50.9616 42.5048 13.9691 0.0000 8.3065 0.0000
# 3 61.4869 13.9691 49.4424 0.0000 -0.9454 0.0000
# 4 0.0000 0.0000 0.0000 2.0548 0.0000 -1.5173
# 5 -1.1470 8.3065 -0.9454 0.0000 33.2435 0.0000
# 6 0.0000 0.0000 0.0000 -1.5173 0.0000 34.0871
#
#
#
# Elastic Compliance Matrix: (Units=1/GPa)
#
#
# Indices 1 2 3 4 5 6 
#
# 1 0.016818 -0.015539 -0.016448 0.000000 0.003995 0.000000
# 2 -0.015539 0.041871 0.007288 0.000000 -0.010791 0.000000
# 3 -0.016448 0.007288 0.038597 0.000000 -0.001291 0.000000
# 4 0.000000 0.000000 0.000000 0.503214 0.000000 0.022399
# 5 0.003995 -0.010791 -0.001291 0.000000 0.032879 0.000000
# 6 0.000000 0.000000 0.000000 0.022399 0.000000 0.030334
#
#
# Mechanical properties :
#
#
# Convention : Reuss Voigt Hill
#
# Bulk Modulus (GPa) = 20.88228 56.85976 38.87102
# Shear Modulus (GPa) = 6.85804 22.70941 14.78373
#
# Velocity S-wave (km/s) = 2.00807 3.65411 2.94829
# Velocity P-wave (km/s) = 4.20174 7.15788 5.86898
#
# Compressibility (1/GPa) = 0.04788750
#
# Stress axis : x y z
#
# Youngs Moduli (GPa) = 59.46138 23.88292 25.90907
#
# Poissons Ratio (x) = 0.37111 0.42615
# Poissons Ratio (y) = 0.92396 -0.18882
# Poissons Ratio (z) = 0.97801 -0.17406
#
# Static dielectric constant tensor:
#      x y z
#    x 1.567580 0.000000 0.006970 
#    y 0.000000 1.567280 0.000000 
#    z 0.006970 0.000000 1.564950 
# 
# From -- ./inp_files/58652.got.cif
#   From: 2010.05.17/outbox.cif.g08.bks.cpg/sg15_30_cif.got.tgz:58652.got - 2010.06.03 18:47:42.
