data_PCOD9261830
_publ_section_title
;
Structure prediction by ZEFSAII (Michael W. Deem and Ramdas Pophale) SiO2 
 PCOD9261830
Probable space group: C 2/C
;
_chemical_formula_sum "Si O2"
_cell_formula_units_Z 64
_cell_length_a 14.903710
_cell_length_b 12.526588
_cell_length_c 19.749962
_cell_angle_alpha 90.000000
_cell_angle_beta 45.516220
_cell_angle_gamma 90.000000
_cell_volume 2630.608913
_symmetry_space_group_name_H-M "C 2/C"
_symmetry_group_IT_number 15
_symmetry_cell_setting 'monoclinic'
loop_
_space_group_symop_operation_xyz
x,y,z
-x,y,1/2-z
-x,-y,-z
x,-y,1/2+z
1/2+x,1/2+y,z
1/2-x,1/2+y,1/2-z
1/2-x,1/2-y,-z
1/2+x,1/2-y,1/2+z
loop_
_atom_site_type_symbol
_atom_site_label
_atom_site_fract_x
_atom_site_fract_y
_atom_site_fract_z
Si Si1 0.220233 0.812433 0.118458
Si Si2 0.829125 0.029857 0.392912
Si Si3 0.878860 0.780770 0.130758
Si Si4 0.430230 0.848768 0.887677
Si Si5 0.403926 0.911271 0.412728
Si Si6 0.359965 0.763603 0.329035
Si Si7 0.565737 0.740043 0.401464
Si Si8 0.980461 0.004702 0.091417
O O1 0.124226 0.723148 0.143762
O O2 0.301827 0.773573 0.137797
O O3 0.155833 0.927348 0.162250
O O4 0.323071 0.832109 0.003269
O O5 0.681874 0.055700 0.478236
O O6 0.879244 0.143100 0.342792
O O7 0.893381 0.996279 0.430168
O O8 0.737239 0.764766 0.180574
O O9 0.941330 0.698313 0.149767
O O10 0.898006 0.900311 0.148671
O O11 0.966065 0.769943 0.016726
O O12 0.442775 0.973638 0.863683
O O13 0.310556 0.841965 0.414316
O O14 0.510011 0.831827 0.383461
O O15 0.500000 0.811657 0.250000
O O16 0.572632 0.622288 0.365606
O O17 0.000000 0.000000 0.000000
#
# Coordination Sequence:
#
# PCOD9261830 Si02
#       8
#     8   8   8   8   8   8   8   8
#     4   9  19  31  54  92 124 143 184 237 294 346
#     4  11  20  38  62  87 118 155 196 241 293 349
#     4  10  20  36  56  83 118 154 187 235 294 341
#     4   9  19  32  55  89 123 148 180 239 294 344
#     4  11  21  35  60  89 118 149 189 242 292 348
#     4  12  26  41  57  83 118 158 199 244 292 346
#     4  10  19  31  55  92 120 144 185 237 293 343
#     4  10  19  31  56  89 119 147 187 236 289 346
#
# _framework density 24.328968
#
# number of rings (size 3 to 8) (size 9 to 14) (size 15 to 20)
#    0.000    1.750    3.750    1.875    8.750    1.500 
#    0.000    1.250    0.000    0.750    0.000    0.000 
#    0.000    0.000    0.000    0.000    0.000    0.000 
#
# Total GULP energy -178933.378341 kJ/mol
# GULP energy per Si atom -5591.668073 kJ/mol
# Density = 2.427359 g / cm^3
# Si number density = 24.328968 Si / 1000 Ang^3
#
#
#
# Elastic Constant Matrix: (Units=GPa)
#
#
# Indices 1 2 3 4 5 6 
#
# 1 176.9688 92.7150 25.3168 0.0000 -32.4366 0.0000
# 2 92.7150 238.7710 20.4799 0.0000 -22.6611 0.0000
# 3 25.3168 20.4799 65.6190 0.0000 -11.9256 0.0000
# 4 0.0000 0.0000 0.0000 4.5700 0.0000 -16.9706
# 5 -32.4366 -22.6611 -11.9256 0.0000 31.9932 0.0000
# 6 0.0000 0.0000 0.0000 -16.9706 0.0000 38.3740
#
#
#
# Elastic Compliance Matrix: (Units=1/GPa)
#
#
# Indices 1 2 3 4 5 6 
#
# 1 0.008280 -0.002523 -0.001294 0.000000 0.006126 0.000000
# 2 -0.002523 0.005307 -0.000498 0.000000 0.001015 0.000000
# 3 -0.001294 -0.000498 0.016725 0.000000 0.004569 0.000000
# 4 0.000000 0.000000 0.000000 -0.340700 0.000000 -0.150672
# 5 0.006126 0.001015 0.004569 0.000000 0.039890 0.000000
# 6 0.000000 0.000000 0.000000 -0.150672 0.000000 -0.040574
#
#
# Mechanical properties :
#
#
# Convention : Reuss Voigt Hill
#
# Bulk Modulus (GPa) = 46.12254 84.26468 65.19361
# Shear Modulus (GPa) = -16.93678 37.84391 10.45356
#
# Velocity S-wave (km/s) = -2.64134 3.94827 2.07511
# Velocity P-wave (km/s) = 3.11397 7.44955 5.70932
#
# Compressibility (1/GPa) = 0.02168137
#
# Stress axis : x y z
#
# Youngs Moduli (GPa) = 120.76713 188.43513 59.79184
#
# Poissons Ratio (x) = 0.47541 0.07737
# Poissons Ratio (y) = 0.30469 0.02980
# Poissons Ratio (z) = 0.15627 0.09392
#
# Static dielectric constant tensor:
#      x y z
#    x 1.842780 0.000000 -0.036190 
#    y 0.000000 1.896390 0.000000 
#    z -0.036190 0.000000 1.809040 
# 
# From -- ./inp_files/313574.got.cif
#   From: 2010.05.17/outbox.cif.g08.bks.cpg/sg15_157_cif.got.tgz:313574.got - 2010.06.03 18:47:42.
