data_PCOD9261943
_publ_section_title
;
Structure prediction by ZEFSAII (Michael W. Deem and Ramdas Pophale) SiO2 
 PCOD9261943
Probable space group: C 2/C
;
_chemical_formula_sum "Si O2"
_cell_formula_units_Z 64
_cell_length_a 20.928543
_cell_length_b 22.294681
_cell_length_c 9.105999
_cell_angle_alpha 90.000000
_cell_angle_beta 117.971345
_cell_angle_gamma 90.000000
_cell_volume 3752.478398
_symmetry_space_group_name_H-M "C 2/C"
_symmetry_group_IT_number 15
_symmetry_cell_setting 'monoclinic'
loop_
_space_group_symop_operation_xyz
x,y,z
-x,y,1/2-z
-x,-y,-z
x,-y,1/2+z
1/2+x,1/2+y,z
1/2-x,1/2+y,1/2-z
1/2-x,1/2-y,-z
1/2+x,1/2-y,1/2+z
loop_
_atom_site_type_symbol
_atom_site_label
_atom_site_fract_x
_atom_site_fract_y
_atom_site_fract_z
Si Si1 0.924657 0.111989 0.093533
Si Si2 0.925359 0.898419 0.243417
Si Si3 0.223893 0.935464 0.019033
Si Si4 0.231826 0.056314 0.881740
Si Si5 0.790836 0.680965 0.913533
Si Si6 0.871504 0.771015 0.207159
Si Si7 0.927399 0.748766 0.577878
Si Si8 0.797156 0.690075 0.580616
O O1 0.905061 0.182351 0.092092
O O2 0.000000 0.099995 0.250000
O O3 0.932851 0.102363 0.928191
O O4 0.861878 0.072412 0.095317
O O5 0.848922 0.932162 0.139403
O O6 0.909448 0.829460 0.178496
O O7 0.000000 0.919887 0.250000
O O8 0.230304 0.943199 0.202393
O O9 0.258288 0.872682 0.004761
O O10 0.255272 0.992706 0.970221
O O11 0.281091 0.114272 0.967975
O O12 0.707369 0.705705 0.818695
O O13 0.815143 0.684534 0.772054
O O14 0.845558 0.720301 0.067771
O O15 0.922742 0.749239 0.395423
O O16 0.868977 0.701081 0.566663
O O17 0.000000 0.738956 0.750000
O O18 0.750000 0.750000 0.500000
#
# Coordination Sequence:
#
# PCOD9261943 Si02
#       8
#     8   8   8   8   8   8   8   8
#     4   9  18  31  47  69 101 136 173 214 250 292
#     4   9  18  32  46  67 105 141 171 210 249 308
#     4  10  20  35  51  72 102 136 176 219 255 312
#     4   9  20  35  48  71 102 134 174 216 260 302
#     4   9  18  32  52  74 104 130 171 224 259 300
#     4   9  17  31  48  74 103 135 171 218 262 297
#     4  10  19  32  50  77 108 134 166 214 263 315
#     4  11  18  34  55  77 100 132 177 217 264 310
#
# _framework density 17.055394
#
# number of rings (size 3 to 8) (size 9 to 14) (size 15 to 20)
#    0.000    2.500    2.500    1.500    0.000    5.500 
#    2.250    2.500    0.000    0.000    0.000    8.750 
#    0.000    0.000    0.000    0.000    0.000    0.000 
#
# Total GULP energy -178164.820024 kJ/mol
# GULP energy per Si atom -5567.650626 kJ/mol
# Density = 1.701658 g / cm^3
# Si number density = 17.055394 Si / 1000 Ang^3
#
#
#
# Elastic Constant Matrix: (Units=GPa)
#
#
# Indices 1 2 3 4 5 6 
#
# 1 27.4190 19.3252 -3.1862 0.0000 -6.2743 0.0000
# 2 19.3252 103.2186 31.7071 0.0000 -2.9353 0.0000
# 3 -3.1862 31.7071 50.6334 0.0000 17.1411 0.0000
# 4 0.0000 0.0000 0.0000 20.1374 0.0000 -3.5156
# 5 -6.2743 -2.9353 17.1411 0.0000 13.3336 0.0000
# 6 0.0000 0.0000 0.0000 -3.5156 0.0000 18.6235
#
#
#
# Elastic Compliance Matrix: (Units=1/GPa)
#
#
# Indices 1 2 3 4 5 6 
#
# 1 0.047126 -0.009570 0.003831 0.000000 0.015144 0.000000
# 2 -0.009570 0.019022 -0.021967 0.000000 0.027924 0.000000
# 3 0.003831 -0.021967 0.061568 0.000000 -0.082182 0.000000
# 4 0.000000 0.000000 0.000000 0.051351 0.000000 0.009694
# 5 0.015144 0.027924 -0.082182 0.000000 0.193921 0.000000
# 6 0.000000 0.000000 0.000000 0.009694 0.000000 0.055526
#
#
# Mechanical properties :
#
#
# Convention : Reuss Voigt Hill
#
# Bulk Modulus (GPa) = 13.83013 30.77369 22.30191
# Shear Modulus (GPa) = 9.84198 19.31388 14.57793
#
# Velocity S-wave (km/s) = 2.40481 3.36880 2.92677
# Velocity P-wave (km/s) = 3.97962 5.76318 4.95236
#
# Compressibility (1/GPa) = 0.07230590
#
# Stress axis : x y z
#
# Youngs Moduli (GPa) = 21.21949 52.57095 16.24211
#
# Poissons Ratio (x) = 0.50308 -0.06223
# Poissons Ratio (y) = 0.20306 0.35679
# Poissons Ratio (z) = -0.08130 1.15484
#
# Static dielectric constant tensor:
#      x y z
#    x 1.570880 0.000000 0.002560 
#    y 0.000000 1.597050 0.000000 
#    z 0.002560 0.000000 1.588540 
# 
# From -- ./inp_files/58490.got.cif
#   From: 2010.05.17/outbox.cif.g08.bks.cpg/sg15_30_cif.got.tgz:58490.got - 2010.06.03 18:47:42.
