data_PCOD9261285
_publ_section_title
;
Structure prediction by ZEFSAII (Michael W. Deem and Ramdas Pophale) SiO2 
 PCOD9261285
Probable space group: C 2/C
;
_chemical_formula_sum "Si O2"
_cell_formula_units_Z 44
_cell_length_a 10.169333
_cell_length_b 9.808325
_cell_length_c 17.313508
_cell_angle_alpha 90.000000
_cell_angle_beta 82.944142
_cell_angle_gamma 90.000000
_cell_volume 1713.842476
_symmetry_space_group_name_H-M "C 2/C"
_symmetry_group_IT_number 15
_symmetry_cell_setting 'monoclinic'
loop_
_space_group_symop_operation_xyz
x,y,z
-x,y,1/2-z
-x,-y,-z
x,-y,1/2+z
1/2+x,1/2+y,z
1/2-x,1/2+y,1/2-z
1/2-x,1/2-y,-z
1/2+x,1/2-y,1/2+z
loop_
_atom_site_type_symbol
_atom_site_label
_atom_site_fract_x
_atom_site_fract_y
_atom_site_fract_z
Si Si1 0.168339 0.249053 0.812266
Si Si2 0.035444 0.791303 0.646127
Si Si3 0.702033 0.093111 0.012306
Si Si4 0.125837 0.158458 0.980036
Si Si5 0.451939 0.006112 0.631078
Si Si6 0.000000 0.044567 0.750000
O O1 0.318765 0.263985 0.828789
O O2 0.092697 0.198695 0.895799
O O3 0.125685 0.145209 0.748769
O O4 0.113096 0.399939 0.805666
O O5 0.027329 0.801006 0.554404
O O6 0.959880 0.653349 0.669307
O O7 0.993552 0.936787 0.681113
O O8 0.591892 0.052842 0.086318
O O9 0.827468 0.996087 0.019075
O O10 0.750000 0.250000 0.000000
O O11 0.640092 0.031502 0.937568
O O12 0.250000 0.250000 0.000000
#
# Coordination Sequence:
#
# PCOD9261285 Si02
#       6
#     8   8   8   8   8   4
#     4  11  25  48  70 100 140 175 234 285 340 407
#     4  11  25  48  70 100 140 175 234 285 340 407
#     4  11  22  36  68 115 137 167 223 284 352 401
#     4  10  18  44  72  99 139 166 217 309 322 387
#     4  11  22  41  70 100 136 182 216 282 356 394
#     4  12  32  44  68 102 132 200 228 268 352 422
#
# _framework density 25.673304999999999
#
# number of rings (size 3 to 8) (size 9 to 14) (size 15 to 20)
#    0.000    1.091    7.273    1.091    5.091    4.364 
#    0.000    0.000    0.000    0.000    0.000    0.000 
#    0.000    0.000    0.000    0.000    0.000    0.000 
#
# Total GULP energy -123072.005128 kJ/mol
# GULP energy per Si atom -5594.182051 kJ/mol
# Density = 2.561487 g / cm^3
# Si number density = 25.673305 Si / 1000 Ang^3
#
#
#
# Elastic Constant Matrix: (Units=GPa)
#
#
# Indices 1 2 3 4 5 6 
#
# 1 54.4370 43.7366 6.4099 0.0000 20.3351 0.0000
# 2 43.7366 219.2320 5.4643 0.0000 14.1334 0.0000
# 3 6.4099 5.4643 40.7893 0.0000 -1.2093 0.0000
# 4 0.0000 0.0000 0.0000 29.7634 0.0000 14.1759
# 5 20.3351 14.1334 -1.2093 0.0000 26.4011 0.0000
# 6 0.0000 0.0000 0.0000 14.1759 0.0000 50.2140
#
#
#
# Elastic Compliance Matrix: (Units=1/GPa)
#
#
# Indices 1 2 3 4 5 6 
#
# 1 0.030611 -0.004611 -0.004825 0.000000 -0.021330 0.000000
# 2 -0.004611 0.005440 0.000015 0.000000 0.000641 0.000000
# 3 -0.004825 0.000015 0.025417 0.000000 0.004873 0.000000
# 4 0.000000 0.000000 0.000000 0.038818 0.000000 -0.010959
# 5 -0.021330 0.000641 0.004873 0.000000 0.054187 0.000000
# 6 0.000000 0.000000 0.000000 -0.010959 0.000000 0.023008
#
#
# Mechanical properties :
#
#
# Convention : Reuss Voigt Hill
#
# Bulk Modulus (GPa) = 23.46071 47.29775 35.37923
# Shear Modulus (GPa) = 23.74942 38.53221 31.14081
#
# Velocity S-wave (km/s) = 3.04478 3.87831 3.48654
# Velocity P-wave (km/s) = 4.63885 6.20628 5.47891
#
# Compressibility (1/GPa) = 0.04262446
#
# Stress axis : x y z
#
# Youngs Moduli (GPa) = 32.66810 183.83377 39.34385
#
# Poissons Ratio (x) = 0.84775 0.18983
# Poissons Ratio (y) = 0.15065 -0.00059
# Poissons Ratio (z) = 0.15762 -0.00275
#
# Static dielectric constant tensor:
#      x y z
#    x 2.070210 0.000000 -0.073720 
#    y 0.000000 1.998820 0.000000 
#    z -0.073720 0.000000 2.060790 
# 
# From -- ./inp_files/230135.got.cif
#   From: 2010.05.17/outbox.cif.g08.bks.cpg/sg15_116_cif.got.tgz:230135.got - 2010.06.03 18:47:42.
