data_PCOD9261902
_publ_section_title
;
Structure prediction by ZEFSAII (Michael W. Deem and Ramdas Pophale) SiO2 
 PCOD9261902
Probable space group: C 2/C
;
_chemical_formula_sum "Si O2"
_cell_formula_units_Z 40
_cell_length_a 20.898240
_cell_length_b 15.182540
_cell_length_c 8.951905
_cell_angle_alpha 90.000000
_cell_angle_beta 125.027326
_cell_angle_gamma 90.000000
_cell_volume 2325.889214
_symmetry_space_group_name_H-M "C 2/C"
_symmetry_group_IT_number 15
_symmetry_cell_setting 'monoclinic'
loop_
_space_group_symop_operation_xyz
x,y,z
-x,y,1/2-z
-x,-y,-z
x,-y,1/2+z
1/2+x,1/2+y,z
1/2-x,1/2+y,1/2-z
1/2-x,1/2-y,-z
1/2+x,1/2-y,1/2+z
loop_
_atom_site_type_symbol
_atom_site_label
_atom_site_fract_x
_atom_site_fract_y
_atom_site_fract_z
Si Si1 0.123011 0.190592 0.111700
Si Si2 0.344114 0.644282 0.013120
Si Si3 0.187775 0.941773 0.470963
Si Si4 0.463706 0.403123 0.433424
Si Si5 0.774521 0.316378 0.401337
O O1 0.143495 0.192646 0.314099
O O2 0.144283 0.280452 0.054459
O O3 0.177186 0.114117 0.108743
O O4 0.033618 0.159851 0.976919
O O5 0.313390 0.545131 0.002410
O O6 0.425599 0.630579 0.035503
O O7 0.284823 0.689018 0.817814
O O8 0.109063 0.914478 0.275560
O O9 0.259261 0.909485 0.462485
O O10 0.500000 0.500000 0.500000
O O11 0.750000 0.250000 0.500000
#
# Coordination Sequence:
#
# PCOD9261902 Si02
#       5
#     8   8   8   8   8
#     4  11  19  29  47  70 110 141 176 210 256 318
#     4  11  19  31  50  74 101 139 181 214 259 320
#     4  10  19  32  49  72 105 141 178 212 260 315
#     4  11  19  29  47  78 110 139 170 210 260 317
#     4   9  21  35  45  67 107 145 171 214 266 315
#
# _framework density 17.197723
#
# number of rings (size 3 to 8) (size 9 to 14) (size 15 to 20)
#    0.000    1.600    4.000    3.000    0.000    0.000 
#    0.000    0.000    0.000    0.000    0.000    0.000 
#    0.000  224.000    0.000    0.000    0.000    0.000 
#
# Total GULP energy -111507.611627 kJ/mol
# GULP energy per Si atom -5575.380581 kJ/mol
# Density = 1.715858 g / cm^3
# Si number density = 17.197723 Si / 1000 Ang^3
#
#
#
# Elastic Constant Matrix: (Units=GPa)
#
#
# Indices 1 2 3 4 5 6 
#
# 1 117.6461 48.8472 21.6657 0.0000 -9.0924 0.0000
# 2 48.8472 50.9258 19.2313 0.0000 6.8147 0.0000
# 3 21.6657 19.2313 79.7600 0.0000 -17.7243 0.0000
# 4 0.0000 0.0000 0.0000 25.1524 0.0000 0.8019
# 5 -9.0924 6.8147 -17.7243 0.0000 29.7180 0.0000
# 6 0.0000 0.0000 0.0000 0.8019 0.0000 42.2839
#
#
#
# Elastic Compliance Matrix: (Units=1/GPa)
#
#
# Indices 1 2 3 4 5 6 
#
# 1 0.016321 -0.017872 0.002186 0.000000 0.010395 0.000000
# 2 -0.017872 0.043654 -0.010503 0.000000 -0.021742 0.000000
# 3 0.002186 -0.010503 0.017476 0.000000 0.013500 0.000000
# 4 0.000000 0.000000 0.000000 0.039782 0.000000 -0.000754
# 5 0.010395 -0.021742 0.013500 0.000000 0.049868 0.000000
# 6 0.000000 0.000000 0.000000 -0.000754 0.000000 0.023664
#
#
# Mechanical properties :
#
#
# Convention : Reuss Voigt Hill
#
# Bulk Modulus (GPa) = 39.88091 47.53560 43.70826
# Shear Modulus (GPa) = 19.88062 30.00335 24.94198
#
# Velocity S-wave (km/s) = 3.40369 4.18139 3.81242
# Velocity P-wave (km/s) = 6.21987 7.14231 6.69699
#
# Compressibility (1/GPa) = 0.02507465
#
# Stress axis : x y z
#
# Youngs Moduli (GPa) = 61.26934 22.90722 57.22039
#
# Poissons Ratio (x) = 0.40939 -0.12507
# Poissons Ratio (y) = 1.09499 0.60097
# Poissons Ratio (z) = -0.13392 0.24059
#
# Static dielectric constant tensor:
#      x y z
#    x 1.623170 0.000000 -0.027480 
#    y 0.000000 1.597020 0.000000 
#    z -0.027480 0.000000 1.621330 
# 
# From -- ./inp_files/38615.got.cif
#   From: 2010.05.17/outbox.cif.g08.bks.cpg/sg15_20_cif.got.tgz:38615.got - 2010.06.03 18:47:42.
