data_PCOD9261550
_publ_section_title
;
Structure prediction by ZEFSAII (Michael W. Deem and Ramdas Pophale) SiO2 
 PCOD9261550
Probable space group: C 2/C
;
_chemical_formula_sum "Si O2"
_cell_formula_units_Z 60
_cell_length_a 25.868980
_cell_length_b 18.131627
_cell_length_c 9.214843
_cell_angle_alpha 90.000000
_cell_angle_beta 42.501138
_cell_angle_gamma 90.000000
_cell_volume 2920.093657
_symmetry_space_group_name_H-M "C 2/C"
_symmetry_group_IT_number 15
_symmetry_cell_setting 'monoclinic'
loop_
_space_group_symop_operation_xyz
x,y,z
-x,y,1/2-z
-x,-y,-z
x,-y,1/2+z
1/2+x,1/2+y,z
1/2-x,1/2+y,1/2-z
1/2-x,1/2-y,-z
1/2+x,1/2-y,1/2+z
loop_
_atom_site_type_symbol
_atom_site_label
_atom_site_fract_x
_atom_site_fract_y
_atom_site_fract_z
Si Si1 0.050882 0.431844 0.340614
Si Si2 0.500000 0.370341 0.750000
Si Si3 0.136427 0.483124 0.438254
Si Si4 0.117860 0.804449 0.082093
Si Si5 0.611552 0.493878 0.408321
Si Si6 0.705991 0.560041 0.464649
Si Si7 0.062941 0.647635 0.250714
Si Si8 0.955259 0.852448 0.546186
O O1 0.116879 0.440193 0.327973
O O2 0.000000 0.500000 0.500000
O O3 0.992959 0.364956 0.495580
O O4 0.082320 0.451452 0.116732
O O5 0.557959 0.424705 0.547619
O O6 0.456682 0.328597 0.710838
O O7 0.216126 0.523921 0.250133
O O8 0.119848 0.420053 0.594142
O O9 0.112226 0.721375 0.149087
O O10 0.040602 0.841183 0.307779
O O11 0.191116 0.852678 0.975345
O O12 0.102312 0.808714 0.941013
O O13 0.639180 0.525936 0.503166
O O14 0.569662 0.562088 0.416537
O O15 0.685026 0.466536 0.167927
O O16 0.000000 0.650961 0.250000
#
# Coordination Sequence:
#
# PCOD9261550 Si02
#       8
#     8   4   8   8   8   8   8   8
#     4   9  18  35  63  89 105 138 198 253 283 316
#     4  12  18  30  48  80 116 140 206 252 274 312
#     4  10  20  35  60  88 112 148 190 242 286 348
#     4  10  19  34  56  82 112 155 191 233 290 351
#     4  11  20  31  49  79 109 158 195 243 272 333
#     4  11  21  33  53  81 121 155 188 228 293 355
#     4   9  17  34  63  85 108 145 198 249 280 326
#     4  10  19  30  52  80 109 150 199 237 280 329
#
# _framework density 20.547286
#
# number of rings (size 3 to 8) (size 9 to 14) (size 15 to 20)
#    0.000    1.867    4.000    4.000    0.000    0.000 
#    0.000    0.000    8.800   10.400    0.000    0.000 
#    0.000    0.000    0.000    0.000    0.000    0.000 
#
# Total GULP energy -167079.832913 kJ/mol
# GULP energy per Si atom -5569.327764 kJ/mol
# Density = 2.050052 g / cm^3
# Si number density = 20.547286 Si / 1000 Ang^3
#
#
#
# Elastic Constant Matrix: (Units=GPa)
#
#
# Indices 1 2 3 4 5 6 
#
# 1 27.1127 16.7258 6.3416 0.0000 9.8046 0.0000
# 2 16.7258 103.5149 40.1067 0.0000 -12.0435 0.0000
# 3 6.3416 40.1067 85.9448 0.0000 -8.1076 0.0000
# 4 0.0000 0.0000 0.0000 11.8179 0.0000 -5.9280
# 5 9.8046 -12.0435 -8.1076 0.0000 38.3118 0.0000
# 6 0.0000 0.0000 0.0000 -5.9280 0.0000 15.3862
#
#
#
# Elastic Compliance Matrix: (Units=1/GPa)
#
#
# Indices 1 2 3 4 5 6 
#
# 1 0.048411 -0.009366 -0.000661 0.000000 -0.015473 0.000000
# 2 -0.009366 0.013863 -0.005246 0.000000 0.005645 0.000000
# 3 -0.000661 -0.005246 0.014277 0.000000 0.001542 0.000000
# 4 0.000000 0.000000 0.000000 0.104889 0.000000 0.040412
# 5 -0.015473 0.005645 0.001542 0.000000 0.032162 0.000000
# 6 0.000000 0.000000 0.000000 0.040412 0.000000 0.080563
#
#
# Mechanical properties :
#
#
# Convention : Reuss Voigt Hill
#
# Bulk Modulus (GPa) = 21.73633 38.10229 29.91931
# Shear Modulus (GPa) = 14.70382 23.32973 19.01677
#
# Velocity S-wave (km/s) = 2.67799 3.37325 3.04552
# Velocity P-wave (km/s) = 4.49041 5.80997 5.19228
#
# Compressibility (1/GPa) = 0.04600592
#
# Stress axis : x y z
#
# Youngs Moduli (GPa) = 20.65630 72.13424 70.04029
#
# Poissons Ratio (x) = 0.67564 0.04629
# Poissons Ratio (y) = 0.19348 0.36741
# Poissons Ratio (z) = 0.01365 0.37839
#
# Static dielectric constant tensor:
#      x y z
#    x 1.871960 0.000000 0.053810 
#    y 0.000000 1.790150 0.000000 
#    z 0.053810 0.000000 1.732730 
# 
# From -- ./inp_files/67506.got.cif
#   From: 2010.05.17/outbox.cif.g08.bks.cpg/sg15_34_cif.got.tgz:67506.got - 2010.06.03 18:47:42.
