data_PCOD9261908
_publ_section_title
;
Structure prediction by ZEFSAII (Michael W. Deem and Ramdas Pophale) SiO2 
 PCOD9261908
Probable space group: C 2/C
;
_chemical_formula_sum "Si O2"
_cell_formula_units_Z 56
_cell_length_a 12.585297
_cell_length_b 26.026258
_cell_length_c 16.710726
_cell_angle_alpha 90.000000
_cell_angle_beta 148.003831
_cell_angle_gamma 90.000000
_cell_volume 2900.238750
_symmetry_space_group_name_H-M "C 2/C"
_symmetry_group_IT_number 15
_symmetry_cell_setting 'monoclinic'
loop_
_space_group_symop_operation_xyz
x,y,z
-x,y,1/2-z
-x,-y,-z
x,-y,1/2+z
1/2+x,1/2+y,z
1/2-x,1/2+y,1/2-z
1/2-x,1/2-y,-z
1/2+x,1/2-y,1/2+z
loop_
_atom_site_type_symbol
_atom_site_label
_atom_site_fract_x
_atom_site_fract_y
_atom_site_fract_z
Si Si1 0.540443 0.796463 0.586897
Si Si2 0.237916 0.406496 0.879358
Si Si3 0.685166 0.522180 0.930434
Si Si4 0.445797 0.085758 0.399117
Si Si5 0.773786 0.089003 0.072709
Si Si6 0.729715 0.210109 0.367692
Si Si7 0.725597 0.298280 0.927653
O O1 0.476932 0.855410 0.561850
O O2 0.714765 0.785559 0.762177
O O3 0.366098 0.755352 0.487303
O O4 0.627371 0.793130 0.553941
O O5 0.230544 0.419925 0.780267
O O6 0.304246 0.347515 0.933920
O O7 0.000000 0.408630 0.750000
O O8 0.347146 0.444654 0.009836
O O9 0.500000 0.523646 0.750000
O O10 0.736015 0.463110 0.983852
O O11 0.876380 0.547130 0.007875
O O12 0.362936 0.081334 0.435596
O O13 0.732612 0.144932 0.008956
O O14 0.000000 0.091910 0.250000
O O15 0.500000 0.213872 0.250000
O O16 0.500000 0.298232 0.750000
O O17 0.750000 0.250000 0.000000
#
# Coordination Sequence:
#
# PCOD9261908 Si02
#       7
#     8   8   8   8   8   8   8
#     4  10  20  32  52  78 102 136 176 206 254 311
#     4   8  17  33  51  73 104 140 171 204 253 308
#     4  10  19  33  53  80 105 132 170 213 256 304
#     4   9  18  34  54  74 103 138 171 208 255 305
#     4   9  19  35  56  77 100 136 175 209 252 305
#     4  10  19  32  49  75 107 139 169 206 253 308
#     4  10  20  37  57  77 103 135 171 216 256 297
#
# _framework density 19.308754
#
# number of rings (size 3 to 8) (size 9 to 14) (size 15 to 20)
#    0.000    2.571    0.000    2.571    0.000    2.857 
#    0.000    5.000    0.000    1.714    0.000    0.000 
#    0.000    0.000    0.000    0.000    0.000    0.000 
#
# Total GULP energy -156097.488044 kJ/mol
# GULP energy per Si atom -5574.910287 kJ/mol
# Density = 1.926481 g / cm^3
# Si number density = 19.308754 Si / 1000 Ang^3
#
#
#
# Elastic Constant Matrix: (Units=GPa)
#
#
# Indices 1 2 3 4 5 6 
#
# 1 35.4053 40.4582 8.9722 0.0004 -2.8035 0.0001
# 2 40.4582 183.2911 64.9646 0.0004 -16.6718 0.0000
# 3 8.9722 64.9646 47.5569 0.0019 -9.0192 0.0001
# 4 0.0004 0.0004 0.0019 130.1645 0.0009 -10.0383
# 5 -2.8035 -16.6718 -9.0192 0.0009 24.2204 0.0001
# 6 0.0001 0.0000 0.0001 -10.0383 0.0001 25.3921
#
#
#
# Elastic Compliance Matrix: (Units=1/GPa)
#
#
# Indices 1 2 3 4 5 6 
#
# 1 0.039528 -0.011806 0.008605 0.000000 -0.000347 0.000000
# 2 -0.011806 0.014198 -0.016757 0.000000 0.002167 0.000000
# 3 0.008605 -0.016757 0.043358 -0.000001 0.005607 0.000000
# 4 0.000000 0.000000 -0.000001 0.007924 0.000000 0.003133
# 5 -0.000347 0.002167 0.005607 0.000000 0.044827 0.000000
# 6 0.000000 0.000000 0.000000 0.003133 0.000000 0.040621
#
#
# Mechanical properties :
#
#
# Convention : Reuss Voigt Hill
#
# Bulk Modulus (GPa) = 17.49264 55.00479 36.24872
# Shear Modulus (GPa) = 20.04584 46.07929 33.06256
#
# Velocity S-wave (km/s) = 3.22557 4.89043 4.14250
# Velocity P-wave (km/s) = 4.79077 7.77413 6.45711
#
# Compressibility (1/GPa) = 0.05716690
#
# Stress axis : x y z
#
# Youngs Moduli (GPa) = 25.29873 70.43171 23.06373
#
# Poissons Ratio (x) = 0.83155 -0.19846
# Poissons Ratio (y) = 0.29869 0.38648
# Poissons Ratio (z) = -0.21769 1.18022
#
# Static dielectric constant tensor:
#      x y z
#    x 1.797530 0.000000 -0.024200 
#    y 0.000000 1.704280 0.000000 
#    z -0.024200 0.000000 1.651480 
# 
# From -- ./inp_files/42286.got.cif
#   From: 2010.05.17/outbox.cif.g08.bks.cpg/sg15_22_cif.got.tgz:42286.got - 2010.06.03 18:47:42.
