data_PCOD9261283
_publ_section_title
;
Structure prediction by ZEFSAII (Michael W. Deem and Ramdas Pophale) SiO2 
 PCOD9261283
Probable space group: C 2/C
;
_chemical_formula_sum "Si O2"
_cell_formula_units_Z 44
_cell_length_a 8.418619
_cell_length_b 11.827443
_cell_length_c 19.273345
_cell_angle_alpha 90.000000
_cell_angle_beta 51.468012
_cell_angle_gamma 90.000000
_cell_volume 1501.205714
_symmetry_space_group_name_H-M "C 2/C"
_symmetry_group_IT_number 15
_symmetry_cell_setting 'monoclinic'
loop_
_space_group_symop_operation_xyz
x,y,z
-x,y,1/2-z
-x,-y,-z
x,-y,1/2+z
1/2+x,1/2+y,z
1/2-x,1/2+y,1/2-z
1/2-x,1/2-y,-z
1/2+x,1/2-y,1/2+z
loop_
_atom_site_type_symbol
_atom_site_label
_atom_site_fract_x
_atom_site_fract_y
_atom_site_fract_z
Si Si1 0.559268 0.098248 0.418509
Si Si2 0.628166 0.761337 0.768895
Si Si3 0.049626 0.020783 0.103452
Si Si4 0.022104 0.609416 0.661250
Si Si5 0.023358 0.823475 0.486965
Si Si6 0.500000 0.441637 0.250000
O O1 0.649026 0.182287 0.336342
O O2 0.477210 0.997578 0.391532
O O3 0.449609 0.195880 0.493899
O O4 0.730374 0.042557 0.421076
O O5 0.500000 0.837422 0.750000
O O6 0.457517 0.658893 0.817915
O O7 0.829144 0.689080 0.699430
O O8 0.915267 0.020192 0.211390
O O9 0.047379 0.917387 0.049668
O O10 0.976648 0.123709 0.074761
O O11 0.000000 0.585880 0.750000
O O12 0.231624 0.672245 0.586730
#
# Coordination Sequence:
#
# PCOD9261283 Si02
#       6
#     8   8   8   8   8   4
#     4  12  23  45  72 100 144 188 236 290 363 430
#     4  10  21  44  69 103 143 178 237 303 348 415
#     4  11  24  45  77  97 150 190 231 299 366 412
#     4  12  24  44  72 107 138 188 245 292 354 432
#     4  11  26  49  67 109 145 185 240 302 347 434
#     4  10  18  44  70  92 132 192 218 286 362 404
#
# _framework density 29.309774000000001
#
# number of rings (size 3 to 8) (size 9 to 14) (size 15 to 20)
#    0.545    0.364    5.455    1.091    0.000    2.182 
#    6.545    3.636    0.000    0.000    0.000    0.000 
#    0.000    0.000    0.000    0.000    0.000    0.000 
#
# Total GULP energy -122632.477989 kJ/mol
# GULP energy per Si atom -5574.203545 kJ/mol
# Density = 2.924306 g / cm^3
# Si number density = 29.309774 Si / 1000 Ang^3
#
#
#
# Elastic Constant Matrix: (Units=GPa)
#
#
# Indices 1 2 3 4 5 6 
#
# 1 175.1304 78.4976 68.4274 0.0000 23.5289 0.0000
# 2 78.4976 169.8341 97.2078 0.0000 29.2710 0.0000
# 3 68.4274 97.2078 150.9225 0.0000 32.3327 0.0000
# 4 0.0000 0.0000 0.0000 40.3386 0.0000 10.8723
# 5 23.5289 29.2710 32.3327 0.0000 64.7183 0.0000
# 6 0.0000 0.0000 0.0000 10.8723 0.0000 32.2684
#
#
#
# Elastic Compliance Matrix: (Units=1/GPa)
#
#
# Indices 1 2 3 4 5 6 
#
# 1 0.007553 -0.002361 -0.001730 0.000000 -0.000814 0.000000
# 2 -0.002361 0.010173 -0.005241 0.000000 -0.001124 0.000000
# 3 -0.001730 -0.005241 0.011359 0.000000 -0.002676 0.000000
# 4 0.000000 0.000000 0.000000 0.027266 0.000000 -0.009187
# 5 -0.000814 -0.001124 -0.002676 0.000000 0.017593 0.000000
# 6 0.000000 0.000000 0.000000 -0.009187 0.000000 0.034085
#
#
# Mechanical properties :
#
#
# Convention : Reuss Voigt Hill
#
# Bulk Modulus (GPa) = 95.94784 109.35028 102.64906
# Shear Modulus (GPa) = 38.41223 44.24867 41.33045
#
# Velocity S-wave (km/s) = 3.62409 3.88969 3.75924
# Velocity P-wave (km/s) = 7.09358 7.58699 7.34443
#
# Compressibility (1/GPa) = 0.01042233
#
# Stress axis : x y z
#
# Youngs Moduli (GPa) = 132.39017 98.30082 88.03609
#
# Poissons Ratio (x) = 0.23208 0.15227
# Poissons Ratio (y) = 0.31256 0.46139
# Poissons Ratio (z) = 0.22898 0.51519
#
# Static dielectric constant tensor:
#      x y z
#    x 2.695510 0.000000 -0.113370 
#    y 0.000000 2.522740 0.000000 
#    z -0.113370 0.000000 3.061780 
# 
# From -- ./inp_files/188777.got.cif
#   From: 2010.05.17/outbox.cif.g08.bks.cpg/sg15_95_cif.got.tgz:188777.got - 2010.06.03 18:47:42.
