data_PCOD9261857
_publ_section_title
;
Structure prediction by ZEFSAII (Michael W. Deem and Ramdas Pophale) SiO2 
 PCOD9261857
Probable space group: C 2/C
;
_chemical_formula_sum "Si O2"
_cell_formula_units_Z 48
_cell_length_a 30.287088
_cell_length_b 14.573247
_cell_length_c 12.570578
_cell_angle_alpha 90.000000
_cell_angle_beta 155.480432
_cell_angle_gamma 90.000000
_cell_volume 2302.615208
_symmetry_space_group_name_H-M "C 2/C"
_symmetry_group_IT_number 15
_symmetry_cell_setting 'monoclinic'
loop_
_space_group_symop_operation_xyz
x,y,z
-x,y,1/2-z
-x,-y,-z
x,-y,1/2+z
1/2+x,1/2+y,z
1/2-x,1/2+y,1/2-z
1/2-x,1/2-y,-z
1/2+x,1/2-y,1/2+z
loop_
_atom_site_type_symbol
_atom_site_label
_atom_site_fract_x
_atom_site_fract_y
_atom_site_fract_z
Si Si1 0.254619 0.528148 0.841563
Si Si2 0.713096 0.148395 0.949522
Si Si3 0.628461 0.679028 0.547503
Si Si4 0.111692 0.626096 0.933988
Si Si5 0.404160 0.597642 0.815571
Si Si6 0.940601 0.088067 0.510081
O O1 0.173008 0.466437 0.597843
O O2 0.201513 0.588969 0.817809
O O3 0.318997 0.598293 0.907230
O O4 0.329580 0.455581 0.068759
O O5 0.816667 0.110092 0.239799
O O6 0.750000 0.250000 0.000000
O O7 0.614114 0.139186 0.811967
O O8 0.500000 0.677796 0.250000
O O9 0.666579 0.779393 0.594599
O O10 0.650248 0.664681 0.720352
O O11 0.000000 0.622299 0.750000
O O12 0.500000 0.639736 0.956759
O O13 0.448746 0.517727 0.991235
O O14 0.000000 0.104242 0.750000
#
# Coordination Sequence:
#
# PCOD9261857 Si02
#       6
#     8   8   8   8   8   8
#     4  11  22  41  65  92 128 166 213 269 320 384
#     4  11  22  41  65  90 125 175 211 251 324 388
#     4  11  21  38  64  94 126 163 213 266 324 384
#     4  11  26  42  65  92 127 174 219 261 314 388
#     4  10  19  31  61  94 121 156 199 266 330 368
#     4  10  19  33  58  93 124 150 203 265 320 375
#
# _framework density 20.845863000000001
#
# number of rings (size 3 to 8) (size 9 to 14) (size 15 to 20)
#    0.000    1.333    1.667    7.500    2.333    1.333 
#    0.000    0.833    0.000    0.000    0.000    0.000 
#    0.000    0.000    0.000    0.000    0.000    0.000 
#
# Total GULP energy -134013.243769 kJ/mol
# GULP energy per Si atom -5583.885157 kJ/mol
# Density = 2.079842 g / cm^3
# Si number density = 20.845863 Si / 1000 Ang^3
#
#
#
# Elastic Constant Matrix: (Units=GPa)
#
#
# Indices 1 2 3 4 5 6 
#
# 1 173.1004 38.6789 19.4661 0.0000 14.8754 0.0000
# 2 38.6789 96.9245 19.6323 0.0000 4.7758 0.0000
# 3 19.4661 19.6323 23.3635 0.0000 0.3484 0.0000
# 4 0.0000 0.0000 0.0000 22.2325 0.0000 -1.3362
# 5 14.8754 4.7758 0.3484 0.0000 25.4339 0.0000
# 6 0.0000 0.0000 0.0000 -1.3362 0.0000 33.6142
#
#
#
# Elastic Compliance Matrix: (Units=1/GPa)
#
#
# Indices 1 2 3 4 5 6 
#
# 1 0.006963 -0.001727 -0.004295 0.000000 -0.003689 0.000000
# 2 -0.001727 0.012985 -0.009453 0.000000 -0.001299 0.000000
# 3 -0.004295 -0.009453 0.054271 0.000000 0.003544 0.000000
# 4 0.000000 0.000000 0.000000 0.045087 0.000000 0.001792
# 5 -0.003689 -0.001299 0.003544 0.000000 0.041671 0.000000
# 6 0.000000 0.000000 0.000000 0.001792 0.000000 0.029821
#
#
# Mechanical properties :
#
#
# Convention : Reuss Voigt Hill
#
# Bulk Modulus (GPa) = 23.11151 49.88255 36.49703
# Shear Modulus (GPa) = 21.17107 30.63019 25.90063
#
# Velocity S-wave (km/s) = 3.19031 3.83739 3.52871
# Velocity P-wave (km/s) = 4.96806 6.60418 5.84367
#
# Compressibility (1/GPa) = 0.04326848
#
# Stress axis : x y z
#
# Youngs Moduli (GPa) = 143.61779 77.01071 18.42597
#
# Poissons Ratio (x) = 0.13298 0.07915
# Poissons Ratio (y) = 0.24800 0.17419
# Poissons Ratio (z) = 0.61689 0.72800
#
# Static dielectric constant tensor:
#      x y z
#    x 1.828840 0.000000 0.031950 
#    y 0.000000 1.759740 0.000000 
#    z 0.031950 0.000000 1.763460 
# 
# From -- ./inp_files/96318.got.cif
#   From: 2010.05.17/outbox.cif.g08.bks.cpg/sg15_49_cif.got.tgz:96318.got - 2010.06.03 18:47:42.
