data_PCOD9261359
_publ_section_title
;
Structure prediction by ZEFSAII (Michael W. Deem and Ramdas Pophale) SiO2 
 PCOD9261359
Probable space group: C 2/C
;
_chemical_formula_sum "Si O2"
_cell_formula_units_Z 64
_cell_length_a 10.429078
_cell_length_b 22.621617
_cell_length_c 14.626745
_cell_angle_alpha 90.000000
_cell_angle_beta 42.102652
_cell_angle_gamma 90.000000
_cell_volume 2313.613162
_symmetry_space_group_name_H-M "C 2/C"
_symmetry_group_IT_number 15
_symmetry_cell_setting 'monoclinic'
loop_
_space_group_symop_operation_xyz
x,y,z
-x,y,1/2-z
-x,-y,-z
x,-y,1/2+z
1/2+x,1/2+y,z
1/2-x,1/2+y,1/2-z
1/2-x,1/2-y,-z
1/2+x,1/2-y,1/2+z
loop_
_atom_site_type_symbol
_atom_site_label
_atom_site_fract_x
_atom_site_fract_y
_atom_site_fract_z
Si Si1 0.025001 0.249677 0.597794
Si Si2 0.501921 0.625585 0.911334
Si Si3 0.441219 0.128275 0.396131
Si Si4 0.053078 0.873401 0.599791
Si Si5 0.534043 0.997944 0.130672
Si Si6 0.017904 0.000020 0.601276
Si Si7 0.991134 0.376225 0.431111
Si Si8 0.026683 0.252418 0.093573
O O1 0.250000 0.250000 0.500000
O O2 0.947821 0.185813 0.667783
O O3 0.951507 0.310139 0.682150
O O4 0.993667 0.249466 0.505253
O O5 0.268367 0.625573 0.038773
O O6 0.579261 0.625439 0.974874
O O7 0.558124 0.564561 0.832817
O O8 0.540963 0.064999 0.329288
O O9 0.426735 0.133957 0.512260
O O10 0.259354 0.874792 0.540424
O O11 0.952364 0.810278 0.672467
O O12 0.950307 0.936288 0.673137
O O13 0.500000 0.974797 0.250000
O O14 0.758462 0.002039 0.993060
O O15 0.456399 0.944380 0.113528
O O16 0.000000 0.000000 0.500000
O O17 0.047155 0.318054 0.341152
O O18 0.250000 0.250000 0.000000
#
# Coordination Sequence:
#
# PCOD9261359 Si02
#       8
#     8   8   8   8   8   8   8   8
#     4   8  13  21  35  58  84 107 136 180 218 245
#     4   8  13  22  38  64  87 106 138 184 218 247
#     4   9  16  26  41  63  87 112 147 187 218 252
#     4   8  13  22  38  64  87 106 138 184 218 247
#     4  10  19  29  42  65  95 122 143 176 228 277
#     4   8  14  25  42  65  84 108 149 186 207 247
#     4   9  16  26  41  63  87 112 147 187 218 252
#     4   8  13  21  35  58  84 107 136 180 218 245
#
# _framework density 27.662362000000002
#
# number of rings (size 3 to 8) (size 9 to 14) (size 15 to 20)
#    0.000    3.500    0.000    0.375    0.000    0.000 
#    0.000    0.000    0.000    0.000    0.000  231.000 
#    0.000    0.000    0.000    0.000    0.000    0.000 
#
# Total GULP energy -178563.003438 kJ/mol
# GULP energy per Si atom -5580.093857 kJ/mol
# Density = 2.759940 g / cm^3
# Si number density = 27.662362 Si / 1000 Ang^3
#
#
#
# Elastic Constant Matrix: (Units=GPa)
#
#
# Indices 1 2 3 4 5 6 
#
# 1 181.2700 -2.1016 58.2654 -0.0010 -14.5403 0.0001
# 2 -2.1016 308.8131 24.7982 -0.0001 4.6216 0.0000
# 3 58.2654 24.7982 42.6973 -0.0006 2.5332 0.0001
# 4 -0.0010 -0.0001 -0.0006 83.1561 0.0006 30.2779
# 5 -14.5403 4.6216 2.5332 0.0006 52.4638 -0.0001
# 6 0.0001 0.0000 0.0001 30.2779 -0.0001 23.0710
#
#
#
# Elastic Compliance Matrix: (Units=1/GPa)
#
#
# Indices 1 2 3 4 5 6 
#
# 1 0.010936 0.001296 -0.015895 0.000000 0.003684 0.000000
# 2 0.001296 0.003552 -0.003845 0.000000 0.000232 0.000000
# 3 -0.015895 -0.003845 0.047722 0.000000 -0.006371 -0.000001
# 4 0.000000 0.000000 0.000000 0.023031 0.000000 -0.030225
# 5 0.003684 0.000232 -0.006371 0.000000 0.020369 0.000001
# 6 0.000000 0.000000 -0.000001 -0.030225 0.000001 0.083011
#
#
# Mechanical properties :
#
#
# Convention : Reuss Voigt Hill
#
# Bulk Modulus (GPa) = 39.49082 77.18937 58.34010
# Shear Modulus (GPa) = 21.37197 61.85942 41.61569
#
# Velocity S-wave (km/s) = 2.78259 4.73401 3.88289
# Velocity P-wave (km/s) = 4.96293 7.60564 6.42170
#
# Compressibility (1/GPa) = 0.02532234
#
# Stress axis : x y z
#
# Youngs Moduli (GPa) = 91.43891 281.50679 20.95461
#
# Poissons Ratio (x) = -0.36474 0.33307
# Poissons Ratio (y) = -0.11847 0.08057
# Poissons Ratio (z) = 1.45341 1.08239
#
# Static dielectric constant tensor:
#      x y z
#    x 2.091140 0.000000 0.024060 
#    y 0.000000 2.290900 0.000000 
#    z 0.024060 0.000000 2.029820 
# 
# From -- ./inp_files/200665.got.cif
#   From: 2010.05.17/outbox.cif.g08.bks.cpg/sg15_101_cif.got.tgz:200665.got - 2010.06.03 18:47:42.
