data_PCOD9261000
_publ_section_title
;
Structure prediction by ZEFSAII (Michael W. Deem and Ramdas Pophale) SiO2 
 PCOD9261000
Probable space group: C 2/C
;
_chemical_formula_sum "Si O2"
_cell_formula_units_Z 56
_cell_length_a 13.197655
_cell_length_b 17.144329
_cell_length_c 14.032287
_cell_angle_alpha 90.000000
_cell_angle_beta 47.023628
_cell_angle_gamma 90.000000
_cell_volume 2322.951422
_symmetry_space_group_name_H-M "C 2/C"
_symmetry_group_IT_number 15
_symmetry_cell_setting 'monoclinic'
loop_
_space_group_symop_operation_xyz
x,y,z
-x,y,1/2-z
-x,-y,-z
x,-y,1/2+z
1/2+x,1/2+y,z
1/2-x,1/2+y,1/2-z
1/2-x,1/2-y,-z
1/2+x,1/2-y,1/2+z
loop_
_atom_site_type_symbol
_atom_site_label
_atom_site_fract_x
_atom_site_fract_y
_atom_site_fract_z
Si Si1 0.950207 0.092172 0.681916
Si Si2 0.704331 0.690008 0.259771
Si Si3 0.563905 0.030236 0.106774
Si Si4 0.678303 0.463173 0.495473
Si Si5 0.415904 0.302266 0.020805
Si Si6 0.734299 0.018306 0.273061
Si Si7 0.153734 0.695723 0.124683
O O1 0.964243 0.153233 0.587223
O O2 0.000000 0.123491 0.750000
O O3 0.793921 0.059260 0.784582
O O4 0.046207 0.015886 0.605210
O O5 0.552383 0.725983 0.376955
O O6 0.802877 0.739130 0.126437
O O7 0.695859 0.598836 0.238236
O O8 0.775393 0.685313 0.318329
O O9 0.500000 0.006602 0.250000
O O10 0.430949 0.029569 0.124233
O O11 0.627523 0.115729 0.083810
O O12 0.695566 0.974676 0.011943
O O13 0.647908 0.372706 0.499754
O O14 0.720446 0.499768 0.365524
O O15 0.000000 0.721397 0.250000
O O16 0.250000 0.750000 0.000000
#
# Coordination Sequence:
#
# PCOD9261000 Si02
#       7
#     8   8   8   8   8   8   8
#     4  11  22  41  66  97 125 172 227 271 320 403
#     4  12  21  38  62  96 136 175 211 269 338 397
#     4   9  17  33  59  88 116 166 209 260 316 381
#     4  10  18  40  67  87 123 178 228 261 317 396
#     4  11  24  39  67  98 136 173 220 271 335 404
#     4  10  18  39  67  87 125 173 214 270 336 383
#     4  11  20  31  50  91 134 166 197 254 332 401
#
# _framework density 24.107263
#
# number of rings (size 3 to 8) (size 9 to 14) (size 15 to 20)
#    0.000    1.429    7.143    1.714    0.000    2.857 
#    0.000    0.714    9.429    5.143    0.000    0.000 
#    0.000    0.000    0.000    0.000    0.000    0.000 
#
# Total GULP energy -156608.609918 kJ/mol
# GULP energy per Si atom -5593.164640 kJ/mol
# Density = 2.405239 g / cm^3
# Si number density = 24.107263 Si / 1000 Ang^3
#
#
#
# Elastic Constant Matrix: (Units=GPa)
#
#
# Indices 1 2 3 4 5 6 
#
# 1 50.3799 22.3363 22.8190 0.0000 -28.5534 0.0000
# 2 22.3363 75.3012 50.5206 0.0000 -22.6734 0.0000
# 3 22.8190 50.5206 140.8077 0.0000 -20.1501 0.0000
# 4 0.0000 0.0000 0.0000 42.6201 0.0000 -7.8961
# 5 -28.5534 -22.6734 -20.1501 0.0000 38.0080 0.0000
# 6 0.0000 0.0000 0.0000 -7.8961 0.0000 2.6782
#
#
#
# Elastic Compliance Matrix: (Units=1/GPa)
#
#
# Indices 1 2 3 4 5 6 
#
# 1 0.035344 -0.002126 -0.001457 0.000000 0.024511 0.000000
# 2 -0.002126 0.019975 -0.005785 0.000000 0.007252 0.000000
# 3 -0.001457 -0.005785 0.009482 0.000000 0.000482 0.000000
# 4 0.000000 0.000000 0.000000 0.051707 0.000000 0.152450
# 5 0.024511 0.007252 0.000482 0.000000 0.049306 -0.000001
# 6 0.000000 0.000000 0.000000 0.152450 -0.000001 0.822861
#
#
# Mechanical properties :
#
#
# Convention : Reuss Voigt Hill
#
# Bulk Modulus (GPa) = 21.70794 50.87117 36.28956
# Shear Modulus (GPa) = 4.88870 28.04877 16.46874
#
# Velocity S-wave (km/s) = 1.42559 3.41471 2.61654
# Velocity P-wave (km/s) = 3.42549 6.05762 4.92081
#
# Compressibility (1/GPa) = 0.04606608
#
# Stress axis : x y z
#
# Youngs Moduli (GPa) = 28.29345 50.06201 105.45810
#
# Poissons Ratio (x) = 0.10642 0.15369
# Poissons Ratio (y) = 0.06014 0.61003
# Poissons Ratio (z) = 0.04123 0.28959
#
# Static dielectric constant tensor:
#      x y z
#    x 1.981830 0.000000 0.003920 
#    y 0.000000 1.907650 0.000000 
#    z 0.003920 0.000000 1.966850 
# 
# From -- ./inp_files/206248.got.cif
#   From: 2010.05.17/outbox.cif.g08.bks.cpg/sg15_104_cif.got.tgz:206248.got - 2010.06.03 18:47:42.
