data_PCOD9261324
_publ_section_title
;
Structure prediction by ZEFSAII (Michael W. Deem and Ramdas Pophale) SiO2 
 PCOD9261324
Probable space group: C 2/C
;
_chemical_formula_sum "Si O2"
_cell_formula_units_Z 48
_cell_length_a 12.740393
_cell_length_b 9.613279
_cell_length_c 14.826072
_cell_angle_alpha 90.000000
_cell_angle_beta 119.903747
_cell_angle_gamma 90.000000
_cell_volume 1574.097096
_symmetry_space_group_name_H-M "C 2/C"
_symmetry_group_IT_number 15
_symmetry_cell_setting 'monoclinic'
loop_
_space_group_symop_operation_xyz
x,y,z
-x,y,1/2-z
-x,-y,-z
x,-y,1/2+z
1/2+x,1/2+y,z
1/2-x,1/2+y,1/2-z
1/2-x,1/2-y,-z
1/2+x,1/2-y,1/2+z
loop_
_atom_site_type_symbol
_atom_site_label
_atom_site_fract_x
_atom_site_fract_y
_atom_site_fract_z
Si Si1 0.241278 0.591172 0.792364
Si Si2 0.000000 0.666154 0.250000
Si Si3 0.374740 0.831570 0.076531
Si Si4 0.306015 0.591465 0.630918
Si Si5 0.500000 0.639939 0.250000
Si Si6 0.558226 0.836693 0.583828
Si Si7 0.882878 0.900523 0.964387
O O1 0.147699 0.607751 0.833932
O O2 0.212964 0.598138 0.674831
O O3 0.339982 0.716010 0.852371
O O4 0.301976 0.444316 0.845905
O O5 0.110203 0.771194 0.321720
O O6 0.033909 0.593490 0.170142
O O7 0.482287 0.724890 0.149697
O O8 0.250000 0.750000 0.000000
O O9 0.403204 0.906476 0.994159
O O10 0.386212 0.461253 0.698506
O O11 0.302713 0.569798 0.521153
O O12 0.437914 0.749176 0.507696
O O13 0.000000 0.000000 0.000000
#
# Coordination Sequence:
#
# PCOD9261324 Si02
#       7
#     8   4   8   8   4   8   8
#     4   9  16  25  37  62  96 124 147 184 235 278
#     4   7  12  20  36  60  86 115 148 185 224 270
#     4  10  19  28  41  67 101 127 148 189 242 281
#     4   9  15  24  41  65  91 121 156 188 223 273
#     4  11  18  28  46  70  96 125 158 193 228 272
#     4   8  13  23  38  61  91 123 151 182 228 281
#     4   9  14  23  41  66  93 119 151 189 226 271
#
# _framework density 30.493673999999999
#
# number of rings (size 3 to 8) (size 9 to 14) (size 15 to 20)
#    0.000    3.000    0.000    7.000    0.000    0.000 
#    0.000    0.000    0.000    0.000    0.000   49.000 
#    0.000   12.000    0.000    0.000    0.000    0.000 
#
# Total GULP energy -134336.161899 kJ/mol
# GULP energy per Si atom -5597.340079 kJ/mol
# Density = 3.042427 g / cm^3
# Si number density = 30.493674 Si / 1000 Ang^3
#
#
#
# Elastic Constant Matrix: (Units=GPa)
#
#
# Indices 1 2 3 4 5 6 
#
# 1 148.7000 51.8795 102.5251 0.0000 -75.4277 0.0000
# 2 51.8795 69.8276 78.3008 0.0000 -9.8300 0.0000
# 3 102.5251 78.3008 284.2405 0.0000 -65.4074 0.0000
# 4 0.0000 0.0000 0.0000 54.2466 0.0000 10.0000
# 5 -75.4277 -9.8300 -65.4074 0.0000 88.2321 0.0000
# 6 0.0000 0.0000 0.0000 10.0000 0.0000 53.4020
#
#
#
# Elastic Compliance Matrix: (Units=1/GPa)
#
#
# Indices 1 2 3 4 5 6 
#
# 1 0.017637 -0.010966 -0.000184 0.000000 0.013719 0.000000
# 2 -0.010966 0.027942 -0.006249 0.000000 -0.010894 0.000000
# 3 -0.000184 -0.006249 0.006160 0.000000 0.003713 0.000000
# 4 0.000000 0.000000 0.000000 0.019093 0.000000 -0.003575
# 5 0.013719 -0.010894 0.003713 0.000000 0.024601 0.000000
# 6 0.000000 0.000000 0.000000 -0.003575 0.000000 0.019395
#
#
# Mechanical properties :
#
#
# Convention : Reuss Voigt Hill
#
# Bulk Modulus (GPa) = 59.02548 107.57544 83.30046
# Shear Modulus (GPa) = 32.20156 57.18033 44.69095
#
# Velocity S-wave (km/s) = 3.25315 4.33500 3.83244
# Velocity P-wave (km/s) = 5.78872 7.77244 6.85274
#
# Compressibility (1/GPa) = 0.01694184
#
# Stress axis : x y z
#
# Youngs Moduli (GPa) = 56.70058 35.78898 162.33228
#
# Poissons Ratio (x) = 0.39246 0.02981
# Poissons Ratio (y) = 0.62178 1.01433
# Poissons Ratio (z) = 0.01041 0.22363
#
# Static dielectric constant tensor:
#      x y z
#    x 2.481100 0.000000 0.018320 
#    y 0.000000 2.547050 0.000000 
#    z 0.018320 0.000000 2.221270 
# 
# From -- ./inp_files/160501.got.cif
#   From: 2010.05.17/outbox.cif.g08.bks.cpg/sg15_81_cif.got.tgz:160501.got - 2010.06.03 18:47:42.
