data_PCOD9261614
_publ_section_title
;
Structure prediction by ZEFSAII (Michael W. Deem and Ramdas Pophale) SiO2 
 PCOD9261614
Probable space group: C 2/C
;
_chemical_formula_sum "Si O2"
_cell_formula_units_Z 64
_cell_length_a 21.083814
_cell_length_b 21.789146
_cell_length_c 5.608914
_cell_angle_alpha 90.000000
_cell_angle_beta 115.558246
_cell_angle_gamma 90.000000
_cell_volume 2324.585669
_symmetry_space_group_name_H-M "C 2/C"
_symmetry_group_IT_number 15
_symmetry_cell_setting 'monoclinic'
loop_
_space_group_symop_operation_xyz
x,y,z
-x,y,1/2-z
-x,-y,-z
x,-y,1/2+z
1/2+x,1/2+y,z
1/2-x,1/2+y,1/2-z
1/2-x,1/2-y,-z
1/2+x,1/2-y,1/2+z
loop_
_atom_site_type_symbol
_atom_site_label
_atom_site_fract_x
_atom_site_fract_y
_atom_site_fract_z
Si Si1 0.731444 0.819025 0.897474
Si Si2 0.085685 0.031065 0.877397
Si Si3 0.905359 0.400651 0.839852
Si Si4 0.469907 0.191311 0.951240
Si Si5 0.220422 0.123310 0.523062
Si Si6 0.582567 0.327098 0.381387
Si Si7 0.419549 0.325669 0.626909
Si Si8 0.134128 0.415241 0.231733
O O1 0.652720 0.845246 0.742501
O O2 0.767061 0.834833 0.697064
O O3 0.750000 0.750000 0.000000
O O4 0.757975 0.852428 0.180144
O O5 0.109481 0.102504 0.911423
O O6 0.000000 0.027942 0.750000
O O7 0.108943 0.000891 0.663447
O O8 0.888477 0.434359 0.567483
O O9 0.980582 0.369788 0.963618
O O10 0.898176 0.436634 0.073152
O O11 0.500000 0.219279 0.250000
O O12 0.500000 0.221435 0.750000
O O13 0.393395 0.158034 0.820917
O O14 0.136510 0.120410 0.419623
O O15 0.282167 0.074084 0.594018
O O16 0.500000 0.340127 0.250000
O O17 0.591632 0.288844 0.642667
O O18 0.600487 0.297251 0.158210
O O19 0.500000 0.349029 0.750000
#
# Coordination Sequence:
#
# PCOD9261614 Si02
#       8
#     8   8   8   8   8   8   8   8
#     4  10  19  31  46  62  78  97 121 156 204 256
#     4   9  15  23  37  58  85 112 135 166 208 249
#     4   8  14  23  37  55  73  92 110 133 176 228
#     4   8  12  20  34  52  72  89 105 130 167 212
#     4  10  19  31  46  60  75  98 129 163 206 248
#     4   9  17  28  42  62  83 108 143 175 210 248
#     4  10  19  31  46  60  79 108 142 181 213 245
#     4   8  14  23  37  55  71  88 112 142 178 220
#
# _framework density 27.531787999999999
#
# number of rings (size 3 to 8) (size 9 to 14) (size 15 to 20)
#    0.000    3.000    0.000    1.875    0.000    3.000 
#    0.000    0.000    0.000   11.250    0.000    0.000 
#    0.000    0.000    0.000    0.000    0.000    0.000 
#
# Total GULP energy -178227.676391 kJ/mol
# GULP energy per Si atom -5569.614887 kJ/mol
# Density = 2.746912 g / cm^3
# Si number density = 27.531788 Si / 1000 Ang^3
#
#
#
# Elastic Constant Matrix: (Units=GPa)
#
#
# Indices 1 2 3 4 5 6 
#
# 1 131.2461 -8.4818 36.8115 0.0000 -6.4225 0.0000
# 2 -8.4818 83.6215 35.9556 0.0000 -10.3923 0.0000
# 3 36.8115 35.9556 253.6154 0.0000 -76.4140 0.0000
# 4 0.0000 0.0000 0.0000 1878.6040 0.0000 -592.4614
# 5 -6.4225 -10.3923 -76.4140 0.0000 68.6176 0.0000
# 6 0.0000 0.0000 0.0000 -592.4614 0.0000 233.7471
#
#
#
# Elastic Compliance Matrix: (Units=1/GPa)
#
#
# Indices 1 2 3 4 5 6 
#
# 1 0.008129 0.001423 -0.001637 0.000000 -0.000846 0.000000
# 2 0.001423 0.012985 -0.002129 0.000000 -0.000271 0.000000
# 3 -0.001637 -0.002129 0.006530 0.000000 0.006796 0.000000
# 4 0.000000 0.000000 0.000000 0.002653 0.000000 0.006724
# 5 -0.000846 -0.000271 0.006796 0.000000 0.022022 0.000000
# 6 0.000000 0.000000 0.000000 0.006724 0.000000 0.021322
#
#
# Mechanical properties :
#
#
# Convention : Reuss Voigt Hill
#
# Bulk Modulus (GPa) = 43.55712 66.33930 54.94821
# Shear Modulus (GPa) = 58.15408 463.14026 260.64717
#
# Velocity S-wave (km/s) = 4.60091 12.98404 9.74048
# Velocity P-wave (km/s) = 6.63924 15.77746 12.10388
#
# Compressibility (1/GPa) = 0.02295836
#
# Stress axis : x y z
#
# Youngs Moduli (GPa) = 123.01861 77.01334 153.13611
#
# Poissons Ratio (x) = -0.10959 0.25062
# Poissons Ratio (y) = -0.17506 0.32605
# Poissons Ratio (z) = 0.20133 0.16397
#
# Static dielectric constant tensor:
#      x y z
#    x 2.343940 0.000000 0.119440 
#    y 0.000000 2.203320 0.000000 
#    z 0.119440 0.000000 2.383760 
# 
# From -- ./inp_files/14662.got.cif
#   From: 2010.05.17/outbox.cif.g08.bks.cpg/sg15_8_cif.got.tgz:14662.got - 2010.06.03 18:47:42.
