data_PCOD9261352
_publ_section_title
;
Structure prediction by ZEFSAII (Michael W. Deem and Ramdas Pophale) SiO2 
 PCOD9261352
Probable space group: C 2/C
;
_chemical_formula_sum "Si O2"
_cell_formula_units_Z 64
_cell_length_a 26.686984
_cell_length_b 17.241620
_cell_length_c 8.402481
_cell_angle_alpha 90.000000
_cell_angle_beta 96.989214
_cell_angle_gamma 90.000000
_cell_volume 3837.477516
_symmetry_space_group_name_H-M "C 2/C"
_symmetry_group_IT_number 15
_symmetry_cell_setting 'monoclinic'
loop_
_space_group_symop_operation_xyz
x,y,z
-x,y,1/2-z
-x,-y,-z
x,-y,1/2+z
1/2+x,1/2+y,z
1/2-x,1/2+y,1/2-z
1/2-x,1/2-y,-z
1/2+x,1/2-y,1/2+z
loop_
_atom_site_type_symbol
_atom_site_label
_atom_site_fract_x
_atom_site_fract_y
_atom_site_fract_z
Si Si1 0.807320 0.843019 0.624533
Si Si2 0.680584 0.730159 0.855430
Si Si3 0.394252 0.559424 0.309704
Si Si4 0.681480 0.578933 0.705142
Si Si5 0.036666 0.956042 0.391978
Si Si6 0.712521 0.042931 0.603095
Si Si7 0.796439 0.610162 0.253707
Si Si8 0.701745 0.204697 0.695748
O O1 0.858790 0.877428 0.714332
O O2 0.759609 0.865837 0.713579
O O3 0.807201 0.750044 0.644279
O O4 0.799902 0.879875 0.449158
O O5 0.655617 0.649691 0.792438
O O6 0.672129 0.810389 0.755936
O O7 0.739631 0.709859 0.839122
O O8 0.674563 0.751263 0.038263
O O9 0.357062 0.489451 0.348307
O O10 0.431371 0.519413 0.195667
O O11 0.425294 0.587866 0.475115
O O12 0.728520 0.542252 0.819642
O O13 0.000000 0.914438 0.250000
O O14 0.000000 0.000000 0.500000
O O15 0.708700 0.070464 0.420871
O O16 0.688976 0.114265 0.693665
O O17 0.688198 0.959646 0.624703
#
# Coordination Sequence:
#
# PCOD9261352 Si02
#       8
#     8   8   8   8   8   8   8   8
#     4  11  20  27  41  64  82 105 145 185 215 243
#     4   8  17  30  40  53  81 111 137 181 223 246
#     4  11  20  30  46  68  82 108 144 182 208 246
#     4  11  20  27  41  64  82 105 145 185 215 243
#     4   9  20  36  48  60  84 108 134 168 218 272
#     4  10  19  29  41  57  81 113 148 183 218 250
#     4  10  19  29  41  57  81 113 148 183 218 250
#     4   8  17  30  40  53  81 111 137 181 223 246
#
# _framework density 16.677622
#
# number of rings (size 3 to 8) (size 9 to 14) (size 15 to 20)
#    0.000    2.250    2.500    3.000    3.500    5.500 
#    0.000    0.000    0.000    0.000    0.000    0.000 
#    0.000    0.000    0.000    0.000    0.000   25.000 
#
# Total GULP energy -178267.750604 kJ/mol
# GULP energy per Si atom -5570.867206 kJ/mol
# Density = 1.663966 g / cm^3
# Si number density = 16.677622 Si / 1000 Ang^3
#
#
#
# Elastic Constant Matrix: (Units=GPa)
#
#
# Indices 1 2 3 4 5 6 
#
# 1 21.4835 -11.0395 1.6806 0.0000 -5.3061 0.0000
# 2 -11.0395 51.0483 -15.3201 0.0000 -2.0787 0.0000
# 3 1.6806 -15.3201 47.8795 0.0000 5.5333 0.0000
# 4 0.0000 0.0000 0.0000 24.3518 0.0000 -5.5949
# 5 -5.3061 -2.0787 5.5333 0.0000 24.5234 0.0000
# 6 0.0000 0.0000 0.0000 -5.5949 0.0000 5.5148
#
#
#
# Elastic Compliance Matrix: (Units=1/GPa)
#
#
# Indices 1 2 3 4 5 6 
#
# 1 0.056385 0.012920 0.000635 0.000000 0.013152 0.000000
# 2 0.012920 0.024632 0.007048 0.000000 0.003293 0.000000
# 3 0.000635 0.007048 0.023650 0.000000 -0.004602 0.000000
# 4 0.000000 0.000000 0.000000 0.053546 0.000000 0.054323
# 5 0.013152 0.003293 -0.004602 0.000000 0.044940 0.000000
# 6 0.000000 0.000000 0.000000 0.054323 0.000000 0.236441
#
#
# Mechanical properties :
#
#
# Convention : Reuss Voigt Hill
#
# Bulk Modulus (GPa) = 6.85532 7.89479 7.37505
# Shear Modulus (GPa) = 11.18532 20.55069 15.86801
#
# Velocity S-wave (km/s) = 2.59256 3.51412 3.08791
# Velocity P-wave (km/s) = 3.61679 4.60537 4.14069
#
# Compressibility (1/GPa) = 0.14587218
#
# Stress axis : x y z
#
# Youngs Moduli (GPa) = 17.73525 40.59685 42.28277
#
# Poissons Ratio (x) = -0.52450 -0.02685
# Poissons Ratio (y) = -0.22913 -0.29799
# Poissons Ratio (z) = -0.01126 -0.28611
#
# Static dielectric constant tensor:
#      x y z
#    x 1.551800 0.000000 0.001000 
#    y 0.000000 1.636510 0.000000 
#    z 0.001000 0.000000 1.648780 
# 
# From -- ./inp_files/70321.got.cif
#   From: 2010.05.17/outbox.cif.g08.bks.cpg/sg15_36_cif.got.tgz:70321.got - 2010.06.03 18:47:42.
