data_PCOD9261990
_publ_section_title
;
Structure prediction by ZEFSAII (Michael W. Deem and Ramdas Pophale) SiO2 
 PCOD9261990
Probable space group: C 2/C
;
_chemical_formula_sum "Si O2"
_cell_formula_units_Z 52
_cell_length_a 25.271086
_cell_length_b 17.964704
_cell_length_c 5.680253
_cell_angle_alpha 90.000000
_cell_angle_beta 118.641841
_cell_angle_gamma 90.000000
_cell_volume 2263.209098
_symmetry_space_group_name_H-M "C 2/C"
_symmetry_group_IT_number 15
_symmetry_cell_setting 'monoclinic'
loop_
_space_group_symop_operation_xyz
x,y,z
-x,y,1/2-z
-x,-y,-z
x,-y,1/2+z
1/2+x,1/2+y,z
1/2-x,1/2+y,1/2-z
1/2-x,1/2-y,-z
1/2+x,1/2-y,1/2+z
loop_
_atom_site_type_symbol
_atom_site_label
_atom_site_fract_x
_atom_site_fract_y
_atom_site_fract_z
Si Si1 0.615099 0.684939 0.264895
Si Si2 0.141073 0.665272 0.064571
Si Si3 0.722899 0.031592 0.658285
Si Si4 0.057849 0.294167 0.762946
Si Si5 0.255232 0.660859 0.027552
Si Si6 0.500000 0.314562 0.750000
Si Si7 0.415366 0.023709 0.698843
O O1 0.637540 0.747183 0.500100
O O2 0.673997 0.642681 0.300394
O O3 0.557525 0.644211 0.258090
O O4 0.589882 0.737269 0.006202
O O5 0.109700 0.658211 0.250253
O O6 0.208399 0.641047 0.136920
O O7 0.097825 0.612564 0.814382
O O8 0.747823 0.005550 0.456920
O O9 0.652361 0.010641 0.482016
O O10 0.732453 0.117994 0.746347
O O11 0.026484 0.241044 0.502081
O O12 0.000000 0.335220 0.750000
O O13 0.250000 0.750000 0.000000
O O14 0.442427 0.993601 0.999054
#
# Coordination Sequence:
#
# PCOD9261990 Si02
#       7
#     8   8   8   8   8   4   8
#     4   9  19  32  53  81 115 140 188 234 299 336
#     4  10  19  32  51  80 111 147 183 236 285 344
#     4  10  20  39  56  76 118 170 200 226 288 370
#     4   9  18  33  54  74 106 148 188 237 291 354
#     4  10  20  35  52  92 122 145 193 248 299 342
#     4   8  16  36  50  76 104 150 184 226 296 356
#     4  10  20  33  54  74 105 157 200 223 276 349
#
# _framework density 22.976224999999999
#
# number of rings (size 3 to 8) (size 9 to 14) (size 15 to 20)
#    0.000    2.462    3.077    0.000    2.154    1.846 
#    8.308    0.000    0.000    0.923    0.000    1.077 
#    0.000    0.000    0.000    0.000    0.000    0.000 
#
# Total GULP energy -144828.689583 kJ/mol
# GULP energy per Si atom -5570.334215 kJ/mol
# Density = 2.292393 g / cm^3
# Si number density = 22.976225 Si / 1000 Ang^3
#
#
#
# Elastic Constant Matrix: (Units=GPa)
#
#
# Indices 1 2 3 4 5 6 
#
# 1 218.7576 -0.8195 60.8933 0.0000 -5.9696 0.0000
# 2 -0.8195 54.5058 30.7929 0.0000 -0.2047 0.0000
# 3 60.8933 30.7929 94.8664 0.0000 -13.1127 0.0000
# 4 0.0000 0.0000 0.0000 25.5260 0.0000 1.8792
# 5 -5.9696 -0.2047 -13.1127 0.0000 32.1931 0.0000
# 6 0.0000 0.0000 0.0000 1.8792 0.0000 1.9329
#
#
#
# Elastic Compliance Matrix: (Units=1/GPa)
#
#
# Indices 1 2 3 4 5 6 
#
# 1 0.005899 0.002805 -0.004814 0.000000 -0.000849 0.000000
# 2 0.002805 0.024077 -0.010091 0.000000 -0.003437 0.000000
# 3 -0.004814 -0.010091 0.017775 0.000000 0.006283 0.000000
# 4 0.000000 0.000000 0.000000 0.042196 0.000000 -0.041025
# 5 -0.000849 -0.003437 0.006283 0.000000 0.033442 0.000000
# 6 0.000000 0.000000 0.000000 -0.041025 0.000000 0.557254
#
#
# Mechanical properties :
#
#
# Convention : Reuss Voigt Hill
#
# Bulk Modulus (GPa) = 42.46096 61.09590 51.77843
# Shear Modulus (GPa) = 7.01564 30.41460 18.71512
#
# Velocity S-wave (km/s) = 1.74930 3.64227 2.85712
# Velocity P-wave (km/s) = 4.75401 6.65859 5.78522
#
# Compressibility (1/GPa) = 0.02355105
#
# Stress axis : x y z
#
# Youngs Moduli (GPa) = 169.52887 41.53386 56.25800
#
# Poissons Ratio (x) = -0.11652 0.27084
# Poissons Ratio (y) = -0.47558 0.56769
# Poissons Ratio (z) = 0.81616 0.41911
#
# Static dielectric constant tensor:
#      x y z
#    x 1.983420 0.000000 -0.060620 
#    y 0.000000 1.857150 0.000000 
#    z -0.060620 0.000000 1.929610 
# 
# From -- ./inp_files/17115.got.cif
#   From: 2010.05.17/outbox.cif.g08.bks.cpg/sg15_9_cif.got.tgz:17115.got - 2010.06.03 18:47:42.
