data_PCOD9261603
_publ_section_title
;
Structure prediction by ZEFSAII (Michael W. Deem and Ramdas Pophale) SiO2 
 PCOD9261603
Probable space group: C 2/C
;
_chemical_formula_sum "Si O2"
_cell_formula_units_Z 40
_cell_length_a 24.616060
_cell_length_b 17.003697
_cell_length_c 7.998860
_cell_angle_alpha 90.000000
_cell_angle_beta 34.263903
_cell_angle_gamma 90.000000
_cell_volume 1884.962095
_symmetry_space_group_name_H-M "C 2/C"
_symmetry_group_IT_number 15
_symmetry_cell_setting 'monoclinic'
loop_
_space_group_symop_operation_xyz
x,y,z
-x,y,1/2-z
-x,-y,-z
x,-y,1/2+z
1/2+x,1/2+y,z
1/2-x,1/2+y,1/2-z
1/2-x,1/2-y,-z
1/2+x,1/2-y,1/2+z
loop_
_atom_site_type_symbol
_atom_site_label
_atom_site_fract_x
_atom_site_fract_y
_atom_site_fract_z
Si Si1 0.588760 0.923434 0.153055
Si Si2 0.175120 0.176320 0.185337
Si Si3 0.856934 0.415607 0.124391
Si Si4 0.366988 0.239756 0.396305
Si Si5 0.359138 0.252806 0.050724
O O1 0.500000 0.921688 0.250000
O O2 0.574771 0.926353 0.387701
O O3 0.639262 0.839561 0.996612
O O4 0.646144 0.002502 0.964174
O O5 0.123250 0.189469 0.494711
O O6 0.250000 0.250000 0.000000
O O7 0.248615 0.104980 0.967279
O O8 0.110047 0.196034 0.189265
O O9 0.893624 0.341998 0.919607
O O10 0.408070 0.257994 0.108204
O O11 0.253346 0.223872 0.648859
#
# Coordination Sequence:
#
# PCOD9261603 Si02
#       5
#     8   8   8   8   8
#     4  12  21  30  41  64 108 137 155 178 220 295
#     4   8  14  31  49  59  79 105 164 213 226 253
#     4  10  19  31  40  63  88 129 166 187 227 263
#     4   9  15  30  53  59  76 109 169 214 226 252
#     4   9  16  29  48  67  76 119 163 191 239 258
#
# _framework density 21.220586000000001
#
# number of rings (size 3 to 8) (size 9 to 14) (size 15 to 20)
#    0.000    2.800    6.000    1.800    0.000    0.000 
#    0.000    0.000    0.000    0.000    0.000    0.000 
#    0.000    0.000    0.000  288.000    4.800   14.800 
#
# Total GULP energy -111370.272828 kJ/mol
# GULP energy per Si atom -5568.513641 kJ/mol
# Density = 2.117229 g / cm^3
# Si number density = 21.220586 Si / 1000 Ang^3
#
#
#
# Elastic Constant Matrix: (Units=GPa)
#
#
# Indices 1 2 3 4 5 6 
#
# 1 171.4487 36.3927 43.1146 0.0000 43.0176 0.0000
# 2 36.3927 81.7767 27.8143 0.0000 -3.0734 0.0000
# 3 43.1146 27.8143 37.7314 0.0000 17.0844 0.0000
# 4 0.0000 0.0000 0.0000 19.2286 0.0000 4.0337
# 5 43.0176 -3.0734 17.0844 0.0000 46.1951 0.0000
# 6 0.0000 0.0000 0.0000 4.0337 0.0000 25.6943
#
#
#
# Elastic Compliance Matrix: (Units=1/GPa)
#
#
# Indices 1 2 3 4 5 6 
#
# 1 0.009600 -0.002480 -0.006028 0.000000 -0.006875 0.000000
# 2 -0.002480 0.018859 -0.015233 0.000000 0.009198 0.000000
# 3 -0.006028 -0.015233 0.051094 0.000000 -0.014296 0.000000
# 4 0.000000 0.000000 0.000000 0.053777 0.000000 -0.008442
# 5 -0.006875 0.009198 -0.014296 0.000000 0.033949 0.000000
# 6 0.000000 0.000000 0.000000 -0.008442 0.000000 0.040244
#
#
# Mechanical properties :
#
#
# Convention : Reuss Voigt Hill
#
# Bulk Modulus (GPa) = 31.18185 56.17778 43.67981
# Shear Modulus (GPa) = 18.81854 30.46596 24.64225
#
# Velocity S-wave (km/s) = 2.98116 3.79315 3.41140
# Velocity P-wave (km/s) = 5.15517 6.76126 6.01209
#
# Compressibility (1/GPa) = 0.03206994
#
# Stress axis : x y z
#
# Youngs Moduli (GPa) = 104.16487 53.02520 19.57196
#
# Poissons Ratio (x) = 0.13152 0.11799
# Poissons Ratio (y) = 0.25836 0.29813
# Poissons Ratio (z) = 0.62794 0.80772
#
# Static dielectric constant tensor:
#      x y z
#    x 1.905590 0.000000 0.078000 
#    y 0.000000 1.761120 0.000000 
#    z 0.078000 0.000000 1.925320 
# 
# From -- ./inp_files/61379.got.cif
#   From: 2010.05.17/outbox.cif.g08.bks.cpg/sg15_31_cif.got.tgz:61379.got - 2010.06.03 18:47:42.
