data_PCOD9261155
_publ_section_title
;
Structure prediction by ZEFSAII (Michael W. Deem and Ramdas Pophale) SiO2 
 PCOD9261155
Probable space group: C 2/C
;
_chemical_formula_sum "Si O2"
_cell_formula_units_Z 48
_cell_length_a 23.247748
_cell_length_b 10.057628
_cell_length_c 11.901201
_cell_angle_alpha 90.000000
_cell_angle_beta 43.737785
_cell_angle_gamma 90.000000
_cell_volume 1923.848603
_symmetry_space_group_name_H-M "C 2/C"
_symmetry_group_IT_number 15
_symmetry_cell_setting 'monoclinic'
loop_
_space_group_symop_operation_xyz
x,y,z
-x,y,1/2-z
-x,-y,-z
x,-y,1/2+z
1/2+x,1/2+y,z
1/2-x,1/2+y,1/2-z
1/2-x,1/2-y,-z
1/2+x,1/2-y,1/2+z
loop_
_atom_site_type_symbol
_atom_site_label
_atom_site_fract_x
_atom_site_fract_y
_atom_site_fract_z
Si Si1 0.341778 0.862682 0.424499
Si Si2 0.892467 0.456778 0.043664
Si Si3 0.774502 0.905807 0.108481
Si Si4 0.594316 0.590546 0.661381
Si Si5 0.033833 0.831803 0.829897
Si Si6 0.059049 0.691295 0.357401
O O1 0.391060 0.967818 0.427259
O O2 0.267756 0.921379 0.455572
O O3 0.312486 0.742182 0.546454
O O4 0.401918 0.789435 0.251577
O O5 0.798663 0.407104 0.197633
O O6 0.905549 0.566703 0.124094
O O7 0.970033 0.357381 0.934917
O O8 0.842581 0.023994 0.017161
O O9 0.500000 0.607006 0.750000
O O10 0.582101 0.469870 0.768006
O O11 0.615368 0.731440 0.687610
O O12 0.000000 0.823498 0.750000
O O13 0.963580 0.803330 0.018160
#
# Coordination Sequence:
#
# PCOD9261155 Si02
#       6
#     8   8   8   8   8   8
#     4  10  21  41  65  90 128 174 216 264 320 398
#     4  11  24  39  67  98 132 174 213 264 331 396
#     4  10  23  43  63  94 129 172 221 268 329 381
#     4  10  24  42  64  95 126 169 217 274 322 384
#     4  10  18  40  68  88 124 170 218 262 314 389
#     4  11  23  40  64 100 130 167 214 263 329 391
#
# _framework density 24.949988000000001
#
# number of rings (size 3 to 8) (size 9 to 14) (size 15 to 20)
#    0.000    1.667    3.333    0.500    0.000    4.667 
#    0.000    0.000    0.000    0.000    0.000    0.000 
#    0.000    0.000    0.000    0.000    0.000    0.000 
#
# Total GULP energy -134208.666614 kJ/mol
# GULP energy per Si atom -5592.027776 kJ/mol
# Density = 2.489320 g / cm^3
# Si number density = 24.949988 Si / 1000 Ang^3
#
#
#
# Elastic Constant Matrix: (Units=GPa)
#
#
# Indices 1 2 3 4 5 6 
#
# 1 67.1257 20.2184 -2.3301 0.0000 -8.9089 0.0000
# 2 20.2184 91.6677 24.8778 0.0000 9.3282 0.0000
# 3 -2.3301 24.8778 70.6012 0.0000 -9.4519 0.0000
# 4 0.0000 0.0000 0.0000 32.0483 0.0000 7.8861
# 5 -8.9089 9.3282 -9.4519 0.0000 20.3134 0.0000
# 6 0.0000 0.0000 0.0000 7.8861 0.0000 22.4852
#
#
#
# Elastic Compliance Matrix: (Units=1/GPa)
#
#
# Indices 1 2 3 4 5 6 
#
# 1 0.018984 -0.006924 0.004913 0.000000 0.013791 0.000000
# 2 -0.006924 0.015950 -0.007717 0.000000 -0.013952 0.000000
# 3 0.004913 -0.007717 0.018991 0.000000 0.014535 0.000000
# 4 0.000000 0.000000 0.000000 0.034150 0.000000 -0.011977
# 5 0.013791 -0.013952 0.014535 0.000000 0.068447 0.000000
# 6 0.000000 0.000000 0.000000 -0.011977 0.000000 0.048674
#
#
# Mechanical properties :
#
#
# Convention : Reuss Voigt Hill
#
# Bulk Modulus (GPa) = 29.01123 34.99185 32.00154
# Shear Modulus (GPa) = 21.17369 27.41127 24.29248
#
# Velocity S-wave (km/s) = 2.91631 3.31818 3.12372
# Velocity P-wave (km/s) = 4.79508 5.36057 5.08569
#
# Compressibility (1/GPa) = 0.03446942
#
# Stress axis : x y z
#
# Youngs Moduli (GPa) = 52.67658 62.69572 52.65596
#
# Poissons Ratio (x) = 0.43409 -0.25868
# Poissons Ratio (y) = 0.36472 0.40633
# Poissons Ratio (z) = -0.25878 0.48380
#
# Static dielectric constant tensor:
#      x y z
#    x 2.013790 0.000000 -0.024260 
#    y 0.000000 1.979140 0.000000 
#    z -0.024260 0.000000 2.011280 
# 
# From -- ./inp_files/176886.got.cif
#   From: 2010.05.17/outbox.cif.g08.bks.cpg/sg15_89_cif.got.tgz:176886.got - 2010.06.03 18:47:42.
