data_PCOD9261667
_publ_section_title
;
Structure prediction by ZEFSAII (Michael W. Deem and Ramdas Pophale) SiO2 
 PCOD9261667
Probable space group: C 2/C
;
_chemical_formula_sum "Si O2"
_cell_formula_units_Z 52
_cell_length_a 14.182362
_cell_length_b 25.144473
_cell_length_c 9.223501
_cell_angle_alpha 90.000000
_cell_angle_beta 134.501926
_cell_angle_gamma 90.000000
_cell_volume 2345.927630
_symmetry_space_group_name_H-M "C 2/C"
_symmetry_group_IT_number 15
_symmetry_cell_setting 'monoclinic'
loop_
_space_group_symop_operation_xyz
x,y,z
-x,y,1/2-z
-x,-y,-z
x,-y,1/2+z
1/2+x,1/2+y,z
1/2-x,1/2+y,1/2-z
1/2-x,1/2-y,-z
1/2+x,1/2-y,1/2+z
loop_
_atom_site_type_symbol
_atom_site_label
_atom_site_fract_x
_atom_site_fract_y
_atom_site_fract_z
Si Si1 0.651365 0.184250 0.920104
Si Si2 0.928454 0.555735 0.442882
Si Si3 0.383969 0.633332 0.340323
Si Si4 0.696200 0.417605 0.468059
Si Si5 0.199203 0.962077 0.925269
Si Si6 0.500000 0.711929 0.250000
Si Si7 0.295541 0.889616 0.271848
O O1 0.500000 0.162713 0.750000
O O2 0.620782 0.246766 0.895283
O O3 0.717645 0.161208 0.846221
O O4 0.739810 0.159562 0.144364
O O5 0.825509 0.568837 0.204740
O O6 0.839817 0.547115 0.492333
O O7 0.000000 0.500000 0.500000
O O8 0.049221 0.596492 0.558592
O O9 0.391994 0.616592 0.515622
O O10 0.480665 0.675326 0.369798
O O11 0.393925 0.578072 0.263153
O O12 0.652866 0.477309 0.376987
O O13 0.736389 0.386417 0.367402
O O14 0.223848 0.938262 0.110658
#
# Coordination Sequence:
#
# PCOD9261667 Si02
#       7
#     8   8   8   8   8   4   8
#     4   9  20  36  60  80 105 135 187 233 280 320
#     4  11  18  26  43  76 120 154 175 201 268 344
#     4  10  21  39  59  82 108 145 188 228 277 325
#     4  11  20  29  49  80 119 145 170 221 277 340
#     4  10  19  31  48  77 115 150 176 210 261 342
#     4  10  22  42  64  74  96 148 208 242 256 318
#     4  11  18  28  45  80 113 147 171 215 274 339
#
# _framework density 22.166073000000001
#
# number of rings (size 3 to 8) (size 9 to 14) (size 15 to 20)
#    0.462    1.231    3.077    5.077    0.000    0.000 
#    0.000    1.538    0.000    7.385    0.000    0.000 
#    0.000    0.000    0.000    0.000    0.000    0.000 
#
# Total GULP energy -145183.697965 kJ/mol
# GULP energy per Si atom -5583.988383 kJ/mol
# Density = 2.211562 g / cm^3
# Si number density = 22.166073 Si / 1000 Ang^3
#
#
#
# Elastic Constant Matrix: (Units=GPa)
#
#
# Indices 1 2 3 4 5 6 
#
# 1 140.7392 57.2435 46.5606 0.0000 -23.4503 0.0000
# 2 57.2435 154.2418 25.6754 0.0000 -23.3487 0.0000
# 3 46.5606 25.6754 75.7615 0.0000 -26.3613 0.0000
# 4 0.0000 0.0000 0.0000 6.3064 0.0000 -5.3056
# 5 -23.4503 -23.3487 -26.3613 0.0000 55.2142 0.0000
# 6 0.0000 0.0000 0.0000 -5.3056 0.0000 27.4887
#
#
#
# Elastic Compliance Matrix: (Units=1/GPa)
#
#
# Indices 1 2 3 4 5 6 
#
# 1 0.009991 -0.002777 -0.004954 0.000000 0.000704 0.000000
# 2 -0.002777 0.007863 -0.000254 0.000000 0.002024 0.000000
# 3 -0.004954 -0.000254 0.018661 0.000000 0.006698 0.000000
# 4 0.000000 0.000000 0.000000 0.189308 0.000000 0.036538
# 5 0.000704 0.002024 0.006698 0.000000 0.022464 0.000000
# 6 0.000000 0.000000 0.000000 0.036538 0.000000 0.043431
#
#
# Mechanical properties :
#
#
# Convention : Reuss Voigt Hill
#
# Bulk Modulus (GPa) = 48.67436 69.96684 59.32060
# Shear Modulus (GPa) = 15.89652 33.88607 24.89130
#
# Velocity S-wave (km/s) = 2.68088 3.91415 3.35467
# Velocity P-wave (km/s) = 5.62045 7.21531 6.46723
#
# Compressibility (1/GPa) = 0.02054470
#
# Stress axis : x y z
#
# Youngs Moduli (GPa) = 100.09009 127.18558 53.58904
#
# Poissons Ratio (x) = 0.35316 0.26549
# Poissons Ratio (y) = 0.27792 0.01360
# Poissons Ratio (z) = 0.49587 0.03227
#
# Static dielectric constant tensor:
#      x y z
#    x 1.892600 0.000000 0.049070 
#    y 0.000000 1.827580 0.000000 
#    z 0.049070 0.000000 1.819740 
# 
# From -- ./inp_files/43233.got.cif
#   From: 2010.05.17/outbox.cif.g08.bks.cpg/sg15_22_cif.got.tgz:43233.got - 2010.06.03 18:47:42.
