data_PCOD9261802
_publ_section_title
;
Structure prediction by ZEFSAII (Michael W. Deem and Ramdas Pophale) SiO2 
 PCOD9261802
Probable space group: C 2/C
;
_chemical_formula_sum "Si O2"
_cell_formula_units_Z 64
_cell_length_a 5.419737
_cell_length_b 18.665987
_cell_length_c 31.684976
_cell_angle_alpha 90.000000
_cell_angle_beta 85.995668
_cell_angle_gamma 90.000000
_cell_volume 3197.577257
_symmetry_space_group_name_H-M "C 2/C"
_symmetry_group_IT_number 15
_symmetry_cell_setting 'monoclinic'
loop_
_space_group_symop_operation_xyz
x,y,z
-x,y,1/2-z
-x,-y,-z
x,-y,1/2+z
1/2+x,1/2+y,z
1/2-x,1/2+y,1/2-z
1/2-x,1/2-y,-z
1/2+x,1/2-y,1/2+z
loop_
_atom_site_type_symbol
_atom_site_label
_atom_site_fract_x
_atom_site_fract_y
_atom_site_fract_z
Si Si1 0.016991 0.024826 0.201370
Si Si2 0.984991 0.850423 0.298974
Si Si3 0.033846 0.525417 0.153567
Si Si4 0.438283 0.807359 0.980470
Si Si5 0.463691 0.148632 0.847729
Si Si6 0.240794 0.187111 0.939224
Si Si7 0.028257 0.442778 0.556776
Si Si8 0.680904 0.435637 0.487813
O O1 0.016896 0.937586 0.201421
O O2 0.000000 0.048439 0.250000
O O3 0.280260 0.047152 0.179412
O O4 0.779596 0.046692 0.176460
O O5 0.730874 0.828779 0.325881
O O6 0.000000 0.826934 0.250000
O O7 0.234731 0.829310 0.320444
O O8 0.035158 0.438349 0.150654
O O9 0.026374 0.555634 0.106578
O O10 0.605251 0.762724 0.945252
O O11 0.306656 0.876167 0.961819
O O12 0.250000 0.750000 0.000000
O O13 0.590964 0.823579 0.021218
O O14 0.392211 0.176790 0.894965
O O15 0.066927 0.119401 0.954346
O O16 0.783123 0.418774 0.533990
O O17 0.100948 0.521448 0.539924
O O18 0.500000 0.500000 0.500000
#
# Coordination Sequence:
#
# PCOD9261802 Si02
#       8
#     8   8   8   8   8   8   8   8
#     4   9  18  32  51  78 117 151 175 221 290 349
#     4   9  18  31  50  80 116 147 174 224 292 351
#     4  10  19  32  52  84 113 144 187 231 278 347
#     4  10  22  39  54  71 113 154 196 235 282 338
#     4  10  19  31  54  80 113 145 186 230 281 347
#     4  10  21  36  52  81 105 152 198 231 282 341
#     4  10  21  34  50  83 107 146 192 236 281 333
#     4  10  20  33  54  75 112 147 182 236 293 333
#
# _framework density 20.015150999999999
#
# number of rings (size 3 to 8) (size 9 to 14) (size 15 to 20)
#    0.000    2.250    1.250    1.500    3.500    4.000 
#    0.000    0.000    0.000    0.000    0.000    3.500 
#    0.000    0.000    0.000    0.000    0.000    0.000 
#
# Total GULP energy -178154.928689 kJ/mol
# GULP energy per Si atom -5567.341522 kJ/mol
# Density = 1.996960 g / cm^3
# Si number density = 20.015151 Si / 1000 Ang^3
#
#
#
# Elastic Constant Matrix: (Units=GPa)
#
#
# Indices 1 2 3 4 5 6 
#
# 1 108.4777 2.5676 67.2921 0.0000 -2.8932 0.0000
# 2 2.5676 49.3543 18.8725 0.0000 -5.5976 0.0000
# 3 67.2921 18.8725 158.3268 0.0000 -7.8886 0.0000
# 4 0.0000 0.0000 0.0000 15.3078 0.0000 -5.5137
# 5 -2.8932 -5.5976 -7.8886 0.0000 28.4686 0.0000
# 6 0.0000 0.0000 0.0000 -5.5137 0.0000 9.2529
#
#
#
# Elastic Compliance Matrix: (Units=1/GPa)
#
#
# Indices 1 2 3 4 5 6 
#
# 1 0.012619 0.001465 -0.005536 0.000000 0.000036 0.000000
# 2 0.001465 0.021753 -0.003037 0.000000 0.003585 0.000000
# 3 -0.005536 -0.003037 0.009099 0.000000 0.001362 0.000000
# 4 0.000000 0.000000 0.000000 0.083179 0.000000 0.049565
# 5 0.000036 0.003585 0.001362 0.000000 0.036212 0.000000
# 6 0.000000 0.000000 0.000000 0.049565 0.000000 0.137609
#
#
# Mechanical properties :
#
#
# Convention : Reuss Voigt Hill
#
# Bulk Modulus (GPa) = 34.18293 54.84701 44.51497
# Shear Modulus (GPa) = 15.41122 25.76763 20.58943
#
# Velocity S-wave (km/s) = 2.77786 3.59194 3.21080
# Velocity P-wave (km/s) = 5.23491 6.68318 6.00288
#
# Compressibility (1/GPa) = 0.02925436
#
# Stress axis : x y z
#
# Youngs Moduli (GPa) = 79.24549 45.97009 109.90415
#
# Poissons Ratio (x) = -0.06733 0.60844
# Poissons Ratio (y) = -0.11606 0.33376
# Poissons Ratio (z) = 0.43871 0.13960
#
# Static dielectric constant tensor:
#      x y z
#    x 1.800640 0.000000 -0.016690 
#    y 0.000000 1.685980 0.000000 
#    z -0.016690 0.000000 1.680450 
# 
# From -- ./inp_files/305800.got.cif
#   From: 2010.05.17/outbox.cif.g08.bks.cpg/sg15_153_cif.got.tgz:305800.got - 2010.06.03 18:47:42.
