data_PCOD9261444
_publ_section_title
;
Structure prediction by ZEFSAII (Michael W. Deem and Ramdas Pophale) SiO2 
 PCOD9261444
Probable space group: C 2/C
;
_chemical_formula_sum "Si O2"
_cell_formula_units_Z 60
_cell_length_a 15.837063
_cell_length_b 23.456589
_cell_length_c 18.185508
_cell_angle_alpha 90.000000
_cell_angle_beta 28.042509
_cell_angle_gamma 90.000000
_cell_volume 3175.994071
_symmetry_space_group_name_H-M "C 2/C"
_symmetry_group_IT_number 15
_symmetry_cell_setting 'monoclinic'
loop_
_space_group_symop_operation_xyz
x,y,z
-x,y,1/2-z
-x,-y,-z
x,-y,1/2+z
1/2+x,1/2+y,z
1/2-x,1/2+y,1/2-z
1/2-x,1/2-y,-z
1/2+x,1/2-y,1/2+z
loop_
_atom_site_type_symbol
_atom_site_label
_atom_site_fract_x
_atom_site_fract_y
_atom_site_fract_z
Si Si1 0.126268 0.425257 0.376835
Si Si2 0.228461 0.568366 0.444996
Si Si3 0.843056 0.167763 0.471786
Si Si4 0.045194 0.116990 0.962091
Si Si5 0.584882 0.057107 0.079446
Si Si6 0.500000 0.751897 0.250000
Si Si7 0.914136 0.982469 0.666741
Si Si8 0.713406 0.419928 0.942187
O O1 0.280359 0.386488 0.223206
O O2 0.093915 0.421748 0.488787
O O3 0.221894 0.487978 0.295782
O O4 0.948128 0.414826 0.466631
O O5 0.283721 0.615058 0.463625
O O6 0.168565 0.506589 0.522324
O O7 0.378562 0.554473 0.267687
O O8 0.907055 0.152013 0.503281
O O9 0.669683 0.207628 0.613181
O O10 0.997670 0.207158 0.318414
O O11 0.989411 0.056811 0.044142
O O12 0.878744 0.128775 0.036317
O O13 0.707345 0.095054 0.039415
O O14 0.384206 0.056648 0.265758
O O15 0.056955 0.032551 0.572610
#
# Coordination Sequence:
#
# PCOD9261444 Si02
#       8
#     8   8   8   8   8   4   8   8
#     4  10  20  31  46  73 110 146 183 217 244 290
#     4  11  20  32  52  75 103 147 188 212 254 316
#     4  11  23  39  58  78 103 135 177 229 283 335
#     4  11  20  32  51  73  99 135 178 215 259 323
#     4  10  20  33  48  73 113 150 177 213 248 288
#     4  10  24  42  56  76 104 128 170 242 300 328
#     4  10  19  30  45  71 105 141 181 218 242 286
#     4  10  20  32  47  70 107 146 179 212 250 292
#
# _framework density 18.891722999999999
#
# number of rings (size 3 to 8) (size 9 to 14) (size 15 to 20)
#    0.000    1.600    0.000    8.000    0.000    9.067 
#    0.000    0.000    0.000    0.000    0.000    0.000 
#    0.000   36.267    0.000    0.000    0.000    0.000 
#
# Total GULP energy -167280.051334 kJ/mol
# GULP energy per Si atom -5576.001711 kJ/mol
# Density = 1.884872 g / cm^3
# Si number density = 18.891723 Si / 1000 Ang^3
#
#
#
# Elastic Constant Matrix: (Units=GPa)
#
#
# Indices 1 2 3 4 5 6 
#
# 1 158.4033 38.6427 47.9862 -0.0081 1.0457 -0.0042
# 2 38.6427 46.2154 18.9976 -0.0426 2.8110 0.0129
# 3 47.9862 18.9976 105.4687 0.0292 7.1919 -0.0213
# 4 -0.0081 -0.0426 0.0292 18.6005 -0.0115 9.1709
# 5 1.0457 2.8110 7.1919 -0.0115 30.3612 0.0026
# 6 -0.0042 0.0129 -0.0213 9.1709 0.0026 6.4353
#
#
#
# Elastic Compliance Matrix: (Units=1/GPa)
#
#
# Indices 1 2 3 4 5 6 
#
# 1 0.008682 -0.006120 -0.002913 -0.000030 0.000958 0.000051
# 2 -0.006120 0.027725 -0.002083 0.000321 -0.001863 -0.000523
# 3 -0.002913 -0.002083 0.011345 -0.000153 -0.002394 0.000259
# 4 -0.000030 0.000321 -0.000153 0.180799 0.000098 -0.257655
# 5 0.000958 -0.001863 -0.002394 0.000098 0.033644 -0.000157
# 6 0.000051 -0.000523 0.000259 -0.257655 -0.000157 0.522575
#
#
# Mechanical properties :
#
#
# Convention : Reuss Voigt Hill
#
# Bulk Modulus (GPa) = 39.18384 57.92670 48.55527
# Shear Modulus (GPa) = 6.13114 24.71013 15.42064
#
# Velocity S-wave (km/s) = 1.80346 3.62053 2.86013
# Velocity P-wave (km/s) = 5.01228 6.94311 6.05515
#
# Compressibility (1/GPa) = 0.02552073
#
# Stress axis : x y z
#
# Youngs Moduli (GPa) = 115.17754 36.06830 88.14172
#
# Poissons Ratio (x) = 0.22075 0.25676
# Poissons Ratio (y) = 0.70494 0.18356
# Poissons Ratio (z) = 0.33552 0.07511
#
# Static dielectric constant tensor:
#      x y z
#    x 1.733140 0.000000 0.005320 
#    y 0.000000 1.668090 0.000030 
#    z 0.005320 0.000030 1.694500 
# 
# From -- ./inp_files/207228.got.cif
#   From: 2010.05.17/outbox.cif.g08.bks.cpg/sg15_104_cif.got.tgz:207228.got - 2010.06.03 18:47:42.
