data_PCOD9261311
_publ_section_title
;
Structure prediction by ZEFSAII (Michael W. Deem and Ramdas Pophale) SiO2 
 PCOD9261311
Probable space group: C 2/C
;
_chemical_formula_sum "Si O2"
_cell_formula_units_Z 44
_cell_length_a 28.514607
_cell_length_b 12.842644
_cell_length_c 25.137095
_cell_angle_alpha 90.000000
_cell_angle_beta 165.090415
_cell_angle_gamma 90.000000
_cell_volume 2368.467047
_symmetry_space_group_name_H-M "C 2/C"
_symmetry_group_IT_number 15
_symmetry_cell_setting 'monoclinic'
loop_
_space_group_symop_operation_xyz
x,y,z
-x,y,1/2-z
-x,-y,-z
x,-y,1/2+z
1/2+x,1/2+y,z
1/2-x,1/2+y,1/2-z
1/2-x,1/2-y,-z
1/2+x,1/2-y,1/2+z
loop_
_atom_site_type_symbol
_atom_site_label
_atom_site_fract_x
_atom_site_fract_y
_atom_site_fract_z
Si Si1 0.600864 0.251892 0.789410
Si Si2 0.439415 0.005643 0.020698
Si Si3 0.806608 0.632940 0.776939
Si Si4 0.619937 0.655366 0.195193
Si Si5 0.000000 0.926584 0.750000
Si Si6 0.905711 0.488193 0.201689
O O1 0.654484 0.285881 0.789319
O O2 0.480644 0.349038 0.678135
O O3 0.536676 0.132860 0.722425
O O4 0.750000 0.250000 0.000000
O O5 0.261861 0.936467 0.840220
O O6 0.378890 0.093018 0.912676
O O7 0.585471 0.932866 0.149704
O O8 0.528030 0.045517 0.172710
O O9 0.589114 0.618750 0.534399
O O10 0.848230 0.754208 0.813071
O O11 0.811760 0.988592 0.545572
O O12 0.000000 0.518659 0.250000
#
# Coordination Sequence:
#
# PCOD9261311 Si02
#       6
#     8   8   8   8   4   8
#     4  10  19  27  47  76 105 142 171 200 253 335
#     4  11  23  37  53  83 112 142 189 225 266 328
#     4  11  23  36  57  77 109 151 186 228 267 319
#     4  12  21  38  55  77 115 150 184 224 274 315
#     4  10  20  28  46  72 108 140 174 198 260 334
#     4  11  20  32  48  75 109 141 173 218 266 326
#
# _framework density 18.577418000000002
#
# number of rings (size 3 to 8) (size 9 to 14) (size 15 to 20)
#    0.000    1.091    4.545    3.818    5.091    0.000 
#    0.000    0.000    0.000    0.000    0.000    1.273 
#    0.000    0.000    0.000    0.000    0.000    0.000 
#
# Total GULP energy -122777.913699 kJ/mol
# GULP energy per Si atom -5580.814259 kJ/mol
# Density = 1.853513 g / cm^3
# Si number density = 18.577418 Si / 1000 Ang^3
#
#
#
# Elastic Constant Matrix: (Units=GPa)
#
#
# Indices 1 2 3 4 5 6 
#
# 1 127.1780 17.7681 56.5165 -0.0087 -13.5530 -0.0032
# 2 17.7681 16.4515 10.4050 -0.0386 -5.3280 -0.0327
# 3 56.5165 10.4050 140.2056 -0.0089 14.2222 -0.0110
# 4 -0.0087 -0.0386 -0.0089 17.6111 -0.0162 -6.3492
# 5 -13.5530 -5.3280 14.2222 -0.0162 39.5657 -0.0073
# 6 -0.0032 -0.0327 -0.0110 -6.3492 -0.0073 19.5628
#
#
#
# Elastic Compliance Matrix: (Units=1/GPa)
#
#
# Indices 1 2 3 4 5 6 
#
# 1 0.011453 -0.008109 -0.004465 -0.000017 0.004436 -0.000018
# 2 -0.008109 0.074187 -0.003081 0.000237 0.008320 0.000201
# 3 -0.004465 -0.003081 0.009712 -0.000011 -0.005435 -0.000006
# 4 -0.000017 0.000237 -0.000011 0.064308 0.000060 0.020872
# 5 0.004436 0.008320 -0.005435 0.000060 0.029868 0.000042
# 6 -0.000018 0.000201 -0.000006 0.020872 0.000042 0.057892
#
#
# Mechanical properties :
#
#
# Convention : Reuss Voigt Hill
#
# Bulk Modulus (GPa) = 15.61464 50.35713 32.98588
# Shear Modulus (GPa) = 16.66248 28.62429 22.64338
#
# Velocity S-wave (km/s) = 2.99811 3.92958 3.49501
# Velocity P-wave (km/s) = 4.51756 6.91044 5.83792
#
# Compressibility (1/GPa) = 0.06404248
#
# Stress axis : x y z
#
# Youngs Moduli (GPa) = 87.31556 13.47952 102.96426
#
# Poissons Ratio (x) = 0.10930 0.45971
# Poissons Ratio (y) = 0.70803 0.31722
# Poissons Ratio (z) = 0.38984 0.04153
#
# Static dielectric constant tensor:
#      x y z
#    x 1.730170 0.000000 0.054140 
#    y 0.000000 1.627530 0.000000 
#    z 0.054140 0.000000 1.739860 
# 
# From -- ./inp_files/255671.got.cif
#   From: 2010.05.17/outbox.cif.g08.bks.cpg/sg15_128_cif.got.tgz:255671.got - 2010.06.03 18:47:42.
