data_PCOD9261473
_publ_section_title
;
Structure prediction by ZEFSAII (Michael W. Deem and Ramdas Pophale) SiO2 
 PCOD9261473
Probable space group: C 2/C
;
_chemical_formula_sum "Si O2"
_cell_formula_units_Z 56
_cell_length_a 24.335635
_cell_length_b 12.099050
_cell_length_c 12.654712
_cell_angle_alpha 90.000000
_cell_angle_beta 61.987378
_cell_angle_gamma 90.000000
_cell_volume 3289.502822
_symmetry_space_group_name_H-M "C 2/C"
_symmetry_group_IT_number 15
_symmetry_cell_setting 'monoclinic'
loop_
_space_group_symop_operation_xyz
x,y,z
-x,y,1/2-z
-x,-y,-z
x,-y,1/2+z
1/2+x,1/2+y,z
1/2-x,1/2+y,1/2-z
1/2-x,1/2-y,-z
1/2+x,1/2-y,1/2+z
loop_
_atom_site_type_symbol
_atom_site_label
_atom_site_fract_x
_atom_site_fract_y
_atom_site_fract_z
Si Si1 0.836590 0.437023 0.253728
Si Si2 0.065527 0.599148 0.444579
Si Si3 0.276845 0.718110 0.360139
Si Si4 0.728293 0.467192 0.182153
Si Si5 0.824959 0.615565 0.430316
Si Si6 0.668933 0.259802 0.286118
Si Si7 0.543612 0.922723 0.609400
O O1 0.896119 0.497925 0.147744
O O2 0.830401 0.305851 0.277401
O O3 0.777734 0.474277 0.234308
O O4 0.830365 0.495094 0.372187
O O5 0.107622 0.705605 0.390606
O O6 0.056892 0.550997 0.568907
O O7 0.999871 0.616888 0.447206
O O8 0.250000 0.750000 0.500000
O O9 0.290680 0.587546 0.341814
O O10 0.223699 0.735311 0.319518
O O11 0.670753 0.390652 0.266847
O O12 0.767392 0.396129 0.060679
O O13 0.820090 0.698313 0.336032
O O14 0.890078 0.635016 0.432262
O O15 0.500000 0.911281 0.750000
#
# Coordination Sequence:
#
# PCOD9261473 Si02
#       7
#     8   8   8   8   8   8   8
#     4  10  19  30  48  71 110 133 174 219 255 317
#     4  10  20  34  49  83 107 133 176 225 270 319
#     4  11  20  31  50  73 104 149 175 209 262 320
#     4  11  20  34  49  75 110 146 173 212 268 317
#     4  11  18  33  51  78 105 137 177 220 266 317
#     4  10  21  33  50  74 111 141 173 220 262 327
#     4  11  19  30  57  77 108 137 176 226 280 304
#
# _framework density 17.023848999999998
#
# number of rings (size 3 to 8) (size 9 to 14) (size 15 to 20)
#    0.000    1.429    8.571    0.429    0.000    0.000 
#    0.000    0.000    0.000    0.000    0.000    8.000 
#    0.000    0.143    0.000    0.000    0.000    0.000 
#
# Total GULP energy -155900.695045 kJ/mol
# GULP energy per Si atom -5567.881966 kJ/mol
# Density = 1.698510 g / cm^3
# Si number density = 17.023849 Si / 1000 Ang^3
#
#
#
# Elastic Constant Matrix: (Units=GPa)
#
#
# Indices 1 2 3 4 5 6 
#
# 1 69.4894 23.3582 3.8872 0.0000 7.9609 0.0000
# 2 23.3582 101.0148 -2.4277 0.0000 -7.6186 0.0000
# 3 3.8872 -2.4277 5.0571 0.0000 0.4611 0.0000
# 4 0.0000 0.0000 0.0000 23.4890 0.0000 -3.0253
# 5 7.9609 -7.6186 0.4611 0.0000 29.0017 0.0000
# 6 0.0000 0.0000 0.0000 -3.0253 0.0000 17.0357
#
#
#
# Elastic Compliance Matrix: (Units=1/GPa)
#
#
# Indices 1 2 3 4 5 6 
#
# 1 0.017553 -0.004868 -0.015296 0.000000 -0.005854 0.000000
# 2 -0.004868 0.011558 0.008905 0.000000 0.004231 0.000000
# 3 -0.015296 0.008905 0.213487 0.000000 0.003143 0.000000
# 4 0.000000 0.000000 0.000000 0.043570 0.000000 0.007737
# 5 -0.005854 0.004231 0.003143 0.000000 0.037149 0.000000
# 6 0.000000 0.000000 0.000000 0.007737 0.000000 0.060074
#
#
# Mechanical properties :
#
#
# Convention : Reuss Voigt Hill
#
# Bulk Modulus (GPa) = 4.54379 25.02188 14.78283
# Shear Modulus (GPa) = 10.43253 23.95485 17.19369
#
# Velocity S-wave (km/s) = 2.47820 3.75525 3.18146
# Velocity P-wave (km/s) = 3.29598 5.79073 4.71148
#
# Compressibility (1/GPa) = 0.22008056
#
# Stress axis : x y z
#
# Youngs Moduli (GPa) = 56.96929 86.51785 4.68412
#
# Poissons Ratio (x) = 0.42117 0.07165
# Poissons Ratio (y) = 0.27733 -0.04171
# Poissons Ratio (z) = 0.87139 -0.77041
#
# Static dielectric constant tensor:
#      x y z
#    x 1.585030 0.000000 0.008620 
#    y 0.000000 1.597930 0.000000 
#    z 0.008620 0.000000 1.632270 
# 
# From -- ./inp_files/172717.got.cif
#   From: 2010.05.17/outbox.cif.g08.bks.cpg/sg15_87_cif.got.tgz:172717.got - 2010.06.03 18:47:42.
