data_PCOD9261660
_publ_section_title
;
Structure prediction by ZEFSAII (Michael W. Deem and Ramdas Pophale) SiO2 
 PCOD9261660
Probable space group: C 2/C
;
_chemical_formula_sum "Si O2"
_cell_formula_units_Z 64
_cell_length_a 25.909284
_cell_length_b 26.608211
_cell_length_c 17.401519
_cell_angle_alpha 90.000000
_cell_angle_beta 160.876241
_cell_angle_gamma 90.000000
_cell_volume 3930.203335
_symmetry_space_group_name_H-M "C 2/C"
_symmetry_group_IT_number 15
_symmetry_cell_setting 'monoclinic'
loop_
_space_group_symop_operation_xyz
x,y,z
-x,y,1/2-z
-x,-y,-z
x,-y,1/2+z
1/2+x,1/2+y,z
1/2-x,1/2+y,1/2-z
1/2-x,1/2-y,-z
1/2+x,1/2-y,1/2+z
loop_
_atom_site_type_symbol
_atom_site_label
_atom_site_fract_x
_atom_site_fract_y
_atom_site_fract_z
Si Si1 0.755126 0.978173 0.123485
Si Si2 0.270704 0.829991 0.869922
Si Si3 0.540335 0.969304 0.676439
Si Si4 0.607602 0.068319 0.671097
Si Si5 0.390559 0.839816 0.210240
Si Si6 0.317550 0.278515 0.470215
Si Si7 0.403253 0.617626 0.035018
Si Si8 0.063206 0.917800 0.606836
O O1 0.905047 0.942559 0.349705
O O2 0.816470 0.035841 0.211337
O O3 0.676308 0.964330 0.931030
O O4 0.620036 0.973213 0.998750
O O5 0.228580 0.771261 0.816785
O O6 0.143319 0.872602 0.671336
O O7 0.330513 0.846470 0.039184
O O8 0.424628 0.828611 0.033530
O O9 0.515153 0.928913 0.572554
O O10 0.574038 0.019456 0.674606
O O11 0.617818 0.112309 0.747090
O O12 0.775635 0.073505 0.864929
O O13 0.278608 0.798886 0.092115
O O14 0.328600 0.326150 0.427745
O O15 0.500000 0.265466 0.750000
O O16 0.500000 0.618598 0.250000
O O17 0.511499 0.606130 0.115236
#
# Coordination Sequence:
#
# PCOD9261660 Si02
#       8
#     8   8   8   8   8   8   8   8
#     4  10  21  36  53  74 104 138 178 222 261 312
#     4  11  20  30  50  72 107 144 170 207 255 310
#     4  10  19  35  55  72 101 135 180 221 264 308
#     4  10  19  32  51  76 100 136 175 215 261 316
#     4  10  20  31  48  74 106 142 174 204 256 311
#     4  10  19  31  48  74 109 140 172 207 255 314
#     4  10  19  31  48  74 108 139 168 210 259 312
#     4  11  21  33  51  76 107 138 177 213 261 313
#
# _framework density 16.284144999999999
#
# number of rings (size 3 to 8) (size 9 to 14) (size 15 to 20)
#    0.000    1.750    2.500    4.875    1.750    2.000 
#    0.000    0.000    0.000    0.000    0.000    3.500 
#    7.500    0.000    0.000    0.000    0.000    0.000 
#
# Total GULP energy -178178.346544 kJ/mol
# GULP energy per Si atom -5568.073330 kJ/mol
# Density = 1.624708 g / cm^3
# Si number density = 16.284145 Si / 1000 Ang^3
#
#
#
# Elastic Constant Matrix: (Units=GPa)
#
#
# Indices 1 2 3 4 5 6 
#
# 1 56.5456 18.6328 21.6458 0.0000 7.0639 0.0000
# 2 18.6328 66.5908 30.6868 0.0000 -0.2697 0.0000
# 3 21.6458 30.6868 70.2304 0.0000 2.1647 0.0000
# 4 0.0000 0.0000 0.0000 19.7271 0.0000 0.5055
# 5 7.0639 -0.2697 2.1647 0.0000 29.4611 0.0000
# 6 0.0000 0.0000 0.0000 0.5055 0.0000 10.0397
#
#
#
# Elastic Compliance Matrix: (Units=1/GPa)
#
#
# Indices 1 2 3 4 5 6 
#
# 1 0.021365 -0.003796 -0.004778 0.000000 -0.004806 0.000000
# 2 -0.003796 0.019495 -0.007399 0.000000 0.001632 0.000000
# 3 -0.004778 -0.007399 0.018954 0.000000 -0.000315 0.000000
# 4 0.000000 0.000000 0.000000 0.050757 0.000000 -0.002556
# 5 -0.004806 0.001632 -0.000315 0.000000 0.035133 0.000000
# 6 0.000000 0.000000 0.000000 -0.002556 0.000000 0.099734
#
#
# Mechanical properties :
#
#
# Convention : Reuss Voigt Hill
#
# Bulk Modulus (GPa) = 35.88218 37.25530 36.56874
# Shear Modulus (GPa) = 17.44138 20.00567 18.72352
#
# Velocity S-wave (km/s) = 3.27626 3.50885 3.39455
# Velocity P-wave (km/s) = 6.03281 6.27248 6.15381
#
# Compressibility (1/GPa) = 0.02786899
#
# Stress axis : x y z
#
# Youngs Moduli (GPa) = 46.80516 51.29429 52.75884
#
# Poissons Ratio (x) = 0.19470 0.25210
# Poissons Ratio (y) = 0.17766 0.39035
# Poissons Ratio (z) = 0.22365 0.37952
#
# Static dielectric constant tensor:
#      x y z
#    x 1.577940 0.000000 0.043160 
#    y 0.000000 1.592750 0.000000 
#    z 0.043160 0.000000 1.587260 
# 
# From -- ./inp_files/223265.got.cif
#   From: 2010.05.17/outbox.cif.g08.bks.cpg/sg15_112_cif.got.tgz:223265.got - 2010.06.03 18:47:42.
