data_PCOD9261697
_publ_section_title
;
Structure prediction by ZEFSAII (Michael W. Deem and Ramdas Pophale) SiO2 
 PCOD9261697
Probable space group: C 2/C
;
_chemical_formula_sum "Si O2"
_cell_formula_units_Z 48
_cell_length_a 6.229045
_cell_length_b 28.637409
_cell_length_c 13.767338
_cell_angle_alpha 90.000000
_cell_angle_beta 110.475498
_cell_angle_gamma 90.000000
_cell_volume 2300.711612
_symmetry_space_group_name_H-M "C 2/C"
_symmetry_group_IT_number 15
_symmetry_cell_setting 'monoclinic'
loop_
_space_group_symop_operation_xyz
x,y,z
-x,y,1/2-z
-x,-y,-z
x,-y,1/2+z
1/2+x,1/2+y,z
1/2-x,1/2+y,1/2-z
1/2-x,1/2-y,-z
1/2+x,1/2-y,1/2+z
loop_
_atom_site_type_symbol
_atom_site_label
_atom_site_fract_x
_atom_site_fract_y
_atom_site_fract_z
Si Si1 0.882231 0.223801 0.933640
Si Si2 0.385750 0.628924 0.328922
Si Si3 0.896145 0.023479 0.333503
Si Si4 0.337185 0.031311 0.542125
Si Si5 0.385408 0.191819 0.083226
Si Si6 0.169091 0.362470 0.465418
O O1 0.942102 0.265124 0.867616
O O2 0.750000 0.250000 0.000000
O O3 0.736981 0.176292 0.894236
O O4 0.135803 0.209912 0.009507
O O5 0.500000 0.648896 0.250000
O O6 0.310863 0.575744 0.296261
O O7 0.182101 0.658070 0.341055
O O8 0.592322 0.630134 0.439177
O O9 0.000000 0.003174 0.250000
O O10 0.103177 0.030759 0.442351
O O11 0.713177 0.993112 0.362906
O O12 0.411168 0.085057 0.571126
O O13 0.500000 0.000000 0.500000
O O14 0.495045 0.161758 0.013025
#
# Coordination Sequence:
#
# PCOD9261697 Si02
#       6
#     8   8   8   8   8   8
#     4   8  15  27  44  66  87 114 152 190 236 289
#     4   9  17  28  43  67  99 126 152 189 242 302
#     4   9  19  34  49  71 105 136 165 208 254 301
#     4  10  19  31  50  75 100 132 174 210 249 302
#     4   9  15  26  44  66  92 118 148 192 240 286
#     4   9  17  28  44  69  94 121 159 201 237 287
#
# _framework density 20.863109999999999
#
# number of rings (size 3 to 8) (size 9 to 14) (size 15 to 20)
#    0.000    3.000    0.000    1.000    0.000    2.667 
#    0.000    5.000    0.000    0.000   26.000    0.000 
#    0.000    0.000    0.000    0.000    0.000    0.000 
#
# Total GULP energy -133621.537082 kJ/mol
# GULP energy per Si atom -5567.564045 kJ/mol
# Density = 2.081562 g / cm^3
# Si number density = 20.863110 Si / 1000 Ang^3
#
#
#
# Elastic Constant Matrix: (Units=GPa)
#
#
# Indices 1 2 3 4 5 6 
#
# 1 109.6464 76.6988 27.1464 0.0000 -37.8993 0.0000
# 2 76.6988 163.2872 27.0312 0.0000 -48.4913 0.0000
# 3 27.1464 27.0312 49.6098 0.0000 -32.9669 0.0000
# 4 0.0000 0.0000 0.0000 16.0746 0.0000 -13.2718
# 5 -37.8993 -48.4913 -32.9669 0.0000 45.7849 0.0000
# 6 0.0000 0.0000 0.0000 -13.2718 0.0000 20.8438
#
#
#
# Elastic Compliance Matrix: (Units=1/GPa)
#
#
# Indices 1 2 3 4 5 6 
#
# 1 0.015129 -0.005044 -0.001454 0.000000 0.006134 0.000000
# 2 -0.005044 0.010812 0.003267 0.000000 0.009628 0.000000
# 3 -0.001454 0.003267 0.039639 0.000000 0.030798 0.000000
# 4 0.000000 0.000000 0.000000 0.131163 0.000000 0.083515
# 5 0.006134 0.009628 0.030798 0.000000 0.059292 0.000000
# 6 0.000000 0.000000 0.000000 0.083515 0.000000 0.101152
#
#
# Mechanical properties :
#
#
# Convention : Reuss Voigt Hill
#
# Bulk Modulus (GPa) = 16.91530 64.92181 40.91856
# Shear Modulus (GPa) = 13.04278 29.31846 21.18062
#
# Velocity S-wave (km/s) = 2.50303 3.75277 3.18971
# Velocity P-wave (km/s) = 4.05942 7.06847 5.76377
#
# Compressibility (1/GPa) = 0.05911807
#
# Stress axis : x y z
#
# Youngs Moduli (GPa) = 66.09951 92.49155 25.22784
#
# Poissons Ratio (x) = 0.46651 0.03668
# Poissons Ratio (y) = 0.33340 -0.08242
# Poissons Ratio (z) = 0.09609 -0.30217
#
# Static dielectric constant tensor:
#      x y z
#    x 1.751260 0.000000 0.012160 
#    y 0.000000 1.844080 0.000000 
#    z 0.012160 0.000000 1.724190 
# 
# From -- ./inp_files/130296.got.cif
#   From: 2010.05.17/outbox.cif.g08.bks.cpg/sg15_66_cif.got.tgz:130296.got - 2010.06.03 18:47:42.
