data_PCOD9261331
_publ_section_title
;
Structure prediction by ZEFSAII (Michael W. Deem and Ramdas Pophale) SiO2 
 PCOD9261331
Probable space group: C 2/C
;
_chemical_formula_sum "Si O2"
_cell_formula_units_Z 48
_cell_length_a 20.843967
_cell_length_b 16.363841
_cell_length_c 8.332978
_cell_angle_alpha 90.000000
_cell_angle_beta 129.571551
_cell_angle_gamma 90.000000
_cell_volume 2190.908665
_symmetry_space_group_name_H-M "C 2/C"
_symmetry_group_IT_number 15
_symmetry_cell_setting 'monoclinic'
loop_
_space_group_symop_operation_xyz
x,y,z
-x,y,1/2-z
-x,-y,-z
x,-y,1/2+z
1/2+x,1/2+y,z
1/2-x,1/2+y,1/2-z
1/2-x,1/2-y,-z
1/2+x,1/2-y,1/2+z
loop_
_atom_site_type_symbol
_atom_site_label
_atom_site_fract_x
_atom_site_fract_y
_atom_site_fract_z
Si Si1 0.052603 0.603708 0.636330
Si Si2 0.233720 0.174875 0.800463
Si Si3 0.047823 0.751971 0.987546
Si Si4 0.000000 0.544450 0.250000
Si Si5 0.229377 0.654410 0.978410
Si Si6 0.000000 0.171191 0.750000
Si Si7 0.187217 0.149619 0.063693
O O1 0.049604 0.515248 0.711354
O O2 0.130825 0.649427 0.830802
O O3 0.968812 0.654605 0.534071
O O4 0.059621 0.596100 0.456661
O O5 0.142716 0.218492 0.641007
O O6 0.244996 0.122451 0.656904
O O7 0.299839 0.250270 0.912997
O O8 0.231815 0.127717 0.966777
O O9 0.000000 0.782007 0.750000
O O10 0.006658 0.781576 0.089832
O O11 0.250000 0.750000 0.000000
O O12 0.272042 0.620005 0.205703
O O13 0.910106 0.127558 0.597956
#
# Coordination Sequence:
#
# PCOD9261331 Si02
#       7
#     8   8   8   4   8   4   8
#     4  11  22  39  55  78 112 156 200 230 265 330
#     4   9  18  28  43  75 103 132 180 216 287 338
#     4  11  18  29  51  72 103 151 183 228 271 329
#     4  10  25  40  54  78 108 164 209 218 256 324
#     4  10  19  33  52  78 105 142 180 236 290 331
#     4  10  19  28  44  74 108 144 177 208 280 346
#     4   9  17  28  41  66 102 137 167 214 269 342
#
# _framework density 21.908715999999998
#
# number of rings (size 3 to 8) (size 9 to 14) (size 15 to 20)
#    0.000    2.000    0.833    5.500    0.000    4.000 
#    3.000    0.000    0.000    0.000    0.000    0.000 
#    0.000    1.333    0.000    4.167    0.000    0.000 
#
# Total GULP energy -133816.950644 kJ/mol
# GULP energy per Si atom -5575.706277 kJ/mol
# Density = 2.185885 g / cm^3
# Si number density = 21.908716 Si / 1000 Ang^3
#
#
#
# Elastic Constant Matrix: (Units=GPa)
#
#
# Indices 1 2 3 4 5 6 
#
# 1 111.2727 -0.0408 51.1355 0.0000 -26.8911 0.0000
# 2 -0.0408 5.1731 10.1623 0.0000 2.2016 0.0000
# 3 51.1355 10.1623 163.3513 0.0000 -30.1073 0.0000
# 4 0.0000 0.0000 0.0000 15.3483 0.0000 -3.6454
# 5 -26.8911 2.2016 -30.1073 0.0000 60.2827 0.0000
# 6 0.0000 0.0000 0.0000 -3.6454 0.0000 3.8903
#
#
#
# Elastic Compliance Matrix: (Units=1/GPa)
#
#
# Indices 1 2 3 4 5 6 
#
# 1 0.011259 0.005106 -0.003250 0.000000 0.003213 0.000000
# 2 0.005106 0.238303 -0.019393 0.000000 -0.016111 0.000000
# 3 -0.003250 -0.019393 0.009041 0.000000 0.003774 0.000000
# 4 0.000000 0.000000 0.000000 0.083806 0.000000 0.078529
# 5 0.003213 -0.016111 0.003774 0.000000 0.020495 0.000000
# 6 0.000000 0.000000 0.000000 0.078529 0.000000 0.330633
#
#
# Mechanical properties :
#
#
# Convention : Reuss Voigt Hill
#
# Bulk Modulus (GPa) = 4.47369 44.70125 24.58747
# Shear Modulus (GPa) = 6.22571 30.47360 18.34966
#
# Velocity S-wave (km/s) = 1.68755 3.73357 2.89719
# Velocity P-wave (km/s) = 2.41734 6.24770 4.73694
#
# Compressibility (1/GPa) = 0.22352891
#
# Stress axis : x y z
#
# Youngs Moduli (GPa) = 88.81998 4.19634 110.60495
#
# Poissons Ratio (x) = -0.02143 0.35946
# Poissons Ratio (y) = -0.45350 2.14495
# Poissons Ratio (z) = 0.28866 0.08138
#
# Static dielectric constant tensor:
#      x y z
#    x 1.946960 0.000000 -0.088330 
#    y 0.000000 1.789360 0.000000 
#    z -0.088330 0.000000 1.885810 
# 
# From -- ./inp_files/56804.got.cif
#   From: 2010.05.17/outbox.cif.g08.bks.cpg/sg15_29_cif.got.tgz:56804.got - 2010.06.03 18:47:42.
