data_PCOD9261306
_publ_section_title
;
Structure prediction by ZEFSAII (Michael W. Deem and Ramdas Pophale) SiO2 
 PCOD9261306
Probable space group: C 2/C
;
_chemical_formula_sum "Si O2"
_cell_formula_units_Z 64
_cell_length_a 15.413650
_cell_length_b 24.373588
_cell_length_c 6.951710
_cell_angle_alpha 90.000000
_cell_angle_beta 110.899651
_cell_angle_gamma 90.000000
_cell_volume 2439.829953
_symmetry_space_group_name_H-M "C 2/C"
_symmetry_group_IT_number 15
_symmetry_cell_setting 'monoclinic'
loop_
_space_group_symop_operation_xyz
x,y,z
-x,y,1/2-z
-x,-y,-z
x,-y,1/2+z
1/2+x,1/2+y,z
1/2-x,1/2+y,1/2-z
1/2-x,1/2-y,-z
1/2+x,1/2-y,1/2+z
loop_
_atom_site_type_symbol
_atom_site_label
_atom_site_fract_x
_atom_site_fract_y
_atom_site_fract_z
Si Si1 0.866889 0.040747 0.522158
Si Si2 0.654557 0.073312 0.766599
Si Si3 0.295185 0.275888 0.838109
Si Si4 0.865988 0.080910 0.961193
Si Si5 0.971963 0.143822 0.507369
Si Si6 0.343449 0.952423 0.680702
Si Si7 0.111521 0.336622 0.667946
Si Si8 0.079731 0.317862 0.104042
O O1 0.864557 0.068329 0.730253
O O2 0.930597 0.082456 0.457725
O O3 0.764457 0.039734 0.347748
O O4 0.897891 0.978217 0.566445
O O5 0.757555 0.086124 0.927745
O O6 0.662102 0.066837 0.542088
O O7 0.593728 0.126864 0.733108
O O8 0.616957 0.013835 0.796672
O O9 0.211202 0.312399 0.694536
O O10 0.250000 0.250000 0.000000
O O11 0.385962 0.315038 0.917202
O O12 0.340844 0.224038 0.769691
O O13 0.931360 0.134649 0.034884
O O14 0.000000 0.155187 0.750000
O O15 0.390034 0.903742 0.839863
O O16 0.098073 0.326277 0.887783
O O17 0.029531 0.304844 0.492020
#
# Coordination Sequence:
#
# PCOD9261306 Si02
#       8
#     8   8   8   8   8   8   8   8
#     4   9  16  30  43  73 100 140 160 204 244 304
#     4   9  18  31  48  75 101 131 162 205 246 297
#     4  10  20  29  46  66 100 131 169 201 252 301
#     4   9  18  28  49  68 109 132 167 200 254 297
#     4  10  19  27  44  68  95 133 165 199 248 296
#     4   9  16  30  49  68 105 128 162 200 250 293
#     4   9  17  31  45  66  97 130 159 204 247 294
#     4   9  19  29  45  69  95 127 164 205 246 290
#
# _framework density 26.231335000000001
#
# number of rings (size 3 to 8) (size 9 to 14) (size 15 to 20)
#    0.000    2.750    1.250    0.375    8.750    0.500 
#    0.000    0.000    0.000    0.000    0.000    0.875 
#    7.500    0.000    0.000    0.500    0.000    0.000 
#
# Total GULP energy -178715.281167 kJ/mol
# GULP energy per Si atom -5584.852536 kJ/mol
# Density = 2.617163 g / cm^3
# Si number density = 26.231335 Si / 1000 Ang^3
#
#
#
# Elastic Constant Matrix: (Units=GPa)
#
#
# Indices 1 2 3 4 5 6 
#
# 1 109.4685 58.7107 24.4241 0.0000 11.0490 0.0000
# 2 58.7107 114.2880 35.7301 0.0000 21.0309 0.0000
# 3 24.4241 35.7301 53.9014 0.0000 -2.8818 0.0000
# 4 0.0000 0.0000 0.0000 16.1807 0.0000 2.8716
# 5 11.0490 21.0309 -2.8818 0.0000 34.3308 0.0000
# 6 0.0000 0.0000 0.0000 2.8716 0.0000 36.1377
#
#
#
# Elastic Compliance Matrix: (Units=1/GPa)
#
#
# Indices 1 2 3 4 5 6 
#
# 1 0.012762 -0.005808 -0.001971 0.000000 -0.000715 0.000000
# 2 -0.005808 0.015941 -0.008395 0.000000 -0.008601 0.000000
# 3 -0.001971 -0.008395 0.025433 0.000000 0.007912 0.000000
# 4 0.000000 0.000000 0.000000 0.062686 0.000000 -0.004981
# 5 -0.000715 -0.008601 0.007912 0.000000 0.035291 0.000000
# 6 0.000000 0.000000 0.000000 -0.004981 0.000000 0.028068
#
#
# Mechanical properties :
#
#
# Convention : Reuss Voigt Hill
#
# Bulk Modulus (GPa) = 45.89638 57.26530 51.58084
# Shear Modulus (GPa) = 22.74886 27.91603 25.33245
#
# Velocity S-wave (km/s) = 2.94809 3.26578 3.11099
# Velocity P-wave (km/s) = 5.39658 6.00822 5.71060
#
# Compressibility (1/GPa) = 0.02178821
#
# Stress axis : x y z
#
# Youngs Moduli (GPa) = 78.35734 62.73250 39.31891
#
# Poissons Ratio (x) = 0.36437 0.07749
# Poissons Ratio (y) = 0.45513 0.33007
# Poissons Ratio (z) = 0.15443 0.52662
#
# Static dielectric constant tensor:
#      x y z
#    x 2.100440 0.000000 -0.064280 
#    y 0.000000 2.064810 0.000000 
#    z -0.064280 0.000000 2.128150 
# 
# From -- ./inp_files/107832.got.cif
#   From: 2010.05.17/outbox.cif.g08.bks.cpg/sg15_54_cif.got.tgz:107832.got - 2010.06.03 18:47:42.
