data_PCOD9261557
_publ_section_title
;
Structure prediction by ZEFSAII (Michael W. Deem and Ramdas Pophale) SiO2 
 PCOD9261557
Probable space group: C 2/C
;
_chemical_formula_sum "Si O2"
_cell_formula_units_Z 52
_cell_length_a 16.267497
_cell_length_b 17.080714
_cell_length_c 12.580547
_cell_angle_alpha 90.000000
_cell_angle_beta 140.894860
_cell_angle_gamma 90.000000
_cell_volume 2204.856804
_symmetry_space_group_name_H-M "C 2/C"
_symmetry_group_IT_number 15
_symmetry_cell_setting 'monoclinic'
loop_
_space_group_symop_operation_xyz
x,y,z
-x,y,1/2-z
-x,-y,-z
x,-y,1/2+z
1/2+x,1/2+y,z
1/2-x,1/2+y,1/2-z
1/2-x,1/2-y,-z
1/2+x,1/2-y,1/2+z
loop_
_atom_site_type_symbol
_atom_site_label
_atom_site_fract_x
_atom_site_fract_y
_atom_site_fract_z
Si Si1 0.500000 0.907038 0.750000
Si Si2 0.663700 0.022582 0.608318
Si Si3 0.786169 0.684491 0.119163
Si Si4 0.180631 0.664499 0.127482
Si Si5 0.845335 0.858065 0.590585
Si Si6 0.579790 0.134973 0.717243
Si Si7 0.353920 0.542882 0.630364
O O1 0.419568 0.958694 0.583642
O O2 0.566222 0.843901 0.738095
O O3 0.611484 0.067891 0.659609
O O4 0.805466 0.048899 0.704221
O O5 0.669515 0.930049 0.636911
O O6 0.761887 0.708150 0.213967
O O7 0.750000 0.750000 0.000000
O O8 0.722009 0.603826 0.018098
O O9 0.283887 0.668769 0.138587
O O10 0.033644 0.688536 0.948537
O O11 0.726061 0.835242 0.391211
O O12 0.000000 0.837727 0.750000
O O13 0.836587 0.952905 0.579186
O O14 0.500000 0.114960 0.750000
O O15 0.500000 0.563369 0.750000
#
# Coordination Sequence:
#
# PCOD9261557 Si02
#       7
#     4   8   8   8   8   8   8
#     4  10  22  36  58  92 122 166 220 268 328 376
#     4  10  19  32  58  89 129 161 211 271 335 383
#     4  11  23  37  57  81 123 172 223 259 306 391
#     4  10  20  33  56  89 121 170 205 267 332 375
#     4   9  19  34  56  89 131 162 206 261 334 396
#     4  10  19  30  52  84 125 165 208 258 315 384
#     4   9  20  35  52  83 121 168 210 256 323 385
#
# _framework density 23.584299000000001
#
# number of rings (size 3 to 8) (size 9 to 14) (size 15 to 20)
#    0.000    2.154    1.538    1.385    8.615    1.231 
#    0.000    4.615    0.000    0.000    0.000   21.538 
#    0.000    0.000    0.000    0.000    0.000    0.000 
#
# Total GULP energy -144786.768675 kJ/mol
# GULP energy per Si atom -5568.721872 kJ/mol
# Density = 2.353062 g / cm^3
# Si number density = 23.584299 Si / 1000 Ang^3
#
#
#
# Elastic Constant Matrix: (Units=GPa)
#
#
# Indices 1 2 3 4 5 6 
#
# 1 124.8874 17.8263 67.6419 0.0000 10.4497 0.0000
# 2 17.8263 52.4269 44.9281 0.0000 -12.3630 0.0000
# 3 67.6419 44.9281 130.0495 0.0000 -16.5686 0.0000
# 4 0.0000 0.0000 0.0000 7.3692 0.0000 -13.3651
# 5 10.4497 -12.3630 -16.5686 0.0000 44.2659 0.0000
# 6 0.0000 0.0000 0.0000 -13.3651 0.0000 -15.4382
#
#
#
# Elastic Compliance Matrix: (Units=1/GPa)
#
#
# Indices 1 2 3 4 5 6 
#
# 1 0.012361 0.000875 -0.007426 0.000000 -0.005453 0.000000
# 2 0.000875 0.027948 -0.009600 0.000000 0.004006 0.000000
# 3 -0.007426 -0.009600 0.015489 0.000000 0.004869 0.000000
# 4 0.000000 0.000000 0.000000 0.052800 0.000000 -0.045709
# 5 -0.005453 0.004006 0.004869 0.000000 0.026819 0.000000
# 6 0.000000 0.000000 0.000000 -0.045709 0.000000 -0.025203
#
#
# Mechanical properties :
#
#
# Convention : Reuss Voigt Hill
#
# Bulk Modulus (GPa) = 42.56130 63.12849 52.84490
# Shear Modulus (GPa) = 33.25617 19.03721 26.14669
#
# Velocity S-wave (km/s) = 3.75920 2.84421 3.33325
# Velocity P-wave (km/s) = 6.07682 6.13280 6.10488
#
# Compressibility (1/GPa) = 0.02349552
#
# Stress axis : x y z
#
# Youngs Moduli (GPa) = 80.90082 35.78044 64.56246
#
# Poissons Ratio (x) = -0.03131 0.47946
# Poissons Ratio (y) = -0.07080 0.61981
# Poissons Ratio (z) = 0.60079 0.34350
#
# Static dielectric constant tensor:
#      x y z
#    x -0.395410 0.000000 -0.782450 
#    y 0.000000 1.897670 0.000000 
#    z -0.782450 0.000000 1.719470 
# 
# From -- ./inp_files/107551.got.cif
#   From: 2010.05.17/outbox.cif.g08.bks.cpg/sg15_54_cif.got.tgz:107551.got - 2010.06.03 18:47:42.
