data_PCOD9261054
_publ_section_title
;
Structure prediction by ZEFSAII (Michael W. Deem and Ramdas Pophale) SiO2 
 PCOD9261054
Probable space group: C 2/C
;
_chemical_formula_sum "Si O2"
_cell_formula_units_Z 48
_cell_length_a 9.153000
_cell_length_b 15.385440
_cell_length_c 17.978642
_cell_angle_alpha 90.000000
_cell_angle_beta 88.320236
_cell_angle_gamma 90.000000
_cell_volume 2530.717107
_symmetry_space_group_name_H-M "C 2/C"
_symmetry_group_IT_number 15
_symmetry_cell_setting 'monoclinic'
loop_
_space_group_symop_operation_xyz
x,y,z
-x,y,1/2-z
-x,-y,-z
x,-y,1/2+z
1/2+x,1/2+y,z
1/2-x,1/2+y,1/2-z
1/2-x,1/2-y,-z
1/2+x,1/2-y,1/2+z
loop_
_atom_site_type_symbol
_atom_site_label
_atom_site_fract_x
_atom_site_fract_y
_atom_site_fract_z
Si Si1 0.244585 0.901150 0.583359
Si Si2 0.721060 0.054604 0.585591
Si Si3 0.899976 0.261420 0.362549
Si Si4 0.458124 0.099163 0.334075
Si Si5 0.680393 0.695634 0.300884
Si Si6 0.515652 0.510576 0.329438
O O1 0.275955 0.942308 0.503255
O O2 0.155612 0.810834 0.578678
O O3 0.394024 0.881471 0.624279
O O4 0.139248 0.963392 0.633374
O O5 0.655491 0.144514 0.616022
O O6 0.884019 0.041181 0.614959
O O7 0.625103 0.976177 0.619883
O O8 0.836479 0.229767 0.283157
O O9 0.075450 0.256471 0.351581
O O10 0.500000 0.069453 0.250000
O O11 0.345292 0.179183 0.324337
O O12 0.603419 0.600535 0.309603
O O13 0.500000 0.464823 0.250000
#
# Coordination Sequence:
#
# PCOD9261054 Si02
#       6
#     8   8   8   8   8   8
#     4  11  20  39  60  83 121 153 188 235 301 356
#     4  11  24  34  58  93 116 146 191 252 292 339
#     4  10  19  38  58  81 116 149 192 237 299 345
#     4  11  21  38  60  84 111 156 204 235 283 353
#     4   9  18  37  62  79 105 158 199 229 285 356
#     4  10  18  40  61  82 109 159 200 229 276 357
#
# _framework density 18.966956
#
# number of rings (size 3 to 8) (size 9 to 14) (size 15 to 20)
#    0.000    1.667    5.000    2.500    2.333    0.000 
#    3.000    0.833    0.000    0.000    0.000    0.000 
#    0.000    0.000    0.000    0.000    0.000    0.000 
#
# Total GULP energy -133923.225846 kJ/mol
# GULP energy per Si atom -5580.134410 kJ/mol
# Density = 1.892379 g / cm^3
# Si number density = 18.966956 Si / 1000 Ang^3
#
#
#
# Elastic Constant Matrix: (Units=GPa)
#
#
# Indices 1 2 3 4 5 6 
#
# 1 134.3054 15.2859 48.4436 0.0000 -3.9755 0.0000
# 2 15.2859 36.5040 16.5965 0.0000 -16.7040 0.0000
# 3 48.4436 16.5965 109.2482 0.0000 -5.9816 0.0000
# 4 0.0000 0.0000 0.0000 13.1873 0.0000 -0.1387
# 5 -3.9755 -16.7040 -5.9816 0.0000 26.3510 0.0000
# 6 0.0000 0.0000 0.0000 -0.1387 0.0000 18.7748
#
#
#
# Elastic Compliance Matrix: (Units=1/GPa)
#
#
# Indices 1 2 3 4 5 6 
#
# 1 0.009035 -0.002638 -0.003668 0.000000 -0.001142 0.000000
# 2 -0.002638 0.041761 -0.003794 0.000000 0.025214 0.000000
# 3 -0.003668 -0.003794 0.011335 0.000000 -0.000385 0.000000
# 4 0.000000 0.000000 0.000000 0.075836 0.000000 0.000560
# 5 -0.001142 0.025214 -0.000385 0.000000 0.053673 0.000000
# 6 0.000000 0.000000 0.000000 0.000560 0.000000 0.053267
#
#
# Mechanical properties :
#
#
# Convention : Reuss Voigt Hill
#
# Bulk Modulus (GPa) = 23.84845 48.96773 36.40809
# Shear Modulus (GPa) = 17.91565 24.97807 21.44686
#
# Velocity S-wave (km/s) = 3.07672 3.63288 3.36631
# Velocity P-wave (km/s) = 5.02221 6.59322 5.86060
#
# Compressibility (1/GPa) = 0.04193145
#
# Stress axis : x y z
#
# Youngs Moduli (GPa) = 110.67693 23.94550 88.21991
#
# Poissons Ratio (x) = 0.06318 0.32361
# Poissons Ratio (y) = 0.29200 0.33469
# Poissons Ratio (z) = 0.40599 0.09084
#
# Static dielectric constant tensor:
#      x y z
#    x 1.687880 0.000000 -0.003880 
#    y 0.000000 1.641900 0.000000 
#    z -0.003880 0.000000 1.661680 
# 
# From -- ./inp_files/189231.got.cif
#   From: 2010.05.17/outbox.cif.g08.bks.cpg/sg15_95_cif.got.tgz:189231.got - 2010.06.03 18:47:42.
