data_PCOD9261032
_publ_section_title
;
Structure prediction by ZEFSAII (Michael W. Deem and Ramdas Pophale) SiO2 
 PCOD9261032
Probable space group: C 2/C
;
_chemical_formula_sum "Si O2"
_cell_formula_units_Z 60
_cell_length_a 14.128263
_cell_length_b 21.671124
_cell_length_c 13.430375
_cell_angle_alpha 90.000000
_cell_angle_beta 42.757943
_cell_angle_gamma 90.000000
_cell_volume 2791.680931
_symmetry_space_group_name_H-M "C 2/C"
_symmetry_group_IT_number 15
_symmetry_cell_setting 'monoclinic'
loop_
_space_group_symop_operation_xyz
x,y,z
-x,y,1/2-z
-x,-y,-z
x,-y,1/2+z
1/2+x,1/2+y,z
1/2-x,1/2+y,1/2-z
1/2-x,1/2-y,-z
1/2+x,1/2-y,1/2+z
loop_
_atom_site_type_symbol
_atom_site_label
_atom_site_fract_x
_atom_site_fract_y
_atom_site_fract_z
Si Si1 0.248651 0.420737 0.607655
Si Si2 0.812151 0.796939 0.834419
Si Si3 0.461440 0.668080 0.035002
Si Si4 0.500000 0.158772 0.250000
Si Si5 0.487616 0.197234 0.041204
Si Si6 0.846758 0.459085 0.395587
Si Si7 0.255198 0.166343 0.890337
Si Si8 0.425634 0.065839 0.053457
O O1 0.384351 0.379587 0.522860
O O2 0.262509 0.487844 0.547877
O O3 0.174099 0.428678 0.773355
O O4 0.136775 0.383067 0.628189
O O5 0.902191 0.839293 0.692720
O O6 0.655993 0.796191 0.909835
O O7 0.808495 0.817480 0.951155
O O8 0.855355 0.724684 0.794596
O O9 0.627632 0.662044 0.911937
O O10 0.426466 0.740017 0.039938
O O11 0.465568 0.195659 0.177020
O O12 0.525824 0.126465 0.982543
O O13 0.828608 0.398741 0.342798
O O14 0.845603 0.436655 0.510198
O O15 0.000000 0.485052 0.250000
O O16 0.500000 0.000000 0.000000
#
# Coordination Sequence:
#
# PCOD9261032 Si02
#       8
#     8   8   8   4   8   8   8   8
#     4  11  22  39  62  85 122 159 200 250 299 365
#     4  10  19  38  56  84 122 156 192 240 303 367
#     4  11  22  38  59  86 121 166 192 240 310 360
#     4  10  18  40  58  86 110 150 204 240 292 352
#     4  10  21  36  61  87 119 152 199 252 292 362
#     4  12  22  36  61  88 116 160 201 254 300 352
#     4  10  23  34  58  92 121 151 196 251 302 362
#     4  11  20  38  59  91 116 151 208 252 298 352
#
# _framework density 21.492428
#
# number of rings (size 3 to 8) (size 9 to 14) (size 15 to 20)
#    0.000    1.333    6.000    1.200    1.867    1.067 
#    0.000    0.000    2.933    0.000    0.000    0.000 
#    0.000    0.000    0.000    0.000    0.000    0.000 
#
# Total GULP energy -167390.923139 kJ/mol
# GULP energy per Si atom -5579.697438 kJ/mol
# Density = 2.144351 g / cm^3
# Si number density = 21.492428 Si / 1000 Ang^3
#
#
#
# Elastic Constant Matrix: (Units=GPa)
#
#
# Indices 1 2 3 4 5 6 
#
# 1 111.6277 49.4400 7.6620 0.0000 -1.9695 -0.0002
# 2 49.4400 129.7824 5.7888 0.0000 0.4171 0.0002
# 3 7.6620 5.7888 14.0832 0.0009 6.2018 -0.0008
# 4 0.0000 0.0000 0.0009 22.8082 -0.0005 -3.7027
# 5 -1.9695 0.4171 6.2018 -0.0005 30.4461 0.0003
# 6 -0.0002 0.0002 -0.0008 -3.7027 0.0003 27.3155
#
#
#
# Elastic Compliance Matrix: (Units=1/GPa)
#
#
# Indices 1 2 3 4 5 6 
#
# 1 0.011125 -0.004012 -0.005213 0.000000 0.001836 0.000000
# 2 -0.004012 0.009306 -0.001617 0.000000 -0.000058 0.000000
# 3 -0.005213 -0.001617 0.082002 -0.000003 -0.017019 0.000002
# 4 0.000000 0.000000 -0.000003 0.044830 0.000001 0.006077
# 5 0.001836 -0.000058 -0.017019 0.000001 0.036431 -0.000001
# 6 0.000000 0.000000 0.000002 0.006077 -0.000001 0.037433
#
#
# Mechanical properties :
#
#
# Convention : Reuss Voigt Hill
#
# Bulk Modulus (GPa) = 12.38391 42.36389 27.37390
# Shear Modulus (GPa) = 18.53733 28.95414 23.74573
#
# Velocity S-wave (km/s) = 2.94003 3.67437 3.32752
# Velocity P-wave (km/s) = 4.15927 6.14453 5.24665
#
# Compressibility (1/GPa) = 0.08074997
#
# Stress axis : x y z
#
# Youngs Moduli (GPa) = 89.88581 107.46114 12.19490
#
# Poissons Ratio (x) = 0.43108 0.06357
# Poissons Ratio (y) = 0.36058 0.01972
# Poissons Ratio (z) = 0.46853 0.17379
#
# Static dielectric constant tensor:
#      x y z
#    x 1.782540 0.000000 -0.000200 
#    y 0.000000 1.842240 0.000000 
#    z -0.000200 0.000000 1.832770 
# 
# From -- ./inp_files/156369.got.cif
#   From: 2010.05.17/outbox.cif.g08.bks.cpg/sg15_79_cif.got.tgz:156369.got - 2010.06.03 18:47:42.
