data_PCOD9261104
_publ_section_title
;
Structure prediction by ZEFSAII (Michael W. Deem and Ramdas Pophale) SiO2 
 PCOD9261104
Probable space group: C 2/C
;
_chemical_formula_sum "Si O2"
_cell_formula_units_Z 48
_cell_length_a 15.616716
_cell_length_b 16.232860
_cell_length_c 14.872930
_cell_angle_alpha 90.000000
_cell_angle_beta 143.343535
_cell_angle_gamma 90.000000
_cell_volume 2250.956419
_symmetry_space_group_name_H-M "C 2/C"
_symmetry_group_IT_number 15
_symmetry_cell_setting 'monoclinic'
loop_
_space_group_symop_operation_xyz
x,y,z
-x,y,1/2-z
-x,-y,-z
x,-y,1/2+z
1/2+x,1/2+y,z
1/2-x,1/2+y,1/2-z
1/2-x,1/2-y,-z
1/2+x,1/2-y,1/2+z
loop_
_atom_site_type_symbol
_atom_site_label
_atom_site_fract_x
_atom_site_fract_y
_atom_site_fract_z
Si Si1 0.500000 0.971235 0.750000
Si Si2 0.071664 0.563776 0.626571
Si Si3 0.920537 0.301035 0.085104
Si Si4 0.658225 0.501293 0.097967
Si Si5 0.141747 0.123162 0.426614
Si Si6 0.238702 0.648380 0.415685
Si Si7 0.000000 0.222346 0.750000
O O1 0.364002 0.913056 0.612895
O O2 0.538704 0.026986 0.698033
O O3 0.239802 0.553477 0.753593
O O4 0.000000 0.500000 0.500000
O O5 0.014648 0.656022 0.587680
O O6 0.878990 0.206659 0.032301
O O7 0.000000 0.299758 0.250000
O O8 0.777403 0.354956 0.978872
O O9 0.720139 0.593161 0.136073
O O10 0.500000 0.500000 0.000000
O O11 0.661903 0.455116 0.005550
O O12 0.000000 0.111271 0.250000
O O13 0.122576 0.721791 0.302349
O O14 0.388763 0.673847 0.590052
#
# Coordination Sequence:
#
# PCOD9261104 Si02
#       7
#     4   8   8   8   8   8   4
#     4   9  18  38  60  87 124 156 204 259 298 368
#     4  11  22  38  64  90 124 171 209 248 314 373
#     4  10  18  40  64  90 123 161 212 260 306 379
#     4  11  24  41  54  89 129 154 203 262 303 372
#     4  10  22  36  66  91 119 165 205 258 328 365
#     4   9  19  36  61  82 118 152 202 249 302 368
#     4   9  18  36  62  89 104 154 210 239 306 364
#
# _framework density 21.324269000000001
#
# number of rings (size 3 to 8) (size 9 to 14) (size 15 to 20)
#    0.000    2.000    2.500    1.000    3.500    1.333 
#    0.000    8.333    0.000    0.000    0.000    0.000 
#    0.000    0.000    0.000    0.000    0.000    0.000 
#
# Total GULP energy -133743.038064 kJ/mol
# GULP energy per Si atom -5572.626586 kJ/mol
# Density = 2.127573 g / cm^3
# Si number density = 21.324269 Si / 1000 Ang^3
#
#
#
# Elastic Constant Matrix: (Units=GPa)
#
#
# Indices 1 2 3 4 5 6 
#
# 1 45.0168 19.0870 23.0189 0.0000 25.5375 0.0000
# 2 19.0870 73.9093 16.3279 0.0002 13.7258 0.0000
# 3 23.0189 16.3279 109.6070 0.0004 39.2971 0.0000
# 4 0.0000 0.0002 0.0004 21.6727 0.0002 12.2916
# 5 25.5375 13.7258 39.2971 0.0002 40.1032 0.0000
# 6 0.0000 0.0000 0.0000 12.2916 0.0000 24.1879
#
#
#
# Elastic Compliance Matrix: (Units=1/GPa)
#
#
# Indices 1 2 3 4 5 6 
#
# 1 0.036867 -0.005564 0.001265 0.000000 -0.022812 0.000000
# 2 -0.005564 0.015313 -0.000777 0.000000 -0.000937 0.000000
# 3 0.001265 -0.000777 0.014132 0.000000 -0.014388 0.000000
# 4 0.000000 0.000000 0.000000 0.064824 0.000000 -0.032942
# 5 -0.022812 -0.000937 -0.014388 0.000000 0.053881 0.000000
# 6 0.000000 0.000000 0.000000 -0.032942 0.000000 0.058083
#
#
# Mechanical properties :
#
#
# Convention : Reuss Voigt Hill
#
# Bulk Modulus (GPa) = 17.80619 38.37785 28.09202
# Shear Modulus (GPa) = 18.38433 28.53270 23.45852
#
# Velocity S-wave (km/s) = 2.93939 3.66189 3.32035
# Velocity P-wave (km/s) = 4.45964 5.99296 5.28223
#
# Compressibility (1/GPa) = 0.05616023
#
# Stress axis : x y z
#
# Youngs Moduli (GPa) = 27.12442 65.30605 70.76206
#
# Poissons Ratio (x) = 0.36336 -0.08951
# Poissons Ratio (y) = 0.15092 0.05496
# Poissons Ratio (z) = -0.03431 0.05073
#
# Static dielectric constant tensor:
#      x y z
#    x 1.675140 0.000000 0.034880 
#    y 0.000000 1.822990 0.000000 
#    z 0.034880 0.000000 1.821770 
# 
# From -- ./inp_files/155302.got.cif
#   From: 2010.05.17/outbox.cif.g08.bks.cpg/sg15_78_cif.got.tgz:155302.got - 2010.06.03 18:47:42.
