data_PCOD9261898
_publ_section_title
;
Structure prediction by ZEFSAII (Michael W. Deem and Ramdas Pophale) SiO2 
 PCOD9261898
Probable space group: C 2/C
;
_chemical_formula_sum "Si O2"
_cell_formula_units_Z 48
_cell_length_a 17.264530
_cell_length_b 26.743241
_cell_length_c 5.319394
_cell_angle_alpha 90.000000
_cell_angle_beta 124.325277
_cell_angle_gamma 90.000000
_cell_volume 2028.298747
_symmetry_space_group_name_H-M "C 2/C"
_symmetry_group_IT_number 15
_symmetry_cell_setting 'monoclinic'
loop_
_space_group_symop_operation_xyz
x,y,z
-x,y,1/2-z
-x,-y,-z
x,-y,1/2+z
1/2+x,1/2+y,z
1/2-x,1/2+y,1/2-z
1/2-x,1/2-y,-z
1/2+x,1/2-y,1/2+z
loop_
_atom_site_type_symbol
_atom_site_label
_atom_site_fract_x
_atom_site_fract_y
_atom_site_fract_z
Si Si1 0.638342 0.254454 0.352586
Si Si2 0.098033 0.553402 0.364691
Si Si3 0.719110 0.524824 0.066153
Si Si4 0.332558 0.708324 0.095144
Si Si5 0.581238 0.843032 0.581632
Si Si6 0.232013 0.613110 0.004474
O O1 0.750000 0.250000 0.500000
O O2 0.616867 0.289829 0.544363
O O3 0.606085 0.274056 0.024752
O O4 0.601635 0.198407 0.326831
O O5 0.168335 0.524876 0.300028
O O6 0.164049 0.579365 0.702826
O O7 0.000000 0.526666 0.250000
O O8 0.060948 0.602414 0.149231
O O9 0.683565 0.486120 0.217403
O O10 0.711169 0.576700 0.202929
O O11 0.250000 0.750000 0.000000
O O12 0.293114 0.653114 0.965060
O O13 0.500000 0.826588 0.250000
O O14 0.672025 0.851367 0.576464
#
# Coordination Sequence:
#
# PCOD9261898 Si02
#       6
#     8   8   8   8   8   8
#     4  10  19  32  49  70  99 125 161 206 243 295
#     4  11  22  34  51  69  94 126 175 220 265 299
#     4  11  24  40  51  68  93 127 171 219 269 311
#     4  10  19  32  53  72  95 121 161 209 242 297
#     4  11  21  31  49  75 102 132 168 216 256 297
#     4  11  21  36  54  71  95 130 171 217 257 295
#
# _framework density 23.665153
#
# number of rings (size 3 to 8) (size 9 to 14) (size 15 to 20)
#    0.000    1.333    6.667    2.000    2.333    0.667 
#    0.000    0.000    0.000    0.000    0.000    0.000 
#    0.000    0.000    0.000    0.000    0.000   16.667 
#
# Total GULP energy -133850.545918 kJ/mol
# GULP energy per Si atom -5577.106080 kJ/mol
# Density = 2.361129 g / cm^3
# Si number density = 23.665153 Si / 1000 Ang^3
#
#
#
# Elastic Constant Matrix: (Units=GPa)
#
#
# Indices 1 2 3 4 5 6 
#
# 1 25.0792 9.6104 25.8482 0.0000 -20.6522 0.0000
# 2 9.6104 98.3156 21.3848 0.0000 -1.9898 0.0000
# 3 25.8482 21.3848 105.8734 0.0000 -37.5245 0.0000
# 4 0.0000 0.0000 0.0000 19.6177 0.0000 -13.4619
# 5 -20.6522 -1.9898 -37.5245 0.0000 37.2844 0.0000
# 6 0.0000 0.0000 0.0000 -13.4619 0.0000 13.9572
#
#
#
# Elastic Compliance Matrix: (Units=1/GPa)
#
#
# Indices 1 2 3 4 5 6 
#
# 1 0.078588 -0.005992 -0.004137 0.000000 0.039047 0.000000
# 2 -0.005992 0.011245 -0.002755 0.000000 -0.005491 0.000000
# 3 -0.004137 -0.002755 0.015774 0.000000 0.013437 0.000000
# 4 0.000000 0.000000 0.000000 0.150747 0.000000 0.145397
# 5 0.039047 -0.005491 0.013437 0.000000 0.061680 0.000000
# 6 0.000000 0.000000 0.000000 0.145397 0.000000 0.211885
#
#
# Mechanical properties :
#
#
# Convention : Reuss Voigt Hill
#
# Bulk Modulus (GPa) = 12.52501 38.10612 25.31557
# Shear Modulus (GPa) = 8.58663 25.66685 17.12674
#
# Velocity S-wave (km/s) = 1.90690 3.29688 2.69311
# Velocity P-wave (km/s) = 3.18629 5.53441 4.51565
#
# Compressibility (1/GPa) = 0.07984026
#
# Stress axis : x y z
#
# Youngs Moduli (GPa) = 12.72457 88.92777 63.39458
#
# Poissons Ratio (x) = 0.53285 0.26226
# Poissons Ratio (y) = 0.07624 0.17463
# Poissons Ratio (z) = 0.05264 0.24497
#
# Static dielectric constant tensor:
#      x y z
#    x 1.938210 0.000000 -0.035900 
#    y 0.000000 1.919940 0.000000 
#    z -0.035900 0.000000 2.079630 
# 
# From -- ./inp_files/14059.got.cif
#   From: 2010.05.17/outbox.cif.g08.bks.cpg/sg15_8_cif.got.tgz:14059.got - 2010.06.03 18:47:42.
