data_PCOD9261386
_publ_section_title
;
Structure prediction by ZEFSAII (Michael W. Deem and Ramdas Pophale) SiO2 
 PCOD9261386
Probable space group: C 2/C
;
_chemical_formula_sum "Si O2"
_cell_formula_units_Z 60
_cell_length_a 21.599335
_cell_length_b 26.309179
_cell_length_c 5.591764
_cell_angle_alpha 90.000000
_cell_angle_beta 116.364866
_cell_angle_gamma 90.000000
_cell_volume 2847.061722
_symmetry_space_group_name_H-M "C 2/C"
_symmetry_group_IT_number 15
_symmetry_cell_setting 'monoclinic'
loop_
_space_group_symop_operation_xyz
x,y,z
-x,y,1/2-z
-x,-y,-z
x,-y,1/2+z
1/2+x,1/2+y,z
1/2-x,1/2+y,1/2-z
1/2-x,1/2-y,-z
1/2+x,1/2-y,1/2+z
loop_
_atom_site_type_symbol
_atom_site_label
_atom_site_fract_x
_atom_site_fract_y
_atom_site_fract_z
Si Si1 0.780181 0.523705 0.712679
Si Si2 0.113652 0.765064 0.514476
Si Si3 0.070204 0.445745 0.982536
Si Si4 0.621607 0.289797 0.031038
Si Si5 0.000000 0.374456 0.250000
Si Si6 0.750792 0.140820 0.754435
Si Si7 0.077463 0.342213 0.779570
Si Si8 0.771781 0.694488 0.287295
O O1 0.756814 0.508063 0.405912
O O2 0.757644 0.581083 0.730221
O O3 0.864497 0.520228 0.847562
O O4 0.082646 0.787238 0.215864
O O5 0.109810 0.704910 0.468609
O O6 0.193876 0.783074 0.655128
O O7 0.083474 0.782606 0.714990
O O8 0.099457 0.400307 0.862168
O O9 0.000000 0.469131 0.750000
O O10 0.042532 0.412903 0.156295
O O11 0.670093 0.339429 0.109737
O O12 0.676068 0.241962 0.131873
O O13 0.059262 0.339183 0.469114
O O14 0.722113 0.160885 0.445595
O O15 0.720481 0.164427 0.950469
O O16 0.000000 0.341646 0.750000
#
# Coordination Sequence:
#
# PCOD9261386 Si02
#       8
#     8   8   8   8   4   8   8   8
#     4  12  28  41  55  78  91 131 181 217 282 321
#     4  10  19  29  47  74 104 126 167 195 228 311
#     4   9  22  38  55  68  91 125 176 228 284 305
#     4  10  20  30  50  82  98 126 160 189 261 307
#     4   8  18  38  50  72  92 132 172 208 284 304
#     4  10  20  37  51  69 107 122 150 214 250 308
#     4   9  20  32  49  75 101 140 169 207 260 307
#     4  10  19  32  52  81  97 128 156 189 264 308
#
# _framework density 21.074359000000001
#
# number of rings (size 3 to 8) (size 9 to 14) (size 15 to 20)
#    0.000    2.400    0.000    4.800   13.067    0.533 
#    0.000    0.000    0.000    0.000    0.000    0.000 
#    0.000    0.000    0.000    0.000    0.000  213.333 
#
# Total GULP energy -167380.848064 kJ/mol
# GULP energy per Si atom -5579.361602 kJ/mol
# Density = 2.102639 g / cm^3
# Si number density = 21.074359 Si / 1000 Ang^3
#
#
#
# Elastic Constant Matrix: (Units=GPa)
#
#
# Indices 1 2 3 4 5 6 
#
# 1 23.1260 15.9679 30.2881 0.0000 -10.9696 0.0000
# 2 15.9679 79.4215 33.0181 0.0000 -4.0036 0.0000
# 3 30.2881 33.0181 138.8409 0.0000 -40.7036 0.0000
# 4 0.0000 0.0000 0.0000 32.0235 0.0000 -2.6102
# 5 -10.9696 -4.0036 -40.7036 0.0000 29.0621 0.0000
# 6 0.0000 0.0000 0.0000 -2.6102 0.0000 19.8610
#
#
#
# Elastic Compliance Matrix: (Units=1/GPa)
#
#
# Indices 1 2 3 4 5 6 
#
# 1 0.066755 -0.009060 -0.009140 0.000000 0.011148 0.000000
# 2 -0.009060 0.015579 -0.003566 0.000000 -0.006268 0.000000
# 3 -0.009140 -0.003566 0.015082 0.000000 0.017182 0.000000
# 4 0.000000 0.000000 0.000000 0.031565 0.000000 0.004148
# 5 0.011148 -0.006268 0.017182 0.000000 0.061817 0.000000
# 6 0.000000 0.000000 0.000000 0.004148 0.000000 0.050895
#
#
# Mechanical properties :
#
#
# Convention : Reuss Voigt Hill
#
# Bulk Modulus (GPa) = 18.55818 44.43739 31.49779
# Shear Modulus (GPa) = 16.49150 26.99697 21.74423
#
# Velocity S-wave (km/s) = 2.80042 3.58304 3.21563
# Velocity P-wave (km/s) = 4.39109 6.18460 5.36335
#
# Compressibility (1/GPa) = 0.05388458
#
# Stress axis : x y z
#
# Youngs Moduli (GPa) = 14.98007 64.18863 66.30636
#
# Poissons Ratio (x) = 0.58152 0.60604
# Poissons Ratio (y) = 0.13571 0.23646
# Poissons Ratio (z) = 0.13692 0.22891
#
# Static dielectric constant tensor:
#      x y z
#    x 1.835180 0.000000 -0.054340 
#    y 0.000000 1.754390 0.000000 
#    z -0.054340 0.000000 2.068910 
# 
# From -- ./inp_files/17689.got.cif
#   From: 2010.05.17/outbox.cif.g08.bks.cpg/sg15_9_cif.got.tgz:17689.got - 2010.06.03 18:47:42.
