data_PCOD9261759
_publ_section_title
;
Structure prediction by ZEFSAII (Michael W. Deem and Ramdas Pophale) SiO2 
 PCOD9261759
Probable space group: C 2/C
;
_chemical_formula_sum "Si O2"
_cell_formula_units_Z 48
_cell_length_a 23.206588
_cell_length_b 13.644330
_cell_length_c 12.615126
_cell_angle_alpha 90.000000
_cell_angle_beta 143.885933
_cell_angle_gamma 90.000000
_cell_volume 2354.297468
_symmetry_space_group_name_H-M "C 2/C"
_symmetry_group_IT_number 15
_symmetry_cell_setting 'monoclinic'
loop_
_space_group_symop_operation_xyz
x,y,z
-x,y,1/2-z
-x,-y,-z
x,-y,1/2+z
1/2+x,1/2+y,z
1/2-x,1/2+y,1/2-z
1/2-x,1/2-y,-z
1/2+x,1/2-y,1/2+z
loop_
_atom_site_type_symbol
_atom_site_label
_atom_site_fract_x
_atom_site_fract_y
_atom_site_fract_z
Si Si1 0.287342 0.300296 0.448937
Si Si2 0.397467 0.369563 0.325098
Si Si3 0.305649 0.091162 0.859833
Si Si4 0.887370 0.768688 0.101348
Si Si5 0.410691 0.413337 0.781590
Si Si6 0.249104 0.123963 0.269258
O O1 0.250000 0.250000 0.500000
O O2 0.199041 0.358059 0.261654
O O3 0.369616 0.374709 0.609694
O O4 0.314264 0.213948 0.408178
O O5 0.302729 0.392071 0.253411
O O6 0.373042 0.284876 0.205144
O O7 0.423107 0.469468 0.298115
O O8 0.491666 0.642514 0.038515
O O9 0.312103 0.974841 0.854922
O O10 0.372402 0.158033 0.034883
O O11 0.000000 0.797033 0.250000
O O12 0.812272 0.837950 0.923584
O O13 0.332034 0.393994 0.758989
#
# Coordination Sequence:
#
# PCOD9261759 Si02
#       6
#     8   8   8   8   8   8
#     4   9  18  33  54  78 107 146 179 222 272 330
#     4  10  19  31  52  83 111 134 176 233 281 317
#     4  10  21  34  53  80 108 139 180 232 275 322
#     4  11  20  34  56  77 105 146 182 221 271 332
#     4   9  17  31  52  83 109 135 176 227 275 326
#     4   9  18  34  54  79 106 142 183 219 273 326
#
# _framework density 20.388247
#
# number of rings (size 3 to 8) (size 9 to 14) (size 15 to 20)
#    0.000    2.333    1.667    1.500    0.000    0.667 
#    0.000    0.000    7.333    1.000    0.000    0.000 
#    0.000    0.000    0.000    0.000    0.000    0.000 
#
# Total GULP energy -133777.800138 kJ/mol
# GULP energy per Si atom -5574.075006 kJ/mol
# Density = 2.034184 g / cm^3
# Si number density = 20.388247 Si / 1000 Ang^3
#
#
#
# Elastic Constant Matrix: (Units=GPa)
#
#
# Indices 1 2 3 4 5 6 
#
# 1 23.1433 -5.7316 2.6343 0.0000 -3.6831 0.0000
# 2 -5.7316 106.1313 22.4715 0.0000 -14.5157 0.0000
# 3 2.6343 22.4715 76.4360 0.0000 -18.7488 0.0000
# 4 0.0000 0.0000 0.0000 15.8693 0.0000 -4.2498
# 5 -3.6831 -14.5157 -18.7488 0.0000 19.7087 0.0000
# 6 0.0000 0.0000 0.0000 -4.2498 0.0000 18.2372
#
#
#
# Elastic Compliance Matrix: (Units=1/GPa)
#
#
# Indices 1 2 3 4 5 6 
#
# 1 0.046067 0.004068 0.000082 0.000000 0.011683 0.000000
# 2 0.004068 0.010980 -0.001563 0.000000 0.007360 0.000000
# 3 0.000082 -0.001563 0.017297 0.000000 0.015319 0.000000
# 4 0.000000 0.000000 0.000000 0.067209 0.000000 0.015662
# 5 0.011683 0.007360 0.015319 0.000000 0.072916 0.000000
# 6 0.000000 0.000000 0.000000 0.015662 0.000000 0.058483
#
#
# Mechanical properties :
#
#
# Convention : Reuss Voigt Hill
#
# Bulk Modulus (GPa) = 12.57566 27.16212 19.86889
# Shear Modulus (GPa) = 16.99052 23.18546 20.08799
#
# Velocity S-wave (km/s) = 2.88991 3.37589 3.14231
# Velocity P-wave (km/s) = 4.16136 5.34293 4.78873
#
# Compressibility (1/GPa) = 0.07951871
#
# Stress axis : x y z
#
# Youngs Moduli (GPa) = 21.70766 91.07837 57.81353
#
# Poissons Ratio (x) = -0.37054 -0.00475
# Poissons Ratio (y) = -0.08831 0.09035
# Poissons Ratio (z) = -0.00178 0.14233
#
# Static dielectric constant tensor:
#      x y z
#    x 1.755200 0.000000 -0.024790 
#    y 0.000000 1.812430 0.000000 
#    z -0.024790 0.000000 1.722740 
# 
# From -- ./inp_files/178205.got.cif
#   From: 2010.05.17/outbox.cif.g08.bks.cpg/sg15_90_cif.got.tgz:178205.got - 2010.06.03 18:47:42.
