data_PCOD9261392
_publ_section_title
;
Structure prediction by ZEFSAII (Michael W. Deem and Ramdas Pophale) SiO2 
 PCOD9261392
Probable space group: C 2/C
;
_chemical_formula_sum "Si O2"
_cell_formula_units_Z 56
_cell_length_a 13.507398
_cell_length_b 26.743101
_cell_length_c 13.065542
_cell_angle_alpha 90.000000
_cell_angle_beta 42.698604
_cell_angle_gamma 90.000000
_cell_volume 3200.599868
_symmetry_space_group_name_H-M "C 2/C"
_symmetry_group_IT_number 15
_symmetry_cell_setting 'monoclinic'
loop_
_space_group_symop_operation_xyz
x,y,z
-x,y,1/2-z
-x,-y,-z
x,-y,1/2+z
1/2+x,1/2+y,z
1/2-x,1/2+y,1/2-z
1/2-x,1/2-y,-z
1/2+x,1/2-y,1/2+z
loop_
_atom_site_type_symbol
_atom_site_label
_atom_site_fract_x
_atom_site_fract_y
_atom_site_fract_z
Si Si1 0.664719 0.424778 0.915106
Si Si2 0.094324 0.119618 0.782911
Si Si3 0.828526 0.674235 0.369147
Si Si4 0.153086 0.221172 0.691636
Si Si5 0.367812 0.062722 0.616821
Si Si6 0.327910 0.976308 0.367111
Si Si7 0.309830 0.051609 0.101855
O O1 0.746658 0.374992 0.892820
O O2 0.733579 0.473957 0.916772
O O3 0.691009 0.432200 0.774376
O O4 0.497319 0.415365 0.071836
O O5 0.116741 0.177240 0.799089
O O6 0.253905 0.097236 0.646188
O O7 0.000000 0.119811 0.750000
O O8 0.801558 0.722610 0.315506
O O9 0.762768 0.695634 0.526231
O O10 0.000000 0.663108 0.250000
O O11 0.000000 0.229592 0.750000
O O12 0.326789 0.057945 0.767353
O O13 0.536982 0.077621 0.483375
O O14 0.344884 0.007177 0.590849
O O15 0.500000 0.990840 0.250000
O O16 0.279044 0.946289 0.504997
#
# Coordination Sequence:
#
# PCOD9261392 Si02
#       7
#     8   8   8   8   8   8   8
#     4  11  20  30  49  73  97 131 166 195 246 293
#     4  11  20  32  47  69 103 134 156 194 247 292
#     4  10  19  29  49  70  95 128 167 198 237 300
#     4   9  18  33  44  68 101 130 155 196 252 293
#     4   9  19  33  49  67  94 132 164 197 249 288
#     4   9  18  34  50  69  99 128 166 214 238 273
#     4   9  19  32  49  72  92 121 174 210 231 283
#
# _framework density 17.49672
#
# number of rings (size 3 to 8) (size 9 to 14) (size 15 to 20)
#    0.000    2.286    2.857    2.143    2.000    2.286 
#    0.000    2.143    0.000    0.000    0.000    1.000 
#    0.000    0.000    0.000    0.000    0.000    0.000 
#
# Total GULP energy -155961.369415 kJ/mol
# GULP energy per Si atom -5570.048908 kJ/mol
# Density = 1.745690 g / cm^3
# Si number density = 17.496720 Si / 1000 Ang^3
#
#
#
# Elastic Constant Matrix: (Units=GPa)
#
#
# Indices 1 2 3 4 5 6 
#
# 1 35.0267 2.6867 6.4569 0.0000 1.8400 0.0000
# 2 2.6867 49.9139 -1.9931 0.0000 -8.9590 0.0000
# 3 6.4569 -1.9931 64.8001 0.0000 3.8939 0.0000
# 4 0.0000 0.0000 0.0000 23.2029 0.0000 -5.5953
# 5 1.8400 -8.9590 3.8939 0.0000 25.6587 0.0000
# 6 0.0000 0.0000 0.0000 -5.5953 0.0000 4.8675
#
#
#
# Elastic Compliance Matrix: (Units=1/GPa)
#
#
# Indices 1 2 3 4 5 6 
#
# 1 0.029365 -0.002128 -0.002846 0.000000 -0.002417 0.000000
# 2 -0.002128 0.021531 0.000417 0.000000 0.007607 0.000000
# 3 -0.002846 0.000417 0.015852 0.000000 -0.002056 0.000000
# 4 0.000000 0.000000 0.000000 0.059626 0.000000 0.068541
# 5 -0.002417 0.007607 -0.002056 0.000000 0.042114 0.000000
# 6 0.000000 0.000000 0.000000 0.068541 0.000000 0.284230
#
#
# Mechanical properties :
#
#
# Convention : Reuss Voigt Hill
#
# Bulk Modulus (GPa) = 17.35101 18.22686 17.78893
# Shear Modulus (GPa) = 10.39407 20.25186 15.32296
#
# Velocity S-wave (km/s) = 2.43997 3.40585 2.96254
# Velocity P-wave (km/s) = 4.22803 5.08982 4.67881
#
# Compressibility (1/GPa) = 0.05763353
#
# Stress axis : x y z
#
# Youngs Moduli (GPa) = 34.05472 46.44449 63.08335
#
# Poissons Ratio (x) = 0.09884 0.17955
# Poissons Ratio (y) = 0.07247 -0.02632
# Poissons Ratio (z) = 0.09693 -0.01938
#
# Static dielectric constant tensor:
#      x y z
#    x 1.598380 0.000000 -0.000600 
#    y 0.000000 1.631610 0.000000 
#    z -0.000600 0.000000 1.687320 
# 
# From -- ./inp_files/156970.got.cif
#   From: 2010.05.17/outbox.cif.g08.bks.cpg/sg15_79_cif.got.tgz:156970.got - 2010.06.03 18:47:42.
