data_PCOD9261427
_publ_section_title
;
Structure prediction by ZEFSAII (Michael W. Deem and Ramdas Pophale) SiO2 
 PCOD9261427
Probable space group: C 2/C
;
_chemical_formula_sum "Si O2"
_cell_formula_units_Z 56
_cell_length_a 21.830482
_cell_length_b 24.042260
_cell_length_c 5.436726
_cell_angle_alpha 90.000000
_cell_angle_beta 116.888032
_cell_angle_gamma 90.000000
_cell_volume 2545.003219
_symmetry_space_group_name_H-M "C 2/C"
_symmetry_group_IT_number 15
_symmetry_cell_setting 'monoclinic'
loop_
_space_group_symop_operation_xyz
x,y,z
-x,y,1/2-z
-x,-y,-z
x,-y,1/2+z
1/2+x,1/2+y,z
1/2-x,1/2+y,1/2-z
1/2-x,1/2-y,-z
1/2+x,1/2-y,1/2+z
loop_
_atom_site_type_symbol
_atom_site_label
_atom_site_fract_x
_atom_site_fract_y
_atom_site_fract_z
Si Si1 0.651068 0.623138 0.628738
Si Si2 0.798518 0.172897 0.277010
Si Si3 0.660703 0.096536 0.025239
Si Si4 0.579666 0.202720 0.876232
Si Si5 0.202076 0.584768 0.600603
Si Si6 0.658447 0.215280 0.516627
Si Si7 0.422422 0.478984 0.403320
O O1 0.660939 0.660249 0.402696
O O2 0.716193 0.580522 0.736923
O O3 0.584734 0.584185 0.518643
O O4 0.659944 0.652960 0.906747
O O5 0.727890 0.138199 0.136561
O O6 0.786154 0.237703 0.313979
O O7 0.672069 0.063037 0.292998
O O8 0.595164 0.136426 0.919610
O O9 0.665399 0.065075 0.778705
O O10 0.500000 0.215822 0.750000
O O11 0.607583 0.219058 0.658221
O O12 0.620580 0.225711 0.188637
O O13 0.187316 0.652455 0.562967
O O14 0.500000 0.500000 0.500000
O O15 0.391199 0.514802 0.572263
#
# Coordination Sequence:
#
# PCOD9261427 Si02
#       7
#     8   8   8   8   8   8   8
#     4  10  19  32  52  76  93 112 154 210 257 302
#     4  10  19  31  51  75  97 118 157 209 260 303
#     4   8  16  27  42  66  86 117 153 196 240 281
#     4  10  19  30  44  57  89 131 175 194 220 284
#     4   8  16  27  44  71  96 116 150 192 244 294
#     4  10  19  31  48  68  95 132 163 198 248 304
#     4  10  21  38  60  74  90 124 167 209 258 328
#
# _framework density 22.003900999999999
#
# number of rings (size 3 to 8) (size 9 to 14) (size 15 to 20)
#    0.000    2.571    0.000    2.143    0.000   10.286 
#    0.000    0.000   31.429    0.000    0.000    0.000 
#    0.000    0.000    0.000    0.000    0.000 1157.143 
#
# Total GULP energy -156125.338289 kJ/mol
# GULP energy per Si atom -5575.904939 kJ/mol
# Density = 2.195382 g / cm^3
# Si number density = 22.003901 Si / 1000 Ang^3
#
#
#
# Elastic Constant Matrix: (Units=GPa)
#
#
# Indices 1 2 3 4 5 6 
#
# 1 74.5959 13.0428 52.4583 0.0000 -22.7567 0.0000
# 2 13.0428 64.5459 11.4315 0.0000 -0.0351 0.0000
# 3 52.4583 11.4315 141.2943 0.0000 -53.9755 0.0000
# 4 0.0000 0.0000 0.0000 3.1108 0.0000 3.7761
# 5 -22.7567 -0.0351 -53.9755 0.0000 53.6936 0.0000
# 6 0.0000 0.0000 0.0000 3.7761 0.0000 8.4869
#
#
#
# Elastic Compliance Matrix: (Units=1/GPa)
#
#
# Indices 1 2 3 4 5 6 
#
# 1 0.018668 -0.002710 -0.005990 0.000000 0.001889 0.000000
# 2 -0.002710 0.016253 -0.001207 0.000000 -0.002351 0.000000
# 3 -0.005990 -0.001207 0.013684 0.000000 0.011216 0.000000
# 4 0.000000 0.000000 0.000000 0.698932 0.000000 -0.310975
# 5 0.001889 -0.002351 0.011216 0.000000 0.030698 0.000000
# 6 0.000000 0.000000 0.000000 -0.310975 0.000000 0.256190
#
#
# Mechanical properties :
#
#
# Convention : Reuss Voigt Hill
#
# Bulk Modulus (GPa) = 34.73444 48.25569 41.49506
# Shear Modulus (GPa) = 4.69997 26.62517 15.66257
#
# Velocity S-wave (km/s) = 1.46308 3.48231 2.67087
# Velocity P-wave (km/s) = 4.32134 6.17631 5.33014
#
# Compressibility (1/GPa) = 0.02878987
#
# Stress axis : x y z
#
# Youngs Moduli (GPa) = 53.56738 61.52706 73.08023
#
# Poissons Ratio (x) = 0.16676 0.43776
# Poissons Ratio (y) = 0.14519 0.08820
# Poissons Ratio (z) = 0.32088 0.07426
#
# Static dielectric constant tensor:
#      x y z
#    x 1.826910 0.000000 -0.058600 
#    y 0.000000 1.874670 0.000000 
#    z -0.058600 0.000000 1.912970 
# 
# From -- ./inp_files/14330.got.cif
#   From: 2010.05.17/outbox.cif.g08.bks.cpg/sg15_8_cif.got.tgz:14330.got - 2010.06.03 18:47:42.
