data_PCOD9261807
_publ_section_title
;
Structure prediction by ZEFSAII (Michael W. Deem and Ramdas Pophale) SiO2 
 PCOD9261807
Probable space group: C 2/C
;
_chemical_formula_sum "Si O2"
_cell_formula_units_Z 44
_cell_length_a 14.849564
_cell_length_b 19.821079
_cell_length_c 12.449759
_cell_angle_alpha 90.000000
_cell_angle_beta 139.090839
_cell_angle_gamma 90.000000
_cell_volume 2399.669895
_symmetry_space_group_name_H-M "C 2/C"
_symmetry_group_IT_number 15
_symmetry_cell_setting 'monoclinic'
loop_
_space_group_symop_operation_xyz
x,y,z
-x,y,1/2-z
-x,-y,-z
x,-y,1/2+z
1/2+x,1/2+y,z
1/2-x,1/2+y,1/2-z
1/2-x,1/2-y,-z
1/2+x,1/2-y,1/2+z
loop_
_atom_site_type_symbol
_atom_site_label
_atom_site_fract_x
_atom_site_fract_y
_atom_site_fract_z
Si Si1 0.313789 0.526862 0.196560
Si Si2 0.261188 0.829729 0.503370
Si Si3 0.629386 0.901984 0.099435
Si Si4 0.345586 0.937645 0.150551
Si Si5 0.000000 0.071580 0.750000
Si Si6 0.333518 0.917840 0.755902
O O1 0.196653 0.470626 0.114430
O O2 0.447693 0.481014 0.294578
O O3 0.300063 0.574605 0.287989
O O4 0.265134 0.564769 0.044702
O O5 0.250000 0.750000 0.500000
O O6 0.328733 0.847100 0.449975
O O7 0.125066 0.877588 0.387006
O O8 0.340919 0.856847 0.679265
O O9 0.682525 0.893532 0.268489
O O10 0.466180 0.911588 0.951322
O O11 0.500000 0.923391 0.250000
O O12 0.343760 0.014645 0.193246
#
# Coordination Sequence:
#
# PCOD9261807 Si02
#       6
#     8   8   8   8   4   8
#     4  10  19  32  53  82 113 139 170 228 290 332
#     4  11  24  38  53  76 111 153 190 223 268 331
#     4  10  19  31  54  82 107 139 183 224 274 322
#     4  11  15  30  53  84 111 125 172 232 277 325
#     4  10  22  38  48  82 112 148 182 218 290 332
#     4  11  18  32  56  81 108 141 180 227 279 325
#
# _framework density 18.335856
#
# number of rings (size 3 to 8) (size 9 to 14) (size 15 to 20)
#    0.000    1.455    7.273    1.636    2.545    0.727 
#    3.273    0.000    0.000    1.091    2.364    0.000 
#    0.000    0.000    0.000    0.000    0.000    0.000 
#
# Total GULP energy -122547.968390 kJ/mol
# GULP energy per Si atom -5570.362200 kJ/mol
# Density = 1.829412 g / cm^3
# Si number density = 18.335856 Si / 1000 Ang^3
#
#
#
# Elastic Constant Matrix: (Units=GPa)
#
#
# Indices 1 2 3 4 5 6 
#
# 1 116.0097 46.7637 27.8626 0.0000 -18.7523 0.0000
# 2 46.7637 75.5085 1.7122 0.0000 -16.5909 0.0000
# 3 27.8626 1.7122 38.9160 0.0000 -15.4053 0.0000
# 4 0.0000 0.0000 0.0000 7.2546 0.0000 -5.5672
# 5 -18.7523 -16.5909 -15.4053 0.0000 37.2721 0.0000
# 6 0.0000 0.0000 0.0000 -5.5672 0.0000 18.7829
#
#
#
# Elastic Compliance Matrix: (Units=1/GPa)
#
#
# Indices 1 2 3 4 5 6 
#
# 1 0.014611 -0.009029 -0.010455 0.000000 -0.000990 0.000000
# 2 -0.009029 0.020436 0.008810 0.000000 0.008195 0.000000
# 3 -0.010455 0.008810 0.038576 0.000000 0.014605 0.000000
# 4 0.000000 0.000000 0.000000 0.178427 0.000000 0.052885
# 5 -0.000990 0.008195 0.014605 0.000000 0.036017 0.000000
# 6 0.000000 0.000000 0.000000 0.052885 0.000000 0.068915
#
#
# Mechanical properties :
#
#
# Convention : Reuss Voigt Hill
#
# Bulk Modulus (GPa) = 19.13005 42.56789 30.84897
# Shear Modulus (GPa) = 12.63405 22.93499 17.78452
#
# Velocity S-wave (km/s) = 2.62780 3.54054 3.11775
# Velocity P-wave (km/s) = 4.43428 6.32297 5.46090
#
# Compressibility (1/GPa) = 0.05227378
#
# Stress axis : x y z
#
# Youngs Moduli (GPa) = 68.44281 48.93248 25.92269
#
# Poissons Ratio (x) = 0.44181 0.27103
# Poissons Ratio (y) = 0.61797 -0.22837
# Poissons Ratio (z) = 0.71559 -0.43108
#
# Static dielectric constant tensor:
#      x y z
#    x 1.698760 0.000000 -0.002320 
#    y 0.000000 1.595910 0.000000 
#    z -0.002320 0.000000 1.716540 
# 
# From -- ./inp_files/49584.got.cif
#   From: 2010.05.17/outbox.cif.g08.bks.cpg/sg15_25_cif.got.tgz:49584.got - 2010.06.03 18:47:42.
