data_PCOD9261455
_publ_section_title
;
Structure prediction by ZEFSAII (Michael W. Deem and Ramdas Pophale) SiO2 
 PCOD9261455
Probable space group: C 2/C
;
_chemical_formula_sum "Si O2"
_cell_formula_units_Z 56
_cell_length_a 14.285455
_cell_length_b 24.650165
_cell_length_c 12.098867
_cell_angle_alpha 90.000000
_cell_angle_beta 44.817905
_cell_angle_gamma 90.000000
_cell_volume 3003.025090
_symmetry_space_group_name_H-M "C 2/C"
_symmetry_group_IT_number 15
_symmetry_cell_setting 'monoclinic'
loop_
_space_group_symop_operation_xyz
x,y,z
-x,y,1/2-z
-x,-y,-z
x,-y,1/2+z
1/2+x,1/2+y,z
1/2-x,1/2+y,1/2-z
1/2-x,1/2-y,-z
1/2+x,1/2-y,1/2+z
loop_
_atom_site_type_symbol
_atom_site_label
_atom_site_fract_x
_atom_site_fract_y
_atom_site_fract_z
Si Si1 0.165839 0.701561 0.202302
Si Si2 0.602607 0.224990 0.995990
Si Si3 0.582548 0.538248 0.289295
Si Si4 0.001763 0.084645 0.581309
Si Si5 0.204008 0.586825 0.107495
Si Si6 0.848620 0.499837 0.667017
Si Si7 0.215201 0.613280 0.850727
O O1 0.310486 0.723620 0.110910
O O2 0.145978 0.637153 0.225154
O O3 0.054596 0.731163 0.367488
O O4 0.141444 0.713299 0.092354
O O5 0.645712 0.170950 0.894512
O O6 0.500000 0.554050 0.250000
O O7 0.538017 0.579262 0.422412
O O8 0.532541 0.477094 0.355844
O O9 0.742431 0.529010 0.170865
O O10 0.874610 0.120566 0.715069
O O11 0.138204 0.098270 0.526959
O O12 0.172416 0.532394 0.200384
O O13 0.165629 0.589971 0.011555
O O14 0.809723 0.563164 0.710425
O O15 0.000000 0.500000 0.500000
#
# Coordination Sequence:
#
# PCOD9261455 Si02
#       7
#     8   8   8   8   8   8   8
#     4   9  18  30  45  64  93 126 166 199 236 291
#     4   9  18  30  44  66  91 128 165 199 236 290
#     4   9  17  31  46  65  96 127 165 204 238 282
#     4   9  17  27  45  69  90 126 165 196 234 291
#     4  10  19  31  47  69 100 132 163 199 248 293
#     4  10  20  31  46  69  96 131 165 202 244 302
#     4  10  19  30  47  68 101 133 162 199 246 291
#
# _framework density 18.647863000000001
#
# number of rings (size 3 to 8) (size 9 to 14) (size 15 to 20)
#    0.000    2.571    0.000    3.857    2.000    1.714 
#    0.000    0.000    0.000    0.000    0.000    0.000 
#    0.000   10.286    1.143    0.000    0.000    0.857 
#
# Total GULP energy -155946.509051 kJ/mol
# GULP energy per Si atom -5569.518180 kJ/mol
# Density = 1.860542 g / cm^3
# Si number density = 18.647863 Si / 1000 Ang^3
#
#
#
# Elastic Constant Matrix: (Units=GPa)
#
#
# Indices 1 2 3 4 5 6 
#
# 1 47.5682 1.4649 21.7862 0.0000 -5.5976 0.0000
# 2 1.4649 60.9822 21.3733 0.0000 4.1770 0.0000
# 3 21.7862 21.3733 72.1975 0.0000 -25.5396 0.0000
# 4 0.0000 0.0000 0.0000 23.9681 0.0000 -3.4034
# 5 -5.5976 4.1770 -25.5396 0.0000 30.7780 0.0000
# 6 0.0000 0.0000 0.0000 -3.4034 0.0000 12.6215
#
#
#
# Elastic Compliance Matrix: (Units=1/GPa)
#
#
# Indices 1 2 3 4 5 6 
#
# 1 0.024992 0.003167 -0.009941 0.000000 -0.004134 0.000000
# 2 0.003167 0.021097 -0.011339 0.000000 -0.011696 0.000000
# 3 -0.009941 -0.011339 0.028469 0.000000 0.023354 0.000000
# 4 0.000000 0.000000 0.000000 0.043383 0.000000 0.011698
# 5 -0.004134 -0.011696 0.023354 0.000000 0.052706 0.000000
# 6 0.000000 0.000000 0.000000 0.011698 0.000000 0.082385
#
#
# Mechanical properties :
#
#
# Convention : Reuss Voigt Hill
#
# Bulk Modulus (GPa) = 26.08799 29.99965 28.04382
# Shear Modulus (GPa) = 16.55439 22.54844 19.55141
#
# Velocity S-wave (km/s) = 2.98272 3.48108 3.24150
# Velocity P-wave (km/s) = 5.08747 5.68152 5.39268
#
# Compressibility (1/GPa) = 0.03833182
#
# Stress axis : x y z
#
# Youngs Moduli (GPa) = 40.01354 47.39935 35.12586
#
# Poissons Ratio (x) = -0.15012 0.34920
# Poissons Ratio (y) = -0.12673 0.39829
# Poissons Ratio (z) = 0.39779 0.53745
#
# Static dielectric constant tensor:
#      x y z
#    x 1.713980 0.000000 -0.039150 
#    y 0.000000 1.661910 0.000000 
#    z -0.039150 0.000000 1.693670 
# 
# From -- ./inp_files/101078.got.cif
#   From: 2010.05.17/outbox.cif.g08.bks.cpg/sg15_51_cif.got.tgz:101078.got - 2010.06.03 18:47:42.
