data_PCOD9261335
_publ_section_title
;
Structure prediction by ZEFSAII (Michael W. Deem and Ramdas Pophale) SiO2 
 PCOD9261335
Probable space group: C 2/C
;
_chemical_formula_sum "Si O2"
_cell_formula_units_Z 36
_cell_length_a 7.659003
_cell_length_b 19.726388
_cell_length_c 14.175375
_cell_angle_alpha 90.000000
_cell_angle_beta 38.363733
_cell_angle_gamma 90.000000
_cell_volume 1329.236453
_symmetry_space_group_name_H-M "C 2/C"
_symmetry_group_IT_number 15
_symmetry_cell_setting 'monoclinic'
loop_
_space_group_symop_operation_xyz
x,y,z
-x,y,1/2-z
-x,-y,-z
x,-y,1/2+z
1/2+x,1/2+y,z
1/2-x,1/2+y,1/2-z
1/2-x,1/2-y,-z
1/2+x,1/2-y,1/2+z
loop_
_atom_site_type_symbol
_atom_site_label
_atom_site_fract_x
_atom_site_fract_y
_atom_site_fract_z
Si Si1 0.104580 0.602898 0.037430
Si Si2 0.731470 0.223903 0.235619
Si Si3 0.240479 0.971963 0.466028
Si Si4 0.000000 0.027169 0.750000
Si Si5 0.648086 0.337152 0.417599
O O1 0.382154 0.629340 0.974617
O O2 0.881840 0.661418 0.151552
O O3 0.027625 0.531411 0.121377
O O4 0.233484 0.579585 0.881159
O O5 0.500000 0.236663 0.250000
O O6 0.769459 0.287249 0.287584
O O7 0.007720 0.204323 0.062108
O O8 0.310133 0.898640 0.398940
O O9 0.088607 0.975401 0.630629
O O10 0.000000 0.000000 0.500000
#
# Coordination Sequence:
#
# PCOD9261335 Si02
#       5
#     8   8   8   4   8
#     4   8  16  28  47  69  96 128 164 206 257 291
#     4  10  19  28  46  76 105 130 161 211 259 302
#     4   8  16  29  47  71  96 135 168 202 250 308
#     4   8  16  28  52  66  96 130 164 208 254 290
#     4  10  19  28  46  74 105 130 165 204 256 308
#
# _framework density 27.083214999999999
#
# number of rings (size 3 to 8) (size 9 to 14) (size 15 to 20)
#    1.333    1.778    0.000    2.667    4.667    0.000 
#    0.000    1.111    0.000    6.667    0.000    1.556 
#    0.000    0.000    0.000    0.000    0.000    0.000 
#
# Total GULP energy -100489.541609 kJ/mol
# GULP energy per Si atom -5582.752312 kJ/mol
# Density = 2.702157 g / cm^3
# Si number density = 27.083215 Si / 1000 Ang^3
#
#
#
# Elastic Constant Matrix: (Units=GPa)
#
#
# Indices 1 2 3 4 5 6 
#
# 1 66.8328 58.0040 32.8375 -0.0005 2.7628 0.0001
# 2 58.0040 235.2134 97.3297 -0.0004 26.6133 0.0001
# 3 32.8375 97.3297 206.5587 -0.0012 24.5392 0.0005
# 4 -0.0005 -0.0004 -0.0012 54.2225 0.0007 17.3312
# 5 2.7628 26.6133 24.5392 0.0007 29.3508 -0.0002
# 6 0.0001 0.0001 0.0005 17.3312 -0.0002 42.7692
#
#
#
# Elastic Compliance Matrix: (Units=1/GPa)
#
#
# Indices 1 2 3 4 5 6 
#
# 1 0.019512 -0.004660 -0.001321 0.000000 0.003493 0.000000
# 2 -0.004660 0.006645 -0.001917 0.000000 -0.003984 0.000000
# 3 -0.001321 -0.001917 0.006365 0.000000 -0.003460 0.000000
# 4 0.000000 0.000000 0.000000 0.021187 -0.000001 -0.008585
# 5 0.003493 -0.003984 -0.003460 -0.000001 0.040246 0.000001
# 6 0.000000 0.000000 0.000000 -0.008585 0.000001 0.026860
#
#
# Mechanical properties :
#
#
# Convention : Reuss Voigt Hill
#
# Bulk Modulus (GPa) = 59.78780 98.32748 79.05764
# Shear Modulus (GPa) = 35.16500 46.63076 40.89788
#
# Velocity S-wave (km/s) = 3.60725 4.15391 3.89019
# Velocity P-wave (km/s) = 6.28277 7.70656 7.03080
#
# Compressibility (1/GPa) = 0.01672582
#
# Stress axis : x y z
#
# Youngs Moduli (GPa) = 51.25032 150.49849 157.09904
#
# Poissons Ratio (x) = 0.70138 0.20753
# Poissons Ratio (y) = 0.23884 0.30112
# Poissons Ratio (z) = 0.06770 0.28847
#
# Static dielectric constant tensor:
#      x y z
#    x 2.210840 0.000000 -0.013290 
#    y 0.000000 2.104400 0.000000 
#    z -0.013290 0.000000 2.043080 
# 
# From -- ./inp_files/29809.got.cif
#   From: 2010.05.17/outbox.cif.g08.bks.cpg/sg15_15_cif.got.tgz:29809.got - 2010.06.03 18:47:42.
