data_PCOD9261340
_publ_section_title
;
Structure prediction by ZEFSAII (Michael W. Deem and Ramdas Pophale) SiO2 
 PCOD9261340
Probable space group: C 2/C
;
_chemical_formula_sum "Si O2"
_cell_formula_units_Z 48
_cell_length_a 5.375437
_cell_length_b 24.197781
_cell_length_c 20.750595
_cell_angle_alpha 90.000000
_cell_angle_beta 102.909035
_cell_angle_gamma 90.000000
_cell_volume 2630.888321
_symmetry_space_group_name_H-M "C 2/C"
_symmetry_group_IT_number 15
_symmetry_cell_setting 'monoclinic'
loop_
_space_group_symop_operation_xyz
x,y,z
-x,y,1/2-z
-x,-y,-z
x,-y,1/2+z
1/2+x,1/2+y,z
1/2-x,1/2+y,1/2-z
1/2-x,1/2-y,-z
1/2+x,1/2-y,1/2+z
loop_
_atom_site_type_symbol
_atom_site_label
_atom_site_fract_x
_atom_site_fract_y
_atom_site_fract_z
Si Si1 0.819499 0.300357 0.053650
Si Si2 0.923904 0.360723 0.626706
Si Si3 0.842564 0.239171 0.579820
Si Si4 0.852264 0.001178 0.059318
Si Si5 0.019522 0.081713 0.325429
Si Si6 0.051999 0.406957 0.003548
O O1 0.578576 0.302288 0.086508
O O2 0.881241 0.357878 0.022306
O O3 0.089907 0.283080 0.099491
O O4 0.750000 0.250000 0.000000
O O5 0.935742 0.295190 0.618113
O O6 0.719970 0.379958 0.667840
O O7 0.207812 0.386222 0.650916
O O8 0.811370 0.381918 0.551319
O O9 0.750000 0.250000 0.500000
O O10 0.741148 0.939499 0.061891
O O11 0.993158 0.028549 0.127948
O O12 0.626510 0.044858 0.034054
O O13 0.000000 0.000000 0.000000
O O14 0.000000 0.065720 0.250000
#
# Coordination Sequence:
#
# PCOD9261340 Si02
#       6
#     8   8   8   8   8   8
#     4  10  19  28  48  78 121 146 176 221 285 342
#     4  11  20  35  58  80 120 148 189 238 295 355
#     4  10  19  29  49  84 114 147 170 223 285 341
#     4  10  21  34  55  78 116 156 187 250 298 345
#     4  11  24  39  57  81 114 156 203 241 294 361
#     4  10  20  32  50  84 115 152 186 236 302 346
#
# _framework density 18.244786000000001
#
# number of rings (size 3 to 8) (size 9 to 14) (size 15 to 20)
#    0.000    1.667    5.000    1.500    9.333    0.000 
#    0.000    0.000    0.000    0.000    0.000    4.667 
#    5.000    0.000    0.000    0.000    0.000    0.000 
#
# Total GULP energy -133628.944283 kJ/mol
# GULP energy per Si atom -5567.872678 kJ/mol
# Density = 1.820326 g / cm^3
# Si number density = 18.244786 Si / 1000 Ang^3
#
#
#
# Elastic Constant Matrix: (Units=GPa)
#
#
# Indices 1 2 3 4 5 6 
#
# 1 113.5928 17.4586 16.8136 0.0000 -12.1575 0.0000
# 2 17.4586 89.3637 24.8821 0.0000 -4.7506 0.0000
# 3 16.8136 24.8821 66.7443 0.0000 -12.9067 0.0000
# 4 0.0000 0.0000 0.0000 17.3031 0.0000 -2.4539
# 5 -12.1575 -4.7506 -12.9067 0.0000 19.4887 0.0000
# 6 0.0000 0.0000 0.0000 -2.4539 0.0000 29.1764
#
#
#
# Elastic Compliance Matrix: (Units=1/GPa)
#
#
# Indices 1 2 3 4 5 6 
#
# 1 0.009698 -0.001359 -0.000953 0.000000 0.005088 0.000000
# 2 -0.001359 0.012677 -0.004530 0.000000 -0.000758 0.000000
# 3 -0.000953 -0.004530 0.019018 0.000000 0.010897 0.000000
# 4 0.000000 0.000000 0.000000 0.058491 0.000000 0.004919
# 5 0.005088 -0.000758 0.010897 0.000000 0.061518 0.000000
# 6 0.000000 0.000000 0.000000 0.004919 0.000000 0.034688
#
#
# Mechanical properties :
#
#
# Convention : Reuss Voigt Hill
#
# Bulk Modulus (GPa) = 36.08813 43.11213 39.60013
# Shear Modulus (GPa) = 22.83013 27.23008 25.03010
#
# Velocity S-wave (km/s) = 3.54124 3.86746 3.70794
# Velocity P-wave (km/s) = 6.04512 6.60486 6.33118
#
# Compressibility (1/GPa) = 0.02770994
#
# Stress axis : x y z
#
# Youngs Moduli (GPa) = 103.11676 78.88444 52.58042
#
# Poissons Ratio (x) = 0.10720 0.05008
# Poissons Ratio (y) = 0.14013 0.23819
# Poissons Ratio (z) = 0.09822 0.35735
#
# Static dielectric constant tensor:
#      x y z
#    x 1.696410 0.000000 0.035050 
#    y 0.000000 1.636850 0.000000 
#    z 0.035050 0.000000 1.619270 
# 
# From -- ./inp_files/227738.got.cif
#   From: 2010.05.17/outbox.cif.g08.bks.cpg/sg15_114_cif.got.tgz:227738.got - 2010.06.03 18:47:42.
