data_PCOD9261766
_publ_section_title
;
Structure prediction by ZEFSAII (Michael W. Deem and Ramdas Pophale) SiO2 
 PCOD9261766
Probable space group: C 2/C
;
_chemical_formula_sum "Si O2"
_cell_formula_units_Z 36
_cell_length_a 14.138567
_cell_length_b 32.215479
_cell_length_c 5.301700
_cell_angle_alpha 90.000000
_cell_angle_beta 121.367860
_cell_angle_gamma 90.000000
_cell_volume 2061.878735
_symmetry_space_group_name_H-M "C 2/C"
_symmetry_group_IT_number 15
_symmetry_cell_setting 'monoclinic'
loop_
_space_group_symop_operation_xyz
x,y,z
-x,y,1/2-z
-x,-y,-z
x,-y,1/2+z
1/2+x,1/2+y,z
1/2-x,1/2+y,1/2-z
1/2-x,1/2-y,-z
1/2+x,1/2-y,1/2+z
loop_
_atom_site_type_symbol
_atom_site_label
_atom_site_fract_x
_atom_site_fract_y
_atom_site_fract_z
Si Si1 0.500000 0.720599 0.750000
Si Si2 0.873352 0.016812 0.862453
Si Si3 0.564623 0.801929 0.594336
Si Si4 0.305935 0.340862 0.897822
Si Si5 0.372780 0.613149 0.006554
O O1 0.557007 0.752205 0.631152
O O2 0.404788 0.692334 0.498756
O O3 0.822179 0.010340 0.516071
O O4 0.870015 0.064106 0.946035
O O5 0.000000 0.000000 0.000000
O O6 0.500000 0.819352 0.750000
O O7 0.689151 0.817800 0.756280
O O8 0.500000 0.812224 0.250000
O O9 0.306351 0.372037 0.660825
O O10 0.334089 0.363815 0.199525
O O11 0.500000 0.623163 0.250000
#
# Coordination Sequence:
#
# PCOD9261766 Si02
#       5
#     4   8   8   8   8
#     4  10  24  36  62  80 114 152 192 244 302 334
#     4  10  19  31  53  75 118 163 173 208 269 363
#     4  10  24  41  60  78 109 154 207 242 290 328
#     4  12  24  38  57  86 119 148 201 238 285 346
#     4  12  22  35  54  86 121 159 176 227 288 341
#
# _framework density 17.459806
#
# number of rings (size 3 to 8) (size 9 to 14) (size 15 to 20)
#    0.667    0.444    4.444    3.333    6.222    0.889 
#    0.000    0.000    0.000    0.000    0.000    0.000 
#    0.000   62.222    0.000    0.000    0.000    0.000 
#
# Total GULP energy -100353.682907 kJ/mol
# GULP energy per Si atom -5575.204606 kJ/mol
# Density = 1.742007 g / cm^3
# Si number density = 17.459806 Si / 1000 Ang^3
#
#
#
# Elastic Constant Matrix: (Units=GPa)
#
#
# Indices 1 2 3 4 5 6 
#
# 1 101.4314 70.0735 59.2504 0.0000 -11.6258 0.0000
# 2 70.0735 109.9969 68.0040 0.0000 2.3197 0.0000
# 3 59.2504 68.0040 110.0009 0.0000 -28.3068 0.0000
# 4 0.0000 0.0000 0.0000 0.9026 0.0000 -10.5425
# 5 -11.6258 2.3197 -28.3068 0.0000 42.4438 0.0000
# 6 0.0000 0.0000 0.0000 -10.5425 0.0000 -5.9661
#
#
#
# Elastic Compliance Matrix: (Units=1/GPa)
#
#
# Indices 1 2 3 4 5 6 
#
# 1 0.019313 -0.010681 -0.002762 0.000000 0.004032 0.000000
# 2 -0.010681 0.023517 -0.011914 0.000000 -0.012157 0.000000
# 3 -0.002762 -0.011914 0.021629 0.000000 0.014319 0.000000
# 4 0.000000 0.000000 0.000000 0.051198 0.000000 -0.090470
# 5 0.004032 -0.012157 0.014319 0.000000 0.034879 0.000000
# 6 0.000000 0.000000 0.000000 -0.090470 0.000000 -0.007746
#
#
# Mechanical properties :
#
#
# Convention : Reuss Voigt Hill
#
# Bulk Modulus (GPa) = 72.75183 79.56502 76.15842
# Shear Modulus (GPa) = 25.24144 15.74949 20.49547
#
# Velocity S-wave (km/s) = 3.80635 3.00666 3.42989
# Velocity P-wave (km/s) = 7.81513 7.59754 7.70711
#
# Compressibility (1/GPa) = 0.01374536
#
# Stress axis : x y z
#
# Youngs Moduli (GPa) = 51.77753 42.52175 46.23420
#
# Poissons Ratio (x) = 0.45417 0.12772
# Poissons Ratio (y) = 0.55302 0.55083
# Poissons Ratio (z) = 0.14303 0.50660
#
# Static dielectric constant tensor:
#      x y z
#    x 1.641120 0.000000 0.088090 
#    y 0.000000 1.606750 0.000000 
#    z 0.088090 0.000000 2.033970 
# 
# From -- ./inp_files/8568.got.cif
#   From: 2010.05.17/outbox.cif.g08.bks.cpg/sg15_5_cif.got.tgz:8568.got - 2010.06.03 18:47:42.
