data_PCOD9261693
_publ_section_title
;
Structure prediction by ZEFSAII (Michael W. Deem and Ramdas Pophale) SiO2 
 PCOD9261693
Probable space group: C 2/C
;
_chemical_formula_sum "Si O2"
_cell_formula_units_Z 56
_cell_length_a 11.047531
_cell_length_b 21.940922
_cell_length_c 24.919222
_cell_angle_alpha 90.000000
_cell_angle_beta 156.803834
_cell_angle_gamma 90.000000
_cell_volume 2379.134288
_symmetry_space_group_name_H-M "C 2/C"
_symmetry_group_IT_number 15
_symmetry_cell_setting 'monoclinic'
loop_
_space_group_symop_operation_xyz
x,y,z
-x,y,1/2-z
-x,-y,-z
x,-y,1/2+z
1/2+x,1/2+y,z
1/2-x,1/2+y,1/2-z
1/2-x,1/2-y,-z
1/2+x,1/2-y,1/2+z
loop_
_atom_site_type_symbol
_atom_site_label
_atom_site_fract_x
_atom_site_fract_y
_atom_site_fract_z
Si Si1 0.854393 0.054852 0.875637
Si Si2 0.123099 0.414729 0.173988
Si Si3 0.945582 0.912667 0.932876
Si Si4 0.137397 0.472042 0.610018
Si Si5 0.861988 0.330637 0.880234
Si Si6 0.955621 0.692357 0.932387
Si Si7 0.321774 0.693892 0.308298
O O1 0.500000 0.063508 0.750000
O O2 0.867927 0.081994 0.821524
O O3 0.074530 0.083622 0.010676
O O4 0.896890 0.981819 0.893205
O O5 0.066736 0.482767 0.129695
O O6 0.179814 0.370137 0.147318
O O7 0.799568 0.393917 0.066881
O O8 0.766154 0.865835 0.822028
O O9 0.500000 0.473986 0.750000
O O10 0.060233 0.402259 0.588884
O O11 0.000000 0.500000 0.500000
O O12 0.500000 0.326082 0.750000
O O13 0.879903 0.304328 0.827731
O O14 0.054443 0.302430 0.007585
O O15 0.804552 0.747602 0.839005
O O16 0.321425 0.691727 0.066864
#
# Coordination Sequence:
#
# PCOD9261693 Si02
#       7
#     8   8   8   8   8   8   8
#     4   9  18  31  49  72  97 129 165 214 261 313
#     4  10  19  31  50  72 105 132 167 219 263 314
#     4   9  18  32  49  73  98 128 173 211 261 318
#     4  11  22  34  54  83 113 145 177 222 276 326
#     4   9  17  30  46  70 104 133 170 215 266 318
#     4   9  17  29  43  71  97 130 175 210 262 314
#     4   9  17  28  48  67  98 136 166 221 265 309
#
# _framework density 23.537973000000001
#
# number of rings (size 3 to 8) (size 9 to 14) (size 15 to 20)
#    0.000    2.571    1.429    0.857    4.000    1.143 
#    0.000    5.714    0.000    0.857    0.000    1.000 
#    0.000    0.000    0.000    0.000    0.000    0.000 
#
# Total GULP energy -156449.848945 kJ/mol
# GULP energy per Si atom -5587.494605 kJ/mol
# Density = 2.348440 g / cm^3
# Si number density = 23.537973 Si / 1000 Ang^3
#
#
#
# Elastic Constant Matrix: (Units=GPa)
#
#
# Indices 1 2 3 4 5 6 
#
# 1 78.3477 35.7601 71.0518 -0.0007 -37.9235 0.0024
# 2 35.7601 80.3825 50.1769 0.0119 -52.3979 0.0059
# 3 71.0518 50.1769 145.0945 -0.0108 -59.9138 -0.0016
# 4 -0.0007 0.0119 -0.0108 21.3945 -0.0017 -8.6520
# 5 -37.9235 -52.3979 -59.9138 -0.0017 72.3826 0.0041
# 6 0.0024 0.0059 -0.0016 -8.6520 0.0041 22.8663
#
#
#
# Elastic Compliance Matrix: (Units=1/GPa)
#
#
# Indices 1 2 3 4 5 6 
#
# 1 0.024218 -0.003163 -0.009832 -0.000004 0.002260 -0.000004
# 2 -0.003163 0.024242 -0.000414 -0.000019 0.015549 -0.000016
# 3 -0.009832 -0.000414 0.014584 0.000010 0.006621 0.000005
# 4 -0.000004 -0.000019 0.000010 0.055185 -0.000008 0.020881
# 5 0.002260 0.015549 0.006621 -0.000008 0.031736 -0.000012
# 6 -0.000004 -0.000016 0.000005 0.020881 -0.000012 0.051633
#
#
# Mechanical properties :
#
#
# Convention : Reuss Voigt Hill
#
# Bulk Modulus (GPa) = 27.60496 68.64469 48.12482
# Shear Modulus (GPa) = 20.79084 33.11774 26.95429
#
# Velocity S-wave (km/s) = 2.97524 3.75506 3.38766
# Velocity P-wave (km/s) = 4.85346 6.93017 5.98262
#
# Compressibility (1/GPa) = 0.03622537
#
# Stress axis : x y z
#
# Youngs Moduli (GPa) = 41.29165 41.25150 68.56952
#
# Poissons Ratio (x) = 0.13048 0.67419
# Poissons Ratio (y) = 0.13060 0.02838
# Poissons Ratio (z) = 0.40599 0.01707
#
# Static dielectric constant tensor:
#      x y z
#    x 1.934800 0.000000 0.039490 
#    y 0.000000 1.842370 -0.000020 
#    z 0.039490 -0.000020 1.913460 
# 
# From -- ./inp_files/270955.got.cif
#   From: 2010.05.17/outbox.cif.g08.bks.cpg/sg15_136_cif.got.tgz:270955.got - 2010.06.03 18:47:42.
