data_PCOD9261062
_publ_section_title
;
Structure prediction by ZEFSAII (Michael W. Deem and Ramdas Pophale) SiO2 
 PCOD9261062
Probable space group: C 2/C
;
_chemical_formula_sum "Si O2"
_cell_formula_units_Z 52
_cell_length_a 12.064216
_cell_length_b 10.495057
_cell_length_c 16.789850
_cell_angle_alpha 90.000000
_cell_angle_beta 102.491044
_cell_angle_gamma 90.000000
_cell_volume 2075.521705
_symmetry_space_group_name_H-M "C 2/C"
_symmetry_group_IT_number 15
_symmetry_cell_setting 'monoclinic'
loop_
_space_group_symop_operation_xyz
x,y,z
-x,y,1/2-z
-x,-y,-z
x,-y,1/2+z
1/2+x,1/2+y,z
1/2-x,1/2+y,1/2-z
1/2-x,1/2-y,-z
1/2+x,1/2-y,1/2+z
loop_
_atom_site_type_symbol
_atom_site_label
_atom_site_fract_x
_atom_site_fract_y
_atom_site_fract_z
Si Si1 0.193252 0.605215 0.682266
Si Si2 0.118546 0.235383 0.015428
Si Si3 0.952748 0.096637 0.096617
Si Si4 0.653888 0.403825 0.153390
Si Si5 0.500000 0.779263 0.250000
Si Si6 0.688077 0.957158 0.943660
Si Si7 0.812064 0.633174 0.425500
O O1 0.169458 0.701175 0.605014
O O2 0.312029 0.611600 0.748205
O O3 0.170365 0.467735 0.642043
O O4 0.103007 0.637586 0.735833
O O5 0.009031 0.162045 0.028986
O O6 0.206336 0.126014 0.002559
O O7 0.098209 0.341575 0.943992
O O8 0.969989 0.187844 0.173832
O O9 0.818170 0.106673 0.067693
O O10 0.031379 0.972655 0.125860
O O11 0.750383 0.495366 0.126692
O O12 0.667913 0.270990 0.108254
O O13 0.633865 0.075293 0.984564
#
# Coordination Sequence:
#
# PCOD9261062 Si02
#       7
#     8   8   8   8   4   8   8
#     4  10  21  36  63  86 120 162 211 257 317 374
#     4   8  18  36  60  86 114 168 209 249 311 386
#     4  10  20  36  64  88 120 165 210 251 322 380
#     4  11  22  35  62  93 122 163 210 262 318 378
#     4  10  18  40  62  82 116 168 208 250 322 380
#     4   9  19  37  60  85 127 162 210 257 320 374
#     4  11  22  39  60  92 127 163 202 271 312 375
#
# _framework density 25.053940999999998
#
# number of rings (size 3 to 8) (size 9 to 14) (size 15 to 20)
#    0.000    2.154    1.538    1.385    4.308    2.462 
#    0.000    3.077    3.385    0.000    0.000    0.000 
#    0.000    0.000    0.000    0.000    0.000    0.000 
#
# Total GULP energy -145115.645913 kJ/mol
# GULP energy per Si atom -5581.370997 kJ/mol
# Density = 2.499692 g / cm^3
# Si number density = 25.053941 Si / 1000 Ang^3
#
#
#
# Elastic Constant Matrix: (Units=GPa)
#
#
# Indices 1 2 3 4 5 6 
#
# 1 64.4480 37.1720 24.3448 0.0000 -18.6955 0.0000
# 2 37.1720 136.5770 20.5351 0.0000 -5.9593 0.0000
# 3 24.3448 20.5351 79.8873 0.0000 1.4993 0.0000
# 4 0.0000 0.0000 0.0000 40.8864 0.0000 -13.9843
# 5 -18.6955 -5.9593 1.4993 0.0000 39.1227 0.0000
# 6 0.0000 0.0000 0.0000 -13.9843 0.0000 -1.0032
#
#
#
# Elastic Compliance Matrix: (Units=1/GPa)
#
#
# Indices 1 2 3 4 5 6 
#
# 1 0.023974 -0.005117 -0.006195 0.000000 0.010914 0.000000
# 2 -0.005117 0.008769 -0.000674 0.000000 -0.001084 0.000000
# 3 -0.006195 -0.000674 0.014647 0.000000 -0.003625 0.000000
# 4 0.000000 0.000000 0.000000 0.004240 0.000000 -0.059111
# 5 0.010914 -0.001084 -0.003625 0.000000 0.030750 0.000000
# 6 0.000000 0.000000 0.000000 -0.059111 0.000000 -0.172825
#
#
# Mechanical properties :
#
#
# Convention : Reuss Voigt Hill
#
# Bulk Modulus (GPa) = 42.70546 49.44624 46.07585
# Shear Modulus (GPa) = -85.22900 29.05854 -28.08523
#
# Velocity S-wave (km/s) = -5.83884 3.40934 -3.35175
# Velocity P-wave (km/s) = 5.32669 5.93943 1.85785
#
# Compressibility (1/GPa) = 0.02341621
#
# Stress axis : x y z
#
# Youngs Moduli (GPa) = 41.71130 114.04150 68.27365
#
# Poissons Ratio (x) = 0.58359 0.42298
# Poissons Ratio (y) = 0.21345 0.04603
# Poissons Ratio (z) = 0.25842 0.07689
#
# Static dielectric constant tensor:
#      x y z
#    x 2.218860 0.000000 0.047800 
#    y 0.000000 2.112330 0.000000 
#    z 0.047800 0.000000 2.207990 
# 
# From -- ./inp_files/242460.got.cif
#   From: 2010.05.17/outbox.cif.g08.bks.cpg/sg15_122_cif.got.tgz:242460.got - 2010.06.03 18:47:42.
