data_PCOD9261384
_publ_section_title
;
Structure prediction by ZEFSAII (Michael W. Deem and Ramdas Pophale) SiO2 
 PCOD9261384
Probable space group: C 2/C
;
_chemical_formula_sum "Si O2"
_cell_formula_units_Z 48
_cell_length_a 14.383391
_cell_length_b 35.171750
_cell_length_c 5.260421
_cell_angle_alpha 90.000000
_cell_angle_beta 84.604130
_cell_angle_gamma 90.000000
_cell_volume 2649.396883
_symmetry_space_group_name_H-M "C 2/C"
_symmetry_group_IT_number 15
_symmetry_cell_setting 'monoclinic'
loop_
_space_group_symop_operation_xyz
x,y,z
-x,y,1/2-z
-x,-y,-z
x,-y,1/2+z
1/2+x,1/2+y,z
1/2-x,1/2+y,1/2-z
1/2-x,1/2-y,-z
1/2+x,1/2-y,1/2+z
loop_
_atom_site_type_symbol
_atom_site_label
_atom_site_fract_x
_atom_site_fract_y
_atom_site_fract_z
Si Si1 0.500000 0.844192 0.750000
Si Si2 0.887876 0.174325 0.780980
Si Si3 0.728236 0.121950 0.777431
Si Si4 0.394222 0.194861 0.666830
Si Si5 0.136545 0.406388 0.824572
Si Si6 0.500000 0.025917 0.250000
Si Si7 0.113312 0.779717 0.720142
O O1 0.580551 0.816112 0.629682
O O2 0.554014 0.875488 0.907574
O O3 0.835464 0.134498 0.760988
O O4 0.861755 0.202446 0.556311
O O5 0.000000 0.170363 0.750000
O O6 0.857681 0.193278 0.055013
O O7 0.675034 0.161833 0.733217
O O8 0.701002 0.093826 0.556647
O O9 0.690285 0.107848 0.058907
O O10 0.500000 0.191816 0.750000
O O11 0.356852 0.236548 0.734001
O O12 0.087647 0.445733 0.764535
O O13 0.500000 0.000000 0.500000
O O14 0.000000 0.778287 0.750000
#
# Coordination Sequence:
#
# PCOD9261384 Si02
#       7
#     4   8   8   8   8   4   8
#     4   9  18  30  48  68 106 132 174 220 254 312
#     4  10  21  37  48  69  97 136 181 240 295 313
#     4  11  21  34  54  73 104 139 182 230 259 313
#     4  10  19  29  47  68  96 134 180 225 285 327
#     4  10  21  35  54  83 108 141 180 201 244 311
#     4  11  22  38  62  90 130 156 162 186 242 314
#     4   9  20  31  48  65  93 132 179 236 290 345
#
# _framework density 18.117332000000001
#
# number of rings (size 3 to 8) (size 9 to 14) (size 15 to 20)
#    0.000    2.000    1.667    2.000    5.833    1.333 
#    0.000    0.000    0.000    0.000    0.000    0.000 
#    0.000   13.333    0.000    0.000    0.000    0.000 
#
# Total GULP energy -133760.446739 kJ/mol
# GULP energy per Si atom -5573.351947 kJ/mol
# Density = 1.807610 g / cm^3
# Si number density = 18.117332 Si / 1000 Ang^3
#
#
#
# Elastic Constant Matrix: (Units=GPa)
#
#
# Indices 1 2 3 4 5 6 
#
# 1 51.5460 31.3776 31.2182 0.0000 -3.1434 0.0000
# 2 31.3776 84.5650 45.0791 0.0000 -1.9379 0.0000
# 3 31.2182 45.0791 98.3704 0.0000 17.7420 0.0000
# 4 0.0000 0.0000 0.0000 26.5737 0.0000 3.1207
# 5 -3.1434 -1.9379 17.7420 0.0000 14.7640 0.0000
# 6 0.0000 0.0000 0.0000 3.1207 0.0000 19.7438
#
#
#
# Elastic Compliance Matrix: (Units=1/GPa)
#
#
# Indices 1 2 3 4 5 6 
#
# 1 0.029969 -0.005127 -0.010457 0.000000 0.018274 0.000000
# 2 -0.005127 0.019012 -0.009370 0.000000 0.012663 0.000000
# 3 -0.010457 -0.009370 0.023493 0.000000 -0.031688 0.000000
# 4 0.000000 0.000000 0.000000 0.038343 0.000000 -0.006060
# 5 0.018274 0.012663 -0.031688 0.000000 0.111364 0.000000
# 6 0.000000 0.000000 0.000000 -0.006060 0.000000 0.051607
#
#
# Mechanical properties :
#
#
# Convention : Reuss Voigt Hill
#
# Bulk Modulus (GPa) = 44.31187 49.98124 47.14656
# Shear Modulus (GPa) = 15.09585 20.67008 17.88297
#
# Velocity S-wave (km/s) = 2.88970 3.38139 3.14517
# Velocity P-wave (km/s) = 5.97036 6.54923 6.26648
#
# Compressibility (1/GPa) = 0.02256731
#
# Stress axis : x y z
#
# Youngs Moduli (GPa) = 33.36836 52.59771 42.56558
#
# Poissons Ratio (x) = 0.26964 0.44512
# Poissons Ratio (y) = 0.17106 0.39882
# Poissons Ratio (z) = 0.34894 0.49282
#
# Static dielectric constant tensor:
#      x y z
#    x 1.679130 0.000000 0.008260 
#    y 0.000000 1.594220 0.000000 
#    z 0.008260 0.000000 1.769120 
# 
# From -- ./inp_files/8727.got.cif
#   From: 2010.05.17/outbox.cif.g08.bks.cpg/sg15_5_cif.got.tgz:8727.got - 2010.06.03 18:47:42.
