data_PCOD9261936
_publ_section_title
;
Structure prediction by ZEFSAII (Michael W. Deem and Ramdas Pophale) SiO2 
 PCOD9261936
Probable space group: C 2/C
;
_chemical_formula_sum "Si O2"
_cell_formula_units_Z 56
_cell_length_a 29.153202
_cell_length_b 12.451123
_cell_length_c 10.079784
_cell_angle_alpha 90.000000
_cell_angle_beta 81.754914
_cell_angle_gamma 90.000000
_cell_volume 3621.042711
_symmetry_space_group_name_H-M "C 2/C"
_symmetry_group_IT_number 15
_symmetry_cell_setting 'monoclinic'
loop_
_space_group_symop_operation_xyz
x,y,z
-x,y,1/2-z
-x,-y,-z
x,-y,1/2+z
1/2+x,1/2+y,z
1/2-x,1/2+y,1/2-z
1/2-x,1/2-y,-z
1/2+x,1/2-y,1/2+z
loop_
_atom_site_type_symbol
_atom_site_label
_atom_site_fract_x
_atom_site_fract_y
_atom_site_fract_z
Si Si1 0.789311 0.633618 0.867454
Si Si2 0.814123 0.753500 0.600458
Si Si3 0.998609 0.100517 0.597870
Si Si4 0.276924 0.118468 0.377008
Si Si5 0.896368 0.902916 0.146152
Si Si6 0.399297 0.615218 0.959996
Si Si7 0.189805 0.244848 0.879347
O O1 0.816707 0.697016 0.741555
O O2 0.788483 0.505798 0.856633
O O3 0.735852 0.672296 0.877395
O O4 0.809171 0.673219 0.998930
O O5 0.777277 0.852068 0.621190
O O6 0.791499 0.664752 0.513306
O O7 0.861568 0.798591 0.521770
O O8 0.047648 0.158949 0.555083
O O9 0.000000 0.062493 0.750000
O O10 0.947459 0.149677 0.602795
O O11 0.000000 0.000000 0.500000
O O12 0.303915 0.188656 0.257680
O O13 0.890933 0.917922 0.308599
O O14 0.855363 0.828005 0.111656
O O15 0.895502 0.013456 0.061777
#
# Coordination Sequence:
#
# PCOD9261936 Si02
#       7
#     8   8   8   8   8   8   8
#     4  10  21  33  49  71  98 131 163 201 238 281
#     4  10  20  32  51  72  98 128 166 197 239 292
#     4   8  16  30  48  71  98 126 157 194 245 294
#     4  10  19  35  49  69  98 131 162 202 238 280
#     4  10  19  32  51  74 102 130 159 200 244 293
#     4  10  19  32  50  75 102 130 160 199 243 293
#     4  10  20  34  49  72  98 126 167 196 239 292
#
# _framework density 15.465159
#
# number of rings (size 3 to 8) (size 9 to 14) (size 15 to 20)
#    0.000    2.286    1.429    1.714    2.000    0.000 
#    5.143    0.000    0.000    0.000    0.000    6.000 
#    0.000    0.000    0.000    0.000    0.000    0.000 
#
# Total GULP energy -155919.691951 kJ/mol
# GULP energy per Si atom -5568.560427 kJ/mol
# Density = 1.542996 g / cm^3
# Si number density = 15.465159 Si / 1000 Ang^3
#
#
#
# Elastic Constant Matrix: (Units=GPa)
#
#
# Indices 1 2 3 4 5 6 
#
# 1 79.6068 24.5760 19.7135 0.0000 -17.3563 0.0000
# 2 24.5760 44.5017 0.5526 0.0000 -9.8829 0.0000
# 3 19.7135 0.5526 50.9073 0.0000 -11.9773 0.0000
# 4 0.0000 0.0000 0.0000 10.4759 0.0000 -3.7317
# 5 -17.3563 -9.8829 -11.9773 0.0000 24.5880 0.0000
# 6 0.0000 0.0000 0.0000 -3.7317 0.0000 17.4789
#
#
#
# Elastic Compliance Matrix: (Units=1/GPa)
#
#
# Indices 1 2 3 4 5 6 
#
# 1 0.017901 -0.008327 -0.005259 0.000000 0.006728 0.000000
# 2 -0.008327 0.028794 0.004802 0.000000 0.008035 0.000000
# 3 -0.005259 0.004802 0.023954 0.000000 0.009887 0.000000
# 4 0.000000 0.000000 0.000000 0.103314 0.000000 0.022057
# 5 0.006728 0.008035 0.009887 0.000000 0.053465 0.000000
# 6 0.000000 0.000000 0.000000 0.022057 0.000000 0.061921
#
#
# Mechanical properties :
#
#
# Convention : Reuss Voigt Hill
#
# Bulk Modulus (GPa) = 18.83827 29.41110 24.12469
# Shear Modulus (GPa) = 15.40308 19.18682 17.29495
#
# Velocity S-wave (km/s) = 3.15935 3.52610 3.34775
# Velocity P-wave (km/s) = 5.05135 5.96966 5.52960
#
# Compressibility (1/GPa) = 0.05308343
#
# Stress axis : x y z
#
# Youngs Moduli (GPa) = 55.86137 34.72912 41.74670
#
# Poissons Ratio (x) = 0.28918 0.21954
# Poissons Ratio (y) = 0.46514 -0.20049
# Poissons Ratio (z) = 0.29377 -0.16678
#
# Static dielectric constant tensor:
#      x y z
#    x 1.537410 0.000000 -0.004830 
#    y 0.000000 1.472630 0.000000 
#    z -0.004830 0.000000 1.526810 
# 
# From -- ./inp_files/69053.got.cif
#   From: 2010.05.17/outbox.cif.g08.bks.cpg/sg15_35_cif.got.tgz:69053.got - 2010.06.03 18:47:42.
