data_PCOD9261202
_publ_section_title
;
Structure prediction by ZEFSAII (Michael W. Deem and Ramdas Pophale) SiO2 
 PCOD9261202
Probable space group: C 2/C
;
_chemical_formula_sum "Si O2"
_cell_formula_units_Z 56
_cell_length_a 16.507187
_cell_length_b 10.911023
_cell_length_c 14.983228
_cell_angle_alpha 90.000000
_cell_angle_beta 106.846569
_cell_angle_gamma 90.000000
_cell_volume 2582.819789
_symmetry_space_group_name_H-M "C 2/C"
_symmetry_group_IT_number 15
_symmetry_cell_setting 'monoclinic'
loop_
_space_group_symop_operation_xyz
x,y,z
-x,y,1/2-z
-x,-y,-z
x,-y,1/2+z
1/2+x,1/2+y,z
1/2-x,1/2+y,1/2-z
1/2-x,1/2-y,-z
1/2+x,1/2-y,1/2+z
loop_
_atom_site_type_symbol
_atom_site_label
_atom_site_fract_x
_atom_site_fract_y
_atom_site_fract_z
Si Si1 0.568133 0.118443 0.842542
Si Si2 0.220313 0.209922 0.390616
Si Si3 0.614966 0.669068 0.614552
Si Si4 0.846223 0.987223 0.037174
Si Si5 0.480365 0.146363 0.991502
Si Si6 0.329004 0.877879 0.564767
Si Si7 0.910019 0.824473 0.199605
O O1 0.500000 0.073911 0.750000
O O2 0.636129 0.219328 0.834608
O O3 0.626634 0.006414 0.893977
O O4 0.510747 0.178050 0.901964
O O5 0.250000 0.250000 0.500000
O O6 0.299661 0.249246 0.358519
O O7 0.198129 0.070369 0.400724
O O8 0.621476 0.569782 0.535643
O O9 0.540895 0.767414 0.570360
O O10 0.611662 0.613680 0.712726
O O11 0.915560 0.914709 0.116361
O O12 0.769644 0.900805 0.980926
O O13 0.384741 0.161476 0.995839
O O14 0.500000 0.000000 0.000000
O O15 0.346065 0.779936 0.647537
O O16 0.000000 0.764447 0.250000
#
# Coordination Sequence:
#
# PCOD9261202 Si02
#       7
#     8   8   8   8   8   8   8
#     4  11  21  35  66 105 134 171 229 287 341 412
#     4  10  18  41  65  92 131 176 217 281 344 407
#     4  11  22  45  71  96 138 183 226 292 356 412
#     4  11  24  45  71  95 141 185 232 282 350 428
#     4  10  20  37  68  99 135 180 215 284 362 400
#     4  11  22  44  65  98 141 176 229 294 346 413
#     4  12  27  44  67  99 133 185 234 287 352 421
#
# _framework density 21.681729000000001
#
# number of rings (size 3 to 8) (size 9 to 14) (size 15 to 20)
#    0.000    1.143    7.143    1.714    2.000    3.429 
#    0.000    0.000    0.000    0.000    0.000    0.000 
#    0.000    0.000    0.000    0.000    0.000    0.000 
#
# Total GULP energy -156094.332962 kJ/mol
# GULP energy per Si atom -5574.797606 kJ/mol
# Density = 2.163238 g / cm^3
# Si number density = 21.681729 Si / 1000 Ang^3
#
#
#
# Elastic Constant Matrix: (Units=GPa)
#
#
# Indices 1 2 3 4 5 6 
#
# 1 73.5847 31.6837 33.3140 0.0000 7.6308 0.0000
# 2 31.6837 76.5124 40.6360 0.0000 8.3848 0.0000
# 3 33.3140 40.6360 96.4713 0.0000 -2.2487 0.0000
# 4 0.0000 0.0000 0.0000 27.5394 0.0000 6.3612
# 5 7.6308 8.3848 -2.2487 0.0000 37.2349 0.0000
# 6 0.0000 0.0000 0.0000 6.3612 0.0000 34.3187
#
#
#
# Elastic Compliance Matrix: (Units=1/GPa)
#
#
# Indices 1 2 3 4 5 6 
#
# 1 0.017874 -0.004869 -0.004187 0.000000 -0.002820 0.000000
# 2 -0.004869 0.018854 -0.006345 0.000000 -0.003631 0.000000
# 3 -0.004187 -0.006345 0.014558 0.000000 0.003166 0.000000
# 4 0.000000 0.000000 0.000000 0.037936 0.000000 -0.007032
# 5 -0.002820 -0.003631 0.003166 0.000000 0.028443 0.000000
# 6 0.000000 0.000000 0.000000 -0.007032 0.000000 0.030442
#
#
# Mechanical properties :
#
#
# Convention : Reuss Voigt Hill
#
# Bulk Modulus (GPa) = 48.81850 50.87065 49.84458
# Shear Modulus (GPa) = 26.91973 29.21424 28.06698
#
# Velocity S-wave (km/s) = 3.52744 3.67469 3.60182
# Velocity P-wave (km/s) = 6.25742 6.44344 6.35111
#
# Compressibility (1/GPa) = 0.02048404
#
# Stress axis : x y z
#
# Youngs Moduli (GPa) = 55.94624 53.04011 68.68989
#
# Poissons Ratio (x) = 0.25824 0.28763
# Poissons Ratio (y) = 0.27239 0.43583
# Poissons Ratio (z) = 0.23426 0.33653
#
# Static dielectric constant tensor:
#      x y z
#    x 1.888140 0.000000 -0.061870 
#    y 0.000000 1.785750 0.000000 
#    z -0.061870 0.000000 1.838240 
# 
# From -- ./inp_files/161000.got.cif
#   From: 2010.05.17/outbox.cif.g08.bks.cpg/sg15_81_cif.got.tgz:161000.got - 2010.06.03 18:47:42.
