data_PCOD9261270
_publ_section_title
;
Structure prediction by ZEFSAII (Michael W. Deem and Ramdas Pophale) SiO2 
 PCOD9261270
Probable space group: C 2/C
;
_chemical_formula_sum "Si O2"
_cell_formula_units_Z 48
_cell_length_a 23.982489
_cell_length_b 12.691605
_cell_length_c 18.738757
_cell_angle_alpha 90.000000
_cell_angle_beta 156.396302
_cell_angle_gamma 90.000000
_cell_volume 2283.781324
_symmetry_space_group_name_H-M "C 2/C"
_symmetry_group_IT_number 15
_symmetry_cell_setting 'monoclinic'
loop_
_space_group_symop_operation_xyz
x,y,z
-x,y,1/2-z
-x,-y,-z
x,-y,1/2+z
1/2+x,1/2+y,z
1/2-x,1/2+y,1/2-z
1/2-x,1/2-y,-z
1/2+x,1/2-y,1/2+z
loop_
_atom_site_type_symbol
_atom_site_label
_atom_site_fract_x
_atom_site_fract_y
_atom_site_fract_z
Si Si1 0.839445 0.835252 0.065389
Si Si2 0.160672 0.280863 0.599005
Si Si3 0.977316 0.076627 0.038737
Si Si4 0.363678 0.144841 0.735553
Si Si5 0.135981 0.925217 0.861566
Si Si6 0.230741 0.557964 0.303436
O O1 0.000000 0.801623 0.250000
O O2 0.841092 0.949444 0.104873
O O3 0.750000 0.750000 0.000000
O O4 0.766326 0.855605 0.904044
O O5 0.098060 0.184091 0.572758
O O6 0.279495 0.224193 0.690668
O O7 0.205781 0.378853 0.701096
O O8 0.017699 0.318458 0.393635
O O9 0.104371 0.097360 0.241846
O O10 0.869064 0.012497 0.960388
O O11 0.000000 0.000000 0.000000
O O12 0.266744 0.128809 0.552838
O O13 0.375110 0.031184 0.790653
O O14 0.000000 0.897728 0.750000
#
# Coordination Sequence:
#
# PCOD9261270 Si02
#       6
#     8   8   8   8   8   8
#     4  10  20  36  65  90 121 169 212 259 324 379
#     4  11  22  37  62  93 124 167 210 251 320 373
#     4  11  22  38  63  94 125 164 219 258 311 384
#     4  10  22  40  63  91 123 169 208 257 312 377
#     4  10  18  43  63  83 126 174 204 256 318 379
#     4  10  21  39  61  90 132 162 209 267 319 371
#
# _framework density 21.017773999999999
#
# number of rings (size 3 to 8) (size 9 to 14) (size 15 to 20)
#    0.000    1.667    6.667    1.500    2.333    2.000 
#    0.000    1.667    7.333    0.000    0.000    0.000 
#    0.000    0.000    0.000    0.000    0.000    0.000 
#
# Total GULP energy -133850.188167 kJ/mol
# GULP energy per Si atom -5577.091174 kJ/mol
# Density = 2.096994 g / cm^3
# Si number density = 21.017774 Si / 1000 Ang^3
#
#
#
# Elastic Constant Matrix: (Units=GPa)
#
#
# Indices 1 2 3 4 5 6 
#
# 1 47.5317 28.8232 25.5090 0.0000 -11.2892 0.0000
# 2 28.8232 83.5015 48.1984 0.0000 -2.2574 0.0000
# 3 25.5090 48.1984 104.0486 0.0001 -9.0096 0.0001
# 4 0.0000 0.0000 0.0001 24.5992 0.0000 1.4965
# 5 -11.2892 -2.2574 -9.0096 0.0000 29.5467 0.0000
# 6 0.0000 0.0000 0.0001 1.4965 0.0000 43.2750
#
#
#
# Elastic Compliance Matrix: (Units=1/GPa)
#
#
# Indices 1 2 3 4 5 6 
#
# 1 0.030002 -0.008655 -0.002476 0.000000 0.010047 0.000000
# 2 -0.008655 0.018878 -0.006968 0.000000 -0.003990 0.000000
# 3 -0.002476 -0.006968 0.013679 0.000000 0.002693 0.000000
# 4 0.000000 0.000000 0.000000 0.040737 0.000000 -0.001409
# 5 0.010047 -0.003990 0.002693 0.000000 0.038200 0.000000
# 6 0.000000 0.000000 0.000000 -0.001409 0.000000 0.023157
#
#
# Mechanical properties :
#
#
# Convention : Reuss Voigt Hill
#
# Bulk Modulus (GPa) = 37.93674 48.90478 43.42076
# Shear Modulus (GPa) = 23.85052 28.32094 26.08573
#
# Velocity S-wave (km/s) = 3.37230 3.67478 3.52679
# Velocity P-wave (km/s) = 5.76648 6.42839 6.10641
#
# Compressibility (1/GPa) = 0.02635967
#
# Stress axis : x y z
#
# Youngs Moduli (GPa) = 33.33079 52.97209 73.10482
#
# Poissons Ratio (x) = 0.45850 0.18101
# Poissons Ratio (y) = 0.28849 0.50941
# Poissons Ratio (z) = 0.08253 0.36912
#
# Static dielectric constant tensor:
#      x y z
#    x 1.822950 0.000000 -0.003190 
#    y 0.000000 1.779540 0.000000 
#    z -0.003190 0.000000 1.798070 
# 
# From -- ./inp_files/257630.got.cif
#   From: 2010.05.17/outbox.cif.g08.bks.cpg/sg15_129_cif.got.tgz:257630.got - 2010.06.03 18:47:42.
