data_PCOD9261819
_publ_section_title
;
Structure prediction by ZEFSAII (Michael W. Deem and Ramdas Pophale) SiO2 
 PCOD9261819
Probable space group: C 2/C
;
_chemical_formula_sum "Si O2"
_cell_formula_units_Z 52
_cell_length_a 5.372027
_cell_length_b 22.488034
_cell_length_c 23.495612
_cell_angle_alpha 90.000000
_cell_angle_beta 99.568205
_cell_angle_gamma 90.000000
_cell_volume 2798.931700
_symmetry_space_group_name_H-M "C 2/C"
_symmetry_group_IT_number 15
_symmetry_cell_setting 'monoclinic'
loop_
_space_group_symop_operation_xyz
x,y,z
-x,y,1/2-z
-x,-y,-z
x,-y,1/2+z
1/2+x,1/2+y,z
1/2-x,1/2+y,1/2-z
1/2-x,1/2-y,-z
1/2+x,1/2-y,1/2+z
loop_
_atom_site_type_symbol
_atom_site_label
_atom_site_fract_x
_atom_site_fract_y
_atom_site_fract_z
Si Si1 0.000000 0.685247 0.250000
Si Si2 0.151253 0.094763 0.306949
Si Si3 0.305462 0.686740 0.362861
Si Si4 0.064156 0.975182 0.064731
Si Si5 0.452780 0.911337 0.460846
Si Si6 0.476099 0.769732 0.466877
Si Si7 0.927844 0.425533 0.594324
O O1 0.817532 0.641169 0.277053
O O2 0.848124 0.717399 0.194436
O O3 0.339051 0.059296 0.355520
O O4 0.000000 0.062045 0.250000
O O5 0.984190 0.138119 0.339769
O O6 0.439246 0.734622 0.406600
O O7 0.134267 0.643691 0.395942
O O8 0.303542 0.932273 0.064783
O O9 0.808105 0.940864 0.071808
O O10 0.189181 0.032291 0.100390
O O11 0.000000 0.000000 0.000000
O O12 0.449868 0.840323 0.459520
O O13 0.483720 0.930853 0.528992
O O14 0.250000 0.750000 0.500000
O O15 0.750000 0.750000 0.500000
#
# Coordination Sequence:
#
# PCOD9261819 Si02
#       7
#     4   8   8   8   8   8   8
#     4   8  18  36  50  82 108 140 190 238 290 342
#     4   9  18  32  53  82 114 136 186 239 295 343
#     4  10  20  33  57  83 112 149 185 238 291 342
#     4  10  22  35  54  77 112 152 190 224 261 333
#     4  11  22  37  51  82 118 154 193 219 272 343
#     4  12  24  37  56  85 124 156 186 233 288 345
#     4  10  19  31  55  78 112 146 186 228 285 332
#
# _framework density 18.578517999999999
#
# number of rings (size 3 to 8) (size 9 to 14) (size 15 to 20)
#    0.000    1.846    1.538    3.692   10.769    0.000 
#    0.000    0.000    0.000    0.000    2.000    0.000 
#    0.000    0.000    0.000    0.000    0.000    0.000 
#
# Total GULP energy -144870.663660 kJ/mol
# GULP energy per Si atom -5571.948602 kJ/mol
# Density = 1.853623 g / cm^3
# Si number density = 18.578518 Si / 1000 Ang^3
#
#
#
# Elastic Constant Matrix: (Units=GPa)
#
#
# Indices 1 2 3 4 5 6 
#
# 1 99.1810 31.2155 41.9319 0.0000 22.3329 0.0000
# 2 31.2155 103.8971 38.4491 0.0000 21.4157 0.0000
# 3 41.9319 38.4491 129.4389 0.0000 38.3692 0.0000
# 4 0.0000 0.0000 0.0000 21.4406 0.0000 7.8765
# 5 22.3329 21.4157 38.3692 0.0000 43.0540 0.0000
# 6 0.0000 0.0000 0.0000 7.8765 0.0000 22.2374
#
#
#
# Elastic Compliance Matrix: (Units=1/GPa)
#
#
# Indices 1 2 3 4 5 6 
#
# 1 0.012537 -0.002194 -0.002454 0.000000 -0.003225 0.000000
# 2 -0.002194 0.011581 -0.001847 0.000000 -0.002977 0.000000
# 3 -0.002454 -0.001847 0.011442 0.000000 -0.008006 0.000000
# 4 0.000000 0.000000 0.000000 0.053617 0.000000 -0.018991
# 5 -0.003225 -0.002977 -0.008006 0.000000 0.033515 0.000000
# 6 0.000000 0.000000 0.000000 -0.018991 0.000000 0.051696
#
#
# Mechanical properties :
#
#
# Convention : Reuss Voigt Hill
#
# Bulk Modulus (GPa) = 44.30455 61.74555 53.02505
# Shear Modulus (GPa) = 25.65413 32.07444 28.86429
#
# Velocity S-wave (km/s) = 3.72001 4.15954 3.94590
# Velocity P-wave (km/s) = 6.50771 7.50840 7.02589
#
# Compressibility (1/GPa) = 0.02257104
#
# Stress axis : x y z
#
# Youngs Moduli (GPa) = 79.76659 86.34745 87.39518
#
# Poissons Ratio (x) = 0.18943 0.21443
# Poissons Ratio (y) = 0.17499 0.16143
# Poissons Ratio (z) = 0.19571 0.15949
#
# Static dielectric constant tensor:
#      x y z
#    x 1.721350 0.000000 0.033720 
#    y 0.000000 1.662280 0.000000 
#    z 0.033720 0.000000 1.686720 
# 
# From -- ./inp_files/261122.got.cif
#   From: 2010.05.17/outbox.cif.g08.bks.cpg/sg15_131_cif.got.tgz:261122.got - 2010.06.03 18:47:42.
