data_PCOD9261151
_publ_section_title
;
Structure prediction by ZEFSAII (Michael W. Deem and Ramdas Pophale) SiO2 
 PCOD9261151
Probable space group: C 2/C
;
_chemical_formula_sum "Si O2"
_cell_formula_units_Z 48
_cell_length_a 24.547807
_cell_length_b 11.818295
_cell_length_c 12.215237
_cell_angle_alpha 90.000000
_cell_angle_beta 38.168161
_cell_angle_gamma 90.000000
_cell_volume 2189.968877
_symmetry_space_group_name_H-M "C 2/C"
_symmetry_group_IT_number 15
_symmetry_cell_setting 'monoclinic'
loop_
_space_group_symop_operation_xyz
x,y,z
-x,y,1/2-z
-x,-y,-z
x,-y,1/2+z
1/2+x,1/2+y,z
1/2-x,1/2+y,1/2-z
1/2-x,1/2-y,-z
1/2+x,1/2-y,1/2+z
loop_
_atom_site_type_symbol
_atom_site_label
_atom_site_fract_x
_atom_site_fract_y
_atom_site_fract_z
Si Si1 0.089164 0.043726 0.421098
Si Si2 0.924663 0.580811 0.704511
Si Si3 0.157896 0.813524 0.350610
Si Si4 0.419265 0.161846 0.200354
Si Si5 0.299813 0.761458 0.307486
Si Si6 0.500000 0.752415 0.250000
Si Si7 0.000000 0.165928 0.750000
O O1 0.131286 0.157778 0.305287
O O2 0.065708 0.083899 0.581027
O O3 0.160191 0.942971 0.307448
O O4 0.000000 0.000000 0.500000
O O5 0.900480 0.457294 0.787648
O O6 0.852153 0.621019 0.733065
O O7 0.014929 0.610470 0.496789
O O8 0.932614 0.666598 0.792327
O O9 0.151971 0.729454 0.257126
O O10 0.234417 0.771432 0.309125
O O11 0.063411 0.812517 0.565554
O O12 0.459559 0.251496 0.221354
O O13 0.250000 0.750000 0.500000
#
# Coordination Sequence:
#
# PCOD9261151 Si02
#       7
#     8   8   8   8   8   4   4
#     4  12  26  48  74 102 142 194 251 300 368 447
#     4  10  20  41  65  95 136 170 231 282 363 424
#     4  11  24  41  67  99 141 177 242 293 367 421
#     4  10  22  40  67  96 129 179 227 296 348 436
#     4  12  26  45  68 105 140 186 237 304 366 432
#     4  10  18  40  68 100 122 190 228 286 348 444
#     4  12  22  44  74 100 132 182 258 290 356 450
#
# _framework density 21.918119999999998
#
# number of rings (size 3 to 8) (size 9 to 14) (size 15 to 20)
#    0.000    1.000    5.000    2.000    4.667    0.000 
#    3.000    0.833    0.000    0.000    0.000    0.000 
#    0.000    0.000    0.000    0.000    0.000    0.000 
#
# Total GULP energy -133865.954266 kJ/mol
# GULP energy per Si atom -5577.748094 kJ/mol
# Density = 2.186823 g / cm^3
# Si number density = 21.918120 Si / 1000 Ang^3
#
#
#
# Elastic Constant Matrix: (Units=GPa)
#
#
# Indices 1 2 3 4 5 6 
#
# 1 135.2185 34.5278 -22.0287 0.0000 -0.7662 0.0000
# 2 34.5278 116.7893 -6.3827 0.0000 -3.0353 0.0000
# 3 -22.0287 -6.3827 29.2154 0.0000 0.8641 0.0000
# 4 0.0000 0.0000 0.0000 14.8163 0.0000 2.2054
# 5 -0.7662 -3.0353 0.8641 0.0000 24.5032 0.0000
# 6 0.0000 0.0000 0.0000 2.2054 0.0000 16.4045
#
#
#
# Elastic Compliance Matrix: (Units=1/GPa)
#
#
# Indices 1 2 3 4 5 6 
#
# 1 0.009014 -0.002327 0.006295 0.000000 -0.000228 0.000000
# 2 -0.002327 0.009291 0.000244 0.000000 0.001070 0.000000
# 3 0.006295 0.000244 0.039062 0.000000 -0.001150 0.000000
# 4 0.000000 0.000000 0.000000 0.068872 0.000000 -0.009259
# 5 -0.000228 0.001070 -0.001150 0.000000 0.040977 0.000000
# 6 0.000000 0.000000 0.000000 -0.009259 0.000000 0.062204
#
#
# Mechanical properties :
#
#
# Convention : Reuss Voigt Hill
#
# Bulk Modulus (GPa) = 15.19953 32.60622 23.90288
# Shear Modulus (GPa) = 20.58239 29.48525 25.03382
#
# Velocity S-wave (km/s) = 3.06773 3.67174 3.38324
# Velocity P-wave (km/s) = 4.41562 5.73448 5.11771
#
# Compressibility (1/GPa) = 0.06579150
#
# Stress axis : x y z
#
# Youngs Moduli (GPa) = 110.94106 107.62587 25.60018
#
# Poissons Ratio (x) = 0.25042 -0.16115
# Poissons Ratio (y) = 0.25813 -0.00624
# Poissons Ratio (z) = -0.69836 -0.02625
#
# Static dielectric constant tensor:
#      x y z
#    x 1.795700 0.000000 -0.020180 
#    y 0.000000 1.883250 0.000000 
#    z -0.020180 0.000000 1.878710 
# 
# From -- ./inp_files/111469.got.cif
#   From: 2010.05.17/outbox.cif.g08.bks.cpg/sg15_56_cif.got.tgz:111469.got - 2010.06.03 18:47:42.
