data_PCOD9261597
_publ_section_title
;
Structure prediction by ZEFSAII (Michael W. Deem and Ramdas Pophale) SiO2 
 PCOD9261597
Probable space group: C 2/C
;
_chemical_formula_sum "Si O2"
_cell_formula_units_Z 48
_cell_length_a 15.982246
_cell_length_b 11.351522
_cell_length_c 18.613661
_cell_angle_alpha 90.000000
_cell_angle_beta 149.375037
_cell_angle_gamma 90.000000
_cell_volume 1720.269988
_symmetry_space_group_name_H-M "C 2/C"
_symmetry_group_IT_number 15
_symmetry_cell_setting 'monoclinic'
loop_
_space_group_symop_operation_xyz
x,y,z
-x,y,1/2-z
-x,-y,-z
x,-y,1/2+z
1/2+x,1/2+y,z
1/2-x,1/2+y,1/2-z
1/2-x,1/2-y,-z
1/2+x,1/2-y,1/2+z
loop_
_atom_site_type_symbol
_atom_site_label
_atom_site_fract_x
_atom_site_fract_y
_atom_site_fract_z
Si Si1 0.802907 0.663292 0.761542
Si Si2 0.232310 0.781778 0.627198
Si Si3 0.020566 0.045324 0.615347
Si Si4 0.500000 0.654544 0.250000
Si Si5 0.724236 0.548664 0.936180
Si Si6 0.118098 0.781529 0.985741
Si Si7 0.500000 0.059968 0.250000
O O1 0.727942 0.757098 0.761417
O O2 0.707095 0.551271 0.723021
O O3 0.764704 0.699418 0.651362
O O4 0.995494 0.677499 0.919692
O O5 0.071142 0.860709 0.502966
O O6 0.225890 0.659281 0.576514
O O7 0.377369 0.858797 0.703087
O O8 0.926295 0.086159 0.620772
O O9 0.960111 0.912837 0.564986
O O10 0.351660 0.563016 0.162207
O O11 0.406128 0.725229 0.119031
O O12 0.874292 0.505416 0.098441
#
# Coordination Sequence:
#
# PCOD9261597 Si02
#       7
#     8   8   8   4   8   8   4
#     4  12  23  40  66  96 128 176 219 264 327 389
#     4  11  19  34  64 100 139 169 203 265 335 399
#     4  10  21  41  66  94 140 171 204 265 339 391
#     4  10  23  48  68  87 132 178 224 271 330 389
#     4  10  20  37  65 101 131 176 213 261 331 393
#     4  11  26  45  69  94 122 179 225 274 331 389
#     4  10  19  30  58  99 132 164 204 255 318 397
#
# _framework density 27.902598000000001
#
# number of rings (size 3 to 8) (size 9 to 14) (size 15 to 20)
#    0.000    1.333    1.667    7.000    0.000    0.667 
#    0.000    5.833    0.000    1.000    0.000    0.000 
#    0.000    0.000    0.000    0.000    0.000    0.000 
#
# Total GULP energy -133858.705587 kJ/mol
# GULP energy per Si atom -5577.446066 kJ/mol
# Density = 2.783909 g / cm^3
# Si number density = 27.902598 Si / 1000 Ang^3
#
#
#
# Elastic Constant Matrix: (Units=GPa)
#
#
# Indices 1 2 3 4 5 6 
#
# 1 93.9958 18.2705 13.5582 0.0003 -45.6542 0.0000
# 2 18.2705 75.6536 22.7577 0.0009 -3.8220 0.0001
# 3 13.5582 22.7577 189.9538 0.0012 -11.2003 0.0003
# 4 0.0003 0.0009 0.0012 32.4427 0.0004 -8.0169
# 5 -45.6542 -3.8220 -11.2003 0.0004 49.1690 0.0000
# 6 0.0000 0.0001 0.0003 -8.0169 0.0000 40.9850
#
#
#
# Elastic Compliance Matrix: (Units=1/GPa)
#
#
# Indices 1 2 3 4 5 6 
#
# 1 0.020525 -0.004046 0.000127 0.000000 0.018772 0.000000
# 2 -0.004046 0.014534 -0.001629 0.000000 -0.002999 0.000000
# 3 0.000127 -0.001629 0.005524 0.000000 0.001249 0.000000
# 4 0.000000 0.000000 0.000000 0.032389 -0.000001 0.006335
# 5 0.018772 -0.002999 0.001249 -0.000001 0.037819 0.000000
# 6 0.000000 0.000000 0.000000 0.006335 0.000000 0.025638
#
#
# Mechanical properties :
#
#
# Convention : Reuss Voigt Hill
#
# Bulk Modulus (GPa) = 33.91592 52.08622 43.00107
# Shear Modulus (GPa) = 31.77505 44.85377 38.31441
#
# Velocity S-wave (km/s) = 3.37825 4.01373 3.70962
# Velocity P-wave (km/s) = 5.23433 6.33938 5.81317
#
# Compressibility (1/GPa) = 0.02948468
#
# Stress axis : x y z
#
# Youngs Moduli (GPa) = 48.72207 68.80420 181.01974
#
# Poissons Ratio (x) = 0.27842 -0.02293
# Poissons Ratio (y) = 0.19715 0.29493
# Poissons Ratio (z) = -0.00617 0.11210
#
# Static dielectric constant tensor:
#      x y z
#    x 2.580520 0.000000 -0.099580 
#    y 0.000000 2.224340 0.000000 
#    z -0.099580 0.000000 2.420380 
# 
# From -- ./inp_files/249021.got.cif
#   From: 2010.05.17/outbox.cif.g08.bks.cpg/sg15_125_cif.got.tgz:249021.got - 2010.06.03 18:47:42.
