data_PCOD9261388
_publ_section_title
;
Structure prediction by ZEFSAII (Michael W. Deem and Ramdas Pophale) SiO2 
 PCOD9261388
Probable space group: C 2/C
;
_chemical_formula_sum "Si O2"
_cell_formula_units_Z 60
_cell_length_a 21.372886
_cell_length_b 8.848519
_cell_length_c 12.137739
_cell_angle_alpha 90.000000
_cell_angle_beta 101.219376
_cell_angle_gamma 90.000000
_cell_volume 2251.601862
_symmetry_space_group_name_H-M "C 2/C"
_symmetry_group_IT_number 15
_symmetry_cell_setting 'monoclinic'
loop_
_space_group_symop_operation_xyz
x,y,z
-x,y,1/2-z
-x,-y,-z
x,-y,1/2+z
1/2+x,1/2+y,z
1/2-x,1/2+y,1/2-z
1/2-x,1/2-y,-z
1/2+x,1/2-y,1/2+z
loop_
_atom_site_type_symbol
_atom_site_label
_atom_site_fract_x
_atom_site_fract_y
_atom_site_fract_z
Si Si1 0.164195 0.683539 0.302659
Si Si2 0.227462 0.549675 0.143004
Si Si3 0.657177 0.139181 0.908229
Si Si4 0.986018 0.676666 0.584756
Si Si5 0.179361 0.246334 0.040148
Si Si6 0.500000 0.448334 0.750000
Si Si7 0.036684 0.634240 0.156892
Si Si8 0.141544 0.928031 0.742533
O O1 0.223696 0.676527 0.238159
O O2 0.171859 0.507456 0.342438
O O3 0.141515 0.751397 0.412024
O O4 0.108057 0.687773 0.193883
O O5 0.181974 0.403208 0.108888
O O6 0.297666 0.477185 0.191776
O O7 0.208829 0.636810 0.024119
O O8 0.586185 0.116466 0.933003
O O9 0.649328 0.283424 0.826687
O O10 0.989467 0.834696 0.644334
O O11 0.999254 0.691547 0.461804
O O12 0.031698 0.548982 0.651023
O O13 0.153921 0.121565 0.118724
O O14 0.250000 0.250000 0.000000
O O15 0.572240 0.502171 0.743035
O O16 0.000000 0.688301 0.250000
#
# Coordination Sequence:
#
# PCOD9261388 Si02
#       8
#     8   8   8   8   8   4   8   8
#     4  11  20  33  53  87 119 164 194 244 317 368
#     4  11  22  37  61  86 120 159 201 259 314 368
#     4  10  19  34  52  82 119 150 199 246 297 366
#     4  10  19  29  47  76 114 158 192 238 298 363
#     4  11  24  39  62  91 125 158 205 263 316 367
#     4  10  22  36  56  82 118 164 212 252 294 358
#     4  11  19  27  45  75 119 157 193 235 299 378
#     4  11  22  40  59  90 122 162 211 257 308 367
#
# _framework density 26.647696
#
# number of rings (size 3 to 8) (size 9 to 14) (size 15 to 20)
#    0.000    1.333    6.000    1.200    1.867    0.000 
#    0.000    0.000    0.000    0.800    1.733    0.000 
#    0.000    0.000    0.000    0.000    0.000    0.000 
#
# Total GULP energy -167225.982304 kJ/mol
# GULP energy per Si atom -5574.199410 kJ/mol
# Density = 2.658704 g / cm^3
# Si number density = 26.647696 Si / 1000 Ang^3
#
#
#
# Elastic Constant Matrix: (Units=GPa)
#
#
# Indices 1 2 3 4 5 6 
#
# 1 120.9289 4.6814 26.4889 0.0000 8.0265 0.0000
# 2 4.6814 50.3626 31.4644 0.0000 -11.6238 0.0000
# 3 26.4889 31.4644 159.4674 0.0000 -14.7585 0.0000
# 4 0.0000 0.0000 0.0000 18.2371 0.0000 -1.5207
# 5 8.0265 -11.6238 -14.7585 0.0000 42.0139 0.0000
# 6 0.0000 0.0000 0.0000 -1.5207 0.0000 18.2086
#
#
#
# Elastic Compliance Matrix: (Units=1/GPa)
#
#
# Indices 1 2 3 4 5 6 
#
# 1 0.008790 -0.000354 -0.001607 0.000000 -0.002342 0.000000
# 2 -0.000354 0.023662 -0.004132 0.000000 0.005162 0.000000
# 3 -0.001607 -0.004132 0.007520 0.000000 0.001805 0.000000
# 4 0.000000 0.000000 0.000000 0.055218 0.000000 0.004612
# 5 -0.002342 0.005162 0.001805 0.000000 0.026312 0.000000
# 6 0.000000 0.000000 0.000000 0.004612 0.000000 0.055304
#
#
# Mechanical properties :
#
#
# Convention : Reuss Voigt Hill
#
# Bulk Modulus (GPa) = 35.98811 50.66983 43.32897
# Shear Modulus (GPa) = 25.22010 33.56686 29.39348
#
# Velocity S-wave (km/s) = 3.07974 3.55301 3.32481
# Velocity P-wave (km/s) = 5.11673 5.99065 5.57085
#
# Compressibility (1/GPa) = 0.02778696
#
# Stress axis : x y z
#
# Youngs Moduli (GPa) = 113.75957 42.26182 132.97410
#
# Poissons Ratio (x) = 0.01494 0.21371
# Poissons Ratio (y) = 0.04022 0.54948
# Poissons Ratio (z) = 0.18283 0.17464
#
# Static dielectric constant tensor:
#      x y z
#    x 2.375070 0.000000 -0.018460 
#    y 0.000000 2.193220 0.000000 
#    z -0.018460 0.000000 2.159110 
# 
# From -- ./inp_files/112411.got.cif
#   From: 2010.05.17/outbox.cif.g08.bks.cpg/sg15_57_cif.got.tgz:112411.got - 2010.06.03 18:47:42.
