data_PCOD9261083
_publ_section_title
;
Structure prediction by ZEFSAII (Michael W. Deem and Ramdas Pophale) SiO2 
 PCOD9261083
Probable space group: C 2/C
;
_chemical_formula_sum "Si O2"
_cell_formula_units_Z 56
_cell_length_a 18.931947
_cell_length_b 16.031195
_cell_length_c 9.488623
_cell_angle_alpha 90.000000
_cell_angle_beta 58.296601
_cell_angle_gamma 90.000000
_cell_volume 2450.087572
_symmetry_space_group_name_H-M "C 2/C"
_symmetry_group_IT_number 15
_symmetry_cell_setting 'monoclinic'
loop_
_space_group_symop_operation_xyz
x,y,z
-x,y,1/2-z
-x,-y,-z
x,-y,1/2+z
1/2+x,1/2+y,z
1/2-x,1/2+y,1/2-z
1/2-x,1/2-y,-z
1/2+x,1/2-y,1/2+z
loop_
_atom_site_type_symbol
_atom_site_label
_atom_site_fract_x
_atom_site_fract_y
_atom_site_fract_z
Si Si1 0.341689 0.443463 0.296863
Si Si2 0.546966 0.758585 0.460319
Si Si3 0.755372 0.552701 0.308922
Si Si4 0.156558 0.391133 0.199574
Si Si5 0.164692 0.151445 0.968646
Si Si6 0.500000 0.363790 0.250000
Si Si7 0.116700 0.335056 0.960814
Si Si8 0.000000 0.861515 0.750000
O O1 0.313319 0.522898 0.233065
O O2 0.288692 0.440283 0.494512
O O3 0.320068 0.369271 0.210528
O O4 0.436857 0.423176 0.232580
O O5 0.621041 0.820922 0.341638
O O6 0.549502 0.699121 0.593600
O O7 0.464806 0.817192 0.545674
O O8 0.531355 0.694646 0.347632
O O9 0.825211 0.479337 0.246589
O O10 0.806361 0.632729 0.209637
O O11 0.248830 0.366261 0.049653
O O12 0.103044 0.393479 0.112217
O O13 0.139376 0.246400 0.005307
O O14 0.085523 0.097573 0.104882
#
# Coordination Sequence:
#
# PCOD9261083 Si02
#       8
#     8   8   8   8   8   4   8   4
#     4  11  25  49  66 103 144 186 239 284 363 424
#     4  11  23  41  71 106 136 178 238 299 355 402
#     4  11  26  44  70 100 146 192 230 283 357 445
#     4  11  22  42  69 103 136 187 233 287 358 427
#     4  10  22  39  73 102 130 180 242 292 346 413
#     4  12  26  46  69 111 144 176 242 316 346 404
#     4  11  21  43  68 103 136 179 239 292 350 424
#     4  10  18  40  63 101 128 168 228 294 340 416
#
# _framework density 22.856325999999999
#
# number of rings (size 3 to 8) (size 9 to 14) (size 15 to 20)
#    0.000    1.143    7.143    0.429    2.000    4.000 
#    0.000    2.857    0.000    0.000    0.000    0.000 
#    0.000    0.000    0.000    0.000    0.000    0.000 
#
# Total GULP energy -156328.295039 kJ/mol
# GULP energy per Si atom -5583.153394 kJ/mol
# Density = 2.280430 g / cm^3
# Si number density = 22.856326 Si / 1000 Ang^3
#
#
#
# Elastic Constant Matrix: (Units=GPa)
#
#
# Indices 1 2 3 4 5 6 
#
# 1 92.0246 19.0737 23.6870 0.0000 -6.2331 0.0000
# 2 19.0737 41.3741 20.3595 0.0000 -7.2835 0.0000
# 3 23.6870 20.3595 139.8558 0.0000 -2.9913 0.0000
# 4 0.0000 0.0000 0.0000 37.3197 0.0000 -8.3631
# 5 -6.2331 -7.2835 -2.9913 0.0000 38.2668 0.0000
# 6 0.0000 0.0000 0.0000 -8.3631 0.0000 31.7515
#
#
#
# Elastic Compliance Matrix: (Units=1/GPa)
#
#
# Indices 1 2 3 4 5 6 
#
# 1 0.012282 -0.004822 -0.001357 0.000000 0.000977 0.000000
# 2 -0.004822 0.028787 -0.003279 0.000000 0.004437 0.000000
# 3 -0.001357 -0.003279 0.007852 0.000000 -0.000231 0.000000
# 4 0.000000 0.000000 0.000000 0.028476 0.000000 0.007500
# 5 0.000977 0.004437 -0.000231 0.000000 0.027118 0.000000
# 6 0.000000 0.000000 0.000000 0.007500 0.000000 0.033470
#
#
# Mechanical properties :
#
#
# Convention : Reuss Voigt Hill
#
# Bulk Modulus (GPa) = 33.32812 44.38832 38.85822
# Shear Modulus (GPa) = 29.95726 35.47655 32.71691
#
# Velocity S-wave (km/s) = 3.62425 3.94401 3.78751
# Velocity P-wave (km/s) = 5.66806 6.34059 6.01373
#
# Compressibility (1/GPa) = 0.03000469
#
# Stress axis : x y z
#
# Youngs Moduli (GPa) = 81.42246 34.73736 127.34798
#
# Poissons Ratio (x) = 0.16751 0.17284
# Poissons Ratio (y) = 0.39263 0.41759
# Poissons Ratio (z) = 0.11051 0.11391
#
# Static dielectric constant tensor:
#      x y z
#    x 1.912220 0.000000 -0.026660 
#    y 0.000000 1.867920 0.000000 
#    z -0.026660 0.000000 1.851810 
# 
# From -- ./inp_files/56525.got.cif
#   From: 2010.05.17/outbox.cif.g08.bks.cpg/sg15_29_cif.got.tgz:56525.got - 2010.06.03 18:47:42.
