data_PCOD9261092
_publ_section_title
;
Structure prediction by ZEFSAII (Michael W. Deem and Ramdas Pophale) SiO2 
 PCOD9261092
Probable space group: C 2/C
;
_chemical_formula_sum "Si O2"
_cell_formula_units_Z 52
_cell_length_a 14.287427
_cell_length_b 13.449602
_cell_length_c 11.305202
_cell_angle_alpha 90.000000
_cell_angle_beta 67.303195
_cell_angle_gamma 90.000000
_cell_volume 2004.177674
_symmetry_space_group_name_H-M "C 2/C"
_symmetry_group_IT_number 15
_symmetry_cell_setting 'monoclinic'
loop_
_space_group_symop_operation_xyz
x,y,z
-x,y,1/2-z
-x,-y,-z
x,-y,1/2+z
1/2+x,1/2+y,z
1/2-x,1/2+y,1/2-z
1/2-x,1/2-y,-z
1/2+x,1/2-y,1/2+z
loop_
_atom_site_type_symbol
_atom_site_label
_atom_site_fract_x
_atom_site_fract_y
_atom_site_fract_z
Si Si1 0.862648 0.675676 0.615373
Si Si2 0.354168 0.739468 0.711150
Si Si3 0.650209 0.639548 0.041863
Si Si4 0.000000 0.404249 0.750000
Si Si5 0.500000 0.500000 0.000000
Si Si6 0.000000 0.269758 0.250000
Si Si7 0.373474 0.346289 0.444156
Si Si8 0.184410 0.515527 0.016198
O O1 0.766450 0.740469 0.704990
O O2 0.957975 0.676745 0.654416
O O3 0.877044 0.730734 0.482337
O O4 0.833306 0.561365 0.605518
O O5 0.353078 0.699168 0.578997
O O6 0.425495 0.833803 0.704763
O O7 0.387115 0.657357 0.795581
O O8 0.576062 0.545238 0.063866
O O9 0.597366 0.704828 0.166042
O O10 0.761355 0.591580 0.008504
O O11 0.919959 0.471550 0.862485
O O12 0.541619 0.390568 0.013035
O O13 0.270211 0.406630 0.522228
#
# Coordination Sequence:
#
# PCOD9261092 Si02
#       8
#     8   8   8   4   4   4   8   8
#     4  11  21  45  69 104 142 200 243 308 351 447
#     4  11  22  39  74 103 149 182 249 289 368 433
#     4  11  25  41  64 112 143 191 228 319 364 433
#     4  12  18  36  74 110 136 200 242 284 342 461
#     4  10  20  36  62  98 152 168 240 286 380 398
#     4  12  26  46  76 102 148 188 256 308 378 419
#     4  10  18  40  64 106 140 196 229 308 351 447
#     4  10  22  40  68 105 150 188 246 287 373 431
#
# _framework density 25.945803999999999
#
# number of rings (size 3 to 8) (size 9 to 14) (size 15 to 20)
#    0.000    1.231    4.615    2.769    0.000    4.308 
#    0.000    0.769    0.000    7.385    0.000    0.000 
#    0.000    0.000    0.000    0.000    0.000    0.000 
#
# Total GULP energy -144741.233147 kJ/mol
# GULP energy per Si atom -5566.970506 kJ/mol
# Density = 2.588675 g / cm^3
# Si number density = 25.945804 Si / 1000 Ang^3
#
#
#
# Elastic Constant Matrix: (Units=GPa)
#
#
# Indices 1 2 3 4 5 6 
#
# 1 186.5014 75.0425 53.9834 0.0000 -0.5027 0.0000
# 2 75.0425 75.6554 25.7629 0.0000 2.3415 0.0000
# 3 53.9834 25.7629 94.7598 0.0000 -22.6502 0.0000
# 4 0.0000 0.0000 0.0000 7.0858 0.0000 -5.3680
# 5 -0.5027 2.3415 -22.6502 0.0000 31.5033 0.0000
# 6 0.0000 0.0000 0.0000 -5.3680 0.0000 56.7192
#
#
#
# Elastic Compliance Matrix: (Units=1/GPa)
#
#
# Indices 1 2 3 4 5 6 
#
# 1 0.009833 -0.008407 -0.003779 0.000000 -0.001935 0.000000
# 2 -0.008407 0.022366 -0.002078 0.000000 -0.003291 0.000000
# 3 -0.003779 -0.002078 0.016052 0.000000 0.011635 0.000000
# 4 0.000000 0.000000 0.000000 0.152028 0.000000 0.014388
# 5 -0.001935 -0.003291 0.011635 0.000000 0.040322 0.000000
# 6 0.000000 0.000000 0.000000 0.014388 0.000000 0.018992
#
#
# Mechanical properties :
#
#
# Convention : Reuss Voigt Hill
#
# Bulk Modulus (GPa) = 50.70051 74.05490 62.37771
# Shear Modulus (GPa) = 16.96673 32.53684 24.75179
#
# Velocity S-wave (km/s) = 2.55998 3.54507 3.09201
# Velocity P-wave (km/s) = 5.32178 6.73504 6.06969
#
# Compressibility (1/GPa) = 0.01972367
#
# Stress axis : x y z
#
# Youngs Moduli (GPa) = 101.69794 44.71084 62.29843
#
# Poissons Ratio (x) = 0.37587 0.23541
# Poissons Ratio (y) = 0.85495 0.12946
# Poissons Ratio (z) = 0.38429 0.09291
#
# Static dielectric constant tensor:
#      x y z
#    x 2.031230 0.000000 -0.065610 
#    y 0.000000 2.039840 0.000000 
#    z -0.065610 0.000000 2.076860 
# 
# From -- ./inp_files/96984.got.cif
#   From: 2010.05.17/outbox.cif.g08.bks.cpg/sg15_49_cif.got.tgz:96984.got - 2010.06.03 18:47:42.
