data_PCOD9261504
_publ_section_title
;
Structure prediction by ZEFSAII (Michael W. Deem and Ramdas Pophale) SiO2 
 PCOD9261504
Probable space group: C 2/C
;
_chemical_formula_sum "Si O2"
_cell_formula_units_Z 40
_cell_length_a 21.168102
_cell_length_b 7.122934
_cell_length_c 21.157933
_cell_angle_alpha 90.000000
_cell_angle_beta 146.008768
_cell_angle_gamma 90.000000
_cell_volume 1783.516703
_symmetry_space_group_name_H-M "C 2/C"
_symmetry_group_IT_number 15
_symmetry_cell_setting 'monoclinic'
loop_
_space_group_symop_operation_xyz
x,y,z
-x,y,1/2-z
-x,-y,-z
x,-y,1/2+z
1/2+x,1/2+y,z
1/2-x,1/2+y,1/2-z
1/2-x,1/2-y,-z
1/2+x,1/2-y,1/2+z
loop_
_atom_site_type_symbol
_atom_site_label
_atom_site_fract_x
_atom_site_fract_y
_atom_site_fract_z
Si Si1 0.803362 0.540306 0.473268
Si Si2 0.957386 0.601515 0.782292
Si Si3 0.786527 0.164438 0.219500
Si Si4 0.373743 0.516663 0.418958
Si Si5 0.273783 0.503677 0.959957
O O1 0.755595 0.503722 0.363958
O O2 0.730412 0.453500 0.469889
O O3 0.792318 0.768698 0.473610
O O4 0.935546 0.505883 0.595865
O O5 0.900348 0.751016 0.782024
O O6 0.851534 0.473694 0.673383
O O7 0.000000 0.683882 0.750000
O O8 0.686567 0.315216 0.133557
O O9 0.808438 0.126871 0.310325
O O10 0.500000 0.500000 0.500000
O O11 0.359231 0.581530 0.479668
#
# Coordination Sequence:
#
# PCOD9261504 Si02
#       5
#     8   8   8   8   8
#     4   8  13  25  44  68  91 118 162 208 241 279
#     4   8  13  24  43  68  94 118 156 212 253 276
#     4  10  19  30  49  75 101 131 169 204 252 309
#     4  10  20  34  49  72 107 136 163 207 255 300
#     4   8  15  25  42  67  95 122 155 202 249 289
#
# _framework density 22.427602
#
# number of rings (size 3 to 8) (size 9 to 14) (size 15 to 20)
#    0.000    3.600    0.000    3.600    0.000    0.000 
#    0.000    9.000    0.000    1.200    0.000   19.600 
#    0.000    0.000    0.000    0.000    0.000    0.000 
#
# Total GULP energy -111362.801580 kJ/mol
# GULP energy per Si atom -5568.140079 kJ/mol
# Density = 2.237656 g / cm^3
# Si number density = 22.427602 Si / 1000 Ang^3
#
#
#
# Elastic Constant Matrix: (Units=GPa)
#
#
# Indices 1 2 3 4 5 6 
#
# 1 182.8062 21.3927 47.5804 0.0000 1.9778 0.0000
# 2 21.3927 39.5165 6.9754 0.0001 -4.7182 0.0002
# 3 47.5804 6.9754 70.2396 0.0000 7.0405 0.0000
# 4 0.0000 0.0001 0.0000 16.8961 0.0000 -8.3688
# 5 1.9778 -4.7182 7.0405 0.0000 40.1642 0.0000
# 6 0.0000 0.0002 0.0000 -8.3688 0.0000 14.9459
#
#
#
# Elastic Compliance Matrix: (Units=1/GPa)
#
#
# Indices 1 2 3 4 5 6 
#
# 1 0.006973 -0.002982 -0.004436 0.000000 0.000084 0.000000
# 2 -0.002982 0.027536 -0.001072 0.000000 0.003570 -0.000001
# 3 -0.004436 -0.001072 0.017649 0.000000 -0.003001 0.000000
# 4 0.000000 0.000000 0.000000 0.081899 0.000000 0.045859
# 5 0.000084 0.003570 -0.003001 0.000000 0.025839 0.000000
# 6 0.000000 -0.000001 0.000000 0.045859 0.000000 0.092586
#
#
# Mechanical properties :
#
#
# Convention : Reuss Voigt Hill
#
# Bulk Modulus (GPa) = 28.42716 49.38436 38.90576
# Shear Modulus (GPa) = 17.78171 28.84216 23.31194
#
# Velocity S-wave (km/s) = 2.81881 3.58999 3.22752
# Velocity P-wave (km/s) = 4.82668 6.26509 5.59232
#
# Compressibility (1/GPa) = 0.03517763
#
# Stress axis : x y z
#
# Youngs Moduli (GPa) = 143.41404 36.31656 56.66028
#
# Poissons Ratio (x) = 0.10829 0.25133
# Poissons Ratio (y) = 0.42763 0.06077
# Poissons Ratio (z) = 0.63614 0.03895
#
# Static dielectric constant tensor:
#      x y z
#    x 1.910910 0.000000 -0.051990 
#    y 0.000000 1.935520 0.000000 
#    z -0.051990 0.000000 1.864800 
# 
# From -- ./inp_files/109537.got.cif
#   From: 2010.05.17/outbox.cif.g08.bks.cpg/sg15_55_cif.got.tgz:109537.got - 2010.06.03 18:47:42.
