data_PCOD9261171
_publ_section_title
;
Structure prediction by ZEFSAII (Michael W. Deem and Ramdas Pophale) SiO2 
 PCOD9261171
Probable space group: C 2/C
;
_chemical_formula_sum "Si O2"
_cell_formula_units_Z 48
_cell_length_a 14.220847
_cell_length_b 10.885970
_cell_length_c 14.402193
_cell_angle_alpha 90.000000
_cell_angle_beta 76.410723
_cell_angle_gamma 90.000000
_cell_volume 2167.153724
_symmetry_space_group_name_H-M "C 2/C"
_symmetry_group_IT_number 15
_symmetry_cell_setting 'monoclinic'
loop_
_space_group_symop_operation_xyz
x,y,z
-x,y,1/2-z
-x,-y,-z
x,-y,1/2+z
1/2+x,1/2+y,z
1/2-x,1/2+y,1/2-z
1/2-x,1/2-y,-z
1/2+x,1/2-y,1/2+z
loop_
_atom_site_type_symbol
_atom_site_label
_atom_site_fract_x
_atom_site_fract_y
_atom_site_fract_z
Si Si1 0.644617 0.591436 0.571158
Si Si2 0.853574 0.609786 0.191764
Si Si3 0.310733 0.314357 0.906700
Si Si4 0.606335 0.877898 0.234852
Si Si5 0.500000 0.000000 0.500000
Si Si6 0.500000 0.297998 0.250000
Si Si7 0.146605 0.705506 0.926736
O O1 0.348726 0.555456 0.432854
O O2 0.554368 0.625396 0.657609
O O3 0.745641 0.647986 0.588478
O O4 0.639130 0.660462 0.473854
O O5 0.758801 0.660701 0.164642
O O6 0.827726 0.497964 0.268133
O O7 0.919741 0.551475 0.094838
O O8 0.915683 0.713291 0.226981
O O9 0.383769 0.209922 0.855170
O O10 0.250000 0.250000 0.000000
O O11 0.500000 0.933969 0.250000
O O12 0.617438 0.800096 0.325880
O O13 0.429120 0.120021 0.499984
#
# Coordination Sequence:
#
# PCOD9261171 Si02
#       7
#     8   8   8   8   4   4   8
#     4  11  24  44  69 104 145 183 232 296 353 430
#     4  11  24  43  71 102 136 183 239 289 346 427
#     4  12  29  46  67 105 144 186 230 297 361 423
#     4  11  25  45  71 101 137 182 233 295 347 418
#     4  10  18  40  70 100 130 174 244 284 336 416
#     4  12  24  42  76 108 136 188 240 292 364 422
#     4  10  22  44  73 102 136 183 236 294 346 413
#
# _framework density 22.148866000000002
#
# number of rings (size 3 to 8) (size 9 to 14) (size 15 to 20)
#    0.000    1.000    5.833    1.000    5.833    4.000 
#    0.000    1.667    0.000    0.000    0.000    0.000 
#    0.000    0.000    0.000    0.000    0.000    0.000 
#
# Total GULP energy -133647.633172 kJ/mol
# GULP energy per Si atom -5568.651382 kJ/mol
# Density = 2.209845 g / cm^3
# Si number density = 22.148866 Si / 1000 Ang^3
#
#
#
# Elastic Constant Matrix: (Units=GPa)
#
#
# Indices 1 2 3 4 5 6 
#
# 1 38.6125 18.0696 4.0391 0.0000 -2.2140 0.0000
# 2 18.0696 143.6954 30.9983 0.0000 -10.6099 0.0000
# 3 4.0391 30.9983 47.1384 0.0000 -9.8103 0.0000
# 4 0.0000 0.0000 0.0000 36.3359 0.0000 1.9623
# 5 -2.2140 -10.6099 -9.8103 0.0000 36.6861 0.0000
# 6 0.0000 0.0000 0.0000 1.9623 0.0000 27.0844
#
#
#
# Elastic Compliance Matrix: (Units=1/GPa)
#
#
# Indices 1 2 3 4 5 6 
#
# 1 0.027534 -0.003419 0.000031 0.000000 0.000681 0.000000
# 2 -0.003419 0.008567 -0.005155 0.000000 0.000893 0.000000
# 3 0.000031 -0.005155 0.025723 0.000000 0.005390 0.000000
# 4 0.000000 0.000000 0.000000 0.027629 0.000000 -0.002002
# 5 0.000681 0.000893 0.005390 0.000000 0.028999 0.000000
# 6 0.000000 0.000000 0.000000 -0.002002 0.000000 0.037067
#
#
# Mechanical properties :
#
#
# Convention : Reuss Voigt Hill
#
# Bulk Modulus (GPa) = 22.35231 37.29559 29.82395
# Shear Modulus (GPa) = 26.66418 31.77725 29.22072
#
# Velocity S-wave (km/s) = 3.47344 3.79187 3.63614
# Velocity P-wave (km/s) = 5.11860 6.00385 5.57881
#
# Compressibility (1/GPa) = 0.04473810
#
# Stress axis : x y z
#
# Youngs Moduli (GPa) = 36.31866 116.72665 38.87555
#
# Poissons Ratio (x) = 0.39905 -0.00119
# Poissons Ratio (y) = 0.12416 0.20040
# Poissons Ratio (z) = -0.00111 0.60172
#
# Static dielectric constant tensor:
#      x y z
#    x 1.821250 0.000000 0.013740 
#    y 0.000000 1.876280 0.000000 
#    z 0.013740 0.000000 1.844090 
# 
# From -- ./inp_files/143573.got.cif
#   From: 2010.05.17/outbox.cif.g08.bks.cpg/sg15_72_cif.got.tgz:143573.got - 2010.06.03 18:47:42.
