data_PCOD9261822
_publ_section_title
;
Structure prediction by ZEFSAII (Michael W. Deem and Ramdas Pophale) SiO2 
 PCOD9261822
Probable space group: C 2/C
;
_chemical_formula_sum "Si O2"
_cell_formula_units_Z 48
_cell_length_a 12.455716
_cell_length_b 11.399054
_cell_length_c 12.612708
_cell_angle_alpha 90.000000
_cell_angle_beta 106.986405
_cell_angle_gamma 90.000000
_cell_volume 1712.669869
_symmetry_space_group_name_H-M "C 2/C"
_symmetry_group_IT_number 15
_symmetry_cell_setting 'monoclinic'
loop_
_space_group_symop_operation_xyz
x,y,z
-x,y,1/2-z
-x,-y,-z
x,-y,1/2+z
1/2+x,1/2+y,z
1/2-x,1/2+y,1/2-z
1/2-x,1/2-y,-z
1/2+x,1/2-y,1/2+z
loop_
_atom_site_type_symbol
_atom_site_label
_atom_site_fract_x
_atom_site_fract_y
_atom_site_fract_z
Si Si1 0.151594 0.429595 0.999872
Si Si2 0.345400 0.180071 0.590718
Si Si3 0.889701 0.039180 0.617483
Si Si4 0.939517 0.424599 0.832018
Si Si5 0.687541 0.349675 0.733386
Si Si6 0.001784 0.836891 0.512237
O O1 0.175338 0.543543 0.932178
O O2 0.051562 0.361478 0.912859
O O3 0.274496 0.388384 0.067536
O O4 0.101149 0.484837 0.092121
O O5 0.250000 0.250000 0.500000
O O6 0.344051 0.234451 0.707074
O O7 0.451376 0.221581 0.553063
O O8 0.988043 0.128529 0.609140
O O9 0.865412 0.960946 0.715722
O O10 0.921131 0.936145 0.542458
O O11 0.823292 0.358707 0.770591
O O12 0.000000 0.484298 0.750000
O O13 0.623920 0.347639 0.603829
#
# Coordination Sequence:
#
# PCOD9261822 Si02
#       6
#     8   8   8   8   8   8
#     4  10  20  35  58  83 107 144 192 225 280 332
#     4  11  18  35  57  81 109 146 184 234 277 329
#     4   9  17  32  53  79 111 143 177 230 275 323
#     4  10  20  34  56  81 111 145 183 237 275 331
#     4  10  20  35  56  85 111 147 193 226 280 337
#     4  10  19  31  55  85 111 145 183 231 278 332
#
# _framework density 28.026416999999999
#
# number of rings (size 3 to 8) (size 9 to 14) (size 15 to 20)
#    0.000    2.000    5.000    3.000    0.000    1.333 
#    0.000    0.000    0.000   28.000    0.000    0.000 
#    0.000    0.000    0.000    0.000    0.000    0.000 
#
# Total GULP energy -133927.540397 kJ/mol
# GULP energy per Si atom -5580.314183 kJ/mol
# Density = 2.796263 g / cm^3
# Si number density = 28.026417 Si / 1000 Ang^3
#
#
#
# Elastic Constant Matrix: (Units=GPa)
#
#
# Indices 1 2 3 4 5 6 
#
# 1 132.8781 7.0670 33.9507 0.0000 4.0833 0.0000
# 2 7.0670 83.6507 -17.5349 0.0000 1.1532 0.0000
# 3 33.9507 -17.5349 82.6736 0.0000 -13.0377 0.0000
# 4 0.0000 0.0000 0.0000 23.4185 0.0000 3.2133
# 5 4.0833 1.1532 -13.0377 0.0000 55.1259 0.0000
# 6 0.0000 0.0000 0.0000 3.2133 0.0000 35.4771
#
#
#
# Elastic Compliance Matrix: (Units=1/GPa)
#
#
# Indices 1 2 3 4 5 6 
#
# 1 0.008726 -0.001590 -0.004173 0.000000 -0.001600 0.000000
# 2 -0.001590 0.012808 0.003475 0.000000 0.000672 0.000000
# 3 -0.004173 0.003475 0.015149 0.000000 0.003819 0.000000
# 4 0.000000 0.000000 0.000000 0.043239 0.000000 -0.003916
# 5 -0.001600 0.000672 0.003819 0.000000 0.019148 0.000000
# 6 0.000000 0.000000 0.000000 -0.003916 0.000000 0.028542
#
#
# Mechanical properties :
#
#
# Convention : Reuss Voigt Hill
#
# Bulk Modulus (GPa) = 31.14489 38.46309 34.80399
# Shear Modulus (GPa) = 34.99245 41.18561 38.08903
#
# Velocity S-wave (km/s) = 3.53732 3.83760 3.69052
# Velocity P-wave (km/s) = 5.27450 5.77840 5.53219
#
# Compressibility (1/GPa) = 0.03210800
#
# Stress axis : x y z
#
# Youngs Moduli (GPa) = 114.60584 78.07602 66.01208
#
# Poissons Ratio (x) = 0.12412 0.27545
# Poissons Ratio (y) = 0.18220 -0.22942
# Poissons Ratio (z) = 0.47822 -0.27134
#
# Static dielectric constant tensor:
#      x y z
#    x 2.346550 0.000000 -0.042970 
#    y 0.000000 2.459340 0.000000 
#    z -0.042970 0.000000 2.469980 
# 
# From -- ./inp_files/143735.got.cif
#   From: 2010.05.17/outbox.cif.g08.bks.cpg/sg15_72_cif.got.tgz:143735.got - 2010.06.03 18:47:42.
