data_PCOD9261924
_publ_section_title
;
Structure prediction by ZEFSAII (Michael W. Deem and Ramdas Pophale) SiO2 
 PCOD9261924
Probable space group: C 2/C
;
_chemical_formula_sum "Si O2"
_cell_formula_units_Z 44
_cell_length_a 23.845817
_cell_length_b 20.047932
_cell_length_c 9.517788
_cell_angle_alpha 90.000000
_cell_angle_beta 157.724969
_cell_angle_gamma 90.000000
_cell_volume 1724.716296
_symmetry_space_group_name_H-M "C 2/C"
_symmetry_group_IT_number 15
_symmetry_cell_setting 'monoclinic'
loop_
_space_group_symop_operation_xyz
x,y,z
-x,y,1/2-z
-x,-y,-z
x,-y,1/2+z
1/2+x,1/2+y,z
1/2-x,1/2+y,1/2-z
1/2-x,1/2-y,-z
1/2+x,1/2-y,1/2+z
loop_
_atom_site_type_symbol
_atom_site_label
_atom_site_fract_x
_atom_site_fract_y
_atom_site_fract_z
Si Si1 0.315695 0.059694 0.574914
Si Si2 0.982571 0.085616 0.499308
Si Si3 0.221199 0.683737 0.523109
Si Si4 0.000000 0.089747 0.250000
Si Si5 0.238325 0.684962 0.880044
Si Si6 0.169175 0.426991 0.707575
O O1 0.135804 0.063527 0.160467
O O2 0.351284 0.124468 0.753256
O O3 0.344736 0.992030 0.727020
O O4 0.380836 0.060928 0.569115
O O5 0.955188 0.048496 0.284997
O O6 0.155919 0.088519 0.919075
O O7 0.907918 0.156903 0.281111
O O8 0.250000 0.750000 0.500000
O O9 0.177737 0.699776 0.583483
O O10 0.124177 0.637309 0.195569
O O11 0.361439 0.635310 0.883858
O O12 0.250000 0.750000 0.000000
#
# Coordination Sequence:
#
# PCOD9261924 Si02
#       6
#     8   8   8   4   8   8
#     4  10  20  28  46  66  98 132 159 200 237 295
#     4   8  18  27  45  62  95 130 158 196 235 284
#     4  10  19  32  50  67  96 131 166 206 244 293
#     4   8  16  32  46  68  94 126 162 200 240 288
#     4   9  18  32  44  62  91 127 166 198 239 277
#     4  11  19  31  44  72  99 129 172 190 250 294
#
# _framework density 25.511441000000001
#
# number of rings (size 3 to 8) (size 9 to 14) (size 15 to 20)
#    1.091    1.455    0.000    3.273    2.545    0.000 
#    0.000    0.000    0.000    0.000    0.000    0.000 
#    0.000   39.273    0.000    0.545    0.000    1.636 
#
# Total GULP energy -122618.353529 kJ/mol
# GULP energy per Si atom -5573.561524 kJ/mol
# Density = 2.545338 g / cm^3
# Si number density = 25.511441 Si / 1000 Ang^3
#
#
#
# Elastic Constant Matrix: (Units=GPa)
#
#
# Indices 1 2 3 4 5 6 
#
# 1 156.4962 57.7670 44.7530 0.0000 -76.8474 0.0000
# 2 57.7670 157.7377 41.7809 0.0000 -53.1110 0.0000
# 3 44.7530 41.7809 109.7407 0.0000 -30.4987 0.0000
# 4 0.0000 0.0000 0.0000 18.3962 0.0000 -17.3844
# 5 -76.8474 -53.1110 -30.4987 0.0000 75.7210 0.0000
# 6 0.0000 0.0000 0.0000 -17.3844 0.0000 39.2225
#
#
#
# Elastic Compliance Matrix: (Units=1/GPa)
#
#
# Indices 1 2 3 4 5 6 
#
# 1 0.013065 -0.000110 -0.001827 0.000000 0.012446 0.000000
# 2 -0.000110 0.008605 -0.001785 0.000000 0.005205 0.000000
# 3 -0.001827 -0.001785 0.010893 0.000000 0.001281 0.000000
# 4 0.000000 0.000000 0.000000 0.093536 0.000000 0.041458
# 5 0.012446 0.005205 0.001281 0.000000 0.030005 0.000000
# 6 0.000000 0.000000 0.000000 0.041458 0.000000 0.043871
#
#
# Mechanical properties :
#
#
# Convention : Reuss Voigt Hill
#
# Bulk Modulus (GPa) = 39.80989 79.17515 59.49252
# Shear Modulus (GPa) = 23.17057 45.31285 34.24171
#
# Velocity S-wave (km/s) = 3.01698 4.21904 3.66759
# Velocity P-wave (km/s) = 5.27018 7.40515 6.42694
#
# Compressibility (1/GPa) = 0.02511938
#
# Stress axis : x y z
#
# Youngs Moduli (GPa) = 76.54311 116.20732 91.80122
#
# Poissons Ratio (x) = 0.01278 0.16772
# Poissons Ratio (y) = 0.00842 0.16384
# Poissons Ratio (z) = 0.13985 0.20740
#
# Static dielectric constant tensor:
#      x y z
#    x 2.215790 0.000000 -0.022090 
#    y 0.000000 2.036090 0.000000 
#    z -0.022090 0.000000 2.163740 
# 
# From -- ./inp_files/66927.got.cif
#   From: 2010.05.17/outbox.cif.g08.bks.cpg/sg15_34_cif.got.tgz:66927.got - 2010.06.03 18:47:42.
