data_PCOD9261522
_publ_section_title
;
Structure prediction by ZEFSAII (Michael W. Deem and Ramdas Pophale) SiO2 
 PCOD9261522
Probable space group: C 2/C
;
_chemical_formula_sum "Si O2"
_cell_formula_units_Z 52
_cell_length_a 22.906446
_cell_length_b 7.034640
_cell_length_c 11.934344
_cell_angle_alpha 90.000000
_cell_angle_beta 106.258643
_cell_angle_gamma 90.000000
_cell_volume 1846.174836
_symmetry_space_group_name_H-M "C 2/C"
_symmetry_group_IT_number 15
_symmetry_cell_setting 'monoclinic'
loop_
_space_group_symop_operation_xyz
x,y,z
-x,y,1/2-z
-x,-y,-z
x,-y,1/2+z
1/2+x,1/2+y,z
1/2-x,1/2+y,1/2-z
1/2-x,1/2-y,-z
1/2+x,1/2-y,1/2+z
loop_
_atom_site_type_symbol
_atom_site_label
_atom_site_fract_x
_atom_site_fract_y
_atom_site_fract_z
Si Si1 0.168951 0.315706 0.627251
Si Si2 0.642064 0.288997 0.452639
Si Si3 0.980919 0.273132 0.481742
Si Si4 0.938982 0.204764 0.786478
Si Si5 0.500000 0.821611 0.250000
Si Si6 0.860849 0.374757 0.131513
Si Si7 0.787820 0.724934 0.809926
O O1 0.109741 0.334371 0.672428
O O2 0.151460 0.261215 0.491223
O O3 0.199935 0.518600 0.634003
O O4 0.219734 0.209744 0.726558
O O5 0.586523 0.240638 0.506805
O O6 0.604942 0.393687 0.330270
O O7 0.692825 0.353858 0.571645
O O8 0.662437 0.090959 0.403741
O O9 0.984435 0.216386 0.355137
O O10 0.000000 0.500000 0.500000
O O11 0.026289 0.149169 0.580853
O O12 0.000000 0.267724 0.750000
O O13 0.433254 0.904650 0.185348
O O14 0.829751 0.271502 0.220373
#
# Coordination Sequence:
#
# PCOD9261522 Si02
#       7
#     8   8   8   8   4   8   8
#     4  11  23  40  58  86 120 158 196 239 285 349
#     4  10  19  30  50  78 114 147 189 234 287 347
#     4  11  17  25  44  77 111 146 177 235 302 342
#     4  10  20  33  53  84 118 145 187 249 302 338
#     4  12  18  26  54  80 114 150 182 244 304 344
#     4  11  20  33  54  85 119 148 192 244 297 343
#     4  11  23  39  57  82 120 159 199 234 285 350
#
# _framework density 28.166349
#
# number of rings (size 3 to 8) (size 9 to 14) (size 15 to 20)
#    0.000    1.231    6.154    2.308    2.154    0.615 
#    0.000    0.000    0.000    0.000    2.000    5.385 
#    0.000    0.000    0.000    0.000    0.000    0.000 
#
# Total GULP energy -144918.340326 kJ/mol
# GULP energy per Si atom -5573.782320 kJ/mol
# Density = 2.810224 g / cm^3
# Si number density = 28.166349 Si / 1000 Ang^3
#
#
#
# Elastic Constant Matrix: (Units=GPa)
#
#
# Indices 1 2 3 4 5 6 
#
# 1 129.7301 16.0756 62.3284 0.0000 25.7948 0.0000
# 2 16.0756 53.2544 39.0680 0.0000 14.0608 0.0000
# 3 62.3284 39.0680 327.6095 0.0000 21.0642 0.0000
# 4 0.0000 0.0000 0.0000 17.8272 0.0000 2.0496
# 5 25.7948 14.0608 21.0642 0.0000 61.5421 0.0000
# 6 0.0000 0.0000 0.0000 2.0496 0.0000 6.5423
#
#
#
# Elastic Compliance Matrix: (Units=1/GPa)
#
#
# Indices 1 2 3 4 5 6 
#
# 1 0.009128 -0.000878 -0.001430 0.000000 -0.003136 0.000000
# 2 -0.000878 0.021646 -0.002168 0.000000 -0.003835 0.000000
# 3 -0.001430 -0.002168 0.003592 0.000000 -0.000135 0.000000
# 4 0.000000 0.000000 0.000000 0.058190 0.000000 -0.018230
# 5 -0.003136 -0.003835 -0.000135 0.000000 0.018486 0.000000
# 6 0.000000 0.000000 0.000000 -0.018230 0.000000 0.158561
#
#
# Mechanical properties :
#
#
# Convention : Reuss Voigt Hill
#
# Bulk Modulus (GPa) = 39.34977 82.83755 61.09366
# Shear Modulus (GPa) = 17.42007 43.39046 30.40527
#
# Velocity S-wave (km/s) = 2.48961 3.92919 3.28912
# Velocity P-wave (km/s) = 4.71858 7.07521 6.01347
#
# Compressibility (1/GPa) = 0.02541311
#
# Stress axis : x y z
#
# Youngs Moduli (GPa) = 109.55583 46.19842 278.42227
#
# Poissons Ratio (x) = 0.04057 0.39821
# Poissons Ratio (y) = 0.09621 0.60351
# Poissons Ratio (z) = 0.15669 0.10014
#
# Static dielectric constant tensor:
#      x y z
#    x 2.235860 0.000000 0.061410 
#    y 0.000000 2.418180 0.000000 
#    z 0.061410 0.000000 2.341800 
# 
# From -- ./inp_files/117232.got.cif
#   From: 2010.05.17/outbox.cif.g08.bks.cpg/sg15_59_cif.got.tgz:117232.got - 2010.06.03 18:47:42.
