data_PCOD9261941
_publ_section_title
;
Structure prediction by ZEFSAII (Michael W. Deem and Ramdas Pophale) SiO2 
 PCOD9261941
Probable space group: C 2/C
;
_chemical_formula_sum "Si O2"
_cell_formula_units_Z 40
_cell_length_a 8.087294
_cell_length_b 25.157706
_cell_length_c 16.083839
_cell_angle_alpha 90.000000
_cell_angle_beta 35.462812
_cell_angle_gamma 90.000000
_cell_volume 1898.552320
_symmetry_space_group_name_H-M "C 2/C"
_symmetry_group_IT_number 15
_symmetry_cell_setting 'monoclinic'
loop_
_space_group_symop_operation_xyz
x,y,z
-x,y,1/2-z
-x,-y,-z
x,-y,1/2+z
1/2+x,1/2+y,z
1/2-x,1/2+y,1/2-z
1/2-x,1/2-y,-z
1/2+x,1/2-y,1/2+z
loop_
_atom_site_type_symbol
_atom_site_label
_atom_site_fract_x
_atom_site_fract_y
_atom_site_fract_z
Si Si1 0.947655 0.334166 0.677434
Si Si2 0.678810 0.336644 0.514796
Si Si3 0.292622 0.451081 0.960815
Si Si4 0.575375 0.948556 0.858523
Si Si5 0.167025 0.741902 0.412548
O O1 0.606053 0.343987 0.813775
O O2 0.067186 0.392499 0.608820
O O3 0.001647 0.287563 0.590869
O O4 0.000000 0.318170 0.750000
O O5 0.783077 0.396309 0.460653
O O6 0.870199 0.296949 0.492041
O O7 0.600633 0.302079 0.466121
O O8 0.172800 0.444242 0.915348
O O9 0.634097 0.458145 0.812618
O O10 0.139206 0.502444 0.060768
O O11 0.500000 0.744249 0.250000
#
# Coordination Sequence:
#
# PCOD9261941 Si02
#       5
#     8   8   8   8   8
#     4  10  19  32  50  76 109 142 174 219 278 328
#     4   9  17  32  54  76  99 138 184 224 263 320
#     4   9  16  31  55  78 105 140 182 224 266 321
#     4   9  17  31  52  79 107 142 180 218 271 326
#     4   9  17  32  53  75 100 136 184 223 265 321
#
# _framework density 21.068686
#
# number of rings (size 3 to 8) (size 9 to 14) (size 15 to 20)
#    0.000    2.800    2.000    0.000    0.000    0.800 
#    0.000    7.000    0.000    2.400    0.000    0.000 
#    0.000    0.000    0.000    0.000    0.000    0.000 
#
# Total GULP energy -111466.057801 kJ/mol
# GULP energy per Si atom -5573.302890 kJ/mol
# Density = 2.102073 g / cm^3
# Si number density = 21.068686 Si / 1000 Ang^3
#
#
#
# Elastic Constant Matrix: (Units=GPa)
#
#
# Indices 1 2 3 4 5 6 
#
# 1 61.7952 58.2458 17.8286 0.0000 19.3962 0.0000
# 2 58.2458 224.2751 60.1505 0.0000 14.5855 0.0000
# 3 17.8286 60.1505 42.2924 0.0001 -0.2242 0.0000
# 4 0.0000 0.0000 0.0001 36.6814 0.0000 4.2284
# 5 19.3962 14.5855 -0.2242 0.0000 22.6148 0.0000
# 6 0.0000 0.0000 0.0000 4.2284 0.0000 27.6927
#
#
#
# Elastic Compliance Matrix: (Units=1/GPa)
#
#
# Indices 1 2 3 4 5 6 
#
# 1 0.029100 -0.004525 -0.005949 0.000000 -0.022099 0.000000
# 2 -0.004525 0.008461 -0.010136 0.000000 -0.001677 0.000000
# 3 -0.005949 -0.010136 0.040632 0.000000 0.012042 0.000000
# 4 0.000000 0.000000 0.000000 0.027750 0.000000 -0.004237
# 5 -0.022099 -0.001677 0.012042 0.000000 0.064374 0.000000
# 6 0.000000 0.000000 0.000000 -0.004237 0.000000 0.036758
#
#
# Mechanical properties :
#
#
# Convention : Reuss Voigt Hill
#
# Bulk Modulus (GPa) = 27.04564 66.75693 46.90129
# Shear Modulus (GPa) = 19.18507 30.20697 24.69602
#
# Velocity S-wave (km/s) = 3.02088 3.79058 3.42741
# Velocity P-wave (km/s) = 5.00324 7.13528 6.16217
#
# Compressibility (1/GPa) = 0.03697454
#
# Stress axis : x y z
#
# Youngs Moduli (GPa) = 34.36395 118.18454 24.61106
#
# Poissons Ratio (x) = 0.53476 0.14642
# Poissons Ratio (y) = 0.15549 0.24945
# Poissons Ratio (z) = 0.20444 1.19787
#
# Static dielectric constant tensor:
#      x y z
#    x 1.836070 0.000000 -0.038520 
#    y 0.000000 1.791180 0.000000 
#    z -0.038520 0.000000 1.799660 
# 
# From -- ./inp_files/77641.got.cif
#   From: 2010.05.17/outbox.cif.g08.bks.cpg/sg15_39_cif.got.tgz:77641.got - 2010.06.03 18:47:42.
