data_PCOD9261152
_publ_section_title
;
Structure prediction by ZEFSAII (Michael W. Deem and Ramdas Pophale) SiO2 
 PCOD9261152
Probable space group: C 2/C
;
_chemical_formula_sum "Si O2"
_cell_formula_units_Z 44
_cell_length_a 8.734923
_cell_length_b 19.023245
_cell_length_c 13.936216
_cell_angle_alpha 90.000000
_cell_angle_beta 66.240985
_cell_angle_gamma 90.000000
_cell_volume 2119.470551
_symmetry_space_group_name_H-M "C 2/C"
_symmetry_group_IT_number 15
_symmetry_cell_setting 'monoclinic'
loop_
_space_group_symop_operation_xyz
x,y,z
-x,y,1/2-z
-x,-y,-z
x,-y,1/2+z
1/2+x,1/2+y,z
1/2-x,1/2+y,1/2-z
1/2-x,1/2-y,-z
1/2+x,1/2-y,1/2+z
loop_
_atom_site_type_symbol
_atom_site_label
_atom_site_fract_x
_atom_site_fract_y
_atom_site_fract_z
Si Si1 0.500000 0.103977 0.750000
Si Si2 0.982097 0.872959 0.367127
Si Si3 0.294903 0.504733 0.191589
Si Si4 0.210410 0.568520 0.402055
Si Si5 0.742861 0.676029 0.949973
Si Si6 0.166975 0.424931 0.530501
O O1 0.414105 0.150212 0.854546
O O2 0.354550 0.051813 0.749858
O O3 0.793117 0.869756 0.451409
O O4 0.000000 0.858016 0.250000
O O5 0.103423 0.827102 0.402535
O O6 0.047780 0.953871 0.365782
O O7 0.309481 0.553182 0.280300
O O8 0.236275 0.550211 0.116042
O O9 0.294671 0.618674 0.458416
O O10 0.179227 0.494642 0.462390
O O11 0.026244 0.597266 0.419618
O O12 0.750000 0.750000 0.000000
#
# Coordination Sequence:
#
# PCOD9261152 Si02
#       6
#     4   8   8   8   8   8
#     4  10  18  40  68  82 118 166 206 250 320 376
#     4  11  23  38  64  95 129 159 208 263 325 371
#     4  11  19  35  63  99 126 156 199 267 330 370
#     4  11  20  36  65  90 127 162 206 255 321 375
#     4  11  26  45  61  88 129 174 218 249 303 382
#     4  11  20  35  61 102 126 153 204 272 322 369
#
# _framework density 20.759899999999998
#
# number of rings (size 3 to 8) (size 9 to 14) (size 15 to 20)
#    0.000    1.091    7.273    1.636    2.545    0.000 
#    3.273    2.727    0.000    0.000    0.000    0.000 
#    0.000    0.000    0.000    0.000    0.000    0.000 
#
# Total GULP energy -122989.740241 kJ/mol
# GULP energy per Si atom -5590.442738 kJ/mol
# Density = 2.071265 g / cm^3
# Si number density = 20.759900 Si / 1000 Ang^3
#
#
#
# Elastic Constant Matrix: (Units=GPa)
#
#
# Indices 1 2 3 4 5 6 
#
# 1 103.7792 12.8630 35.5772 0.0000 1.6110 0.0000
# 2 12.8630 36.0698 36.3466 0.0000 3.2443 0.0000
# 3 35.5772 36.3466 139.1823 0.0000 29.6899 0.0000
# 4 0.0000 0.0000 0.0000 26.9857 0.0000 7.3013
# 5 1.6110 3.2443 29.6899 0.0000 42.4979 0.0000
# 6 0.0000 0.0000 0.0000 7.3013 0.0000 10.3743
#
#
#
# Elastic Compliance Matrix: (Units=1/GPa)
#
#
# Indices 1 2 3 4 5 6 
#
# 1 0.010708 -0.001163 -0.002780 0.000000 0.001625 0.000000
# 2 -0.001163 0.038564 -0.010758 0.000000 0.004616 0.000000
# 3 -0.002780 -0.010758 0.012347 0.000000 -0.007699 0.000000
# 4 0.000000 0.000000 0.000000 0.045773 0.000000 -0.032214
# 5 0.001625 0.004616 -0.007699 0.000000 0.028496 0.000000
# 6 0.000000 0.000000 0.000000 -0.032214 0.000000 0.119064
#
#
# Mechanical properties :
#
#
# Convention : Reuss Voigt Hill
#
# Bulk Modulus (GPa) = 31.04003 49.84501 40.44252
# Shear Modulus (GPa) = 16.94380 28.92121 22.93251
#
# Velocity S-wave (km/s) = 2.85998 3.73651 3.32724
# Velocity P-wave (km/s) = 5.08826 6.53282 5.85526
#
# Compressibility (1/GPa) = 0.03221646
#
# Stress axis : x y z
#
# Youngs Moduli (GPa) = 93.38968 25.93064 80.98971
#
# Poissons Ratio (x) = 0.03017 0.22514
# Poissons Ratio (y) = 0.10866 0.87130
# Poissons Ratio (z) = 0.25961 0.27897
#
# Static dielectric constant tensor:
#      x y z
#    x 1.832430 0.000000 -0.025340 
#    y 0.000000 1.698900 0.000000 
#    z -0.025340 0.000000 1.755290 
# 
# From -- ./inp_files/134374.got.cif
#   From: 2010.05.17/outbox.cif.g08.bks.cpg/sg15_68_cif.got.tgz:134374.got - 2010.06.03 18:47:42.
