data_PCOD9261652
_publ_section_title
;
Structure prediction by ZEFSAII (Michael W. Deem and Ramdas Pophale) SiO2 
 PCOD9261652
Probable space group: C 2/C
;
_chemical_formula_sum "Si O2"
_cell_formula_units_Z 56
_cell_length_a 27.353225
_cell_length_b 12.304698
_cell_length_c 7.989465
_cell_angle_alpha 90.000000
_cell_angle_beta 115.128103
_cell_angle_gamma 90.000000
_cell_volume 2434.550558
_symmetry_space_group_name_H-M "C 2/C"
_symmetry_group_IT_number 15
_symmetry_cell_setting 'monoclinic'
loop_
_space_group_symop_operation_xyz
x,y,z
-x,y,1/2-z
-x,-y,-z
x,-y,1/2+z
1/2+x,1/2+y,z
1/2-x,1/2+y,1/2-z
1/2-x,1/2-y,-z
1/2+x,1/2-y,1/2+z
loop_
_atom_site_type_symbol
_atom_site_label
_atom_site_fract_x
_atom_site_fract_y
_atom_site_fract_z
Si Si1 0.956457 0.284137 0.575919
Si Si2 0.342177 0.840781 0.292751
Si Si3 0.350375 0.705031 0.998251
Si Si4 0.905073 0.120548 0.761123
Si Si5 0.454439 0.398241 0.821091
Si Si6 0.754699 0.074368 0.692031
Si Si7 0.200718 0.875656 0.587306
O O1 0.904302 0.349568 0.438390
O O2 0.937392 0.191106 0.676744
O O3 0.976039 0.206930 0.453475
O O4 0.000000 0.348331 0.750000
O O5 0.338888 0.811958 0.091514
O O6 0.303375 0.933191 0.305298
O O7 0.316139 0.737721 0.355498
O O8 0.395271 0.643258 0.175589
O O9 0.381658 0.701705 0.866853
O O10 0.294317 0.646835 0.867768
O O11 0.853320 0.080038 0.580593
O O12 0.938290 0.016160 0.873949
O O13 0.500000 0.419043 0.750000
O O14 0.757461 0.121458 0.507710
O O15 0.780326 0.955146 0.739657
#
# Coordination Sequence:
#
# PCOD9261652 Si02
#       7
#     8   8   8   8   8   8   8
#     4  10  21  34  47  71 107 143 186 226 269 321
#     4  10  22  37  54  79 108 147 186 224 277 328
#     4  10  20  31  48  71 102 139 180 221 261 312
#     4  10  19  31  48  72 105 146 181 219 264 322
#     4  11  20  30  47  71 104 146 193 222 257 317
#     4  11  20  36  57  78 109 144 180 230 277 330
#     4  10  21  34  54  78 109 144 183 223 277 326
#
# _framework density 23.002192000000001
#
# number of rings (size 3 to 8) (size 9 to 14) (size 15 to 20)
#    0.000    1.714    1.429    3.857    8.000    1.714 
#    0.000    0.000    0.000    0.000    0.000    1.000 
#    0.000    1.143    0.000    0.000    0.000    0.000 
#
# Total GULP energy -156236.260872 kJ/mol
# GULP energy per Si atom -5579.866460 kJ/mol
# Density = 2.294984 g / cm^3
# Si number density = 23.002192 Si / 1000 Ang^3
#
#
#
# Elastic Constant Matrix: (Units=GPa)
#
#
# Indices 1 2 3 4 5 6 
#
# 1 95.0629 2.9546 16.0240 0.0000 -8.1288 0.0000
# 2 2.9546 8.4210 10.9925 0.0000 4.7556 0.0000
# 3 16.0240 10.9925 60.1892 0.0000 -6.7309 0.0000
# 4 0.0000 0.0000 0.0000 6.7026 0.0000 0.7124
# 5 -8.1288 4.7556 -6.7309 0.0000 35.1829 0.0000
# 6 0.0000 0.0000 0.0000 0.7124 0.0000 18.1347
#
#
#
# Elastic Compliance Matrix: (Units=1/GPa)
#
#
# Indices 1 2 3 4 5 6 
#
# 1 0.011187 -0.002352 -0.002273 0.000000 0.002468 0.000000
# 2 -0.002352 0.186609 -0.037131 0.000000 -0.032870 0.000000
# 3 -0.002273 -0.037131 0.025039 0.000000 0.009284 0.000000
# 4 0.000000 0.000000 0.000000 0.149821 0.000000 -0.005885
# 5 0.002468 -0.032870 0.009284 0.000000 0.035212 0.000000
# 6 0.000000 0.000000 0.000000 -0.005885 0.000000 0.055374
#
#
# Mechanical properties :
#
#
# Convention : Reuss Voigt Hill
#
# Bulk Modulus (GPa) = 7.17752 24.84616 16.01184
# Shear Modulus (GPa) = 8.42896 20.91750 14.67323
#
# Velocity S-wave (km/s) = 1.91634 3.01885 2.52842
# Velocity P-wave (km/s) = 2.83260 4.79337 3.93700
#
# Compressibility (1/GPa) = 0.13932382
#
# Stress axis : x y z
#
# Youngs Moduli (GPa) = 89.39304 5.35880 39.93801
#
# Poissons Ratio (x) = 0.01260 0.09077
# Poissons Ratio (y) = 0.21024 1.48292
# Poissons Ratio (z) = 0.20316 0.19898
#
# Static dielectric constant tensor:
#      x y z
#    x 1.931900 0.000000 0.042490 
#    y 0.000000 1.889430 0.000000 
#    z 0.042490 0.000000 1.943930 
# 
# From -- ./inp_files/69171.got.cif
#   From: 2010.05.17/outbox.cif.g08.bks.cpg/sg15_35_cif.got.tgz:69171.got - 2010.06.03 18:47:42.
