data_PCOD9261394
_publ_section_title
;
Structure prediction by ZEFSAII (Michael W. Deem and Ramdas Pophale) SiO2 
 PCOD9261394
Probable space group: C 2/C
;
_chemical_formula_sum "Si O2"
_cell_formula_units_Z 48
_cell_length_a 11.592805
_cell_length_b 19.989153
_cell_length_c 9.103627
_cell_angle_alpha 90.000000
_cell_angle_beta 94.494679
_cell_angle_gamma 90.000000
_cell_volume 2103.098907
_symmetry_space_group_name_H-M "C 2/C"
_symmetry_group_IT_number 15
_symmetry_cell_setting 'monoclinic'
loop_
_space_group_symop_operation_xyz
x,y,z
-x,y,1/2-z
-x,-y,-z
x,-y,1/2+z
1/2+x,1/2+y,z
1/2-x,1/2+y,1/2-z
1/2-x,1/2-y,-z
1/2+x,1/2-y,1/2+z
loop_
_atom_site_type_symbol
_atom_site_label
_atom_site_fract_x
_atom_site_fract_y
_atom_site_fract_z
Si Si1 0.651189 0.331772 0.357576
Si Si2 0.001160 0.386108 0.410214
Si Si3 0.301687 0.583376 0.223612
Si Si4 0.699903 0.060450 0.776953
Si Si5 0.507273 0.579811 0.473440
Si Si6 0.147839 0.319841 0.871090
O O1 0.714675 0.378561 0.246709
O O2 0.539189 0.371929 0.403841
O O3 0.748305 0.324173 0.497292
O O4 0.629649 0.255242 0.314432
O O5 0.896873 0.437081 0.363360
O O6 0.963414 0.345896 0.548810
O O7 0.000000 0.345924 0.250000
O O8 0.121885 0.425127 0.412629
O O9 0.263402 0.508915 0.264118
O O10 0.410409 0.596185 0.341838
O O11 0.363415 0.590530 0.072878
O O12 0.196294 0.632108 0.249619
O O13 0.500000 0.500000 0.500000
#
# Coordination Sequence:
#
# PCOD9261394 Si02
#       6
#     8   8   8   8   8   8
#     4   9  16  29  46  65 103 124 144 201 249 280
#     4   7  16  29  45  68  95 124 153 193 249 278
#     4  10  19  29  49  75  93 125 165 195 238 293
#     4   8  15  29  46  67  93 124 154 190 241 283
#     4  10  19  31  47  73  97 123 163 197 238 285
#     4   9  17  28  44  72  96 121 156 195 245 291
#
# _framework density 22.823464000000001
#
# number of rings (size 3 to 8) (size 9 to 14) (size 15 to 20)
#    1.000    2.000    1.667    0.000    0.000    2.000 
#    3.000    0.000    0.000    0.000    8.667    2.333 
#    0.000    0.000    0.000    0.000    0.000    0.000 
#
# Total GULP energy -133770.727361 kJ/mol
# GULP energy per Si atom -5573.780307 kJ/mol
# Density = 2.277152 g / cm^3
# Si number density = 22.823464 Si / 1000 Ang^3
#
#
#
# Elastic Constant Matrix: (Units=GPa)
#
#
# Indices 1 2 3 4 5 6 
#
# 1 135.6536 58.7891 61.6323 0.0000 -37.8642 0.0000
# 2 58.7891 158.1678 81.6237 0.0000 -49.9591 0.0000
# 3 61.6323 81.6237 105.1910 0.0000 -49.9759 0.0000
# 4 0.0000 0.0000 0.0000 27.8716 0.0000 -6.2133
# 5 -37.8642 -49.9591 -49.9759 0.0000 57.9283 0.0000
# 6 0.0000 0.0000 0.0000 -6.2133 0.0000 18.1097
#
#
#
# Elastic Compliance Matrix: (Units=1/GPa)
#
#
# Indices 1 2 3 4 5 6 
#
# 1 0.010346 -0.000926 -0.004253 0.000000 0.002295 0.000000
# 2 -0.000926 0.011051 -0.006426 0.000000 0.003382 0.000000
# 3 -0.004253 -0.006426 0.022082 0.000000 0.010728 0.000000
# 4 0.000000 0.000000 0.000000 0.038850 0.000000 0.013329
# 5 0.002295 0.003382 0.010728 0.000000 0.030935 0.000000
# 6 0.000000 0.000000 0.000000 0.013329 0.000000 0.059792
#
#
# Mechanical properties :
#
#
# Convention : Reuss Voigt Hill
#
# Bulk Modulus (GPa) = 49.33700 89.23363 69.28532
# Shear Modulus (GPa) = 24.62796 33.91307 29.27051
#
# Velocity S-wave (km/s) = 3.28847 3.85890 3.58505
# Velocity P-wave (km/s) = 6.00687 7.68356 6.89636
#
# Compressibility (1/GPa) = 0.02026876
#
# Stress axis : x y z
#
# Youngs Moduli (GPa) = 96.65779 90.49160 45.28633
#
# Poissons Ratio (x) = 0.08377 0.19261
# Poissons Ratio (y) = 0.08948 0.29101
# Poissons Ratio (z) = 0.41110 0.58149
#
# Static dielectric constant tensor:
#      x y z
#    x 2.114390 0.000000 -0.153710 
#    y 0.000000 1.773290 0.000000 
#    z -0.153710 0.000000 2.189550 
# 
# From -- ./inp_files/97749.got.cif
#   From: 2010.05.17/outbox.cif.g08.bks.cpg/sg15_49_cif.got.tgz:97749.got - 2010.06.03 18:47:42.
