data_PCOD9261875
_publ_section_title
;
Structure prediction by ZEFSAII (Michael W. Deem and Ramdas Pophale) SiO2 
 PCOD9261875
Probable space group: C 2/C
;
_chemical_formula_sum "Si O2"
_cell_formula_units_Z 48
_cell_length_a 16.486936
_cell_length_b 19.973287
_cell_length_c 5.545241
_cell_angle_alpha 90.000000
_cell_angle_beta 98.041921
_cell_angle_gamma 90.000000
_cell_volume 1808.081154
_symmetry_space_group_name_H-M "C 2/C"
_symmetry_group_IT_number 15
_symmetry_cell_setting 'monoclinic'
loop_
_space_group_symop_operation_xyz
x,y,z
-x,y,1/2-z
-x,-y,-z
x,-y,1/2+z
1/2+x,1/2+y,z
1/2-x,1/2+y,1/2-z
1/2-x,1/2-y,-z
1/2+x,1/2-y,1/2+z
loop_
_atom_site_type_symbol
_atom_site_label
_atom_site_fract_x
_atom_site_fract_y
_atom_site_fract_z
Si Si1 0.302604 0.883867 0.855989
Si Si2 0.095338 0.818449 0.227984
Si Si3 0.666834 0.107385 0.648369
Si Si4 0.828742 0.233403 0.241208
Si Si5 0.099722 0.030914 0.784525
Si Si6 0.509422 0.158039 0.999928
O O1 0.296109 0.913877 0.588881
O O2 0.250366 0.815000 0.820892
O O3 0.400203 0.870045 0.932457
O O4 0.293030 0.924932 0.098782
O O5 0.132736 0.789554 0.489556
O O6 0.124434 0.894805 0.216918
O O7 0.000000 0.825628 0.250000
O O8 0.121236 0.782309 0.987454
O O9 0.683393 0.187362 0.706001
O O10 0.566770 0.106114 0.567390
O O11 0.000000 0.026132 0.750000
O O12 0.125206 0.983687 0.571480
O O13 0.500000 0.193952 0.250000
O O14 0.500000 0.198613 0.750000
#
# Coordination Sequence:
#
# PCOD9261875 Si02
#       6
#     8   8   8   8   8   8
#     4  10  19  32  47  65  88 122 168 203 238 285
#     4  11  24  36  48  72  98 122 155 194 246 291
#     4  10  19  32  47  65  88 126 172 206 235 275
#     4  12  22  33  48  68  97 126 154 205 255 281
#     4   9  17  33  55  71  87 115 152 189 221 275
#     4   8  16  28  44  61  80 109 160 204 230 266
#
# _framework density 26.547478999999999
#
# number of rings (size 3 to 8) (size 9 to 14) (size 15 to 20)
#    0.000    2.000    0.000    4.500    0.000    8.667 
#    0.000    0.000    0.000    0.000    0.000    0.000 
#    0.000    0.000    0.000    0.000    0.000  525.000 
#
# Total GULP energy -133924.152485 kJ/mol
# GULP energy per Si atom -5580.173020 kJ/mol
# Density = 2.648706 g / cm^3
# Si number density = 26.547479 Si / 1000 Ang^3
#
#
#
# Elastic Constant Matrix: (Units=GPa)
#
#
# Indices 1 2 3 4 5 6 
#
# 1 145.7645 8.4152 59.8032 0.0000 -0.7971 0.0000
# 2 8.4152 67.4498 16.6317 0.0000 -16.5419 0.0000
# 3 59.8032 16.6317 286.4144 0.0000 -31.6643 0.0000
# 4 0.0000 0.0000 0.0000 -21.0835 0.0000 -5.8621
# 5 -0.7971 -16.5419 -31.6643 0.0000 43.0750 0.0000
# 6 0.0000 0.0000 0.0000 -5.8621 0.0000 19.4125
#
#
#
# Elastic Compliance Matrix: (Units=1/GPa)
#
#
# Indices 1 2 3 4 5 6 
#
# 1 0.007599 -0.000885 -0.001695 0.000000 -0.001445 0.000000
# 2 -0.000885 0.016491 -0.000081 0.000000 0.006257 0.000000
# 3 -0.001695 -0.000081 0.004183 0.000000 0.003012 0.000000
# 4 0.000000 0.000000 0.000000 -0.043757 0.000000 -0.013213
# 5 -0.001445 0.006257 0.003012 0.000000 0.027806 0.000000
# 6 0.000000 0.000000 0.000000 -0.013213 0.000000 0.047523
#
#
# Mechanical properties :
#
#
# Convention : Reuss Voigt Hill
#
# Bulk Modulus (GPa) = 43.57056 74.36985 58.97021
# Shear Modulus (GPa) = 68.66531 35.93271 52.29901
#
# Velocity S-wave (km/s) = 5.09129 3.68302 4.44330
# Velocity P-wave (km/s) = 7.14210 6.79418 6.97031
#
# Compressibility (1/GPa) = 0.02295128
#
# Stress axis : x y z
#
# Youngs Moduli (GPa) = 131.59663 60.64032 239.05554
#
# Poissons Ratio (x) = 0.05364 0.40521
# Poissons Ratio (y) = 0.11640 0.01941
# Poissons Ratio (z) = 0.22306 0.00492
#
# Static dielectric constant tensor:
#      x y z
#    x 3.221500 0.000000 -0.395340 
#    y 0.000000 2.003600 0.000000 
#    z -0.395340 0.000000 2.283970 
# 
# From -- ./inp_files/10765.got.cif
#   From: 2010.05.17/outbox.cif.g08.bks.cpg/sg15_6_cif.got.tgz:10765.got - 2010.06.03 18:47:42.
