data_PCOD9261669
_publ_section_title
;
Structure prediction by ZEFSAII (Michael W. Deem and Ramdas Pophale) SiO2 
 PCOD9261669
Probable space group: C 2/C
;
_chemical_formula_sum "Si O2"
_cell_formula_units_Z 56
_cell_length_a 22.694543
_cell_length_b 12.017905
_cell_length_c 25.051252
_cell_angle_alpha 90.000000
_cell_angle_beta 26.340753
_cell_angle_gamma 90.000000
_cell_volume 3031.639898
_symmetry_space_group_name_H-M "C 2/C"
_symmetry_group_IT_number 15
_symmetry_cell_setting 'monoclinic'
loop_
_space_group_symop_operation_xyz
x,y,z
-x,y,1/2-z
-x,-y,-z
x,-y,1/2+z
1/2+x,1/2+y,z
1/2-x,1/2+y,1/2-z
1/2-x,1/2-y,-z
1/2+x,1/2-y,1/2+z
loop_
_atom_site_type_symbol
_atom_site_label
_atom_site_fract_x
_atom_site_fract_y
_atom_site_fract_z
Si Si1 0.645151 0.478421 0.265493
Si Si2 0.080472 0.829501 0.737735
Si Si3 0.402517 0.815891 0.459857
Si Si4 0.940030 0.463660 0.991419
Si Si5 0.618257 0.241144 0.319393
Si Si6 0.387117 0.658972 0.571415
Si Si7 0.330126 0.571350 0.134086
O O1 0.578686 0.570597 0.282384
O O2 0.578733 0.357280 0.324794
O O3 0.677643 0.531158 0.297457
O O4 0.785344 0.450645 0.125848
O O5 0.237666 0.812917 0.592662
O O6 0.000000 0.858232 0.750000
O O7 0.994691 0.730655 0.836755
O O8 0.424390 0.735197 0.492472
O O9 0.453078 0.937281 0.437708
O O10 0.004061 0.347585 0.923075
O O11 0.000000 0.500000 0.000000
O O12 0.684556 0.274304 0.323192
O O13 0.728464 0.166301 0.201197
O O14 0.523318 0.620074 0.488512
O O15 0.315951 0.544276 0.613772
#
# Coordination Sequence:
#
# PCOD9261669 Si02
#       7
#     8   8   8   8   8   8   8
#     4  10  21  36  54  80 113 159 193 231 302 346
#     4  11  24  44  63  84 111 152 209 263 300 336
#     4  11  23  37  64  89 119 154 196 242 304 347
#     4  11  20  33  52  87 124 155 179 230 288 360
#     4  11  20  31  53  80 123 155 187 223 280 360
#     4  10  20  30  49  81 118 152 187 217 280 358
#     4  10  19  31  48  79 118 152 181 222 271 362
#
# _framework density 18.471851999999998
#
# number of rings (size 3 to 8) (size 9 to 14) (size 15 to 20)
#    0.000    1.429    4.286    2.143    2.000    0.000 
#    0.000    0.000    0.000    4.286    0.000    0.000 
#    0.000    0.000    0.000    0.000    0.000    0.000 
#
# Total GULP energy -155955.913835 kJ/mol
# GULP energy per Si atom -5569.854066 kJ/mol
# Density = 1.842981 g / cm^3
# Si number density = 18.471852 Si / 1000 Ang^3
#
#
#
# Elastic Constant Matrix: (Units=GPa)
#
#
# Indices 1 2 3 4 5 6 
#
# 1 41.2176 26.6761 9.8474 -0.0001 -1.0455 0.0000
# 2 26.6761 124.7791 36.8333 0.0006 -5.7700 0.0000
# 3 9.8474 36.8333 65.6176 0.0007 -9.4635 0.0001
# 4 -0.0001 0.0006 0.0007 39.4677 0.0000 -0.2151
# 5 -1.0455 -5.7700 -9.4635 0.0000 13.8798 0.0001
# 6 0.0000 0.0000 0.0001 -0.2151 0.0001 6.6753
#
#
#
# Elastic Compliance Matrix: (Units=1/GPa)
#
#
# Indices 1 2 3 4 5 6 
#
# 1 0.028228 -0.005739 -0.001167 0.000000 -0.001055 0.000000
# 2 -0.005739 0.010774 -0.005105 0.000000 0.000566 0.000000
# 3 -0.001167 -0.005105 0.019921 0.000000 0.011372 0.000000
# 4 0.000000 0.000000 0.000000 0.025342 0.000000 0.000816
# 5 -0.001055 0.000566 0.011372 0.000000 0.079957 -0.000001
# 6 0.000000 0.000000 0.000000 0.000816 -0.000001 0.149833
#
#
# Mechanical properties :
#
#
# Convention : Reuss Voigt Hill
#
# Bulk Modulus (GPa) = 28.65264 42.03645 35.34455
# Shear Modulus (GPa) = 14.29756 22.55505 18.42631
#
# Velocity S-wave (km/s) = 2.78514 3.49814 3.16180
# Velocity P-wave (km/s) = 5.08801 6.25479 5.70133
#
# Compressibility (1/GPa) = 0.03490079
#
# Stress axis : x y z
#
# Youngs Moduli (GPa) = 35.42599 92.81415 50.19917
#
# Poissons Ratio (x) = 0.53267 0.05858
# Poissons Ratio (y) = 0.20331 0.25627
# Poissons Ratio (z) = 0.04134 0.47382
#
# Static dielectric constant tensor:
#      x y z
#    x 1.624200 0.000000 0.028290 
#    y 0.000000 1.702020 0.000000 
#    z 0.028290 0.000000 1.744750 
# 
# From -- ./inp_files/117162.got.cif
#   From: 2010.05.17/outbox.cif.g08.bks.cpg/sg15_59_cif.got.tgz:117162.got - 2010.06.03 18:47:42.
