data_PCOD9261333
_publ_section_title
;
Structure prediction by ZEFSAII (Michael W. Deem and Ramdas Pophale) SiO2 
 PCOD9261333
Probable space group: C 2/C
;
_chemical_formula_sum "Si O2"
_cell_formula_units_Z 60
_cell_length_a 28.554585
_cell_length_b 30.750516
_cell_length_c 8.666191
_cell_angle_alpha 90.000000
_cell_angle_beta 148.954273
_cell_angle_gamma 90.000000
_cell_volume 3924.390169
_symmetry_space_group_name_H-M "C 2/C"
_symmetry_group_IT_number 15
_symmetry_cell_setting 'monoclinic'
loop_
_space_group_symop_operation_xyz
x,y,z
-x,y,1/2-z
-x,-y,-z
x,-y,1/2+z
1/2+x,1/2+y,z
1/2-x,1/2+y,1/2-z
1/2-x,1/2-y,-z
1/2+x,1/2-y,1/2+z
loop_
_atom_site_type_symbol
_atom_site_label
_atom_site_fract_x
_atom_site_fract_y
_atom_site_fract_z
Si Si1 0.632673 0.357350 0.772352
Si Si2 0.894531 0.042329 0.999921
Si Si3 0.957979 0.810238 0.384839
Si Si4 0.500000 0.240937 0.750000
Si Si5 0.598098 0.547200 0.109567
Si Si6 0.282080 0.710948 0.197036
Si Si7 0.668632 0.635361 0.738016
Si Si8 0.696696 0.207460 0.280379
O O1 0.531527 0.336886 0.495269
O O2 0.635320 0.404267 0.698985
O O3 0.703298 0.328559 0.878371
O O4 0.653661 0.358340 0.013531
O O5 0.900561 0.041441 0.202081
O O6 0.000000 0.047996 0.250000
O O7 0.839969 0.083136 0.774339
O O8 0.857831 0.996018 0.837350
O O9 0.006917 0.773036 0.622574
O O10 0.907015 0.842221 0.363852
O O11 0.880058 0.787919 0.060816
O O12 0.408193 0.213809 0.476707
O O13 0.500000 0.547924 0.750000
O O14 0.212336 0.706767 0.140909
O O15 0.250000 0.750000 0.000000
O O16 0.758123 0.663042 0.031008
O O17 0.750000 0.250000 0.500000
#
# Coordination Sequence:
#
# PCOD9261333 Si02
#       8
#     8   8   8   4   8   8   8   8
#     4  11  20  32  49  74 101 136 170 208 257 293
#     4  10  19  28  46  68  96 136 166 206 246 294
#     4  11  19  32  51  69  96 139 177 203 241 311
#     4  12  20  34  58  70  92 136 182 204 252 296
#     4  10  19  30  43  67 101 130 172 204 241 302
#     4  11  22  31  47  71 105 128 166 216 253 286
#     4  10  19  33  50  67  99 133 175 206 242 298
#     4  11  21  36  51  72  97 133 171 213 245 307
#
# _framework density 15.288999
#
# number of rings (size 3 to 8) (size 9 to 14) (size 15 to 20)
#    0.000    1.333    4.000    6.000    0.000    3.200 
#    0.000    0.000    0.000    0.000    0.000    0.000 
#    0.000    9.600    0.000    0.000    0.000    0.000 
#
# Total GULP energy -167117.136749 kJ/mol
# GULP energy per Si atom -5570.571225 kJ/mol
# Density = 1.525420 g / cm^3
# Si number density = 15.288999 Si / 1000 Ang^3
#
#
#
# Elastic Constant Matrix: (Units=GPa)
#
#
# Indices 1 2 3 4 5 6 
#
# 1 60.3580 45.9771 16.3376 0.0000 -1.0454 0.0000
# 2 45.9771 147.3459 50.9842 0.0000 -2.2839 0.0000
# 3 16.3376 50.9842 57.6547 0.0000 -1.5194 0.0000
# 4 0.0000 0.0000 0.0000 25.6670 0.0000 -1.6305
# 5 -1.0454 -2.2839 -1.5194 0.0000 27.6391 0.0000
# 6 0.0000 0.0000 0.0000 -1.6305 0.0000 23.7615
#
#
#
# Elastic Compliance Matrix: (Units=1/GPa)
#
#
# Indices 1 2 3 4 5 6 
#
# 1 0.021738 -0.006700 -0.000228 0.000000 0.000256 0.000000
# 2 -0.006700 0.011847 -0.008571 0.000000 0.000254 0.000000
# 3 -0.000228 -0.008571 0.025006 0.000000 0.000658 0.000000
# 4 0.000000 0.000000 0.000000 0.039131 0.000000 0.002685
# 5 0.000256 0.000254 0.000658 0.000000 0.036248 0.000000
# 6 0.000000 0.000000 0.000000 0.002685 0.000000 0.042269
#
#
# Mechanical properties :
#
#
# Convention : Reuss Voigt Hill
#
# Bulk Modulus (GPa) = 36.24218 54.66184 45.45201
# Shear Modulus (GPa) = 23.10165 25.55083 24.32624
#
# Velocity S-wave (km/s) = 3.89137 4.09245 3.99318
# Velocity P-wave (km/s) = 6.62922 7.62633 7.14519
#
# Compressibility (1/GPa) = 0.02759216
#
# Stress axis : x y z
#
# Youngs Moduli (GPa) = 46.00311 84.40894 39.99016
#
# Poissons Ratio (x) = 0.56554 0.00913
# Poissons Ratio (y) = 0.30822 0.34276
# Poissons Ratio (z) = 0.01050 0.72348
#
# Static dielectric constant tensor:
#      x y z
#    x 1.528610 0.000000 -0.023390 
#    y 0.000000 1.548810 0.000000 
#    z -0.023390 0.000000 1.515280 
# 
# From -- ./inp_files/71002.got.cif
#   From: 2010.05.17/outbox.cif.g08.bks.cpg/sg15_36_cif.got.tgz:71002.got - 2010.06.03 18:47:42.
