data_PCOD9261937
_publ_section_title
;
Structure prediction by ZEFSAII (Michael W. Deem and Ramdas Pophale) SiO2 
 PCOD9261937
Probable space group: C 2/C
;
_chemical_formula_sum "Si O2"
_cell_formula_units_Z 56
_cell_length_a 26.898704
_cell_length_b 21.762989
_cell_length_c 5.350559
_cell_angle_alpha 90.000000
_cell_angle_beta 101.856213
_cell_angle_gamma 90.000000
_cell_volume 3065.375510
_symmetry_space_group_name_H-M "C 2/C"
_symmetry_group_IT_number 15
_symmetry_cell_setting 'monoclinic'
loop_
_space_group_symop_operation_xyz
x,y,z
-x,y,1/2-z
-x,-y,-z
x,-y,1/2+z
1/2+x,1/2+y,z
1/2-x,1/2+y,1/2-z
1/2-x,1/2-y,-z
1/2+x,1/2-y,1/2+z
loop_
_atom_site_type_symbol
_atom_site_label
_atom_site_fract_x
_atom_site_fract_y
_atom_site_fract_z
Si Si1 0.249112 0.153670 0.997898
Si Si2 0.000000 0.827697 0.750000
Si Si3 0.820189 0.097867 0.935408
Si Si4 0.334435 0.754575 0.544805
Si Si5 0.608615 0.534854 0.858375
Si Si6 0.000000 0.906997 0.250000
Si Si7 0.114712 0.789848 0.885331
Si Si8 0.754459 0.516741 0.128037
O O1 0.228161 0.138099 0.698793
O O2 0.210899 0.205551 0.055455
O O3 0.305115 0.181310 0.051350
O O4 0.244050 0.089069 0.137058
O O5 0.053925 0.794028 0.839237
O O6 0.006866 0.867619 0.506875
O O7 0.853650 0.085183 0.717501
O O8 0.794095 0.030529 0.963478
O O9 0.858596 0.142374 0.123758
O O10 0.369656 0.750054 0.338602
O O11 0.362519 0.735176 0.829675
O O12 0.615337 0.481018 0.656399
O O13 0.550670 0.554278 0.765849
O O14 0.782570 0.492083 0.396906
#
# Coordination Sequence:
#
# PCOD9261937 Si02
#       8
#     8   4   8   8   8   4   8   8
#     4   9  20  36  54  80 110 143 186 230 270 334
#     4  12  24  41  62  78 106 140 194 245 296 320
#     4  10  21  36  55  79 110 149 184 223 276 334
#     4  10  22  37  57  80 106 141 184 233 286 327
#     4  12  24  37  52  73 105 143 192 235 278 325
#     4  12  24  41  54  74  98 148 182 253 286 320
#     4  11  23  39  59  80 105 144 189 239 284 331
#     4  10  19  32  50  75 105 144 179 214 261 317
#
# _framework density 18.268561999999999
#
# number of rings (size 3 to 8) (size 9 to 14) (size 15 to 20)
#    0.000    1.429    1.429    4.714    2.000    7.429 
#    0.000    0.000    0.000    0.000    0.000    0.000 
#    0.000    0.000    0.000   51.429    0.000    0.000 
#
# Total GULP energy -156077.609420 kJ/mol
# GULP energy per Si atom -5574.200336 kJ/mol
# Density = 1.822698 g / cm^3
# Si number density = 18.268562 Si / 1000 Ang^3
#
#
#
# Elastic Constant Matrix: (Units=GPa)
#
#
# Indices 1 2 3 4 5 6 
#
# 1 88.1698 42.8627 34.9400 0.0000 3.1119 0.0000
# 2 42.8627 69.0067 14.9125 0.0000 3.7699 0.0000
# 3 34.9400 14.9125 96.2307 0.0000 -8.2434 0.0000
# 4 0.0000 0.0000 0.0000 17.6589 0.0000 4.9410
# 5 3.1119 3.7699 -8.2434 0.0000 25.4676 0.0000
# 6 0.0000 0.0000 0.0000 4.9410 0.0000 30.4701
#
#
#
# Elastic Compliance Matrix: (Units=1/GPa)
#
#
# Indices 1 2 3 4 5 6 
#
# 1 0.018512 -0.010206 -0.005353 0.000000 -0.002484 0.000000
# 2 -0.010206 0.020855 0.000325 0.000000 -0.001735 0.000000
# 3 -0.005353 0.000325 0.012688 0.000000 0.004713 0.000000
# 4 0.000000 0.000000 0.000000 0.059320 0.000000 -0.009619
# 5 -0.002484 -0.001735 0.004713 0.000000 0.041351 0.000000
# 6 0.000000 0.000000 0.000000 -0.009619 0.000000 0.034379
#
#
# Mechanical properties :
#
#
# Convention : Reuss Voigt Hill
#
# Bulk Modulus (GPa) = 46.32043 48.75973 47.54008
# Shear Modulus (GPa) = 22.24497 25.43212 23.83854
#
# Velocity S-wave (km/s) = 3.49329 3.73517 3.61625
# Velocity P-wave (km/s) = 6.45609 6.73427 6.59665
#
# Compressibility (1/GPa) = 0.02158875
#
# Stress axis : x y z
#
# Youngs Moduli (GPa) = 54.01836 47.94942 78.81158
#
# Poissons Ratio (x) = 0.48938 0.42185
# Poissons Ratio (y) = 0.55132 -0.02564
# Poissons Ratio (z) = 0.28914 -0.01560
#
# Static dielectric constant tensor:
#      x y z
#    x 1.622930 0.000000 -0.025740 
#    y 0.000000 1.690390 0.000000 
#    z -0.025740 0.000000 1.706560 
# 
# From -- ./inp_files/17585.got.cif
#   From: 2010.05.17/outbox.cif.g08.bks.cpg/sg15_9_cif.got.tgz:17585.got - 2010.06.03 18:47:42.
