data_PCOD9261407
_publ_section_title
;
Structure prediction by ZEFSAII (Michael W. Deem and Ramdas Pophale) SiO2 
 PCOD9261407
Probable space group: C 2/C
;
_chemical_formula_sum "Si O2"
_cell_formula_units_Z 56
_cell_length_a 19.557682
_cell_length_b 12.183073
_cell_length_c 18.391066
_cell_angle_alpha 90.000000
_cell_angle_beta 133.245209
_cell_angle_gamma 90.000000
_cell_volume 3192.037002
_symmetry_space_group_name_H-M "C 2/C"
_symmetry_group_IT_number 15
_symmetry_cell_setting 'monoclinic'
loop_
_space_group_symop_operation_xyz
x,y,z
-x,y,1/2-z
-x,-y,-z
x,-y,1/2+z
1/2+x,1/2+y,z
1/2-x,1/2+y,1/2-z
1/2-x,1/2-y,-z
1/2+x,1/2-y,1/2+z
loop_
_atom_site_type_symbol
_atom_site_label
_atom_site_fract_x
_atom_site_fract_y
_atom_site_fract_z
Si Si1 0.713047 0.643424 0.655483
Si Si2 0.232499 0.878072 0.007833
Si Si3 0.152163 0.287766 0.118269
Si Si4 0.197989 0.497881 0.080442
Si Si5 0.850195 0.935107 0.812306
Si Si6 0.440654 0.175377 0.498931
Si Si7 0.476718 0.332951 0.649309
O O1 0.756980 0.610161 0.610121
O O2 0.798708 0.666653 0.772288
O O3 0.649071 0.548753 0.643931
O O4 0.643335 0.746402 0.591964
O O5 0.379109 0.602506 0.076115
O O6 0.250000 0.750000 0.000000
O O7 0.279204 0.956233 0.982651
O O8 0.195397 0.366697 0.088168
O O9 0.171732 0.158900 0.143698
O O10 0.040263 0.305122 0.033802
O O11 0.273410 0.547640 0.192631
O O12 0.099245 0.553169 0.030866
O O13 0.943488 0.896102 0.838113
O O14 0.458692 0.219374 0.593872
O O15 0.500000 0.315635 0.750000
#
# Coordination Sequence:
#
# PCOD9261407 Si02
#       7
#     8   8   8   8   8   8   8
#     4  10  21  36  55  82 108 141 175 231 261 312
#     4  11  19  33  53  79 113 132 176 227 275 308
#     4  10  21  34  55  77 108 148 175 214 267 324
#     4  11  19  34  52  79 110 139 177 219 269 320
#     4  10  20  36  55  76 110 140 184 216 269 316
#     4  10  20  32  53  80 108 136 178 214 269 319
#     4  10  19  29  52  81 106 137 172 224 267 311
#
# _framework density 17.543657
#
# number of rings (size 3 to 8) (size 9 to 14) (size 15 to 20)
#    0.000    1.714    5.714    0.429    2.000    5.143 
#    0.000    0.714    0.000    0.000    0.000    0.000 
#    0.000    0.000    0.000    0.000    0.000    0.000 
#
# Total GULP energy -155927.783022 kJ/mol
# GULP energy per Si atom -5568.849394 kJ/mol
# Density = 1.750373 g / cm^3
# Si number density = 17.543657 Si / 1000 Ang^3
#
#
#
# Elastic Constant Matrix: (Units=GPa)
#
#
# Indices 1 2 3 4 5 6 
#
# 1 58.7219 23.8679 15.0527 0.0000 -4.3791 0.0000
# 2 23.8679 65.5828 1.4956 0.0000 -3.3595 0.0000
# 3 15.0527 1.4956 36.9322 0.0000 -0.6283 0.0000
# 4 0.0000 0.0000 0.0000 12.8911 0.0000 1.1838
# 5 -4.3791 -3.3595 -0.6283 0.0000 30.8538 0.0000
# 6 0.0000 0.0000 0.0000 1.1838 0.0000 25.0633
#
#
#
# Elastic Compliance Matrix: (Units=1/GPa)
#
#
# Indices 1 2 3 4 5 6 
#
# 1 0.022702 -0.007948 -0.008894 0.000000 0.002176 0.000000
# 2 -0.007948 0.018129 0.002520 0.000000 0.000897 0.000000
# 3 -0.008894 0.002520 0.030593 0.000000 -0.000365 0.000000
# 4 0.000000 0.000000 0.000000 0.077911 0.000000 -0.003680
# 5 0.002176 0.000897 -0.000365 0.000000 0.032810 0.000000
# 6 0.000000 0.000000 0.000000 -0.003680 0.000000 0.040073
#
#
# Mechanical properties :
#
#
# Convention : Reuss Voigt Hill
#
# Bulk Modulus (GPa) = 23.37453 26.89660 25.13556
# Shear Modulus (GPa) = 18.85936 21.81637 20.33787
#
# Velocity S-wave (km/s) = 3.28227 3.53022 3.40850
# Velocity P-wave (km/s) = 5.26469 5.65519 5.46343
#
# Compressibility (1/GPa) = 0.04278161
#
# Stress axis : x y z
#
# Youngs Moduli (GPa) = 44.04908 55.16065 32.68687
#
# Poissons Ratio (x) = 0.43840 0.29071
# Poissons Ratio (y) = 0.35009 -0.08239
# Poissons Ratio (z) = 0.39177 -0.13903
#
# Static dielectric constant tensor:
#      x y z
#    x 1.619970 0.000000 0.009190 
#    y 0.000000 1.616920 0.000000 
#    z 0.009190 0.000000 1.626950 
# 
# From -- ./inp_files/252435.got.cif
#   From: 2010.05.17/outbox.cif.g08.bks.cpg/sg15_127_cif.got.tgz:252435.got - 2010.06.03 18:47:42.
