data_PCOD9261214
_publ_section_title
;
Structure prediction by ZEFSAII (Michael W. Deem and Ramdas Pophale) SiO2 
 PCOD9261214
Probable space group: C 2/C
;
_chemical_formula_sum "Si O2"
_cell_formula_units_Z 56
_cell_length_a 17.706433
_cell_length_b 15.398391
_cell_length_c 8.801839
_cell_angle_alpha 90.000000
_cell_angle_beta 73.287850
_cell_angle_gamma 90.000000
_cell_volume 2298.461511
_symmetry_space_group_name_H-M "C 2/C"
_symmetry_group_IT_number 15
_symmetry_cell_setting 'monoclinic'
loop_
_space_group_symop_operation_xyz
x,y,z
-x,y,1/2-z
-x,-y,-z
x,-y,1/2+z
1/2+x,1/2+y,z
1/2-x,1/2+y,1/2-z
1/2-x,1/2-y,-z
1/2+x,1/2-y,1/2+z
loop_
_atom_site_type_symbol
_atom_site_label
_atom_site_fract_x
_atom_site_fract_y
_atom_site_fract_z
Si Si1 0.145546 0.900231 0.961950
Si Si2 0.194049 0.673490 0.097445
Si Si3 0.774339 0.398270 0.429478
Si Si4 0.511201 0.304042 0.918201
Si Si5 0.118319 0.914691 0.339153
Si Si6 0.601304 0.160619 0.444293
Si Si7 0.656076 0.024009 0.904490
O O1 0.237203 0.887472 0.874089
O O2 0.099569 0.817845 0.921134
O O3 0.114123 0.985349 0.894762
O O4 0.130248 0.905477 0.151888
O O5 0.133331 0.696163 0.265186
O O6 0.148977 0.611851 0.004819
O O7 0.250000 0.750000 0.000000
O O8 0.693830 0.378420 0.390435
O O9 0.827447 0.324422 0.475902
O O10 0.768932 0.471582 0.564529
O O11 0.828841 0.444186 0.272548
O O12 0.500000 0.330125 0.750000
O O13 0.458090 0.365031 0.056695
O O14 0.476607 0.208411 0.959808
O O15 0.594526 0.055670 0.441618
#
# Coordination Sequence:
#
# PCOD9261214 Si02
#       7
#     8   8   8   8   8   8   8
#     4  12  25  45  69 104 146 188 230 292 374 450
#     4  12  24  41  73 112 141 178 239 311 365 416
#     4  10  19  37  73 104 139 174 232 290 361 418
#     4  12  29  45  63  97 147 198 240 285 357 440
#     4  12  22  43  72 102 143 188 234 290 372 443
#     4  10  23  44  68 100 145 186 237 294 358 423
#     4  10  18  41  68 107 138 175 229 296 365 421
#
# _framework density 24.364124
#
# number of rings (size 3 to 8) (size 9 to 14) (size 15 to 20)
#    0.857    0.000    4.286    2.571    4.000    1.714 
#    0.000    0.000    0.000    7.714    0.000    0.000 
#    0.000    0.000    0.000    0.000    0.000    0.000 
#
# Total GULP energy -156532.079227 kJ/mol
# GULP energy per Si atom -5590.431401 kJ/mol
# Density = 2.430867 g / cm^3
# Si number density = 24.364124 Si / 1000 Ang^3
#
#
#
# Elastic Constant Matrix: (Units=GPa)
#
#
# Indices 1 2 3 4 5 6 
#
# 1 44.8400 22.4881 15.3057 0.0000 3.8159 0.0000
# 2 22.4881 92.3733 9.7524 0.0000 7.3314 0.0000
# 3 15.3057 9.7524 139.3182 0.0000 27.5117 0.0000
# 4 0.0000 0.0000 0.0000 24.9334 0.0000 -3.3893
# 5 3.8159 7.3314 27.5117 0.0000 27.6922 0.0000
# 6 0.0000 0.0000 0.0000 -3.3893 0.0000 40.5907
#
#
#
# Elastic Compliance Matrix: (Units=1/GPa)
#
#
# Indices 1 2 3 4 5 6 
#
# 1 0.026215 -0.006156 -0.002560 0.000000 0.000561 0.000000
# 2 -0.006156 0.012510 0.000357 0.000000 -0.002819 0.000000
# 3 -0.002560 0.000357 0.009185 0.000000 -0.008867 0.000000
# 4 0.000000 0.000000 0.000000 0.040567 0.000000 0.003387
# 5 0.000561 -0.002819 -0.008867 0.000000 0.045589 0.000000
# 6 0.000000 0.000000 0.000000 0.003387 0.000000 0.024919
#
#
# Mechanical properties :
#
#
# Convention : Reuss Voigt Hill
#
# Bulk Modulus (GPa) = 32.05871 41.29157 36.67514
# Shear Modulus (GPa) = 26.86709 33.90897 30.38803
#
# Velocity S-wave (km/s) = 3.32434 3.73467 3.53547
# Velocity P-wave (km/s) = 5.28410 5.96503 5.63486
#
# Compressibility (1/GPa) = 0.03119277
#
# Stress axis : x y z
#
# Youngs Moduli (GPa) = 38.14601 79.93375 108.87292
#
# Poissons Ratio (x) = 0.49209 0.27869
# Poissons Ratio (y) = 0.23484 -0.03889
# Poissons Ratio (z) = 0.09765 -0.02855
#
# Static dielectric constant tensor:
#      x y z
#    x 1.975700 0.000000 0.035440 
#    y 0.000000 2.036260 0.000000 
#    z 0.035440 0.000000 1.913130 
# 
# From -- ./inp_files/48997.got.cif
#   From: 2010.05.17/outbox.cif.g08.bks.cpg/sg15_25_cif.got.tgz:48997.got - 2010.06.03 18:47:42.
