data_PCOD9261833
_publ_section_title
;
Structure prediction by ZEFSAII (Michael W. Deem and Ramdas Pophale) SiO2 
 PCOD9261833
Probable space group: C 2/C
;
_chemical_formula_sum "Si O2"
_cell_formula_units_Z 56
_cell_length_a 15.994206
_cell_length_b 25.209071
_cell_length_c 16.721024
_cell_angle_alpha 90.000000
_cell_angle_beta 160.421383
_cell_angle_gamma 90.000000
_cell_volume 2259.210938
_symmetry_space_group_name_H-M "C 2/C"
_symmetry_group_IT_number 15
_symmetry_cell_setting 'monoclinic'
loop_
_space_group_symop_operation_xyz
x,y,z
-x,y,1/2-z
-x,-y,-z
x,-y,1/2+z
1/2+x,1/2+y,z
1/2-x,1/2+y,1/2-z
1/2-x,1/2-y,-z
1/2+x,1/2-y,1/2+z
loop_
_atom_site_type_symbol
_atom_site_label
_atom_site_fract_x
_atom_site_fract_y
_atom_site_fract_z
Si Si1 0.868866 0.121971 0.792803
Si Si2 0.409002 0.561657 0.082804
Si Si3 0.618936 0.100401 0.088750
Si Si4 0.286403 0.682783 0.989154
Si Si5 0.823343 0.029066 0.406051
Si Si6 0.266976 0.272858 0.135785
Si Si7 0.892169 0.201523 0.368339
O O1 0.675499 0.101011 0.685542
O O2 0.015214 0.070759 0.896480
O O3 0.755364 0.163154 0.626759
O O4 0.041512 0.160862 0.999990
O O5 0.500000 0.542140 0.250000
O O6 0.673911 0.572332 0.277252
O O7 0.238204 0.518649 0.884920
O O8 0.284473 0.619214 0.975414
O O9 0.639874 0.067051 0.191139
O O10 0.687914 0.162948 0.143407
O O11 0.000000 0.698178 0.750000
O O12 0.500000 0.690836 0.250000
O O13 0.392540 0.709000 0.003161
O O14 0.000000 0.000000 0.500000
O O15 0.551111 0.251628 0.385292
O O16 0.202907 0.252201 0.168998
#
# Coordination Sequence:
#
# PCOD9261833 Si02
#       7
#     8   8   8   8   8   8   8
#     4  10  19  31  56  75 106 140 180 228 283 332
#     4   9  19  34  51  75 107 145 190 228 277 332
#     4   9  17  33  52  75 104 141 179 229 280 329
#     4  10  22  36  54  75 106 147 193 232 271 327
#     4   9  19  35  49  78 107 140 186 232 283 333
#     4  10  19  32  54  80 106 139 177 225 283 331
#     4   9  19  32  52  77 103 137 183 226 277 324
#
# _framework density 24.787414999999999
#
# number of rings (size 3 to 8) (size 9 to 14) (size 15 to 20)
#    0.000    2.571    1.429    0.857    6.000    2.286 
#    5.143    0.000    0.000   11.143    0.000    0.000 
#    0.000   10.286    0.000    1.286    0.000    0.000 
#
# Total GULP energy -156132.395388 kJ/mol
# GULP energy per Si atom -5576.156978 kJ/mol
# Density = 2.473100 g / cm^3
# Si number density = 24.787415 Si / 1000 Ang^3
#
#
#
# Elastic Constant Matrix: (Units=GPa)
#
#
# Indices 1 2 3 4 5 6 
#
# 1 51.6736 23.6626 18.1979 0.0006 0.9099 -0.0008
# 2 23.6626 159.8871 29.0091 0.0012 -1.7596 -0.0010
# 3 18.1979 29.0091 77.3123 0.0039 12.9780 -0.0015
# 4 0.0006 0.0012 0.0039 33.3908 0.0000 -2.6053
# 5 0.9099 -1.7596 12.9780 0.0000 27.4235 -0.0004
# 6 -0.0008 -0.0010 -0.0015 -2.6053 -0.0004 27.5806
#
#
#
# Elastic Compliance Matrix: (Units=1/GPa)
#
#
# Indices 1 2 3 4 5 6 
#
# 1 0.022022 -0.002433 -0.004477 0.000000 0.001232 0.000000
# 2 -0.002433 0.007059 -0.002353 0.000000 0.001647 0.000000
# 3 -0.004477 -0.002353 0.016155 -0.000002 -0.007648 0.000000
# 4 0.000000 0.000000 -0.000002 0.030171 0.000001 0.002850
# 5 0.001232 0.001647 -0.007648 0.000001 0.040149 0.000000
# 6 0.000000 0.000000 0.000000 0.002850 0.000000 0.036527
#
#
# Mechanical properties :
#
#
# Convention : Reuss Voigt Hill
#
# Bulk Modulus (GPa) = 37.43951 47.84580 42.64265
# Shear Modulus (GPa) = 27.85330 32.21253 30.03292
#
# Velocity S-wave (km/s) = 3.35578 3.60884 3.48461
# Velocity P-wave (km/s) = 5.49109 6.05882 5.78193
#
# Compressibility (1/GPa) = 0.02670975
#
# Stress axis : x y z
#
# Youngs Moduli (GPa) = 45.41008 141.65338 61.90053
#
# Poissons Ratio (x) = 0.34467 0.27715
# Poissons Ratio (y) = 0.11049 0.14563
# Poissons Ratio (z) = 0.20331 0.33326
#
# Static dielectric constant tensor:
#      x y z
#    x 2.023330 0.000000 -0.034680 
#    y 0.000000 1.983030 0.000000 
#    z -0.034680 0.000000 2.145410 
# 
# From -- ./inp_files/212360.got.cif
#   From: 2010.05.17/outbox.cif.g08.bks.cpg/sg15_107_cif.got.tgz:212360.got - 2010.06.03 18:47:42.
