data_PCOD9261713
_publ_section_title
;
Structure prediction by ZEFSAII (Michael W. Deem and Ramdas Pophale) SiO2 
 PCOD9261713
Probable space group: C 2/C
;
_chemical_formula_sum "Si O2"
_cell_formula_units_Z 56
_cell_length_a 18.697161
_cell_length_b 6.255228
_cell_length_c 24.117166
_cell_angle_alpha 90.000000
_cell_angle_beta 101.234169
_cell_angle_gamma 90.000000
_cell_volume 2766.577723
_symmetry_space_group_name_H-M "C 2/C"
_symmetry_group_IT_number 15
_symmetry_cell_setting 'monoclinic'
loop_
_space_group_symop_operation_xyz
x,y,z
-x,y,1/2-z
-x,-y,-z
x,-y,1/2+z
1/2+x,1/2+y,z
1/2-x,1/2+y,1/2-z
1/2-x,1/2-y,-z
1/2+x,1/2-y,1/2+z
loop_
_atom_site_type_symbol
_atom_site_label
_atom_site_fract_x
_atom_site_fract_y
_atom_site_fract_z
Si Si1 0.723536 0.908055 0.652956
Si Si2 0.904885 0.275613 0.353938
Si Si3 0.073280 0.909271 0.287114
Si Si4 0.010061 0.039637 0.937056
Si Si5 0.861781 0.819875 0.610164
Si Si6 0.315220 0.550815 0.773993
Si Si7 0.458927 0.064400 0.125248
O O1 0.777580 0.882926 0.608138
O O2 0.709060 0.669429 0.674163
O O3 0.758929 0.007204 0.715545
O O4 0.653782 0.056697 0.629105
O O5 0.859920 0.157742 0.299049
O O6 0.944055 0.088223 0.396371
O O7 0.975182 0.411460 0.347328
O O8 0.056928 0.730567 0.329183
O O9 0.000000 0.989335 0.250000
O O10 0.108894 0.104442 0.325259
O O11 0.124078 0.808129 0.247860
O O12 0.087855 0.947037 0.926287
O O13 0.013389 0.289472 0.921507
O O14 0.000000 0.000000 0.000000
O O15 0.886452 0.576322 0.604177
#
# Coordination Sequence:
#
# PCOD9261713 Si02
#       7
#     8   8   8   8   8   8   8
#     4  11  22  36  56  87 128 166 200 236 295 363
#     4  11  22  39  58  88 123 159 205 251 299 373
#     4  10  19  31  50  82 117 152 197 235 286 350
#     4  10  22  43  67  88 111 150 208 267 321 368
#     4   9  22  36  56  86 116 151 199 253 302 365
#     4  11  22  34  55  84 120 167 197 226 286 361
#     4  10  21  38  60  84 118 153 199 259 303 356
#
# _framework density 20.241616
#
# number of rings (size 3 to 8) (size 9 to 14) (size 15 to 20)
#    0.000    1.714    1.429    4.286    2.000    6.286 
#    0.000    2.143    0.000    4.286    0.000    0.000 
#    0.000    0.000    0.000    0.000    0.000    0.000 
#
# Total GULP energy -155883.742340 kJ/mol
# GULP energy per Si atom -5567.276512 kJ/mol
# Density = 2.019554 g / cm^3
# Si number density = 20.241616 Si / 1000 Ang^3
#
#
#
# Elastic Constant Matrix: (Units=GPa)
#
#
# Indices 1 2 3 4 5 6 
#
# 1 103.0723 19.3621 19.0511 0.0000 -20.0777 0.0000
# 2 19.3621 58.5936 12.3055 0.0000 3.1705 0.0000
# 3 19.0511 12.3055 50.8993 0.0000 -19.6219 0.0000
# 4 0.0000 0.0000 0.0000 7.1728 0.0000 2.1203
# 5 -20.0777 3.1705 -19.6219 0.0000 24.1121 0.0000
# 6 0.0000 0.0000 0.0000 2.1203 0.0000 32.5585
#
#
#
# Elastic Compliance Matrix: (Units=1/GPa)
#
#
# Indices 1 2 3 4 5 6 
#
# 1 0.012860 -0.005172 0.001205 0.000000 0.012369 0.000000
# 2 -0.005172 0.021373 -0.008706 0.000000 -0.014202 0.000000
# 3 0.001205 -0.008706 0.032244 0.000000 0.028388 0.000000
# 4 0.000000 0.000000 0.000000 0.142152 0.000000 -0.009257
# 5 0.012369 -0.014202 0.028388 0.000000 0.076741 0.000000
# 6 0.000000 0.000000 0.000000 -0.009257 0.000000 0.031317
#
#
# Mechanical properties :
#
#
# Convention : Reuss Voigt Hill
#
# Bulk Modulus (GPa) = 24.31241 34.88920 29.60080
# Shear Modulus (GPa) = 14.05511 23.55845 18.80678
#
# Velocity S-wave (km/s) = 2.63794 3.41524 3.05144
# Velocity P-wave (km/s) = 4.61687 5.72937 5.20294
#
# Compressibility (1/GPa) = 0.04113127
#
# Stress axis : x y z
#
# Youngs Moduli (GPa) = 77.75941 46.78873 31.01367
#
# Poissons Ratio (x) = 0.24200 -0.03739
# Poissons Ratio (y) = 0.40218 0.27001
# Poissons Ratio (z) = -0.09374 0.40735
#
# Static dielectric constant tensor:
#      x y z
#    x 1.853730 0.000000 -0.023700 
#    y 0.000000 1.800880 0.000000 
#    z -0.023700 0.000000 1.718280 
# 
# From -- ./inp_files/278684.got.cif
#   From: 2010.05.17/outbox.cif.g08.bks.cpg/sg15_140_cif.got.tgz:278684.got - 2010.06.03 18:47:42.
