data_PCOD9261493
_publ_section_title
;
Structure prediction by ZEFSAII (Michael W. Deem and Ramdas Pophale) SiO2 
 PCOD9261493
Probable space group: C 2/C
;
_chemical_formula_sum "Si O2"
_cell_formula_units_Z 56
_cell_length_a 22.952362
_cell_length_b 7.747773
_cell_length_c 12.124850
_cell_angle_alpha 90.000000
_cell_angle_beta 82.703829
_cell_angle_gamma 90.000000
_cell_volume 2138.699763
_symmetry_space_group_name_H-M "C 2/C"
_symmetry_group_IT_number 15
_symmetry_cell_setting 'monoclinic'
loop_
_space_group_symop_operation_xyz
x,y,z
-x,y,1/2-z
-x,-y,-z
x,-y,1/2+z
1/2+x,1/2+y,z
1/2-x,1/2+y,1/2-z
1/2-x,1/2-y,-z
1/2+x,1/2-y,1/2+z
loop_
_atom_site_type_symbol
_atom_site_label
_atom_site_fract_x
_atom_site_fract_y
_atom_site_fract_z
Si Si1 0.543476 0.829574 0.633988
Si Si2 0.189379 0.948514 0.785696
Si Si3 0.888031 0.405423 0.693769
Si Si4 0.221810 0.420689 0.379606
Si Si5 0.097332 0.763338 0.718159
Si Si6 0.218377 0.614099 0.583859
Si Si7 0.964177 0.714256 0.973243
O O1 0.500000 0.807416 0.750000
O O2 0.521296 0.729391 0.530509
O O3 0.603613 0.816276 0.688881
O O4 0.537593 0.023080 0.583945
O O5 0.208893 0.767529 0.836491
O O6 0.120165 0.919850 0.787956
O O7 0.213705 0.008163 0.660793
O O8 0.228449 0.077626 0.846101
O O9 0.822107 0.452350 0.677394
O O10 0.919200 0.595972 0.703783
O O11 0.916265 0.306836 0.583347
O O12 0.206436 0.447602 0.510468
O O13 0.156900 0.687691 0.644360
O O14 0.054137 0.820395 0.630931
O O15 0.250000 0.750000 0.500000
#
# Coordination Sequence:
#
# PCOD9261493 Si02
#       7
#     8   8   8   8   8   8   8
#     4   8  15  25  41  69 100 138 165 213 269 330
#     4  11  21  36  49  74 104 141 186 222 269 320
#     4   9  16  27  45  69 101 140 173 214 274 313
#     4  11  20  33  51  74 105 148 179 229 265 322
#     4  10  19  30  49  69 101 141 176 222 269 312
#     4  12  21  35  52  71 101 144 182 225 276 313
#     4   9  15  27  45  67 101 141 171 211 278 318
#
# _framework density 26.184134
#
# number of rings (size 3 to 8) (size 9 to 14) (size 15 to 20)
#    0.000    2.000    5.714    0.429    0.000    0.000 
#    0.000    0.000    0.000    0.000    0.000    0.000 
#    0.000    4.571  186.000   84.714    0.000    0.000 
#
# Total GULP energy -155967.407354 kJ/mol
# GULP energy per Si atom -5570.264548 kJ/mol
# Density = 2.612454 g / cm^3
# Si number density = 26.184134 Si / 1000 Ang^3
#
#
#
# Elastic Constant Matrix: (Units=GPa)
#
#
# Indices 1 2 3 4 5 6 
#
# 1 47.2695 13.2069 25.8818 0.0000 17.8721 0.0000
# 2 13.2069 35.6763 14.0456 0.0000 -2.4351 0.0000
# 3 25.8818 14.0456 125.6394 0.0000 33.9785 0.0000
# 4 0.0000 0.0000 0.0000 28.9213 0.0000 5.2169
# 5 17.8721 -2.4351 33.9785 0.0000 61.9843 0.0000
# 6 0.0000 0.0000 0.0000 5.2169 0.0000 9.6952
#
#
#
# Elastic Compliance Matrix: (Units=1/GPa)
#
#
# Indices 1 2 3 4 5 6 
#
# 1 0.028036 -0.009744 -0.002814 0.000000 -0.006924 0.000000
# 2 -0.009744 0.033353 -0.003329 0.000000 0.005945 0.000000
# 3 -0.002814 -0.003329 0.010246 0.000000 -0.004936 0.000000
# 4 0.000000 0.000000 0.000000 0.038293 0.000000 -0.020605
# 5 -0.006924 0.005945 -0.004936 0.000000 0.021069 0.000000
# 6 0.000000 0.000000 0.000000 -0.020605 0.000000 0.114231
#
#
# Mechanical properties :
#
#
# Convention : Reuss Voigt Hill
#
# Bulk Modulus (GPa) = 25.08613 34.98378 30.03496
# Shear Modulus (GPa) = 17.22420 30.48355 23.85387
#
# Velocity S-wave (km/s) = 2.56756 3.41574 3.02156
# Velocity P-wave (km/s) = 4.28851 5.38015 4.86505
#
# Compressibility (1/GPa) = 0.03986266
#
# Stress axis : x y z
#
# Youngs Moduli (GPa) = 35.66827 29.98217 97.59871
#
# Poissons Ratio (x) = 0.29213 0.27460
# Poissons Ratio (y) = 0.34754 0.32492
# Poissons Ratio (z) = 0.10036 0.09982
#
# Static dielectric constant tensor:
#      x y z
#    x 2.137770 0.000000 0.058350 
#    y 0.000000 2.169380 0.000000 
#    z 0.058350 0.000000 2.232610 
# 
# From -- ./inp_files/180365.got.cif
#   From: 2010.05.17/outbox.cif.g08.bks.cpg/sg15_91_cif.got.tgz:180365.got - 2010.06.03 18:47:42.
