data_PCOD9261513
_publ_section_title
;
Structure prediction by ZEFSAII (Michael W. Deem and Ramdas Pophale) SiO2 
 PCOD9261513
Probable space group: C 2/C
;
_chemical_formula_sum "Si O2"
_cell_formula_units_Z 44
_cell_length_a 11.490270
_cell_length_b 26.366064
_cell_length_c 10.954867
_cell_angle_alpha 90.000000
_cell_angle_beta 139.579336
_cell_angle_gamma 90.000000
_cell_volume 2151.899452
_symmetry_space_group_name_H-M "C 2/C"
_symmetry_group_IT_number 15
_symmetry_cell_setting 'monoclinic'
loop_
_space_group_symop_operation_xyz
x,y,z
-x,y,1/2-z
-x,-y,-z
x,-y,1/2+z
1/2+x,1/2+y,z
1/2-x,1/2+y,1/2-z
1/2-x,1/2-y,-z
1/2+x,1/2-y,1/2+z
loop_
_atom_site_type_symbol
_atom_site_label
_atom_site_fract_x
_atom_site_fract_y
_atom_site_fract_z
Si Si1 0.256410 0.898758 0.259794
Si Si2 0.706232 0.012242 0.873906
Si Si3 0.097928 0.414930 0.695316
Si Si4 0.798395 0.796600 0.208023
Si Si5 0.781129 0.186104 0.419978
Si Si6 0.000000 0.050179 0.750000
O O1 0.225790 0.934254 0.120123
O O2 0.444723 0.913423 0.472442
O O3 0.274075 0.838447 0.256390
O O4 0.097592 0.913799 0.228428
O O5 0.500000 0.019504 0.750000
O O6 0.700594 0.968292 0.765151
O O7 0.841340 0.985915 0.075607
O O8 0.000000 0.416511 0.750000
O O9 0.221336 0.365158 0.805815
O O10 0.711635 0.811351 0.005787
O O11 0.009080 0.807101 0.388472
O O12 0.775952 0.736486 0.198177
#
# Coordination Sequence:
#
# PCOD9261513 Si02
#       6
#     8   8   8   8   8   4
#     4  12  22  37  58  84 121 155 192 242 290 347
#     4  11  24  41  58  83 118 158 201 240 286 341
#     4  11  19  34  54  80 115 153 191 231 290 340
#     4  10  19  30  49  79 115 149 188 223 290 352
#     4  10  19  31  50  79 116 152 180 232 287 355
#     4  12  22  38  58  84 118 156 192 244 292 348
#
# _framework density 20.447051999999999
#
# number of rings (size 3 to 8) (size 9 to 14) (size 15 to 20)
#    0.000    1.091    5.455    4.364    2.545    0.000 
#    0.000    0.000    0.000    0.000    0.000    5.091 
#    0.000    0.000    0.000    0.000    0.000    0.000 
#
# Total GULP energy -122690.190934 kJ/mol
# GULP energy per Si atom -5576.826861 kJ/mol
# Density = 2.040051 g / cm^3
# Si number density = 20.447052 Si / 1000 Ang^3
#
#
#
# Elastic Constant Matrix: (Units=GPa)
#
#
# Indices 1 2 3 4 5 6 
#
# 1 22.8687 19.4311 9.7145 0.0000 8.6437 0.0000
# 2 19.4311 154.7651 13.7780 0.0000 -2.7949 0.0000
# 3 9.7145 13.7780 64.3510 0.0000 16.9846 0.0000
# 4 0.0000 0.0000 0.0000 39.6298 0.0000 -2.3185
# 5 8.6437 -2.7949 16.9846 0.0000 11.7163 0.0000
# 6 0.0000 0.0000 0.0000 -2.3185 0.0000 18.1035
#
#
#
# Elastic Compliance Matrix: (Units=1/GPa)
#
#
# Indices 1 2 3 4 5 6 
#
# 1 0.078447 -0.012219 0.011044 0.000000 -0.076799 0.000000
# 2 -0.012219 0.008748 -0.004792 0.000000 0.018048 0.000000
# 3 0.011044 -0.004792 0.028104 0.000000 -0.050031 0.000000
# 4 0.000000 0.000000 0.000000 0.025424 0.000000 0.003256
# 5 -0.076799 0.018048 -0.050031 0.000000 0.218843 0.000000
# 6 0.000000 0.000000 0.000000 0.003256 0.000000 0.055655
#
#
# Mechanical properties :
#
#
# Convention : Reuss Voigt Hill
#
# Bulk Modulus (GPa) = 9.67459 36.42578 23.05019
# Shear Modulus (GPa) = 10.83164 27.16065 18.99615
#
# Velocity S-wave (km/s) = 2.30411 3.64859 3.05132
# Velocity P-wave (km/s) = 3.43807 5.96683 4.86946
#
# Compressibility (1/GPa) = 0.10336354
#
# Stress axis : x y z
#
# Youngs Moduli (GPa) = 12.74751 114.31030 35.58247
#
# Poissons Ratio (x) = 1.39679 -0.39297
# Poissons Ratio (y) = 0.15577 0.17051
# Poissons Ratio (z) = -0.14078 0.54778
#
# Static dielectric constant tensor:
#      x y z
#    x 1.799140 0.000000 0.033750 
#    y 0.000000 1.798060 0.000000 
#    z 0.033750 0.000000 1.746490 
# 
# From -- ./inp_files/32713.got.cif
#   From: 2010.05.17/outbox.cif.g08.bks.cpg/sg15_17_cif.got.tgz:32713.got - 2010.06.03 18:47:42.
