data_PCOD9261301
_publ_section_title
;
Structure prediction by ZEFSAII (Michael W. Deem and Ramdas Pophale) SiO2 
 PCOD9261301
Probable space group: C 2/C
;
_chemical_formula_sum "Si O2"
_cell_formula_units_Z 48
_cell_length_a 12.227872
_cell_length_b 33.523722
_cell_length_c 5.565452
_cell_angle_alpha 90.000000
_cell_angle_beta 107.026754
_cell_angle_gamma 90.000000
_cell_volume 2181.412614
_symmetry_space_group_name_H-M "C 2/C"
_symmetry_group_IT_number 15
_symmetry_cell_setting 'monoclinic'
loop_
_space_group_symop_operation_xyz
x,y,z
-x,y,1/2-z
-x,-y,-z
x,-y,1/2+z
1/2+x,1/2+y,z
1/2-x,1/2+y,1/2-z
1/2-x,1/2-y,-z
1/2+x,1/2-y,1/2+z
loop_
_atom_site_type_symbol
_atom_site_label
_atom_site_fract_x
_atom_site_fract_y
_atom_site_fract_z
Si Si1 0.267187 0.675983 0.580890
Si Si2 0.155438 0.512711 0.474747
Si Si3 0.249219 0.796696 0.934096
Si Si4 0.689860 0.582811 0.926108
Si Si5 0.878081 0.955905 0.613574
Si Si6 0.000000 0.777080 0.750000
Si Si7 0.500000 0.271554 0.250000
O O1 0.205420 0.692633 0.300974
O O2 0.296134 0.629920 0.569923
O O3 0.384754 0.701788 0.677148
O O4 0.206357 0.681658 0.799597
O O5 0.102334 0.503799 0.183593
O O6 0.189978 0.558830 0.517868
O O7 0.276739 0.488073 0.535324
O O8 0.112141 0.804683 0.822883
O O9 0.250000 0.750000 0.000000
O O10 0.623535 0.568022 0.641253
O O11 0.643987 0.570741 0.161530
O O12 0.000000 0.975428 0.750000
O O13 0.002226 0.751202 0.509830
#
# Coordination Sequence:
#
# PCOD9261301 Si02
#       7
#     8   8   8   8   8   4   4
#     4  10  19  30  41  62  81 101 138 168 211 265
#     4   8  16  27  36  46  67  96 133 171 206 240
#     4  10  19  33  50  63  83 110 132 169 215 257
#     4  10  19  28  37  52  73 100 128 177 215 244
#     4  10  19  27  36  51  72 103 143 176 206 247
#     4   8  16  30  44  62  82  97 132 164 194 247
#     4   8  16  26  38  54  80 103 118 166 206 237
#
# _framework density 22.004090999999999
#
# number of rings (size 3 to 8) (size 9 to 14) (size 15 to 20)
#    0.000    2.667    0.000    2.000    2.333    6.000 
#    3.000    0.000    0.000    0.000    0.000    0.000 
#    0.000    0.000    0.000    0.000    0.000    0.000 
#
# Total GULP energy -133713.238105 kJ/mol
# GULP energy per Si atom -5571.384921 kJ/mol
# Density = 2.195401 g / cm^3
# Si number density = 22.004091 Si / 1000 Ang^3
#
#
#
# Elastic Constant Matrix: (Units=GPa)
#
#
# Indices 1 2 3 4 5 6 
#
# 1 23.9952 2.1781 24.4357 0.0000 -0.3070 0.0000
# 2 2.1781 82.6387 40.2365 0.0000 6.2461 0.0000
# 3 24.4357 40.2365 259.8594 0.0000 -32.0837 0.0000
# 4 0.0000 0.0000 0.0000 31.8222 0.0000 -0.3144
# 5 -0.3070 6.2461 -32.0837 0.0000 27.9975 0.0000
# 6 0.0000 0.0000 0.0000 -0.3144 0.0000 29.2654
#
#
#
# Elastic Compliance Matrix: (Units=1/GPa)
#
#
# Indices 1 2 3 4 5 6 
#
# 1 0.047001 0.001895 -0.005477 0.000000 -0.006183 0.000000
# 2 0.001895 0.014126 -0.003206 0.000000 -0.006804 0.000000
# 3 -0.005477 -0.003206 0.005755 0.000000 0.007250 0.000000
# 4 0.000000 0.000000 0.000000 0.031428 0.000000 0.000338
# 5 -0.006183 -0.006804 0.007250 0.000000 0.045475 0.000000
# 6 0.000000 0.000000 0.000000 0.000338 0.000000 0.034174
#
#
# Mechanical properties :
#
#
# Convention : Reuss Voigt Hill
#
# Bulk Modulus (GPa) = 18.75908 55.57710 37.16809
# Shear Modulus (GPa) = 23.88897 37.79321 30.84109
#
# Velocity S-wave (km/s) = 3.29851 4.14883 3.74787
# Velocity P-wave (km/s) = 4.80111 6.94715 5.97133
#
# Compressibility (1/GPa) = 0.05330751
#
# Stress axis : x y z
#
# Youngs Moduli (GPa) = 21.27618 70.79171 173.77303
#
# Poissons Ratio (x) = -0.13415 0.95167
# Poissons Ratio (y) = -0.04032 0.55703
# Poissons Ratio (z) = 0.11652 0.22692
#
# Static dielectric constant tensor:
#      x y z
#    x 1.895280 0.000000 -0.032020 
#    y 0.000000 1.745570 0.000000 
#    z -0.032020 0.000000 1.933550 
# 
# From -- ./inp_files/10789.got.cif
#   From: 2010.05.17/outbox.cif.g08.bks.cpg/sg15_6_cif.got.tgz:10789.got - 2010.06.03 18:47:42.
