data_PCOD9261250
_publ_section_title
;
Structure prediction by ZEFSAII (Michael W. Deem and Ramdas Pophale) SiO2 
 PCOD9261250
Probable space group: C 2/C
;
_chemical_formula_sum "Si O2"
_cell_formula_units_Z 48
_cell_length_a 9.283294
_cell_length_b 28.039079
_cell_length_c 14.399849
_cell_angle_alpha 90.000000
_cell_angle_beta 139.865627
_cell_angle_gamma 90.000000
_cell_volume 2416.029511
_symmetry_space_group_name_H-M "C 2/C"
_symmetry_group_IT_number 15
_symmetry_cell_setting 'monoclinic'
loop_
_space_group_symop_operation_xyz
x,y,z
-x,y,1/2-z
-x,-y,-z
x,-y,1/2+z
1/2+x,1/2+y,z
1/2-x,1/2+y,1/2-z
1/2-x,1/2-y,-z
1/2+x,1/2-y,1/2+z
loop_
_atom_site_type_symbol
_atom_site_label
_atom_site_fract_x
_atom_site_fract_y
_atom_site_fract_z
Si Si1 0.189376 0.569563 0.059036
Si Si2 0.195427 0.431013 0.270833
Si Si3 0.398973 0.375628 0.958282
Si Si4 0.130691 0.034031 0.168512
Si Si5 0.888757 0.295614 0.596307
Si Si6 0.185115 0.168902 0.282987
O O1 0.382836 0.548788 0.085065
O O2 0.207689 0.539731 0.162602
O O3 0.261935 0.622043 0.129168
O O4 0.946018 0.571647 0.893738
O O5 0.364667 0.388362 0.378549
O O6 0.337653 0.479817 0.345867
O O7 0.000000 0.432287 0.250000
O O8 0.303110 0.426711 0.875870
O O9 0.250187 0.344351 0.954436
O O10 0.404806 0.346777 0.863302
O O11 0.750000 0.250000 0.500000
O O12 0.000000 0.285434 0.750000
O O13 0.085015 0.304572 0.620498
O O14 0.000000 0.196736 0.250000
#
# Coordination Sequence:
#
# PCOD9261250 Si02
#       6
#     8   8   8   8   8   8
#     4  10  20  38  54  82 121 168 209 250 292 357
#     4  12  22  33  56  87 124 162 216 255 293 350
#     4  10  21  40  59  88 120 162 200 253 308 363
#     4  10  20  38  53  80 126 165 211 244 299 358
#     4  10  24  44  68  93 122 153 198 258 319 375
#     4  10  18  42  68  83 120 163 201 237 306 371
#
# _framework density 19.867307
#
# number of rings (size 3 to 8) (size 9 to 14) (size 15 to 20)
#    0.000    1.667    5.000    1.000    0.000    4.667 
#    6.000    4.167    0.000    0.000    0.000    0.000 
#    0.000    0.000    0.000    0.000    0.000    0.000 
#
# Total GULP energy -133885.272546 kJ/mol
# GULP energy per Si atom -5578.553023 kJ/mol
# Density = 1.982209 g / cm^3
# Si number density = 19.867307 Si / 1000 Ang^3
#
#
#
# Elastic Constant Matrix: (Units=GPa)
#
#
# Indices 1 2 3 4 5 6 
#
# 1 112.6481 56.8567 34.6925 0.0000 29.4784 0.0000
# 2 56.8567 84.6782 48.9129 0.0000 19.5011 0.0000
# 3 34.6925 48.9129 145.1585 0.0000 16.5917 0.0000
# 4 0.0000 0.0000 0.0000 34.1904 0.0000 17.8781
# 5 29.4784 19.5011 16.5917 0.0000 20.5705 0.0000
# 6 0.0000 0.0000 0.0000 17.8781 0.0000 14.3104
#
#
#
# Elastic Compliance Matrix: (Units=1/GPa)
#
#
# Indices 1 2 3 4 5 6 
#
# 1 0.017341 -0.007845 0.000539 0.000000 -0.017849 0.000000
# 2 -0.007845 0.020839 -0.004598 0.000000 -0.004806 0.000000
# 3 0.000539 -0.004598 0.008702 0.000000 -0.003432 0.000000
# 4 0.000000 0.000000 0.000000 0.084352 0.000000 -0.105381
# 5 -0.017849 -0.004806 -0.003432 0.000000 0.081516 0.000000
# 6 0.000000 0.000000 0.000000 -0.105381 0.000000 0.201533
#
#
# Mechanical properties :
#
#
# Convention : Reuss Voigt Hill
#
# Bulk Modulus (GPa) = 43.33620 69.26767 56.30194
# Shear Modulus (GPa) = 11.21625 27.28244 19.24935
#
# Velocity S-wave (km/s) = 2.37862 3.70974 3.11609
# Velocity P-wave (km/s) = 5.42254 7.30002 6.43018
#
# Compressibility (1/GPa) = 0.02307539
#
# Stress axis : x y z
#
# Youngs Moduli (GPa) = 57.66559 47.98645 114.91833
#
# Poissons Ratio (x) = 0.37643 -0.06193
# Poissons Ratio (y) = 0.45236 0.52838
# Poissons Ratio (z) = -0.03108 0.22064
#
# Static dielectric constant tensor:
#      x y z
#    x 1.740130 0.000000 -0.008170 
#    y 0.000000 1.684930 0.000000 
#    z -0.008170 0.000000 1.752010 
# 
# From -- ./inp_files/139638.got.cif
#   From: 2010.05.17/outbox.cif.g08.bks.cpg/sg15_70_cif.got.tgz:139638.got - 2010.06.03 18:47:42.
