data_PCOD9261115
_publ_section_title
;
Structure prediction by ZEFSAII (Michael W. Deem and Ramdas Pophale) SiO2 
 PCOD9261115
Probable space group: C 2/C
;
_chemical_formula_sum "Si O2"
_cell_formula_units_Z 48
_cell_length_a 18.157189
_cell_length_b 8.745145
_cell_length_c 15.678499
_cell_angle_alpha 90.000000
_cell_angle_beta 94.380776
_cell_angle_gamma 90.000000
_cell_volume 2482.272385
_symmetry_space_group_name_H-M "C 2/C"
_symmetry_group_IT_number 15
_symmetry_cell_setting 'monoclinic'
loop_
_space_group_symop_operation_xyz
x,y,z
-x,y,1/2-z
-x,-y,-z
x,-y,1/2+z
1/2+x,1/2+y,z
1/2-x,1/2+y,1/2-z
1/2-x,1/2-y,-z
1/2+x,1/2-y,1/2+z
loop_
_atom_site_type_symbol
_atom_site_label
_atom_site_fract_x
_atom_site_fract_y
_atom_site_fract_z
Si Si1 0.945707 0.187736 0.672929
Si Si2 0.225086 0.188769 0.798122
Si Si3 0.530531 0.440903 0.593462
Si Si4 0.726444 0.078294 0.527680
Si Si5 0.055670 0.637808 0.506170
Si Si6 0.797517 0.005845 0.865884
O O1 0.862209 0.206897 0.695042
O O2 0.952142 0.274404 0.584118
O O3 0.000000 0.249895 0.750000
O O4 0.973234 0.014168 0.655310
O O5 0.269530 0.342657 0.825200
O O6 0.233121 0.129959 0.702939
O O7 0.248024 0.064913 0.872569
O O8 0.500000 0.500000 0.500000
O O9 0.539538 0.259485 0.580207
O O10 0.613233 0.503376 0.620034
O O11 0.750000 0.250000 0.500000
O O12 0.638674 0.075437 0.518415
O O13 0.764801 0.976904 0.458384
O O14 0.000000 0.500000 0.500000
#
# Coordination Sequence:
#
# PCOD9261115 Si02
#       6
#     8   8   8   8   8   8
#     4  11  21  39  63  91 127 167 212 259 317 385
#     4  11  22  40  67  90 125 169 209 260 319 376
#     4  10  20  39  65  88 122 169 213 250 311 389
#     4  10  18  40  65  82 123 167 199 247 320 371
#     4  11  22  40  64  94 124 166 208 266 323 369
#     4  11  21  41  67  92 121 168 216 255 314 387
#
# _framework density 19.337119999999999
#
# number of rings (size 3 to 8) (size 9 to 14) (size 15 to 20)
#    0.000    1.333    8.333    1.000    0.000    1.333 
#    3.000    1.667    0.000    0.000    0.000    0.000 
#    0.000    0.000    0.000    0.000    0.000    0.000 
#
# Total GULP energy -133819.559646 kJ/mol
# GULP energy per Si atom -5575.814985 kJ/mol
# Density = 1.929311 g / cm^3
# Si number density = 19.337120 Si / 1000 Ang^3
#
#
#
# Elastic Constant Matrix: (Units=GPa)
#
#
# Indices 1 2 3 4 5 6 
#
# 1 98.6010 12.2672 5.2987 0.0000 26.2609 0.0000
# 2 12.2672 16.3563 -11.0396 0.0000 0.5973 0.0000
# 3 5.2987 -11.0396 61.8469 0.0000 26.3508 0.0000
# 4 0.0000 0.0000 0.0000 28.9590 0.0000 6.0624
# 5 26.2609 0.5973 26.3508 0.0000 35.1440 0.0000
# 6 0.0000 0.0000 0.0000 6.0624 0.0000 27.0620
#
#
#
# Elastic Compliance Matrix: (Units=1/GPa)
#
#
# Indices 1 2 3 4 5 6 
#
# 1 0.014421 -0.008616 0.002580 0.000000 -0.012564 0.000000
# 2 -0.008616 0.080843 0.019118 0.000000 -0.009270 0.000000
# 3 0.002580 0.019118 0.029859 0.000000 -0.024641 0.000000
# 4 0.000000 0.000000 0.000000 0.036231 0.000000 -0.008116
# 5 -0.012564 -0.009270 -0.024641 0.000000 0.056475 0.000000
# 6 0.000000 0.000000 0.000000 -0.008116 0.000000 0.038770
#
#
# Mechanical properties :
#
#
# Convention : Reuss Voigt Hill
#
# Bulk Modulus (GPa) = 6.60997 21.09520 13.85259
# Shear Modulus (GPa) = 17.80213 29.58488 23.69350
#
# Velocity S-wave (km/s) = 3.03746 3.91570 3.50421
# Velocity P-wave (km/s) = 3.96576 5.60147 4.85303
#
# Compressibility (1/GPa) = 0.15128658
#
# Stress axis : x y z
#
# Youngs Moduli (GPa) = 69.34121 12.36968 33.49068
#
# Poissons Ratio (x) = 0.10658 -0.08639
# Poissons Ratio (y) = 0.59746 -0.64029
# Poissons Ratio (z) = -0.17887 -0.23649
#
# Static dielectric constant tensor:
#      x y z
#    x 1.605760 0.000000 -0.014700 
#    y 0.000000 1.708950 0.000000 
#    z -0.014700 0.000000 1.709580 
# 
# From -- ./inp_files/208699.got.cif
#   From: 2010.05.17/outbox.cif.g08.bks.cpg/sg15_105_cif.got.tgz:208699.got - 2010.06.03 18:47:42.
