data_PCOD9261501
_publ_section_title
;
Structure prediction by ZEFSAII (Michael W. Deem and Ramdas Pophale) SiO2 
 PCOD9261501
Probable space group: C 2/C
;
_chemical_formula_sum "Si O2"
_cell_formula_units_Z 36
_cell_length_a 29.811796
_cell_length_b 9.449008
_cell_length_c 7.878748
_cell_angle_alpha 90.000000
_cell_angle_beta 52.594710
_cell_angle_gamma 90.000000
_cell_volume 1762.983046
_symmetry_space_group_name_H-M "C 2/C"
_symmetry_group_IT_number 15
_symmetry_cell_setting 'monoclinic'
loop_
_space_group_symop_operation_xyz
x,y,z
-x,y,1/2-z
-x,-y,-z
x,-y,1/2+z
1/2+x,1/2+y,z
1/2-x,1/2+y,1/2-z
1/2-x,1/2-y,-z
1/2+x,1/2-y,1/2+z
loop_
_atom_site_type_symbol
_atom_site_label
_atom_site_fract_x
_atom_site_fract_y
_atom_site_fract_z
Si Si1 0.272265 0.125578 0.567310
Si Si2 0.500000 0.602962 0.750000
Si Si3 0.308235 0.167022 0.831967
Si Si4 0.920510 0.894295 0.154317
Si Si5 0.650317 0.630217 0.993940
O O1 0.250000 0.250000 0.500000
O O2 0.315695 0.175018 0.613137
O O3 0.298373 0.994789 0.407346
O O4 0.213694 0.083115 0.796686
O O5 0.539802 0.499550 0.547478
O O6 0.539287 0.680937 0.799008
O O7 0.349731 0.247884 0.863268
O O8 0.250000 0.250000 0.000000
O O9 0.879058 0.994779 0.356330
O O10 0.882875 0.818499 0.097894
#
# Coordination Sequence:
#
# PCOD9261501 Si02
#       5
#     8   4   8   8   8
#     4  11  22  36  50  70 109 148 179 212 249 294
#     4   8  16  30  48  70 106 138 160 216 282 320
#     4  10  20  33  49  72 102 140 179 213 251 291
#     4   9  17  30  48  74 106 135 173 216 268 321
#     4  10  19  30  49  74 104 144 179 211 254 310
#
# _framework density 20.419936
#
# number of rings (size 3 to 8) (size 9 to 14) (size 15 to 20)
#    0.000    2.222    0.000    5.333    0.000    5.333 
#    0.000    0.000    0.000    0.000    0.000    0.000 
#    0.000  355.556    0.000    0.000    0.000    0.000 
#
# Total GULP energy -100367.555184 kJ/mol
# GULP energy per Si atom -5575.975288 kJ/mol
# Density = 2.037346 g / cm^3
# Si number density = 20.419936 Si / 1000 Ang^3
#
#
#
# Elastic Constant Matrix: (Units=GPa)
#
#
# Indices 1 2 3 4 5 6 
#
# 1 212.2998 44.8449 9.6653 0.0000 56.8576 0.0000
# 2 44.8449 77.9845 -1.2375 0.0000 24.5261 0.0000
# 3 9.6653 -1.2375 60.7241 0.0000 8.0811 0.0000
# 4 0.0000 0.0000 0.0000 11.6966 0.0000 10.8636
# 5 56.8576 24.5261 8.0811 0.0000 44.7779 0.0000
# 6 0.0000 0.0000 0.0000 10.8636 0.0000 12.2925
#
#
#
# Elastic Compliance Matrix: (Units=1/GPa)
#
#
# Indices 1 2 3 4 5 6 
#
# 1 0.007289 -0.001554 -0.000075 0.000000 -0.008391 0.000000
# 2 -0.001554 0.015954 0.001509 0.000000 -0.007038 0.000000
# 3 -0.000075 0.001509 0.017017 0.000000 -0.003802 0.000000
# 4 0.000000 0.000000 0.000000 0.477133 0.000000 -0.421669
# 5 -0.008391 -0.007038 -0.003802 0.000000 0.037528 0.000000
# 6 0.000000 0.000000 0.000000 -0.421669 0.000000 0.454003
#
#
# Mechanical properties :
#
#
# Convention : Reuss Voigt Hill
#
# Bulk Modulus (GPa) = 24.98779 50.83930 37.91354
# Shear Modulus (GPa) = 4.88996 33.60247 19.24621
#
# Velocity S-wave (km/s) = 1.54916 4.06097 3.07338
# Velocity P-wave (km/s) = 3.93235 6.85124 5.58583
#
# Compressibility (1/GPa) = 0.04001954
#
# Stress axis : x y z
#
# Youngs Moduli (GPa) = 137.18895 62.68056 58.76608
#
# Poissons Ratio (x) = 0.09740 0.00442
# Poissons Ratio (y) = 0.21318 -0.08868
# Poissons Ratio (z) = 0.01032 -0.09459
#
# Static dielectric constant tensor:
#      x y z
#    x 1.865780 0.000000 0.036010 
#    y 0.000000 1.737770 0.000000 
#    z 0.036010 0.000000 1.765840 
# 
# From -- ./inp_files/59787.got.cif
#   From: 2010.05.17/outbox.cif.g08.bks.cpg/sg15_30_cif.got.tgz:59787.got - 2010.06.03 18:47:42.
