data_PCOD9261772
_publ_section_title
;
Structure prediction by ZEFSAII (Michael W. Deem and Ramdas Pophale) SiO2 
 PCOD9261772
Probable space group: C 2/C
;
_chemical_formula_sum "Si O2"
_cell_formula_units_Z 64
_cell_length_a 5.160092
_cell_length_b 19.776431
_cell_length_c 28.915332
_cell_angle_alpha 90.000000
_cell_angle_beta 78.926790
_cell_angle_gamma 90.000000
_cell_volume 2895.822171
_symmetry_space_group_name_H-M "C 2/C"
_symmetry_group_IT_number 15
_symmetry_cell_setting 'monoclinic'
loop_
_space_group_symop_operation_xyz
x,y,z
-x,y,1/2-z
-x,-y,-z
x,-y,1/2+z
1/2+x,1/2+y,z
1/2-x,1/2+y,1/2-z
1/2-x,1/2-y,-z
1/2+x,1/2-y,1/2+z
loop_
_atom_site_type_symbol
_atom_site_label
_atom_site_fract_x
_atom_site_fract_y
_atom_site_fract_z
Si Si1 0.607983 0.325127 0.696697
Si Si2 0.202214 0.916494 0.529505
Si Si3 0.396480 0.953875 0.066178
Si Si4 0.534537 0.787211 0.951802
Si Si5 0.189417 0.490281 0.641612
Si Si6 0.317808 0.827716 0.862684
Si Si7 0.619850 0.511902 0.198309
Si Si8 0.376308 0.650720 0.967628
O O1 0.500000 0.300115 0.750000
O O2 0.914220 0.312630 0.675380
O O3 0.581242 0.406805 0.699020
O O4 0.426312 0.303008 0.659854
O O5 0.430998 0.934865 0.484900
O O6 0.248929 0.846664 0.555574
O O7 0.955999 0.903110 0.504633
O O8 0.219647 0.979362 0.563280
O O9 0.206056 0.889216 0.075066
O O10 0.603870 0.969875 0.098853
O O11 0.361584 0.796010 0.911540
O O12 0.600303 0.708003 0.953731
O O13 0.367077 0.808140 0.002634
O O14 0.203132 0.409543 0.630140
O O15 0.930182 0.499538 0.682724
O O16 0.446369 0.512586 0.660940
O O17 0.500000 0.485530 0.250000
#
# Coordination Sequence:
#
# PCOD9261772 Si02
#       8
#     8   8   8   8   8   8   8   8
#     4   9  18  32  51  79 114 143 175 229 293 341
#     4  10  20  36  54  73 111 148 189 236 279 329
#     4  10  21  34  50  83 105 149 193 229 281 330
#     4  10  21  36  52  81 107 149 196 229 279 336
#     4  10  19  31  53  78 113 142 184 230 277 343
#     4  10  19  32  53  82 109 147 185 228 278 347
#     4   9  18  31  50  78 112 145 174 224 292 346
#     4  10  22  36  54  73 114 153 188 236 281 327
#
# _framework density 22.100804
#
# number of rings (size 3 to 8) (size 9 to 14) (size 15 to 20)
#    0.000    2.250    1.250    1.500    3.500    4.000 
#    0.000    0.000    0.000    0.000    0.000    3.500 
#    0.000    0.000    0.000    0.000    0.000    0.000 
#
# Total GULP energy -178659.115995 kJ/mol
# GULP energy per Si atom -5583.097375 kJ/mol
# Density = 2.205050 g / cm^3
# Si number density = 22.100804 Si / 1000 Ang^3
#
#
#
# Elastic Constant Matrix: (Units=GPa)
#
#
# Indices 1 2 3 4 5 6 
#
# 1 55.3629 8.7637 0.2520 0.0000 10.4830 0.0000
# 2 8.7637 45.1862 19.0390 0.0000 -2.1444 0.0000
# 3 0.2520 19.0390 84.1903 0.0000 1.4497 0.0000
# 4 0.0000 0.0000 0.0000 13.2794 0.0000 7.0927
# 5 10.4830 -2.1444 1.4497 0.0000 27.7353 0.0000
# 6 0.0000 0.0000 0.0000 7.0927 0.0000 14.6422
#
#
#
# Elastic Compliance Matrix: (Units=1/GPa)
#
#
# Indices 1 2 3 4 5 6 
#
# 1 0.020361 -0.004828 0.001171 0.000000 -0.008130 0.000000
# 2 -0.004828 0.025739 -0.005877 0.000000 0.004122 0.000000
# 3 0.001171 -0.005877 0.013231 0.000000 -0.001589 0.000000
# 4 0.000000 0.000000 0.000000 0.101588 0.000000 -0.049210
# 5 -0.008130 0.004122 -0.001589 0.000000 0.039530 0.000000
# 6 0.000000 0.000000 0.000000 -0.049210 0.000000 0.092133
#
#
# Mechanical properties :
#
#
# Convention : Reuss Voigt Hill
#
# Bulk Modulus (GPa) = 24.83733 26.76097 25.79915
# Shear Modulus (GPa) = 15.38122 21.57703 18.47912
#
# Velocity S-wave (km/s) = 2.64096 3.12797 2.89473
# Velocity P-wave (km/s) = 4.53455 5.01802 4.78240
#
# Compressibility (1/GPa) = 0.04026197
#
# Stress axis : x y z
#
# Youngs Moduli (GPa) = 49.11335 38.85146 75.58120
#
# Poissons Ratio (x) = 0.18758 -0.08850
# Poissons Ratio (y) = 0.23713 0.44421
# Poissons Ratio (z) = -0.05751 0.22834
#
# Static dielectric constant tensor:
#      x y z
#    x 1.872890 0.000000 -0.031830 
#    y 0.000000 1.833470 0.000000 
#    z -0.031830 0.000000 1.831780 
# 
# From -- ./inp_files/286382.got.cif
#   From: 2010.05.17/outbox.cif.g08.bks.cpg/sg15_144_cif.got.tgz:286382.got - 2010.06.03 18:47:42.
