data_PCOD9261855
_publ_section_title
;
Structure prediction by ZEFSAII (Michael W. Deem and Ramdas Pophale) SiO2 
 PCOD9261855
Probable space group: C 2/C
;
_chemical_formula_sum "Si O2"
_cell_formula_units_Z 40
_cell_length_a 14.337407
_cell_length_b 12.336137
_cell_length_c 15.123966
_cell_angle_alpha 90.000000
_cell_angle_beta 52.794304
_cell_angle_gamma 90.000000
_cell_volume 2130.516038
_symmetry_space_group_name_H-M "C 2/C"
_symmetry_group_IT_number 15
_symmetry_cell_setting 'monoclinic'
loop_
_space_group_symop_operation_xyz
x,y,z
-x,y,1/2-z
-x,-y,-z
x,-y,1/2+z
1/2+x,1/2+y,z
1/2-x,1/2+y,1/2-z
1/2-x,1/2-y,-z
1/2+x,1/2-y,1/2+z
loop_
_atom_site_type_symbol
_atom_site_label
_atom_site_fract_x
_atom_site_fract_y
_atom_site_fract_z
Si Si1 0.530777 0.397528 0.835732
Si Si2 0.221561 0.747687 0.666140
Si Si3 0.733627 0.408025 0.499760
Si Si4 0.670830 0.649514 0.571115
Si Si5 0.905658 0.869247 0.181095
O O1 0.500000 0.426282 0.750000
O O2 0.613330 0.293845 0.784316
O O3 0.402216 0.380575 0.948421
O O4 0.596650 0.501392 0.837844
O O5 0.188931 0.648354 0.619593
O O6 0.255172 0.845833 0.579917
O O7 0.325186 0.705703 0.667619
O O8 0.733776 0.536503 0.509592
O O9 0.750000 0.750000 0.500000
O O10 0.640841 0.644985 0.692275
O O11 0.543656 0.656836 0.597625
#
# Coordination Sequence:
#
# PCOD9261855 Si02
#       5
#     8   8   8   8   8
#     4   9  16  36  58  74 112 149 179 227 267 327
#     4  10  19  31  61  82 108 138 192 233 263 323
#     4   9  19  37  56  82 108 148 188 222 275 331
#     4  10  20  38  59  76 116 150 179 231 277 328
#     4  10  19  35  56  84 105 146 193 219 271 334
#
# _framework density 18.774792999999999
#
# number of rings (size 3 to 8) (size 9 to 14) (size 15 to 20)
#    0.000    2.400    6.000    0.000    0.000    6.400 
#    0.000    1.000   39.600    0.000    0.000    0.000 
#    0.000    0.000    0.000    0.000    0.000    0.000 
#
# Total GULP energy -111500.144432 kJ/mol
# GULP energy per Si atom -5575.007222 kJ/mol
# Density = 1.873206 g / cm^3
# Si number density = 18.774793 Si / 1000 Ang^3
#
#
#
# Elastic Constant Matrix: (Units=GPa)
#
#
# Indices 1 2 3 4 5 6 
#
# 1 76.5965 58.5291 7.5814 0.0000 0.6490 0.0000
# 2 58.5291 159.1517 51.4305 0.0000 -15.9338 0.0000
# 3 7.5814 51.4305 52.5268 0.0000 -12.4406 0.0000
# 4 0.0000 0.0000 0.0000 17.6588 0.0000 -9.2767
# 5 0.6490 -15.9338 -12.4406 0.0000 8.5884 0.0000
# 6 0.0000 0.0000 0.0000 -9.2767 0.0000 40.9539
#
#
#
# Elastic Compliance Matrix: (Units=1/GPa)
#
#
# Indices 1 2 3 4 5 6 
#
# 1 0.020711 -0.010274 0.003326 0.000000 -0.015808 0.000000
# 2 -0.010274 0.014504 -0.009379 0.000000 0.014099 0.000000
# 3 0.003326 -0.009379 0.035865 0.000000 0.034299 0.000000
# 4 0.000000 0.000000 0.000000 0.064278 0.000000 0.014560
# 5 -0.015808 0.014099 0.034299 0.000000 0.193472 0.000000
# 6 0.000000 0.000000 0.000000 0.014560 0.000000 0.027716
#
#
# Mechanical properties :
#
#
# Convention : Reuss Voigt Hill
#
# Bulk Modulus (GPa) = 26.02411 58.15075 42.08743
# Shear Modulus (GPa) = 12.43758 24.82250 18.63004
#
# Velocity S-wave (km/s) = 2.57662 3.64004 3.15348
# Velocity P-wave (km/s) = 4.76899 6.97901 5.97703
#
# Compressibility (1/GPa) = 0.03842591
#
# Stress axis : x y z
#
# Youngs Moduli (GPa) = 48.28398 68.94546 27.88256
#
# Poissons Ratio (x) = 0.70835 -0.09275
# Poissons Ratio (y) = 0.49608 0.26152
# Poissons Ratio (z) = -0.16061 0.64666
#
# Static dielectric constant tensor:
#      x y z
#    x 1.667490 0.000000 0.032910 
#    y 0.000000 1.649920 0.000000 
#    z 0.032910 0.000000 1.720840 
# 
# From -- ./inp_files/151203.got.cif
#   From: 2010.05.17/outbox.cif.g08.bks.cpg/sg15_76_cif.got.tgz:151203.got - 2010.06.03 18:47:42.
