data_PCOD9261004
_publ_section_title
;
Structure prediction by ZEFSAII (Michael W. Deem and Ramdas Pophale) SiO2 
 PCOD9261004
Probable space group: C 2/C
;
_chemical_formula_sum "Si O2"
_cell_formula_units_Z 56
_cell_length_a 26.589360
_cell_length_b 13.758310
_cell_length_c 13.751566
_cell_angle_alpha 90.000000
_cell_angle_beta 148.175823
_cell_angle_gamma 90.000000
_cell_volume 2652.740354
_symmetry_space_group_name_H-M "C 2/C"
_symmetry_group_IT_number 15
_symmetry_cell_setting 'monoclinic'
loop_
_space_group_symop_operation_xyz
x,y,z
-x,y,1/2-z
-x,-y,-z
x,-y,1/2+z
1/2+x,1/2+y,z
1/2-x,1/2+y,1/2-z
1/2-x,1/2-y,-z
1/2+x,1/2-y,1/2+z
loop_
_atom_site_type_symbol
_atom_site_label
_atom_site_fract_x
_atom_site_fract_y
_atom_site_fract_z
Si Si1 0.225572 0.477733 0.626755
Si Si2 0.522972 0.666351 0.046147
Si Si3 0.382096 0.477660 0.240047
Si Si4 0.047580 0.558056 0.233648
Si Si5 0.519954 0.875116 0.081137
Si Si6 0.233385 0.231765 0.357723
Si Si7 0.727651 0.059745 0.838169
O O1 0.328772 0.509471 0.756092
O O2 0.153162 0.538961 0.442940
O O3 0.211129 0.363973 0.581727
O O4 0.211959 0.498577 0.716561
O O5 0.548758 0.571401 0.151506
O O6 0.621917 0.702959 0.157525
O O7 0.441293 0.622890 0.840745
O O8 0.503146 0.762646 0.076823
O O9 0.300844 0.502164 0.027188
O O10 0.000000 0.605950 0.250000
O O11 0.037838 0.610743 0.114718
O O12 0.998428 0.453163 0.129180
O O13 0.628219 0.908748 0.227503
O O14 0.250000 0.250000 0.500000
O O15 0.263878 0.333820 0.362927
#
# Coordination Sequence:
#
# PCOD9261004 Si02
#       7
#     8   8   8   8   8   8   8
#     4  11  21  37  61  90 119 155 206 253 302 369
#     4   9  19  38  63  83 114 159 200 244 306 365
#     4  10  20  39  60  86 121 153 195 257 305 355
#     4  11  21  37  58  84 114 152 204 252 295 360
#     4  10  21  38  60  84 115 159 200 248 306 362
#     4  10  18  39  68  85 113 169 209 241 301 381
#     4  11  20  37  63  88 117 162 205 247 308 371
#
# _framework density 21.110246
#
# number of rings (size 3 to 8) (size 9 to 14) (size 15 to 20)
#    0.000    1.714    5.714    0.857    0.000    0.000 
#    5.143    7.143    0.000    0.000    0.000    0.000 
#    0.000    0.000    0.000    0.000    0.000    0.000 
#
# Total GULP energy -155915.583776 kJ/mol
# GULP energy per Si atom -5568.413706 kJ/mol
# Density = 2.106220 g / cm^3
# Si number density = 21.110246 Si / 1000 Ang^3
#
#
#
# Elastic Constant Matrix: (Units=GPa)
#
#
# Indices 1 2 3 4 5 6 
#
# 1 40.2779 19.5564 25.9194 0.0000 -12.1791 0.0000
# 2 19.5564 85.9814 25.0980 0.0000 0.9247 0.0000
# 3 25.9194 25.0980 118.2293 0.0000 -1.4058 0.0000
# 4 0.0000 0.0000 0.0000 36.1752 0.0000 2.2354
# 5 -12.1791 0.9247 -1.4058 0.0000 24.9034 0.0000
# 6 0.0000 0.0000 0.0000 2.2354 0.0000 23.0636
#
#
#
# Elastic Compliance Matrix: (Units=1/GPa)
#
#
# Indices 1 2 3 4 5 6 
#
# 1 0.038059 -0.006912 -0.006656 0.000000 0.018494 0.000000
# 2 -0.006912 0.013663 -0.001432 0.000000 -0.003969 0.000000
# 3 -0.006656 -0.001432 0.010190 0.000000 -0.002627 0.000000
# 4 0.000000 0.000000 0.000000 0.027810 0.000000 -0.002695
# 5 0.018494 -0.003969 -0.002627 0.000000 0.049199 0.000000
# 6 0.000000 0.000000 0.000000 -0.002695 0.000000 0.043620
#
#
# Mechanical properties :
#
#
# Convention : Reuss Voigt Hill
#
# Bulk Modulus (GPa) = 31.33748 42.84846 37.09297
# Shear Modulus (GPa) = 22.40339 28.42275 25.41307
#
# Velocity S-wave (km/s) = 3.26123 3.67331 3.47338
# Velocity P-wave (km/s) = 5.39052 6.19132 5.80475
#
# Compressibility (1/GPa) = 0.03191067
#
# Stress axis : x y z
#
# Youngs Moduli (GPa) = 26.27475 73.18806 98.13309
#
# Poissons Ratio (x) = 0.50591 0.65322
# Poissons Ratio (y) = 0.18162 0.14055
# Poissons Ratio (z) = 0.17490 0.10483
#
# Static dielectric constant tensor:
#      x y z
#    x 1.839910 0.000000 0.077180 
#    y 0.000000 1.857460 0.000000 
#    z 0.077180 0.000000 1.848470 
# 
# From -- ./inp_files/182162.got.cif
#   From: 2010.05.17/outbox.cif.g08.bks.cpg/sg15_92_cif.got.tgz:182162.got - 2010.06.03 18:47:42.
