data_PCOD9261435
_publ_section_title
;
Structure prediction by ZEFSAII (Michael W. Deem and Ramdas Pophale) SiO2 
 PCOD9261435
Probable space group: C 2/C
;
_chemical_formula_sum "Si O2"
_cell_formula_units_Z 60
_cell_length_a 13.794058
_cell_length_b 16.792672
_cell_length_c 14.140689
_cell_angle_alpha 90.000000
_cell_angle_beta 102.958073
_cell_angle_gamma 90.000000
_cell_volume 3192.122904
_symmetry_space_group_name_H-M "C 2/C"
_symmetry_group_IT_number 15
_symmetry_cell_setting 'monoclinic'
loop_
_space_group_symop_operation_xyz
x,y,z
-x,y,1/2-z
-x,-y,-z
x,-y,1/2+z
1/2+x,1/2+y,z
1/2-x,1/2+y,1/2-z
1/2-x,1/2-y,-z
1/2+x,1/2-y,1/2+z
loop_
_atom_site_type_symbol
_atom_site_label
_atom_site_fract_x
_atom_site_fract_y
_atom_site_fract_z
Si Si1 0.656896 0.215233 0.118044
Si Si2 0.838043 0.320418 0.087447
Si Si3 0.244168 0.075940 0.247483
Si Si4 0.963579 0.136468 0.381579
Si Si5 0.468802 0.633419 0.886674
Si Si6 0.711733 0.470667 0.085700
Si Si7 0.384138 0.508971 0.625780
Si Si8 0.000000 0.280446 0.250000
O O1 0.764700 0.250945 0.109524
O O2 0.682859 0.140739 0.190505
O O3 0.587634 0.283898 0.148748
O O4 0.613888 0.195127 0.004474
O O5 0.768529 0.395750 0.056287
O O6 0.911642 0.333406 0.190702
O O7 0.147849 0.115902 0.175650
O O8 0.198313 0.019030 0.318343
O O9 0.281442 0.020487 0.170548
O O10 0.985926 0.143750 0.497529
O O11 0.037824 0.065280 0.364069
O O12 0.985281 0.218797 0.333042
O O13 0.381768 0.567062 0.878161
O O14 0.556064 0.591099 0.845859
O O15 0.666334 0.517125 0.987763
#
# Coordination Sequence:
#
# PCOD9261435 Si02
#       8
#     8   8   8   8   8   8   8   4
#     4  10  19  30  47  73 115 138 168 221 282 318
#     4  10  19  31  46  75 106 137 172 221 274 326
#     4  12  19  30  50  76 111 145 172 217 272 328
#     4  11  17  26  45  76 108 134 169 206 265 324
#     4  10  19  30  44  76 115 141 170 224 273 327
#     4  10  20  31  46  75 108 140 180 217 274 324
#     4  11  18  29  48  76 114 141 175 224 273 319
#     4  12  18  28  52  74 104 140 172 216 272 328
#
# _framework density 18.796268000000001
#
# number of rings (size 3 to 8) (size 9 to 14) (size 15 to 20)
#    0.000    1.333    8.000    0.800    0.000    0.000 
#    0.000    0.000    0.000    0.800    0.000   15.867 
#    0.000    0.000    0.000    0.000    0.000    0.000 
#
# Total GULP energy -167125.256890 kJ/mol
# GULP energy per Si atom -5570.841896 kJ/mol
# Density = 1.875349 g / cm^3
# Si number density = 18.796268 Si / 1000 Ang^3
#
#
#
# Elastic Constant Matrix: (Units=GPa)
#
#
# Indices 1 2 3 4 5 6 
#
# 1 18.2321 18.2817 7.7508 0.0000 6.4613 0.0000
# 2 18.2817 73.8179 42.3302 0.0000 -2.2784 0.0000
# 3 7.7508 42.3302 101.0069 0.0000 20.2128 0.0000
# 4 0.0000 0.0000 0.0000 40.4142 0.0000 14.1670
# 5 6.4613 -2.2784 20.2128 0.0000 17.1875 0.0000
# 6 0.0000 0.0000 0.0000 14.1670 0.0000 27.3484
#
#
#
# Elastic Compliance Matrix: (Units=1/GPa)
#
#
# Indices 1 2 3 4 5 6 
#
# 1 0.123022 -0.049560 0.028639 0.000000 -0.086497 0.000000
# 2 -0.049560 0.041113 -0.023861 0.000000 0.052142 0.000000
# 3 0.028639 -0.023861 0.026796 0.000000 -0.045442 0.000000
# 4 0.000000 0.000000 0.000000 0.030234 0.000000 -0.015662
# 5 -0.086497 0.052142 -0.045442 0.000000 0.151051 0.000000
# 6 0.000000 0.000000 0.000000 -0.015662 0.000000 0.044678
#
#
# Mechanical properties :
#
#
# Convention : Reuss Voigt Hill
#
# Bulk Modulus (GPa) = 9.86520 36.64250 23.25385
# Shear Modulus (GPa) = 9.25502 25.30297 17.27899
#
# Velocity S-wave (km/s) = 2.22138 3.67300 3.03525
# Velocity P-wave (km/s) = 3.44083 6.12575 4.96810
#
# Compressibility (1/GPa) = 0.10136643
#
# Stress axis : x y z
#
# Youngs Moduli (GPa) = 8.12864 24.32316 37.31904
#
# Poissons Ratio (x) = 1.20545 -1.06877
# Poissons Ratio (y) = 0.40285 0.89047
# Poissons Ratio (z) = -0.23279 0.58038
#
# Static dielectric constant tensor:
#      x y z
#    x 1.686770 0.000000 -0.020610 
#    y 0.000000 1.710110 0.000000 
#    z -0.020610 0.000000 1.684770 
# 
# From -- ./inp_files/154891.got.cif
#   From: 2010.05.17/outbox.cif.g08.bks.cpg/sg15_78_cif.got.tgz:154891.got - 2010.06.03 18:47:42.
