data_PCOD9261486
_publ_section_title
;
Structure prediction by ZEFSAII (Michael W. Deem and Ramdas Pophale) SiO2 
 PCOD9261486
Probable space group: C 2/C
;
_chemical_formula_sum "Si O2"
_cell_formula_units_Z 64
_cell_length_a 12.945981
_cell_length_b 30.057057
_cell_length_c 8.837579
_cell_angle_alpha 90.000000
_cell_angle_beta 80.354329
_cell_angle_gamma 90.000000
_cell_volume 3390.245941
_symmetry_space_group_name_H-M "C 2/C"
_symmetry_group_IT_number 15
_symmetry_cell_setting 'monoclinic'
loop_
_space_group_symop_operation_xyz
x,y,z
-x,y,1/2-z
-x,-y,-z
x,-y,1/2+z
1/2+x,1/2+y,z
1/2-x,1/2+y,1/2-z
1/2-x,1/2-y,-z
1/2+x,1/2-y,1/2+z
loop_
_atom_site_type_symbol
_atom_site_label
_atom_site_fract_x
_atom_site_fract_y
_atom_site_fract_z
Si Si1 0.434896 0.819365 0.110130
Si Si2 0.732627 0.629935 0.659396
Si Si3 0.441504 0.336304 0.113379
Si Si4 0.114213 0.949137 0.794967
Si Si5 0.905748 0.736701 0.073239
Si Si6 0.317882 0.738105 0.264231
Si Si7 0.117643 0.038085 0.651753
Si Si8 0.879679 0.854697 0.626630
O O1 0.500000 0.823822 0.250000
O O2 0.355570 0.860384 0.118172
O O3 0.360580 0.775664 0.142024
O O4 0.517165 0.805101 0.960314
O O5 0.679601 0.654277 0.818433
O O6 0.691668 0.579363 0.677838
O O7 0.683724 0.649407 0.515689
O O8 0.500000 0.352832 0.250000
O O9 0.460301 0.283682 0.094863
O O10 0.499323 0.359502 0.959157
O O11 0.159011 0.899206 0.781315
O O12 0.000000 0.945979 0.750000
O O13 0.163748 0.991146 0.697570
O O14 0.106915 0.961209 0.973722
O O15 0.806786 0.732097 0.206802
O O16 0.856863 0.744989 0.918263
O O17 0.367473 0.690290 0.220938
O O18 0.000000 0.043098 0.750000
#
# Coordination Sequence:
#
# PCOD9261486 Si02
#       8
#     8   8   8   8   8   8   8   8
#     4  10  20  34  52  74 102 141 179 219 263 306
#     4  10  20  35  52  74 108 139 178 218 258 321
#     4  10  19  30  48  75 102 139 175 209 258 310
#     4  10  20  32  53  81 111 141 173 213 270 325
#     4  10  20  33  47  72 106 138 180 220 250 300
#     4  10  20  34  49  73 106 141 180 216 258 309
#     4  10  19  36  52  81 113 141 172 216 267 325
#     4  10  21  33  52  80 107 143 176 211 267 318
#
# _framework density 18.877686000000001
#
# number of rings (size 3 to 8) (size 9 to 14) (size 15 to 20)
#    0.000    2.000    2.500    3.375    1.750    1.500 
#    0.000    0.000    0.000    0.000    0.000    7.875 
#    0.000    0.000    0.000    0.000    0.000    0.000 
#
# Total GULP energy -178448.160911 kJ/mol
# GULP energy per Si atom -5576.505028 kJ/mol
# Density = 1.883472 g / cm^3
# Si number density = 18.877686 Si / 1000 Ang^3
#
#
#
# Elastic Constant Matrix: (Units=GPa)
#
#
# Indices 1 2 3 4 5 6 
#
# 1 77.3804 25.4137 16.8169 0.0000 -11.9849 0.0000
# 2 25.4137 92.3832 15.9186 0.0000 -1.6851 0.0000
# 3 16.8169 15.9186 27.2895 0.0000 -3.2882 0.0000
# 4 0.0000 0.0000 0.0000 23.7065 0.0000 2.3665
# 5 -11.9849 -1.6851 -3.2882 0.0000 13.9885 0.0000
# 6 0.0000 0.0000 0.0000 2.3665 0.0000 0.8632
#
#
#
# Elastic Compliance Matrix: (Units=1/GPa)
#
#
# Indices 1 2 3 4 5 6 
#
# 1 0.017629 -0.003347 -0.007348 0.000000 0.012973 0.000000
# 2 -0.003347 0.012670 -0.005650 0.000000 -0.002669 0.000000
# 3 -0.007348 -0.005650 0.044899 0.000000 0.003578 0.000000
# 4 0.000000 0.000000 0.000000 0.058076 0.000000 -0.159217
# 5 0.012973 -0.002669 0.003578 0.000000 0.083121 0.000000
# 6 0.000000 0.000000 0.000000 -0.159217 0.000000 1.594979
#
#
# Mechanical properties :
#
#
# Convention : Reuss Voigt Hill
#
# Bulk Modulus (GPa) = 23.52480 34.81683 29.17081
# Shear Modulus (GPa) = 2.69073 16.97191 9.83132
#
# Velocity S-wave (km/s) = 1.19517 3.00166 2.28456
# Velocity P-wave (km/s) = 3.79386 5.52238 4.73762
#
# Compressibility (1/GPa) = 0.04250834
#
# Stress axis : x y z
#
# Youngs Moduli (GPa) = 56.72624 78.92681 22.27214
#
# Poissons Ratio (x) = 0.26414 0.16366
# Poissons Ratio (y) = 0.18984 0.12584
# Poissons Ratio (z) = 0.41683 0.44593
#
# Static dielectric constant tensor:
#      x y z
#    x 1.700490 0.000000 -0.007420 
#    y 0.000000 1.683550 0.000000 
#    z -0.007420 0.000000 1.697710 
# 
# From -- ./inp_files/44271.got.cif
#   From: 2010.05.17/outbox.cif.g08.bks.cpg/sg15_23_cif.got.tgz:44271.got - 2010.06.03 18:47:42.
