data_PCOD9261457
_publ_section_title
;
Structure prediction by ZEFSAII (Michael W. Deem and Ramdas Pophale) SiO2 
 PCOD9261457
Probable space group: C 2/C
;
_chemical_formula_sum "Si O2"
_cell_formula_units_Z 64
_cell_length_a 29.241437
_cell_length_b 15.328643
_cell_length_c 8.659345
_cell_angle_alpha 90.000000
_cell_angle_beta 107.225482
_cell_angle_gamma 90.000000
_cell_volume 3707.298602
_symmetry_space_group_name_H-M "C 2/C"
_symmetry_group_IT_number 15
_symmetry_cell_setting 'monoclinic'
loop_
_space_group_symop_operation_xyz
x,y,z
-x,y,1/2-z
-x,-y,-z
x,-y,1/2+z
1/2+x,1/2+y,z
1/2-x,1/2+y,1/2-z
1/2-x,1/2-y,-z
1/2+x,1/2-y,1/2+z
loop_
_atom_site_type_symbol
_atom_site_label
_atom_site_fract_x
_atom_site_fract_y
_atom_site_fract_z
Si Si1 0.781855 0.094162 0.596856
Si Si2 0.218145 0.905838 0.033147
Si Si3 0.361414 0.720895 0.547980
Si Si4 0.052956 0.905033 0.738697
Si Si5 0.170310 0.593122 0.855969
Si Si6 0.138586 0.220895 0.325153
Si Si7 0.947044 0.094967 0.632785
Si Si8 0.670310 0.906878 0.984651
O O1 0.784610 0.093198 0.784609
O O2 0.815589 0.168963 0.564637
O O3 0.726190 0.106110 0.495379
O O4 0.797391 1.000000 0.547391
O O5 0.273810 0.893890 0.042998
O O6 0.184411 0.831037 0.933460
O O7 0.359275 0.719633 0.359275
O O8 0.408709 0.667874 0.642001
O O9 0.358679 0.821553 0.595587
O O10 0.091291 0.832126 0.824582
O O11 0.051150 0.909458 0.551150
O O12 0.000000 0.886799 0.750000
O O13 0.067557 1.000000 0.817557
O O14 0.141321 0.678447 0.878229
O O15 0.168920 0.588798 0.668920
O O16 0.154178 0.500000 0.904177
O O17 0.000000 0.113201 0.750000
#
# Coordination Sequence:
#
# PCOD9261457 Si02
#       8
#     8   8   8   8   8   8   8   8
#     4  10  19  30  47  71 100 132 163 196 235 282
#     4  10  19  30  47  71 100 132 163 196 235 282
#     4  10  20  33  50  72  98 127 161 201 241 283
#     4  10  20  34  52  73  98 125 153 191 238 287
#     4   9  19  34  49  69  98 130 164 201 238 277
#     4  10  20  33  50  72  98 127 161 201 241 283
#     4  10  20  34  52  73  98 125 153 191 238 287
#     4   9  19  34  49  69  98 130 164 201 238 277
#
# _framework density 17.263242999999999
#
# number of rings (size 3 to 8) (size 9 to 14) (size 15 to 20)
#    0.000    2.250    0.000    3.750    0.000    6.000 
#    0.000    0.000    0.000    0.750    0.000    5.250 
#    0.000    0.000    0.000    0.000    0.000    0.000 
#
# Total GULP energy -178605.293686 kJ/mol
# GULP energy per Si atom -5581.415428 kJ/mol
# Density = 1.722395 g / cm^3
# Si number density = 17.263243 Si / 1000 Ang^3
#
#
#
# Elastic Constant Matrix: (Units=GPa)
#
#
# Indices 1 2 3 4 5 6 
#
# 1 69.3067 81.3201 23.3864 0.0000 5.8507 0.0000
# 2 81.3201 187.5490 34.8231 0.0000 12.8154 0.0000
# 3 23.3864 34.8231 19.6581 0.0000 7.8334 0.0000
# 4 0.0000 0.0000 0.0000 26.2409 0.0000 0.2984
# 5 5.8507 12.8154 7.8334 0.0000 11.7999 0.0000
# 6 0.0000 0.0000 0.0000 0.2984 0.0000 27.3237
#
#
#
# Elastic Compliance Matrix: (Units=1/GPa)
#
#
# Indices 1 2 3 4 5 6 
#
# 1 0.036089 -0.011329 -0.028061 0.000000 0.013038 0.000000
# 2 -0.011329 0.011510 -0.005668 0.000000 -0.003120 0.000000
# 3 -0.028061 -0.005668 0.117335 0.000000 -0.057824 0.000000
# 4 0.000000 0.000000 0.000000 0.038113 0.000000 -0.000416
# 5 0.013038 -0.003120 -0.057824 0.000000 0.120057 0.000000
# 6 0.000000 0.000000 0.000000 -0.000416 0.000000 0.036603
#
#
# Mechanical properties :
#
#
# Convention : Reuss Voigt Hill
#
# Bulk Modulus (GPa) = 13.36572 61.73032 37.54802
# Shear Modulus (GPa) = 10.53160 22.20517 16.36839
#
# Velocity S-wave (km/s) = 2.47262 3.59035 3.08257
# Velocity P-wave (km/s) = 3.98885 7.28171 5.87087
#
# Compressibility (1/GPa) = 0.07481827
#
# Stress axis : x y z
#
# Youngs Moduli (GPa) = 27.70920 86.88403 8.52263
#
# Poissons Ratio (x) = 0.98428 0.23915
# Poissons Ratio (y) = 0.31391 0.04830
# Poissons Ratio (z) = 0.77755 0.49244
#
# Static dielectric constant tensor:
#      x y z
#    x 1.574390 0.000000 -0.003120 
#    y 0.000000 1.589600 0.000000 
#    z -0.003120 0.000000 1.585690 
# 
# From -- ./inp_files/66242.got.cif
#   From: 2010.05.17/outbox.cif.g08.bks.cpg/sg15_34_cif.got.tgz:66242.got - 2010.06.03 18:47:42.
