data_PCOD9261199
_publ_section_title
;
Structure prediction by ZEFSAII (Michael W. Deem and Ramdas Pophale) SiO2 
 PCOD9261199
Probable space group: C 2/C
;
_chemical_formula_sum "Si O2"
_cell_formula_units_Z 56
_cell_length_a 7.595402
_cell_length_b 26.494052
_cell_length_c 18.188454
_cell_angle_alpha 90.000000
_cell_angle_beta 46.982365
_cell_angle_gamma 90.000000
_cell_volume 2676.071484
_symmetry_space_group_name_H-M "C 2/C"
_symmetry_group_IT_number 15
_symmetry_cell_setting 'monoclinic'
loop_
_space_group_symop_operation_xyz
x,y,z
-x,y,1/2-z
-x,-y,-z
x,-y,1/2+z
1/2+x,1/2+y,z
1/2-x,1/2+y,1/2-z
1/2-x,1/2-y,-z
1/2+x,1/2-y,1/2+z
loop_
_atom_site_type_symbol
_atom_site_label
_atom_site_fract_x
_atom_site_fract_y
_atom_site_fract_z
Si Si1 0.494938 0.773017 0.396658
Si Si2 0.068424 0.167959 0.316980
Si Si3 0.055628 0.538688 0.861402
Si Si4 0.500000 0.100423 0.250000
Si Si5 0.131076 0.436103 0.560853
Si Si6 0.500000 0.840128 0.250000
Si Si7 0.457274 0.865943 0.493330
Si Si8 0.834029 0.065519 0.650272
O O1 0.250000 0.750000 0.500000
O O2 0.632414 0.722904 0.332285
O O3 0.461535 0.806204 0.332671
O O4 0.583750 0.814159 0.430883
O O5 0.291773 0.132536 0.270583
O O6 0.000000 0.172616 0.250000
O O7 0.828668 0.145473 0.425039
O O8 0.024447 0.485940 0.911274
O O9 0.034074 0.587898 0.918537
O O10 0.835269 0.544118 0.866111
O O11 0.285597 0.539450 0.742369
O O12 0.374144 0.069035 0.350121
O O13 0.396479 0.439951 0.452722
O O14 0.024224 0.385970 0.554264
O O15 0.269770 0.877549 0.308851
#
# Coordination Sequence:
#
# PCOD9261199 Si02
#       8
#     8   8   8   4   8   4   8   8
#     4  10  21  39  71  94 128 177 221 276 344 396
#     4  11  23  45  68  97 131 180 225 278 344 401
#     4  10  21  41  64  93 131 181 226 272 340 402
#     4  12  26  45  66 100 140 176 227 284 336 404
#     4  12  25  40  65 100 136 177 227 279 337 405
#     4  10  18  41  64  92 128 178 219 276 338 398
#     4  11  22  43  64  97 135 174 221 287 336 400
#     4  10  21  39  65  91 129 178 231 271 337 402
#
# _framework density 20.926197999999999
#
# number of rings (size 3 to 8) (size 9 to 14) (size 15 to 20)
#    0.000    1.429    5.000    2.571    2.000    1.714 
#    2.571    0.714    0.000    0.000    0.000    0.000 
#    0.000    0.000    0.000    0.000    0.000    0.000 
#
# Total GULP energy -156267.952073 kJ/mol
# GULP energy per Si atom -5580.998288 kJ/mol
# Density = 2.087857 g / cm^3
# Si number density = 20.926198 Si / 1000 Ang^3
#
#
#
# Elastic Constant Matrix: (Units=GPa)
#
#
# Indices 1 2 3 4 5 6 
#
# 1 35.6713 9.4434 25.6789 0.0000 9.4359 0.0000
# 2 9.4434 101.1226 49.1158 0.0000 13.6153 0.0000
# 3 25.6789 49.1158 152.3925 0.0000 4.1885 0.0000
# 4 0.0000 0.0000 0.0000 24.1812 0.0000 6.8325
# 5 9.4359 13.6153 4.1885 0.0000 35.5038 0.0000
# 6 0.0000 0.0000 0.0000 6.8325 0.0000 14.1347
#
#
#
# Elastic Compliance Matrix: (Units=1/GPa)
#
#
# Indices 1 2 3 4 5 6 
#
# 1 0.034308 0.000787 -0.005794 0.000000 -0.008736 0.000000
# 2 0.000787 0.012357 -0.003992 0.000000 -0.004477 0.000000
# 3 -0.005794 -0.003992 0.008769 0.000000 0.002036 0.000000
# 4 0.000000 0.000000 0.000000 0.047896 0.000000 -0.023152
# 5 -0.008736 -0.004477 0.002036 0.000000 0.031964 0.000000
# 6 0.000000 0.000000 0.000000 -0.023152 0.000000 0.081940
#
#
# Mechanical properties :
#
#
# Convention : Reuss Voigt Hill
#
# Bulk Modulus (GPa) = 26.71352 50.85140 38.78246
# Shear Modulus (GPa) = 20.18468 28.42714 24.30591
#
# Velocity S-wave (km/s) = 3.10911 3.68971 3.41179
# Velocity P-wave (km/s) = 5.06775 6.51959 5.83897
#
# Compressibility (1/GPa) = 0.03743423
#
# Stress axis : x y z
#
# Youngs Moduli (GPa) = 29.14801 80.92330 114.03632
#
# Poissons Ratio (x) = -0.06367 0.66078
# Poissons Ratio (y) = -0.02293 0.45527
# Poissons Ratio (z) = 0.16890 0.32307
#
# Static dielectric constant tensor:
#      x y z
#    x 1.611380 0.000000 -0.020210 
#    y 0.000000 1.767870 0.000000 
#    z -0.020210 0.000000 1.752660 
# 
# From -- ./inp_files/193867.got.cif
#   From: 2010.05.17/outbox.cif.g08.bks.cpg/sg15_97_cif.got.tgz:193867.got - 2010.06.03 18:47:42.
