data_PCOD9261575
_publ_section_title
;
Structure prediction by ZEFSAII (Michael W. Deem and Ramdas Pophale) SiO2 
 PCOD9261575
Probable space group: C 2/C
;
_chemical_formula_sum "Si O2"
_cell_formula_units_Z 56
_cell_length_a 11.080530
_cell_length_b 17.349122
_cell_length_c 18.211342
_cell_angle_alpha 90.000000
_cell_angle_beta 128.824428
_cell_angle_gamma 90.000000
_cell_volume 2727.450517
_symmetry_space_group_name_H-M "C 2/C"
_symmetry_group_IT_number 15
_symmetry_cell_setting 'monoclinic'
loop_
_space_group_symop_operation_xyz
x,y,z
-x,y,1/2-z
-x,-y,-z
x,-y,1/2+z
1/2+x,1/2+y,z
1/2-x,1/2+y,1/2-z
1/2-x,1/2-y,-z
1/2+x,1/2-y,1/2+z
loop_
_atom_site_type_symbol
_atom_site_label
_atom_site_fract_x
_atom_site_fract_y
_atom_site_fract_z
Si Si1 0.059953 0.171367 0.395481
Si Si2 0.430863 0.943932 0.376017
Si Si3 0.726208 0.058521 0.091373
Si Si4 0.161441 0.278961 0.115673
Si Si5 0.000000 0.560875 0.750000
Si Si6 0.050238 0.303208 0.606421
Si Si7 0.000000 0.271038 0.750000
Si Si8 0.727904 0.806090 0.379911
O O1 0.111114 0.090890 0.377362
O O2 0.172133 0.178816 0.508838
O O3 0.111795 0.237626 0.358511
O O4 0.897456 0.200167 0.366815
O O5 0.597057 0.954421 0.478759
O O6 0.403820 0.852220 0.364460
O O7 0.446110 0.981247 0.302165
O O8 0.290448 0.981750 0.367423
O O9 0.649372 0.126080 0.111498
O O10 0.344327 0.278299 0.184061
O O11 0.087147 0.288793 0.005683
O O12 0.860039 0.617335 0.674616
O O13 0.159587 0.228052 0.639104
O O14 0.005903 0.314957 0.673874
#
# Coordination Sequence:
#
# PCOD9261575 Si02
#       8
#     8   8   8   8   4   8   4   8
#     4   9  15  33  53  76 111 147 189 236 291 339
#     4  10  19  30  54  84 116 151 191 230 295 346
#     4   9  18  35  52  81 114 155 187 231 286 364
#     4  10  20  36  56  83 110 153 194 247 296 345
#     4  12  16  25  48  89 116 142 188 250 274 342
#     4   9  20  34  54  78 110 151 193 234 297 349
#     4  12  22  35  54  81 112 148 192 248 292 350
#     4   9  16  27  51  81 106 136 187 244 281 331
#
# _framework density 20.531994999999998
#
# number of rings (size 3 to 8) (size 9 to 14) (size 15 to 20)
#    0.000    2.286    2.857    3.000    0.000    0.571 
#    0.000    0.000    3.143    0.000    0.000    5.000 
#    0.000    0.000    0.000    0.000    0.000    0.000 
#
# Total GULP energy -156054.798229 kJ/mol
# GULP energy per Si atom -5573.385651 kJ/mol
# Density = 2.048526 g / cm^3
# Si number density = 20.531995 Si / 1000 Ang^3
#
#
#
# Elastic Constant Matrix: (Units=GPa)
#
#
# Indices 1 2 3 4 5 6 
#
# 1 87.8804 18.9832 46.6995 0.0000 -14.8280 0.0000
# 2 18.9832 44.3903 8.1473 0.0000 -3.1860 0.0000
# 3 46.6995 8.1473 70.5042 0.0000 -16.5479 0.0000
# 4 0.0000 0.0000 0.0000 5.1545 0.0000 -2.9947
# 5 -14.8280 -3.1860 -16.5479 0.0000 44.2143 0.0000
# 6 0.0000 0.0000 0.0000 -2.9947 0.0000 29.3766
#
#
#
# Elastic Compliance Matrix: (Units=1/GPa)
#
#
# Indices 1 2 3 4 5 6 
#
# 1 0.019084 -0.005919 -0.011571 0.000000 0.001643 0.000000
# 2 -0.005919 0.024873 0.001098 0.000000 0.000218 0.000000
# 3 -0.011571 0.001098 0.022834 0.000000 0.004745 0.000000
# 4 0.000000 0.000000 0.000000 0.206221 0.000000 0.021023
# 5 0.001643 0.000218 0.004745 0.000000 0.024960 0.000000
# 6 0.000000 0.000000 0.000000 0.021023 0.000000 0.036184
#
#
# Mechanical properties :
#
#
# Convention : Reuss Voigt Hill
#
# Bulk Modulus (GPa) = 29.40637 38.93721 34.17179
# Shear Modulus (GPa) = 13.21789 24.34541 18.78165
#
# Velocity S-wave (km/s) = 2.54002 3.44718 3.02777
# Velocity P-wave (km/s) = 4.79120 5.90334 5.37610
#
# Compressibility (1/GPa) = 0.03400623
#
# Stress axis : x y z
#
# Youngs Moduli (GPa) = 52.40106 40.20429 43.79371
#
# Poissons Ratio (x) = 0.23798 0.50672
# Poissons Ratio (y) = 0.31018 -0.04807
# Poissons Ratio (z) = 0.60631 -0.04413
#
# Static dielectric constant tensor:
#      x y z
#    x 1.765600 0.000000 -0.031530 
#    y 0.000000 1.732860 0.000000 
#    z -0.031530 0.000000 1.784370 
# 
# From -- ./inp_files/199632.got.cif
#   From: 2010.05.17/outbox.cif.g08.bks.cpg/sg15_100_cif.got.tgz:199632.got - 2010.06.03 18:47:42.
