data_PCOD9261488
_publ_section_title
;
Structure prediction by ZEFSAII (Michael W. Deem and Ramdas Pophale) SiO2 
 PCOD9261488
Probable space group: C 2/C
;
_chemical_formula_sum "Si O2"
_cell_formula_units_Z 40
_cell_length_a 13.153705
_cell_length_b 32.469237
_cell_length_c 4.902436
_cell_angle_alpha 90.000000
_cell_angle_beta 96.660566
_cell_angle_gamma 90.000000
_cell_volume 2079.653586
_symmetry_space_group_name_H-M "C 2/C"
_symmetry_group_IT_number 15
_symmetry_cell_setting 'monoclinic'
loop_
_space_group_symop_operation_xyz
x,y,z
-x,y,1/2-z
-x,-y,-z
x,-y,1/2+z
1/2+x,1/2+y,z
1/2-x,1/2+y,1/2-z
1/2-x,1/2-y,-z
1/2+x,1/2-y,1/2+z
loop_
_atom_site_type_symbol
_atom_site_label
_atom_site_fract_x
_atom_site_fract_y
_atom_site_fract_z
Si Si1 0.890934 0.853083 0.352301
Si Si2 0.779794 0.287252 0.211412
Si Si3 0.616361 0.471530 0.834402
Si Si4 0.703405 0.390966 0.659647
Si Si5 0.620307 0.825420 0.757250
O O1 0.823961 0.812659 0.277151
O O2 0.871554 0.864584 0.661103
O O3 0.000000 0.846990 0.250000
O O4 0.841356 0.889554 0.157728
O O5 0.835994 0.289415 0.523555
O O6 0.750000 0.250000 0.000000
O O7 0.856063 0.313110 0.044475
O O8 0.500000 0.454890 0.750000
O O9 0.625318 0.510956 0.639474
O O10 0.696655 0.436661 0.775325
O O11 0.810368 0.366346 0.677826
O O12 0.500000 0.831279 0.750000
#
# Coordination Sequence:
#
# PCOD9261488 Si02
#       5
#     8   8   8   8   8
#     4  10  19  32  52  76 103 138 173 211 265 318
#     4  10  21  36  54  80 108 134 175 225 272 323
#     4  10  19  30  48  76 108 140 170 209 269 326
#     4  10  20  34  53  76 106 139 179 221 256 318
#     4  10  21  38  58  78 103 143 186 224 268 316
#
# _framework density 19.233971
#
# number of rings (size 3 to 8) (size 9 to 14) (size 15 to 20)
#    0.000    2.000    0.000    4.200    0.000    2.400 
#    0.000    6.000    0.000    1.200    0.000    0.000 
#    0.000    0.000    0.000    0.000    0.000    0.000 
#
# Total GULP energy -111426.969183 kJ/mol
# GULP energy per Si atom -5571.348459 kJ/mol
# Density = 1.919019 g / cm^3
# Si number density = 19.233971 Si / 1000 Ang^3
#
#
#
# Elastic Constant Matrix: (Units=GPa)
#
#
# Indices 1 2 3 4 5 6 
#
# 1 115.5165 34.9431 9.6967 0.0000 -11.3978 0.0000
# 2 34.9431 62.6747 2.3252 0.0000 -1.3434 0.0000
# 3 9.6967 2.3252 90.1965 0.0000 -0.2981 0.0000
# 4 0.0000 0.0000 0.0000 24.2553 0.0000 -11.3227
# 5 -11.3978 -1.3434 -0.2981 0.0000 11.9244 0.0000
# 6 0.0000 0.0000 0.0000 -11.3227 0.0000 11.8095
#
#
#
# Elastic Compliance Matrix: (Units=1/GPa)
#
#
# Indices 1 2 3 4 5 6 
#
# 1 0.011660 -0.006239 -0.001058 0.000000 0.010416 0.000000
# 2 -0.006239 0.019347 0.000159 0.000000 -0.003779 0.000000
# 3 -0.001058 0.000159 0.011194 0.000000 -0.000714 0.000000
# 4 0.000000 0.000000 0.000000 0.074630 0.000000 0.071554
# 5 0.010416 -0.003779 -0.000714 0.000000 0.093375 0.000000
# 6 0.000000 0.000000 0.000000 0.071554 0.000000 0.153281
#
#
# Mechanical properties :
#
#
# Convention : Reuss Voigt Hill
#
# Bulk Modulus (GPa) = 35.80829 40.25753 38.03291
# Shear Modulus (GPa) = 12.91753 24.35934 18.63843
#
# Velocity S-wave (km/s) = 2.59434 3.56262 3.11631
# Velocity P-wave (km/s) = 5.25659 6.15621 5.72410
#
# Compressibility (1/GPa) = 0.02792649
#
# Stress axis : x y z
#
# Youngs Moduli (GPa) = 85.75981 51.68854 89.33188
#
# Poissons Ratio (x) = 0.32246 0.09454
# Poissons Ratio (y) = 0.53502 -0.01424
# Poissons Ratio (z) = 0.09076 -0.00824
#
# Static dielectric constant tensor:
#      x y z
#    x 1.659110 0.000000 0.028890 
#    y 0.000000 1.716810 0.000000 
#    z 0.028890 0.000000 1.692310 
# 
# From -- ./inp_files/5552.got.cif
#   From: 2010.05.17/outbox.cif.g08.bks.cpg/sg15_3_cif.got.tgz:5552.got - 2010.06.03 18:47:42.
