data_PCOD9261912
_publ_section_title
;
Structure prediction by ZEFSAII (Michael W. Deem and Ramdas Pophale) SiO2 
 PCOD9261912
Probable space group: C 2/C
;
_chemical_formula_sum "Si O2"
_cell_formula_units_Z 40
_cell_length_a 20.445932
_cell_length_b 10.147976
_cell_length_c 7.557596
_cell_angle_alpha 90.000000
_cell_angle_beta 68.364793
_cell_angle_gamma 90.000000
_cell_volume 1457.614972
_symmetry_space_group_name_H-M "C 2/C"
_symmetry_group_IT_number 15
_symmetry_cell_setting 'monoclinic'
loop_
_space_group_symop_operation_xyz
x,y,z
-x,y,1/2-z
-x,-y,-z
x,-y,1/2+z
1/2+x,1/2+y,z
1/2-x,1/2+y,1/2-z
1/2-x,1/2-y,-z
1/2+x,1/2-y,1/2+z
loop_
_atom_site_type_symbol
_atom_site_label
_atom_site_fract_x
_atom_site_fract_y
_atom_site_fract_z
Si Si1 0.657806 0.653089 0.485056
Si Si2 0.219639 0.909685 0.570765
Si Si3 0.633021 0.832797 0.071138
Si Si4 0.469025 0.665349 0.106756
Si Si5 0.933575 0.659134 0.212836
O O1 0.687415 0.553629 0.598255
O O2 0.715211 0.653813 0.271463
O O3 0.590501 0.594724 0.445777
O O4 0.627108 0.786466 0.598044
O O5 0.299960 0.913327 0.428380
O O6 0.170262 0.811097 0.506894
O O7 0.601690 0.900005 0.927390
O O8 0.571879 0.794342 0.269882
O O9 0.500000 0.598652 0.250000
O O10 0.528776 0.713764 0.915644
O O11 0.000000 0.595049 0.250000
#
# Coordination Sequence:
#
# PCOD9261912 Si02
#       5
#     8   8   8   8   8
#     4  10  19  32  49  76 108 137 173 211 260 311
#     4  10  20  33  49  72 109 145 172 209 252 315
#     4   9  18  34  52  72 101 141 179 211 257 304
#     4   8  16  33  54  76 103 139 172 210 258 307
#     4   9  17  32  53  78 104 133 170 215 260 308
#
# _framework density 27.442088999999999
#
# number of rings (size 3 to 8) (size 9 to 14) (size 15 to 20)
#    0.000    2.800    0.000    1.200    0.000    0.800 
#    0.000   67.000    0.000    0.000    0.000   18.200 
#    0.000    0.000    0.000    1.200    0.000    0.000 
#
# Total GULP energy -111709.482913 kJ/mol
# GULP energy per Si atom -5585.474146 kJ/mol
# Density = 2.737963 g / cm^3
# Si number density = 27.442089 Si / 1000 Ang^3
#
#
#
# Elastic Constant Matrix: (Units=GPa)
#
#
# Indices 1 2 3 4 5 6 
#
# 1 108.9453 35.5031 13.8656 0.0000 5.7401 0.0000
# 2 35.5031 67.3254 34.6739 0.0000 -6.7811 0.0000
# 3 13.8656 34.6739 128.5144 0.0000 -5.0412 0.0000
# 4 0.0000 0.0000 0.0000 22.0899 0.0000 -12.5077
# 5 5.7401 -6.7811 -5.0412 0.0000 41.8926 0.0000
# 6 0.0000 0.0000 0.0000 -12.5077 0.0000 10.7986
#
#
#
# Elastic Compliance Matrix: (Units=1/GPa)
#
#
# Indices 1 2 3 4 5 6 
#
# 1 0.011368 -0.006467 0.000418 0.000000 -0.002554 0.000000
# 2 -0.006467 0.021142 -0.004860 0.000000 0.003724 0.000000
# 3 0.000418 -0.004860 0.009057 0.000000 0.000246 0.000000
# 4 0.000000 0.000000 0.000000 0.131534 0.000000 0.152352
# 5 -0.002554 0.003724 0.000246 0.000000 0.024853 0.000000
# 6 0.000000 0.000000 0.000000 0.152352 0.000000 0.269070
#
#
# Mechanical properties :
#
#
# Convention : Reuss Voigt Hill
#
# Bulk Modulus (GPa) = 50.63824 52.54115 51.58969
# Shear Modulus (GPa) = 10.09234 29.67237 19.88236
#
# Velocity S-wave (km/s) = 1.91981 3.29184 2.69461
# Velocity P-wave (km/s) = 4.83808 5.79966 5.34056
#
# Compressibility (1/GPa) = 0.01974792
#
# Stress axis : x y z
#
# Youngs Moduli (GPa) = 87.96756 47.29944 110.41053
#
# Poissons Ratio (x) = 0.30590 -0.04618
# Poissons Ratio (y) = 0.56891 0.53664
# Poissons Ratio (z) = -0.03679 0.22989
#
# Static dielectric constant tensor:
#      x y z
#    x 2.143310 0.000000 0.032460 
#    y 0.000000 2.087350 0.000000 
#    z 0.032460 0.000000 2.152870 
# 
# From -- ./inp_files/54067.got.cif
#   From: 2010.05.17/outbox.cif.g08.bks.cpg/sg15_28_cif.got.tgz:54067.got - 2010.06.03 18:47:42.
