data_PCOD9261723
_publ_section_title
;
Structure prediction by ZEFSAII (Michael W. Deem and Ramdas Pophale) SiO2 
 PCOD9261723
Probable space group: C 2/C
;
_chemical_formula_sum "Si O2"
_cell_formula_units_Z 64
_cell_length_a 22.499173
_cell_length_b 21.528057
_cell_length_c 9.076512
_cell_angle_alpha 90.000000
_cell_angle_beta 58.041981
_cell_angle_gamma 90.000000
_cell_volume 3730.006059
_symmetry_space_group_name_H-M "C 2/C"
_symmetry_group_IT_number 15
_symmetry_cell_setting 'monoclinic'
loop_
_space_group_symop_operation_xyz
x,y,z
-x,y,1/2-z
-x,-y,-z
x,-y,1/2+z
1/2+x,1/2+y,z
1/2-x,1/2+y,1/2-z
1/2-x,1/2-y,-z
1/2+x,1/2-y,1/2+z
loop_
_atom_site_type_symbol
_atom_site_label
_atom_site_fract_x
_atom_site_fract_y
_atom_site_fract_z
Si Si1 0.284558 0.306872 0.037978
Si Si2 0.558694 0.926027 0.785577
Si Si3 0.217542 0.695578 0.948218
Si Si4 0.425197 0.244701 0.929279
Si Si5 0.936699 0.717960 0.242322
Si Si6 0.421076 0.097201 0.912409
Si Si7 0.710486 0.059186 0.950995
Si Si8 0.783492 0.564648 0.910318
O O1 0.248328 0.303161 0.245323
O O2 0.262836 0.373700 0.000844
O O3 0.250000 0.250000 0.000000
O O4 0.366504 0.290307 0.941418
O O5 0.500000 0.952054 0.750000
O O6 0.540438 0.852735 0.827045
O O7 0.629936 0.937583 0.606093
O O8 0.575703 0.940034 0.935412
O O9 0.236788 0.625993 0.975734
O O10 0.250000 0.750000 0.000000
O O11 0.134150 0.707426 0.071830
O O12 0.500000 0.251705 0.750000
O O13 0.404313 0.171398 0.945850
O O14 0.426841 0.254130 0.103291
O O15 0.000000 0.746606 0.250000
O O16 0.500000 0.093968 0.750000
O O17 0.360897 0.073785 0.880341
O O18 0.713535 0.057183 0.770133
O O19 0.744047 0.998510 0.979238
#
# Coordination Sequence:
#
# PCOD9261723 Si02
#       8
#     8   8   8   8   8   8   8   8
#     4  11  22  35  56  84 112 144 185 230 279 325
#     4   9  17  31  49  72 105 144 184 218 256 309
#     4  10  20  36  57  81 112 147 183 226 273 327
#     4  10  20  33  53  81 113 144 180 226 279 328
#     4   9  18  31  51  78 112 147 178 216 265 322
#     4  10  19  31  51  76 109 148 184 220 262 318
#     4  10  22  34  52  75 105 143 185 224 268 323
#     4  11  22  37  53  76 109 145 186 225 272 324
#
# _framework density 17.158149999999999
#
# number of rings (size 3 to 8) (size 9 to 14) (size 15 to 20)
#    0.000    2.000    2.500    1.500    1.750    4.500 
#    0.000    2.500    0.000    0.000    0.000    4.375 
#    0.000    0.000    0.000    0.000    0.000    0.000 
#
# Total GULP energy -178203.295539 kJ/mol
# GULP energy per Si atom -5568.852986 kJ/mol
# Density = 1.711910 g / cm^3
# Si number density = 17.158150 Si / 1000 Ang^3
#
#
#
# Elastic Constant Matrix: (Units=GPa)
#
#
# Indices 1 2 3 4 5 6 
#
# 1 78.1860 54.2119 19.7152 0.0000 5.0421 0.0000
# 2 54.2119 129.1360 30.0271 0.0000 8.8681 0.0000
# 3 19.7152 30.0271 59.2530 0.0000 -1.8003 0.0000
# 4 0.0000 0.0000 0.0000 21.5926 0.0000 8.6093
# 5 5.0421 8.8681 -1.8003 0.0000 18.7767 0.0000
# 6 0.0000 0.0000 0.0000 8.6093 0.0000 4.7210
#
#
#
# Elastic Compliance Matrix: (Units=1/GPa)
#
#
# Indices 1 2 3 4 5 6 
#
# 1 0.018426 -0.006990 -0.002647 0.000000 -0.001901 0.000000
# 2 -0.006990 0.011842 -0.003799 0.000000 -0.004080 0.000000
# 3 -0.002647 -0.003799 0.019817 0.000000 0.004405 0.000000
# 4 0.000000 0.000000 0.000000 0.169707 0.000000 -0.309480
# 5 -0.001901 -0.004080 0.004405 0.000000 0.056117 0.000000
# 6 0.000000 0.000000 0.000000 -0.309480 0.000000 0.776189
#
#
# Mechanical properties :
#
#
# Convention : Reuss Voigt Hill
#
# Bulk Modulus (GPa) = 43.07824 52.72040 47.89932
# Shear Modulus (GPa) = 4.60106 19.85946 12.23026
#
# Velocity S-wave (km/s) = 1.63932 3.40580 2.67272
# Velocity P-wave (km/s) = 5.36137 6.80139 6.12385
#
# Compressibility (1/GPa) = 0.02321358
#
# Stress axis : x y z
#
# Youngs Moduli (GPa) = 54.27028 84.44810 50.46289
#
# Poissons Ratio (x) = 0.59025 0.13356
# Poissons Ratio (y) = 0.37932 0.19172
# Poissons Ratio (z) = 0.14364 0.32084
#
# Static dielectric constant tensor:
#      x y z
#    x 1.616610 0.000000 0.042960 
#    y 0.000000 1.646150 0.000000 
#    z 0.042960 0.000000 1.642710 
# 
# From -- ./inp_files/57849.got.cif
#   From: 2010.05.17/outbox.cif.g08.bks.cpg/sg15_29_cif.got.tgz:57849.got - 2010.06.03 18:47:42.
