data_PCOD9261760
_publ_section_title
;
Structure prediction by ZEFSAII (Michael W. Deem and Ramdas Pophale) SiO2 
 PCOD9261760
Probable space group: C 2/C
;
_chemical_formula_sum "Si O2"
_cell_formula_units_Z 64
_cell_length_a 16.371384
_cell_length_b 27.691542
_cell_length_c 12.335293
_cell_angle_alpha 90.000000
_cell_angle_beta 141.231442
_cell_angle_gamma 90.000000
_cell_volume 3501.696101
_symmetry_space_group_name_H-M "C 2/C"
_symmetry_group_IT_number 15
_symmetry_cell_setting 'monoclinic'
loop_
_space_group_symop_operation_xyz
x,y,z
-x,y,1/2-z
-x,-y,-z
x,-y,1/2+z
1/2+x,1/2+y,z
1/2-x,1/2+y,1/2-z
1/2-x,1/2-y,-z
1/2+x,1/2-y,1/2+z
loop_
_atom_site_type_symbol
_atom_site_label
_atom_site_fract_x
_atom_site_fract_y
_atom_site_fract_z
Si Si1 0.873427 0.885522 0.977775
Si Si2 0.877241 0.718991 0.150586
Si Si3 0.586760 0.962828 0.948580
Si Si4 0.049577 0.659702 0.921691
Si Si5 0.339398 0.816584 0.385958
Si Si6 0.248343 0.207163 0.235644
Si Si7 0.168718 0.890699 0.313524
Si Si8 0.136019 0.563749 0.114964
O O1 0.855689 0.835048 0.894738
O O2 0.766801 0.922176 0.816743
O O3 0.840097 0.874630 0.069485
O O4 0.021109 0.905215 0.129201
O O5 0.853585 0.700853 0.246351
O O6 0.000000 0.753051 0.250000
O O7 0.750000 0.750000 0.000000
O O8 0.894366 0.682363 0.067504
O O9 0.500000 0.969608 0.750000
O O10 0.485377 0.938583 0.927535
O O11 0.715735 0.930175 0.068770
O O12 0.634060 0.013338 0.049289
O O13 0.000000 0.665902 0.750000
O O14 0.932818 0.665414 0.888088
O O15 0.165572 0.696814 0.070229
O O16 0.109614 0.606976 0.004387
O O17 0.307760 0.760734 0.328208
O O18 0.212076 0.849029 0.274223
#
# Coordination Sequence:
#
# PCOD9261760 Si02
#       8
#     8   8   8   8   8   8   8   8
#     4  10  22  38  58  92 131 163 193 247 317 383
#     4  10  19  31  52  83 114 148 192 244 306 360
#     4  11  21  38  66  95 118 154 201 260 313 375
#     4  11  23  40  60  83 117 164 218 263 295 357
#     4  11  22  35  58  87 121 162 207 253 308 361
#     4  10  22  36  58  85 123 164 206 251 308 367
#     4  11  22  36  60  92 130 159 195 253 321 377
#     4  10  22  40  63  89 119 158 204 257 312 363
#
# _framework density 18.276857
#
# number of rings (size 3 to 8) (size 9 to 14) (size 15 to 20)
#    0.000    1.500    5.000    0.375    1.750    2.500 
#    0.000    0.000    0.000    0.000    0.000    0.000 
#    0.000    0.000    0.000    0.000    0.000    0.000 
#
# Total GULP energy -178308.727871 kJ/mol
# GULP energy per Si atom -5572.147746 kJ/mol
# Density = 1.823526 g / cm^3
# Si number density = 18.276857 Si / 1000 Ang^3
#
#
#
# Elastic Constant Matrix: (Units=GPa)
#
#
# Indices 1 2 3 4 5 6 
#
# 1 64.2856 27.2250 49.1591 0.0000 5.5931 0.0000
# 2 27.2250 83.6744 53.0595 0.0000 7.2159 0.0000
# 3 49.1591 53.0595 149.3728 0.0000 0.8040 0.0000
# 4 0.0000 0.0000 0.0000 20.5241 0.0000 1.6206
# 5 5.5931 7.2159 0.8040 0.0000 40.3666 0.0000
# 6 0.0000 0.0000 0.0000 1.6206 0.0000 17.9642
#
#
#
# Elastic Compliance Matrix: (Units=1/GPa)
#
#
# Indices 1 2 3 4 5 6 
#
# 1 0.021657 -0.003011 -0.006045 0.000000 -0.002342 0.000000
# 2 -0.003011 0.016133 -0.004727 0.000000 -0.002373 0.000000
# 3 -0.006045 -0.004727 0.010355 0.000000 0.001476 0.000000
# 4 0.000000 0.000000 0.000000 0.049073 0.000000 -0.004427
# 5 -0.002342 -0.002373 0.001476 0.000000 0.025492 0.000000
# 6 0.000000 0.000000 0.000000 -0.004427 0.000000 0.056066
#
#
# Mechanical properties :
#
#
# Convention : Reuss Voigt Hill
#
# Bulk Modulus (GPa) = 48.59370 61.80221 55.19795
# Shear Modulus (GPa) = 23.45188 26.96359 25.20773
#
# Velocity S-wave (km/s) = 3.58599 3.84511 3.71781
# Velocity P-wave (km/s) = 6.61748 7.32127 6.97826
#
# Compressibility (1/GPa) = 0.02057880
#
# Stress axis : x y z
#
# Youngs Moduli (GPa) = 46.17352 61.98545 96.56902
#
# Poissons Ratio (x) = 0.18665 0.58379
# Poissons Ratio (y) = 0.13904 0.45647
# Poissons Ratio (z) = 0.27913 0.29300
#
# Static dielectric constant tensor:
#      x y z
#    x 1.652180 0.000000 0.059920 
#    y 0.000000 1.666210 0.000000 
#    z 0.059920 0.000000 1.762550 
# 
# From -- ./inp_files/101673.got.cif
#   From: 2010.05.17/outbox.cif.g08.bks.cpg/sg15_51_cif.got.tgz:101673.got - 2010.06.03 18:47:42.
