data_PCOD9261365
_publ_section_title
;
Structure prediction by ZEFSAII (Michael W. Deem and Ramdas Pophale) SiO2 
 PCOD9261365
Probable space group: C 2/C
;
_chemical_formula_sum "Si O2"
_cell_formula_units_Z 48
_cell_length_a 8.634947
_cell_length_b 12.898817
_cell_length_c 16.316302
_cell_angle_alpha 90.000000
_cell_angle_beta 61.437976
_cell_angle_gamma 90.000000
_cell_volume 1596.151853
_symmetry_space_group_name_H-M "C 2/C"
_symmetry_group_IT_number 15
_symmetry_cell_setting 'monoclinic'
loop_
_space_group_symop_operation_xyz
x,y,z
-x,y,1/2-z
-x,-y,-z
x,-y,1/2+z
1/2+x,1/2+y,z
1/2-x,1/2+y,1/2-z
1/2-x,1/2-y,-z
1/2+x,1/2-y,1/2+z
loop_
_atom_site_type_symbol
_atom_site_label
_atom_site_fract_x
_atom_site_fract_y
_atom_site_fract_z
Si Si1 0.057803 0.027205 0.118011
Si Si2 0.102975 0.481128 0.889105
Si Si3 0.238057 0.493006 0.605075
Si Si4 0.230036 0.756159 0.126843
Si Si5 0.090799 0.262095 0.103041
Si Si6 0.628316 0.736896 0.841760
O O1 0.195709 0.982461 0.148601
O O2 0.028374 0.147916 0.146589
O O3 0.866675 0.980420 0.148389
O O4 0.160784 0.026703 0.004121
O O5 0.122463 0.358007 0.869265
O O6 0.968328 0.519382 0.853488
O O7 0.000000 0.500000 0.000000
O O8 0.240302 0.366834 0.604998
O O9 0.427823 0.800505 0.087663
O O10 0.168161 0.765787 0.236109
O O11 0.079371 0.797317 0.101904
O O12 0.203417 0.307199 0.150765
O O13 0.250000 0.250000 0.000000
#
# Coordination Sequence:
#
# PCOD9261365 Si02
#       6
#     8   8   8   8   8   8
#     4   8  14  24  38  59  86 112 143 174 223 268
#     4   8  13  22  38  61  85 110 132 174 226 272
#     4   8  13  23  40  61  85 108 135 181 226 272
#     4   9  17  29  46  68  90 113 156 196 244 279
#     4  10  19  29  43  66  94 126 159 196 229 276
#     4   9  17  29  45  67  89 117 154 198 236 277
#
# _framework density 30.072329
#
# number of rings (size 3 to 8) (size 9 to 14) (size 15 to 20)
#    0.000    3.333    0.000    0.500    0.000    0.667 
#    0.000    0.000    0.000    0.000   34.667    0.000 
#   20.000    0.000    0.000    0.000    0.000    0.000 
#
# Total GULP energy -134338.545144 kJ/mol
# GULP energy per Si atom -5597.439381 kJ/mol
# Density = 3.000388 g / cm^3
# Si number density = 30.072329 Si / 1000 Ang^3
#
#
#
# Elastic Constant Matrix: (Units=GPa)
#
#
# Indices 1 2 3 4 5 6 
#
# 1 443.3343 92.8372 18.3221 0.0000 35.0531 0.0000
# 2 92.8372 103.0742 6.4885 0.0000 14.2661 0.0000
# 3 18.3221 6.4885 102.2328 0.0000 24.9246 0.0000
# 4 0.0000 0.0000 0.0000 20.2117 0.0000 12.4303
# 5 35.0531 14.2661 24.9246 0.0000 45.6745 0.0000
# 6 0.0000 0.0000 0.0000 12.4303 0.0000 90.1238
#
#
#
# Elastic Compliance Matrix: (Units=1/GPa)
#
#
# Indices 1 2 3 4 5 6 
#
# 1 0.002870 -0.002383 -0.000009 0.000000 -0.001453 0.000000
# 2 -0.002383 0.012121 0.000156 0.000000 -0.002042 0.000000
# 3 -0.000009 0.000156 0.011285 0.000000 -0.006200 0.000000
# 4 0.000000 0.000000 0.000000 0.054062 0.000000 -0.007456
# 5 -0.001453 -0.002042 -0.006200 0.000000 0.027031 0.000000
# 6 0.000000 0.000000 0.000000 -0.007456 0.000000 0.012124
#
#
# Mechanical properties :
#
#
# Convention : Reuss Voigt Hill
#
# Bulk Modulus (GPa) = 45.86476 98.21521 72.03998
# Shear Modulus (GPa) = 38.10011 66.60158 52.35085
#
# Velocity S-wave (km/s) = 3.56328 4.71118 4.17685
# Velocity P-wave (km/s) = 5.67573 7.89457 6.87525
#
# Compressibility (1/GPa) = 0.02180323
#
# Stress axis : x y z
#
# Youngs Moduli (GPa) = 348.43476 82.50081 88.61424
#
# Poissons Ratio (x) = 0.19662 0.00078
# Poissons Ratio (y) = 0.83040 -0.01379
# Poissons Ratio (z) = 0.00305 -0.01284
#
# Static dielectric constant tensor:
#      x y z
#    x 2.505620 0.000000 -0.015160 
#    y 0.000000 2.602210 0.000000 
#    z -0.015160 0.000000 2.230900 
# 
# From -- ./inp_files/136817.got.cif
#   From: 2010.05.17/outbox.cif.g08.bks.cpg/sg15_69_cif.got.tgz:136817.got - 2010.06.03 18:47:42.
