data_PCOD9261962
_publ_section_title
;
Structure prediction by ZEFSAII (Michael W. Deem and Ramdas Pophale) SiO2 
 PCOD9261962
Probable space group: C 2/C
;
_chemical_formula_sum "Si O2"
_cell_formula_units_Z 56
_cell_length_a 9.446348
_cell_length_b 17.764828
_cell_length_c 15.242092
_cell_angle_alpha 90.000000
_cell_angle_beta 94.058457
_cell_angle_gamma 90.000000
_cell_volume 2551.403252
_symmetry_space_group_name_H-M "C 2/C"
_symmetry_group_IT_number 15
_symmetry_cell_setting 'monoclinic'
loop_
_space_group_symop_operation_xyz
x,y,z
-x,y,1/2-z
-x,-y,-z
x,-y,1/2+z
1/2+x,1/2+y,z
1/2-x,1/2+y,1/2-z
1/2-x,1/2-y,-z
1/2+x,1/2-y,1/2+z
loop_
_atom_site_type_symbol
_atom_site_label
_atom_site_fract_x
_atom_site_fract_y
_atom_site_fract_z
Si Si1 0.659111 0.220179 0.725464
Si Si2 0.428533 0.682078 0.831628
Si Si3 0.373269 0.314095 0.518180
Si Si4 0.138412 0.675918 0.355223
Si Si5 0.346202 0.931620 0.984458
Si Si6 0.590372 0.811082 0.042194
Si Si7 0.961076 0.492942 0.651543
O O1 0.500000 0.224877 0.750000
O O2 0.762297 0.187994 0.803684
O O3 0.737281 0.297450 0.702901
O O4 0.667528 0.171418 0.636304
O O5 0.500000 0.644396 0.750000
O O6 0.435215 0.653261 0.929703
O O7 0.508920 0.763625 0.841166
O O8 0.250000 0.250000 0.500000
O O9 0.289943 0.384779 0.554065
O O10 0.503902 0.265784 0.560435
O O11 0.183793 0.686859 0.458616
O O12 0.090507 0.592232 0.334056
O O13 0.469529 0.870332 0.009310
O O14 0.343026 0.970809 0.080585
O O15 0.404562 0.984810 0.909322
O O16 0.000000 0.526134 0.750000
#
# Coordination Sequence:
#
# PCOD9261962 Si02
#       7
#     8   8   8   8   8   8   8
#     4  11  19  27  47  79 104 125 165 216 253 293
#     4   9  18  31  48  72 103 135 167 206 255 312
#     4   9  16  30  49  70 101 135 160 200 259 309
#     4   9  19  35  50  69 102 140 171 199 250 313
#     4   9  19  32  49  77 103 129 175 214 249 304
#     4   9  18  31  49  73 102 131 160 204 263 305
#     4  10  19  32  51  71  99 138 174 213 250 291
#
# _framework density 21.948705
#
# number of rings (size 3 to 8) (size 9 to 14) (size 15 to 20)
#    0.000    2.571    0.000    4.286    0.000    2.857 
#    0.000    0.000    0.000    1.714    0.000    4.000 
#    0.000    0.000    0.000    0.000    0.000    0.000 
#
# Total GULP energy -155908.374551 kJ/mol
# GULP energy per Si atom -5568.156234 kJ/mol
# Density = 2.189875 g / cm^3
# Si number density = 21.948705 Si / 1000 Ang^3
#
#
#
# Elastic Constant Matrix: (Units=GPa)
#
#
# Indices 1 2 3 4 5 6 
#
# 1 79.8807 9.8824 -5.2536 0.0000 -1.9906 0.0000
# 2 9.8824 38.3056 0.9461 0.0000 -1.4402 0.0000
# 3 -5.2536 0.9461 114.1842 0.0000 -0.0345 0.0000
# 4 0.0000 0.0000 0.0000 16.1349 0.0000 -4.3251
# 5 -1.9906 -1.4402 -0.0345 0.0000 28.1549 0.0000
# 6 0.0000 0.0000 0.0000 -4.3251 0.0000 17.2896
#
#
#
# Elastic Compliance Matrix: (Units=1/GPa)
#
#
# Indices 1 2 3 4 5 6 
#
# 1 0.012992 -0.003339 0.000626 0.000000 0.000748 0.000000
# 2 -0.003339 0.027020 -0.000377 0.000000 0.001146 0.000000
# 3 0.000626 -0.000377 0.008790 0.000000 0.000036 0.000000
# 4 0.000000 0.000000 0.000000 0.066432 0.000000 0.016619
# 5 0.000748 0.001146 0.000036 0.000000 0.035629 0.000000
# 6 0.000000 0.000000 0.000000 0.016619 0.000000 0.061996
#
#
# Mechanical properties :
#
#
# Convention : Reuss Voigt Hill
#
# Bulk Modulus (GPa) = 23.46322 27.05781 25.26052
# Shear Modulus (GPa) = 21.43661 27.43558 24.43609
#
# Velocity S-wave (km/s) = 3.12856 3.53935 3.34028
# Velocity P-wave (km/s) = 4.87481 5.39047 5.13911
#
# Compressibility (1/GPa) = 0.04261989
#
# Stress axis : x y z
#
# Youngs Moduli (GPa) = 76.97314 37.01005 113.76955
#
# Poissons Ratio (x) = 0.12358 -0.07118
# Poissons Ratio (y) = 0.25701 0.04291
# Poissons Ratio (z) = -0.04816 0.01396
#
# Static dielectric constant tensor:
#      x y z
#    x 1.845380 0.000000 -0.000130 
#    y 0.000000 1.845330 0.000000 
#    z -0.000130 0.000000 1.933090 
# 
# From -- ./inp_files/191653.got.cif
#   From: 2010.05.17/outbox.cif.g08.bks.cpg/sg15_96_cif.got.tgz:191653.got - 2010.06.03 18:47:42.
