data_PCOD9261851
_publ_section_title
;
Structure prediction by ZEFSAII (Michael W. Deem and Ramdas Pophale) SiO2 
 PCOD9261851
Probable space group: C 2/C
;
_chemical_formula_sum "Si O2"
_cell_formula_units_Z 40
_cell_length_a 17.624152
_cell_length_b 5.310483
_cell_length_c 20.034299
_cell_angle_alpha 90.000000
_cell_angle_beta 94.265631
_cell_angle_gamma 90.000000
_cell_volume 1869.871268
_symmetry_space_group_name_H-M "C 2/C"
_symmetry_group_IT_number 15
_symmetry_cell_setting 'monoclinic'
loop_
_space_group_symop_operation_xyz
x,y,z
-x,y,1/2-z
-x,-y,-z
x,-y,1/2+z
1/2+x,1/2+y,z
1/2-x,1/2+y,1/2-z
1/2-x,1/2-y,-z
1/2+x,1/2-y,1/2+z
loop_
_atom_site_type_symbol
_atom_site_label
_atom_site_fract_x
_atom_site_fract_y
_atom_site_fract_z
Si Si1 0.608688 0.161382 0.405738
Si Si2 0.539094 0.577561 0.571872
Si Si3 0.406946 0.241189 0.246483
Si Si4 0.835967 0.166733 0.016203
Si Si5 0.068842 0.757426 0.700254
O O1 0.518040 0.211192 0.405392
O O2 0.624259 0.175538 0.328184
O O3 0.650094 0.395580 0.446671
O O4 0.627399 0.892574 0.438243
O O5 0.500000 0.500000 0.500000
O O6 0.621952 0.655833 0.552719
O O7 0.541149 0.358619 0.627095
O O8 0.500000 0.269847 0.250000
O O9 0.380256 0.512920 0.269200
O O10 0.391473 0.011873 0.295330
O O11 0.750000 0.250000 0.000000
O O12 0.000000 0.729525 0.750000
#
# Coordination Sequence:
#
# PCOD9261851 Si02
#       5
#     8   8   8   8   8
#     4  11  21  40  64  94 121 163 218 261 306 375
#     4  10  22  37  63  98 121 158 214 266 306 369
#     4  10  19  31  59  89 123 149 197 257 319 351
#     4  11  25  41  61  89 135 170 206 256 324 376
#     4  10  19  33  54  89 125 150 192 259 320 350
#
# _framework density 21.391845
#
# number of rings (size 3 to 8) (size 9 to 14) (size 15 to 20)
#    0.000    1.600    4.000    2.400    8.400    3.200 
#    0.000    0.000    0.000    4.800    0.000    0.000 
#    0.000    0.000    0.000    0.000    0.000    0.000 
#
# Total GULP energy -111586.190555 kJ/mol
# GULP energy per Si atom -5579.309528 kJ/mol
# Density = 2.134316 g / cm^3
# Si number density = 21.391845 Si / 1000 Ang^3
#
#
#
# Elastic Constant Matrix: (Units=GPa)
#
#
# Indices 1 2 3 4 5 6 
#
# 1 76.1945 -0.0512 12.6454 0.0000 -4.0920 0.0000
# 2 -0.0512 106.9672 -0.4044 0.0000 4.9920 0.0000
# 3 12.6454 -0.4044 106.5378 0.0000 -1.2190 0.0000
# 4 0.0000 0.0000 0.0000 24.4421 0.0000 19.3612
# 5 -4.0920 4.9920 -1.2190 0.0000 7.3026 0.0000
# 6 0.0000 0.0000 0.0000 19.3612 0.0000 10.0115
#
#
#
# Elastic Compliance Matrix: (Units=1/GPa)
#
#
# Indices 1 2 3 4 5 6 
#
# 1 0.013796 -0.000359 -0.001551 0.000000 0.007717 0.000000
# 2 -0.000359 0.009666 0.000001 0.000000 -0.006809 0.000000
# 3 -0.001551 0.000001 0.009579 0.000000 0.000729 0.000000
# 4 0.000000 0.000000 0.000000 -0.076923 0.000000 0.148760
# 5 0.007717 -0.006809 0.000729 0.000000 0.146039 0.000000
# 6 0.000000 0.000000 0.000000 0.148760 0.000000 -0.187799
#
#
# Mechanical properties :
#
#
# Convention : Reuss Voigt Hill
#
# Bulk Modulus (GPa) = 34.21868 34.89768 34.55818
# Shear Modulus (GPa) = -69.36397 26.85190 -21.25604
#
# Velocity S-wave (km/s) = -5.70051 3.54678 -3.15564
# Velocity P-wave (km/s) = 5.22464 5.75516 1.70659
#
# Compressibility (1/GPa) = 0.02922380
#
# Stress axis : x y z
#
# Youngs Moduli (GPa) = 72.48548 103.45263 104.39797
#
# Poissons Ratio (x) = 0.03718 0.16187
# Poissons Ratio (y) = 0.02605 -0.00015
# Poissons Ratio (z) = 0.11239 -0.00015
#
# Static dielectric constant tensor:
#      x y z
#    x 1.761090 0.000000 0.068800 
#    y 0.000000 1.842190 0.000000 
#    z 0.068800 0.000000 1.672880 
# 
# From -- ./inp_files/208119.got.cif
#   From: 2010.05.17/outbox.cif.g08.bks.cpg/sg15_105_cif.got.tgz:208119.got - 2010.06.03 18:47:42.
