data_PCOD9261021
_publ_section_title
;
Structure prediction by ZEFSAII (Michael W. Deem and Ramdas Pophale) SiO2 
 PCOD9261021
Probable space group: C 2/C
;
_chemical_formula_sum "Si O2"
_cell_formula_units_Z 64
_cell_length_a 12.225996
_cell_length_b 13.582199
_cell_length_c 19.471533
_cell_angle_alpha 90.000000
_cell_angle_beta 115.412508
_cell_angle_gamma 90.000000
_cell_volume 2920.508204
_symmetry_space_group_name_H-M "C 2/C"
_symmetry_group_IT_number 15
_symmetry_cell_setting 'monoclinic'
loop_
_space_group_symop_operation_xyz
x,y,z
-x,y,1/2-z
-x,-y,-z
x,-y,1/2+z
1/2+x,1/2+y,z
1/2-x,1/2+y,1/2-z
1/2-x,1/2-y,-z
1/2+x,1/2-y,1/2+z
loop_
_atom_site_type_symbol
_atom_site_label
_atom_site_fract_x
_atom_site_fract_y
_atom_site_fract_z
Si Si1 0.140538 0.879293 0.791525
Si Si2 0.511609 0.125453 0.550913
Si Si3 0.360177 0.476476 0.442803
Si Si4 0.775353 0.506579 0.233211
Si Si5 0.829068 0.254080 0.908439
Si Si6 0.860812 0.431862 0.541346
Si Si7 0.032459 0.677484 0.187767
Si Si8 0.597902 0.197667 0.715373
O O1 0.214734 0.974473 0.791053
O O2 0.201378 0.813848 0.867843
O O3 0.160482 0.803224 0.733690
O O4 0.000000 0.903515 0.750000
O O5 0.409863 0.181403 0.480781
O O6 0.625480 0.115468 0.530211
O O7 0.541574 0.182689 0.627039
O O8 0.457666 0.021249 0.561030
O O9 0.500000 0.500000 0.500000
O O10 0.316075 0.515664 0.355837
O O11 0.331366 0.358891 0.432782
O O12 0.269052 0.527138 0.472546
O O13 0.887917 0.582756 0.265539
O O14 0.821951 0.395431 0.244343
O O15 0.893631 0.263888 0.850937
O O16 0.914652 0.361640 0.614925
O O17 0.000000 0.731666 0.250000
O O18 0.500000 0.202437 0.750000
#
# Coordination Sequence:
#
# PCOD9261021 Si02
#       8
#     8   8   8   8   8   8   8   8
#     4  10  24  41  64  98 134 172 224 276 340 401
#     4  10  22  39  67  98 127 162 226 284 328 380
#     4  12  26  43  60  93 142 183 217 264 356 413
#     4  11  21  39  66  93 129 168 227 279 326 402
#     4  10  24  42  62 100 135 170 228 278 335 408
#     4  10  21  39  64  99 124 169 220 276 331 395
#     4  10  18  39  72  95 119 167 236 289 317 379
#     4  11  21  41  70  95 121 173 230 273 330 403
#
# _framework density 21.913993999999999
#
# number of rings (size 3 to 8) (size 9 to 14) (size 15 to 20)
#    0.000    1.500    3.750    1.125    5.250    1.500 
#    0.000    5.625    0.000    0.000    0.000    0.000 
#    0.000    0.000    0.000    0.000    0.000    0.000 
#
# Total GULP energy -178554.054837 kJ/mol
# GULP energy per Si atom -5579.814214 kJ/mol
# Density = 2.186412 g / cm^3
# Si number density = 21.913994 Si / 1000 Ang^3
#
#
#
# Elastic Constant Matrix: (Units=GPa)
#
#
# Indices 1 2 3 4 5 6 
#
# 1 121.2678 13.1361 41.5125 0.0000 9.3161 0.0000
# 2 13.1361 38.6500 -1.2832 0.0000 -5.1667 0.0000
# 3 41.5125 -1.2832 123.7252 0.0000 -8.5627 0.0000
# 4 0.0000 0.0000 0.0000 -9.5986 0.0000 23.9844
# 5 9.3161 -5.1667 -8.5627 0.0000 25.1190 0.0000
# 6 0.0000 0.0000 0.0000 23.9844 0.0000 13.8987
#
#
#
# Elastic Compliance Matrix: (Units=1/GPa)
#
#
# Indices 1 2 3 4 5 6 
#
# 1 0.010604 -0.004574 -0.004038 0.000000 -0.006250 0.000000
# 2 -0.004574 0.028632 0.002413 0.000000 0.008408 0.000000
# 3 -0.004038 0.002413 0.009832 0.000000 0.005346 0.000000
# 4 0.000000 0.000000 0.000000 -0.019613 0.000000 0.033845
# 5 -0.006250 0.008408 0.005346 0.000000 0.045680 0.000000
# 6 0.000000 0.000000 0.000000 0.033845 0.000000 0.013545
#
#
# Mechanical properties :
#
#
# Convention : Reuss Voigt Hill
#
# Bulk Modulus (GPa) = 27.26880 43.37484 35.32182
# Shear Modulus (GPa) = 44.13053 21.23567 32.68310
#
# Velocity S-wave (km/s) = 4.49241 3.11633 3.86609
# Velocity P-wave (km/s) = 6.27532 5.72581 6.00685
#
# Compressibility (1/GPa) = 0.03667195
#
# Stress axis : x y z
#
# Youngs Moduli (GPa) = 94.30397 34.92622 101.70666
#
# Poissons Ratio (x) = 0.15974 0.41068
# Poissons Ratio (y) = 0.43131 -0.24546
# Poissons Ratio (z) = 0.38079 -0.08429
#
# Static dielectric constant tensor:
#      x y z
#    x 1.863810 0.000000 -0.002480 
#    y 0.000000 1.784460 0.000000 
#    z -0.002480 0.000000 1.827320 
# 
# From -- ./inp_files/238771.got.cif
#   From: 2010.05.17/outbox.cif.g08.bks.cpg/sg15_120_cif.got.tgz:238771.got - 2010.06.03 18:47:42.
