data_PCOD9261046
_publ_section_title
;
Structure prediction by ZEFSAII (Michael W. Deem and Ramdas Pophale) SiO2 
 PCOD9261046
Probable space group: C 2/C
;
_chemical_formula_sum "Si O2"
_cell_formula_units_Z 36
_cell_length_a 32.596568
_cell_length_b 7.449269
_cell_length_c 19.438134
_cell_angle_alpha 90.000000
_cell_angle_beta 163.922696
_cell_angle_gamma 90.000000
_cell_volume 1307.123009
_symmetry_space_group_name_H-M "C 2/C"
_symmetry_group_IT_number 15
_symmetry_cell_setting 'monoclinic'
loop_
_space_group_symop_operation_xyz
x,y,z
-x,y,1/2-z
-x,-y,-z
x,-y,1/2+z
1/2+x,1/2+y,z
1/2-x,1/2+y,1/2-z
1/2-x,1/2-y,-z
1/2+x,1/2-y,1/2+z
loop_
_atom_site_type_symbol
_atom_site_label
_atom_site_fract_x
_atom_site_fract_y
_atom_site_fract_z
Si Si1 0.816769 0.082527 0.332388
Si Si2 0.345731 0.285884 0.546177
Si Si3 0.239854 0.309203 0.906218
Si Si4 0.046376 0.695922 0.978292
Si Si5 0.500000 0.234590 0.250000
O O1 0.925836 0.175713 0.562796
O O2 0.775644 0.193045 0.197931
O O3 0.661084 0.065559 0.123269
O O4 0.606236 0.605044 0.557882
O O5 0.500000 0.282857 0.750000
O O6 0.301508 0.490479 0.491290
O O7 0.389706 0.186954 0.688356
O O8 0.078334 0.315150 0.610658
O O9 0.250000 0.250000 0.000000
O O10 0.347406 0.169305 0.038362
#
# Coordination Sequence:
#
# PCOD9261046 Si02
#       5
#     8   8   8   8   4
#     4  10  19  36  65  87 122 163 198 253 306 353
#     4  10  19  40  61  87 125 161 206 248 301 366
#     4  11  22  40  66  89 123 168 201 250 312 355
#     4  10  20  37  60  90 123 160 203 253 302 364
#     4  10  18  40  60  86 124 152 198 254 296 352
#
# _framework density 27.541399999999999
#
# number of rings (size 3 to 8) (size 9 to 14) (size 15 to 20)
#    0.000    1.778    3.333    4.000    0.000    0.889 
#   32.000    2.222    0.000    0.000    0.000    0.000 
#    0.000    0.000    0.000    0.000    0.000    0.000 
#
# Total GULP energy -100659.554878 kJ/mol
# GULP energy per Si atom -5592.197493 kJ/mol
# Density = 2.747871 g / cm^3
# Si number density = 27.541400 Si / 1000 Ang^3
#
#
#
# Elastic Constant Matrix: (Units=GPa)
#
#
# Indices 1 2 3 4 5 6 
#
# 1 120.2978 19.3933 69.5094 0.0000 -28.1202 0.0000
# 2 19.3933 114.1338 47.5371 0.0000 -14.1394 0.0000
# 3 69.5094 47.5371 193.7804 0.0000 -68.2278 0.0000
# 4 0.0000 0.0000 0.0000 45.9539 0.0000 -5.1588
# 5 -28.1202 -14.1394 -68.2278 0.0000 71.1313 0.0000
# 6 0.0000 0.0000 0.0000 -5.1588 0.0000 20.6377
#
#
#
# Elastic Compliance Matrix: (Units=1/GPa)
#
#
# Indices 1 2 3 4 5 6 
#
# 1 0.010524 -0.000262 -0.003419 0.000000 0.000829 0.000000
# 2 -0.000262 0.009779 -0.002502 0.000000 -0.000560 0.000000
# 3 -0.003419 -0.002502 0.009588 0.000000 0.007347 0.000000
# 4 0.000000 0.000000 0.000000 0.022389 0.000000 0.005597
# 5 0.000829 -0.000560 0.007347 0.000000 0.021322 0.000000
# 6 0.000000 0.000000 0.000000 0.005597 0.000000 0.049854
#
#
# Mechanical properties :
#
#
# Convention : Reuss Voigt Hill
#
# Bulk Modulus (GPa) = 57.05986 77.89907 67.47947
# Shear Modulus (GPa) = 35.29497 46.99606 41.14551
#
# Velocity S-wave (km/s) = 3.58372 4.13532 3.86936
# Velocity P-wave (km/s) = 6.15523 7.15170 6.67210
#
# Compressibility (1/GPa) = 0.01752545
#
# Stress axis : x y z
#
# Youngs Moduli (GPa) = 95.01914 102.26099 104.30213
#
# Poissons Ratio (x) = 0.02674 0.35661
# Poissons Ratio (y) = 0.02485 0.26097
# Poissons Ratio (z) = 0.32487 0.25587
#
# Static dielectric constant tensor:
#      x y z
#    x 2.216230 0.000000 0.005530 
#    y 0.000000 2.233580 0.000000 
#    z 0.005530 0.000000 2.165540 
# 
# From -- ./inp_files/178265.got.cif
#   From: 2010.05.17/outbox.cif.g08.bks.cpg/sg15_90_cif.got.tgz:178265.got - 2010.06.03 18:47:42.
