data_PCOD9261579
_publ_section_title
;
Structure prediction by ZEFSAII (Michael W. Deem and Ramdas Pophale) SiO2 
 PCOD9261579
Probable space group: C 2/C
;
_chemical_formula_sum "Si O2"
_cell_formula_units_Z 52
_cell_length_a 21.238545
_cell_length_b 20.628967
_cell_length_c 12.740605
_cell_angle_alpha 90.000000
_cell_angle_beta 155.725985
_cell_angle_gamma 90.000000
_cell_volume 2294.778638
_symmetry_space_group_name_H-M "C 2/C"
_symmetry_group_IT_number 15
_symmetry_cell_setting 'monoclinic'
loop_
_space_group_symop_operation_xyz
x,y,z
-x,y,1/2-z
-x,-y,-z
x,-y,1/2+z
1/2+x,1/2+y,z
1/2-x,1/2+y,1/2-z
1/2-x,1/2-y,-z
1/2+x,1/2-y,1/2+z
loop_
_atom_site_type_symbol
_atom_site_label
_atom_site_fract_x
_atom_site_fract_y
_atom_site_fract_z
Si Si1 0.250000 0.250000 0.500000
Si Si2 0.735446 0.021970 0.477224
Si Si3 0.279544 0.109819 0.443259
Si Si4 0.086482 0.888562 0.088523
Si Si5 0.525998 0.746470 0.570623
Si Si6 0.000000 0.821680 0.250000
Si Si7 0.672562 0.121312 0.223858
Si Si8 0.500000 0.453345 0.750000
O O1 0.302212 0.173351 0.549389
O O2 0.356719 0.250565 0.765907
O O3 0.633307 0.061101 0.238888
O O4 0.666435 0.957091 0.422202
O O5 0.801217 0.069414 0.668334
O O6 0.880987 0.995817 0.633184
O O7 0.350694 0.116871 0.435953
O O8 0.092188 0.101613 0.147661
O O9 0.087921 0.909716 0.969493
O O10 0.112152 0.811777 0.139363
O O11 0.523599 0.723346 0.685519
O O12 0.601337 0.814443 0.664082
O O13 0.145972 0.866677 0.487329
#
# Coordination Sequence:
#
# PCOD9261579 Si02
#       8
#     4   8   8   8   8   4   8   4
#     4  10  22  46  64  92 132 174 224 284 318 396
#     4  11  20  34  59  92 132 169 216 272 330 396
#     4  10  21  38  60  92 132 172 215 275 324 382
#     4  10  19  35  55  89 126 162 216 275 326 378
#     4  11  25  41  68  97 129 176 224 269 341 388
#     4  12  21  44  62 102 140 165 218 284 327 398
#     4  12  22  40  68  98 135 178 219 272 340 397
#     4  10  19  30  54  88 124 173 216 274 333 380
#
# _framework density 22.660139000000001
#
# number of rings (size 3 to 8) (size 9 to 14) (size 15 to 20)
#    0.000    1.231    4.615    4.615    0.000    4.308 
#    0.000    2.308    0.000    0.000    0.000    0.000 
#    0.000    0.000    0.000    0.000    0.000    0.000 
#
# Total GULP energy -144914.198670 kJ/mol
# GULP energy per Si atom -5573.623026 kJ/mol
# Density = 2.260856 g / cm^3
# Si number density = 22.660139 Si / 1000 Ang^3
#
#
#
# Elastic Constant Matrix: (Units=GPa)
#
#
# Indices 1 2 3 4 5 6 
#
# 1 74.0718 57.2379 28.7830 0.0000 -45.1980 0.0000
# 2 57.2379 191.9479 24.0332 0.0000 -40.3332 0.0000
# 3 28.7830 24.0332 27.7035 0.0000 -20.1877 0.0000
# 4 0.0000 0.0000 0.0000 36.6020 0.0000 -11.2153
# 5 -45.1980 -40.3332 -20.1877 0.0000 47.1639 0.0000
# 6 0.0000 0.0000 0.0000 -11.2153 0.0000 -15.3743
#
#
#
# Elastic Compliance Matrix: (Units=1/GPa)
#
#
# Indices 1 2 3 4 5 6 
#
# 1 0.040668 -0.003996 -0.018714 0.000000 0.027546 0.000000
# 2 -0.003996 0.006842 -0.000452 0.000000 0.001829 0.000000
# 3 -0.018714 -0.000452 0.061883 0.000000 0.008168 0.000000
# 4 0.000000 0.000000 0.000000 0.022330 0.000000 -0.016289
# 5 0.027546 0.001829 0.008168 0.000000 0.052660 0.000000
# 6 0.000000 0.000000 0.000000 -0.016289 0.000000 -0.053161
#
#
# Mechanical properties :
#
#
# Convention : Reuss Voigt Hill
#
# Bulk Modulus (GPa) = 15.85499 57.09238 36.47369
# Shear Modulus (GPa) = 25.18019 25.92292 25.55156
#
# Velocity S-wave (km/s) = 3.33710 3.38596 3.36162
# Velocity P-wave (km/s) = 4.67551 6.36679 5.58554
#
# Compressibility (1/GPa) = 0.06307161
#
# Stress axis : x y z
#
# Youngs Moduli (GPa) = 24.58924 146.15478 16.15940
#
# Poissons Ratio (x) = 0.58402 0.30240
# Poissons Ratio (y) = 0.09826 0.00730
# Poissons Ratio (z) = 0.46015 0.06599
#
# Static dielectric constant tensor:
#      x y z
#    x 1.837470 0.000000 0.018500 
#    y 0.000000 1.854970 0.000000 
#    z 0.018500 0.000000 1.904500 
# 
# From -- ./inp_files/114426.got.cif
#   From: 2010.05.17/outbox.cif.g08.bks.cpg/sg15_58_cif.got.tgz:114426.got - 2010.06.03 18:47:42.
