data_PCOD9261138
_publ_section_title
;
Structure prediction by ZEFSAII (Michael W. Deem and Ramdas Pophale) SiO2 
 PCOD9261138
Probable space group: C 2/C
;
_chemical_formula_sum "Si O2"
_cell_formula_units_Z 36
_cell_length_a 11.562997
_cell_length_b 8.918599
_cell_length_c 14.501386
_cell_angle_alpha 90.000000
_cell_angle_beta 69.541053
_cell_angle_gamma 90.000000
_cell_volume 1401.136369
_symmetry_space_group_name_H-M "C 2/C"
_symmetry_group_IT_number 15
_symmetry_cell_setting 'monoclinic'
loop_
_space_group_symop_operation_xyz
x,y,z
-x,y,1/2-z
-x,-y,-z
x,-y,1/2+z
1/2+x,1/2+y,z
1/2-x,1/2+y,1/2-z
1/2-x,1/2-y,-z
1/2+x,1/2-y,1/2+z
loop_
_atom_site_type_symbol
_atom_site_label
_atom_site_fract_x
_atom_site_fract_y
_atom_site_fract_z
Si Si1 0.755063 0.243446 0.731476
Si Si2 0.136057 0.937354 0.462396
Si Si3 0.931169 0.354229 0.552484
Si Si4 0.500000 0.869052 0.250000
Si Si5 0.352941 0.131520 0.391424
O O1 0.814513 0.104952 0.655591
O O2 0.816485 0.378332 0.653650
O O3 0.608386 0.227581 0.766285
O O4 0.802209 0.270440 0.821086
O O5 0.118187 0.768030 0.506674
O O6 0.236841 0.052045 0.473796
O O7 0.000000 0.000000 0.500000
O O8 0.000000 0.500000 0.500000
O O9 0.044244 0.281957 0.579332
O O10 0.429353 0.987111 0.334437
#
# Coordination Sequence:
#
# PCOD9261138 Si02
#       5
#     8   8   8   4   8
#     4   9  21  39  67  96 126 181 225 273 339 405
#     4   9  22  41  61 102 131 172 226 277 344 410
#     4  10  22  39  66  99 132 178 222 277 351 405
#     4  10  18  40  66  92 126 172 226 286 322 400
#     4  11  20  43  69  93 141 177 229 286 336 410
#
# _framework density 25.693429999999999
#
# number of rings (size 3 to 8) (size 9 to 14) (size 15 to 20)
#    1.333    0.889    2.222    0.000    0.000    3.556 
#    4.000    4.444    0.000    0.000    0.000    0.000 
#    0.000    0.000    0.000    0.000    0.000    0.000 
#
# Total GULP energy -100372.955250 kJ/mol
# GULP energy per Si atom -5576.275292 kJ/mol
# Density = 2.563495 g / cm^3
# Si number density = 25.693430 Si / 1000 Ang^3
#
#
#
# Elastic Constant Matrix: (Units=GPa)
#
#
# Indices 1 2 3 4 5 6 
#
# 1 186.3059 45.6453 54.7490 0.0000 -39.0327 0.0000
# 2 45.6453 62.3063 36.1016 0.0000 -12.5366 0.0000
# 3 54.7490 36.1016 92.7505 0.0000 -40.4870 0.0000
# 4 0.0000 0.0000 0.0000 53.3010 0.0000 -15.8782
# 5 -39.0327 -12.5366 -40.4870 0.0000 56.1896 0.0000
# 6 0.0000 0.0000 0.0000 -15.8782 0.0000 48.7105
#
#
#
# Elastic Compliance Matrix: (Units=1/GPa)
#
#
# Indices 1 2 3 4 5 6 
#
# 1 0.007441 -0.003970 -0.001426 0.000000 0.003256 0.000000
# 2 -0.003970 0.022958 -0.008112 0.000000 -0.003481 0.000000
# 3 -0.001426 -0.008112 0.019780 0.000000 0.011452 0.000000
# 4 0.000000 0.000000 0.000000 0.020779 0.000000 0.006773
# 5 0.003256 -0.003481 0.011452 0.000000 0.027534 0.000000
# 6 0.000000 0.000000 0.000000 0.006773 0.000000 0.022737
#
#
# Mechanical properties :
#
#
# Convention : Reuss Voigt Hill
#
# Bulk Modulus (GPa) = 43.17215 68.26163 55.71689
# Shear Modulus (GPa) = 32.05820 45.29801 38.67811
#
# Velocity S-wave (km/s) = 3.53614 4.20339 3.88412
# Velocity P-wave (km/s) = 5.78893 7.08402 6.46897
#
# Compressibility (1/GPa) = 0.02316308
#
# Stress axis : x y z
#
# Youngs Moduli (GPa) = 134.38300 43.55747 50.55725
#
# Poissons Ratio (x) = 0.17293 0.07209
# Poissons Ratio (y) = 0.53353 0.41012
# Poissons Ratio (z) = 0.19161 0.35334
#
# Static dielectric constant tensor:
#      x y z
#    x 2.051530 0.000000 0.066540 
#    y 0.000000 2.308970 0.000000 
#    z 0.066540 0.000000 2.116180 
# 
# From -- ./inp_files/267531.got.cif
#   From: 2010.05.17/outbox.cif.g08.bks.cpg/sg15_134_cif.got.tgz:267531.got - 2010.06.03 18:47:42.
