data_PCOD9261663
_publ_section_title
;
Structure prediction by ZEFSAII (Michael W. Deem and Ramdas Pophale) SiO2 
 PCOD9261663
Probable space group: C 2/C
;
_chemical_formula_sum "Si O2"
_cell_formula_units_Z 56
_cell_length_a 16.148013
_cell_length_b 22.283878
_cell_length_c 20.059284
_cell_angle_alpha 90.000000
_cell_angle_beta 153.018433
_cell_angle_gamma 90.000000
_cell_volume 3274.897638
_symmetry_space_group_name_H-M "C 2/C"
_symmetry_group_IT_number 15
_symmetry_cell_setting 'monoclinic'
loop_
_space_group_symop_operation_xyz
x,y,z
-x,y,1/2-z
-x,-y,-z
x,-y,1/2+z
1/2+x,1/2+y,z
1/2-x,1/2+y,1/2-z
1/2-x,1/2-y,-z
1/2+x,1/2-y,1/2+z
loop_
_atom_site_type_symbol
_atom_site_label
_atom_site_fract_x
_atom_site_fract_y
_atom_site_fract_z
Si Si1 0.814077 0.435721 0.252823
Si Si2 0.411200 0.469234 0.535644
Si Si3 0.033293 0.107349 0.642250
Si Si4 0.791507 0.446060 0.822312
Si Si5 0.185739 0.314148 0.926702
Si Si6 0.705362 0.957861 0.521165
Si Si7 0.842128 0.405001 0.474210
O O1 0.680310 0.386425 0.187890
O O2 0.836637 0.486775 0.327135
O O3 0.018600 0.420972 0.379456
O O4 0.723955 0.464051 0.122994
O O5 0.458223 0.539403 0.580193
O O6 0.596688 0.434258 0.648640
O O7 0.330481 0.446076 0.547474
O O8 0.161334 0.107644 0.800320
O O9 0.863149 0.152640 0.521164
O O10 0.740877 0.445672 0.863849
O O11 0.969171 0.407872 0.932354
O O12 0.000000 0.309851 0.750000
O O13 0.250000 0.250000 0.000000
O O14 0.140449 0.355479 0.957318
O O15 0.674976 0.030133 0.502025
#
# Coordination Sequence:
#
# PCOD9261663 Si02
#       7
#     8   8   8   8   8   8   8
#     4  10  20  31  47  76 110 146 188 225 264 329
#     4  11  21  27  50  79 115 146 190 222 262 323
#     4  11  20  36  54  73 107 148 183 224 279 315
#     4  10  19  31  48  75 108 150 188 214 266 333
#     4  12  28  42  60  81 105 138 190 238 277 329
#     4  11  18  32  48  79 111 155 184 216 265 332
#     4  11  20  35  56  72 108 146 187 221 278 320
#
# _framework density 17.099771
#
# number of rings (size 3 to 8) (size 9 to 14) (size 15 to 20)
#    0.000    1.143    5.714    4.714    6.000    0.000 
#    0.000    0.000    0.000    0.000    0.000    0.000 
#    0.000    6.857    0.000    0.000    0.000    0.000 
#
# Total GULP energy -155957.091126 kJ/mol
# GULP energy per Si atom -5569.896112 kJ/mol
# Density = 1.706085 g / cm^3
# Si number density = 17.099771 Si / 1000 Ang^3
#
#
#
# Elastic Constant Matrix: (Units=GPa)
#
#
# Indices 1 2 3 4 5 6 
#
# 1 85.2094 22.1349 34.4363 0.0022 16.0498 0.0008
# 2 22.1349 49.0357 32.6395 -0.0052 5.2304 -0.0005
# 3 34.4363 32.6395 126.4067 -0.0120 6.6140 -0.0025
# 4 0.0022 -0.0052 -0.0120 19.7888 -0.0025 0.4176
# 5 16.0498 5.2304 6.6140 -0.0025 39.2317 0.0015
# 6 0.0008 -0.0005 -0.0025 0.4176 0.0015 13.0835
#
#
#
# Elastic Compliance Matrix: (Units=1/GPa)
#
#
# Indices 1 2 3 4 5 6 
#
# 1 0.014912 -0.004424 -0.002655 -0.000005 -0.005063 -0.000001
# 2 -0.004424 0.026133 -0.005504 0.000004 -0.000746 0.000000
# 3 -0.002655 -0.005504 0.010049 0.000005 0.000126 0.000002
# 4 -0.000005 0.000004 0.000005 0.050568 0.000004 -0.001614
# 5 -0.005063 -0.000746 0.000126 0.000004 0.027639 -0.000003
# 6 -0.000001 0.000000 0.000002 -0.001614 -0.000003 0.076484
#
#
# Mechanical properties :
#
#
# Convention : Reuss Voigt Hill
#
# Bulk Modulus (GPa) = 38.56758 48.78594 43.67676
# Shear Modulus (GPa) = 20.86879 25.85021 23.35950
#
# Velocity S-wave (km/s) = 3.49723 3.89231 3.70005
# Velocity P-wave (km/s) = 6.23786 6.98514 6.62205
#
# Compressibility (1/GPa) = 0.02592851
#
# Stress axis : x y z
#
# Youngs Moduli (GPa) = 67.06165 38.26547 99.51424
#
# Poissons Ratio (x) = 0.16928 0.26422
# Poissons Ratio (y) = 0.29667 0.54769
# Poissons Ratio (z) = 0.17806 0.21060
#
# Static dielectric constant tensor:
#      x y z
#    x 1.635780 0.000000 0.031650 
#    y 0.000000 1.542850 0.000000 
#    z 0.031650 0.000000 1.647170 
# 
# From -- ./inp_files/206973.got.cif
#   From: 2010.05.17/outbox.cif.g08.bks.cpg/sg15_104_cif.got.tgz:206973.got - 2010.06.03 18:47:42.
