data_PCOD9261799
_publ_section_title
;
Structure prediction by ZEFSAII (Michael W. Deem and Ramdas Pophale) SiO2 
 PCOD9261799
Probable space group: C 2/C
;
_chemical_formula_sum "Si O2"
_cell_formula_units_Z 48
_cell_length_a 16.725449
_cell_length_b 6.913092
_cell_length_c 19.766253
_cell_angle_alpha 90.000000
_cell_angle_beta 134.655379
_cell_angle_gamma 90.000000
_cell_volume 1625.758401
_symmetry_space_group_name_H-M "C 2/C"
_symmetry_group_IT_number 15
_symmetry_cell_setting 'monoclinic'
loop_
_space_group_symop_operation_xyz
x,y,z
-x,y,1/2-z
-x,-y,-z
x,-y,1/2+z
1/2+x,1/2+y,z
1/2-x,1/2+y,1/2-z
1/2-x,1/2-y,-z
1/2+x,1/2-y,1/2+z
loop_
_atom_site_type_symbol
_atom_site_label
_atom_site_fract_x
_atom_site_fract_y
_atom_site_fract_z
Si Si1 0.556814 0.739261 0.979203
Si Si2 0.617252 0.322253 0.227916
Si Si3 0.797994 0.307961 0.600576
Si Si4 0.051247 0.299536 0.451740
Si Si5 0.378389 0.227937 0.646388
Si Si6 0.816479 0.625204 0.745905
O O1 0.501226 0.652784 0.878522
O O2 0.573200 0.971894 0.979469
O O3 0.678961 0.656394 0.068082
O O4 0.465772 0.710475 0.984391
O O5 0.638123 0.359657 0.319611
O O6 0.715049 0.396099 0.237364
O O7 0.638527 0.090425 0.241159
O O8 0.750000 0.250000 0.500000
O O9 0.874379 0.493724 0.634851
O O10 0.129330 0.214941 0.437708
O O11 0.924746 0.281870 0.346304
O O12 0.500000 0.276799 0.750000
O O13 0.295580 0.239610 0.662728
#
# Coordination Sequence:
#
# PCOD9261799 Si02
#       6
#     8   8   8   8   8   8
#     4  10  19  31  54  79 108 141 181 229 279 331
#     4  10  21  35  53  82 110 144 185 227 280 333
#     4  11  20  30  52  81 111 137 178 237 283 318
#     4   9  16  32  53  80 103 141 188 226 266 334
#     4   9  18  32  54  83 108 141 190 235 267 326
#     4   9  18  34  56  80 110 143 183 230 274 328
#
# _framework density 29.524683
#
# number of rings (size 3 to 8) (size 9 to 14) (size 15 to 20)
#    0.000    2.333    3.333    1.000    0.000    0.000 
#    0.000    4.167    0.000    0.000    8.667    0.000 
#    0.000    0.000    0.000    0.000    0.000    0.000 
#
# Total GULP energy -134347.189069 kJ/mol
# GULP energy per Si atom -5597.799545 kJ/mol
# Density = 2.945748 g / cm^3
# Si number density = 29.524683 Si / 1000 Ang^3
#
#
#
# Elastic Constant Matrix: (Units=GPa)
#
#
# Indices 1 2 3 4 5 6 
#
# 1 177.1376 13.2916 48.5280 0.0000 -16.5653 0.0000
# 2 13.2916 115.3537 7.7059 0.0000 3.6196 0.0000
# 3 48.5280 7.7059 155.6434 0.0000 -6.5074 0.0000
# 4 0.0000 0.0000 0.0000 15.2302 0.0000 14.2796
# 5 -16.5653 3.6196 -6.5074 0.0000 73.4375 0.0000
# 6 0.0000 0.0000 0.0000 14.2796 0.0000 38.8675
#
#
#
# Elastic Compliance Matrix: (Units=1/GPa)
#
#
# Indices 1 2 3 4 5 6 
#
# 1 0.006332 -0.000644 -0.001888 0.000000 0.001293 0.000000
# 2 -0.000644 0.008779 -0.000259 0.000000 -0.000601 0.000000
# 3 -0.001888 -0.000259 0.007035 0.000000 0.000210 0.000000
# 4 0.000000 0.000000 0.000000 0.100161 0.000000 -0.036798
# 5 0.001293 -0.000601 0.000210 0.000000 0.013957 0.000000
# 6 0.000000 0.000000 0.000000 -0.036798 0.000000 0.039248
#
#
# Mechanical properties :
#
#
# Convention : Reuss Voigt Hill
#
# Bulk Modulus (GPa) = 60.37208 65.24286 62.80747
# Shear Modulus (GPa) = 26.79296 50.74766 38.77031
#
# Velocity S-wave (km/s) = 3.01570 4.15036 3.62767
# Velocity P-wave (km/s) = 5.71125 6.71663 6.23424
#
# Compressibility (1/GPa) = 0.01656395
#
# Stress axis : x y z
#
# Youngs Moduli (GPa) = 157.93190 113.90361 142.14039
#
# Poissons Ratio (x) = 0.07335 0.26840
# Poissons Ratio (y) = 0.10171 0.03681
# Poissons Ratio (z) = 0.29822 0.02950
#
# Static dielectric constant tensor:
#      x y z
#    x 2.386060 0.000000 -0.209740 
#    y 0.000000 2.348940 0.000000 
#    z -0.209740 0.000000 2.425440 
# 
# From -- ./inp_files/243471.got.cif
#   From: 2010.05.17/outbox.cif.g08.bks.cpg/sg15_122_cif.got.tgz:243471.got - 2010.06.03 18:47:42.
