data_PCOD9261314
_publ_section_title
;
Structure prediction by ZEFSAII (Michael W. Deem and Ramdas Pophale) SiO2 
 PCOD9261314
Probable space group: C 2/C
;
_chemical_formula_sum "Si O2"
_cell_formula_units_Z 48
_cell_length_a 7.595422
_cell_length_b 31.919866
_cell_length_c 17.662475
_cell_angle_alpha 90.000000
_cell_angle_beta 144.749449
_cell_angle_gamma 90.000000
_cell_volume 2471.470995
_symmetry_space_group_name_H-M "C 2/C"
_symmetry_group_IT_number 15
_symmetry_cell_setting 'monoclinic'
loop_
_space_group_symop_operation_xyz
x,y,z
-x,y,1/2-z
-x,-y,-z
x,-y,1/2+z
1/2+x,1/2+y,z
1/2-x,1/2+y,1/2-z
1/2-x,1/2-y,-z
1/2+x,1/2-y,1/2+z
loop_
_atom_site_type_symbol
_atom_site_label
_atom_site_fract_x
_atom_site_fract_y
_atom_site_fract_z
Si Si1 0.735099 0.810147 0.495995
Si Si2 0.867861 0.244325 0.279764
Si Si3 0.706708 0.539744 0.591401
Si Si4 0.344925 0.697656 0.613441
Si Si5 0.938082 0.109067 0.604301
Si Si6 0.508029 0.099161 0.918181
O O1 0.572416 0.785857 0.369971
O O2 0.503331 0.798767 0.484067
O O3 0.720328 0.859824 0.485939
O O4 0.054616 0.788464 0.626975
O O5 0.524732 0.260741 0.154271
O O6 0.000000 0.226042 0.250000
O O7 0.500000 0.500000 0.500000
O O8 0.511192 0.576916 0.563148
O O9 0.000000 0.531228 0.750000
O O10 0.826996 0.558287 0.554349
O O11 0.500000 0.685678 0.750000
O O12 0.395667 0.658806 0.574708
O O13 0.647460 0.096680 0.554133
O O14 0.233867 0.106214 0.762270
#
# Coordination Sequence:
#
# PCOD9261314 Si02
#       6
#     8   8   8   8   8   8
#     4   9  18  32  47  72 105 138 174 229 264 307
#     4  10  19  27  48  74 104 134 175 221 272 307
#     4  10  22  35  59  86 110 135 178 229 281 338
#     4   9  15  30  50  72 104 128 181 226 252 304
#     4   9  15  30  55  82  99 133 179 223 267 312
#     4   9  16  32  56  76 103 139 178 222 263 323
#
# _framework density 19.421631000000001
#
# number of rings (size 3 to 8) (size 9 to 14) (size 15 to 20)
#    0.000    2.667    5.000    0.000    2.333    1.333 
#    0.000    0.000    7.333    0.000    0.000    0.000 
#    0.000    0.000    0.000    0.000    0.000    0.000 
#
# Total GULP energy -133656.375687 kJ/mol
# GULP energy per Si atom -5569.015654 kJ/mol
# Density = 1.937743 g / cm^3
# Si number density = 19.421631 Si / 1000 Ang^3
#
#
#
# Elastic Constant Matrix: (Units=GPa)
#
#
# Indices 1 2 3 4 5 6 
#
# 1 36.3145 22.1139 15.3106 0.0000 4.8769 0.0000
# 2 22.1139 77.2189 37.9021 0.0000 16.4819 0.0000
# 3 15.3106 37.9021 56.7231 0.0000 6.8788 0.0000
# 4 0.0000 0.0000 0.0000 23.9146 0.0000 5.2397
# 5 4.8769 16.4819 6.8788 0.0000 14.0141 0.0000
# 6 0.0000 0.0000 0.0000 5.2397 0.0000 29.0816
#
#
#
# Elastic Compliance Matrix: (Units=1/GPa)
#
#
# Indices 1 2 3 4 5 6 
#
# 1 0.033953 -0.007553 -0.004000 0.000000 -0.000969 0.000000
# 2 -0.007553 0.025967 -0.012682 0.000000 -0.021686 0.000000
# 3 -0.004000 -0.012682 0.026801 0.000000 0.003152 0.000000
# 4 0.000000 0.000000 0.000000 0.043534 0.000000 -0.007844
# 5 -0.000969 -0.021686 0.003152 0.000000 0.095652 0.000000
# 6 0.000000 0.000000 0.000000 -0.007844 0.000000 0.035799
#
#
# Mechanical properties :
#
#
# Convention : Reuss Voigt Hill
#
# Bulk Modulus (GPa) = 26.14374 35.65664 30.90019
# Shear Modulus (GPa) = 15.48329 19.73072 17.60700
#
# Velocity S-wave (km/s) = 2.82657 3.19080 3.01419
# Velocity P-wave (km/s) = 4.91356 5.65456 5.29703
#
# Compressibility (1/GPa) = 0.03825007
#
# Stress axis : x y z
#
# Youngs Moduli (GPa) = 29.45211 38.51009 37.31165
#
# Poissons Ratio (x) = 0.29088 0.14925
# Poissons Ratio (y) = 0.22246 0.47320
# Poissons Ratio (z) = 0.11781 0.48840
#
# Static dielectric constant tensor:
#      x y z
#    x 1.750980 0.000000 0.012950 
#    y 0.000000 1.691070 0.000000 
#    z 0.012950 0.000000 1.725500 
# 
# From -- ./inp_files/234812.got.cif
#   From: 2010.05.17/outbox.cif.g08.bks.cpg/sg15_118_cif.got.tgz:234812.got - 2010.06.03 18:47:42.
