data_PCOD9261239
_publ_section_title
;
Structure prediction by ZEFSAII (Michael W. Deem and Ramdas Pophale) SiO2 
 PCOD9261239
Probable space group: C 2/C
;
_chemical_formula_sum "Si O2"
_cell_formula_units_Z 60
_cell_length_a 19.463566
_cell_length_b 12.483565
_cell_length_c 29.201786
_cell_angle_alpha 90.000000
_cell_angle_beta 156.025766
_cell_angle_gamma 90.000000
_cell_volume 2883.001244
_symmetry_space_group_name_H-M "C 2/C"
_symmetry_group_IT_number 15
_symmetry_cell_setting 'monoclinic'
loop_
_space_group_symop_operation_xyz
x,y,z
-x,y,1/2-z
-x,-y,-z
x,-y,1/2+z
1/2+x,1/2+y,z
1/2-x,1/2+y,1/2-z
1/2-x,1/2-y,-z
1/2+x,1/2-y,1/2+z
loop_
_atom_site_type_symbol
_atom_site_label
_atom_site_fract_x
_atom_site_fract_y
_atom_site_fract_z
Si Si1 0.764325 0.967812 0.478257
Si Si2 0.000000 0.427647 0.750000
Si Si3 0.154649 0.570160 0.168876
Si Si4 0.396818 0.680529 0.981639
Si Si5 0.225113 0.191001 0.685543
Si Si6 0.933495 0.897795 0.327425
Si Si7 0.788400 0.322170 0.699440
Si Si8 0.930273 0.384378 0.055327
O O1 0.608778 0.005691 0.352612
O O2 0.876210 0.066255 0.564776
O O3 0.879479 0.896918 0.514457
O O4 0.696137 0.904735 0.480270
O O5 0.869789 0.360284 0.701845
O O6 0.170386 0.684692 0.154119
O O7 0.306033 0.496347 0.242409
O O8 0.170489 0.598743 0.232774
O O9 0.989878 0.494236 0.067195
O O10 0.585650 0.682013 0.076273
O O11 0.358528 0.799103 0.976321
O O12 0.272854 0.650107 0.864843
O O13 0.086453 0.129076 0.630942
O O14 0.399615 0.169026 0.818811
O O15 0.867569 0.793046 0.261084
#
# Coordination Sequence:
#
# PCOD9261239 Si02
#       8
#     8   4   8   8   8   8   8   8
#     4  12  24  38  64  93 126 167 204 256 322 367
#     4  12  26  38  60  98 128 156 212 266 302 378
#     4  10  18  42  65  83 125 168 202 252 315 370
#     4  12  23  39  67  93 121 166 214 255 310 375
#     4  10  22  38  64  93 121 164 212 260 306 371
#     4  10  21  41  64  86 121 172 204 252 320 366
#     4  11  22  42  62  90 125 159 211 264 301 370
#     4  11  22  42  60  93 133 161 206 262 308 368
#
# _framework density 20.811647000000001
#
# number of rings (size 3 to 8) (size 9 to 14) (size 15 to 20)
#    0.000    1.067    6.667    2.000    1.867    2.133 
#    2.400    0.000    0.000    0.000    0.000    0.000 
#    0.000    0.000    0.000    0.000    0.000    0.000 
#
# Total GULP energy -167614.608010 kJ/mol
# GULP energy per Si atom -5587.153600 kJ/mol
# Density = 2.076428 g / cm^3
# Si number density = 20.811647 Si / 1000 Ang^3
#
#
#
# Elastic Constant Matrix: (Units=GPa)
#
#
# Indices 1 2 3 4 5 6 
#
# 1 95.6903 5.7751 17.4370 -0.0039 13.7843 0.0034
# 2 5.7751 70.8961 -1.2275 -0.0049 19.9355 0.0008
# 3 17.4370 -1.2275 33.9266 -0.0225 13.7246 0.0057
# 4 -0.0039 -0.0049 -0.0225 12.1705 0.0049 7.8501
# 5 13.7843 19.9355 13.7246 0.0049 17.5062 0.0021
# 6 0.0034 0.0008 0.0057 7.8501 0.0021 23.0417
#
#
#
# Elastic Compliance Matrix: (Units=1/GPa)
#
#
# Indices 1 2 3 4 5 6 
#
# 1 0.012163 0.001726 -0.002225 0.000006 -0.009798 -0.000002
# 2 0.001726 0.028078 0.019936 0.000089 -0.048963 -0.000032
# 3 -0.002225 0.019936 0.058309 0.000190 -0.066664 -0.000073
# 4 0.000006 0.000089 0.000190 0.105308 -0.000280 -0.035877
# 5 -0.009798 -0.048963 -0.066664 -0.000280 0.172858 0.000099
# 6 -0.000002 -0.000032 -0.000073 -0.035877 0.000099 0.055623
#
#
# Mechanical properties :
#
#
# Convention : Reuss Voigt Hill
#
# Bulk Modulus (GPa) = 7.27683 27.16468 17.22075
# Shear Modulus (GPa) = 11.38246 22.44556 16.91401
#
# Velocity S-wave (km/s) = 2.34118 3.28763 2.85391
# Velocity P-wave (km/s) = 3.28821 5.24331 4.37634
#
# Compressibility (1/GPa) = 0.13742254
#
# Stress axis : x y z
#
# Youngs Moduli (GPa) = 82.21579 35.61537 17.15013
#
# Poissons Ratio (x) = -0.06146 0.03817
# Poissons Ratio (y) = -0.14188 -0.34191
# Poissons Ratio (z) = 0.18297 -0.71004
#
# Static dielectric constant tensor:
#      x y z
#    x 1.724480 0.000000 0.010200 
#    y 0.000000 1.769490 0.000000 
#    z 0.010200 0.000000 1.743750 
# 
# From -- ./inp_files/298974.got.cif
#   From: 2010.05.17/outbox.cif.g08.bks.cpg/sg15_150_cif.got.tgz:298974.got - 2010.06.03 18:47:42.
