data_PCOD9261260
_publ_section_title
;
Structure prediction by ZEFSAII (Michael W. Deem and Ramdas Pophale) SiO2 
 PCOD9261260
Probable space group: C 2/C
;
_chemical_formula_sum "Si O2"
_cell_formula_units_Z 44
_cell_length_a 19.108981
_cell_length_b 12.221088
_cell_length_c 14.986424
_cell_angle_alpha 90.000000
_cell_angle_beta 140.266405
_cell_angle_gamma 90.000000
_cell_volume 2237.149371
_symmetry_space_group_name_H-M "C 2/C"
_symmetry_group_IT_number 15
_symmetry_cell_setting 'monoclinic'
loop_
_space_group_symop_operation_xyz
x,y,z
-x,y,1/2-z
-x,-y,-z
x,-y,1/2+z
1/2+x,1/2+y,z
1/2-x,1/2+y,1/2-z
1/2-x,1/2-y,-z
1/2+x,1/2-y,1/2+z
loop_
_atom_site_type_symbol
_atom_site_label
_atom_site_fract_x
_atom_site_fract_y
_atom_site_fract_z
Si Si1 0.491287 0.871472 0.979829
Si Si2 0.830653 0.621567 0.157172
Si Si3 0.402677 0.800160 0.082055
Si Si4 0.797824 0.072524 0.036026
Si Si5 0.000000 0.082553 0.750000
Si Si6 0.379719 0.765191 0.528377
O O1 0.413890 0.860964 0.817980
O O2 0.599908 0.814916 0.048393
O O3 0.449657 0.818455 0.029784
O O4 0.500000 0.000000 0.000000
O O5 0.880838 0.644190 0.108282
O O6 0.771529 0.504055 0.099020
O O7 0.738481 0.711899 0.081395
O O8 0.500000 0.822133 0.250000
O O9 0.359204 0.676758 0.054329
O O10 0.296553 0.878005 0.992658
O O11 0.894279 0.993059 0.168088
O O12 0.962308 0.165943 0.635128
#
# Coordination Sequence:
#
# PCOD9261260 Si02
#       6
#     8   8   8   8   4   8
#     4  12  24  39  63  96 129 168 210 263 317 382
#     4  10  21  40  64  97 123 167 208 269 319 376
#     4  11  24  43  64  91 133 173 213 263 318 387
#     4  10  22  41  66  91 124 176 212 260 322 381
#     4  10  18  42  70  90 124 168 216 262 320 376
#     4  10  21  40  68  92 129 162 215 265 319 380
#
# _framework density 19.667885999999999
#
# number of rings (size 3 to 8) (size 9 to 14) (size 15 to 20)
#    0.000    1.455    2.727    2.182    0.000    4.364 
#    3.273    1.818    0.000    0.000    0.000    0.000 
#    0.000    0.000    0.000    0.000    0.000    0.000 
#
# Total GULP energy -122712.428708 kJ/mol
# GULP energy per Si atom -5577.837669 kJ/mol
# Density = 1.962312 g / cm^3
# Si number density = 19.667886 Si / 1000 Ang^3
#
#
#
# Elastic Constant Matrix: (Units=GPa)
#
#
# Indices 1 2 3 4 5 6 
#
# 1 163.9469 54.7166 30.0481 0.0000 -16.5050 0.0000
# 2 54.7166 98.0033 17.7654 0.0000 1.4562 0.0000
# 3 30.0481 17.7654 38.2118 0.0000 -1.9741 0.0000
# 4 0.0000 0.0000 0.0000 18.4998 0.0000 9.8924
# 5 -16.5050 1.4562 -1.9741 0.0000 30.3259 0.0000
# 6 0.0000 0.0000 0.0000 9.8924 0.0000 28.7540
#
#
#
# Elastic Compliance Matrix: (Units=1/GPa)
#
#
# Indices 1 2 3 4 5 6 
#
# 1 0.008826 -0.004132 -0.004777 0.000000 0.004691 0.000000
# 2 -0.004132 0.013100 -0.003000 0.000000 -0.003073 0.000000
# 3 -0.004777 -0.003000 0.031300 0.000000 -0.000419 0.000000
# 4 0.000000 0.000000 0.000000 0.066241 0.000000 -0.022789
# 5 0.004691 -0.003073 -0.000419 0.000000 0.035649 0.000000
# 6 0.000000 0.000000 0.000000 -0.022789 0.000000 0.042618
#
#
# Mechanical properties :
#
#
# Convention : Reuss Voigt Hill
#
# Bulk Modulus (GPa) = 34.00474 56.13581 45.07027
# Shear Modulus (GPa) = 21.61183 28.69138 25.15161
#
# Velocity S-wave (km/s) = 3.31847 3.82356 3.57993
# Velocity P-wave (km/s) = 5.65774 6.93517 6.32877
#
# Compressibility (1/GPa) = 0.02940767
#
# Stress axis : x y z
#
# Youngs Moduli (GPa) = 113.29791 76.33609 31.94887
#
# Poissons Ratio (x) = 0.31538 0.15263
# Poissons Ratio (y) = 0.46809 0.09586
# Poissons Ratio (z) = 0.54127 0.22903
#
# Static dielectric constant tensor:
#      x y z
#    x 1.957300 0.000000 0.003740 
#    y 0.000000 1.715650 0.000000 
#    z 0.003740 0.000000 1.713010 
# 
# From -- ./inp_files/161125.got.cif
#   From: 2010.05.17/outbox.cif.g08.bks.cpg/sg15_81_cif.got.tgz:161125.got - 2010.06.03 18:47:42.
