data_PCOD9261344
_publ_section_title
;
Structure prediction by ZEFSAII (Michael W. Deem and Ramdas Pophale) SiO2 
 PCOD9261344
Probable space group: C 2/C
;
_chemical_formula_sum "Si O2"
_cell_formula_units_Z 60
_cell_length_a 14.778826
_cell_length_b 21.300167
_cell_length_c 20.912613
_cell_angle_alpha 90.000000
_cell_angle_beta 150.372439
_cell_angle_gamma 90.000000
_cell_volume 3254.427670
_symmetry_space_group_name_H-M "C 2/C"
_symmetry_group_IT_number 15
_symmetry_cell_setting 'monoclinic'
loop_
_space_group_symop_operation_xyz
x,y,z
-x,y,1/2-z
-x,-y,-z
x,-y,1/2+z
1/2+x,1/2+y,z
1/2-x,1/2+y,1/2-z
1/2-x,1/2-y,-z
1/2+x,1/2-y,1/2+z
loop_
_atom_site_type_symbol
_atom_site_label
_atom_site_fract_x
_atom_site_fract_y
_atom_site_fract_z
Si Si1 0.500000 0.690075 0.750000
Si Si2 0.886762 0.047693 0.520765
Si Si3 0.936342 0.885869 0.922811
Si Si4 0.091164 0.689212 0.239393
Si Si5 0.775489 0.018171 0.222575
Si Si6 0.309743 0.919640 0.098756
Si Si7 0.604137 0.032986 0.985480
Si Si8 0.185806 0.387979 0.002464
O O1 0.459281 0.737580 0.783910
O O2 0.675047 0.647086 0.866513
O O3 0.973497 0.074493 0.509984
O O4 0.787521 0.102301 0.497568
O O5 0.748583 0.991259 0.418004
O O6 0.033606 0.018720 0.660139
O O7 0.804270 0.828467 0.861895
O O8 0.815003 0.930334 0.801493
O O9 0.133752 0.877861 0.010379
O O10 0.000000 0.663818 0.250000
O O11 0.986026 0.655774 0.117166
O O12 0.712570 0.048377 0.117002
O O13 0.614597 0.968928 0.140169
O O14 0.500000 0.903004 0.250000
O O15 0.338576 0.926267 0.040201
O O16 0.641992 0.958666 0.996630
#
# Coordination Sequence:
#
# PCOD9261344 Si02
#       8
#     4   8   8   8   8   8   8   8
#     4  10  22  34  52  78 102 134 174 224 280 320
#     4  10  19  28  49  71 101 141 177 202 252 311
#     4  11  19  32  48  70  98 144 180 211 252 313
#     4  10  21  34  52  71 103 136 178 216 266 310
#     4  10  19  31  45  73 106 143 175 210 250 314
#     4  10  20  30  49  73 105 141 177 210 243 304
#     4  10  20  31  49  73 111 143 173 208 257 312
#     4  11  19  34  53  73 107 139 168 216 270 316
#
# _framework density 18.436420999999999
#
# number of rings (size 3 to 8) (size 9 to 14) (size 15 to 20)
#    0.400    1.333    2.667    4.400    1.867    4.267 
#    0.000    0.000    0.000    0.000    0.000    0.000 
#    0.000   26.667    2.400    0.800    3.733    0.000 
#
# Total GULP energy -167085.664094 kJ/mol
# GULP energy per Si atom -5569.522136 kJ/mol
# Density = 1.839446 g / cm^3
# Si number density = 18.436421 Si / 1000 Ang^3
#
#
#
# Elastic Constant Matrix: (Units=GPa)
#
#
# Indices 1 2 3 4 5 6 
#
# 1 67.8940 -9.7606 10.5120 -0.0006 3.9053 -0.0001
# 2 -9.7606 23.4823 5.1997 0.0032 6.8174 0.0001
# 3 10.5120 5.1997 96.8708 0.0034 11.5505 0.0007
# 4 -0.0006 0.0032 0.0034 5.7698 0.0014 -1.5557
# 5 3.9053 6.8174 11.5505 0.0014 29.6682 0.0005
# 6 -0.0001 0.0001 0.0007 -1.5557 0.0005 7.8225
#
#
#
# Elastic Compliance Matrix: (Units=1/GPa)
#
#
# Indices 1 2 3 4 5 6 
#
# 1 0.016377 0.008176 -0.001819 -0.000001 -0.003326 0.000000
# 2 0.008176 0.049857 -0.002170 -0.000024 -0.011688 -0.000005
# 3 -0.001819 -0.002170 0.011062 -0.000005 -0.003569 -0.000002
# 4 -0.000001 -0.000024 -0.000005 0.183137 -0.000001 0.036421
# 5 -0.003326 -0.011688 -0.003569 -0.000001 0.038219 -0.000002
# 6 0.000000 -0.000005 -0.000002 0.036421 -0.000002 0.135080
#
#
# Mechanical properties :
#
#
# Convention : Reuss Voigt Hill
#
# Bulk Modulus (GPa) = 11.67267 22.23883 16.95575
# Shear Modulus (GPa) = 11.01524 20.80515 15.91020
#
# Velocity S-wave (km/s) = 2.44698 3.36293 2.94083
# Velocity P-wave (km/s) = 3.78532 5.21227 4.55502
#
# Compressibility (1/GPa) = 0.08567021
#
# Stress axis : x y z
#
# Youngs Moduli (GPa) = 61.06037 20.05726 90.39574
#
# Poissons Ratio (x) = -0.16398 0.16447
# Poissons Ratio (y) = -0.49922 0.19614
# Poissons Ratio (z) = 0.11110 0.04352
#
# Static dielectric constant tensor:
#      x y z
#    x 1.704680 0.000000 0.011120 
#    y 0.000000 1.615210 0.000000 
#    z 0.011120 0.000000 1.655300 
# 
# From -- ./inp_files/245600.got.cif
#   From: 2010.05.17/outbox.cif.g08.bks.cpg/sg15_123_cif.got.tgz:245600.got - 2010.06.03 18:47:42.
