data_PCOD9261641
_publ_section_title
;
Structure prediction by ZEFSAII (Michael W. Deem and Ramdas Pophale) SiO2 
 PCOD9261641
Probable space group: C 2/C
;
_chemical_formula_sum "Si O2"
_cell_formula_units_Z 48
_cell_length_a 23.715159
_cell_length_b 10.551791
_cell_length_c 19.065570
_cell_angle_alpha 90.000000
_cell_angle_beta 156.571366
_cell_angle_gamma 90.000000
_cell_volume 1896.948263
_symmetry_space_group_name_H-M "C 2/C"
_symmetry_group_IT_number 15
_symmetry_cell_setting 'monoclinic'
loop_
_space_group_symop_operation_xyz
x,y,z
-x,y,1/2-z
-x,-y,-z
x,-y,1/2+z
1/2+x,1/2+y,z
1/2-x,1/2+y,1/2-z
1/2-x,1/2-y,-z
1/2+x,1/2-y,1/2+z
loop_
_atom_site_type_symbol
_atom_site_label
_atom_site_fract_x
_atom_site_fract_y
_atom_site_fract_z
Si Si1 0.466333 0.601792 0.134129
Si Si2 0.657585 0.102074 0.436744
Si Si3 0.423347 0.124804 0.559455
Si Si4 0.305434 0.387198 0.810396
Si Si5 0.106158 0.900166 0.188677
Si Si6 0.316648 0.028068 0.189069
O O1 0.500000 0.555091 0.250000
O O2 0.505894 0.748384 0.173221
O O3 0.543325 0.513302 0.166027
O O4 0.298657 0.582779 0.936337
O O5 0.500000 0.162248 0.250000
O O6 0.631972 0.959268 0.438557
O O7 0.769458 0.155307 0.620711
O O8 0.710122 0.091705 0.417368
O O9 0.294055 0.167383 0.362978
O O10 0.526349 0.028867 0.635601
O O11 0.332660 0.529834 0.810156
O O12 0.217787 0.389741 0.782039
O O13 0.461430 0.328230 0.001969
#
# Coordination Sequence:
#
# PCOD9261641 Si02
#       6
#     8   8   8   8   8   8
#     4  11  20  29  50  76 105 139 163 201 249 304
#     4   9  17  30  46  74  99 127 161 209 245 294
#     4  10  21  30  45  71 108 137 169 201 243 304
#     4   9  19  33  46  63  98 148 170 203 236 292
#     4   9  18  33  49  68 103 135 174 201 243 299
#     4  10  19  31  48  69 100 139 172 202 244 297
#
# _framework density 25.303799000000001
#
# number of rings (size 3 to 8) (size 9 to 14) (size 15 to 20)
#    0.000    2.333    1.667    2.000    4.667    1.333 
#    0.000    0.000    0.000    0.000    0.000    0.000 
#    0.000   48.000    0.667    0.167    0.000    0.000 
#
# Total GULP energy -134130.762021 kJ/mol
# GULP energy per Si atom -5588.781751 kJ/mol
# Density = 2.524621 g / cm^3
# Si number density = 25.303799 Si / 1000 Ang^3
#
#
#
# Elastic Constant Matrix: (Units=GPa)
#
#
# Indices 1 2 3 4 5 6 
#
# 1 156.2225 29.5021 34.9401 0.0000 -20.7650 0.0000
# 2 29.5021 58.9156 11.7274 0.0000 -2.5766 0.0000
# 3 34.9401 11.7274 181.0674 0.0000 -22.4560 0.0000
# 4 0.0000 0.0000 0.0000 7.6872 0.0000 -4.4305
# 5 -20.7650 -2.5766 -22.4560 0.0000 39.9700 0.0000
# 6 0.0000 0.0000 0.0000 -4.4305 0.0000 9.9559
#
#
#
# Elastic Compliance Matrix: (Units=1/GPa)
#
#
# Indices 1 2 3 4 5 6 
#
# 1 0.007697 -0.003542 -0.000847 0.000000 0.003295 0.000000
# 2 -0.003542 0.018835 -0.000660 0.000000 -0.000997 0.000000
# 3 -0.000847 -0.000660 0.006094 0.000000 0.002941 0.000000
# 4 0.000000 0.000000 0.000000 0.174961 0.000000 0.077860
# 5 0.003295 -0.000997 0.002941 0.000000 0.028318 0.000000
# 6 0.000000 0.000000 0.000000 0.077860 0.000000 0.135092
#
#
# Mechanical properties :
#
#
# Convention : Reuss Voigt Hill
#
# Bulk Modulus (GPa) = 44.38992 60.94940 52.66966
# Shear Modulus (GPa) = 12.86654 32.85834 22.86244
#
# Velocity S-wave (km/s) = 2.25740 3.60745 3.00912
# Velocity P-wave (km/s) = 4.93714 6.44135 5.73874
#
# Compressibility (1/GPa) = 0.02252764
#
# Stress axis : x y z
#
# Youngs Moduli (GPa) = 129.91413 53.09335 164.10126
#
# Poissons Ratio (x) = 0.18804 0.13905
# Poissons Ratio (y) = 0.46012 0.10832
# Poissons Ratio (z) = 0.11008 0.03505
#
# Static dielectric constant tensor:
#      x y z
#    x 1.936770 0.000000 0.009560 
#    y 0.000000 1.975850 0.000000 
#    z 0.009560 0.000000 2.060220 
# 
# From -- ./inp_files/215477.got.cif
#   From: 2010.05.17/outbox.cif.g08.bks.cpg/sg15_108_cif.got.tgz:215477.got - 2010.06.03 18:47:42.
