data_PCOD9261995
_publ_section_title
;
Structure prediction by ZEFSAII (Michael W. Deem and Ramdas Pophale) SiO2 
 PCOD9261995
Probable space group: C 2/C
;
_chemical_formula_sum "Si O2"
_cell_formula_units_Z 48
_cell_length_a 14.633635
_cell_length_b 23.058527
_cell_length_c 14.428709
_cell_angle_alpha 90.000000
_cell_angle_beta 149.991195
_cell_angle_gamma 90.000000
_cell_volume 2434.988060
_symmetry_space_group_name_H-M "C 2/C"
_symmetry_group_IT_number 15
_symmetry_cell_setting 'monoclinic'
loop_
_space_group_symop_operation_xyz
x,y,z
-x,y,1/2-z
-x,-y,-z
x,-y,1/2+z
1/2+x,1/2+y,z
1/2-x,1/2+y,1/2-z
1/2-x,1/2-y,-z
1/2+x,1/2-y,1/2+z
loop_
_atom_site_type_symbol
_atom_site_label
_atom_site_fract_x
_atom_site_fract_y
_atom_site_fract_z
Si Si1 0.814319 0.573006 0.961516
Si Si2 0.700276 0.539816 0.253767
Si Si3 0.461707 0.125762 0.922665
Si Si4 0.283745 0.035648 0.118549
Si Si5 0.677571 0.590191 0.513178
Si Si6 0.328308 0.810935 0.034020
O O1 0.717129 0.523464 0.815037
O O2 0.864395 0.626216 0.937659
O O3 0.722889 0.578908 0.982701
O O4 0.012010 0.548793 0.167657
O O5 0.678019 0.536005 0.123027
O O6 0.890597 0.573303 0.442705
O O7 0.528173 0.575485 0.139629
O O8 0.301455 0.111274 0.708770
O O9 0.585873 0.179047 0.992847
O O10 0.262777 0.971381 0.058346
O O11 0.695646 0.637767 0.449270
O O12 0.500000 0.821273 0.250000
O O13 0.250000 0.750000 0.000000
#
# Coordination Sequence:
#
# PCOD9261995 Si02
#       6
#     8   8   8   8   8   8
#     4  10  19  32  53  76 113 151 184 213 270 330
#     4  11  20  33  54  75 117 148 182 217 266 339
#     4  10  20  37  51  74 109 143 176 233 271 320
#     4  10  19  32  51  81 113 149 183 213 262 340
#     4  11  21  34  53  79 109 145 187 222 271 327
#     4  10  24  39  58  79 108 142 190 240 282 328
#
# _framework density 19.712623000000001
#
# number of rings (size 3 to 8) (size 9 to 14) (size 15 to 20)
#    0.000    1.667    3.333    2.500    7.000    2.000 
#    0.000    0.000    0.000    0.000    0.000    1.167 
#    5.000    0.167    0.000    0.000    0.000    0.000 
#
# Total GULP energy -133751.787248 kJ/mol
# GULP energy per Si atom -5572.991135 kJ/mol
# Density = 1.966776 g / cm^3
# Si number density = 19.712623 Si / 1000 Ang^3
#
#
#
# Elastic Constant Matrix: (Units=GPa)
#
#
# Indices 1 2 3 4 5 6 
#
# 1 147.8231 42.4605 37.5481 0.0000 -27.6628 0.0000
# 2 42.4605 59.6896 8.3397 0.0000 -7.4281 0.0000
# 3 37.5481 8.3397 90.7276 0.0000 1.3454 0.0000
# 4 0.0000 0.0000 0.0000 18.1971 0.0000 9.3562
# 5 -27.6628 -7.4281 1.3454 0.0000 26.8164 0.0000
# 6 0.0000 0.0000 0.0000 9.3562 0.0000 30.5826
#
#
#
# Elastic Compliance Matrix: (Units=1/GPa)
#
#
# Indices 1 2 3 4 5 6 
#
# 1 0.011685 -0.006389 -0.004404 0.000000 0.010504 0.000000
# 2 -0.006389 0.021101 0.000716 0.000000 -0.000782 0.000000
# 3 -0.004404 0.000716 0.012853 0.000000 -0.004990 0.000000
# 4 0.000000 0.000000 0.000000 0.065212 0.000000 -0.019950
# 5 0.010504 -0.000782 -0.004990 0.000000 0.048160 0.000000
# 6 0.000000 0.000000 0.000000 -0.019950 0.000000 0.038802
#
#
# Mechanical properties :
#
#
# Convention : Reuss Voigt Hill
#
# Bulk Modulus (GPa) = 39.24039 52.77073 46.00556
# Shear Modulus (GPa) = 22.07882 29.11202 25.59542
#
# Velocity S-wave (km/s) = 3.35032 3.84711 3.60728
# Velocity P-wave (km/s) = 5.90895 6.82362 6.38269
#
# Compressibility (1/GPa) = 0.02548394
#
# Stress axis : x y z
#
# Youngs Moduli (GPa) = 85.58324 47.39113 77.80372
#
# Poissons Ratio (x) = 0.30279 0.34266
# Poissons Ratio (y) = 0.54681 -0.05573
# Poissons Ratio (z) = 0.37692 -0.03394
#
# Static dielectric constant tensor:
#      x y z
#    x 1.890130 0.000000 0.006470 
#    y 0.000000 1.638190 0.000000 
#    z 0.006470 0.000000 1.725930 
# 
# From -- ./inp_files/67679.got.cif
#   From: 2010.05.17/outbox.cif.g08.bks.cpg/sg15_34_cif.got.tgz:67679.got - 2010.06.03 18:47:42.
