data_PCOD9261039
_publ_section_title
;
Structure prediction by ZEFSAII (Michael W. Deem and Ramdas Pophale) SiO2 
 PCOD9261039
Probable space group: C 2/C
;
_chemical_formula_sum "Si O2"
_cell_formula_units_Z 60
_cell_length_a 16.472595
_cell_length_b 8.884717
_cell_length_c 26.468293
_cell_angle_alpha 90.000000
_cell_angle_beta 131.233521
_cell_angle_gamma 90.000000
_cell_volume 2913.173697
_symmetry_space_group_name_H-M "C 2/C"
_symmetry_group_IT_number 15
_symmetry_cell_setting 'monoclinic'
loop_
_space_group_symop_operation_xyz
x,y,z
-x,y,1/2-z
-x,-y,-z
x,-y,1/2+z
1/2+x,1/2+y,z
1/2-x,1/2+y,1/2-z
1/2-x,1/2-y,-z
1/2+x,1/2-y,1/2+z
loop_
_atom_site_type_symbol
_atom_site_label
_atom_site_fract_x
_atom_site_fract_y
_atom_site_fract_z
Si Si1 0.372973 0.984769 0.435404
Si Si2 0.290946 0.988195 0.211591
Si Si3 0.021021 0.227065 0.864093
Si Si4 0.806099 0.583477 0.018639
Si Si5 0.100257 0.154659 0.076390
Si Si6 0.500000 0.151379 0.250000
Si Si7 0.704455 0.818768 0.687793
Si Si8 0.896447 0.991931 0.527308
O O1 0.314648 0.974143 0.465419
O O2 0.357698 0.822945 0.402787
O O3 0.500000 0.000000 0.500000
O O4 0.330653 0.109800 0.379784
O O5 0.294078 0.808235 0.216526
O O6 0.187415 0.042214 0.136323
O O7 0.399639 0.055292 0.230900
O O8 0.273067 0.057233 0.260196
O O9 0.077145 0.376052 0.911356
O O10 0.069854 0.076804 0.907819
O O11 0.038024 0.245297 0.811915
O O12 0.897896 0.231382 0.830539
O O13 0.750000 0.750000 0.000000
O O14 0.731587 0.470884 0.020390
O O15 0.086886 0.108832 0.012173
O O16 0.981329 0.138734 0.051645
#
# Coordination Sequence:
#
# PCOD9261039 Si02
#       8
#     8   8   8   8   8   4   8   8
#     4  12  23  40  66  96 132 179 213 274 335 388
#     4  11  24  44  67  96 128 177 220 273 328 405
#     4  10  18  40  58  97 124 168 209 266 315 391
#     4  10  19  37  61  93 132 161 216 266 319 385
#     4  11  21  38  66  95 126 174 223 262 335 383
#     4  10  24  36  72  92 132 174 218 272 342 386
#     4  11  23  43  66  92 132 169 223 263 329 402
#     4  10  20  35  63  94 131 161 215 274 307 391
#
# _framework density 20.596093
#
# number of rings (size 3 to 8) (size 9 to 14) (size 15 to 20)
#    0.000    1.333    5.333    1.600    3.733    0.000 
#    0.000    4.667    0.000    0.800    0.000    0.000 
#    0.000    0.000    0.000    0.000    0.000    0.000 
#
# Total GULP energy -167445.368681 kJ/mol
# GULP energy per Si atom -5581.512289 kJ/mol
# Density = 2.054922 g / cm^3
# Si number density = 20.596093 Si / 1000 Ang^3
#
#
#
# Elastic Constant Matrix: (Units=GPa)
#
#
# Indices 1 2 3 4 5 6 
#
# 1 110.3611 12.1834 16.3578 0.0000 -14.3196 0.0000
# 2 12.1834 47.7367 17.6650 0.0000 -15.5668 0.0000
# 3 16.3578 17.6650 78.9097 0.0000 -29.1381 0.0000
# 4 0.0000 0.0000 0.0000 31.9852 0.0000 0.4713
# 5 -14.3196 -15.5668 -29.1381 0.0000 37.1859 0.0000
# 6 0.0000 0.0000 0.0000 0.4713 0.0000 12.1761
#
#
#
# Elastic Compliance Matrix: (Units=1/GPa)
#
#
# Indices 1 2 3 4 5 6 
#
# 1 0.009654 -0.001350 -0.000753 0.000000 0.002563 0.000000
# 2 -0.001350 0.024767 -0.002291 0.000000 0.008053 0.000000
# 3 -0.000753 -0.002291 0.018125 0.000000 0.012953 0.000000
# 4 0.000000 0.000000 0.000000 0.031282 0.000000 -0.001211
# 5 0.002563 0.008053 0.012953 0.000000 0.041400 0.000000
# 6 0.000000 0.000000 0.000000 -0.001211 0.000000 0.082175
#
#
# Mechanical properties :
#
#
# Convention : Reuss Voigt Hill
#
# Bulk Modulus (GPa) = 22.85266 36.60221 29.72743
# Shear Modulus (GPa) = 21.66606 28.98952 25.32779
#
# Velocity S-wave (km/s) = 3.24690 3.75577 3.51057
# Velocity P-wave (km/s) = 5.01759 6.05126 5.55850
#
# Compressibility (1/GPa) = 0.04375859
#
# Stress axis : x y z
#
# Youngs Moduli (GPa) = 103.58108 40.37710 55.17336
#
# Poissons Ratio (x) = 0.05450 0.04154
# Poissons Ratio (y) = 0.13980 0.12640
# Poissons Ratio (z) = 0.07798 0.09250
#
# Static dielectric constant tensor:
#      x y z
#    x 1.768210 0.000000 0.051430 
#    y 0.000000 1.763000 0.000000 
#    z 0.051430 0.000000 1.788880 
# 
# From -- ./inp_files/298404.got.cif
#   From: 2010.05.17/outbox.cif.g08.bks.cpg/sg15_150_cif.got.tgz:298404.got - 2010.06.03 18:47:42.
