data_PCOD9261381
_publ_section_title
;
Structure prediction by ZEFSAII (Michael W. Deem and Ramdas Pophale) SiO2 
 PCOD9261381
Probable space group: C 2/C
;
_chemical_formula_sum "Si O2"
_cell_formula_units_Z 64
_cell_length_a 26.470578
_cell_length_b 23.636426
_cell_length_c 11.358114
_cell_angle_alpha 90.000000
_cell_angle_beta 148.594778
_cell_angle_gamma 90.000000
_cell_volume 3703.071075
_symmetry_space_group_name_H-M "C 2/C"
_symmetry_group_IT_number 15
_symmetry_cell_setting 'monoclinic'
loop_
_space_group_symop_operation_xyz
x,y,z
-x,y,1/2-z
-x,-y,-z
x,-y,1/2+z
1/2+x,1/2+y,z
1/2-x,1/2+y,1/2-z
1/2-x,1/2-y,-z
1/2+x,1/2-y,1/2+z
loop_
_atom_site_type_symbol
_atom_site_label
_atom_site_fract_x
_atom_site_fract_y
_atom_site_fract_z
Si Si1 0.381709 0.034959 0.640157
Si Si2 0.103954 0.496622 0.085521
Si Si3 0.095361 0.364579 0.015440
Si Si4 0.102538 0.191524 0.007556
Si Si5 0.701863 0.793442 0.060299
Si Si6 0.409427 0.769122 0.297661
Si Si7 0.194772 0.654243 0.071529
Si Si8 0.621711 0.784516 0.642636
O O1 0.348451 0.999493 0.689696
O O2 0.349596 0.100035 0.580059
O O3 0.348909 0.015351 0.444370
O O4 0.498758 0.027161 0.878427
O O5 0.090888 0.429300 0.044042
O O6 0.000000 0.353246 0.750000
O O7 0.186312 0.346806 0.114478
O O8 0.089599 0.321732 0.111230
O O9 0.000000 0.173125 0.750000
O O10 0.139827 0.243303 0.999169
O O11 0.095069 0.215167 0.126051
O O12 0.190932 0.147783 0.181269
O O13 0.809024 0.768098 0.255399
O O14 0.656584 0.803167 0.841705
O O15 0.509565 0.768692 0.425674
O O16 0.323742 0.787395 0.038910
O O17 0.141658 0.665918 0.089193
#
# Coordination Sequence:
#
# PCOD9261381 Si02
#       8
#     8   8   8   8   8   8   8   8
#     4  10  21  35  48  78 107 140 172 222 265 336
#     4  10  21  33  51  70 113 136 177 213 275 330
#     4  11  17  31  51  72  97 153 177 207 261 331
#     4  10  19  37  52  73 104 145 185 221 250 328
#     4   9  18  31  48  73 103 144 186 208 251 311
#     4  11  19  32  52  75 109 141 182 214 264 311
#     4  11  23  31  51  78 110 139 180 217 277 310
#     4  10  19  29  46  74 109 142 173 222 250 308
#
# _framework density 17.282952999999999
#
# number of rings (size 3 to 8) (size 9 to 14) (size 15 to 20)
#    0.000    1.750    5.000    1.500    3.500    1.000 
#    0.000    0.000    0.000    0.000    0.000    0.875 
#    0.000    0.000    0.000    0.000    0.000    0.000 
#
# Total GULP energy -178263.549338 kJ/mol
# GULP energy per Si atom -5570.735917 kJ/mol
# Density = 1.724362 g / cm^3
# Si number density = 17.282953 Si / 1000 Ang^3
#
#
#
# Elastic Constant Matrix: (Units=GPa)
#
#
# Indices 1 2 3 4 5 6 
#
# 1 95.1125 11.4081 37.7614 0.0000 -7.9328 0.0000
# 2 11.4081 40.5245 11.9910 0.0000 3.6297 0.0000
# 3 37.7614 11.9910 66.9388 0.0000 2.2393 0.0000
# 4 0.0000 0.0000 0.0000 21.6077 0.0000 -5.9150
# 5 -7.9328 3.6297 2.2393 0.0000 36.9543 0.0000
# 6 0.0000 0.0000 0.0000 -5.9150 0.0000 16.8471
#
#
#
# Elastic Compliance Matrix: (Units=1/GPa)
#
#
# Indices 1 2 3 4 5 6 
#
# 1 0.014137 -0.002022 -0.007736 0.000000 0.003702 0.000000
# 2 -0.002022 0.026540 -0.003519 0.000000 -0.002828 0.000000
# 3 -0.007736 -0.003519 0.020018 0.000000 -0.002528 0.000000
# 4 0.000000 0.000000 0.000000 0.051201 0.000000 0.017977
# 5 0.003702 -0.002828 -0.002528 0.000000 0.028286 0.000000
# 6 0.000000 0.000000 0.000000 0.017977 0.000000 0.065669
#
#
# Mechanical properties :
#
#
# Convention : Reuss Voigt Hill
#
# Bulk Modulus (GPa) = 29.29095 36.09964 32.69529
# Shear Modulus (GPa) = 20.50981 24.50950 22.50966
#
# Velocity S-wave (km/s) = 3.44860 3.76989 3.61282
# Velocity P-wave (km/s) = 5.73078 6.31524 6.03009
#
# Compressibility (1/GPa) = 0.03414024
#
# Stress axis : x y z
#
# Youngs Moduli (GPa) = 70.73824 37.67869 49.95461
#
# Poissons Ratio (x) = 0.07619 0.38647
# Poissons Ratio (y) = 0.14304 0.17579
# Poissons Ratio (z) = 0.54726 0.13259
#
# Static dielectric constant tensor:
#      x y z
#    x 1.671660 0.000000 -0.040010 
#    y 0.000000 1.583240 0.000000 
#    z -0.040010 0.000000 1.600190 
# 
# From -- ./inp_files/124242.got.cif
#   From: 2010.05.17/outbox.cif.g08.bks.cpg/sg15_63_cif.got.tgz:124242.got - 2010.06.03 18:47:42.
