data_PCOD9261452
_publ_section_title
;
Structure prediction by ZEFSAII (Michael W. Deem and Ramdas Pophale) SiO2 
 PCOD9261452
Probable space group: C 2/C
;
_chemical_formula_sum "Si O2"
_cell_formula_units_Z 56
_cell_length_a 5.445403
_cell_length_b 27.007730
_cell_length_c 20.354782
_cell_angle_alpha 90.000000
_cell_angle_beta 70.309681
_cell_angle_gamma 90.000000
_cell_volume 2818.496950
_symmetry_space_group_name_H-M "C 2/C"
_symmetry_group_IT_number 15
_symmetry_cell_setting 'monoclinic'
loop_
_space_group_symop_operation_xyz
x,y,z
-x,y,1/2-z
-x,-y,-z
x,-y,1/2+z
1/2+x,1/2+y,z
1/2-x,1/2+y,1/2-z
1/2-x,1/2-y,-z
1/2+x,1/2-y,1/2+z
loop_
_atom_site_type_symbol
_atom_site_label
_atom_site_fract_x
_atom_site_fract_y
_atom_site_fract_z
Si Si1 0.258463 0.635037 0.996305
Si Si2 0.275440 0.693124 0.478359
Si Si3 0.181870 0.040774 0.599342
Si Si4 0.500000 0.910464 0.250000
Si Si5 0.511704 0.657812 0.178931
Si Si6 0.500000 0.587656 0.750000
Si Si7 0.042091 0.601064 0.154674
Si Si8 0.853834 0.507708 0.871170
O O1 0.517923 0.665751 0.992075
O O2 0.168607 0.608372 0.071391
O O3 0.011097 0.668042 0.996205
O O4 0.310495 0.592668 0.938666
O O5 0.250000 0.750000 0.500000
O O6 0.391335 0.687198 0.393954
O O7 0.090524 0.052656 0.682312
O O8 0.465128 0.016654 0.581862
O O9 0.955148 0.007371 0.588926
O O10 0.751774 0.881389 0.250258
O O11 0.590521 0.946259 0.182623
O O12 0.500000 0.685909 0.250000
O O13 0.236241 0.632511 0.184038
O O14 0.743507 0.618359 0.173275
O O15 0.060303 0.543434 0.169035
#
# Coordination Sequence:
#
# PCOD9261452 Si02
#       8
#     8   8   8   4   8   4   8   8
#     4  10  21  36  57  81 106 142 186 220 277 334
#     4  10  21  40  63  83 108 141 178 225 287 358
#     4  10  19  33  51  72 108 149 188 229 262 309
#     4   8  16  26  40  62  90 131 182 217 250 300
#     4  10  21  36  57  83 114 142 174 231 280 324
#     4   8  16  30  44  64  94 133 178 221 262 288
#     4  10  21  34  49  82 113 146 186 218 266 323
#     4  10  19  30  46  73 106 150 186 225 258 306
#
# _framework density 19.868744
#
# number of rings (size 3 to 8) (size 9 to 14) (size 15 to 20)
#    0.000    2.286    0.000    2.571    2.000    1.143 
#    2.571    0.000    3.143    0.000    0.000    0.000 
#    0.000    0.000    0.000    0.000    0.000    0.000 
#
# Total GULP energy -156044.024813 kJ/mol
# GULP energy per Si atom -5573.000886 kJ/mol
# Density = 1.982352 g / cm^3
# Si number density = 19.868744 Si / 1000 Ang^3
#
#
#
# Elastic Constant Matrix: (Units=GPa)
#
#
# Indices 1 2 3 4 5 6 
#
# 1 208.7237 33.2615 23.2212 0.0000 12.3651 0.0000
# 2 33.2615 61.2699 25.3712 0.0000 9.0227 0.0000
# 3 23.2212 25.3712 60.4126 0.0000 12.8895 0.0000
# 4 0.0000 0.0000 0.0000 -3.7331 0.0000 1.3605
# 5 12.3651 9.0227 12.8895 0.0000 15.8536 0.0000
# 6 0.0000 0.0000 0.0000 1.3605 0.0000 33.1549
#
#
#
# Elastic Compliance Matrix: (Units=1/GPa)
#
#
# Indices 1 2 3 4 5 6 
#
# 1 0.005367 -0.002322 -0.000577 0.000000 -0.002396 0.000000
# 2 -0.002322 0.021158 -0.007030 0.000000 -0.004515 0.000000
# 3 -0.000577 -0.007030 0.022718 0.000000 -0.014020 0.000000
# 4 0.000000 0.000000 0.000000 -0.263926 0.000000 0.010830
# 5 -0.002396 -0.004515 -0.014020 0.000000 0.078914 0.000000
# 6 0.000000 0.000000 0.000000 0.010830 0.000000 0.029717
#
#
# Mechanical properties :
#
#
# Convention : Reuss Voigt Hill
#
# Bulk Modulus (GPa) = 34.02982 54.90158 44.46570
# Shear Modulus (GPa) = -65.44510 25.62521 -19.90994
#
# Velocity S-wave (km/s) = -5.74545 3.59517 -3.16899
# Velocity P-wave (km/s) = 5.18162 6.70267 3.00638
#
# Compressibility (1/GPa) = 0.02938599
#
# Stress axis : x y z
#
# Youngs Moduli (GPa) = 186.31884 47.26444 44.01798
#
# Poissons Ratio (x) = 0.10975 0.02538
# Poissons Ratio (y) = 0.43264 0.30943
# Poissons Ratio (z) = 0.10744 0.33225
#
# Static dielectric constant tensor:
#      x y z
#    x 1.806360 0.000000 0.008840 
#    y 0.000000 1.623510 0.000000 
#    z 0.008840 0.000000 1.737800 
# 
# From -- ./inp_files/228105.got.cif
#   From: 2010.05.17/outbox.cif.g08.bks.cpg/sg15_115_cif.got.tgz:228105.got - 2010.06.03 18:47:42.
