data_PCOD9261638
_publ_section_title
;
Structure prediction by ZEFSAII (Michael W. Deem and Ramdas Pophale) SiO2 
 PCOD9261638
Probable space group: C 2/C
;
_chemical_formula_sum "Si O2"
_cell_formula_units_Z 60
_cell_length_a 25.971733
_cell_length_b 16.958655
_cell_length_c 8.290838
_cell_angle_alpha 90.000000
_cell_angle_beta 82.485336
_cell_angle_gamma 90.000000
_cell_volume 3620.301017
_symmetry_space_group_name_H-M "C 2/C"
_symmetry_group_IT_number 15
_symmetry_cell_setting 'monoclinic'
loop_
_space_group_symop_operation_xyz
x,y,z
-x,y,1/2-z
-x,-y,-z
x,-y,1/2+z
1/2+x,1/2+y,z
1/2-x,1/2+y,1/2-z
1/2-x,1/2-y,-z
1/2+x,1/2-y,1/2+z
loop_
_atom_site_type_symbol
_atom_site_label
_atom_site_fract_x
_atom_site_fract_y
_atom_site_fract_z
Si Si1 0.190134 0.682965 0.143920
Si Si2 0.923284 0.946311 0.033437
Si Si3 0.161801 0.085691 0.433515
Si Si4 0.306635 0.258740 0.697689
Si Si5 0.660343 0.663324 0.789807
Si Si6 0.730627 0.879741 0.109169
Si Si7 0.000000 0.019634 0.250000
Si Si8 0.228934 0.463692 0.762693
O O1 0.248909 0.707612 0.177150
O O2 0.155269 0.744076 0.257284
O O3 0.189068 0.591160 0.180536
O O4 0.181835 0.704801 0.962147
O O5 0.888672 0.875159 0.107083
O O6 0.968650 0.965062 0.140389
O O7 0.884876 0.022854 0.041130
O O8 0.954480 0.932877 0.856531
O O9 0.157030 0.163991 0.322821
O O10 0.169576 0.120100 0.611582
O O11 0.213675 0.043982 0.343007
O O12 0.302188 0.200590 0.851659
O O13 0.710607 0.646175 0.877262
O O14 0.715773 0.944911 0.249653
O O15 0.728945 0.924959 0.939883
#
# Coordination Sequence:
#
# PCOD9261638 Si02
#       8
#     8   8   8   8   8   8   4   8
#     4   8  16  30  43  61  88 115 149 189 221 256
#     4  11  20  36  48  68  88 122 152 194 234 277
#     4  10  19  31  48  64  85 120 156 186 225 276
#     4   8  16  30  43  61  88 115 149 189 221 256
#     4  10  19  31  48  64  85 120 156 186 225 276
#     4  11  20  28  42  65  91 121 155 188 220 258
#     4  10  24  34  48  66  92 110 154 202 244 262
#     4  11  20  28  42  65  91 121 155 188 220 258
#
# _framework density 16.573208000000001
#
# number of rings (size 3 to 8) (size 9 to 14) (size 15 to 20)
#    0.000    2.133    2.667    4.000    1.867    4.800 
#    0.000    0.000    0.000    0.000    0.000    0.000 
#    0.000    0.000    0.000    7.200    0.000    0.533 
#
# Total GULP energy -167181.309319 kJ/mol
# GULP energy per Si atom -5572.710311 kJ/mol
# Density = 1.653549 g / cm^3
# Si number density = 16.573208 Si / 1000 Ang^3
#
#
#
# Elastic Constant Matrix: (Units=GPa)
#
#
# Indices 1 2 3 4 5 6 
#
# 1 38.9282 26.1889 15.3634 0.0000 -14.1957 0.0000
# 2 26.1889 83.0262 18.6738 0.0000 -20.9581 0.0000
# 3 15.3634 18.6738 63.9790 0.0000 -20.2060 0.0000
# 4 0.0000 0.0000 0.0000 30.0855 0.0000 -3.7980
# 5 -14.1957 -20.9581 -20.2060 0.0000 24.9186 0.0000
# 6 0.0000 0.0000 0.0000 -3.7980 0.0000 9.0879
#
#
#
# Elastic Compliance Matrix: (Units=1/GPa)
#
#
# Indices 1 2 3 4 5 6 
#
# 1 0.036389 -0.007860 -0.002668 0.000000 0.011956 0.000000
# 2 -0.007860 0.017002 0.000036 0.000000 0.009852 0.000000
# 3 -0.002668 0.000036 0.021226 0.000000 0.015722 0.000000
# 4 0.000000 0.000000 0.000000 0.035090 0.000000 0.014665
# 5 0.011956 0.009852 0.015722 0.000000 0.067977 0.000000
# 6 0.000000 0.000000 0.000000 0.014665 0.000000 0.116166
#
#
# Mechanical properties :
#
#
# Convention : Reuss Voigt Hill
#
# Bulk Modulus (GPa) = 18.64508 34.04282 26.34395
# Shear Modulus (GPa) = 15.02807 21.19887 18.11347
#
# Velocity S-wave (km/s) = 3.01453 3.58034 3.30955
# Velocity P-wave (km/s) = 4.83643 6.13818 5.52577
#
# Compressibility (1/GPa) = 0.05363346
#
# Stress axis : x y z
#
# Youngs Moduli (GPa) = 27.48077 58.81523 47.11289
#
# Poissons Ratio (x) = 0.46229 0.12570
# Poissons Ratio (y) = 0.21600 -0.00171
# Poissons Ratio (z) = 0.07332 -0.00214
#
# Static dielectric constant tensor:
#      x y z
#    x 1.522910 0.000000 0.003080 
#    y 0.000000 1.605660 0.000000 
#    z 0.003080 0.000000 1.670720 
# 
# From -- ./inp_files/66701.got.cif
#   From: 2010.05.17/outbox.cif.g08.bks.cpg/sg15_34_cif.got.tgz:66701.got - 2010.06.03 18:47:42.
