data_PCOD9261594
_publ_section_title
;
Structure prediction by ZEFSAII (Michael W. Deem and Ramdas Pophale) SiO2 
 PCOD9261594
Probable space group: C 2/C
;
_chemical_formula_sum "Si O2"
_cell_formula_units_Z 36
_cell_length_a 17.280299
_cell_length_b 6.699593
_cell_length_c 18.480704
_cell_angle_alpha 90.000000
_cell_angle_beta 138.921421
_cell_angle_gamma 90.000000
_cell_volume 1405.870550
_symmetry_space_group_name_H-M "C 2/C"
_symmetry_group_IT_number 15
_symmetry_cell_setting 'monoclinic'
loop_
_space_group_symop_operation_xyz
x,y,z
-x,y,1/2-z
-x,-y,-z
x,-y,1/2+z
1/2+x,1/2+y,z
1/2-x,1/2+y,1/2-z
1/2-x,1/2-y,-z
1/2+x,1/2-y,1/2+z
loop_
_atom_site_type_symbol
_atom_site_label
_atom_site_fract_x
_atom_site_fract_y
_atom_site_fract_z
Si Si1 0.000000 0.367253 0.250000
Si Si2 0.208744 0.545558 0.118354
Si Si3 0.613139 0.538340 0.531416
Si Si4 0.650582 0.098777 0.728831
Si Si5 0.883028 0.026367 0.629164
O O1 0.049170 0.468503 0.212580
O O2 0.101567 0.215206 0.349514
O O3 0.267528 0.509787 0.341472
O O4 0.319174 0.668217 0.233374
O O5 0.143932 0.440238 0.139260
O O6 0.267542 0.425146 0.094287
O O7 0.500000 0.500000 0.500000
O O8 0.625934 0.778225 0.530984
O O9 0.612409 0.439178 0.452513
O O10 0.000000 0.109841 0.750000
#
# Coordination Sequence:
#
# PCOD9261594 Si02
#       5
#     4   8   8   8   8
#     4   8  18  30  58  70 110 140 182 204 264 312
#     4   9  19  32  56  76 107 135 177 215 262 307
#     4  10  19  30  58  82 104 131 186 217 260 305
#     4   9  19  35  54  77 106 140 172 218 260 312
#     4   9  16  32  54  77 101 143 182 211 246 316
#
# _framework density 25.606908000000001
#
# number of rings (size 3 to 8) (size 9 to 14) (size 15 to 20)
#    2.000    0.889    0.000    2.000    0.000    0.000 
#    0.000    3.333    0.000    2.667    0.000    0.000 
#    0.000    0.000    0.000    0.000    0.000    0.000 
#
# Total GULP energy -100413.295650 kJ/mol
# GULP energy per Si atom -5578.516425 kJ/mol
# Density = 2.554863 g / cm^3
# Si number density = 25.606908 Si / 1000 Ang^3
#
#
#
# Elastic Constant Matrix: (Units=GPa)
#
#
# Indices 1 2 3 4 5 6 
#
# 1 236.8881 38.5488 78.8936 0.0000 -62.2497 0.0000
# 2 38.5488 50.0238 19.3434 0.0000 -8.7012 0.0000
# 3 78.8936 19.3434 126.5503 0.0000 -46.3372 0.0000
# 4 0.0000 0.0000 0.0000 21.7451 0.0000 -6.9173
# 5 -62.2497 -8.7012 -46.3372 0.0000 54.2176 0.0000
# 6 0.0000 0.0000 0.0000 -6.9173 0.0000 25.4860
#
#
#
# Elastic Compliance Matrix: (Units=1/GPa)
#
#
# Indices 1 2 3 4 5 6 
#
# 1 0.006921 -0.003688 -0.001540 0.000000 0.006039 0.000000
# 2 -0.003688 0.023243 -0.002093 0.000000 -0.002293 0.000000
# 3 -0.001540 -0.002093 0.012243 0.000000 0.008359 0.000000
# 4 0.000000 0.000000 0.000000 0.050333 0.000000 0.013661
# 5 0.006039 -0.002293 0.008359 0.000000 0.032154 0.000000
# 6 0.000000 0.000000 0.000000 0.013661 0.000000 0.042945
#
#
# Mechanical properties :
#
#
# Convention : Reuss Voigt Hill
#
# Bulk Modulus (GPa) = 36.01686 76.33710 56.17698
# Shear Modulus (GPa) = 26.07759 38.73484 32.40621
#
# Velocity S-wave (km/s) = 3.19467 3.89353 3.56128
# Velocity P-wave (km/s) = 5.26343 7.07733 6.23668
#
# Compressibility (1/GPa) = 0.02776477
#
# Stress axis : x y z
#
# Youngs Moduli (GPa) = 144.48319 43.02396 81.68034
#
# Poissons Ratio (x) = 0.15866 0.12580
# Poissons Ratio (y) = 0.53281 0.17098
# Poissons Ratio (z) = 0.22252 0.09006
#
# Static dielectric constant tensor:
#      x y z
#    x 2.014520 0.000000 0.024190 
#    y 0.000000 2.133100 0.000000 
#    z 0.024190 0.000000 2.012190 
# 
# From -- ./inp_files/103401.got.cif
#   From: 2010.05.17/outbox.cif.g08.bks.cpg/sg15_52_cif.got.tgz:103401.got - 2010.06.03 18:47:42.
