data_PCOD9261328
_publ_section_title
;
Structure prediction by ZEFSAII (Michael W. Deem and Ramdas Pophale) SiO2 
 PCOD9261328
Probable space group: C 2/C
;
_chemical_formula_sum "Si O2"
_cell_formula_units_Z 64
_cell_length_a 17.107487
_cell_length_b 22.557150
_cell_length_c 13.687633
_cell_angle_alpha 90.000000
_cell_angle_beta 51.323294
_cell_angle_gamma 90.000000
_cell_volume 4123.579550
_symmetry_space_group_name_H-M "C 2/C"
_symmetry_group_IT_number 15
_symmetry_cell_setting 'monoclinic'
loop_
_space_group_symop_operation_xyz
x,y,z
-x,y,1/2-z
-x,-y,-z
x,-y,1/2+z
1/2+x,1/2+y,z
1/2-x,1/2+y,1/2-z
1/2-x,1/2-y,-z
1/2+x,1/2-y,1/2+z
loop_
_atom_site_type_symbol
_atom_site_label
_atom_site_fract_x
_atom_site_fract_y
_atom_site_fract_z
Si Si1 0.801902 0.533136 0.053703
Si Si2 0.234544 0.178858 0.829663
Si Si3 0.538883 0.909187 0.926723
Si Si4 0.431827 0.751143 0.214985
Si Si5 0.314207 0.071142 0.670338
Si Si6 0.396812 0.998857 0.285015
Si Si7 0.394395 0.216864 0.053702
Si Si8 0.284393 0.659187 0.426723
O O1 0.903796 0.556135 0.029379
O O2 0.761154 0.483401 0.158089
O O3 0.735151 0.591211 0.087798
O O4 0.825118 0.499930 0.934354
O O5 0.347266 0.202128 0.754305
O O6 0.241365 0.125000 0.750000
O O7 0.169243 0.233401 0.841912
O O8 0.201405 0.164138 0.967441
O O9 0.576707 0.942319 0.798814
O O10 0.572949 0.841211 0.912202
O O11 0.418845 0.914138 0.032560
O O12 0.500000 0.773652 0.250000
O O13 0.374479 0.692319 0.298814
O O14 0.509472 0.749930 0.065647
O O15 0.351571 0.047872 0.745696
O O16 0.500000 0.976347 0.250000
O O17 0.316825 0.193864 0.029379
#
# Coordination Sequence:
#
# PCOD9261328 Si02
#       8
#     8   8   8   8   8   8   8   8
#     4  10  19  30  42  66 101 118 153 194 221 284
#     4  11  19  27  44  69  93 126 151 182 238 274
#     4  10  19  28  43  69  95 128 150 182 238 277
#     4  11  17  27  45  66  93 126 151 179 230 284
#     4  11  19  27  44  69  93 126 151 182 238 274
#     4  11  17  27  45  66  93 126 151 179 230 284
#     4  10  19  30  42  66 101 118 153 194 221 284
#     4  10  19  28  43  69  95 128 150 182 238 277
#
# _framework density 15.520497000000001
#
# number of rings (size 3 to 8) (size 9 to 14) (size 15 to 20)
#    0.000    1.500    7.500    1.500    0.000    0.500 
#    0.000    0.000    0.000    1.500    0.000    0.000 
#    0.000    0.000    0.000    0.000    0.000    0.000 
#
# Total GULP energy -178154.547208 kJ/mol
# GULP energy per Si atom -5567.329600 kJ/mol
# Density = 1.548517 g / cm^3
# Si number density = 15.520497 Si / 1000 Ang^3
#
#
#
# Elastic Constant Matrix: (Units=GPa)
#
#
# Indices 1 2 3 4 5 6 
#
# 1 21.3820 12.1528 16.5546 0.0000 -1.7766 0.0000
# 2 12.1528 101.1812 45.5110 0.0000 -2.1086 0.0000
# 3 16.5546 45.5110 64.0971 0.0000 -0.9232 0.0000
# 4 0.0000 0.0000 0.0000 28.1821 0.0000 -0.9112
# 5 -1.7766 -2.1086 -0.9232 0.0000 16.4132 0.0000
# 6 0.0000 0.0000 0.0000 -0.9112 0.0000 13.7651
#
#
#
# Elastic Compliance Matrix: (Units=1/GPa)
#
#
# Indices 1 2 3 4 5 6 
#
# 1 0.058958 -0.000225 -0.014988 0.000000 0.005510 0.000000
# 2 -0.000225 0.014549 -0.010254 0.000000 0.001268 0.000000
# 3 -0.014988 -0.010254 0.026732 0.000000 -0.001436 0.000000
# 4 0.000000 0.000000 0.000000 0.035560 0.000000 0.002354
# 5 0.005510 0.001268 -0.001436 0.000000 0.061605 0.000000
# 6 0.000000 0.000000 0.000000 0.002354 0.000000 0.072803
#
#
# Mechanical properties :
#
#
# Convention : Reuss Voigt Hill
#
# Bulk Modulus (GPa) = 20.28175 37.23302 28.75738
# Shear Modulus (GPa) = 14.81144 19.16820 16.98982
#
# Velocity S-wave (km/s) = 3.09255 3.51810 3.31217
# Velocity P-wave (km/s) = 5.08408 6.36745 5.76161
#
# Compressibility (1/GPa) = 0.04930542
#
# Stress axis : x y z
#
# Youngs Moduli (GPa) = 16.96109 68.73414 37.40801
#
# Poissons Ratio (x) = 0.01546 0.56069
# Poissons Ratio (y) = 0.00381 0.38357
# Poissons Ratio (z) = 0.25422 0.70478
#
# Static dielectric constant tensor:
#      x y z
#    x 1.506770 0.000000 -0.002650 
#    y 0.000000 1.544110 0.000000 
#    z -0.002650 0.000000 1.548640 
# 
# From -- ./inp_files/107938.got.cif
#   From: 2010.05.17/outbox.cif.g08.bks.cpg/sg15_54_cif.got.tgz:107938.got - 2010.06.03 18:47:42.
