data_PCOD9261958
_publ_section_title
;
Structure prediction by ZEFSAII (Michael W. Deem and Ramdas Pophale) SiO2 
 PCOD9261958
Probable space group: C 2/C
;
_chemical_formula_sum "Si O2"
_cell_formula_units_Z 44
_cell_length_a 18.751229
_cell_length_b 22.672196
_cell_length_c 5.629210
_cell_angle_alpha 90.000000
_cell_angle_beta 100.512270
_cell_angle_gamma 90.000000
_cell_volume 2352.987665
_symmetry_space_group_name_H-M "C 2/C"
_symmetry_group_IT_number 15
_symmetry_cell_setting 'monoclinic'
loop_
_space_group_symop_operation_xyz
x,y,z
-x,y,1/2-z
-x,-y,-z
x,-y,1/2+z
1/2+x,1/2+y,z
1/2-x,1/2+y,1/2-z
1/2-x,1/2-y,-z
1/2+x,1/2-y,1/2+z
loop_
_atom_site_type_symbol
_atom_site_label
_atom_site_fract_x
_atom_site_fract_y
_atom_site_fract_z
Si Si1 0.663406 0.028470 0.424467
Si Si2 0.500000 0.741628 0.750000
Si Si3 0.500000 0.054877 0.250000
Si Si4 0.789454 0.661538 0.104460
Si Si5 0.611799 0.795075 0.454691
Si Si6 0.856448 0.781546 0.917630
Si Si7 0.500000 0.121786 0.750000
O O1 0.575781 0.022801 0.350290
O O2 0.684352 0.097434 0.458125
O O3 0.688925 0.996352 0.682469
O O4 0.548346 0.780892 0.603614
O O5 0.436671 0.707827 0.569545
O O6 0.487071 0.089321 0.491250
O O7 0.821276 0.672164 0.387278
O O8 0.703158 0.670368 0.054043
O O9 0.823450 0.718641 0.991083
O O10 0.635111 0.733413 0.354533
O O11 0.570919 0.838300 0.251109
#
# Coordination Sequence:
#
# PCOD9261958 Si02
#       7
#     8   4   4   8   8   8   4
#     4  12  26  42  58  81 116 160 208 248 284 335
#     4  10  19  32  50  89 114 147 188 227 304 356
#     4  12  23  39  56  82 110 162 214 246 268 324
#     4  10  23  37  56  83 115 155 199 237 301 349
#     4  11  19  32  54  82 119 152 188 236 292 353
#     4  10  20  36  58  86 116 150 190 244 299 363
#     4  12  20  31  60  81 118 155 192 239 292 324
#
# _framework density 18.699629000000002
#
# number of rings (size 3 to 8) (size 9 to 14) (size 15 to 20)
#    0.000    1.091    3.636    3.818    2.545    0.000 
#    0.000    0.000    0.000    0.000    0.000    1.273 
#    0.000    0.000    0.000    0.000    0.000    0.000 
#
# Total GULP energy -122642.254921 kJ/mol
# GULP energy per Si atom -5574.647951 kJ/mol
# Density = 1.865707 g / cm^3
# Si number density = 18.699629 Si / 1000 Ang^3
#
#
#
# Elastic Constant Matrix: (Units=GPa)
#
#
# Indices 1 2 3 4 5 6 
#
# 1 95.9423 25.8742 24.3069 0.0000 12.7139 0.0000
# 2 25.8742 59.0325 26.8542 0.0000 -1.9156 0.0000
# 3 24.3069 26.8542 56.8281 0.0000 -8.7531 0.0000
# 4 0.0000 0.0000 0.0000 8.7815 0.0000 -0.9692
# 5 12.7139 -1.9156 -8.7531 0.0000 25.1153 0.0000
# 6 0.0000 0.0000 0.0000 -0.9692 0.0000 14.5146
#
#
#
# Elastic Compliance Matrix: (Units=1/GPa)
#
#
# Indices 1 2 3 4 5 6 
#
# 1 0.014170 -0.003947 -0.005650 0.000000 -0.009444 0.000000
# 2 -0.003947 0.022775 -0.008981 0.000000 0.000605 0.000000
# 3 -0.005650 -0.008981 0.025988 0.000000 0.011233 0.000000
# 4 0.000000 0.000000 0.000000 0.114721 0.000000 0.007660
# 5 -0.009444 0.000605 0.011233 0.000000 0.048558 0.000000
# 6 0.000000 0.000000 0.000000 0.007660 0.000000 0.069408
#
#
# Mechanical properties :
#
#
# Convention : Reuss Voigt Hill
#
# Bulk Modulus (GPa) = 38.79506 40.65260 39.72383
# Shear Modulus (GPa) = 14.64692 18.66678 16.65685
#
# Velocity S-wave (km/s) = 2.80174 3.16293 2.98780
# Velocity P-wave (km/s) = 5.59087 5.92670 5.76123
#
# Compressibility (1/GPa) = 0.02577648
#
# Stress axis : x y z
#
# Youngs Moduli (GPa) = 70.56992 43.90806 38.47950
#
# Poissons Ratio (x) = 0.17330 0.21743
# Poissons Ratio (y) = 0.27854 0.34558
# Poissons Ratio (z) = 0.39876 0.39433
#
# Static dielectric constant tensor:
#      x y z
#    x 1.661110 0.000000 -0.049530 
#    y 0.000000 1.666250 0.000000 
#    z -0.049530 0.000000 1.818810 
# 
# From -- ./inp_files/10401.got.cif
#   From: 2010.05.17/outbox.cif.g08.bks.cpg/sg15_6_cif.got.tgz:10401.got - 2010.06.03 18:47:42.
