data_PCOD9261108
_publ_section_title
;
Structure prediction by ZEFSAII (Michael W. Deem and Ramdas Pophale) SiO2 
 PCOD9261108
Probable space group: C 2/C
;
_chemical_formula_sum "Si O2"
_cell_formula_units_Z 60
_cell_length_a 13.797507
_cell_length_b 19.948507
_cell_length_c 9.513800
_cell_angle_alpha 90.000000
_cell_angle_beta 105.992060
_cell_angle_gamma 90.000000
_cell_volume 2517.235964
_symmetry_space_group_name_H-M "C 2/C"
_symmetry_group_IT_number 15
_symmetry_cell_setting 'monoclinic'
loop_
_space_group_symop_operation_xyz
x,y,z
-x,y,1/2-z
-x,-y,-z
x,-y,1/2+z
1/2+x,1/2+y,z
1/2-x,1/2+y,1/2-z
1/2-x,1/2-y,-z
1/2+x,1/2-y,1/2+z
loop_
_atom_site_type_symbol
_atom_site_label
_atom_site_fract_x
_atom_site_fract_y
_atom_site_fract_z
Si Si1 0.813423 0.661146 0.487711
Si Si2 0.105282 0.717403 0.261513
Si Si3 0.163885 0.840285 0.155082
Si Si4 0.256201 0.519425 0.121955
Si Si5 0.559197 0.950518 0.126490
Si Si6 0.500000 0.216440 0.750000
Si Si7 0.616396 0.503818 0.586219
Si Si8 0.638683 0.806323 0.086211
O O1 0.829883 0.684265 0.335378
O O2 0.709127 0.682226 0.522018
O O3 0.801345 0.581414 0.470796
O O4 0.907344 0.681116 0.624869
O O5 0.081616 0.789552 0.181606
O O6 0.153312 0.716558 0.433628
O O7 0.000000 0.680883 0.250000
O O8 0.135093 0.917610 0.133115
O O9 0.256842 0.824933 0.297196
O O10 0.172878 0.479447 0.177186
O O11 0.345387 0.538356 0.265190
O O12 0.313033 0.483249 0.016774
O O13 0.500000 0.949518 0.250000
O O14 0.575506 0.876234 0.070473
O O15 0.500000 0.000000 0.000000
O O16 0.430328 0.244831 0.848782
O O17 0.500000 0.500000 0.500000
#
# Coordination Sequence:
#
# PCOD9261108 Si02
#       8
#     8   8   8   8   8   4   8   8
#     4  10  23  41  70  94 141 181 226 290 362 436
#     4  12  25  41  68 104 133 180 248 297 345 433
#     4  10  24  47  67  94 141 189 235 293 366 421
#     4  11  24  42  66 105 140 186 236 285 361 434
#     4  12  25  37  65 105 151 189 226 283 367 446
#     4  10  18  40  64  92 134 184 210 272 360 422
#     4  11  24  46  74 100 139 189 242 307 356 415
#     4  11  22  41  65  97 141 187 230 283 360 434
#
# _framework density 23.835668999999999
#
# number of rings (size 3 to 8) (size 9 to 14) (size 15 to 20)
#    0.000    1.067    3.333    2.800    5.600    1.067 
#    0.000    1.333    5.867    0.000    0.000    0.000 
#    0.000    0.000    0.000    0.000    0.000    0.000 
#
# Total GULP energy -167465.350456 kJ/mol
# GULP energy per Si atom -5582.178349 kJ/mol
# Density = 2.378142 g / cm^3
# Si number density = 23.835669 Si / 1000 Ang^3
#
#
#
# Elastic Constant Matrix: (Units=GPa)
#
#
# Indices 1 2 3 4 5 6 
#
# 1 101.7441 17.1490 54.6468 0.0000 -19.6100 0.0000
# 2 17.1490 38.3886 11.6323 0.0000 -15.2778 0.0000
# 3 54.6468 11.6323 163.3335 0.0000 -24.3852 0.0000
# 4 0.0000 0.0000 0.0000 18.9977 0.0000 3.8896
# 5 -19.6100 -15.2778 -24.3852 0.0000 56.0830 0.0000
# 6 0.0000 0.0000 0.0000 3.8896 0.0000 15.9160
#
#
#
# Elastic Compliance Matrix: (Units=1/GPa)
#
#
# Indices 1 2 3 4 5 6 
#
# 1 0.012846 -0.003884 -0.003752 0.000000 0.001802 0.000000
# 2 -0.003884 0.030531 0.000176 0.000000 0.007035 0.000000
# 3 -0.003752 0.000176 0.007675 0.000000 0.002073 0.000000
# 4 0.000000 0.000000 0.000000 0.055410 0.000000 -0.013541
# 5 0.001802 0.007035 0.002073 0.000000 0.021279 0.000000
# 6 0.000000 0.000000 0.000000 -0.013541 0.000000 0.066139
#
#
# Mechanical properties :
#
#
# Convention : Reuss Voigt Hill
#
# Bulk Modulus (GPa) = 27.67782 52.25803 39.96793
# Shear Modulus (GPa) = 22.64026 32.86855 27.75441
#
# Velocity S-wave (km/s) = 3.08530 3.71747 3.41604
# Velocity P-wave (km/s) = 4.93247 6.35594 5.68891
#
# Compressibility (1/GPa) = 0.03613001
#
# Stress axis : x y z
#
# Youngs Moduli (GPa) = 77.84566 32.75322 130.29670
#
# Poissons Ratio (x) = 0.12723 0.48890
# Poissons Ratio (y) = 0.30238 -0.02288
# Poissons Ratio (z) = 0.29209 -0.00575
#
# Static dielectric constant tensor:
#      x y z
#    x 2.006890 0.000000 0.022430 
#    y 0.000000 1.987160 0.000000 
#    z 0.022430 0.000000 1.917410 
# 
# From -- ./inp_files/42707.got.cif
#   From: 2010.05.17/outbox.cif.g08.bks.cpg/sg15_22_cif.got.tgz:42707.got - 2010.06.03 18:47:42.
