data_PCOD9261190
_publ_section_title
;
Structure prediction by ZEFSAII (Michael W. Deem and Ramdas Pophale) SiO2 
 PCOD9261190
Probable space group: C 2/C
;
_chemical_formula_sum "Si O2"
_cell_formula_units_Z 44
_cell_length_a 8.811257
_cell_length_b 11.858125
_cell_length_c 29.666729
_cell_angle_alpha 90.000000
_cell_angle_beta 52.170044
_cell_angle_gamma 90.000000
_cell_volume 2448.271819
_symmetry_space_group_name_H-M "C 2/C"
_symmetry_group_IT_number 15
_symmetry_cell_setting 'monoclinic'
loop_
_space_group_symop_operation_xyz
x,y,z
-x,y,1/2-z
-x,-y,-z
x,-y,1/2+z
1/2+x,1/2+y,z
1/2-x,1/2+y,1/2-z
1/2-x,1/2-y,-z
1/2+x,1/2-y,1/2+z
loop_
_atom_site_type_symbol
_atom_site_label
_atom_site_fract_x
_atom_site_fract_y
_atom_site_fract_z
Si Si1 0.135923 0.210802 0.564588
Si Si2 0.016347 0.400600 0.343300
Si Si3 0.387693 0.151204 0.173545
Si Si4 0.216967 0.225723 0.372132
Si Si5 0.904564 0.989048 0.066351
Si Si6 0.000000 0.289286 0.250000
O O1 0.250000 0.250000 0.500000
O O2 0.272187 0.202489 0.583403
O O3 0.979648 0.303649 0.609643
O O4 0.029052 0.095873 0.573326
O O5 0.134163 0.517303 0.323109
O O6 0.116378 0.299543 0.352483
O O7 0.987933 0.363553 0.297035
O O8 0.807426 0.435499 0.400377
O O9 0.559227 0.189853 0.176504
O O10 0.190286 0.213454 0.218525
O O11 0.115835 0.108859 0.404823
O O12 0.000000 0.000000 0.000000
#
# Coordination Sequence:
#
# PCOD9261190 Si02
#       6
#     8   8   8   8   8   4
#     4  10  18  41  62  86 129 157 197 257 305 358
#     4  11  23  42  62  91 122 164 214 250 322 367
#     4   9  23  40  59  91 120 158 205 252 310 363
#     4   9  22  37  61  89 120 161 206 251 301 372
#     4  11  20  40  65  90 130 166 205 255 312 375
#     4  12  24  40  64  86 126 164 200 268 308 386
#
# _framework density 17.971861000000001
#
# number of rings (size 3 to 8) (size 9 to 14) (size 15 to 20)
#    1.091    0.727    3.636    0.000    0.000    7.273 
#    0.000    1.818    0.000    0.000    0.000    0.000 
#    0.000    0.000    0.000    0.000    0.000    0.000 
#
# Total GULP energy -122563.491672 kJ/mol
# GULP energy per Si atom -5571.067803 kJ/mol
# Density = 1.793096 g / cm^3
# Si number density = 17.971861 Si / 1000 Ang^3
#
#
#
# Elastic Constant Matrix: (Units=GPa)
#
#
# Indices 1 2 3 4 5 6 
#
# 1 71.5898 66.1312 35.6800 0.0000 11.8215 0.0000
# 2 66.1312 147.9683 41.3264 0.0000 -1.2652 0.0000
# 3 35.6800 41.3264 91.9684 0.0000 -13.2514 0.0000
# 4 0.0000 0.0000 0.0000 21.0975 0.0000 -6.0372
# 5 11.8215 -1.2652 -13.2514 0.0000 27.5690 0.0000
# 6 0.0000 0.0000 0.0000 -6.0372 0.0000 42.3498
#
#
#
# Elastic Compliance Matrix: (Units=1/GPa)
#
#
# Indices 1 2 3 4 5 6 
#
# 1 0.034071 -0.012457 -0.010538 0.000000 -0.020246 0.000000
# 2 -0.012457 0.012334 0.000152 0.000000 0.005981 0.000000
# 3 -0.010538 0.000152 0.016702 0.000000 0.012553 0.000000
# 4 0.000000 0.000000 0.000000 0.049415 0.000000 0.007044
# 5 -0.020246 0.005981 0.012553 0.000000 0.051263 0.000000
# 6 0.000000 0.000000 0.000000 0.007044 0.000000 0.024617
#
#
# Mechanical properties :
#
#
# Convention : Reuss Voigt Hill
#
# Bulk Modulus (GPa) = 57.39950 66.42238 61.91094
# Shear Modulus (GPa) = 20.84245 29.42920 25.13582
#
# Velocity S-wave (km/s) = 3.40917 4.05101 3.74387
# Velocity P-wave (km/s) = 6.89235 7.67595 7.29468
#
# Compressibility (1/GPa) = 0.01742176
#
# Stress axis : x y z
#
# Youngs Moduli (GPa) = 29.35025 81.07412 59.87352
#
# Poissons Ratio (x) = 1.00997 0.63093
# Poissons Ratio (y) = 0.36563 -0.00911
# Poissons Ratio (z) = 0.30928 -0.01234
#
# Static dielectric constant tensor:
#      x y z
#    x 1.625710 0.000000 -0.008070 
#    y 0.000000 1.592100 0.000000 
#    z -0.008070 0.000000 1.621170 
# 
# From -- ./inp_files/307033.got.cif
#   From: 2010.05.17/outbox.cif.g08.bks.cpg/sg15_154_cif.got.tgz:307033.got - 2010.06.03 18:47:42.
