data_PCOD9261405
_publ_section_title
;
Structure prediction by ZEFSAII (Michael W. Deem and Ramdas Pophale) SiO2 
 PCOD9261405
Probable space group: C 2/C
;
_chemical_formula_sum "Si O2"
_cell_formula_units_Z 56
_cell_length_a 11.046197
_cell_length_b 25.959765
_cell_length_c 10.889364
_cell_angle_alpha 90.000000
_cell_angle_beta 96.099709
_cell_angle_gamma 90.000000
_cell_volume 3104.919211
_symmetry_space_group_name_H-M "C 2/C"
_symmetry_group_IT_number 15
_symmetry_cell_setting 'monoclinic'
loop_
_space_group_symop_operation_xyz
x,y,z
-x,y,1/2-z
-x,-y,-z
x,-y,1/2+z
1/2+x,1/2+y,z
1/2-x,1/2+y,1/2-z
1/2-x,1/2-y,-z
1/2+x,1/2-y,1/2+z
loop_
_atom_site_type_symbol
_atom_site_label
_atom_site_fract_x
_atom_site_fract_y
_atom_site_fract_z
Si Si1 0.643327 0.638228 0.743159
Si Si2 0.755457 0.667436 0.499147
Si Si3 0.433246 0.749429 0.109199
Si Si4 0.817154 0.922009 0.651600
Si Si5 0.586943 0.400519 0.583632
Si Si6 0.146065 0.791884 0.470034
Si Si7 0.379693 0.464827 0.154982
O O1 0.500000 0.630551 0.750000
O O2 0.676017 0.651394 0.608948
O O3 0.668158 0.686176 0.835228
O O4 0.693049 0.581784 0.786000
O O5 0.676732 0.707767 0.409218
O O6 0.871524 0.696347 0.568302
O O7 0.777472 0.616429 0.421636
O O8 0.500000 0.748314 0.250000
O O9 0.523782 0.735530 0.006546
O O10 0.825243 0.918290 0.798536
O O11 0.948811 0.900318 0.618788
O O12 0.810484 0.982225 0.621854
O O13 0.636229 0.345260 0.545231
O O14 0.583731 0.439659 0.470084
O O15 0.250000 0.750000 0.500000
O O16 0.500000 0.478296 0.250000
#
# Coordination Sequence:
#
# PCOD9261405 Si02
#       7
#     8   8   8   8   8   8   8
#     4  10  19  35  49  80 115 148 181 228 282 341
#     4  11  22  35  57  81 117 153 190 226 283 335
#     4  11  22  38  56  82 112 153 193 234 279 338
#     4  11  19  31  52  79 115 146 175 229 275 342
#     4  10  20  32  48  81 113 147 182 222 285 343
#     4  11  21  36  56  77 110 150 189 234 280 330
#     4  10  19  29  51  77 116 151 177 218 288 355
#
# _framework density 18.035895
#
# number of rings (size 3 to 8) (size 9 to 14) (size 15 to 20)
#    0.000    1.429    4.286    3.857    2.000    1.143 
#    0.000    0.000    0.000    0.000    0.000    9.000 
#    0.000    0.000    0.000    0.000    0.000    0.000 
#
# Total GULP energy -155997.194211 kJ/mol
# GULP energy per Si atom -5571.328365 kJ/mol
# Density = 1.799484 g / cm^3
# Si number density = 18.035895 Si / 1000 Ang^3
#
#
#
# Elastic Constant Matrix: (Units=GPa)
#
#
# Indices 1 2 3 4 5 6 
#
# 1 20.6901 21.3456 8.5180 0.0000 3.0848 0.0000
# 2 21.3456 126.0619 44.9266 0.0000 12.7547 0.0000
# 3 8.5180 44.9266 107.9215 0.0000 8.5925 0.0000
# 4 0.0000 0.0000 0.0000 18.1202 0.0000 18.4603
# 5 3.0848 12.7547 8.5925 0.0000 15.8663 0.0000
# 6 0.0000 0.0000 0.0000 18.4603 0.0000 13.3505
#
#
#
# Elastic Compliance Matrix: (Units=1/GPa)
#
#
# Indices 1 2 3 4 5 6 
#
# 1 0.058781 -0.009437 -0.000423 0.000000 -0.003613 0.000000
# 2 -0.009437 0.011337 -0.003548 0.000000 -0.005357 0.000000
# 3 -0.000423 -0.003548 0.011018 0.000000 -0.003032 0.000000
# 4 0.000000 0.000000 0.000000 -0.135030 0.000000 0.186713
# 5 -0.003613 -0.005357 -0.003032 0.000000 0.069678 0.000000
# 6 0.000000 0.000000 0.000000 0.186713 0.000000 -0.183273
#
#
# Mechanical properties :
#
#
# Convention : Reuss Voigt Hill
#
# Bulk Modulus (GPa) = 18.40961 44.91711 31.66336
# Shear Modulus (GPa) = -40.79421 21.45962 -9.66730
#
# Velocity S-wave (km/s) = -4.76103 3.45313 -2.31769
# Velocity P-wave (km/s) = 4.47145 6.39196 3.22980
#
# Compressibility (1/GPa) = 0.05431946
#
# Stress axis : x y z
#
# Youngs Moduli (GPa) = 17.01232 88.20626 90.76158
#
# Poissons Ratio (x) = 0.83238 0.03842
# Poissons Ratio (y) = 0.16054 0.32203
# Poissons Ratio (z) = 0.00720 0.31297
#
# Static dielectric constant tensor:
#      x y z
#    x 1.614350 0.000000 0.022160 
#    y 0.000000 1.687510 0.000000 
#    z 0.022160 0.000000 1.679330 
# 
# From -- ./inp_files/90406.got.cif
#   From: 2010.05.17/outbox.cif.g08.bks.cpg/sg15_46_cif.got.tgz:90406.got - 2010.06.03 18:47:42.
