data_PCOD9261632
_publ_section_title
;
Structure prediction by ZEFSAII (Michael W. Deem and Ramdas Pophale) SiO2 
 PCOD9261632
Probable space group: C 2/C
;
_chemical_formula_sum "Si O2"
_cell_formula_units_Z 48
_cell_length_a 13.081207
_cell_length_b 23.025470
_cell_length_c 12.519434
_cell_angle_alpha 90.000000
_cell_angle_beta 31.446319
_cell_angle_gamma 90.000000
_cell_volume 1967.258487
_symmetry_space_group_name_H-M "C 2/C"
_symmetry_group_IT_number 15
_symmetry_cell_setting 'monoclinic'
loop_
_space_group_symop_operation_xyz
x,y,z
-x,y,1/2-z
-x,-y,-z
x,-y,1/2+z
1/2+x,1/2+y,z
1/2-x,1/2+y,1/2-z
1/2-x,1/2-y,-z
1/2+x,1/2-y,1/2+z
loop_
_atom_site_type_symbol
_atom_site_label
_atom_site_fract_x
_atom_site_fract_y
_atom_site_fract_z
Si Si1 0.752375 0.393747 0.405376
Si Si2 0.214968 0.330410 0.326356
Si Si3 0.223816 0.984014 0.839064
Si Si4 0.229507 0.889634 0.019799
Si Si5 0.226450 0.888301 0.672895
Si Si6 0.671398 0.697305 0.402690
O O1 0.835235 0.346272 0.249829
O O2 0.806537 0.454945 0.303702
O O3 0.801563 0.387419 0.485453
O O4 0.512550 0.391375 0.619000
O O5 0.169642 0.379855 0.455188
O O6 0.156404 0.266024 0.412465
O O7 0.451503 0.326588 0.109890
O O8 0.295143 0.945331 0.676207
O O9 0.256308 0.942469 0.913708
O O10 0.000000 0.000000 0.000000
O O11 0.000000 0.894451 0.250000
O O12 0.272632 0.830685 0.915524
O O13 0.263844 0.831937 0.714329
#
# Coordination Sequence:
#
# PCOD9261632 Si02
#       6
#     8   8   8   8   8   8
#     4   9  17  25  42  65  94 125 154 191 233 291
#     4  10  19  31  47  70  97 126 161 192 235 275
#     4   9  16  24  41  64  96 128 145 188 245 292
#     4   9  17  27  44  68  95 124 152 192 236 283
#     4   8  16  28  39  63  93 123 157 187 239 277
#     4   9  18  32  46  66  97 126 157 200 229 277
#
# _framework density 24.399436000000001
#
# number of rings (size 3 to 8) (size 9 to 14) (size 15 to 20)
#    0.000    3.000    0.000    3.500    7.000    0.667 
#    0.000    0.000    0.000    0.000    0.000    4.667 
#   10.000    0.000    0.000    0.000    0.000    0.000 
#
# Total GULP energy -134009.889658 kJ/mol
# GULP energy per Si atom -5583.745402 kJ/mol
# Density = 2.434390 g / cm^3
# Si number density = 24.399436 Si / 1000 Ang^3
#
#
#
# Elastic Constant Matrix: (Units=GPa)
#
#
# Indices 1 2 3 4 5 6 
#
# 1 90.4308 4.0133 48.2610 -0.0010 18.0595 -0.0003
# 2 4.0133 68.6055 15.3385 0.0003 10.4206 0.0023
# 3 48.2610 15.3385 100.9185 -0.0008 19.1283 0.0010
# 4 -0.0010 0.0003 -0.0008 10.4576 0.0004 -3.6251
# 5 18.0595 10.4206 19.1283 0.0004 46.4312 0.0028
# 6 -0.0003 0.0023 0.0010 -3.6251 0.0028 13.7086
#
#
#
# Elastic Compliance Matrix: (Units=1/GPa)
#
#
# Indices 1 2 3 4 5 6 
#
# 1 0.015354 0.001155 -0.006874 0.000002 -0.003399 0.000002
# 2 0.001155 0.015482 -0.002345 -0.000001 -0.002958 -0.000002
# 3 -0.006874 -0.002345 0.014043 0.000001 -0.002585 0.000000
# 4 0.000002 -0.000001 0.000001 0.105275 -0.000003 0.027839
# 5 -0.003399 -0.002958 -0.002585 -0.000003 0.024588 -0.000005
# 6 0.000002 -0.000002 0.000000 0.027839 -0.000005 0.080308
#
#
# Mechanical properties :
#
#
# Convention : Reuss Voigt Hill
#
# Bulk Modulus (GPa) = 34.78075 43.90892 39.34484
# Shear Modulus (GPa) = 17.80872 26.94230 22.37551
#
# Velocity S-wave (km/s) = 2.70456 3.32658 3.03157
# Velocity P-wave (km/s) = 4.90291 5.72624 5.33050
#
# Compressibility (1/GPa) = 0.02875153
#
# Stress axis : x y z
#
# Youngs Moduli (GPa) = 65.12861 64.59094 71.21191
#
# Poissons Ratio (x) = -0.07460 0.48950
# Poissons Ratio (y) = -0.07522 0.16698
# Poissons Ratio (z) = 0.44769 0.15145
#
# Static dielectric constant tensor:
#      x y z
#    x 2.008300 0.000000 -0.070020 
#    y 0.000000 1.879680 0.000000 
#    z -0.070020 0.000000 1.990410 
# 
# From -- ./inp_files/99186.got.cif
#   From: 2010.05.17/outbox.cif.g08.bks.cpg/sg15_50_cif.got.tgz:99186.got - 2010.06.03 18:47:42.
