data_PCOD9261546
_publ_section_title
;
Structure prediction by ZEFSAII (Michael W. Deem and Ramdas Pophale) SiO2 
 PCOD9261546
Probable space group: C 2/C
;
_chemical_formula_sum "Si O2"
_cell_formula_units_Z 56
_cell_length_a 27.248127
_cell_length_b 7.804838
_cell_length_c 12.628433
_cell_angle_alpha 90.000000
_cell_angle_beta 126.208442
_cell_angle_gamma 90.000000
_cell_volume 2166.982220
_symmetry_space_group_name_H-M "C 2/C"
_symmetry_group_IT_number 15
_symmetry_cell_setting 'monoclinic'
loop_
_space_group_symop_operation_xyz
x,y,z
-x,y,1/2-z
-x,-y,-z
x,-y,1/2+z
1/2+x,1/2+y,z
1/2-x,1/2+y,1/2-z
1/2-x,1/2-y,-z
1/2+x,1/2-y,1/2+z
loop_
_atom_site_type_symbol
_atom_site_label
_atom_site_fract_x
_atom_site_fract_y
_atom_site_fract_z
Si Si1 0.119496 0.208615 0.672204
Si Si2 0.931080 0.053681 0.676453
Si Si3 0.821443 0.557426 0.767801
Si Si4 0.523135 0.831625 0.399594
Si Si5 0.248731 0.388791 0.142604
Si Si6 0.063004 0.288024 0.023761
Si Si7 0.292656 0.489951 0.970982
O O1 0.078620 0.138619 0.718230
O O2 0.144871 0.395924 0.741882
O O3 0.082360 0.229981 0.516651
O O4 0.181686 0.109416 0.727009
O O5 0.934681 0.181140 0.580452
O O6 0.863420 0.970637 0.577378
O O7 0.000000 0.975243 0.750000
O O8 0.801243 0.501932 0.859899
O O9 0.870029 0.702918 0.842395
O O10 0.756744 0.617241 0.642071
O O11 0.500000 0.849391 0.250000
O O12 0.475097 0.747377 0.419697
O O13 0.539031 0.025371 0.456734
O O14 0.220306 0.195737 0.101904
O O15 0.260779 0.454331 0.041992
#
# Coordination Sequence:
#
# PCOD9261546 Si02
#       7
#     8   8   8   8   8   8   8
#     4   9  20  32  52  82 102 142 178 221 269 311
#     4  11  18  33  57  78 110 133 188 227 257 315
#     4  10  19  30  52  76 110 132 174 221 270 310
#     4  10  20  31  46  74 111 137 171 208 281 338
#     4   9  17  34  53  72 105 139 181 224 254 320
#     4  10  20  29  49  79 102 142 168 221 272 319
#     4   9  19  32  52  80  99 143 182 216 268 308
#
# _framework density 25.842390999999999
#
# number of rings (size 3 to 8) (size 9 to 14) (size 15 to 20)
#    0.000    2.286    2.857    1.286    4.000    1.143 
#    0.000    0.000    3.143    6.857    0.000    0.000 
#    0.000    0.000    0.000    0.000    0.000    0.000 
#
# Total GULP energy -156075.183215 kJ/mol
# GULP energy per Si atom -5574.113686 kJ/mol
# Density = 2.578357 g / cm^3
# Si number density = 25.842391 Si / 1000 Ang^3
#
#
#
# Elastic Constant Matrix: (Units=GPa)
#
#
# Indices 1 2 3 4 5 6 
#
# 1 120.2772 -3.5825 46.8759 0.0000 15.9612 0.0000
# 2 -3.5825 32.2543 4.6877 0.0000 -6.0374 0.0000
# 3 46.8759 4.6877 162.3734 0.0000 21.5565 0.0000
# 4 0.0000 0.0000 0.0000 7.2043 0.0000 -3.8356
# 5 15.9612 -6.0374 21.5565 0.0000 40.3056 0.0000
# 6 0.0000 0.0000 0.0000 -3.8356 0.0000 28.5988
#
#
#
# Elastic Compliance Matrix: (Units=1/GPa)
#
#
# Indices 1 2 3 4 5 6 
#
# 1 0.009626 0.000997 -0.002499 0.000000 -0.002326 0.000000
# 2 0.000997 0.032430 -0.001955 0.000000 0.005509 0.000000
# 3 -0.002499 -0.001955 0.007367 0.000000 -0.003243 0.000000
# 4 0.000000 0.000000 0.000000 0.149479 0.000000 0.020048
# 5 -0.002326 0.005509 -0.003243 0.000000 0.028291 0.000000
# 6 0.000000 0.000000 0.000000 0.020048 0.000000 0.037655
#
#
# Mechanical properties :
#
#
# Convention : Reuss Voigt Hill
#
# Bulk Modulus (GPa) = 23.52476 45.65191 34.58833
# Shear Modulus (GPa) = 17.48657 33.01667 25.25162
#
# Velocity S-wave (km/s) = 2.60410 3.57825 3.12931
# Velocity P-wave (km/s) = 4.26200 5.89710 5.14492
#
# Compressibility (1/GPa) = 0.04250841
#
# Stress axis : x y z
#
# Youngs Moduli (GPa) = 103.88020 30.83593 135.73790
#
# Poissons Ratio (x) = -0.03074 0.33921
# Poissons Ratio (y) = -0.10357 0.26542
# Poissons Ratio (z) = 0.25960 0.06030
#
# Static dielectric constant tensor:
#      x y z
#    x 2.038850 0.000000 -0.024180 
#    y 0.000000 2.082450 0.000000 
#    z -0.024180 0.000000 2.192540 
# 
# From -- ./inp_files/117656.got.cif
#   From: 2010.05.17/outbox.cif.g08.bks.cpg/sg15_59_cif.got.tgz:117656.got - 2010.06.03 18:47:42.
