data_PCOD9261517
_publ_section_title
;
Structure prediction by ZEFSAII (Michael W. Deem and Ramdas Pophale) SiO2 
 PCOD9261517
Probable space group: C 2/C
;
_chemical_formula_sum "Si O2"
_cell_formula_units_Z 56
_cell_length_a 16.022803
_cell_length_b 7.319913
_cell_length_c 27.424232
_cell_angle_alpha 90.000000
_cell_angle_beta 132.031894
_cell_angle_gamma 90.000000
_cell_volume 2389.101209
_symmetry_space_group_name_H-M "C 2/C"
_symmetry_group_IT_number 15
_symmetry_cell_setting 'monoclinic'
loop_
_space_group_symop_operation_xyz
x,y,z
-x,y,1/2-z
-x,-y,-z
x,-y,1/2+z
1/2+x,1/2+y,z
1/2-x,1/2+y,1/2-z
1/2-x,1/2-y,-z
1/2+x,1/2-y,1/2+z
loop_
_atom_site_type_symbol
_atom_site_label
_atom_site_fract_x
_atom_site_fract_y
_atom_site_fract_z
Si Si1 0.467390 0.931527 0.112501
Si Si2 0.343874 0.582481 0.149528
Si Si3 0.116748 0.386166 0.588683
Si Si4 0.075027 0.888730 0.708362
Si Si5 0.784905 0.495339 0.603114
Si Si6 0.169289 0.002582 0.649571
Si Si7 0.930522 0.156993 0.021960
O O1 0.547253 0.819182 0.180921
O O2 0.542509 0.013209 0.098931
O O3 0.386511 0.071227 0.109308
O O4 0.394413 0.784439 0.052854
O O5 0.218571 0.500357 0.103382
O O6 0.384394 0.589990 0.221103
O O7 0.450370 0.516196 0.159619
O O8 0.321125 0.791108 0.123666
O O9 0.054503 0.285394 0.519749
O O10 0.169631 0.217824 0.639996
O O11 0.164874 0.961103 0.704726
O O12 0.763132 0.423709 0.649313
O O13 0.665160 0.510605 0.529208
O O14 0.048393 0.929482 0.583464
#
# Coordination Sequence:
#
# PCOD9261517 Si02
#       7
#     8   8   8   8   8   8   8
#     4  10  19  30  50  74  95 121 159 199 231 270
#     4   8  17  32  52  70  90 121 161 194 228 280
#     4  10  19  31  47  72 100 121 151 201 240 268
#     4   9  17  33  53  70  88 123 163 191 228 286
#     4   9  17  31  50  72  96 125 155 194 236 278
#     4   9  18  32  49  67  96 130 156 186 235 289
#     4   9  17  33  49  67  94 131 162 187 227 285
#
# _framework density 23.439775999999998
#
# number of rings (size 3 to 8) (size 9 to 14) (size 15 to 20)
#    0.000    3.143    0.000    2.571    0.000    3.429 
#    0.000    5.714    0.000    6.857    0.000    0.000 
#    0.000    0.000    0.000    0.000    0.000    0.000 
#
# Total GULP energy -155975.172598 kJ/mol
# GULP energy per Si atom -5570.541878 kJ/mol
# Density = 2.338643 g / cm^3
# Si number density = 23.439776 Si / 1000 Ang^3
#
#
#
# Elastic Constant Matrix: (Units=GPa)
#
#
# Indices 1 2 3 4 5 6 
#
# 1 172.8504 7.8006 9.6522 0.0000 -18.0170 0.0000
# 2 7.8006 24.8341 -3.8732 0.0000 -0.9089 0.0000
# 3 9.6522 -3.8732 29.3988 0.0000 -17.9868 0.0000
# 4 0.0000 0.0000 0.0000 9.3142 0.0000 -5.4540
# 5 -18.0170 -0.9089 -17.9868 0.0000 32.3145 0.0000
# 6 0.0000 0.0000 0.0000 -5.4540 0.0000 23.5894
#
#
#
# Elastic Compliance Matrix: (Units=1/GPa)
#
#
# Indices 1 2 3 4 5 6 
#
# 1 0.006226 -0.001884 -0.000305 0.000000 0.003249 0.000000
# 2 -0.001884 0.042553 0.009575 0.000000 0.005476 0.000000
# 3 -0.000305 0.009575 0.053738 0.000000 0.030011 0.000000
# 4 0.000000 0.000000 0.000000 0.124175 0.000000 0.028710
# 5 0.003249 0.005476 0.030011 0.000000 0.049616 0.000000
# 6 0.000000 0.000000 0.000000 0.028710 0.000000 0.049030
#
#
# Mechanical properties :
#
#
# Convention : Reuss Voigt Hill
#
# Bulk Modulus (GPa) = 8.52597 28.24918 18.38757
# Shear Modulus (GPa) = 14.29956 27.27718 20.78837
#
# Velocity S-wave (km/s) = 2.47261 3.41502 2.98129
# Velocity P-wave (km/s) = 3.43468 5.25622 4.43987
#
# Compressibility (1/GPa) = 0.11728872
#
# Stress axis : x y z
#
# Youngs Moduli (GPa) = 160.61596 23.50022 18.60890
#
# Poissons Ratio (x) = 0.04428 0.00567
# Poissons Ratio (y) = 0.30265 -0.17818
# Poissons Ratio (z) = 0.04895 -0.22502
#
# Static dielectric constant tensor:
#      x y z
#    x 2.074970 0.000000 0.037880 
#    y 0.000000 1.977760 0.000000 
#    z 0.037880 0.000000 1.913650 
# 
# From -- ./inp_files/276055.got.cif
#   From: 2010.05.17/outbox.cif.g08.bks.cpg/sg15_139_cif.got.tgz:276055.got - 2010.06.03 18:47:42.
