data_PCOD9261922
_publ_section_title
;
Structure prediction by ZEFSAII (Michael W. Deem and Ramdas Pophale) SiO2 
 PCOD9261922
Probable space group: C 2/C
;
_chemical_formula_sum "Si O2"
_cell_formula_units_Z 44
_cell_length_a 12.895846
_cell_length_b 19.704918
_cell_length_c 7.679601
_cell_angle_alpha 90.000000
_cell_angle_beta 57.962370
_cell_angle_gamma 90.000000
_cell_volume 1654.265635
_symmetry_space_group_name_H-M "C 2/C"
_symmetry_group_IT_number 15
_symmetry_cell_setting 'monoclinic'
loop_
_space_group_symop_operation_xyz
x,y,z
-x,y,1/2-z
-x,-y,-z
x,-y,1/2+z
1/2+x,1/2+y,z
1/2-x,1/2+y,1/2-z
1/2-x,1/2-y,-z
1/2+x,1/2-y,1/2+z
loop_
_atom_site_type_symbol
_atom_site_label
_atom_site_fract_x
_atom_site_fract_y
_atom_site_fract_z
Si Si1 0.869819 0.574651 0.698828
Si Si2 0.000000 0.696127 0.750000
Si Si3 0.658526 0.212591 0.277390
Si Si4 0.780059 0.005604 0.937283
Si Si5 0.631725 0.388969 0.852308
Si Si6 0.500000 0.099869 0.250000
Si Si7 0.000000 0.819092 0.250000
O O1 0.749189 0.554939 0.698258
O O2 0.973413 0.567440 0.460183
O O3 0.897333 0.648172 0.751248
O O4 0.849154 0.526649 0.882523
O O5 0.071009 0.727930 0.523084
O O6 0.782109 0.178102 0.244046
O O7 0.610353 0.150158 0.201438
O O8 0.623297 0.274689 0.178908
O O9 0.861264 0.939283 0.819620
O O10 0.822840 0.056310 0.045942
O O11 0.515492 0.361505 0.059314
#
# Coordination Sequence:
#
# PCOD9261922 Si02
#       7
#     8   4   8   8   8   4   4
#     4  10  19  32  49  92 124 169 188 257 314 384
#     4  10  20  35  59  89 132 151 214 252 322 376
#     4  10  20  42  62  95 124 164 215 265 306 381
#     4  10  22  36  61  89 133 161 208 260 325 372
#     4  11  22  45  63 100 123 169 211 265 320 380
#     4   9  18  31  58  86 130 155 207 244 322 377
#     4  11  26  42  73  83 126 178 219 258 316 365
#
# _framework density 26.597905000000001
#
# number of rings (size 3 to 8) (size 9 to 14) (size 15 to 20)
#    0.000    1.818    3.636    0.545    0.000    2.909 
#    0.000    4.545    0.000    0.000    0.000    0.000 
#    0.000    0.000    0.000    0.000    0.000    0.000 
#
# Total GULP energy -122471.814197 kJ/mol
# GULP energy per Si atom -5566.900645 kJ/mol
# Density = 2.653737 g / cm^3
# Si number density = 26.597905 Si / 1000 Ang^3
#
#
#
# Elastic Constant Matrix: (Units=GPa)
#
#
# Indices 1 2 3 4 5 6 
#
# 1 6.7593 -7.4615 17.2905 0.0000 -9.2619 0.0000
# 2 -7.4615 74.7467 52.7330 0.0000 -17.2491 0.0000
# 3 17.2905 52.7330 132.4042 0.0000 12.3271 0.0000
# 4 0.0000 0.0000 0.0000 21.2707 0.0000 28.7141
# 5 -9.2619 -17.2491 12.3271 0.0000 36.3745 0.0000
# 6 0.0000 0.0000 0.0000 28.7141 0.0000 -21.9246
#
#
#
# Elastic Compliance Matrix: (Units=1/GPa)
#
#
# Indices 1 2 3 4 5 6 
#
# 1 -0.098715 -0.052540 0.039730 0.000000 -0.063515 0.000000
# 2 -0.052540 -0.002842 0.009669 0.000000 -0.018003 0.000000
# 3 0.039730 0.009669 -0.002948 0.000000 0.015701 0.000000
# 4 0.000000 0.000000 0.000000 0.016985 0.000000 0.022244
# 5 -0.063515 -0.018003 0.015701 0.000000 -0.002539 0.000000
# 6 0.000000 0.000000 0.000000 0.022244 0.000000 -0.016478
#
#
# Mechanical properties :
#
#
# Convention : Reuss Voigt Hill
#
# Bulk Modulus (GPa) = -9.02626 37.67047 14.32211
# Shear Modulus (GPa) = -36.44722 17.23400 -9.60661
#
# Velocity S-wave (km/s) = -3.70578 2.54824 -1.90253
# Velocity P-wave (km/s) = 4.65954 4.78035 0.75511
#
# Compressibility (1/GPa) = -0.11078792
#
# Stress axis : x y z
#
# Youngs Moduli (GPa) = -10.13017 -351.83391 -339.16787
#
# Poissons Ratio (x) = -18.48539 13.47505
# Poissons Ratio (y) = -0.53224 3.27950
# Poissons Ratio (z) = 0.40247 3.40197
#
# Static dielectric constant tensor:
#      x y z
#    x 2.172010 0.000000 -0.085550 
#    y 0.000000 2.150560 0.000000 
#    z -0.085550 0.000000 2.355380 
# 
# From -- ./inp_files/48916.got.cif
#   From: 2010.05.17/outbox.cif.g08.bks.cpg/sg15_25_cif.got.tgz:48916.got - 2010.06.03 18:47:42.
