data_PCOD9261528
_publ_section_title
;
Structure prediction by ZEFSAII (Michael W. Deem and Ramdas Pophale) SiO2 
 PCOD9261528
Probable space group: C 2/C
;
_chemical_formula_sum "Si O2"
_cell_formula_units_Z 52
_cell_length_a 18.891090
_cell_length_b 8.617937
_cell_length_c 25.648666
_cell_angle_alpha 90.000000
_cell_angle_beta 141.009625
_cell_angle_gamma 90.000000
_cell_volume 2627.282718
_symmetry_space_group_name_H-M "C 2/C"
_symmetry_group_IT_number 15
_symmetry_cell_setting 'monoclinic'
loop_
_space_group_symop_operation_xyz
x,y,z
-x,y,1/2-z
-x,-y,-z
x,-y,1/2+z
1/2+x,1/2+y,z
1/2-x,1/2+y,1/2-z
1/2-x,1/2-y,-z
1/2+x,1/2-y,1/2+z
loop_
_atom_site_type_symbol
_atom_site_label
_atom_site_fract_x
_atom_site_fract_y
_atom_site_fract_z
Si Si1 0.164790 0.382565 0.804702
Si Si2 0.191855 0.189500 0.714172
Si Si3 0.055587 0.391236 0.174970
Si Si4 0.503591 0.460823 0.643893
Si Si5 0.402178 0.432666 0.982293
Si Si6 0.000000 0.856814 0.250000
Si Si7 0.991063 0.390553 0.944842
O O1 0.192349 0.291469 0.766844
O O2 0.071917 0.509510 0.736205
O O3 0.278493 0.460164 0.889579
O O4 0.108796 0.254275 0.809185
O O5 0.316621 0.142060 0.770958
O O6 0.117825 0.036580 0.684755
O O7 0.125067 0.294296 0.633221
O O8 0.995479 0.499163 0.097681
O O9 0.004388 0.222507 0.151631
O O10 0.415830 0.501297 0.548155
O O11 0.490625 0.543746 0.691994
O O12 0.500000 0.500000 0.000000
O O13 0.420264 0.247560 0.997211
O O14 0.000000 0.500000 0.000000
#
# Coordination Sequence:
#
# PCOD9261528 Si02
#       7
#     8   8   8   8   8   4   8
#     4  10  21  37  60  82 115 158 199 239 284 358
#     4   9  18  33  54  84 117 152 190 242 307 353
#     4  11  20  34  59  87 114 149 194 248 301 349
#     4  10  21  37  57  82 119 153 194 243 288 352
#     4  11  21  36  60  92 121 148 187 249 311 343
#     4  10  24  44  58  78 114 170 208 226 278 346
#     4  10  19  30  50  83 122 149 181 233 296 361
#
# _framework density 19.792313
#
# number of rings (size 3 to 8) (size 9 to 14) (size 15 to 20)
#    0.000    1.846    0.000    7.385    0.000    2.462 
#    0.000    0.000    0.000    2.769    0.000    0.000 
#    0.000    0.000    0.000    0.000    0.000    0.000 
#
# Total GULP energy -145146.772478 kJ/mol
# GULP energy per Si atom -5582.568172 kJ/mol
# Density = 1.974726 g / cm^3
# Si number density = 19.792313 Si / 1000 Ang^3
#
#
#
# Elastic Constant Matrix: (Units=GPa)
#
#
# Indices 1 2 3 4 5 6 
#
# 1 53.6301 28.5109 27.5182 0.0000 -16.8569 0.0000
# 2 28.5109 150.5109 39.6573 0.0000 -23.0107 0.0000
# 3 27.5182 39.6573 108.7540 0.0000 -24.3908 0.0000
# 4 0.0000 0.0000 0.0000 34.3867 0.0000 -4.4447
# 5 -16.8569 -23.0107 -24.3908 0.0000 17.4481 0.0000
# 6 0.0000 0.0000 0.0000 -4.4447 0.0000 18.4960
#
#
#
# Elastic Compliance Matrix: (Units=1/GPa)
#
#
# Indices 1 2 3 4 5 6 
#
# 1 0.027141 -0.001337 -0.001303 0.000000 0.022636 0.000000
# 2 -0.001337 0.008440 -0.000776 0.000000 0.008754 0.000000
# 3 -0.001303 -0.000776 0.013541 0.000000 0.016647 0.000000
# 4 0.000000 0.000000 0.000000 0.030013 0.000000 0.007212
# 5 0.022636 0.008754 0.016647 0.000000 0.113998 0.000000
# 6 0.000000 0.000000 0.000000 0.007212 0.000000 0.055799
#
#
# Mechanical properties :
#
#
# Convention : Reuss Voigt Hill
#
# Bulk Modulus (GPa) = 23.64657 56.02975 39.83816
# Shear Modulus (GPa) = 18.52806 28.54675 23.53740
#
# Velocity S-wave (km/s) = 3.06293 3.80190 3.45225
# Velocity P-wave (km/s) = 4.94793 6.90238 6.00520
#
# Compressibility (1/GPa) = 0.04228944
#
# Stress axis : x y z
#
# Youngs Moduli (GPa) = 36.84508 118.48059 73.84833
#
# Poissons Ratio (x) = 0.15843 0.09624
# Poissons Ratio (y) = 0.04927 0.05731
# Poissons Ratio (z) = 0.04802 0.09194
#
# Static dielectric constant tensor:
#      x y z
#    x 1.700590 0.000000 -0.006830 
#    y 0.000000 1.721580 0.000000 
#    z -0.006830 0.000000 1.708030 
# 
# From -- ./inp_files/279520.got.cif
#   From: 2010.05.17/outbox.cif.g08.bks.cpg/sg15_140_cif.got.tgz:279520.got - 2010.06.03 18:47:42.
