data_PCOD9261997
_publ_section_title
;
Structure prediction by ZEFSAII (Michael W. Deem and Ramdas Pophale) SiO2 
 PCOD9261997
Probable space group: C 2/C
;
_chemical_formula_sum "Si O2"
_cell_formula_units_Z 60
_cell_length_a 14.554432
_cell_length_b 29.789274
_cell_length_c 19.314901
_cell_angle_alpha 90.000000
_cell_angle_beta 160.490374
_cell_angle_gamma 90.000000
_cell_volume 2796.719509
_symmetry_space_group_name_H-M "C 2/C"
_symmetry_group_IT_number 15
_symmetry_cell_setting 'monoclinic'
loop_
_space_group_symop_operation_xyz
x,y,z
-x,y,1/2-z
-x,-y,-z
x,-y,1/2+z
1/2+x,1/2+y,z
1/2-x,1/2+y,1/2-z
1/2-x,1/2-y,-z
1/2+x,1/2-y,1/2+z
loop_
_atom_site_type_symbol
_atom_site_label
_atom_site_fract_x
_atom_site_fract_y
_atom_site_fract_z
Si Si1 0.836133 0.942788 0.062268
Si Si2 0.357778 0.408419 0.798133
Si Si3 0.699543 0.272945 0.071763
Si Si4 0.138987 0.423993 0.139581
Si Si5 0.822771 0.181860 0.191211
Si Si6 0.469397 0.351489 0.447198
Si Si7 0.000000 0.633247 0.250000
Si Si8 0.756960 0.460378 0.985108
O O1 0.000000 0.934410 0.250000
O O2 0.079938 0.949582 0.179368
O O3 0.666865 0.988757 0.943205
O O4 0.651251 0.900468 0.910984
O O5 0.273062 0.364301 0.693925
O O6 0.626634 0.432105 0.955738
O O7 0.076579 0.434658 0.577033
O O8 0.438878 0.389857 0.931074
O O9 0.611575 0.221603 0.024384
O O10 0.660540 0.309694 0.104215
O O11 0.000000 0.272414 0.250000
O O12 0.510966 0.290898 0.877374
O O13 0.260798 0.374249 0.244304
O O14 0.991287 0.437599 0.105933
O O15 0.000000 0.169819 0.250000
O O16 0.755697 0.339541 0.612779
O O17 0.500000 0.464096 0.750000
#
# Coordination Sequence:
#
# PCOD9261997 Si02
#       8
#     8   8   8   8   8   8   4   8
#     4  10  21  37  58  78 108 146 188 231 271 328
#     4  10  21  35  55  83 114 145 178 228 277 330
#     4  10  21  32  54  84 112 146 176 224 275 332
#     4  10  21  35  56  80 107 152 180 224 283 322
#     4  10  19  32  51  82 117 145 174 220 274 335
#     4  10  23  36  58  81 109 146 188 229 271 332
#     4  10  22  42  56  82 108 144 194 232 276 316
#     4   9  20  35  53  82 116 142 181 230 273 329
#
# _framework density 21.453706
#
# number of rings (size 3 to 8) (size 9 to 14) (size 15 to 20)
#    0.000    2.133    0.000    3.600    7.467    6.933 
#    0.000    2.667    0.000    3.200    1.733    0.000 
#    0.000    0.000    0.000    0.000    0.000    0.000 
#
# Total GULP energy -167216.527689 kJ/mol
# GULP energy per Si atom -5573.884256 kJ/mol
# Density = 2.140488 g / cm^3
# Si number density = 21.453706 Si / 1000 Ang^3
#
#
#
# Elastic Constant Matrix: (Units=GPa)
#
#
# Indices 1 2 3 4 5 6 
#
# 1 58.5041 6.3044 21.1363 0.0119 3.9495 0.0067
# 2 6.3044 46.5263 6.5758 0.0059 12.0115 0.0180
# 3 21.1363 6.5758 70.0394 0.0556 -1.4542 0.0904
# 4 0.0119 0.0059 0.0556 4.3486 0.0217 -19.8052
# 5 3.9495 12.0115 -1.4542 0.0217 42.0275 0.0167
# 6 0.0067 0.0180 0.0904 -19.8052 0.0167 10.2503
#
#
#
# Elastic Compliance Matrix: (Units=1/GPa)
#
#
# Indices 1 2 3 4 5 6 
#
# 1 0.019437 -0.001399 -0.005768 -0.000029 -0.001626 -0.000013
# 2 -0.001399 0.023688 -0.001941 0.000004 -0.006706 -0.000006
# 3 -0.005768 -0.001941 0.016235 0.000106 0.001659 0.000067
# 4 -0.000029 0.000004 0.000106 -0.029482 0.000043 -0.056965
# 5 -0.001626 -0.006706 0.001659 0.000043 0.025921 0.000040
# 6 -0.000013 -0.000006 0.000067 -0.056965 0.000040 -0.012507
#
#
# Mechanical properties :
#
#
# Convention : Reuss Voigt Hill
#
# Bulk Modulus (GPa) = 24.30457 27.01143 25.65800
# Shear Modulus (GPa) = 66.46941 20.72883 43.59912
#
# Velocity S-wave (km/s) = 5.57225 3.11177 4.51293
# Velocity P-wave (km/s) = 7.26315 5.05259 6.25628
#
# Compressibility (1/GPa) = 0.04114453
#
# Stress axis : x y z
#
# Youngs Moduli (GPa) = 51.44758 42.21485 61.59573
#
# Poissons Ratio (x) = 0.05904 0.35529
# Poissons Ratio (y) = 0.07196 0.11957
# Poissons Ratio (z) = 0.29676 0.08195
#
# Static dielectric constant tensor:
#      x y z
#    x 1.841370 0.000020 -0.122280 
#    y 0.000020 2.157470 0.000000 
#    z -0.122280 0.000000 1.144850 
# 
# From -- ./inp_files/245936.got.cif
#   From: 2010.05.17/outbox.cif.g08.bks.cpg/sg15_123_cif.got.tgz:245936.got - 2010.06.03 18:47:42.
