data_PCOD9261797
_publ_section_title
;
Structure prediction by ZEFSAII (Michael W. Deem and Ramdas Pophale) SiO2 
 PCOD9261797
Probable space group: C 2/C
;
_chemical_formula_sum "Si O2"
_cell_formula_units_Z 48
_cell_length_a 20.059487
_cell_length_b 5.500578
_cell_length_c 28.001387
_cell_angle_alpha 90.000000
_cell_angle_beta 133.630688
_cell_angle_gamma 90.000000
_cell_volume 2236.287870
_symmetry_space_group_name_H-M "C 2/C"
_symmetry_group_IT_number 15
_symmetry_cell_setting 'monoclinic'
loop_
_space_group_symop_operation_xyz
x,y,z
-x,y,1/2-z
-x,-y,-z
x,-y,1/2+z
1/2+x,1/2+y,z
1/2-x,1/2+y,1/2-z
1/2-x,1/2-y,-z
1/2+x,1/2-y,1/2+z
loop_
_atom_site_type_symbol
_atom_site_label
_atom_site_fract_x
_atom_site_fract_y
_atom_site_fract_z
Si Si1 0.328138 0.979125 0.563890
Si Si2 0.652888 0.659538 0.506551
Si Si3 0.593286 0.689486 0.763989
Si Si4 0.451231 0.248029 0.458629
Si Si5 0.006091 0.135781 0.882867
Si Si6 0.110859 0.301692 0.309706
O O1 0.313622 0.108935 0.506243
O O2 0.225091 0.940354 0.533371
O O3 0.366914 0.157648 0.624069
O O4 0.407407 0.783212 0.596317
O O5 0.641205 0.725683 0.555917
O O6 0.556627 0.594920 0.432280
O O7 0.500000 0.709089 0.750000
O O8 0.563298 0.621132 0.695515
O O9 0.648057 0.457468 0.810811
O O10 0.638311 0.954592 0.794069
O O11 0.500000 0.500000 0.500000
O O12 0.455938 0.243499 0.403747
O O13 0.500000 0.000000 0.500000
O O14 0.000000 0.283555 0.250000
#
# Coordination Sequence:
#
# PCOD9261797 Si02
#       6
#     8   8   8   8   8   8
#     4  11  20  34  57  83 119 144 186 242 293 341
#     4  10  22  35  53  86 116 151 181 236 298 343
#     4  10  19  31  54  77 109 136 189 233 272 320
#     4  10  21  37  56  78 115 152 193 225 277 352
#     4  11  20  35  58  82 114 151 194 236 287 350
#     4  10  19  33  50  81 108 142 181 231 280 326
#
# _framework density 21.464143
#
# number of rings (size 3 to 8) (size 9 to 14) (size 15 to 20)
#    0.000    1.667    5.000    2.500    0.000    0.000 
#    0.000    0.000    0.000    2.000    0.000    0.000 
#    0.000    0.000    0.000    0.000    0.000    0.000 
#
# Total GULP energy -133618.954273 kJ/mol
# GULP energy per Si atom -5567.456428 kJ/mol
# Density = 2.141529 g / cm^3
# Si number density = 21.464143 Si / 1000 Ang^3
#
#
#
# Elastic Constant Matrix: (Units=GPa)
#
#
# Indices 1 2 3 4 5 6 
#
# 1 77.2856 10.3095 28.6813 -0.0022 -29.7404 0.0045
# 2 10.3095 111.8857 -2.9494 -0.0074 -4.8886 0.0100
# 3 28.6813 -2.9494 87.0926 -0.0012 -26.4536 0.0001
# 4 -0.0022 -0.0074 -0.0012 30.2996 0.0009 -4.7653
# 5 -29.7404 -4.8886 -26.4536 0.0009 31.8934 -0.0023
# 6 0.0045 0.0100 0.0001 -4.7653 -0.0023 5.4824
#
#
#
# Elastic Compliance Matrix: (Units=1/GPa)
#
#
# Indices 1 2 3 4 5 6 
#
# 1 0.020425 -0.001144 -0.001381 -0.000001 0.017725 -0.000008
# 2 -0.001144 0.009123 0.001051 0.000000 0.001204 -0.000015
# 3 -0.001381 0.001051 0.015547 0.000001 0.011769 0.000005
# 4 -0.000001 0.000000 0.000001 0.038230 0.000002 0.033229
# 5 0.017725 0.001204 0.011769 0.000002 0.057829 0.000009
# 6 -0.000008 -0.000015 0.000005 0.033229 0.000009 0.211283
#
#
# Mechanical properties :
#
#
# Convention : Reuss Voigt Hill
#
# Bulk Modulus (GPa) = 23.72606 38.70519 31.21563
# Shear Modulus (GPa) = 13.53423 29.54994 21.54208
#
# Velocity S-wave (km/s) = 2.51380 3.71443 3.17145
# Velocity P-wave (km/s) = 4.41627 6.03884 5.29013
#
# Compressibility (1/GPa) = 0.04214774
#
# Stress axis : x y z
#
# Youngs Moduli (GPa) = 48.95947 109.60819 64.32073
#
# Poissons Ratio (x) = 0.12539 0.08884
# Poissons Ratio (y) = 0.05601 -0.06762
# Poissons Ratio (z) = 0.06762 -0.11523
#
# Static dielectric constant tensor:
#      x y z
#    x 1.761520 -0.000040 0.020820 
#    y -0.000040 1.847470 0.000000 
#    z 0.020820 0.000000 1.799280 
# 
# From -- ./inp_files/250797.got.cif
#   From: 2010.05.17/outbox.cif.g08.bks.cpg/sg15_126_cif.got.tgz:250797.got - 2010.06.03 18:47:42.
