data_PCOD9261931
_publ_section_title
;
Structure prediction by ZEFSAII (Michael W. Deem and Ramdas Pophale) SiO2 
 PCOD9261931
Probable space group: C 2/C
;
_chemical_formula_sum "Si O2"
_cell_formula_units_Z 40
_cell_length_a 5.188626
_cell_length_b 24.887672
_cell_length_c 24.093157
_cell_angle_alpha 90.000000
_cell_angle_beta 131.721620
_cell_angle_gamma 90.000000
_cell_volume 2322.172533
_symmetry_space_group_name_H-M "C 2/C"
_symmetry_group_IT_number 15
_symmetry_cell_setting 'monoclinic'
loop_
_space_group_symop_operation_xyz
x,y,z
-x,y,1/2-z
-x,-y,-z
x,-y,1/2+z
1/2+x,1/2+y,z
1/2-x,1/2+y,1/2-z
1/2-x,1/2-y,-z
1/2+x,1/2-y,1/2+z
loop_
_atom_site_type_symbol
_atom_site_label
_atom_site_fract_x
_atom_site_fract_y
_atom_site_fract_z
Si Si1 0.162335 0.189082 0.333521
Si Si2 0.831745 0.555342 0.457710
Si Si3 0.887064 0.924223 0.797076
Si Si4 0.859264 0.231476 0.954597
Si Si5 0.849334 0.127379 0.467377
O O1 0.154973 0.238062 0.376237
O O2 0.554693 0.162705 0.391242
O O3 0.000000 0.203153 0.250000
O O4 0.935239 0.138355 0.321045
O O5 0.632860 0.543201 0.372177
O O6 0.559356 0.585056 0.459608
O O7 0.000000 0.500000 0.500000
O O8 0.128132 0.597199 0.482467
O O9 0.500000 0.941139 0.750000
O O10 0.000000 0.927524 0.750000
O O11 0.883782 0.167461 0.964236
O O12 0.750000 0.250000 0.000000
O O13 0.250000 0.250000 0.000000
#
# Coordination Sequence:
#
# PCOD9261931 Si02
#       5
#     8   8   8   8   8
#     4   9  18  31  52  79 106 133 168 209 260 315
#     4  11  21  35  55  76  99 136 179 217 255 301
#     4  10  19  32  50  76 104 126 159 216 268 302
#     4  10  19  32  50  73 105 139 162 194 254 315
#     4  10  20  34  51  76 108 134 168 216 257 299
#
# _framework density 17.225247
#
# number of rings (size 3 to 8) (size 9 to 14) (size 15 to 20)
#    0.000    2.000    0.000    7.800    0.000    3.200 
#    0.000    0.000    0.000    3.600    0.000    0.000 
#    0.000    0.000    0.000    0.000    0.000    0.000 
#
# Total GULP energy -111372.787442 kJ/mol
# GULP energy per Si atom -5568.639372 kJ/mol
# Density = 1.718604 g / cm^3
# Si number density = 17.225247 Si / 1000 Ang^3
#
#
#
# Elastic Constant Matrix: (Units=GPa)
#
#
# Indices 1 2 3 4 5 6 
#
# 1 92.9173 27.6590 17.3882 0.0000 -2.7687 0.0000
# 2 27.6590 74.8686 66.6796 0.0000 -4.1718 0.0000
# 3 17.3882 66.6796 120.6351 0.0000 -14.1368 0.0000
# 4 0.0000 0.0000 0.0000 39.0060 0.0000 0.4102
# 5 -2.7687 -4.1718 -14.1368 0.0000 17.6044 0.0000
# 6 0.0000 0.0000 0.0000 0.4102 0.0000 21.0246
#
#
#
# Elastic Compliance Matrix: (Units=1/GPa)
#
#
# Indices 1 2 3 4 5 6 
#
# 1 0.012277 -0.006015 0.001782 0.000000 0.001936 0.000000
# 2 -0.006015 0.029842 -0.016459 0.000000 -0.007091 0.000000
# 3 0.001782 -0.016459 0.018441 0.000000 0.011189 0.000000
# 4 0.000000 0.000000 0.000000 0.025642 0.000000 -0.000500
# 5 0.001936 -0.007091 0.011189 0.000000 0.064413 0.000000
# 6 0.000000 0.000000 0.000000 -0.000500 0.000000 0.047573
#
#
# Mechanical properties :
#
#
# Convention : Reuss Voigt Hill
#
# Bulk Modulus (GPa) = 52.14570 56.87497 54.51033
# Shear Modulus (GPa) = 20.32806 27.30660 23.81733
#
# Velocity S-wave (km/s) = 3.43903 3.98586 3.72250
# Velocity P-wave (km/s) = 6.79027 7.36701 7.08451
#
# Compressibility (1/GPa) = 0.01917704
#
# Stress axis : x y z
#
# Youngs Moduli (GPa) = 81.45393 33.50931 54.22579
#
# Poissons Ratio (x) = 0.20154 -0.09662
# Poissons Ratio (y) = 0.48991 0.89251
# Poissons Ratio (z) = -0.14513 0.55153
#
# Static dielectric constant tensor:
#      x y z
#    x 1.602510 0.000000 0.008670 
#    y 0.000000 1.609700 0.000000 
#    z 0.008670 0.000000 1.625430 
# 
# From -- ./inp_files/227641.got.cif
#   From: 2010.05.17/outbox.cif.g08.bks.cpg/sg15_114_cif.got.tgz:227641.got - 2010.06.03 18:47:42.
