data_PCOD9261223
_publ_section_title
;
Structure prediction by ZEFSAII (Michael W. Deem and Ramdas Pophale) SiO2 
 PCOD9261223
Probable space group: C 2/C
;
_chemical_formula_sum "Si O2"
_cell_formula_units_Z 56
_cell_length_a 25.376896
_cell_length_b 13.490111
_cell_length_c 8.267312
_cell_angle_alpha 90.000000
_cell_angle_beta 74.816110
_cell_angle_gamma 90.000000
_cell_volume 2731.405917
_symmetry_space_group_name_H-M "C 2/C"
_symmetry_group_IT_number 15
_symmetry_cell_setting 'monoclinic'
loop_
_space_group_symop_operation_xyz
x,y,z
-x,y,1/2-z
-x,-y,-z
x,-y,1/2+z
1/2+x,1/2+y,z
1/2-x,1/2+y,1/2-z
1/2-x,1/2-y,-z
1/2+x,1/2-y,1/2+z
loop_
_atom_site_type_symbol
_atom_site_label
_atom_site_fract_x
_atom_site_fract_y
_atom_site_fract_z
Si Si1 0.257119 0.552506 0.457754
Si Si2 0.433641 0.095410 0.103791
Si Si3 0.422258 0.593100 0.046648
Si Si4 0.812699 0.589836 0.273508
Si Si5 0.000000 0.433476 0.250000
Si Si6 0.667127 0.425110 0.321670
Si Si7 0.882945 0.752924 0.341307
Si Si8 0.000000 0.033776 0.250000
O O1 0.231141 0.613780 0.331135
O O2 0.210953 0.501458 0.605900
O O3 0.289675 0.462306 0.346245
O O4 0.300032 0.603953 0.543294
O O5 0.369780 0.067715 0.136464
O O6 0.462102 0.004611 0.171444
O O7 0.431576 0.187393 0.228533
O O8 0.462606 0.120690 0.912116
O O9 0.371644 0.518905 0.112941
O O10 0.458841 0.598884 0.176834
O O11 0.399735 0.695016 0.992759
O O12 0.462068 0.538177 0.887450
O O13 0.830829 0.679035 0.377953
O O14 0.631360 0.338686 0.274752
#
# Coordination Sequence:
#
# PCOD9261223 Si02
#       8
#     8   8   8   8   4   8   8   4
#     4  10  20  37  65  84 119 178 207 242 335 375
#     4   9  21  37  67  91 124 160 208 265 306 388
#     4  11  20  41  61  90 122 170 208 268 320 378
#     4   9  21  38  61  91 122 160 206 267 302 386
#     4  10  18  41  71  88 122 172 196 246 350 374
#     4  11  20  38  61  85 126 168 208 257 313 379
#     4  10  22  37  62  90 133 152 212 272 309 363
#     4  10  22  35  71  80 112 176 210 240 328 396
#
# _framework density 20.502262999999999
#
# number of rings (size 3 to 8) (size 9 to 14) (size 15 to 20)
#    0.857    1.143    2.857    0.857    0.000    1.714 
#    0.000    0.714   18.857    0.000    0.000    0.000 
#    0.000    0.000    0.000    0.000    0.000    0.000 
#
# Total GULP energy -156086.916929 kJ/mol
# GULP energy per Si atom -5574.532747 kJ/mol
# Density = 2.045560 g / cm^3
# Si number density = 20.502263 Si / 1000 Ang^3
#
#
#
# Elastic Constant Matrix: (Units=GPa)
#
#
# Indices 1 2 3 4 5 6 
#
# 1 106.7734 12.7893 17.7488 0.0000 22.8377 0.0000
# 2 12.7893 35.3209 -6.0220 0.0000 -0.4849 0.0000
# 3 17.7488 -6.0220 30.9880 0.0000 -4.8645 0.0000
# 4 0.0000 0.0000 0.0000 -4.2714 0.0000 157.8712
# 5 22.8377 -0.4849 -4.8645 0.0000 49.8667 0.0000
# 6 0.0000 0.0000 0.0000 157.8712 0.0000 -674.5538
#
#
#
# Elastic Compliance Matrix: (Units=1/GPa)
#
#
# Indices 1 2 3 4 5 6 
#
# 1 0.013373 -0.006659 -0.010080 0.000000 -0.007172 0.000000
# 2 -0.006659 0.032634 0.010851 0.000000 0.004426 0.000000
# 3 -0.010080 0.010851 0.041530 0.000000 0.008773 0.000000
# 4 0.000000 0.000000 0.000000 0.030603 0.000000 0.007162
# 5 -0.007172 0.004426 0.008773 0.000000 0.024237 0.000000
# 6 0.000000 0.000000 0.000000 0.007162 0.000000 0.000194
#
#
# Mechanical properties :
#
#
# Convention : Reuss Voigt Hill
#
# Bulk Modulus (GPa) = 13.19952 24.67939 18.93946
# Shear Modulus (GPa) = 27.83970 -115.88729 -44.02380
#
# Velocity S-wave (km/s) = 3.68895 -7.52641 -4.63889
# Velocity P-wave (km/s) = 4.95948 7.96653 4.40846
#
# Compressibility (1/GPa) = 0.07576031
#
# Stress axis : x y z
#
# Youngs Moduli (GPa) = 74.77815 30.64309 24.07921
#
# Poissons Ratio (x) = 0.20406 0.24271
# Poissons Ratio (y) = 0.49796 -0.26128
# Poissons Ratio (z) = 0.75373 -0.33250
#
# Static dielectric constant tensor:
#      x y z
#    x 1.750820 0.000000 0.007450 
#    y 0.000000 1.716690 0.000000 
#    z 0.007450 0.000000 1.755760 
# 
# From -- ./inp_files/61512.got.cif
#   From: 2010.05.17/outbox.cif.g08.bks.cpg/sg15_31_cif.got.tgz:61512.got - 2010.06.03 18:47:42.
