data_PCOD9261558
_publ_section_title
;
Structure prediction by ZEFSAII (Michael W. Deem and Ramdas Pophale) SiO2 
 PCOD9261558
Probable space group: C 2/C
;
_chemical_formula_sum "Si O2"
_cell_formula_units_Z 60
_cell_length_a 20.562098
_cell_length_b 18.976306
_cell_length_c 9.463439
_cell_angle_alpha 90.000000
_cell_angle_beta 49.283050
_cell_angle_gamma 90.000000
_cell_volume 2798.747450
_symmetry_space_group_name_H-M "C 2/C"
_symmetry_group_IT_number 15
_symmetry_cell_setting 'monoclinic'
loop_
_space_group_symop_operation_xyz
x,y,z
-x,y,1/2-z
-x,-y,-z
x,-y,1/2+z
1/2+x,1/2+y,z
1/2-x,1/2+y,1/2-z
1/2-x,1/2-y,-z
1/2+x,1/2-y,1/2+z
loop_
_atom_site_type_symbol
_atom_site_label
_atom_site_fract_x
_atom_site_fract_y
_atom_site_fract_z
Si Si1 0.741290 0.140810 0.573230
Si Si2 0.000000 0.681055 0.750000
Si Si3 0.078626 0.067400 0.227946
Si Si4 0.435727 0.051052 0.012050
Si Si5 0.678909 0.224781 0.412640
Si Si6 0.699598 0.952234 0.376027
Si Si7 0.716904 0.132461 0.124074
Si Si8 0.359849 0.450747 0.563604
O O1 0.835742 0.110806 0.421514
O O2 0.705041 0.156633 0.470249
O O3 0.756376 0.214103 0.633724
O O4 0.688105 0.085856 0.740901
O O5 0.014082 0.621867 0.607161
O O6 0.081878 0.731311 0.607593
O O7 0.073429 0.064264 0.404937
O O8 0.000000 0.097416 0.250000
O O9 0.097733 0.992961 0.124834
O O10 0.356458 0.079127 0.216543
O O11 0.500000 0.000000 0.000000
O O12 0.382926 0.001361 0.975541
O O13 0.687892 0.206205 0.234847
O O14 0.718512 0.889156 0.458794
O O15 0.785492 0.999888 0.240642
O O16 0.807601 0.113290 0.068207
#
# Coordination Sequence:
#
# PCOD9261558 Si02
#       8
#     8   4   8   8   8   8   8   8
#     4  10  22  37  56  78 107 150 190 229 270 330
#     4  10  20  32  56  82 110 140 182 230 272 330
#     4  11  21  34  56  83 108 141 178 226 279 329
#     4  10  19  30  52  85 115 143 176 229 286 333
#     4  10  21  38  56  77 107 149 193 227 271 323
#     4  10  20  33  56  81 113 145 182 223 282 342
#     4  10  19  33  54  76 108 149 177 226 275 329
#     4  10  19  34  53  80 112 136 175 223 280 330
#
# _framework density 21.43816
#
# number of rings (size 3 to 8) (size 9 to 14) (size 15 to 20)
#    0.000    1.867    2.667    2.000    0.933    0.533 
#    0.000    0.000    0.000    0.000    0.000    0.000 
#    0.000    0.000    0.000    0.000    0.000    0.000 
#
# Total GULP energy -167130.179886 kJ/mol
# GULP energy per Si atom -5571.005996 kJ/mol
# Density = 2.138937 g / cm^3
# Si number density = 21.438160 Si / 1000 Ang^3
#
#
#
# Elastic Constant Matrix: (Units=GPa)
#
#
# Indices 1 2 3 4 5 6 
#
# 1 72.2827 -11.3274 2.0243 0.0000 -3.0977 0.0000
# 2 -11.3274 37.8902 -5.9893 0.0000 3.1896 0.0000
# 3 2.0243 -5.9893 31.6065 0.0000 1.6170 0.0000
# 4 0.0000 0.0000 0.0000 18.4712 0.0000 2.5891
# 5 -3.0977 3.1896 1.6170 0.0000 31.8074 0.0000
# 6 0.0000 0.0000 0.0000 2.5891 0.0000 21.3987
#
#
#
# Elastic Compliance Matrix: (Units=1/GPa)
#
#
# Indices 1 2 3 4 5 6 
#
# 1 0.014546 0.004236 -0.000180 0.000000 0.001001 0.000000
# 2 0.004236 0.028729 0.005313 0.000000 -0.002738 0.000000
# 3 -0.000180 0.005313 0.032771 0.000000 -0.002216 0.000000
# 4 0.000000 0.000000 0.000000 0.055072 0.000000 -0.006663
# 5 0.001001 -0.002738 -0.002216 0.000000 0.031924 0.000000
# 6 0.000000 0.000000 0.000000 -0.006663 0.000000 0.047538
#
#
# Mechanical properties :
#
#
# Convention : Reuss Voigt Hill
#
# Bulk Modulus (GPa) = 10.55045 12.35497 11.45271
# Shear Modulus (GPa) = 22.37764 24.80691 23.59228
#
# Velocity S-wave (km/s) = 3.23433 3.40536 3.32095
# Velocity P-wave (km/s) = 4.34510 4.60843 4.47870
#
# Compressibility (1/GPa) = 0.09478266
#
# Stress axis : x y z
#
# Youngs Moduli (GPa) = 68.74589 34.80844 30.51505
#
# Poissons Ratio (x) = -0.14745 0.00550
# Poissons Ratio (y) = -0.29120 -0.16212
# Poissons Ratio (z) = 0.01239 -0.18493
#
# Static dielectric constant tensor:
#      x y z
#    x 1.852820 0.000000 0.001670 
#    y 0.000000 1.816150 0.000000 
#    z 0.001670 0.000000 1.825220 
# 
# From -- ./inp_files/51520.got.cif
#   From: 2010.05.17/outbox.cif.g08.bks.cpg/sg15_26_cif.got.tgz:51520.got - 2010.06.03 18:47:42.
