data_PCOD9261329
_publ_section_title
;
Structure prediction by ZEFSAII (Michael W. Deem and Ramdas Pophale) SiO2 
 PCOD9261329
Probable space group: C 2/C
;
_chemical_formula_sum "Si O2"
_cell_formula_units_Z 60
_cell_length_a 14.001783
_cell_length_b 27.194932
_cell_length_c 9.897287
_cell_angle_alpha 90.000000
_cell_angle_beta 99.005322
_cell_angle_gamma 90.000000
_cell_volume 3722.211271
_symmetry_space_group_name_H-M "C 2/C"
_symmetry_group_IT_number 15
_symmetry_cell_setting 'monoclinic'
loop_
_space_group_symop_operation_xyz
x,y,z
-x,y,1/2-z
-x,-y,-z
x,-y,1/2+z
1/2+x,1/2+y,z
1/2-x,1/2+y,1/2-z
1/2-x,1/2-y,-z
1/2+x,1/2-y,1/2+z
loop_
_atom_site_type_symbol
_atom_site_label
_atom_site_fract_x
_atom_site_fract_y
_atom_site_fract_z
Si Si1 0.240028 0.351284 0.041996
Si Si2 0.319163 0.188789 0.251545
Si Si3 0.886072 0.640988 0.737995
Si Si4 0.889645 0.802011 0.272286
Si Si5 0.734980 0.308293 0.009372
Si Si6 0.645774 0.947478 0.941803
Si Si7 0.500000 0.119403 0.250000
Si Si8 0.611406 0.026835 0.732313
O O1 0.149018 0.342273 0.121793
O O2 0.329465 0.335062 0.153089
O O3 0.229516 0.320898 0.903321
O O4 0.229172 0.408164 0.995227
O O5 0.352823 0.245460 0.260013
O O6 0.246533 0.175158 0.357248
O O7 0.414017 0.154085 0.285208
O O8 0.824631 0.669678 0.613595
O O9 0.862327 0.582833 0.723312
O O10 0.000000 0.647503 0.750000
O O11 0.858898 0.818518 0.417975
O O12 0.000000 0.803636 0.250000
O O13 0.750000 0.250000 0.000000
O O14 0.553130 0.914967 0.872487
O O15 0.667965 0.985376 0.827229
O O16 0.621797 0.976275 0.073722
O O17 0.500000 0.020543 0.750000
#
# Coordination Sequence:
#
# PCOD9261329 Si02
#       8
#     8   8   8   8   8   8   4   8
#     4   9  20  33  47  72 100 131 173 212 249 303
#     4  10  19  31  50  73 104 132 169 206 258 299
#     4   9  19  31  48  69 102 138 169 199 253 305
#     4  10  19  36  53  71  95 136 176 215 260 297
#     4   9  20  33  48  74 101 128 173 215 246 305
#     4  10  20  31  44  72 103 136 173 200 245 299
#     4  10  20  28  48  74 108 142 166 196 242 312
#     4  10  19  28  44  66 100 139 168 199 240 303
#
# _framework density 16.119450000000001
#
# number of rings (size 3 to 8) (size 9 to 14) (size 15 to 20)
#    0.000    2.400    1.333    0.800    7.467    1.067 
#    0.000    0.667    0.000    0.000    0.000    8.400 
#    0.000    0.000    0.000    0.933    0.000    0.000 
#
# Total GULP energy -167058.973922 kJ/mol
# GULP energy per Si atom -5568.632464 kJ/mol
# Density = 1.608276 g / cm^3
# Si number density = 16.119450 Si / 1000 Ang^3
#
#
#
# Elastic Constant Matrix: (Units=GPa)
#
#
# Indices 1 2 3 4 5 6 
#
# 1 70.9561 19.9793 45.6156 0.0000 -15.8369 0.0000
# 2 19.9793 58.3639 44.9717 0.0000 4.0654 0.0000
# 3 45.6156 44.9717 130.2370 0.0000 -14.4914 0.0000
# 4 0.0000 0.0000 0.0000 32.2430 0.0000 6.0662
# 5 -15.8369 4.0654 -14.4914 0.0000 19.0162 0.0000
# 6 0.0000 0.0000 0.0000 6.0662 0.0000 12.0104
#
#
#
# Elastic Compliance Matrix: (Units=1/GPa)
#
#
# Indices 1 2 3 4 5 6 
#
# 1 0.021840 -0.005637 -0.003874 0.000000 0.016442 0.000000
# 2 -0.005637 0.027696 -0.009583 0.000000 -0.017918 0.000000
# 3 -0.003874 -0.009583 0.013345 0.000000 0.008992 0.000000
# 4 0.000000 0.000000 0.000000 0.034271 0.000000 -0.017310
# 5 0.016442 -0.017918 0.008992 0.000000 0.076963 0.000000
# 6 0.000000 0.000000 0.000000 -0.017310 0.000000 0.092004
#
#
# Mechanical properties :
#
#
# Convention : Reuss Voigt Hill
#
# Bulk Modulus (GPa) = 40.49611 53.41004 46.95308
# Shear Modulus (GPa) = 15.99805 22.58660 19.29232
#
# Velocity S-wave (km/s) = 3.15376 3.74732 3.46328
# Velocity P-wave (km/s) = 6.19990 7.20618 6.72190
#
# Compressibility (1/GPa) = 0.02469373
#
# Stress axis : x y z
#
# Youngs Moduli (GPa) = 45.78653 36.10669 74.93648
#
# Poissons Ratio (x) = 0.20353 0.29028
# Poissons Ratio (y) = 0.25810 0.71811
# Poissons Ratio (z) = 0.17736 0.34601
#
# Static dielectric constant tensor:
#      x y z
#    x 1.520590 0.000000 -0.019740 
#    y 0.000000 1.570890 0.000000 
#    z -0.019740 0.000000 1.574140 
# 
# From -- ./inp_files/35232.got.cif
#   From: 2010.05.17/outbox.cif.g08.bks.cpg/sg15_18_cif.got.tgz:35232.got - 2010.06.03 18:47:42.
