data_PCOD9261459
_publ_section_title
;
Structure prediction by ZEFSAII (Michael W. Deem and Ramdas Pophale) SiO2 
 PCOD9261459
Probable space group: C 2/C
;
_chemical_formula_sum "Si O2"
_cell_formula_units_Z 56
_cell_length_a 22.710176
_cell_length_b 18.631388
_cell_length_c 20.865624
_cell_angle_alpha 90.000000
_cell_angle_beta 23.255590
_cell_angle_gamma 90.000000
_cell_volume 3485.869109
_symmetry_space_group_name_H-M "C 2/C"
_symmetry_group_IT_number 15
_symmetry_cell_setting 'monoclinic'
loop_
_space_group_symop_operation_xyz
x,y,z
-x,y,1/2-z
-x,-y,-z
x,-y,1/2+z
1/2+x,1/2+y,z
1/2-x,1/2+y,1/2-z
1/2-x,1/2-y,-z
1/2+x,1/2-y,1/2+z
loop_
_atom_site_type_symbol
_atom_site_label
_atom_site_fract_x
_atom_site_fract_y
_atom_site_fract_z
Si Si1 0.822807 0.672098 0.669911
Si Si2 0.321771 0.328842 0.928225
Si Si3 0.171645 0.960346 0.259060
Si Si4 0.676931 0.906378 0.952250
Si Si5 0.177145 0.327932 0.815567
Si Si6 0.328263 0.460382 0.602446
Si Si7 0.823109 0.406341 0.306078
O O1 0.749194 0.615646 0.694543
O O2 0.749998 0.750020 0.737971
O O3 0.798398 0.640047 0.765916
O O4 0.999975 0.675715 0.482587
O O5 0.500000 0.323613 0.750000
O O6 0.264088 0.370394 0.923273
O O7 0.250000 0.250000 0.000000
O O8 0.264045 0.370381 0.048582
O O9 0.999951 0.952553 0.410339
O O10 0.262196 0.013903 0.122843
O O11 0.171411 0.999990 0.328586
O O12 0.701600 0.859998 0.862701
O O13 0.500022 0.907515 0.141793
O O14 0.250682 0.384395 0.693044
O O15 0.237754 0.513943 0.647289
#
# Coordination Sequence:
#
# PCOD9261459 Si02
#       7
#     8   8   8   8   8   8   8
#     4  10  19  30  47  71  98 127 159 198 243 288
#     4  12  24  36  50  70  97 130 167 202 238 280
#     4   9  17  30  48  69  94 124 158 196 239 287
#     4  10  20  34  50  69  96 129 164 200 239 284
#     4  10  19  30  47  71  98 127 159 198 243 288
#     4   9  17  30  48  69  94 124 158 196 239 287
#     4  10  20  34  50  69  96 129 164 200 239 284
#
# _framework density 16.064859999999999
#
# number of rings (size 3 to 8) (size 9 to 14) (size 15 to 20)
#    0.000    2.000    0.000    4.714    0.000    9.143 
#    0.000    0.000    0.000    0.000    0.000    1.000 
#    0.000    0.000    0.000    0.000    0.000    0.000 
#
# Total GULP energy -156284.393418 kJ/mol
# GULP energy per Si atom -5581.585479 kJ/mol
# Density = 1.602830 g / cm^3
# Si number density = 16.064860 Si / 1000 Ang^3
#
#
#
# Elastic Constant Matrix: (Units=GPa)
#
#
# Indices 1 2 3 4 5 6 
#
# 1 75.8935 61.0894 56.9424 0.0047 -17.6530 -0.0011
# 2 61.0894 164.3459 90.2888 0.0273 -17.5650 -0.0155
# 3 56.9424 90.2888 129.7735 0.0069 -14.7711 -0.0058
# 4 0.0047 0.0273 0.0069 32.1884 -0.0042 -5.6826
# 5 -17.6530 -17.5650 -14.7711 -0.0042 22.4078 0.0015
# 6 -0.0011 -0.0155 -0.0058 -5.6826 0.0015 22.7371
#
#
#
# Elastic Compliance Matrix: (Units=1/GPa)
#
#
# Indices 1 2 3 4 5 6 
#
# 1 0.023937 -0.004243 -0.006252 0.000002 0.011410 -0.000003
# 2 -0.004243 0.010857 -0.005517 -0.000006 0.001530 0.000004
# 3 -0.006252 -0.005517 0.014308 0.000003 0.000182 0.000000
# 4 0.000002 -0.000006 0.000003 0.032501 0.000004 0.008123
# 5 0.011410 0.001530 0.000182 0.000004 0.054935 -0.000001
# 6 -0.000003 0.000004 0.000000 0.008123 -0.000001 0.046011
#
#
# Mechanical properties :
#
#
# Convention : Reuss Voigt Hill
#
# Bulk Modulus (GPa) = 58.56063 87.40603 72.98333
# Shear Modulus (GPa) = 22.69967 26.24615 24.47291
#
# Velocity S-wave (km/s) = 3.76307 4.04637 3.90729
# Velocity P-wave (km/s) = 7.44397 8.73826 8.11695
#
# Compressibility (1/GPa) = 0.01707632
#
# Stress axis : x y z
#
# Youngs Moduli (GPa) = 41.77652 92.10845 69.88896
#
# Poissons Ratio (x) = 0.39085 0.43695
# Poissons Ratio (y) = 0.17727 0.38561
# Poissons Ratio (z) = 0.26119 0.50820
#
# Static dielectric constant tensor:
#      x y z
#    x 1.518780 0.000000 -0.007320 
#    y 0.000000 1.518960 0.000000 
#    z -0.007320 0.000000 1.531010 
# 
# From -- ./inp_files/56509.got.cif
#   From: 2010.05.17/outbox.cif.g08.bks.cpg/sg15_29_cif.got.tgz:56509.got - 2010.06.03 18:47:42.
