data_PCOD9261253
_publ_section_title
;
Structure prediction by ZEFSAII (Michael W. Deem and Ramdas Pophale) SiO2 
 PCOD9261253
Probable space group: C 2/C
;
_chemical_formula_sum "Si O2"
_cell_formula_units_Z 44
_cell_length_a 13.801976
_cell_length_b 11.346439
_cell_length_c 14.705407
_cell_angle_alpha 90.000000
_cell_angle_beta 132.646282
_cell_angle_gamma 90.000000
_cell_volume 1693.909288
_symmetry_space_group_name_H-M "C 2/C"
_symmetry_group_IT_number 15
_symmetry_cell_setting 'monoclinic'
loop_
_space_group_symop_operation_xyz
x,y,z
-x,y,1/2-z
-x,-y,-z
x,-y,1/2+z
1/2+x,1/2+y,z
1/2-x,1/2+y,1/2-z
1/2-x,1/2-y,-z
1/2+x,1/2-y,1/2+z
loop_
_atom_site_type_symbol
_atom_site_label
_atom_site_fract_x
_atom_site_fract_y
_atom_site_fract_z
Si Si1 0.006413 0.232035 0.904924
Si Si2 0.218770 0.947400 0.259612
Si Si3 0.135949 0.019097 0.896150
Si Si4 0.999553 0.502628 0.390606
Si Si5 0.023447 0.843532 0.614614
Si Si6 0.000000 0.326865 0.250000
O O1 0.018339 0.362214 0.874007
O O2 0.115980 0.141073 0.937011
O O3 0.862841 0.174190 0.794262
O O4 0.016701 0.233118 0.020351
O O5 0.346989 0.961539 0.281138
O O6 0.119491 0.047017 0.159803
O O7 0.241653 0.974349 0.382637
O O8 0.000000 0.013624 0.750000
O O9 0.115415 0.905657 0.946823
O O10 0.071686 0.412070 0.368609
O O11 0.000000 0.500000 0.500000
O O12 0.073390 0.765680 0.730328
#
# Coordination Sequence:
#
# PCOD9261253 Si02
#       6
#     8   8   8   8   8   4
#     4  10  21  40  67  97 131 160 214 273 320 382
#     4  10  22  41  70  95 123 172 219 260 313 390
#     4   8  16  35  65  93 117 159 208 262 309 365
#     4  12  28  44  60  95 137 173 211 267 333 378
#     4  10  18  42  68  94 124 162 219 267 314 383
#     4  12  24  44  64  90 140 172 206 278 328 376
#
# _framework density 25.975415000000002
#
# number of rings (size 3 to 8) (size 9 to 14) (size 15 to 20)
#    0.000    2.182    4.545    2.182    6.364    0.000 
#    6.545    3.636    0.000    0.000    0.000    0.000 
#    0.000    0.000    0.000    0.000    0.000    0.000 
#
# Total GULP energy -122852.688655 kJ/mol
# GULP energy per Si atom -5584.213121 kJ/mol
# Density = 2.591629 g / cm^3
# Si number density = 25.975415 Si / 1000 Ang^3
#
#
#
# Elastic Constant Matrix: (Units=GPa)
#
#
# Indices 1 2 3 4 5 6 
#
# 1 117.5176 18.3088 11.5708 0.0000 -14.3024 0.0000
# 2 18.3088 154.5516 8.2318 0.0000 -5.8548 0.0000
# 3 11.5708 8.2318 71.3818 0.0000 -30.7986 0.0000
# 4 0.0000 0.0000 0.0000 41.0334 0.0000 -25.9323
# 5 -14.3024 -5.8548 -30.7986 0.0000 35.7455 0.0000
# 6 0.0000 0.0000 0.0000 -25.9323 0.0000 2.7277
#
#
#
# Elastic Compliance Matrix: (Units=1/GPa)
#
#
# Indices 1 2 3 4 5 6 
#
# 1 0.009082 -0.000949 0.000220 0.000000 0.003668 0.000000
# 2 -0.000949 0.006619 -0.000486 0.000000 0.000286 0.000000
# 3 0.000220 -0.000486 0.022337 0.000000 0.019254 0.000000
# 4 0.000000 0.000000 0.000000 -0.004866 0.000000 -0.046262
# 5 0.003668 0.000286 0.019254 0.000000 0.046079 0.000000
# 6 0.000000 0.000000 0.000000 -0.046262 0.000000 -0.073201
#
#
# Mechanical properties :
#
#
# Convention : Reuss Voigt Hill
#
# Bulk Modulus (GPa) = 28.08362 46.63042 37.35702
# Shear Modulus (GPa) = 245.69576 36.25730 140.97653
#
# Velocity S-wave (km/s) = 9.73618 3.74014 7.37502
# Velocity P-wave (km/s) = 11.71435 6.05328 9.32384
#
# Compressibility (1/GPa) = 0.03560795
#
# Stress axis : x y z
#
# Youngs Moduli (GPa) = 110.10904 151.07036 44.76861
#
# Poissons Ratio (x) = 0.14331 -0.00984
# Poissons Ratio (y) = 0.10445 0.02177
# Poissons Ratio (z) = -0.02420 0.07348
#
# Static dielectric constant tensor:
#      x y z
#    x 2.193980 0.000000 0.045840 
#    y 0.000000 2.008920 0.000000 
#    z 0.045840 0.000000 2.132350 
# 
# From -- ./inp_files/152274.got.cif
#   From: 2010.05.17/outbox.cif.g08.bks.cpg/sg15_77_cif.got.tgz:152274.got - 2010.06.03 18:47:42.
