data_PCOD9261664
_publ_section_title
;
Structure prediction by ZEFSAII (Michael W. Deem and Ramdas Pophale) SiO2 
 PCOD9261664
Probable space group: C 2/C
;
_chemical_formula_sum "Si O2"
_cell_formula_units_Z 32
_cell_length_a 12.889655
_cell_length_b 15.753946
_cell_length_c 13.809519
_cell_angle_alpha 90.000000
_cell_angle_beta 33.984364
_cell_angle_gamma 90.000000
_cell_volume 1567.455016
_symmetry_space_group_name_H-M "C 2/C"
_symmetry_group_IT_number 15
_symmetry_cell_setting 'monoclinic'
loop_
_space_group_symop_operation_xyz
x,y,z
-x,y,1/2-z
-x,-y,-z
x,-y,1/2+z
1/2+x,1/2+y,z
1/2-x,1/2+y,1/2-z
1/2-x,1/2-y,-z
1/2+x,1/2-y,1/2+z
loop_
_atom_site_type_symbol
_atom_site_label
_atom_site_fract_x
_atom_site_fract_y
_atom_site_fract_z
Si Si1 0.465868 0.469280 0.888656
Si Si2 0.324799 0.981177 0.745885
Si Si3 0.926732 0.214875 0.207142
Si Si4 0.969963 0.639651 0.989304
O O1 0.500000 0.484715 0.750000
O O2 0.651731 0.493935 0.804315
O O3 0.448204 0.366977 0.917272
O O4 0.284367 0.516552 0.069114
O O5 0.435233 0.898252 0.623499
O O6 0.459953 0.060394 0.627226
O O7 0.730901 0.173529 0.385400
O O8 0.000000 0.255548 0.250000
O O9 0.904761 0.280253 0.136246
#
# Coordination Sequence:
#
# PCOD9261664 Si02
#       4
#     8   8   8   8
#     4   9  18  35  56  80 109 137 173 221 271 321
#     4   9  19  33  50  79 111 143 176 209 266 324
#     4  10  19  31  51  81 110 138 170 218 281 328
#     4  10  19  31  48  75 111 142 171 210 258 326
#
# _framework density 20.415258999999999
#
# number of rings (size 3 to 8) (size 9 to 14) (size 15 to 20)
#    0.000    2.500    0.000    2.250    0.000    4.000 
#    0.000    8.750    0.000    0.000    0.000   87.500 
#    0.000    0.000    0.000    0.000    0.000    0.000 
#
# Total GULP energy -89142.643232 kJ/mol
# GULP energy per Si atom -5571.415202 kJ/mol
# Density = 2.036879 g / cm^3
# Si number density = 20.415259 Si / 1000 Ang^3
#
#
#
# Elastic Constant Matrix: (Units=GPa)
#
#
# Indices 1 2 3 4 5 6 
#
# 1 23.1134 32.4222 27.4299 -0.0005 18.0865 0.0002
# 2 32.4222 87.6800 59.7484 -0.0002 11.0844 -0.0001
# 3 27.4299 59.7484 139.6335 -0.0008 27.0867 -0.0001
# 4 -0.0005 -0.0002 -0.0008 31.3086 0.0002 -3.7549
# 5 18.0865 11.0844 27.0867 0.0002 29.6041 0.0001
# 6 0.0002 -0.0001 -0.0001 -3.7549 0.0001 17.0562
#
#
#
# Elastic Compliance Matrix: (Units=1/GPa)
#
#
# Indices 1 2 3 4 5 6 
#
# 1 0.252200 -0.085078 0.012853 0.000005 -0.133985 -0.000002
# 2 -0.085078 0.044803 -0.011291 -0.000002 0.045534 0.000001
# 3 0.012853 -0.011291 0.012366 0.000001 -0.014939 0.000000
# 4 0.000005 -0.000002 0.000001 0.032806 -0.000003 0.007222
# 5 -0.133985 0.045534 -0.014939 -0.000003 0.112257 0.000001
# 6 -0.000002 0.000001 0.000000 0.007222 0.000001 0.060220
#
#
# Mechanical properties :
#
#
# Convention : Reuss Voigt Hill
#
# Bulk Modulus (GPa) = 7.02563 54.40312 30.71438
# Shear Modulus (GPa) = 6.85749 24.31552 15.58650
#
# Velocity S-wave (km/s) = 1.83475 3.45490 2.76610
# Velocity P-wave (km/s) = 2.81731 6.52849 5.02784
#
# Compressibility (1/GPa) = 0.14233590
#
# Stress axis : x y z
#
# Youngs Moduli (GPa) = 3.96511 22.31992 80.86673
#
# Poissons Ratio (x) = 1.89894 -1.03937
# Poissons Ratio (y) = 0.33735 0.91305
# Poissons Ratio (z) = -0.05096 0.25201
#
# Static dielectric constant tensor:
#      x y z
#    x 1.727570 0.000000 -0.000390 
#    y 0.000000 1.804790 0.000000 
#    z -0.000390 0.000000 1.828910 
# 
# From -- ./inp_files/28333.got.cif
#   From: 2010.05.17/outbox.cif.g08.bks.cpg/sg15_15_cif.got.tgz:28333.got - 2010.06.03 18:47:42.
