data_PCOD9261233
_publ_section_title
;
Structure prediction by ZEFSAII (Michael W. Deem and Ramdas Pophale) SiO2 
 PCOD9261233
Probable space group: C 2/C
;
_chemical_formula_sum "Si O2"
_cell_formula_units_Z 44
_cell_length_a 13.392561
_cell_length_b 14.452693
_cell_length_c 19.955618
_cell_angle_alpha 90.000000
_cell_angle_beta 145.351200
_cell_angle_gamma 90.000000
_cell_volume 2196.049615
_symmetry_space_group_name_H-M "C 2/C"
_symmetry_group_IT_number 15
_symmetry_cell_setting 'monoclinic'
loop_
_space_group_symop_operation_xyz
x,y,z
-x,y,1/2-z
-x,-y,-z
x,-y,1/2+z
1/2+x,1/2+y,z
1/2-x,1/2+y,1/2-z
1/2-x,1/2-y,-z
1/2+x,1/2-y,1/2+z
loop_
_atom_site_type_symbol
_atom_site_label
_atom_site_fract_x
_atom_site_fract_y
_atom_site_fract_z
Si Si1 0.500000 0.654195 0.250000
Si Si2 0.674151 0.491252 0.940535
Si Si3 0.204260 0.205300 0.234149
Si Si4 0.538705 0.042102 0.094652
Si Si5 0.932044 0.903636 0.492459
Si Si6 0.828260 0.105739 0.792122
O O1 0.364396 0.582418 0.139738
O O2 0.583760 0.711746 0.235143
O O3 0.500847 0.555814 0.856301
O O4 0.701617 0.431377 0.023069
O O5 0.848518 0.547561 0.023226
O O6 0.363756 0.139787 0.345735
O O7 0.263014 0.297259 0.227134
O O8 0.085074 0.149166 0.115289
O O9 0.672434 0.968769 0.202599
O O10 0.500000 0.000000 0.000000
O O11 0.861698 0.858741 0.386582
O O12 0.000000 0.000000 0.500000
#
# Coordination Sequence:
#
# PCOD9261233 Si02
#       6
#     4   8   8   8   8   8
#     4  10  18  42  62  92 128 174 214 266 312 378
#     4  10  20  39  68  87 129 174 210 264 327 383
#     4  11  23  38  68  94 130 169 221 270 319 389
#     4  12  23  40  68  93 123 180 222 259 333 384
#     4   9  19  42  60  84 130 167 200 265 324 371
#     4  11  24  42  63  98 135 162 216 277 316 388
#
# _framework density 20.035976999999999
#
# number of rings (size 3 to 8) (size 9 to 14) (size 15 to 20)
#    0.000    1.455    7.273    0.000    2.545    2.909 
#    0.000    3.636    8.000    0.000    0.000    0.000 
#    0.000    0.000    0.000    0.000    0.000    0.000 
#
# Total GULP energy -122561.638144 kJ/mol
# GULP energy per Si atom -5570.983552 kJ/mol
# Density = 1.999037 g / cm^3
# Si number density = 20.035977 Si / 1000 Ang^3
#
#
#
# Elastic Constant Matrix: (Units=GPa)
#
#
# Indices 1 2 3 4 5 6 
#
# 1 61.6700 8.5084 35.3589 0.0000 13.7481 0.0000
# 2 8.5084 79.2836 -0.3393 0.0000 22.1838 0.0000
# 3 35.3589 -0.3393 59.7259 0.0001 6.7586 0.0000
# 4 0.0000 0.0000 0.0001 22.9398 0.0001 3.0442
# 5 13.7481 22.1838 6.7586 0.0001 36.5981 0.0000
# 6 0.0000 0.0000 0.0000 3.0442 0.0000 11.1365
#
#
#
# Elastic Compliance Matrix: (Units=1/GPa)
#
#
# Indices 1 2 3 4 5 6 
#
# 1 0.026332 -0.001071 -0.014860 0.000000 -0.006498 0.000000
# 2 -0.001071 0.015311 0.001763 0.000000 -0.009204 0.000000
# 3 -0.014860 0.001763 0.025574 0.000000 -0.000209 0.000000
# 4 0.000000 0.000000 0.000000 0.045233 0.000000 -0.012364
# 5 -0.006498 -0.009204 -0.000209 0.000000 0.035382 0.000000
# 6 0.000000 0.000000 0.000000 -0.012364 0.000000 0.093174
#
#
# Mechanical properties :
#
#
# Convention : Reuss Voigt Hill
#
# Bulk Modulus (GPa) = 25.72023 31.97062 28.84543
# Shear Modulus (GPa) = 17.71153 24.61167 21.16160
#
# Velocity S-wave (km/s) = 2.97642 3.50862 3.25342
# Velocity P-wave (km/s) = 4.96759 5.69255 5.34238
#
# Compressibility (1/GPa) = 0.03887990
#
# Stress axis : x y z
#
# Youngs Moduli (GPa) = 37.97719 65.31406 39.10224
#
# Poissons Ratio (x) = 0.06996 0.58104
# Poissons Ratio (y) = 0.04068 -0.06892
# Poissons Ratio (z) = 0.56433 -0.11512
#
# Static dielectric constant tensor:
#      x y z
#    x 1.770260 0.000000 -0.098510 
#    y 0.000000 1.762770 0.000000 
#    z -0.098510 0.000000 1.842840 
# 
# From -- ./inp_files/244621.got.cif
#   From: 2010.05.17/outbox.cif.g08.bks.cpg/sg15_123_cif.got.tgz:244621.got - 2010.06.03 18:47:42.
