data_PCOD9261981
_publ_section_title
;
Structure prediction by ZEFSAII (Michael W. Deem and Ramdas Pophale) SiO2 
 PCOD9261981
Probable space group: C 2/C
;
_chemical_formula_sum "Si O2"
_cell_formula_units_Z 56
_cell_length_a 12.530093
_cell_length_b 22.252191
_cell_length_c 11.977241
_cell_angle_alpha 90.000000
_cell_angle_beta 85.266909
_cell_angle_gamma 90.000000
_cell_volume 3328.130460
_symmetry_space_group_name_H-M "C 2/C"
_symmetry_group_IT_number 15
_symmetry_cell_setting 'monoclinic'
loop_
_space_group_symop_operation_xyz
x,y,z
-x,y,1/2-z
-x,-y,-z
x,-y,1/2+z
1/2+x,1/2+y,z
1/2-x,1/2+y,1/2-z
1/2-x,1/2-y,-z
1/2+x,1/2-y,1/2+z
loop_
_atom_site_type_symbol
_atom_site_label
_atom_site_fract_x
_atom_site_fract_y
_atom_site_fract_z
Si Si1 0.447517 0.746986 0.640200
Si Si2 0.281156 0.189827 0.882036
Si Si3 0.890984 0.376520 0.185388
Si Si4 0.636683 0.237912 0.953752
Si Si5 0.121905 0.193450 0.225484
Si Si6 0.174358 0.365505 0.881660
Si Si7 0.942160 0.508162 0.129425
O O1 0.500000 0.724555 0.750000
O O2 0.340313 0.712510 0.612753
O O3 0.539358 0.743490 0.540471
O O4 0.406489 0.815588 0.661312
O O5 0.300212 0.145821 0.777108
O O6 0.356717 0.248969 0.858331
O O7 0.311202 0.155445 0.991531
O O8 0.887570 0.330291 0.083122
O O9 0.881897 0.444739 0.148489
O O10 0.000000 0.369642 0.250000
O O11 0.644494 0.276968 0.842077
O O12 0.750000 0.250000 0.000000
O O13 0.209947 0.144521 0.185247
O O14 0.000000 0.172697 0.250000
O O15 0.127850 0.431804 0.875648
O O16 0.000000 0.513652 0.250000
O O17 0.000000 0.500000 0.000000
#
# Coordination Sequence:
#
# PCOD9261981 Si02
#       7
#     8   8   8   8   8   8   8
#     4  11  20  32  50  78 109 139 178 225 277 333
#     4  10  19  33  53  76 104 145 181 219 275 336
#     4  10  20  36  54  75 108 147 178 212 270 335
#     4  11  20  32  51  78 107 137 170 219 273 320
#     4  10  19  32  51  76 106 139 174 215 272 328
#     4  11  20  33  54  81 109 138 182 232 270 317
#     4  11  23  38  58  84 112 147 184 226 274 325
#
# _framework density 16.826263000000001
#
# number of rings (size 3 to 8) (size 9 to 14) (size 15 to 20)
#    0.000    1.429    0.000   11.571    0.000    1.143 
#    0.000    0.000    0.000    2.571    0.000    8.000 
#    0.000    0.000    0.000    0.000    0.000    0.000 
#
# Total GULP energy -156061.769914 kJ/mol
# GULP energy per Si atom -5573.634640 kJ/mol
# Density = 1.678797 g / cm^3
# Si number density = 16.826263 Si / 1000 Ang^3
#
#
#
# Elastic Constant Matrix: (Units=GPa)
#
#
# Indices 1 2 3 4 5 6 
#
# 1 110.2314 54.2188 50.3739 0.0000 -18.9444 0.0000
# 2 54.2188 122.4958 46.0386 0.0000 -9.7117 0.0000
# 3 50.3739 46.0386 108.0960 0.0000 -9.5598 0.0000
# 4 0.0000 0.0000 0.0000 14.5487 0.0000 3.9055
# 5 -18.9444 -9.7117 -9.5598 0.0000 35.2851 0.0000
# 6 0.0000 0.0000 0.0000 3.9055 0.0000 26.3193
#
#
#
# Elastic Compliance Matrix: (Units=1/GPa)
#
#
# Indices 1 2 3 4 5 6 
#
# 1 0.013966 -0.004163 -0.004276 0.000000 0.005194 0.000000
# 2 -0.004163 0.011048 -0.002760 0.000000 0.000058 0.000000
# 3 -0.004276 -0.002760 0.012447 0.000000 0.000317 0.000000
# 4 0.000000 0.000000 0.000000 0.071586 0.000000 -0.010623
# 5 0.005194 0.000058 0.000317 0.000000 0.031231 0.000000
# 6 0.000000 0.000000 0.000000 -0.010623 0.000000 0.039571
#
#
# Mechanical properties :
#
#
# Convention : Reuss Voigt Hill
#
# Bulk Modulus (GPa) = 66.38710 71.34285 68.86498
# Shear Modulus (GPa) = 24.12317 27.91007 26.01662
#
# Velocity S-wave (km/s) = 3.79048 4.07716 3.93643
# Velocity P-wave (km/s) = 7.66140 8.04090 7.85344
#
# Compressibility (1/GPa) = 0.01506317
#
# Stress axis : x y z
#
# Youngs Moduli (GPa) = 71.60214 90.51311 80.33783
#
# Poissons Ratio (x) = 0.37678 0.34353
# Poissons Ratio (y) = 0.29806 0.22177
# Poissons Ratio (z) = 0.30617 0.24986
#
# Static dielectric constant tensor:
#      x y z
#    x 1.596140 0.000000 0.034570 
#    y 0.000000 1.548740 0.000000 
#    z 0.034570 0.000000 1.666030 
# 
# From -- ./inp_files/88951.got.cif
#   From: 2010.05.17/outbox.cif.g08.bks.cpg/sg15_45_cif.got.tgz:88951.got - 2010.06.03 18:47:42.
