data_PCOD9261994
_publ_section_title
;
Structure prediction by ZEFSAII (Michael W. Deem and Ramdas Pophale) SiO2 
 PCOD9261994
Probable space group: C 2/C
;
_chemical_formula_sum "Si O2"
_cell_formula_units_Z 56
_cell_length_a 29.105191
_cell_length_b 20.007545
_cell_length_c 8.919047
_cell_angle_alpha 90.000000
_cell_angle_beta 35.954885
_cell_angle_gamma 90.000000
_cell_volume 3049.511871
_symmetry_space_group_name_H-M "C 2/C"
_symmetry_group_IT_number 15
_symmetry_cell_setting 'monoclinic'
loop_
_space_group_symop_operation_xyz
x,y,z
-x,y,1/2-z
-x,-y,-z
x,-y,1/2+z
1/2+x,1/2+y,z
1/2-x,1/2+y,1/2-z
1/2-x,1/2-y,-z
1/2+x,1/2-y,1/2+z
loop_
_atom_site_type_symbol
_atom_site_label
_atom_site_fract_x
_atom_site_fract_y
_atom_site_fract_z
Si Si1 0.381464 0.588359 0.823328
Si Si2 0.309984 0.035090 0.475283
Si Si3 0.473856 0.931704 0.649748
Si Si4 0.975741 0.833519 0.637799
Si Si5 0.701075 0.095641 0.325403
Si Si6 0.054809 0.315165 0.252906
Si Si7 0.131146 0.949859 0.491242
O O1 0.448333 0.644020 0.656281
O O2 0.394882 0.523629 0.890802
O O3 0.384745 0.562173 0.642582
O O4 0.292971 0.613563 0.085041
O O5 0.380855 0.071584 0.370883
O O6 0.312907 0.054404 0.292456
O O7 0.316466 0.956164 0.493584
O O8 0.224661 0.054494 0.762702
O O9 0.500000 0.937623 0.750000
O O10 0.515193 0.868237 0.467552
O O11 0.500000 0.000000 0.500000
O O12 0.944687 0.759881 0.684805
O O13 0.912741 0.893017 0.798681
O O14 0.000000 0.830741 0.750000
O O15 0.641005 0.156759 0.488002
O O16 0.000000 0.315890 0.250000
#
# Coordination Sequence:
#
# PCOD9261994 Si02
#       7
#     8   8   8   8   8   8   8
#     4   9  18  34  56  84 105 134 175 223 265 312
#     4  10  19  32  51  81 104 132 177 217 265 308
#     4  12  22  34  54  76 105 141 179 222 259 310
#     4   9  19  36  54  78 107 140 180 216 260 315
#     4  10  19  32  53  81 107 134 174 220 265 308
#     4  11  21  36  52  75 109 148 177 212 260 314
#     4   9  18  34  56  81 105 133 173 226 265 311
#
# _framework density 18.363595
#
# number of rings (size 3 to 8) (size 9 to 14) (size 15 to 20)
#    0.000    2.000    2.857    1.714    0.000    0.000 
#    2.571    4.286    0.000    0.857    0.000    0.000 
#    0.000    0.000    0.000    0.000    0.000    0.000 
#
# Total GULP energy -156240.160830 kJ/mol
# GULP energy per Si atom -5580.005744 kJ/mol
# Density = 1.832180 g / cm^3
# Si number density = 18.363595 Si / 1000 Ang^3
#
#
#
# Elastic Constant Matrix: (Units=GPa)
#
#
# Indices 1 2 3 4 5 6 
#
# 1 36.3932 23.8011 16.8627 0.0000 -2.9629 0.0000
# 2 23.8011 128.6619 72.1819 0.0000 -16.6203 0.0000
# 3 16.8627 72.1819 96.8795 0.0000 -15.1720 0.0000
# 4 0.0000 0.0000 0.0000 20.6222 0.0000 -2.4468
# 5 -2.9629 -16.6203 -15.1720 0.0000 21.7510 0.0000
# 6 0.0000 0.0000 0.0000 -2.4468 0.0000 20.4736
#
#
#
# Elastic Compliance Matrix: (Units=1/GPa)
#
#
# Indices 1 2 3 4 5 6 
#
# 1 0.031486 -0.004781 -0.002042 0.000000 -0.000788 0.000000
# 2 -0.004781 0.014346 -0.009252 0.000000 0.003857 0.000000
# 3 -0.002042 -0.009252 0.018434 0.000000 0.005510 0.000000
# 4 0.000000 0.000000 0.000000 0.049189 0.000000 0.005878
# 5 -0.000788 0.003857 0.005510 0.000000 0.052658 0.000000
# 6 0.000000 0.000000 0.000000 0.005878 0.000000 0.049546
#
#
# Mechanical properties :
#
#
# Convention : Reuss Voigt Hill
#
# Bulk Modulus (GPa) = 31.13730 54.18068 42.65899
# Shear Modulus (GPa) = 19.34126 22.50861 20.92493
#
# Velocity S-wave (km/s) = 3.24889 3.50483 3.37928
# Velocity P-wave (km/s) = 5.57373 6.77841 6.20537
#
# Compressibility (1/GPa) = 0.03211582
#
# Stress axis : x y z
#
# Youngs Moduli (GPa) = 31.75984 69.70711 54.24725
#
# Poissons Ratio (x) = 0.33327 0.11076
# Poissons Ratio (y) = 0.15185 0.50192
# Poissons Ratio (z) = 0.06484 0.64496
#
# Static dielectric constant tensor:
#      x y z
#    x 1.640430 0.000000 -0.012830 
#    y 0.000000 1.615010 0.000000 
#    z -0.012830 0.000000 1.646450 
# 
# From -- ./inp_files/56488.got.cif
#   From: 2010.05.17/outbox.cif.g08.bks.cpg/sg15_29_cif.got.tgz:56488.got - 2010.06.03 18:47:42.
