data_PCOD9261382
_publ_section_title
;
Structure prediction by ZEFSAII (Michael W. Deem and Ramdas Pophale) SiO2 
 PCOD9261382
Probable space group: C 2/C
;
_chemical_formula_sum "Si O2"
_cell_formula_units_Z 48
_cell_length_a 23.548019
_cell_length_b 11.019373
_cell_length_c 26.550889
_cell_angle_alpha 90.000000
_cell_angle_beta 21.314697
_cell_angle_gamma 90.000000
_cell_volume 2504.280917
_symmetry_space_group_name_H-M "C 2/C"
_symmetry_group_IT_number 15
_symmetry_cell_setting 'monoclinic'
loop_
_space_group_symop_operation_xyz
x,y,z
-x,y,1/2-z
-x,-y,-z
x,-y,1/2+z
1/2+x,1/2+y,z
1/2-x,1/2+y,1/2-z
1/2-x,1/2-y,-z
1/2+x,1/2-y,1/2+z
loop_
_atom_site_type_symbol
_atom_site_label
_atom_site_fract_x
_atom_site_fract_y
_atom_site_fract_z
Si Si1 0.211320 0.402978 0.879461
Si Si2 0.682825 0.386756 0.604619
Si Si3 0.684317 0.582365 0.793014
Si Si4 0.911488 0.248645 0.144390
Si Si5 0.133387 0.018051 0.946752
Si Si6 0.315592 0.894490 0.391726
O O1 0.274444 0.453970 0.879695
O O2 0.232822 0.499303 0.817219
O O3 0.326192 0.290928 0.767001
O O4 0.037480 0.356243 0.034802
O O5 0.500000 0.376751 0.750000
O O6 0.742421 0.246862 0.562568
O O7 0.744976 0.443133 0.502067
O O8 0.768440 0.711998 0.727171
O O9 0.706819 0.524010 0.830523
O O10 0.497022 0.587067 0.938953
O O11 0.015256 0.133297 0.044815
O O12 0.252631 0.037312 0.894247
O O13 0.500000 0.895164 0.250000
#
# Coordination Sequence:
#
# PCOD9261382 Si02
#       6
#     8   8   8   8   8   8
#     4  11  22  32  53  76 113 143 182 220 258 320
#     4  10  19  29  46  75 105 143 179 203 252 321
#     4  10  21  33  53  75 107 148 179 222 268 307
#     4  11  19  35  51  74 106 150 174 219 267 310
#     4  10  20  36  53  78 112 145 175 225 264 314
#     4  10  20  31  52  73 105 148 178 203 258 332
#
# _framework density 19.167178
#
# number of rings (size 3 to 8) (size 9 to 14) (size 15 to 20)
#    0.000    1.667    3.333    2.500    7.000    0.000 
#    0.000    0.000    0.000    0.000    0.000    0.000 
#    0.000   81.333    0.000    0.000    0.000    0.000 
#
# Total GULP energy -133673.207604 kJ/mol
# GULP energy per Si atom -5569.716984 kJ/mol
# Density = 1.912355 g / cm^3
# Si number density = 19.167178 Si / 1000 Ang^3
#
#
#
# Elastic Constant Matrix: (Units=GPa)
#
#
# Indices 1 2 3 4 5 6 
#
# 1 157.5603 19.8845 41.7127 -0.0007 13.4160 -0.0003
# 2 19.8845 13.0403 9.3865 0.0012 -1.6128 -0.0007
# 3 41.7127 9.3865 85.3251 -0.0002 7.5955 -0.0015
# 4 -0.0007 0.0012 -0.0002 19.5314 -0.0027 0.8783
# 5 13.4160 -1.6128 7.5955 -0.0027 35.3862 0.0005
# 6 -0.0003 -0.0007 -0.0015 0.8783 0.0005 34.5345
#
#
#
# Elastic Compliance Matrix: (Units=1/GPa)
#
#
# Indices 1 2 3 4 5 6 
#
# 1 0.008859 -0.011962 -0.002719 0.000001 -0.003320 0.000000
# 2 -0.011962 0.100647 -0.006154 -0.000005 0.010443 0.000002
# 3 -0.002719 -0.006154 0.013926 0.000000 -0.002239 0.000001
# 4 0.000001 -0.000005 0.000000 0.051258 0.000003 -0.001304
# 5 -0.003320 0.010443 -0.002239 0.000003 0.030475 0.000000
# 6 0.000000 0.000002 0.000001 -0.001304 0.000000 0.028990
#
#
# Mechanical properties :
#
#
# Convention : Reuss Voigt Hill
#
# Bulk Modulus (GPa) = 12.23079 44.21034 28.22056
# Shear Modulus (GPa) = 16.49740 30.21989 23.35865
#
# Velocity S-wave (km/s) = 2.93697 3.97501 3.49475
# Velocity P-wave (km/s) = 4.23037 6.64705 5.57133
#
# Compressibility (1/GPa) = 0.08176088
#
# Stress axis : x y z
#
# Youngs Moduli (GPa) = 112.87893 9.93575 71.81037
#
# Poissons Ratio (x) = 0.11885 0.19528
# Poissons Ratio (y) = 1.35024 0.44191
# Poissons Ratio (z) = 0.30697 0.06114
#
# Static dielectric constant tensor:
#      x y z
#    x 1.689150 0.000000 0.004320 
#    y 0.000000 1.737290 0.000000 
#    z 0.004320 0.000000 1.729260 
# 
# From -- ./inp_files/248956.got.cif
#   From: 2010.05.17/outbox.cif.g08.bks.cpg/sg15_125_cif.got.tgz:248956.got - 2010.06.03 18:47:42.
