data_PCOD9261186
_publ_section_title
;
Structure prediction by ZEFSAII (Michael W. Deem and Ramdas Pophale) SiO2 
 PCOD9261186
Probable space group: C 2/C
;
_chemical_formula_sum "Si O2"
_cell_formula_units_Z 40
_cell_length_a 16.472686
_cell_length_b 10.833227
_cell_length_c 15.380085
_cell_angle_alpha 90.000000
_cell_angle_beta 128.401743
_cell_angle_gamma 90.000000
_cell_volume 2150.882809
_symmetry_space_group_name_H-M "C 2/C"
_symmetry_group_IT_number 15
_symmetry_cell_setting 'monoclinic'
loop_
_space_group_symop_operation_xyz
x,y,z
-x,y,1/2-z
-x,-y,-z
x,-y,1/2+z
1/2+x,1/2+y,z
1/2-x,1/2+y,1/2-z
1/2-x,1/2-y,-z
1/2+x,1/2-y,1/2+z
loop_
_atom_site_type_symbol
_atom_site_label
_atom_site_fract_x
_atom_site_fract_y
_atom_site_fract_z
Si Si1 0.894617 0.925934 0.721864
Si Si2 0.864425 0.295961 0.596063
Si Si3 0.719737 0.744892 0.619295
Si Si4 0.712485 0.939903 0.473454
Si Si5 0.067428 0.812273 0.173892
O O1 0.821033 0.823168 0.716191
O O2 0.819863 0.975099 0.594219
O O3 0.000000 0.875268 0.750000
O O4 0.923906 0.041946 0.800639
O O5 0.750000 0.250000 0.500000
O O6 0.861325 0.443537 0.582751
O O7 0.891458 0.257049 0.712313
O O8 0.949054 0.232337 0.590162
O O9 0.672479 0.829491 0.509668
O O10 0.759130 0.620559 0.599500
O O11 0.638027 0.722014 0.639675
#
# Coordination Sequence:
#
# PCOD9261186 Si02
#       5
#     8   8   8   8   8
#     4  10  18  41  59  81 122 154 192 240 294 354
#     4  11  20  40  61  83 123 157 190 248 300 342
#     4   9  22  40  57  88 118 151 202 241 291 356
#     4   9  20  40  59  79 126 154 187 242 301 347
#     4  11  22  37  62  92 111 151 210 239 286 357
#
# _framework density 18.597014000000001
#
# number of rings (size 3 to 8) (size 9 to 14) (size 15 to 20)
#    1.200    0.800    4.000    0.000    2.800    0.800 
#    7.200    2.000    0.000    0.000    0.000    0.000 
#    0.000    0.000    0.000    0.000    0.000    0.000 
#
# Total GULP energy -111387.919664 kJ/mol
# GULP energy per Si atom -5569.395983 kJ/mol
# Density = 1.855469 g / cm^3
# Si number density = 18.597014 Si / 1000 Ang^3
#
#
#
# Elastic Constant Matrix: (Units=GPa)
#
#
# Indices 1 2 3 4 5 6 
#
# 1 196.7786 59.6435 35.3225 0.0000 12.6397 0.0000
# 2 59.6435 90.9622 8.6762 0.0000 11.7905 0.0000
# 3 35.3225 8.6762 33.8448 0.0000 19.1139 0.0000
# 4 0.0000 0.0000 0.0000 18.0159 0.0000 6.4001
# 5 12.6397 11.7905 19.1139 0.0000 25.3104 0.0000
# 6 0.0000 0.0000 0.0000 6.4001 0.0000 18.5616
#
#
#
# Elastic Compliance Matrix: (Units=1/GPa)
#
#
# Indices 1 2 3 4 5 6 
#
# 1 0.008194 -0.005183 -0.010942 0.000000 0.006586 0.000000
# 2 -0.005183 0.014978 0.007058 0.000000 -0.009720 0.000000
# 3 -0.010942 0.007058 0.066134 0.000000 -0.047766 0.000000
# 4 0.000000 0.000000 0.000000 0.063254 0.000000 -0.021810
# 5 0.006586 -0.009720 -0.047766 0.000000 0.076821 0.000000
# 6 0.000000 0.000000 0.000000 -0.021810 0.000000 0.061395
#
#
# Mechanical properties :
#
#
# Convention : Reuss Voigt Hill
#
# Bulk Modulus (GPa) = 14.05035 58.76331 36.40683
# Shear Modulus (GPa) = 15.03159 26.90717 20.96938
#
# Velocity S-wave (km/s) = 2.84611 3.80788 3.36157
# Velocity P-wave (km/s) = 4.28626 7.14144 5.88949
#
# Compressibility (1/GPa) = 0.07117261
#
# Stress axis : x y z
#
# Youngs Moduli (GPa) = 122.04231 66.76269 15.12090
#
# Poissons Ratio (x) = 0.34601 0.16546
# Poissons Ratio (y) = 0.63250 -0.10673
# Poissons Ratio (z) = 1.33544 -0.47124
#
# Static dielectric constant tensor:
#      x y z
#    x 1.615660 0.000000 0.008650 
#    y 0.000000 1.676830 0.000000 
#    z 0.008650 0.000000 1.664740 
# 
# From -- ./inp_files/203695.got.cif
#   From: 2010.05.17/outbox.cif.g08.bks.cpg/sg15_102_cif.got.tgz:203695.got - 2010.06.03 18:47:42.
