data_PCOD9261303
_publ_section_title
;
Structure prediction by ZEFSAII (Michael W. Deem and Ramdas Pophale) SiO2 
 PCOD9261303
Probable space group: C 2/C
;
_chemical_formula_sum "Si O2"
_cell_formula_units_Z 64
_cell_length_a 20.771975
_cell_length_b 27.445828
_cell_length_c 9.181072
_cell_angle_alpha 90.000000
_cell_angle_beta 116.231128
_cell_angle_gamma 90.000000
_cell_volume 4695.143393
_symmetry_space_group_name_H-M "C 2/C"
_symmetry_group_IT_number 15
_symmetry_cell_setting 'monoclinic'
loop_
_space_group_symop_operation_xyz
x,y,z
-x,y,1/2-z
-x,-y,-z
x,-y,1/2+z
1/2+x,1/2+y,z
1/2-x,1/2+y,1/2-z
1/2-x,1/2-y,-z
1/2+x,1/2-y,1/2+z
loop_
_atom_site_type_symbol
_atom_site_label
_atom_site_fract_x
_atom_site_fract_y
_atom_site_fract_z
Si Si1 0.583956 0.550325 0.659406
Si Si2 0.339820 0.650179 0.766044
Si Si3 0.839820 0.150179 0.413596
Si Si4 0.583931 0.258458 0.007324
Si Si5 0.416044 0.550325 0.491494
Si Si6 0.583931 0.258458 0.660538
Si Si7 0.799759 0.298666 0.716922
Si Si8 0.700241 0.798666 0.117404
O O1 0.630470 0.597274 0.663896
O O2 0.500000 0.559379 0.538684
O O3 0.605856 0.500000 0.605856
O O4 0.588474 0.544862 0.838474
O O5 0.345397 0.655790 0.595398
O O6 0.387046 0.692322 0.887586
O O7 0.256382 0.659788 0.720686
O O8 0.869530 0.097275 0.402957
O O9 0.887046 0.192322 0.386507
O O10 0.756382 0.159788 0.292078
O O11 0.632751 0.214518 0.116977
O O12 0.593073 0.262639 0.843072
O O13 0.500000 0.251890 0.956063
O O14 0.632751 0.214518 0.648525
O O15 0.750000 0.250000 0.667956
O O16 0.822196 0.307005 0.572196
#
# Coordination Sequence:
#
# PCOD9261303 Si02
#       8
#     8   8   8   8   8   8   8   8
#     4   9  17  28  41  57  78 103 130 161 193 223
#     4   9  17  29  43  57  75 103 136 164 192 227
#     4   9  17  29  43  57  75 103 136 164 192 227
#     4  10  19  27  37  57  82 105 130 160 193 230
#     4   9  17  28  41  57  78 103 130 161 193 223
#     4  10  19  27  37  57  82 105 130 160 193 230
#     4   8  15  27  41  56  74  99 131 162 191 227
#     4   8  15  27  41  56  74  99 131 162 191 227
#
# _framework density 13.631107
#
# number of rings (size 3 to 8) (size 9 to 14) (size 15 to 20)
#    0.000    3.000    0.000    3.000    0.000    8.500 
#    0.000    2.500    0.000    0.000    0.000    0.000 
#    0.000    1.000    0.000    2.250    0.000    4.000 
#
# Total GULP energy -178153.535027 kJ/mol
# GULP energy per Si atom -5567.297970 kJ/mol
# Density = 1.360008 g / cm^3
# Si number density = 13.631107 Si / 1000 Ang^3
#
#
#
# Elastic Constant Matrix: (Units=GPa)
#
#
# Indices 1 2 3 4 5 6 
#
# 1 95.7602 57.0627 42.0682 0.0000 9.1752 0.0000
# 2 57.0627 97.7449 38.3453 0.0000 13.5094 0.0000
# 3 42.0682 38.3453 56.3389 0.0000 19.2776 0.0000
# 4 0.0000 0.0000 0.0000 21.4246 0.0000 2.8598
# 5 9.1752 13.5094 19.2776 0.0000 13.1985 0.0000
# 6 0.0000 0.0000 0.0000 2.8598 0.0000 25.3870
#
#
#
# Elastic Compliance Matrix: (Units=1/GPa)
#
#
# Indices 1 2 3 4 5 6 
#
# 1 0.020537 -0.008240 -0.015448 0.000000 0.016721 0.000000
# 2 -0.008240 0.017268 -0.003023 0.000000 -0.007531 0.000000
# 3 -0.015448 -0.003023 0.053194 0.000000 -0.063861 0.000000
# 4 0.000000 0.000000 0.000000 0.047388 0.000000 -0.005338
# 5 0.016721 -0.007531 -0.063861 0.000000 0.165125 0.000000
# 6 0.000000 0.000000 0.000000 -0.005338 0.000000 0.039992
#
#
# Mechanical properties :
#
#
# Convention : Reuss Voigt Hill
#
# Bulk Modulus (GPa) = 26.61265 58.31069 42.46167
# Shear Modulus (GPa) = 12.21145 19.49322 15.85233
#
# Velocity S-wave (km/s) = 2.99632 3.78571 3.41391
# Velocity P-wave (km/s) = 5.61573 7.87269 6.83797
#
# Compressibility (1/GPa) = 0.03757612
#
# Stress axis : x y z
#
# Youngs Moduli (GPa) = 48.69143 57.90997 18.79923
#
# Poissons Ratio (x) = 0.47720 0.29041
# Poissons Ratio (y) = 0.40123 0.05683
# Poissons Ratio (z) = 0.75219 0.17507
#
# Static dielectric constant tensor:
#      x y z
#    x 1.453590 0.000000 -0.002180 
#    y 0.000000 1.435760 0.000000 
#    z -0.002180 0.000000 1.456600 
# 
# From -- ./inp_files/58927.got.cif
#   From: 2010.05.17/outbox.cif.g08.bks.cpg/sg15_30_cif.got.tgz:58927.got - 2010.06.03 18:47:42.
