data_PCOD9261118
_publ_section_title
;
Structure prediction by ZEFSAII (Michael W. Deem and Ramdas Pophale) SiO2 
 PCOD9261118
Probable space group: C 2/C
;
_chemical_formula_sum "Si O2"
_cell_formula_units_Z 56
_cell_length_a 11.572993
_cell_length_b 18.178181
_cell_length_c 15.301696
_cell_angle_alpha 90.000000
_cell_angle_beta 108.375094
_cell_angle_gamma 90.000000
_cell_volume 3054.976722
_symmetry_space_group_name_H-M "C 2/C"
_symmetry_group_IT_number 15
_symmetry_cell_setting 'monoclinic'
loop_
_space_group_symop_operation_xyz
x,y,z
-x,y,1/2-z
-x,-y,-z
x,-y,1/2+z
1/2+x,1/2+y,z
1/2-x,1/2+y,1/2-z
1/2-x,1/2-y,-z
1/2+x,1/2-y,1/2+z
loop_
_atom_site_type_symbol
_atom_site_label
_atom_site_fract_x
_atom_site_fract_y
_atom_site_fract_z
Si Si1 0.597322 0.838078 0.695219
Si Si2 0.265179 0.420874 0.134337
Si Si3 0.114248 0.591057 0.842611
Si Si4 0.747803 0.530042 0.216197
Si Si5 0.005383 0.034648 0.596565
Si Si6 0.662175 0.670260 0.686015
Si Si7 0.491142 0.087983 0.996207
O O1 0.500000 0.837083 0.750000
O O2 0.708636 0.887995 0.757257
O O3 0.632571 0.755316 0.679274
O O4 0.542457 0.876950 0.596398
O O5 0.214932 0.481466 0.190687
O O6 0.371736 0.458729 0.104868
O O7 0.323348 0.358792 0.210818
O O8 0.150768 0.392465 0.052610
O O9 0.182705 0.511808 0.846933
O O10 0.211832 0.650106 0.831789
O O11 0.000000 0.589719 0.750000
O O12 0.068506 0.608583 0.928429
O O13 0.604102 0.515506 0.171363
O O14 0.062969 0.116618 0.617186
O O15 0.000000 0.000000 0.500000
O O16 0.500000 0.000000 0.000000
#
# Coordination Sequence:
#
# PCOD9261118 Si02
#       7
#     8   8   8   8   8   8   8
#     4  12  25  40  60  93 132 167 213 263 319 380
#     4  10  20  40  64  88 121 166 205 254 321 371
#     4  10  18  40  65  93 119 159 210 255 319 372
#     4  10  20  37  65  89 122 162 204 267 313 373
#     4  10  22  38  63  89 120 161 215 256 308 381
#     4  10  23  43  63  84 132 169 200 265 321 376
#     4  12  22  36  69  98 122 160 212 266 313 379
#
# _framework density 18.330745
#
# number of rings (size 3 to 8) (size 9 to 14) (size 15 to 20)
#    0.000    1.714    4.286    3.857    6.000    0.571 
#    2.571    2.857    0.000    0.000    0.000    0.000 
#    0.000    0.000    0.000    0.000    0.000    0.000 
#
# Total GULP energy -156253.491917 kJ/mol
# GULP energy per Si atom -5580.481854 kJ/mol
# Density = 1.828902 g / cm^3
# Si number density = 18.330745 Si / 1000 Ang^3
#
#
#
# Elastic Constant Matrix: (Units=GPa)
#
#
# Indices 1 2 3 4 5 6 
#
# 1 122.6076 35.0403 51.7850 0.0000 -17.2271 0.0000
# 2 35.0403 140.7695 48.2249 0.0000 0.6135 0.0000
# 3 51.7850 48.2249 108.5127 0.0000 -9.1714 0.0000
# 4 0.0000 0.0000 0.0000 16.6393 0.0000 -2.9791
# 5 -17.2271 0.6135 -9.1714 0.0000 25.0634 0.0000
# 6 0.0000 0.0000 0.0000 -2.9791 0.0000 17.2972
#
#
#
# Elastic Compliance Matrix: (Units=1/GPa)
#
#
# Indices 1 2 3 4 5 6 
#
# 1 0.011196 -0.001371 -0.004210 0.000000 0.006188 0.000000
# 2 -0.001371 0.008612 -0.003375 0.000000 -0.002388 0.000000
# 3 -0.004210 -0.003375 0.012885 0.000000 0.001904 0.000000
# 4 0.000000 0.000000 0.000000 0.062011 0.000000 0.010680
# 5 0.006188 -0.002388 0.001904 0.000000 0.044907 0.000000
# 6 0.000000 0.000000 0.000000 0.010680 0.000000 0.059652
#
#
# Mechanical properties :
#
#
# Convention : Reuss Voigt Hill
#
# Bulk Modulus (GPa) = 67.65836 71.33224 69.49530
# Shear Modulus (GPa) = 22.51210 27.58931 25.05070
#
# Velocity S-wave (km/s) = 3.50824 3.88375 3.70076
# Velocity P-wave (km/s) = 7.30754 7.68829 7.50033
#
# Compressibility (1/GPa) = 0.01478014
#
# Stress axis : x y z
#
# Youngs Moduli (GPa) = 89.31883 116.12178 77.60699
#
# Poissons Ratio (x) = 0.15925 0.32676
# Poissons Ratio (y) = 0.12249 0.26189
# Poissons Ratio (z) = 0.37607 0.39186
#
# Static dielectric constant tensor:
#      x y z
#    x 1.669660 0.000000 0.009200 
#    y 0.000000 1.610070 0.000000 
#    z 0.009200 0.000000 1.665650 
# 
# From -- ./inp_files/145758.got.cif
#   From: 2010.05.17/outbox.cif.g08.bks.cpg/sg15_73_cif.got.tgz:145758.got - 2010.06.03 18:47:42.
