data_PCOD9261858
_publ_section_title
;
Structure prediction by ZEFSAII (Michael W. Deem and Ramdas Pophale) SiO2 
 PCOD9261858
Probable space group: C 2/C
;
_chemical_formula_sum "Si O2"
_cell_formula_units_Z 52
_cell_length_a 8.290845
_cell_length_b 29.412513
_cell_length_c 10.564202
_cell_angle_alpha 90.000000
_cell_angle_beta 119.981539
_cell_angle_gamma 90.000000
_cell_volume 2231.408157
_symmetry_space_group_name_H-M "C 2/C"
_symmetry_group_IT_number 15
_symmetry_cell_setting 'monoclinic'
loop_
_space_group_symop_operation_xyz
x,y,z
-x,y,1/2-z
-x,-y,-z
x,-y,1/2+z
1/2+x,1/2+y,z
1/2-x,1/2+y,1/2-z
1/2-x,1/2-y,-z
1/2+x,1/2-y,1/2+z
loop_
_atom_site_type_symbol
_atom_site_label
_atom_site_fract_x
_atom_site_fract_y
_atom_site_fract_z
Si Si1 0.499135 0.718248 0.460957
Si Si2 0.000000 0.211606 0.750000
Si Si3 0.099854 0.317280 0.413971
Si Si4 0.134987 0.448246 0.678999
Si Si5 0.786271 0.635347 0.897405
Si Si6 0.280654 0.858096 0.680494
Si Si7 0.124995 0.547619 0.673493
O O1 0.477129 0.732321 0.601091
O O2 0.679512 0.686232 0.510732
O O3 0.534563 0.765382 0.405847
O O4 0.327051 0.689146 0.339746
O O5 0.823157 0.178898 0.694452
O O6 0.000000 0.335688 0.250000
O O7 0.003051 0.348785 0.480588
O O8 0.251699 0.402114 0.743612
O O9 0.224373 0.498520 0.714408
O O10 0.000000 0.447593 0.750000
O O11 0.008943 0.448710 0.503122
O O12 0.750014 0.591838 0.796804
O O13 0.720588 0.627357 0.014429
O O14 0.500000 0.848772 0.750000
O O15 0.000000 0.551011 0.750000
#
# Coordination Sequence:
#
# PCOD9261858 Si02
#       7
#     8   4   8   8   8   8   8
#     4  10  24  42  65  92 131 176 217 277 325 387
#     4  10  22  40  60  94 122 162 224 268 322 394
#     4  11  23  44  62  93 132 174 218 272 331 390
#     4   9  17  36  57  94 129 163 218 261 325 391
#     4  11  21  39  63  88 127 172 214 268 327 387
#     4  10  20  39  65  97 127 171 218 269 319 402
#     4  10  19  31  62  93 125 171 210 267 324 389
#
# _framework density 23.30367
#
# number of rings (size 3 to 8) (size 9 to 14) (size 15 to 20)
#    0.000    1.846    4.615    0.462    0.000    4.923 
#    2.769    0.000    0.000    7.385    0.000    0.000 
#    0.000    0.000    0.000    0.000    0.000    0.000 
#
# Total GULP energy -145122.600591 kJ/mol
# GULP energy per Si atom -5581.638484 kJ/mol
# Density = 2.325063 g / cm^3
# Si number density = 23.303670 Si / 1000 Ang^3
#
#
#
# Elastic Constant Matrix: (Units=GPa)
#
#
# Indices 1 2 3 4 5 6 
#
# 1 54.9975 12.3862 11.2147 0.0000 5.4198 0.0000
# 2 12.3862 67.0183 8.4457 0.0000 10.1124 0.0000
# 3 11.2147 8.4457 77.5442 0.0000 -23.3495 0.0000
# 4 0.0000 0.0000 0.0000 32.9300 0.0000 -23.7044
# 5 5.4198 10.1124 -23.3495 0.0000 40.7051 0.0000
# 6 0.0000 0.0000 0.0000 -23.7044 0.0000 -0.6966
#
#
#
# Elastic Compliance Matrix: (Units=1/GPa)
#
#
# Indices 1 2 3 4 5 6 
#
# 1 0.019972 -0.002559 -0.003891 0.000000 -0.004256 0.000000
# 2 -0.002559 0.016630 -0.003122 0.000000 -0.005581 0.000000
# 3 -0.003891 -0.003122 0.017151 0.000000 0.011132 0.000000
# 4 0.000000 0.000000 0.000000 0.001191 0.000000 -0.040532
# 5 -0.004256 -0.005581 0.011132 0.000000 0.032906 0.000000
# 6 0.000000 0.000000 0.000000 -0.040532 0.000000 -0.056306
#
#
# Mechanical properties :
#
#
# Convention : Reuss Voigt Hill
#
# Bulk Modulus (GPa) = 28.89437 29.29480 29.09458
# Shear Modulus (GPa) = 80.35790 25.75526 53.05658
#
# Velocity S-wave (km/s) = 5.87859 3.32806 4.77670
# Velocity P-wave (km/s) = 7.64873 5.23127 6.55245
#
# Compressibility (1/GPa) = 0.03460882
#
# Stress axis : x y z
#
# Youngs Moduli (GPa) = 50.07080 60.13311 58.30731
#
# Poissons Ratio (x) = 0.15386 0.22688
# Poissons Ratio (y) = 0.12811 0.18203
# Poissons Ratio (z) = 0.19483 0.18773
#
# Static dielectric constant tensor:
#      x y z
#    x 1.938570 0.000000 0.009040 
#    y 0.000000 1.931440 0.000000 
#    z 0.009040 0.000000 1.990810 
# 
# From -- ./inp_files/82312.got.cif
#   From: 2010.05.17/outbox.cif.g08.bks.cpg/sg15_42_cif.got.tgz:82312.got - 2010.06.03 18:47:42.
