data_PCOD9261232
_publ_section_title
;
Structure prediction by ZEFSAII (Michael W. Deem and Ramdas Pophale) SiO2 
 PCOD9261232
Probable space group: C 2/C
;
_chemical_formula_sum "Si O2"
_cell_formula_units_Z 60
_cell_length_a 20.048987
_cell_length_b 13.796129
_cell_length_c 10.879053
_cell_angle_alpha 90.000000
_cell_angle_beta 97.578361
_cell_angle_gamma 90.000000
_cell_volume 2982.845294
_symmetry_space_group_name_H-M "C 2/C"
_symmetry_group_IT_number 15
_symmetry_cell_setting 'monoclinic'
loop_
_space_group_symop_operation_xyz
x,y,z
-x,y,1/2-z
-x,-y,-z
x,-y,1/2+z
1/2+x,1/2+y,z
1/2-x,1/2+y,1/2-z
1/2-x,1/2-y,-z
1/2+x,1/2-y,1/2+z
loop_
_atom_site_type_symbol
_atom_site_label
_atom_site_fract_x
_atom_site_fract_y
_atom_site_fract_z
Si Si1 0.074549 0.093140 0.508380
Si Si2 0.320963 0.800631 0.497885
Si Si3 0.892075 0.967953 0.217817
Si Si4 0.241429 0.423142 0.217207
Si Si5 0.000000 0.628605 0.250000
Si Si6 0.853180 0.408486 0.753106
Si Si7 0.446921 0.298158 0.070853
Si Si8 0.304358 0.737980 0.907548
O O1 0.088709 0.025605 0.633256
O O2 0.131930 0.175322 0.532291
O O3 0.002450 0.141077 0.512806
O O4 0.079654 0.040527 0.378357
O O5 0.250000 0.750000 0.500000
O O6 0.307051 0.886956 0.401991
O O7 0.343116 0.840223 0.633879
O O8 0.381412 0.729487 0.475266
O O9 0.811132 0.970225 0.188236
O O10 0.919512 0.863234 0.178077
O O11 0.196627 0.501418 0.276681
O O12 0.267081 0.328911 0.296832
O O13 0.933063 0.570246 0.272294
O O14 0.981530 0.701889 0.134058
O O15 0.829458 0.340854 0.860490
O O16 0.250000 0.750000 0.000000
#
# Coordination Sequence:
#
# PCOD9261232 Si02
#       8
#     8   8   8   8   4   8   8   8
#     4  11  22  40  62 100 129 176 214 268 329 395
#     4  11  21  40  65  94 119 167 217 264 315 384
#     4  11  22  36  66  93 137 162 219 266 329 393
#     4  11  24  41  62 100 126 164 214 270 319 386
#     4  10  18  42  62  86 116 180 216 250 312 388
#     4  11  23  39  69  91 126 169 215 264 321 386
#     4  11  19  38  65  86 125 170 218 260 318 392
#     4  11  23  42  65  92 134 171 209 264 328 386
#
# _framework density 20.115022
#
# number of rings (size 3 to 8) (size 9 to 14) (size 15 to 20)
#    0.000    1.067    5.333    2.800    5.600    0.000 
#    2.400    4.000    0.000    0.000    0.000    0.000 
#    0.000    0.000    0.000    0.000    0.000    0.000 
#
# Total GULP energy -167509.054726 kJ/mol
# GULP energy per Si atom -5583.635158 kJ/mol
# Density = 2.006924 g / cm^3
# Si number density = 20.115022 Si / 1000 Ang^3
#
#
#
# Elastic Constant Matrix: (Units=GPa)
#
#
# Indices 1 2 3 4 5 6 
#
# 1 168.6611 24.9629 35.4995 0.0000 -17.2802 0.0000
# 2 24.9629 23.3040 5.7373 0.0000 -6.8271 0.0000
# 3 35.4995 5.7373 56.7805 0.0000 -19.4625 0.0000
# 4 0.0000 0.0000 0.0000 25.2998 0.0000 -1.5343
# 5 -17.2802 -6.8271 -19.4625 0.0000 27.6144 0.0000
# 6 0.0000 0.0000 0.0000 -1.5343 0.0000 31.1636
#
#
#
# Elastic Compliance Matrix: (Units=1/GPa)
#
#
# Indices 1 2 3 4 5 6 
#
# 1 0.007915 -0.007399 -0.004127 0.000000 0.000215 0.000000
# 2 -0.007399 0.053222 0.002863 0.000000 0.010546 0.000000
# 3 -0.004127 0.002863 0.025395 0.000000 0.016024 0.000000
# 4 0.000000 0.000000 0.000000 0.039644 0.000000 0.001952
# 5 0.000215 0.010546 0.016024 0.000000 0.050248 0.000000
# 6 0.000000 0.000000 0.000000 0.001952 0.000000 0.032185
#
#
# Mechanical properties :
#
#
# Convention : Reuss Voigt Hill
#
# Bulk Modulus (GPa) = 14.44988 42.34945 28.39967
# Shear Modulus (GPa) = 20.08003 28.98527 24.53265
#
# Velocity S-wave (km/s) = 3.16295 3.80014 3.49609
# Velocity P-wave (km/s) = 4.53192 6.35249 5.51780
#
# Compressibility (1/GPa) = 0.06920472
#
# Stress axis : x y z
#
# Youngs Moduli (GPa) = 126.34428 18.78937 39.37776
#
# Poissons Ratio (x) = 0.13903 0.16252
# Poissons Ratio (y) = 0.93486 -0.11274
# Poissons Ratio (z) = 0.52145 -0.05380
#
# Static dielectric constant tensor:
#      x y z
#    x 1.898450 0.000000 0.271170 
#    y 0.000000 2.408050 0.000000 
#    z 0.271170 0.000000 2.212400 
# 
# From -- ./inp_files/105350.got.cif
#   From: 2010.05.17/outbox.cif.g08.bks.cpg/sg15_53_cif.got.tgz:105350.got - 2010.06.03 18:47:42.
