data_PCOD9261466
_publ_section_title
;
Structure prediction by ZEFSAII (Michael W. Deem and Ramdas Pophale) SiO2 
 PCOD9261466
Probable space group: C 2/C
;
_chemical_formula_sum "Si O2"
_cell_formula_units_Z 56
_cell_length_a 5.119110
_cell_length_b 34.153058
_cell_length_c 19.018983
_cell_angle_alpha 90.000000
_cell_angle_beta 105.493198
_cell_angle_gamma 90.000000
_cell_volume 3204.322056
_symmetry_space_group_name_H-M "C 2/C"
_symmetry_group_IT_number 15
_symmetry_cell_setting 'monoclinic'
loop_
_space_group_symop_operation_xyz
x,y,z
-x,y,1/2-z
-x,-y,-z
x,-y,1/2+z
1/2+x,1/2+y,z
1/2-x,1/2+y,1/2-z
1/2-x,1/2-y,-z
1/2+x,1/2-y,1/2+z
loop_
_atom_site_type_symbol
_atom_site_label
_atom_site_fract_x
_atom_site_fract_y
_atom_site_fract_z
Si Si1 0.810351 0.449229 0.017827
Si Si2 0.852862 0.780302 0.565531
Si Si3 0.000000 0.003674 0.250000
Si Si4 0.602420 0.370120 0.956617
Si Si5 0.050056 0.287947 0.833587
Si Si6 0.500000 0.941909 0.750000
Si Si7 0.881205 0.015952 0.589666
Si Si8 0.984100 0.622974 0.132120
O O1 0.653422 0.470274 0.070509
O O2 0.127022 0.458892 0.043694
O O3 0.746166 0.403336 0.012976
O O4 0.687504 0.471471 0.940252
O O5 0.750000 0.750000 0.500000
O O6 0.837204 0.824069 0.530404
O O7 0.671798 0.777700 0.623146
O O8 0.160999 0.775092 0.614042
O O9 0.242407 0.030938 0.241513
O O10 0.095349 0.980392 0.325385
O O11 0.280864 0.377279 0.936624
O O12 0.732548 0.377775 0.888812
O O13 0.044686 0.335417 0.831358
O O14 0.000000 0.273907 0.750000
O O15 0.533686 0.913598 0.818567
#
# Coordination Sequence:
#
# PCOD9261466 Si02
#       8
#     8   8   4   8   8   4   8   8
#     4  10  19  35  53  73  96 138 174 215 252 311
#     4  10  21  35  55  84 113 144 182 227 266 327
#     4  12  24  34  48  76 102 143 170 219 276 300
#     4  10  20  33  53  76 103 137 176 213 263 309
#     4  10  19  34  53  79 113 149 178 208 270 331
#     4  12  20  30  48  70 112 137 164 201 256 332
#     4  10  21  34  51  72 103 129 179 216 257 306
#     4  10  19  30  47  77 109 136 166 202 253 333
#
# _framework density 17.476393999999999
#
# number of rings (size 3 to 8) (size 9 to 14) (size 15 to 20)
#    0.000    1.714    0.714    5.143    0.000    2.286 
#    0.000    0.000    0.000    0.000   11.143    0.000 
#    0.000    0.000    0.000    0.000    0.000    0.000 
#
# Total GULP energy -156211.222964 kJ/mol
# GULP energy per Si atom -5578.972249 kJ/mol
# Density = 1.743662 g / cm^3
# Si number density = 17.476394 Si / 1000 Ang^3
#
#
#
# Elastic Constant Matrix: (Units=GPa)
#
#
# Indices 1 2 3 4 5 6 
#
# 1 61.9954 -7.4848 -6.1486 0.0000 8.6460 0.0000
# 2 -7.4848 59.6537 18.1537 0.0000 3.9215 0.0000
# 3 -6.1486 18.1537 65.8026 0.0000 -3.4687 0.0000
# 4 0.0000 0.0000 0.0000 20.7550 0.0000 0.0108
# 5 8.6460 3.9215 -3.4687 0.0000 14.0841 0.0000
# 6 0.0000 0.0000 0.0000 0.0108 0.0000 16.2117
#
#
#
# Elastic Compliance Matrix: (Units=1/GPa)
#
#
# Indices 1 2 3 4 5 6 
#
# 1 0.018180 0.002991 0.000245 0.000000 -0.011933 0.000000
# 2 0.002991 0.019384 -0.005521 0.000000 -0.008593 0.000000
# 3 0.000245 -0.005521 0.017037 0.000000 0.005583 0.000000
# 4 0.000000 0.000000 0.000000 0.048181 0.000000 -0.000032
# 5 -0.011933 -0.008593 0.005583 0.000000 0.082095 0.000000
# 6 0.000000 0.000000 0.000000 -0.000032 0.000000 0.061684
#
#
# Mechanical properties :
#
#
# Convention : Reuss Voigt Hill
#
# Bulk Modulus (GPa) = 19.98809 21.83249 20.91029
# Shear Modulus (GPa) = 18.67006 22.40559 20.53783
#
# Velocity S-wave (km/s) = 3.27203 3.58446 3.43180
# Velocity P-wave (km/s) = 5.07316 5.44525 5.26250
#
# Compressibility (1/GPa) = 0.05002979
#
# Stress axis : x y z
#
# Youngs Moduli (GPa) = 55.00615 51.58956 58.69477
#
# Poissons Ratio (x) = -0.15431 -0.01435
# Poissons Ratio (y) = -0.16453 0.32406
# Poissons Ratio (z) = -0.01345 0.28483
#
# Static dielectric constant tensor:
#      x y z
#    x 1.604790 0.000000 -0.000850 
#    y 0.000000 1.587740 0.000000 
#    z -0.000850 0.000000 1.609290 
# 
# From -- ./inp_files/186597.got.cif
#   From: 2010.05.17/outbox.cif.g08.bks.cpg/sg15_94_cif.got.tgz:186597.got - 2010.06.03 18:47:42.
