data_PCOD9261173
_publ_section_title
;
Structure prediction by ZEFSAII (Michael W. Deem and Ramdas Pophale) SiO2 
 PCOD9261173
Probable space group: C 2/C
;
_chemical_formula_sum "Si O2"
_cell_formula_units_Z 44
_cell_length_a 15.815800
_cell_length_b 21.837314
_cell_length_c 5.342786
_cell_angle_alpha 90.000000
_cell_angle_beta 93.693553
_cell_angle_gamma 90.000000
_cell_volume 1841.429684
_symmetry_space_group_name_H-M "C 2/C"
_symmetry_group_IT_number 15
_symmetry_cell_setting 'monoclinic'
loop_
_space_group_symop_operation_xyz
x,y,z
-x,y,1/2-z
-x,-y,-z
x,-y,1/2+z
1/2+x,1/2+y,z
1/2-x,1/2+y,1/2-z
1/2-x,1/2-y,-z
1/2+x,1/2-y,1/2+z
loop_
_atom_site_type_symbol
_atom_site_label
_atom_site_fract_x
_atom_site_fract_y
_atom_site_fract_z
Si Si1 0.000000 0.191159 0.250000
Si Si2 0.500000 0.042424 0.750000
Si Si3 0.127141 0.131495 0.920331
Si Si4 0.000000 0.959859 0.250000
Si Si5 0.903213 0.748171 0.345560
Si Si6 0.092281 0.611361 0.138813
Si Si7 0.248230 0.460987 0.824253
O O1 0.956335 0.148298 0.439844
O O2 0.075550 0.232743 0.367887
O O3 0.424140 0.088501 0.650136
O O4 0.500000 0.000000 0.500000
O O5 0.195373 0.098744 0.106552
O O6 0.086781 0.079393 0.739223
O O7 0.148076 0.195683 0.787755
O O8 0.000000 0.000000 0.500000
O O9 0.869852 0.679560 0.332604
O O10 0.000000 0.747777 0.250000
O O11 0.152097 0.563374 0.288543
O O12 0.000000 0.614919 0.250000
O O13 0.262096 0.493403 0.559884
#
# Coordination Sequence:
#
# PCOD9261173 Si02
#       7
#     4   4   8   4   8   8   8
#     4  10  18  40  70 102 136 180 230 286 350 418
#     4  12  23  40  70  98 132 179 234 280 338 416
#     4  11  23  42  68 100 143 184 233 291 348 416
#     4  12  23  36  64  94 128 183 230 266 336 410
#     4   9  20  40  70 105 137 179 237 294 344 421
#     4  11  25  46  75 105 140 187 239 291 359 417
#     4  12  30  48  68 103 146 183 236 297 348 417
#
# _framework density 23.894476999999998
#
# number of rings (size 3 to 8) (size 9 to 14) (size 15 to 20)
#    0.000    1.091    3.636    3.273    5.091    0.727 
#    0.000    0.909    0.000    0.000    0.000    0.000 
#    0.000    0.000    0.000    0.000    0.000    0.000 
#
# Total GULP energy -122798.950106 kJ/mol
# GULP energy per Si atom -5581.770459 kJ/mol
# Density = 2.384009 g / cm^3
# Si number density = 23.894477 Si / 1000 Ang^3
#
#
#
# Elastic Constant Matrix: (Units=GPa)
#
#
# Indices 1 2 3 4 5 6 
#
# 1 40.8699 23.0215 18.6431 0.0000 16.8503 0.0000
# 2 23.0215 167.6591 73.9376 0.0000 12.3511 0.0000
# 3 18.6431 73.9376 148.4409 0.0000 12.9903 0.0000
# 4 0.0000 0.0000 0.0000 42.0775 0.0000 13.7351
# 5 16.8503 12.3511 12.9903 0.0000 30.5203 0.0000
# 6 0.0000 0.0000 0.0000 13.7351 0.0000 29.7185
#
#
#
# Elastic Compliance Matrix: (Units=1/GPa)
#
#
# Indices 1 2 3 4 5 6 
#
# 1 0.033597 -0.002770 -0.001366 0.000000 -0.016847 0.000000
# 2 -0.002770 0.007941 -0.003594 0.000000 -0.000155 0.000000
# 3 -0.001366 -0.003594 0.008834 0.000000 -0.001552 0.000000
# 4 0.000000 0.000000 0.000000 0.027988 0.000000 -0.012935
# 5 -0.016847 -0.000155 -0.001552 0.000000 0.042789 0.000000
# 6 0.000000 0.000000 0.000000 -0.012935 0.000000 0.039627
#
#
# Mechanical properties :
#
#
# Convention : Reuss Voigt Hill
#
# Bulk Modulus (GPa) = 28.64255 65.35271 46.99763
# Shear Modulus (GPa) = 26.61363 36.55445 31.58404
#
# Velocity S-wave (km/s) = 3.34098 3.91555 3.63962
# Velocity P-wave (km/s) = 5.18614 6.91751 6.11342
#
# Compressibility (1/GPa) = 0.03491309
#
# Stress axis : x y z
#
# Youngs Moduli (GPa) = 29.76474 125.92554 113.19696
#
# Poissons Ratio (x) = 0.34881 0.15457
# Poissons Ratio (y) = 0.08245 0.40684
# Poissons Ratio (z) = 0.04064 0.45258
#
# Static dielectric constant tensor:
#      x y z
#    x 1.165140 0.000000 1.957260 
#    y 0.000000 2.058250 0.000000 
#    z 1.957260 0.000000 -2.816530 
# 
# From -- ./inp_files/10815.got.cif
#   From: 2010.05.17/outbox.cif.g08.bks.cpg/sg15_6_cif.got.tgz:10815.got - 2010.06.03 18:47:42.
