data_PCOD9261497
_publ_section_title
;
Structure prediction by ZEFSAII (Michael W. Deem and Ramdas Pophale) SiO2 
 PCOD9261497
Probable space group: C 2/C
;
_chemical_formula_sum "Si O2"
_cell_formula_units_Z 64
_cell_length_a 13.231348
_cell_length_b 23.721764
_cell_length_c 10.764228
_cell_angle_alpha 90.000000
_cell_angle_beta 77.550575
_cell_angle_gamma 90.000000
_cell_volume 3299.136494
_symmetry_space_group_name_H-M "C 2/C"
_symmetry_group_IT_number 15
_symmetry_cell_setting 'monoclinic'
loop_
_space_group_symop_operation_xyz
x,y,z
-x,y,1/2-z
-x,-y,-z
x,-y,1/2+z
1/2+x,1/2+y,z
1/2-x,1/2+y,1/2-z
1/2-x,1/2-y,-z
1/2+x,1/2-y,1/2+z
loop_
_atom_site_type_symbol
_atom_site_label
_atom_site_fract_x
_atom_site_fract_y
_atom_site_fract_z
Si Si1 0.362779 0.623275 0.120761
Si Si2 0.125080 0.059223 0.725056
Si Si3 0.875796 0.999178 0.527126
Si Si4 0.447195 0.308550 0.000641
Si Si5 0.768625 0.828593 0.412609
Si Si6 0.923195 0.710936 0.672578
Si Si7 0.896479 0.258942 0.735026
Si Si8 0.710001 0.695921 0.150939
O O1 0.341130 0.559219 0.099337
O O2 0.480594 0.638723 0.051249
O O3 0.340632 0.643262 0.264537
O O4 0.289259 0.660818 0.051912
O O5 0.151053 0.010496 0.612720
O O6 0.178838 0.116816 0.665655
O O7 0.000000 0.065237 0.750000
O O8 0.155955 0.045317 0.860022
O O9 0.000000 0.000000 0.500000
O O10 0.508490 0.256287 0.921209
O O11 0.331320 0.309997 0.976922
O O12 0.439318 0.294239 0.145299
O O13 0.650636 0.823844 0.398425
O O14 0.826986 0.770815 0.358192
O O15 0.846178 0.749189 0.776251
O O16 0.000000 0.680924 0.750000
O O17 0.827843 0.295831 0.658702
O O18 0.000000 0.290041 0.750000
#
# Coordination Sequence:
#
# PCOD9261497 Si02
#       8
#     8   8   8   8   8   8   8   8
#     4  10  19  32  49  71  94 131 160 193 238 294
#     4   9  18  32  48  72 100 126 152 199 242 292
#     4   9  19  31  49  71 100 125 158 194 246 296
#     4  10  19  31  47  67 101 129 162 196 239 277
#     4  10  19  30  49  72  95 123 163 199 236 283
#     4   8  17  32  48  67  94 126 161 198 234 282
#     4  11  20  29  46  70  98 132 162 200 231 277
#     4   9  20  32  45  67  97 131 163 195 234 281
#
# _framework density 19.399016
#
# number of rings (size 3 to 8) (size 9 to 14) (size 15 to 20)
#    0.000    2.500    1.250    1.875    5.250    4.500 
#    0.000    0.000    0.000    0.000    0.000    4.375 
#    0.000    0.000    0.000    0.000    0.000    0.000 
#
# Total GULP energy -178327.652560 kJ/mol
# GULP energy per Si atom -5572.739142 kJ/mol
# Density = 1.935486 g / cm^3
# Si number density = 19.399016 Si / 1000 Ang^3
#
#
#
# Elastic Constant Matrix: (Units=GPa)
#
#
# Indices 1 2 3 4 5 6 
#
# 1 110.4776 8.5062 9.9329 0.0000 25.9330 0.0000
# 2 8.5062 34.2012 3.6756 0.0000 -0.2264 0.0000
# 3 9.9329 3.6756 54.4684 0.0000 11.8251 0.0000
# 4 0.0000 0.0000 0.0000 20.7402 0.0000 0.7411
# 5 25.9330 -0.2264 11.8251 0.0000 26.4175 0.0000
# 6 0.0000 0.0000 0.0000 0.7411 0.0000 12.5489
#
#
#
# Elastic Compliance Matrix: (Units=1/GPa)
#
#
# Indices 1 2 3 4 5 6 
#
# 1 0.012099 -0.003160 0.000655 0.000000 -0.012198 0.000000
# 2 -0.003160 0.030316 -0.002436 0.000000 0.004453 0.000000
# 3 0.000655 -0.002436 0.020545 0.000000 -0.009860 0.000000
# 4 0.000000 0.000000 0.000000 0.048318 0.000000 -0.002853
# 5 -0.012198 0.004453 -0.009860 0.000000 0.054279 0.000000
# 6 0.000000 0.000000 0.000000 -0.002853 0.000000 0.079857
#
#
# Mechanical properties :
#
#
# Convention : Reuss Voigt Hill
#
# Bulk Modulus (GPa) = 18.84051 27.04184 22.94117
# Shear Modulus (GPa) = 18.31576 23.74349 21.02962
#
# Velocity S-wave (km/s) = 3.07605 3.50230 3.29607
# Velocity P-wave (km/s) = 4.72750 5.50680 5.13197
#
# Compressibility (1/GPa) = 0.05307713
#
# Stress axis : x y z
#
# Youngs Moduli (GPa) = 82.64975 32.98589 48.67397
#
# Poissons Ratio (x) = 0.10425 -0.03188
# Poissons Ratio (y) = 0.26120 0.11857
# Poissons Ratio (z) = -0.05413 0.08036
#
# Static dielectric constant tensor:
#      x y z
#    x 1.743750 0.000000 -0.027040 
#    y 0.000000 1.693720 0.000000 
#    z -0.027040 0.000000 1.827790 
# 
# From -- ./inp_files/90806.got.cif
#   From: 2010.05.17/outbox.cif.g08.bks.cpg/sg15_46_cif.got.tgz:90806.got - 2010.06.03 18:47:42.
