data_PCOD9261410
_publ_section_title
;
Structure prediction by ZEFSAII (Michael W. Deem and Ramdas Pophale) SiO2 
 PCOD9261410
Probable space group: C 2/C
;
_chemical_formula_sum "Si O2"
_cell_formula_units_Z 64
_cell_length_a 20.733656
_cell_length_b 14.751629
_cell_length_c 11.055998
_cell_angle_alpha 90.000000
_cell_angle_beta 48.462606
_cell_angle_gamma 90.000000
_cell_volume 2531.156692
_symmetry_space_group_name_H-M "C 2/C"
_symmetry_group_IT_number 15
_symmetry_cell_setting 'monoclinic'
loop_
_space_group_symop_operation_xyz
x,y,z
-x,y,1/2-z
-x,-y,-z
x,-y,1/2+z
1/2+x,1/2+y,z
1/2-x,1/2+y,1/2-z
1/2-x,1/2-y,-z
1/2+x,1/2-y,1/2+z
loop_
_atom_site_type_symbol
_atom_site_label
_atom_site_fract_x
_atom_site_fract_y
_atom_site_fract_z
Si Si1 0.242241 0.655178 0.072567
Si Si2 0.862905 0.603216 0.500934
Si Si3 0.485295 0.893264 0.052758
Si Si4 0.380665 0.892220 0.431919
Si Si5 0.923248 0.917846 0.260202
Si Si6 0.795052 0.127284 0.264563
Si Si7 0.175416 0.913873 0.338764
Si Si8 0.916603 0.872339 0.801140
O O1 0.253823 0.669203 0.198284
O O2 0.250000 0.750000 0.000000
O O3 0.154110 0.621636 0.120713
O O4 0.326946 0.595301 0.934672
O O5 0.938302 0.644857 0.490208
O O6 0.877888 0.496529 0.476737
O O7 0.770175 0.619559 0.680900
O O8 0.423257 0.888793 0.247785
O O9 0.569589 0.850521 0.013167
O O10 0.500000 0.000000 0.000000
O O11 0.281919 0.866175 0.544464
O O12 0.903427 0.881950 0.150452
O O13 0.000000 0.879474 0.250000
O O14 0.942234 0.025034 0.229405
O O15 0.875855 0.169391 0.232025
O O16 0.816674 0.022913 0.198209
O O17 0.149358 0.887850 0.506179
O O18 0.000000 0.824457 0.750000
#
# Coordination Sequence:
#
# PCOD9261410 Si02
#       8
#     8   8   8   8   8   8   8   8
#     4  11  23  38  52  74 107 154 194 218 264 326
#     4   9  19  31  52  73 106 145 175 223 268 333
#     4   9  17  30  50  82 113 137 168 221 284 339
#     4   9  18  30  53  84 110 138 170 223 297 329
#     4   9  19  32  54  76 110 143 174 227 278 330
#     4  10  20  32  51  76 115 142 180 229 270 338
#     4   9  17  30  50  81 110 135 171 218 294 338
#     4  10  19  29  53  89 109 136 167 224 297 340
#
# _framework density 25.284882
#
# number of rings (size 3 to 8) (size 9 to 14) (size 15 to 20)
#    0.000    2.500    1.250    1.500    7.000    1.500 
#    0.000    1.250    0.000    6.750    3.250    0.000 
#    0.000    0.000    0.000    0.000    0.000    0.000 
#
# Total GULP energy -178336.685185 kJ/mol
# GULP energy per Si atom -5573.021412 kJ/mol
# Density = 2.522733 g / cm^3
# Si number density = 25.284882 Si / 1000 Ang^3
#
#
#
# Elastic Constant Matrix: (Units=GPa)
#
#
# Indices 1 2 3 4 5 6 
#
# 1 246.2011 27.5324 37.1820 0.0000 37.1276 0.0000
# 2 27.5324 36.2451 0.2908 0.0000 -7.1115 0.0000
# 3 37.1820 0.2908 62.0772 0.0000 19.9170 0.0000
# 4 0.0000 0.0000 0.0000 -1.5203 0.0000 19.1384
# 5 37.1276 -7.1115 19.9170 0.0000 24.4534 0.0000
# 6 0.0000 0.0000 0.0000 19.1384 0.0000 -7.0417
#
#
#
# Elastic Compliance Matrix: (Units=1/GPa)
#
#
# Indices 1 2 3 4 5 6 
#
# 1 0.006810 -0.007634 -0.000018 0.000000 -0.012545 0.000000
# 2 -0.007634 0.038525 -0.003955 0.000000 0.026016 0.000000
# 3 -0.000018 -0.003955 0.022335 0.000000 -0.019314 0.000000
# 4 0.000000 0.000000 0.000000 0.019804 0.000000 0.053824
# 5 -0.012545 0.026016 -0.019314 0.000000 0.083238 0.000000
# 6 0.000000 0.000000 0.000000 0.053824 0.000000 0.004276
#
#
# Mechanical properties :
#
#
# Convention : Reuss Voigt Hill
#
# Bulk Modulus (GPa) = 22.49425 52.72595 37.61010
# Shear Modulus (GPa) = 23.47188 21.81283 22.64235
#
# Velocity S-wave (km/s) = 3.05010 2.94033 2.99572
# Velocity P-wave (km/s) = 4.61734 5.69433 5.18388
#
# Compressibility (1/GPa) = 0.04445581
#
# Stress axis : x y z
#
# Youngs Moduli (GPa) = 146.84316 25.95707 44.77231
#
# Poissons Ratio (x) = 0.19816 0.00082
# Poissons Ratio (y) = 1.12103 0.17707
# Poissons Ratio (z) = 0.00268 0.10266
#
# Static dielectric constant tensor:
#      x y z
#    x 2.029790 0.000000 -0.033730 
#    y 0.000000 1.979440 0.000000 
#    z -0.033730 0.000000 2.094990 
# 
# From -- ./inp_files/114077.got.cif
#   From: 2010.05.17/outbox.cif.g08.bks.cpg/sg15_58_cif.got.tgz:114077.got - 2010.06.03 18:47:42.
