data_PCOD9261959
_publ_section_title
;
Structure prediction by ZEFSAII (Michael W. Deem and Ramdas Pophale) SiO2 
 PCOD9261959
Probable space group: C 2/C
;
_chemical_formula_sum "Si O2"
_cell_formula_units_Z 60
_cell_length_a 28.121441
_cell_length_b 25.794333
_cell_length_c 5.718381
_cell_angle_alpha 90.000000
_cell_angle_beta 63.608071
_cell_angle_gamma 90.000000
_cell_volume 3715.639752
_symmetry_space_group_name_H-M "C 2/C"
_symmetry_group_IT_number 15
_symmetry_cell_setting 'monoclinic'
loop_
_space_group_symop_operation_xyz
x,y,z
-x,y,1/2-z
-x,-y,-z
x,-y,1/2+z
1/2+x,1/2+y,z
1/2-x,1/2+y,1/2-z
1/2-x,1/2-y,-z
1/2+x,1/2-y,1/2+z
loop_
_atom_site_type_symbol
_atom_site_label
_atom_site_fract_x
_atom_site_fract_y
_atom_site_fract_z
Si Si1 0.051506 0.280403 0.516608
Si Si2 0.810746 0.632846 0.257970
Si Si3 0.583041 0.120257 0.212403
Si Si4 0.075714 0.518306 0.998038
Si Si5 0.335311 0.766455 0.386954
Si Si6 0.000000 0.643545 0.750000
Si Si7 0.698213 0.018974 0.305480
Si Si8 0.750170 0.204316 0.812358
O O1 0.073021 0.321094 0.660274
O O2 0.104332 0.252697 0.309520
O O3 0.000000 0.253834 0.750000
O O4 0.030842 0.317671 0.355868
O O5 0.857780 0.615606 0.326922
O O6 0.799415 0.580473 0.142378
O O7 0.760950 0.652357 0.519673
O O8 0.831773 0.683053 0.066852
O O9 0.573561 0.080513 0.023792
O O10 0.541806 0.110421 0.511110
O O11 0.053852 0.499235 0.296347
O O12 0.137126 0.499352 0.892711
O O13 0.300051 0.785795 0.245755
O O14 0.303807 0.716476 0.554382
O O15 0.720608 0.991113 0.491679
O O16 0.750000 0.250000 0.000000
#
# Coordination Sequence:
#
# PCOD9261959 Si02
#       8
#     8   8   8   8   8   4   8   8
#     4  10  21  31  49  67  85 118 154 195 244 291
#     4  11  19  30  52  63  92 121 152 201 247 288
#     4  11  20  32  48  60  86 114 155 199 241 290
#     4  10  21  32  47  64  85 112 157 198 246 295
#     4  10  19  32  51  66  95 115 153 201 242 296
#     4  10  22  34  44  66  80 116 158 194 248 288
#     4  10  21  31  46  72  92 119 163 195 241 300
#     4   9  20  32  46  75  88 118 150 193 250 293
#
# _framework density 16.147957999999999
#
# number of rings (size 3 to 8) (size 9 to 14) (size 15 to 20)
#    0.000    1.867    5.333    0.000    7.467    0.000 
#    0.000    0.667    0.000    0.000    0.000    0.000 
#    0.000    0.000    0.000    0.000    0.000    1.333 
#
# Total GULP energy -167103.998532 kJ/mol
# GULP energy per Si atom -5570.133284 kJ/mol
# Density = 1.611120 g / cm^3
# Si number density = 16.147958 Si / 1000 Ang^3
#
#
#
# Elastic Constant Matrix: (Units=GPa)
#
#
# Indices 1 2 3 4 5 6 
#
# 1 42.6639 10.0955 31.7075 0.0000 -5.4427 0.0000
# 2 10.0955 30.3002 17.8558 0.0000 -14.0383 0.0000
# 3 31.7075 17.8558 78.6932 0.0000 -7.3015 0.0000
# 4 0.0000 0.0000 0.0000 18.5883 0.0000 2.4694
# 5 -5.4427 -14.0383 -7.3015 0.0000 37.3461 0.0000
# 6 0.0000 0.0000 0.0000 2.4694 0.0000 6.4321
#
#
#
# Elastic Compliance Matrix: (Units=1/GPa)
#
#
# Indices 1 2 3 4 5 6 
#
# 1 0.033869 -0.003156 -0.012815 0.000000 0.001244 0.000000
# 2 -0.003156 0.045609 -0.007668 0.000000 0.015185 0.000000
# 3 -0.012815 -0.007668 0.019524 0.000000 -0.000933 0.000000
# 4 0.000000 0.000000 0.000000 0.056688 0.000000 -0.021763
# 5 0.001244 0.015185 -0.000933 0.000000 0.032484 0.000000
# 6 0.000000 0.000000 0.000000 -0.021763 0.000000 0.163824
#
#
# Mechanical properties :
#
#
# Convention : Reuss Voigt Hill
#
# Bulk Modulus (GPa) = 19.33369 30.10832 24.72100
# Shear Modulus (GPa) = 12.00429 18.60654 15.30541
#
# Velocity S-wave (km/s) = 2.72948 3.39817 3.08201
# Velocity P-wave (km/s) = 4.68319 5.83802 5.29220
#
# Compressibility (1/GPa) = 0.05172318
#
# Stress axis : x y z
#
# Youngs Moduli (GPa) = 29.52595 21.92557 51.21797
#
# Poissons Ratio (x) = 0.06920 0.65635
# Poissons Ratio (y) = 0.09319 0.39275
# Poissons Ratio (z) = 0.37837 0.16813
#
# Static dielectric constant tensor:
#      x y z
#    x 1.550610 0.000000 0.014670 
#    y 0.000000 1.544520 0.000000 
#    z 0.014670 0.000000 1.670090 
# 
# From -- ./inp_files/17636.got.cif
#   From: 2010.05.17/outbox.cif.g08.bks.cpg/sg15_9_cif.got.tgz:17636.got - 2010.06.03 18:47:42.
