data_PCOD9261133
_publ_section_title
;
Structure prediction by ZEFSAII (Michael W. Deem and Ramdas Pophale) SiO2 
 PCOD9261133
Probable space group: C 2/C
;
_chemical_formula_sum "Si O2"
_cell_formula_units_Z 52
_cell_length_a 9.167901
_cell_length_b 28.816524
_cell_length_c 12.627075
_cell_angle_alpha 90.000000
_cell_angle_beta 125.306960
_cell_angle_gamma 90.000000
_cell_volume 2722.327002
_symmetry_space_group_name_H-M "C 2/C"
_symmetry_group_IT_number 15
_symmetry_cell_setting 'monoclinic'
loop_
_space_group_symop_operation_xyz
x,y,z
-x,y,1/2-z
-x,-y,-z
x,-y,1/2+z
1/2+x,1/2+y,z
1/2-x,1/2+y,1/2-z
1/2-x,1/2-y,-z
1/2+x,1/2-y,1/2+z
loop_
_atom_site_type_symbol
_atom_site_label
_atom_site_fract_x
_atom_site_fract_y
_atom_site_fract_z
Si Si1 0.603628 0.878741 0.401569
Si Si2 0.000000 0.937377 0.250000
Si Si3 0.523353 0.798224 0.012792
Si Si4 0.150777 0.628424 0.399389
Si Si5 0.857939 0.775329 0.286504
Si Si6 0.393325 0.047484 0.955530
Si Si7 0.048625 0.127446 0.565567
O O1 0.500000 0.868188 0.250000
O O2 0.599162 0.833056 0.471731
O O3 0.490423 0.918579 0.412362
O O4 0.804530 0.891528 0.453772
O O5 0.812925 0.963240 0.158458
O O6 0.973026 0.905166 0.341223
O O7 0.663184 0.773153 0.150146
O O8 0.639499 0.832143 0.985321
O O9 0.410009 0.764390 0.891397
O O10 0.113628 0.578886 0.440632
O O11 0.349480 0.630882 0.435831
O O12 0.000000 0.637594 0.250000
O O13 0.881733 0.823731 0.358897
O O14 0.000000 0.773840 0.250000
O O15 0.500000 0.000000 0.000000
#
# Coordination Sequence:
#
# PCOD9261133 Si02
#       7
#     8   4   8   8   8   8   8
#     4  11  21  42  63  88 126 160 206 255 320 366
#     4  10  18  40  66  90 118 160 204 246 298 376
#     4  11  24  37  61  88 125 167 208 265 302 363
#     4  10  22  42  62  88 124 159 209 253 313 365
#     4  12  21  36  61  93 119 163 223 254 301 365
#     4  10  22  41  65  94 122 158 202 257 305 376
#     4  11  20  38  66  86 116 167 208 245 307 365
#
# _framework density 19.101306000000001
#
# number of rings (size 3 to 8) (size 9 to 14) (size 15 to 20)
#    0.000    1.231    5.385    1.846    2.154    1.231 
#    2.769    3.846    0.000    0.000    0.000    0.000 
#    0.000    0.000    0.000    0.000    0.000    0.000 
#
# Total GULP energy -145199.617886 kJ/mol
# GULP energy per Si atom -5584.600688 kJ/mol
# Density = 1.905783 g / cm^3
# Si number density = 19.101306 Si / 1000 Ang^3
#
#
#
# Elastic Constant Matrix: (Units=GPa)
#
#
# Indices 1 2 3 4 5 6 
#
# 1 144.2951 28.6376 45.0511 0.0000 19.4100 0.0000
# 2 28.6376 94.7775 40.1804 0.0000 9.6809 0.0000
# 3 45.0511 40.1804 98.1685 0.0000 27.6041 0.0000
# 4 0.0000 0.0000 0.0000 10.4982 0.0000 8.6754
# 5 19.4100 9.6809 27.6041 0.0000 31.9502 0.0000
# 6 0.0000 0.0000 0.0000 8.6754 0.0000 11.4228
#
#
#
# Elastic Compliance Matrix: (Units=1/GPa)
#
#
# Indices 1 2 3 4 5 6 
#
# 1 0.008313 -0.001132 -0.002679 0.000000 -0.002393 0.000000
# 2 -0.001132 0.012938 -0.005108 0.000000 0.001181 0.000000
# 3 -0.002679 -0.005108 0.016662 0.000000 -0.011220 0.000000
# 4 0.000000 0.000000 0.000000 0.255795 0.000000 -0.194272
# 5 -0.002393 0.001181 -0.011220 0.000000 0.042088 0.000000
# 6 0.000000 0.000000 0.000000 -0.194272 0.000000 0.235091
#
#
# Mechanical properties :
#
#
# Convention : Reuss Voigt Hill
#
# Bulk Modulus (GPa) = 49.81279 62.77547 56.29413
# Shear Modulus (GPa) = 8.39748 25.66571 17.03160
#
# Velocity S-wave (km/s) = 2.09901 3.66958 2.98928
# Velocity P-wave (km/s) = 5.65767 7.13374 6.43815
#
# Compressibility (1/GPa) = 0.02007516
#
# Stress axis : x y z
#
# Youngs Moduli (GPa) = 120.29143 77.29200 60.01790
#
# Poissons Ratio (x) = 0.08747 0.16079
# Poissons Ratio (y) = 0.13614 0.30658
# Poissons Ratio (z) = 0.32226 0.39482
#
# Static dielectric constant tensor:
#      x y z
#    x 1.723810 0.000000 0.005640 
#    y 0.000000 1.651390 0.000000 
#    z 0.005640 0.000000 1.667440 
# 
# From -- ./inp_files/81505.got.cif
#   From: 2010.05.17/outbox.cif.g08.bks.cpg/sg15_41_cif.got.tgz:81505.got - 2010.06.03 18:47:42.
