data_PCOD9261829
_publ_section_title
;
Structure prediction by ZEFSAII (Michael W. Deem and Ramdas Pophale) SiO2 
 PCOD9261829
Probable space group: C 2/C
;
_chemical_formula_sum "Si O2"
_cell_formula_units_Z 48
_cell_length_a 9.494818
_cell_length_b 27.042395
_cell_length_c 7.804855
_cell_angle_alpha 90.000000
_cell_angle_beta 109.659052
_cell_angle_gamma 90.000000
_cell_volume 1887.184582
_symmetry_space_group_name_H-M "C 2/C"
_symmetry_group_IT_number 15
_symmetry_cell_setting 'monoclinic'
loop_
_space_group_symop_operation_xyz
x,y,z
-x,y,1/2-z
-x,-y,-z
x,-y,1/2+z
1/2+x,1/2+y,z
1/2-x,1/2+y,1/2-z
1/2-x,1/2-y,-z
1/2+x,1/2-y,1/2+z
loop_
_atom_site_type_symbol
_atom_site_label
_atom_site_fract_x
_atom_site_fract_y
_atom_site_fract_z
Si Si1 0.826949 0.460270 0.719264
Si Si2 0.911440 0.802509 0.897536
Si Si3 0.446857 0.115224 0.507144
Si Si4 0.276113 0.932184 0.262075
Si Si5 0.364253 0.774358 0.911113
Si Si6 0.531480 0.584538 0.054460
O O1 0.796023 0.510274 0.813751
O O2 0.667653 0.451656 0.561888
O O3 0.000000 0.471873 0.750000
O O4 0.850069 0.406825 0.814732
O O5 0.741300 0.786794 0.792579
O O6 0.925741 0.858592 0.961497
O O7 0.000000 0.801374 0.750000
O O8 0.001503 0.764061 0.050521
O O9 0.620520 0.099095 0.563615
O O10 0.366501 0.085922 0.628491
O O11 0.426100 0.173627 0.509270
O O12 0.109159 0.924386 0.127149
O O13 0.250000 0.750000 0.000000
O O14 0.500000 0.578722 0.250000
#
# Coordination Sequence:
#
# PCOD9261829 Si02
#       6
#     8   8   8   8   8   8
#     4  12  24  42  61  87 126 171 208 247 315 373
#     4   9  18  30  53  86 121 145 190 250 315 358
#     4  11  22  39  60  93 128 159 207 260 309 363
#     4  11  23  36  64  86 121 167 212 261 298 361
#     4  10  19  31  55  90 123 150 190 258 317 359
#     4  11  21  41  61  91 126 158 206 264 309 357
#
# _framework density 25.434715000000001
#
# number of rings (size 3 to 8) (size 9 to 14) (size 15 to 20)
#    0.000    1.333    5.000    3.000    9.333    0.000 
#    0.000    0.833    0.000    1.000    0.000    0.000 
#    0.000    0.000    0.000    0.000    0.000    0.000 
#
# Total GULP energy -133928.872520 kJ/mol
# GULP energy per Si atom -5580.369688 kJ/mol
# Density = 2.537682 g / cm^3
# Si number density = 25.434715 Si / 1000 Ang^3
#
#
#
# Elastic Constant Matrix: (Units=GPa)
#
#
# Indices 1 2 3 4 5 6 
#
# 1 117.8331 53.4019 57.6227 0.0000 36.7985 0.0000
# 2 53.4019 192.9508 48.9698 0.0000 34.6353 0.0000
# 3 57.6227 48.9698 149.0664 0.0000 63.7307 0.0000
# 4 0.0000 0.0000 0.0000 32.4888 0.0000 16.6797
# 5 36.7985 34.6353 63.7307 0.0000 59.0933 0.0000
# 6 0.0000 0.0000 0.0000 16.6797 0.0000 28.5698
#
#
#
# Elastic Compliance Matrix: (Units=1/GPa)
#
#
# Indices 1 2 3 4 5 6 
#
# 1 0.011640 -0.001991 -0.002311 0.000000 -0.003589 0.000000
# 2 -0.001991 0.006189 -0.000451 0.000000 -0.001902 0.000000
# 3 -0.002311 -0.000451 0.013029 0.000000 -0.012348 0.000000
# 4 0.000000 0.000000 0.000000 0.043954 0.000000 -0.025662
# 5 -0.003589 -0.001902 -0.012348 0.000000 0.033590 0.000000
# 6 0.000000 0.000000 0.000000 -0.025662 0.000000 0.049984
#
#
# Mechanical properties :
#
#
# Convention : Reuss Voigt Hill
#
# Bulk Modulus (GPa) = 46.82987 86.64878 66.73933
# Shear Modulus (GPa) = 28.57002 44.02077 36.29540
#
# Velocity S-wave (km/s) = 3.35516 4.16472 3.78167
# Velocity P-wave (km/s) = 5.78457 7.56754 6.73531
#
# Compressibility (1/GPa) = 0.02135389
#
# Stress axis : x y z
#
# Youngs Moduli (GPa) = 85.91253 161.56646 76.75126
#
# Poissons Ratio (x) = 0.32163 0.17737
# Poissons Ratio (y) = 0.17102 0.03458
# Poissons Ratio (z) = 0.19854 0.07279
#
# Static dielectric constant tensor:
#      x y z
#    x 2.095600 0.000000 -0.074940 
#    y 0.000000 1.910680 0.000000 
#    z -0.074940 0.000000 2.029450 
# 
# From -- ./inp_files/90962.got.cif
#   From: 2010.05.17/outbox.cif.g08.bks.cpg/sg15_46_cif.got.tgz:90962.got - 2010.06.03 18:47:42.
