data_PCOD9261635
_publ_section_title
;
Structure prediction by ZEFSAII (Michael W. Deem and Ramdas Pophale) SiO2 
 PCOD9261635
Probable space group: C 2/C
;
_chemical_formula_sum "Si O2"
_cell_formula_units_Z 44
_cell_length_a 15.808857
_cell_length_b 17.349195
_cell_length_c 20.876625
_cell_angle_alpha 90.000000
_cell_angle_beta 19.469543
_cell_angle_gamma 90.000000
_cell_volume 1908.459140
_symmetry_space_group_name_H-M "C 2/C"
_symmetry_group_IT_number 15
_symmetry_cell_setting 'monoclinic'
loop_
_space_group_symop_operation_xyz
x,y,z
-x,y,1/2-z
-x,-y,-z
x,-y,1/2+z
1/2+x,1/2+y,z
1/2-x,1/2+y,1/2-z
1/2-x,1/2-y,-z
1/2+x,1/2-y,1/2+z
loop_
_atom_site_type_symbol
_atom_site_label
_atom_site_fract_x
_atom_site_fract_y
_atom_site_fract_z
Si Si1 0.500000 0.861783 0.250000
Si Si2 0.404183 0.876773 0.559748
Si Si3 0.522607 0.380224 0.531714
Si Si4 0.225537 0.673373 0.474554
Si Si5 0.775418 0.536299 0.583230
Si Si6 0.812605 0.545470 0.323768
O O1 0.272154 0.828352 0.367417
O O2 0.339584 0.891057 0.425449
O O3 0.446022 0.827714 0.465836
O O4 0.660231 0.893540 0.415158
O O5 0.186537 0.855673 0.766524
O O6 0.306686 0.958334 0.601015
O O7 0.650269 0.466432 0.450874
O O8 0.387449 0.390041 0.559273
O O9 0.500000 0.658564 0.250000
O O10 0.250000 0.750000 0.500000
O O11 0.500000 0.541960 0.750000
O O12 0.001394 0.536320 0.369928
O O13 0.000000 0.560546 0.250000
#
# Coordination Sequence:
#
# PCOD9261635 Si02
#       6
#     4   8   8   8   8   8
#     4  12  22  36  58  78 112 150 192 244 296 342
#     4  10  21  36  54  81 121 154 197 242 291 363
#     4  10  20  32  50  76 109 158 192 234 297 344
#     4  12  24  40  59  85 113 152 199 248 296 348
#     4  10  20  33  54  84 118 159 190 236 300 362
#     4  10  19  31  47  75 115 151 197 233 278 363
#
# _framework density 23.055247999999999
#
# number of rings (size 3 to 8) (size 9 to 14) (size 15 to 20)
#    0.000    1.455    3.636    2.727    0.000    4.364 
#    0.000    0.000    0.000    0.000    0.000    2.545 
#    0.000    0.000    0.000    0.000    0.000    0.000 
#
# Total GULP energy -122497.499633 kJ/mol
# GULP energy per Si atom -5568.068165 kJ/mol
# Density = 2.300277 g / cm^3
# Si number density = 23.055248 Si / 1000 Ang^3
#
#
#
# Elastic Constant Matrix: (Units=GPa)
#
#
# Indices 1 2 3 4 5 6 
#
# 1 173.9128 41.4276 41.0573 0.0376 -20.6332 0.0127
# 2 41.4276 47.7798 9.5051 -0.0033 -7.3195 0.0359
# 3 41.0573 9.5051 92.8573 0.1165 -10.2791 -0.0078
# 4 0.0376 -0.0033 0.1165 17.7301 -0.0639 2.5049
# 5 -20.6332 -7.3195 -10.2791 -0.0639 68.1217 -0.0056
# 6 0.0127 0.0359 -0.0078 2.5049 -0.0056 36.9014
#
#
#
# Elastic Compliance Matrix: (Units=1/GPa)
#
#
# Indices 1 2 3 4 5 6 
#
# 1 0.008046 -0.006218 -0.002771 0.000004 0.001351 0.000003
# 2 -0.006218 0.026441 0.000151 0.000024 0.000981 -0.000025
# 3 -0.002771 0.000151 0.012090 -0.000071 0.001001 0.000008
# 4 0.000004 0.000024 -0.000071 0.056948 0.000046 -0.003866
# 5 0.001351 0.000981 0.001001 0.000046 0.015345 -0.000002
# 6 0.000003 -0.000025 0.000008 -0.003866 -0.000002 0.027362
#
#
# Mechanical properties :
#
#
# Convention : Reuss Voigt Hill
#
# Bulk Modulus (GPa) = 34.60169 55.39221 44.99695
# Shear Modulus (GPa) = 28.81169 39.38797 34.09983
#
# Velocity S-wave (km/s) = 3.53892 4.13778 3.85001
# Velocity P-wave (km/s) = 5.63377 6.84882 6.27079
#
# Compressibility (1/GPa) = 0.02890032
#
# Stress axis : x y z
#
# Youngs Moduli (GPa) = 124.29049 37.82055 82.71261
#
# Poissons Ratio (x) = 0.23516 0.22923
# Poissons Ratio (y) = 0.77281 -0.01251
# Poissons Ratio (z) = 0.34447 -0.00572
#
# Static dielectric constant tensor:
#      x y z
#    x 1.946740 0.000050 -0.023310 
#    y 0.000050 2.095270 0.000220 
#    z -0.023310 0.000220 1.951640 
# 
# From -- ./inp_files/50881.got.cif
#   From: 2010.05.17/outbox.cif.g08.bks.cpg/sg15_26_cif.got.tgz:50881.got - 2010.06.03 18:47:42.
