data_PCOD9261612
_publ_section_title
;
Structure prediction by ZEFSAII (Michael W. Deem and Ramdas Pophale) SiO2 
 PCOD9261612
Probable space group: C 2/C
;
_chemical_formula_sum "Si O2"
_cell_formula_units_Z 40
_cell_length_a 14.052492
_cell_length_b 5.527523
_cell_length_c 20.168451
_cell_angle_alpha 90.000000
_cell_angle_beta 105.414257
_cell_angle_gamma 90.000000
_cell_volume 1510.242477
_symmetry_space_group_name_H-M "C 2/C"
_symmetry_group_IT_number 15
_symmetry_cell_setting 'monoclinic'
loop_
_space_group_symop_operation_xyz
x,y,z
-x,y,1/2-z
-x,-y,-z
x,-y,1/2+z
1/2+x,1/2+y,z
1/2-x,1/2+y,1/2-z
1/2-x,1/2-y,-z
1/2+x,1/2-y,1/2+z
loop_
_atom_site_type_symbol
_atom_site_label
_atom_site_fract_x
_atom_site_fract_y
_atom_site_fract_z
Si Si1 0.425440 0.548230 0.927454
Si Si2 0.301363 0.006113 0.061961
Si Si3 0.791437 0.005131 0.095784
Si Si4 0.644972 0.889648 0.682378
Si Si5 0.414627 0.619090 0.286860
O O1 0.311866 0.511119 0.930615
O O2 0.430156 0.809152 0.891442
O O3 0.442532 0.367172 0.869891
O O4 0.500000 0.500000 0.000000
O O5 0.346191 0.250756 0.099314
O O6 0.347750 0.752992 0.091334
O O7 0.287262 0.013744 0.980086
O O8 0.739296 0.040212 0.155802
O O9 0.648932 0.630079 0.720154
O O10 0.624079 0.107343 0.728737
O O11 0.500000 0.574372 0.250000
#
# Coordination Sequence:
#
# PCOD9261612 Si02
#       5
#     8   8   8   8   8
#     4   9  19  31  45  70  99 121 144 184 230 283
#     4   9  16  25  42  64  90 118 141 182 228 260
#     4   9  14  27  42  63  90 110 151 186 221 259
#     4   9  17  30  46  66  89 120 151 187 227 258
#     4  10  19  31  45  66  91 122 157 186 221 267
#
# _framework density 26.485814999999999
#
# number of rings (size 3 to 8) (size 9 to 14) (size 15 to 20)
#    1.200    1.600    2.000    0.600    0.000    0.800 
#    0.000    0.000    0.000    0.000    0.000    2.800 
#    0.000    0.000    0.000    0.000    0.000    0.000 
#
# Total GULP energy -111582.522995 kJ/mol
# GULP energy per Si atom -5579.126150 kJ/mol
# Density = 2.642553 g / cm^3
# Si number density = 26.485815 Si / 1000 Ang^3
#
#
#
# Elastic Constant Matrix: (Units=GPa)
#
#
# Indices 1 2 3 4 5 6 
#
# 1 90.3390 30.4892 47.8850 0.0000 -13.9195 0.0000
# 2 30.4892 273.5829 39.4503 0.0000 -11.0054 0.0000
# 3 47.8850 39.4503 122.3555 0.0000 -15.8442 0.0000
# 4 0.0000 0.0000 0.0000 39.2026 0.0000 -23.2441
# 5 -13.9195 -11.0054 -15.8442 0.0000 37.1811 0.0000
# 6 0.0000 0.0000 0.0000 -23.2441 0.0000 12.1099
#
#
#
# Elastic Compliance Matrix: (Units=1/GPa)
#
#
# Indices 1 2 3 4 5 6 
#
# 1 0.014456 -0.000765 -0.005016 0.000000 0.003048 0.000000
# 2 -0.000765 0.003889 -0.000892 0.000000 0.000485 0.000000
# 3 -0.005016 -0.000892 0.010739 0.000000 0.002434 0.000000
# 4 0.000000 0.000000 0.000000 -0.184746 0.000000 -0.354608
# 5 0.003048 0.000485 0.002434 0.000000 0.029217 0.000000
# 6 0.000000 0.000000 0.000000 -0.354608 0.000000 -0.598070
#
#
# Mechanical properties :
#
#
# Convention : Reuss Voigt Hill
#
# Bulk Modulus (GPa) = 63.54173 80.21403 71.87788
# Shear Modulus (GPa) = -7.08292 42.26225 17.58966
#
# Velocity S-wave (km/s) = -1.63708 3.99890 2.57984
# Velocity P-wave (km/s) = 4.52433 7.18839 6.00594
#
# Compressibility (1/GPa) = 0.01573769
#
# Stress axis : x y z
#
# Youngs Moduli (GPa) = 69.17477 257.16707 93.12091
#
# Poissons Ratio (x) = 0.19676 0.46711
# Poissons Ratio (y) = 0.05293 0.08302
# Poissons Ratio (z) = 0.34699 0.22928
#
# Static dielectric constant tensor:
#      x y z
#    x 2.081920 0.000000 0.038260 
#    y 0.000000 2.207830 0.000000 
#    z 0.038260 0.000000 2.049280 
# 
# From -- ./inp_files/294067.got.cif
#   From: 2010.05.17/outbox.cif.g08.bks.cpg/sg15_148_cif.got.tgz:294067.got - 2010.06.03 18:47:42.
