data_PCOD9261077
_publ_section_title
;
Structure prediction by ZEFSAII (Michael W. Deem and Ramdas Pophale) SiO2 
 PCOD9261077
Probable space group: C 2/C
;
_chemical_formula_sum "Si O2"
_cell_formula_units_Z 60
_cell_length_a 12.187597
_cell_length_b 21.693492
_cell_length_c 22.608137
_cell_angle_alpha 90.000000
_cell_angle_beta 150.998315
_cell_angle_gamma 90.000000
_cell_volume 2898.054825
_symmetry_space_group_name_H-M "C 2/C"
_symmetry_group_IT_number 15
_symmetry_cell_setting 'monoclinic'
loop_
_space_group_symop_operation_xyz
x,y,z
-x,y,1/2-z
-x,-y,-z
x,-y,1/2+z
1/2+x,1/2+y,z
1/2-x,1/2+y,1/2-z
1/2-x,1/2-y,-z
1/2+x,1/2-y,1/2+z
loop_
_atom_site_type_symbol
_atom_site_label
_atom_site_fract_x
_atom_site_fract_y
_atom_site_fract_z
Si Si1 0.500000 0.621233 0.750000
Si Si2 0.909373 0.330782 0.601634
Si Si3 0.773385 0.567045 0.121429
Si Si4 0.407718 0.700655 0.817726
Si Si5 0.818476 0.443305 0.988003
Si Si6 0.044270 0.994428 0.613963
Si Si7 0.590643 0.895725 0.225090
Si Si8 0.461330 0.075286 0.024013
O O1 0.387941 0.664348 0.746828
O O2 0.705181 0.584812 0.877676
O O3 0.846118 0.367359 0.631058
O O4 0.661444 0.311856 0.461025
O O5 0.000027 0.379685 0.596901
O O6 0.081449 0.273938 0.687426
O O7 0.614294 0.560590 0.102870
O O8 0.000000 0.534590 0.250000
O O9 0.662025 0.529506 0.015938
O O10 0.227815 0.667650 0.775911
O O11 0.901687 0.406468 0.085178
O O12 0.869779 0.410813 0.950245
O O13 0.561681 0.465775 0.877436
O O14 0.969935 0.505483 0.051487
O O15 0.231773 0.047966 0.703371
O O16 0.500000 0.895885 0.250000
#
# Coordination Sequence:
#
# PCOD9261077 Si02
#       8
#     4   8   8   8   8   8   8   8
#     4  10  18  40  62  90 118 168 214 254 310 376
#     4  10  21  39  59  87 121 159 213 263 304 359
#     4  11  21  35  58  87 123 157 197 259 319 371
#     4  10  21  38  63  86 117 163 213 261 299 362
#     4  11  22  36  61  94 128 169 198 254 324 391
#     4  11  21  37  57  93 131 154 195 263 319 384
#     4  12  23  39  66  93 126 169 210 257 323 385
#     4  10  21  37  59  90 132 163 207 254 315 389
#
# _framework density 20.703541999999999
#
# number of rings (size 3 to 8) (size 9 to 14) (size 15 to 20)
#    0.000    1.333    4.000    3.600    0.933    0.000 
#    0.000    0.000    2.933    0.800    0.000    0.000 
#    0.000    0.000    0.000    0.000    0.000    0.000 
#
# Total GULP energy -167387.220636 kJ/mol
# GULP energy per Si atom -5579.574021 kJ/mol
# Density = 2.065642 g / cm^3
# Si number density = 20.703542 Si / 1000 Ang^3
#
#
#
# Elastic Constant Matrix: (Units=GPa)
#
#
# Indices 1 2 3 4 5 6 
#
# 1 94.7896 29.8452 -22.4929 0.0001 12.6542 0.0010
# 2 29.8452 98.7781 -0.0063 -0.0003 1.0812 0.0011
# 3 -22.4929 -0.0063 21.7847 -0.0108 -4.9666 0.0002
# 4 0.0001 -0.0003 -0.0108 12.7916 0.0002 11.2944
# 5 12.6542 1.0812 -4.9666 0.0002 25.6349 0.0002
# 6 0.0010 0.0011 0.0002 11.2944 0.0002 24.3170
#
#
#
# Elastic Compliance Matrix: (Units=1/GPa)
#
#
# Indices 1 2 3 4 5 6 
#
# 1 0.016547 -0.004945 0.015974 0.000023 -0.004865 -0.000011
# 2 -0.004945 0.011607 -0.004873 -0.000006 0.001008 0.000002
# 3 0.015974 -0.004873 0.063447 0.000091 0.004613 -0.000043
# 4 0.000023 -0.000006 0.000091 0.132526 0.000006 -0.061554
# 5 -0.004865 0.001008 0.004613 0.000006 0.042262 -0.000003
# 6 -0.000011 0.000002 -0.000043 -0.061554 -0.000003 0.069713
#
#
# Mechanical properties :
#
#
# Convention : Reuss Voigt Hill
#
# Bulk Modulus (GPa) = 9.62349 25.56051 17.59200
# Shear Modulus (GPa) = 13.94986 26.41578 20.18282
#
# Velocity S-wave (km/s) = 2.59856 3.57586 3.12564
# Velocity P-wave (km/s) = 3.69617 5.42418 4.64131
#
# Compressibility (1/GPa) = 0.10391238
#
# Stress axis : x y z
#
# Youngs Moduli (GPa) = 60.43520 86.15838 15.76111
#
# Poissons Ratio (x) = 0.42607 -0.25177
# Poissons Ratio (y) = 0.29886 0.07680
# Poissons Ratio (z) = -0.96540 0.41984
#
# Static dielectric constant tensor:
#      x y z
#    x 1.799840 0.000000 -0.004960 
#    y 0.000000 1.772260 0.000000 
#    z -0.004960 0.000000 1.794270 
# 
# From -- ./inp_files/271045.got.cif
#   From: 2010.05.17/outbox.cif.g08.bks.cpg/sg15_136_cif.got.tgz:271045.got - 2010.06.03 18:47:42.
