data_PCOD9261224
_publ_section_title
;
Structure prediction by ZEFSAII (Michael W. Deem and Ramdas Pophale) SiO2 
 PCOD9261224
Probable space group: C 2/C
;
_chemical_formula_sum "Si O2"
_cell_formula_units_Z 56
_cell_length_a 11.874306
_cell_length_b 19.501893
_cell_length_c 10.897260
_cell_angle_alpha 90.000000
_cell_angle_beta 103.157711
_cell_angle_gamma 90.000000
_cell_volume 2457.245404
_symmetry_space_group_name_H-M "C 2/C"
_symmetry_group_IT_number 15
_symmetry_cell_setting 'monoclinic'
loop_
_space_group_symop_operation_xyz
x,y,z
-x,y,1/2-z
-x,-y,-z
x,-y,1/2+z
1/2+x,1/2+y,z
1/2-x,1/2+y,1/2-z
1/2-x,1/2-y,-z
1/2+x,1/2-y,1/2+z
loop_
_atom_site_type_symbol
_atom_site_label
_atom_site_fract_x
_atom_site_fract_y
_atom_site_fract_z
Si Si1 0.630849 0.879344 0.737296
Si Si2 0.323151 0.461281 0.882675
Si Si3 0.500000 0.222683 0.750000
Si Si4 0.211177 0.753918 0.648121
Si Si5 0.500000 0.605803 0.250000
Si Si6 0.824627 0.321661 0.022361
Si Si7 0.378714 0.339837 0.082431
Si Si8 0.104466 0.113208 0.542863
O O1 0.500000 0.878294 0.750000
O O2 0.693172 0.948611 0.801891
O O3 0.698774 0.815326 0.813889
O O4 0.651211 0.860604 0.599423
O O5 0.396007 0.436637 0.782855
O O6 0.380988 0.532137 0.936667
O O7 0.339773 0.408124 0.999786
O O8 0.614539 0.260281 0.729302
O O9 0.552930 0.184472 0.879492
O O10 0.283463 0.683403 0.658672
O O11 0.138019 0.773337 0.509555
O O12 0.554336 0.633729 0.394251
O O13 0.735914 0.364363 0.081024
O O14 0.750000 0.250000 0.000000
O O15 0.516762 0.353194 0.119907
#
# Coordination Sequence:
#
# PCOD9261224 Si02
#       8
#     8   8   4   8   4   8   8   8
#     4  11  25  45  72  99 139 189 240 287 366 430
#     4  10  22  43  67 101 136 190 232 293 356 414
#     4  12  26  43  64 102 144 180 233 286 350 430
#     4  10  22  39  67 105 141 182 223 294 361 413
#     4  10  18  41  72 104 132 176 231 282 350 420
#     4  12  26  46  70 103 139 186 235 291 363 430
#     4   9  20  36  69 103 142 175 230 293 349 416
#     4  11  23  43  70 104 139 186 237 293 355 419
#
# _framework density 22.789746999999998
#
# number of rings (size 3 to 8) (size 9 to 14) (size 15 to 20)
#    0.000    1.429    2.857    2.571    8.000    1.714 
#    6.429    0.714    1.571    0.000    0.000    0.000 
#    0.000    0.000    0.000    0.000    0.000    0.000 
#
# Total GULP energy -155931.532261 kJ/mol
# GULP energy per Si atom -5568.983295 kJ/mol
# Density = 2.273788 g / cm^3
# Si number density = 22.789747 Si / 1000 Ang^3
#
#
#
# Elastic Constant Matrix: (Units=GPa)
#
#
# Indices 1 2 3 4 5 6 
#
# 1 191.7611 48.5012 32.8041 0.0000 5.9250 0.0000
# 2 48.5012 80.9529 19.7612 0.0000 3.1084 0.0000
# 3 32.8041 19.7612 86.8033 0.0000 -0.9795 0.0000
# 4 0.0000 0.0000 0.0000 15.6512 0.0000 8.7269
# 5 5.9250 3.1084 -0.9795 0.0000 43.3587 0.0000
# 6 0.0000 0.0000 0.0000 8.7269 0.0000 21.7787
#
#
#
# Elastic Compliance Matrix: (Units=1/GPa)
#
#
# Indices 1 2 3 4 5 6 
#
# 1 0.006375 -0.003392 -0.001644 0.000000 -0.000665 0.000000
# 2 -0.003392 0.014929 -0.002124 0.000000 -0.000655 0.000000
# 3 -0.001644 -0.002124 0.012633 0.000000 0.000662 0.000000
# 4 0.000000 0.000000 0.000000 0.082276 0.000000 -0.032969
# 5 -0.000665 -0.000655 0.000662 0.000000 0.023216 0.000000
# 6 0.000000 0.000000 0.000000 -0.032969 0.000000 0.059127
#
#
# Mechanical properties :
#
#
# Convention : Reuss Voigt Hill
#
# Bulk Modulus (GPa) = 50.98135 62.40560 56.69347
# Shear Modulus (GPa) = 22.78783 33.38777 28.08780
#
# Velocity S-wave (km/s) = 3.16557 3.83173 3.51447
# Velocity P-wave (km/s) = 5.98164 6.85703 6.43424
#
# Compressibility (1/GPa) = 0.01961502
#
# Stress axis : x y z
#
# Youngs Moduli (GPa) = 156.87114 66.98405 79.15956
#
# Poissons Ratio (x) = 0.22723 0.13016
# Poissons Ratio (y) = 0.53216 0.16814
# Poissons Ratio (z) = 0.25794 0.14228
#
# Static dielectric constant tensor:
#      x y z
#    x 1.883730 0.000000 0.006010 
#    y 0.000000 2.133530 0.000000 
#    z 0.006010 0.000000 1.984930 
# 
# From -- ./inp_files/89684.got.cif
#   From: 2010.05.17/outbox.cif.g08.bks.cpg/sg15_45_cif.got.tgz:89684.got - 2010.06.03 18:47:42.
