data_PCOD9261342
_publ_section_title
;
Structure prediction by ZEFSAII (Michael W. Deem and Ramdas Pophale) SiO2 
 PCOD9261342
Probable space group: C 2/C
;
_chemical_formula_sum "Si O2"
_cell_formula_units_Z 48
_cell_length_a 11.815839
_cell_length_b 22.599679
_cell_length_c 9.118778
_cell_angle_alpha 90.000000
_cell_angle_beta 93.156978
_cell_angle_gamma 90.000000
_cell_volume 2431.329901
_symmetry_space_group_name_H-M "C 2/C"
_symmetry_group_IT_number 15
_symmetry_cell_setting 'monoclinic'
loop_
_space_group_symop_operation_xyz
x,y,z
-x,y,1/2-z
-x,-y,-z
x,-y,1/2+z
1/2+x,1/2+y,z
1/2-x,1/2+y,1/2-z
1/2-x,1/2-y,-z
1/2+x,1/2-y,1/2+z
loop_
_atom_site_type_symbol
_atom_site_label
_atom_site_fract_x
_atom_site_fract_y
_atom_site_fract_z
Si Si1 0.208000 0.161980 0.464673
Si Si2 0.000000 0.021027 0.750000
Si Si3 0.700967 0.400425 0.558462
Si Si4 0.866997 0.689095 0.227082
Si Si5 0.839103 0.032837 0.994328
Si Si6 0.500000 0.643452 0.250000
Si Si7 0.634231 0.679431 0.785512
O O1 0.309635 0.191289 0.383666
O O2 0.227449 0.090711 0.462661
O O3 0.195265 0.176978 0.633125
O O4 0.090375 0.174673 0.366649
O O5 0.919480 0.984754 0.635183
O O6 0.083149 0.051797 0.639018
O O7 0.801007 0.362781 0.638446
O O8 0.720749 0.470853 0.549527
O O9 0.586980 0.389676 0.646290
O O10 0.676657 0.370388 0.400076
O O11 0.849255 0.753664 0.153340
O O12 0.000000 0.678138 0.250000
O O13 0.500000 0.672835 0.750000
#
# Coordination Sequence:
#
# PCOD9261342 Si02
#       7
#     8   4   8   8   8   4   8
#     4  11  21  36  59  88 120 150 189 235 290 351
#     4  10  19  28  48  84 136 148 162 212 291 368
#     4  11  21  36  59  88 120 150 189 235 290 351
#     4  10  24  44  58  73 112 161 206 242 279 317
#     4  11  20  30  53  88 120 152 175 225 292 354
#     4  10  19  32  54  92 124 154 172 218 297 360
#     4  11  22  36  61  89 116 147 196 236 293 342
#
# _framework density 19.742281999999999
#
# number of rings (size 3 to 8) (size 9 to 14) (size 15 to 20)
#    0.000    1.333    1.667    7.000    2.333    0.000 
#    0.000    1.667    0.000    0.000    0.000    0.000 
#    0.000    0.000    0.000    0.000    0.000    0.000 
#
# Total GULP energy -133975.979333 kJ/mol
# GULP energy per Si atom -5582.332472 kJ/mol
# Density = 1.969735 g / cm^3
# Si number density = 19.742282 Si / 1000 Ang^3
#
#
#
# Elastic Constant Matrix: (Units=GPa)
#
#
# Indices 1 2 3 4 5 6 
#
# 1 84.5577 28.5293 24.0973 0.0000 -5.4964 0.0000
# 2 28.5293 117.8310 8.9720 0.0000 2.6794 0.0000
# 3 24.0973 8.9720 113.4686 0.0000 -5.4285 0.0000
# 4 0.0000 0.0000 0.0000 24.5720 0.0000 0.7846
# 5 -5.4964 2.6794 -5.4285 0.0000 23.6112 0.0000
# 6 0.0000 0.0000 0.0000 0.7846 0.0000 6.5618
#
#
#
# Elastic Compliance Matrix: (Units=1/GPa)
#
#
# Indices 1 2 3 4 5 6 
#
# 1 0.013833 -0.003224 -0.002539 0.000000 0.003002 0.000000
# 2 -0.003224 0.009320 -0.000140 0.000000 -0.001840 0.000000
# 3 -0.002539 -0.000140 0.009440 0.000000 0.001595 0.000000
# 4 0.000000 0.000000 0.000000 0.040853 0.000000 -0.004885
# 5 0.003002 -0.001840 0.001595 0.000000 0.043627 0.000000
# 6 0.000000 0.000000 0.000000 -0.004885 0.000000 0.152982
#
#
# Mechanical properties :
#
#
# Convention : Reuss Voigt Hill
#
# Bulk Modulus (GPa) = 48.11086 48.78382 48.44734
# Shear Modulus (GPa) = 17.31362 27.89957 22.60660
#
# Velocity S-wave (km/s) = 2.96460 3.76332 3.38758
# Velocity P-wave (km/s) = 6.01172 6.60662 6.31618
#
# Compressibility (1/GPa) = 0.02078533
#
# Stress axis : x y z
#
# Youngs Moduli (GPa) = 72.29195 107.29738 105.93618
#
# Poissons Ratio (x) = 0.34594 0.26898
# Poissons Ratio (y) = 0.23308 0.01486
# Poissons Ratio (z) = 0.18356 0.01505
#
# Static dielectric constant tensor:
#      x y z
#    x 1.652510 0.000000 -0.000640 
#    y 0.000000 1.788890 0.000000 
#    z -0.000640 0.000000 1.727140 
# 
# From -- ./inp_files/32088.got.cif
#   From: 2010.05.17/outbox.cif.g08.bks.cpg/sg15_17_cif.got.tgz:32088.got - 2010.06.03 18:47:42.
