data_PCOD9261227
_publ_section_title
;
Structure prediction by ZEFSAII (Michael W. Deem and Ramdas Pophale) SiO2 
 PCOD9261227
Probable space group: C 2/C
;
_chemical_formula_sum "Si O2"
_cell_formula_units_Z 32
_cell_length_a 14.591827
_cell_length_b 14.371709
_cell_length_c 12.322791
_cell_angle_alpha 90.000000
_cell_angle_beta 151.795340
_cell_angle_gamma 90.000000
_cell_volume 1221.353860
_symmetry_space_group_name_H-M "C 2/C"
_symmetry_group_IT_number 15
_symmetry_cell_setting 'monoclinic'
loop_
_space_group_symop_operation_xyz
x,y,z
-x,y,1/2-z
-x,-y,-z
x,-y,1/2+z
1/2+x,1/2+y,z
1/2-x,1/2+y,1/2-z
1/2-x,1/2-y,-z
1/2+x,1/2-y,1/2+z
loop_
_atom_site_type_symbol
_atom_site_label
_atom_site_fract_x
_atom_site_fract_y
_atom_site_fract_z
Si Si1 0.092049 0.911724 0.700093
Si Si2 0.250000 0.250000 0.500000
Si Si3 0.000000 0.083600 0.750000
Si Si4 0.650555 0.876204 0.218912
Si Si5 0.344412 0.909986 0.746751
O O1 0.189026 0.853231 0.897083
O O2 0.062349 0.014509 0.717060
O O3 0.228307 0.907437 0.739164
O O4 0.881696 0.873270 0.448164
O O5 0.400462 0.205481 0.750586
O O6 0.801382 0.128084 0.496762
O O7 0.608731 0.980155 0.221392
O O8 0.543494 0.862553 0.992153
#
# Coordination Sequence:
#
# PCOD9261227 Si02
#       5
#     8   4   4   8   8
#     4  11  22  38  61  94 133 166 209 278 324 383
#     4  12  22  38  66 100 136 160 210 282 336 364
#     4  10  18  42  58  88 128 166 226 256 316 398
#     4  10  22  39  55  97 130 163 218 263 324 400
#     4  10  22  39  63  87 133 176 210 269 329 389
#
# _framework density 26.200431999999999
#
# number of rings (size 3 to 8) (size 9 to 14) (size 15 to 20)
#    0.000    1.500    5.000    3.000    7.000    0.000 
#    0.000    3.750    0.000    1.500    0.000    0.000 
#    0.000    0.000    0.000    0.000    0.000    0.000 
#
# Total GULP energy -89099.705230 kJ/mol
# GULP energy per Si atom -5568.731577 kJ/mol
# Density = 2.614080 g / cm^3
# Si number density = 26.200432 Si / 1000 Ang^3
#
#
#
# Elastic Constant Matrix: (Units=GPa)
#
#
# Indices 1 2 3 4 5 6 
#
# 1 76.0875 -9.8988 16.8678 0.0001 1.4838 -0.0001
# 2 -9.8988 56.0543 37.8077 0.0000 -2.2170 -0.0001
# 3 16.8678 37.8077 266.4648 0.0000 58.1805 -0.0001
# 4 0.0001 0.0000 0.0000 77.1507 0.0001 -87.3073
# 5 1.4838 -2.2170 58.1805 0.0001 40.6477 -0.0001
# 6 -0.0001 -0.0001 -0.0001 -87.3073 -0.0001 543.3051
#
#
#
# Elastic Compliance Matrix: (Units=1/GPa)
#
#
# Indices 1 2 3 4 5 6 
#
# 1 0.014051 0.003941 -0.002013 0.000000 0.002583 0.000000
# 2 0.003941 0.022489 -0.005348 0.000000 0.008738 0.000000
# 3 -0.002013 -0.005348 0.006817 0.000000 -0.009976 0.000000
# 4 0.000000 0.000000 0.000000 0.015843 0.000000 0.002546
# 5 0.002583 0.008738 -0.009976 0.000000 0.039263 0.000000
# 6 0.000000 0.000000 0.000000 0.002546 0.000000 0.002250
#
#
# Mechanical properties :
#
#
# Convention : Reuss Voigt Hill
#
# Bulk Modulus (GPa) = 27.38399 54.24000 40.81200
# Shear Modulus (GPa) = 41.76268 155.80937 98.78602
#
# Velocity S-wave (km/s) = 3.99679 7.71993 6.14702
# Velocity P-wave (km/s) = 5.63680 10.01050 8.12353
#
# Compressibility (1/GPa) = 0.03651768
#
# Stress axis : x y z
#
# Youngs Moduli (GPa) = 71.16799 44.46712 146.68722
#
# Poissons Ratio (x) = -0.17524 0.29521
# Poissons Ratio (y) = -0.28047 0.78449
# Poissons Ratio (z) = 0.14323 0.23781
#
# Static dielectric constant tensor:
#      x y z
#    x 1.132980 0.000000 -0.527470 
#    y 0.000000 1.994890 0.000000 
#    z -0.527470 0.000000 1.916140 
# 
# From -- ./inp_files/38414.got.cif
#   From: 2010.05.17/outbox.cif.g08.bks.cpg/sg15_20_cif.got.tgz:38414.got - 2010.06.03 18:47:42.
