data_PCOD9261587
_publ_section_title
;
Structure prediction by ZEFSAII (Michael W. Deem and Ramdas Pophale) SiO2 
 PCOD9261587
Probable space group: C 2/C
;
_chemical_formula_sum "Si O2"
_cell_formula_units_Z 64
_cell_length_a 16.331375
_cell_length_b 16.048955
_cell_length_c 24.701413
_cell_angle_alpha 90.000000
_cell_angle_beta 155.449102
_cell_angle_gamma 90.000000
_cell_volume 2690.071555
_symmetry_space_group_name_H-M "C 2/C"
_symmetry_group_IT_number 15
_symmetry_cell_setting 'monoclinic'
loop_
_space_group_symop_operation_xyz
x,y,z
-x,y,1/2-z
-x,-y,-z
x,-y,1/2+z
1/2+x,1/2+y,z
1/2-x,1/2+y,1/2-z
1/2-x,1/2-y,-z
1/2+x,1/2-y,1/2+z
loop_
_atom_site_type_symbol
_atom_site_label
_atom_site_fract_x
_atom_site_fract_y
_atom_site_fract_z
Si Si1 0.407544 0.341190 0.800025
Si Si2 0.277987 0.393082 0.118956
Si Si3 0.104157 0.156528 0.702230
Si Si4 0.555428 0.502013 0.442006
Si Si5 0.826554 0.496017 0.707121
Si Si6 0.546337 0.156088 0.664247
Si Si7 0.959695 0.336706 0.842289
Si Si8 0.353153 0.934986 0.945890
O O1 0.557701 0.413102 0.909070
O O2 0.501529 0.250307 0.846366
O O3 0.255833 0.333155 0.759242
O O4 0.272484 0.378011 0.670527
O O5 0.500000 0.361522 0.250000
O O6 0.237362 0.367193 0.156562
O O7 0.281064 0.491347 0.110988
O O8 0.118495 0.355270 0.983744
O O9 0.226805 0.165273 0.720602
O O10 0.005302 0.243694 0.657130
O O11 0.961721 0.078334 0.607090
O O12 0.725656 0.493591 0.588296
O O13 0.351047 0.503373 0.354610
O O14 0.945041 0.581439 0.787588
O O15 0.949526 0.413007 0.794615
O O16 0.428264 0.119121 0.541798
O O17 0.500000 0.000000 0.000000
#
# Coordination Sequence:
#
# PCOD9261587 Si02
#       8
#     8   8   8   8   8   8   8   8
#     4  10  19  30  55  87 113 141 179 232 292 341
#     4  12  24  38  58  81 111 157 203 239 278 336
#     4  10  20  34  54  80 111 149 186 229 283 338
#     4   9  17  30  47  78 115 140 173 225 281 336
#     4   9  17  30  47  78 115 140 173 225 281 336
#     4  10  19  30  55  87 113 141 179 232 292 341
#     4  10  20  34  54  80 111 149 186 229 283 338
#     4  12  18  38  60  81 115 150 191 243 286 335
#
# _framework density 23.79119
#
# number of rings (size 3 to 8) (size 9 to 14) (size 15 to 20)
#    0.000    1.750    5.000    0.750    3.500    0.500 
#    0.000    0.000    0.000    0.750    0.000    0.000 
#    0.000    0.000    0.000    0.000    0.000    0.000 
#
# Total GULP energy -178669.166894 kJ/mol
# GULP energy per Si atom -5583.411465 kJ/mol
# Density = 2.373704 g / cm^3
# Si number density = 23.791190 Si / 1000 Ang^3
#
#
#
# Elastic Constant Matrix: (Units=GPa)
#
#
# Indices 1 2 3 4 5 6 
#
# 1 42.8522 33.7908 18.8693 0.0025 -2.9373 0.0033
# 2 33.7908 279.8913 103.9146 -0.0215 -52.5256 0.0068
# 3 18.8693 103.9146 124.6584 -0.0212 -46.2705 0.0114
# 4 0.0025 -0.0215 -0.0212 26.5785 -0.0004 -10.8781
# 5 -2.9373 -52.5256 -46.2705 -0.0004 41.6480 0.0043
# 6 0.0033 0.0068 0.0114 -10.8781 0.0043 8.4775
#
#
#
# Elastic Compliance Matrix: (Units=1/GPa)
#
#
# Indices 1 2 3 4 5 6 
#
# 1 0.026970 -0.002966 -0.003901 -0.000017 -0.006173 -0.000021
# 2 -0.002966 0.005723 -0.002927 0.000004 0.003756 0.000004
# 3 -0.003901 -0.002927 0.016303 0.000002 0.014146 -0.000023
# 4 -0.000017 0.000004 0.000002 0.079240 -0.000003 0.101679
# 5 -0.006173 0.003756 0.014146 -0.000003 0.044028 -0.000046
# 6 -0.000021 0.000004 -0.000023 0.101679 -0.000046 0.248432
#
#
# Mechanical properties :
#
#
# Convention : Reuss Voigt Hill
#
# Bulk Modulus (GPa) = 34.00588 84.50571 59.25580
# Shear Modulus (GPa) = 11.10899 34.72926 22.91913
#
# Velocity S-wave (km/s) = 2.16322 3.82482 3.10715
# Velocity P-wave (km/s) = 4.53474 7.42310 6.15087
#
# Compressibility (1/GPa) = 0.02940668
#
# Stress axis : x y z
#
# Youngs Moduli (GPa) = 37.07886 174.74818 61.33803
#
# Poissons Ratio (x) = 0.51832 0.23928
# Poissons Ratio (y) = 0.10998 0.17955
# Poissons Ratio (z) = 0.14464 0.51153
#
# Static dielectric constant tensor:
#      x y z
#    x 2.106090 0.000000 0.153960 
#    y 0.000000 1.920240 0.000000 
#    z 0.153960 0.000000 1.945400 
# 
# From -- ./inp_files/318005.got.cif
#   From: 2010.05.17/outbox.cif.g08.bks.cpg/sg15_160_cif.got.tgz:318005.got - 2010.06.03 18:47:42.
