data_PCOD9261475
_publ_section_title
;
Structure prediction by ZEFSAII (Michael W. Deem and Ramdas Pophale) SiO2 
 PCOD9261475
Probable space group: C 2/C
;
_chemical_formula_sum "Si O2"
_cell_formula_units_Z 48
_cell_length_a 23.373368
_cell_length_b 17.145203
_cell_length_c 5.433291
_cell_angle_alpha 90.000000
_cell_angle_beta 112.504778
_cell_angle_gamma 90.000000
_cell_volume 2011.533349
_symmetry_space_group_name_H-M "C 2/C"
_symmetry_group_IT_number 15
_symmetry_cell_setting 'monoclinic'
loop_
_space_group_symop_operation_xyz
x,y,z
-x,y,1/2-z
-x,-y,-z
x,-y,1/2+z
1/2+x,1/2+y,z
1/2-x,1/2+y,1/2-z
1/2-x,1/2-y,-z
1/2+x,1/2-y,1/2+z
loop_
_atom_site_type_symbol
_atom_site_label
_atom_site_fract_x
_atom_site_fract_y
_atom_site_fract_z
Si Si1 0.929812 0.369892 0.188712
Si Si2 0.425431 0.537528 0.992239
Si Si3 0.896344 0.211199 0.933541
Si Si4 0.785156 0.026242 0.327603
Si Si5 0.370344 0.858910 0.591096
Si Si6 0.268195 0.333101 0.127066
O O1 0.924667 0.274348 0.165983
O O2 0.909019 0.391339 0.427377
O O3 0.000000 0.392666 0.250000
O O4 0.113517 0.395238 0.613635
O O5 0.447345 0.514035 0.298980
O O6 0.431424 0.629907 0.954011
O O7 0.351913 0.513852 0.890839
O O8 0.887775 0.267359 0.679654
O O9 0.827037 0.183031 0.897006
O O10 0.790463 0.113343 0.436552
O O11 0.755075 0.982035 0.511204
O O12 0.298446 0.864970 0.402984
O O13 0.250000 0.250000 0.000000
#
# Coordination Sequence:
#
# PCOD9261475 Si02
#       6
#     8   8   8   8   8   8
#     4  10  21  38  56  77 106 148 191 234 282 321
#     4  10  19  30  48  72 103 150 187 205 263 330
#     4   9  20  33  54  80 108 153 172 231 272 333
#     4  10  20  34  51  73 115 164 179 214 268 353
#     4   9  22  34  55  81 109 143 177 235 284 327
#     4  10  19  37  52  91 120 147 185 232 292 342
#
# _framework density 23.862393000000001
#
# number of rings (size 3 to 8) (size 9 to 14) (size 15 to 20)
#    1.000    1.333    3.333    0.500    2.333    3.333 
#    0.000    0.000    0.000    1.000    0.000    0.000 
#    0.000   13.333    0.000    0.000    0.000    0.000 
#
# Total GULP energy -133641.199636 kJ/mol
# GULP energy per Si atom -5568.383318 kJ/mol
# Density = 2.380808 g / cm^3
# Si number density = 23.862393 Si / 1000 Ang^3
#
#
#
# Elastic Constant Matrix: (Units=GPa)
#
#
# Indices 1 2 3 4 5 6 
#
# 1 54.4355 -21.0745 21.0875 0.0000 -13.6522 0.0000
# 2 -21.0745 62.6410 10.2908 0.0000 -3.8182 0.0000
# 3 21.0875 10.2908 124.0282 0.0000 -21.5626 0.0000
# 4 0.0000 0.0000 0.0000 14.6926 0.0000 -0.7684
# 5 -13.6522 -3.8182 -21.5626 0.0000 43.1395 0.0000
# 6 0.0000 0.0000 0.0000 -0.7684 0.0000 4.8176
#
#
#
# Elastic Compliance Matrix: (Units=1/GPa)
#
#
# Indices 1 2 3 4 5 6 
#
# 1 0.025324 0.009582 -0.003899 0.000000 0.006914 0.000000
# 2 0.009582 0.019837 -0.002675 0.000000 0.003451 0.000000
# 3 -0.003899 -0.002675 0.009519 0.000000 0.003287 0.000000
# 4 0.000000 0.000000 0.000000 0.068634 0.000000 0.010946
# 5 0.006914 0.003451 0.003287 0.000000 0.027317 0.000000
# 6 0.000000 0.000000 0.000000 0.010946 0.000000 0.209318
#
#
# Mechanical properties :
#
#
# Convention : Reuss Voigt Hill
#
# Bulk Modulus (GPa) = 16.47542 29.07914 22.77728
# Shear Modulus (GPa) = 13.36308 27.91667 20.63987
#
# Velocity S-wave (km/s) = 2.36901 3.42409 2.94420
# Velocity P-wave (km/s) = 3.79503 5.27685 4.59606
#
# Compressibility (1/GPa) = 0.06069647
#
# Stress axis : x y z
#
# Youngs Moduli (GPa) = 39.48807 50.40977 105.05279
#
# Poissons Ratio (x) = -0.48301 0.40957
# Poissons Ratio (y) = -0.37837 0.28102
# Poissons Ratio (z) = 0.15395 0.13485
#
# Static dielectric constant tensor:
#      x y z
#    x 1.849890 0.000000 0.007310 
#    y 0.000000 1.926550 0.000000 
#    z 0.007310 0.000000 1.936270 
# 
# From -- ./inp_files/15445.got.cif
#   From: 2010.05.17/outbox.cif.g08.bks.cpg/sg15_8_cif.got.tgz:15445.got - 2010.06.03 18:47:42.
