data_PCOD9261993
_publ_section_title
;
Structure prediction by ZEFSAII (Michael W. Deem and Ramdas Pophale) SiO2 
 PCOD9261993
Probable space group: C 2/C
;
_chemical_formula_sum "Si O2"
_cell_formula_units_Z 52
_cell_length_a 14.825475
_cell_length_b 24.105621
_cell_length_c 9.065550
_cell_angle_alpha 90.000000
_cell_angle_beta 59.923020
_cell_angle_gamma 90.000000
_cell_volume 2803.588852
_symmetry_space_group_name_H-M "C 2/C"
_symmetry_group_IT_number 15
_symmetry_cell_setting 'monoclinic'
loop_
_space_group_symop_operation_xyz
x,y,z
-x,y,1/2-z
-x,-y,-z
x,-y,1/2+z
1/2+x,1/2+y,z
1/2-x,1/2+y,1/2-z
1/2-x,1/2-y,-z
1/2+x,1/2-y,1/2+z
loop_
_atom_site_type_symbol
_atom_site_label
_atom_site_fract_x
_atom_site_fract_y
_atom_site_fract_z
Si Si1 0.750095 0.457756 0.986958
Si Si2 0.151397 0.382631 0.826932
Si Si3 0.164890 0.703044 0.048127
Si Si4 0.440015 0.941807 0.052572
Si Si5 0.500000 0.282779 0.250000
Si Si6 0.768189 0.415658 0.434165
Si Si7 0.170526 0.134929 0.742432
O O1 0.782927 0.432923 0.802448
O O2 0.726599 0.522640 0.005667
O O3 0.854757 0.448602 0.995746
O O4 0.666432 0.417964 0.135336
O O5 0.157634 0.332361 0.705348
O O6 0.200858 0.379608 0.948995
O O7 0.029863 0.397754 0.943990
O O8 0.063213 0.739063 0.096799
O O9 0.250000 0.750000 0.000000
O O10 0.217130 0.663484 0.885237
O O11 0.374546 0.928652 0.253724
O O12 0.500000 0.000000 0.000000
O O13 0.420468 0.322097 0.225117
O O14 0.684476 0.386285 0.396546
#
# Coordination Sequence:
#
# PCOD9261993 Si02
#       7
#     8   8   8   8   4   8   8
#     4  10  19  32  51  80 123 157 178 209 272 358
#     4  11  20  29  53  82 116 155 183 224 278 344
#     4   9  21  39  60  80 100 145 199 239 283 334
#     4  11  19  29  46  83 126 161 175 207 275 359
#     4  10  20  42  62  74  96 146 206 248 270 322
#     4  11  20  32  50  87 126 145 176 228 287 344
#     4   9  21  38  60  82 110 146 189 234 284 337
#
# _framework density 18.547654999999999
#
# number of rings (size 3 to 8) (size 9 to 14) (size 15 to 20)
#    0.000    1.846    3.077    1.846    6.462    0.000 
#    0.000    3.846    0.000   13.846    0.000    0.000 
#    0.000    0.000    0.000    0.000    0.000    0.000 
#
# Total GULP energy -144867.076129 kJ/mol
# GULP energy per Si atom -5571.810620 kJ/mol
# Density = 1.850544 g / cm^3
# Si number density = 18.547655 Si / 1000 Ang^3
#
#
#
# Elastic Constant Matrix: (Units=GPa)
#
#
# Indices 1 2 3 4 5 6 
#
# 1 74.0373 42.1759 26.2250 0.0000 8.9778 0.0000
# 2 42.1759 113.7690 22.7476 0.0000 -0.5343 0.0000
# 3 26.2250 22.7476 54.8808 0.0000 15.7244 0.0000
# 4 0.0000 0.0000 0.0000 13.9987 0.0000 -10.9070
# 5 8.9778 -0.5343 15.7244 0.0000 26.3643 0.0000
# 6 0.0000 0.0000 0.0000 -10.9070 0.0000 40.0483
#
#
#
# Elastic Compliance Matrix: (Units=1/GPa)
#
#
# Indices 1 2 3 4 5 6 
#
# 1 0.019412 -0.006044 -0.005840 0.000000 -0.003250 0.000000
# 2 -0.006044 0.011679 -0.003148 0.000000 0.004173 0.000000
# 3 -0.005840 -0.003148 0.026251 0.000000 -0.013732 0.000000
# 4 0.000000 0.000000 0.000000 0.090677 0.000000 0.024695
# 5 -0.003250 0.004173 -0.013732 0.000000 0.047312 0.000000
# 6 0.000000 0.000000 0.000000 0.024695 0.000000 0.031696
#
#
# Mechanical properties :
#
#
# Convention : Reuss Voigt Hill
#
# Bulk Modulus (GPa) = 36.65883 47.22046 41.93964
# Shear Modulus (GPa) = 18.78395 26.18483 22.48439
#
# Velocity S-wave (km/s) = 3.18581 3.76142 3.48551
# Velocity P-wave (km/s) = 5.77409 6.66173 6.23373
#
# Compressibility (1/GPa) = 0.02727856
#
# Stress axis : x y z
#
# Youngs Moduli (GPa) = 51.51340 85.62032 38.09311
#
# Poissons Ratio (x) = 0.51750 0.22246
# Poissons Ratio (y) = 0.31135 0.11993
# Poissons Ratio (z) = 0.30083 0.26957
#
# Static dielectric constant tensor:
#      x y z
#    x 1.650510 0.000000 -0.008790 
#    y 0.000000 1.713710 0.000000 
#    z -0.008790 0.000000 1.700550 
# 
# From -- ./inp_files/42057.got.cif
#   From: 2010.05.17/outbox.cif.g08.bks.cpg/sg15_22_cif.got.tgz:42057.got - 2010.06.03 18:47:42.
