data_PCOD9261125
_publ_section_title
;
Structure prediction by ZEFSAII (Michael W. Deem and Ramdas Pophale) SiO2 
 PCOD9261125
Probable space group: C 2/C
;
_chemical_formula_sum "Si O2"
_cell_formula_units_Z 44
_cell_length_a 14.860464
_cell_length_b 14.612733
_cell_length_c 17.572755
_cell_angle_alpha 90.000000
_cell_angle_beta 142.743443
_cell_angle_gamma 90.000000
_cell_volume 2310.124501
_symmetry_space_group_name_H-M "C 2/C"
_symmetry_group_IT_number 15
_symmetry_cell_setting 'monoclinic'
loop_
_space_group_symop_operation_xyz
x,y,z
-x,y,1/2-z
-x,-y,-z
x,-y,1/2+z
1/2+x,1/2+y,z
1/2-x,1/2+y,1/2-z
1/2-x,1/2-y,-z
1/2+x,1/2-y,1/2+z
loop_
_atom_site_type_symbol
_atom_site_label
_atom_site_fract_x
_atom_site_fract_y
_atom_site_fract_z
Si Si1 0.215510 0.357054 0.987886
Si Si2 0.336504 0.983131 0.166777
Si Si3 0.064919 0.561270 0.112458
Si Si4 0.500000 0.550233 0.750000
Si Si5 0.160691 0.841719 0.953404
Si Si6 0.647849 0.394413 0.773913
O O1 0.250000 0.250000 0.000000
O O2 0.358997 0.393701 0.128371
O O3 0.197875 0.420638 0.900119
O O4 0.066658 0.380758 0.936453
O O5 0.500000 0.952466 0.250000
O O6 0.356782 0.000323 0.269500
O O7 0.222724 0.905804 0.061795
O O8 0.202455 0.617466 0.170760
O O9 0.000000 0.500000 0.000000
O O10 0.560598 0.491433 0.717723
O O11 0.184735 0.890796 0.888291
O O12 0.983413 0.825960 0.838535
O O13 0.250000 0.750000 0.000000
#
# Coordination Sequence:
#
# PCOD9261125 Si02
#       6
#     8   8   8   4   8   8
#     4  11  23  41  65  93 128 173 212 260 328 393
#     4  10  21  38  63  89 125 167 208 253 320 383
#     4  11  22  42  64  94 128 167 220 271 316 380
#     4  10  18  40  66  82 124 168 210 252 340 370
#     4  10  21  40  62  91 125 166 210 257 332 381
#     4  10  20  41  63  87 127 163 209 274 314 385
#
# _framework density 19.046592
#
# number of rings (size 3 to 8) (size 9 to 14) (size 15 to 20)
#    0.000    1.818    5.455    1.091    6.364    0.727 
#    3.273    0.000    0.000    0.000    0.000    0.000 
#    0.000    0.000    0.000    0.000    0.000    0.000 
#
# Total GULP energy -122486.646354 kJ/mol
# GULP energy per Si atom -5567.574834 kJ/mol
# Density = 1.900324 g / cm^3
# Si number density = 19.046592 Si / 1000 Ang^3
#
#
#
# Elastic Constant Matrix: (Units=GPa)
#
#
# Indices 1 2 3 4 5 6 
#
# 1 94.7453 29.7509 53.5980 0.0001 12.2517 0.0001
# 2 29.7509 96.5122 44.2756 0.0001 10.7077 0.0001
# 3 53.5980 44.2756 133.7963 0.0003 3.5076 0.0002
# 4 0.0001 0.0001 0.0003 23.4866 0.0002 10.8846
# 5 12.2517 10.7077 3.5076 0.0002 37.3356 0.0002
# 6 0.0001 0.0001 0.0002 10.8846 0.0002 13.9910
#
#
#
# Elastic Compliance Matrix: (Units=1/GPa)
#
#
# Indices 1 2 3 4 5 6 
#
# 1 0.014484 -0.001684 -0.005146 0.000000 -0.003787 0.000000
# 2 -0.001684 0.012788 -0.003484 0.000000 -0.002788 0.000000
# 3 -0.005146 -0.003484 0.010644 0.000000 0.001688 0.000000
# 4 0.000000 0.000000 0.000000 0.066583 0.000000 -0.051800
# 5 -0.003787 -0.002788 0.001688 0.000000 0.028668 0.000000
# 6 0.000000 0.000000 0.000000 -0.051800 0.000000 0.111774
#
#
# Mechanical properties :
#
#
# Convention : Reuss Voigt Hill
#
# Bulk Modulus (GPa) = 57.84195 64.47810 61.16002
# Shear Modulus (GPa) = 18.42762 28.12457 23.27610
#
# Velocity S-wave (km/s) = 3.11384 3.84685 3.49959
# Velocity P-wave (km/s) = 6.58503 7.32512 6.96491
#
# Compressibility (1/GPa) = 0.01728849
#
# Stress axis : x y z
#
# Youngs Moduli (GPa) = 69.04166 78.19719 93.94904
#
# Poissons Ratio (x) = 0.13170 0.48343
# Poissons Ratio (y) = 0.11628 0.32733
# Poissons Ratio (z) = 0.35526 0.27245
#
# Static dielectric constant tensor:
#      x y z
#    x 1.718200 0.000000 -0.002150 
#    y 0.000000 0.844990 0.000000 
#    z -0.002150 0.000000 1.746100 
# 
# From -- ./inp_files/205216.got.cif
#   From: 2010.05.17/outbox.cif.g08.bks.cpg/sg15_103_cif.got.tgz:205216.got - 2010.06.03 18:47:42.
