data_PCOD9261801
_publ_section_title
;
Structure prediction by ZEFSAII (Michael W. Deem and Ramdas Pophale) SiO2 
 PCOD9261801
Probable space group: C 2/C
;
_chemical_formula_sum "Si O2"
_cell_formula_units_Z 56
_cell_length_a 5.432596
_cell_length_b 17.915502
_cell_length_c 28.485834
_cell_angle_alpha 90.000000
_cell_angle_beta 77.556636
_cell_angle_gamma 90.000000
_cell_volume 2707.333724
_symmetry_space_group_name_H-M "C 2/C"
_symmetry_group_IT_number 15
_symmetry_cell_setting 'monoclinic'
loop_
_space_group_symop_operation_xyz
x,y,z
-x,y,1/2-z
-x,-y,-z
x,-y,1/2+z
1/2+x,1/2+y,z
1/2-x,1/2+y,1/2-z
1/2-x,1/2-y,-z
1/2+x,1/2-y,1/2+z
loop_
_atom_site_type_symbol
_atom_site_label
_atom_site_fract_x
_atom_site_fract_y
_atom_site_fract_z
Si Si1 0.328250 0.872790 0.353963
Si Si2 0.100969 0.311816 0.694112
Si Si3 0.168940 0.173623 0.028203
Si Si4 0.302438 0.567961 0.006712
Si Si5 0.166149 0.807832 0.639185
Si Si6 0.614851 0.369942 0.196138
Si Si7 0.464528 0.063527 0.947872
O O1 0.327436 0.782743 0.358293
O O2 0.593793 0.892692 0.318390
O O3 0.364607 0.907658 0.403419
O O4 0.076115 0.895770 0.336881
O O5 0.389460 0.333586 0.669320
O O6 0.107890 0.220832 0.694569
O O7 0.000000 0.334886 0.750000
O O8 0.895417 0.334485 0.663086
O O9 0.197854 0.174006 0.082827
O O10 0.888528 0.144199 0.026953
O O11 0.250000 0.250000 0.000000
O O12 0.330985 0.113187 0.993403
O O13 0.083311 0.524217 0.043782
O O14 0.500000 0.500000 0.000000
O O15 0.247932 0.578939 0.953576
O O16 0.500000 0.394043 0.250000
#
# Coordination Sequence:
#
# PCOD9261801 Si02
#       7
#     8   8   8   8   8   8   8
#     4  10  19  31  54  80 112 152 188 230 294 353
#     4   9  18  33  51  74 114 153 187 233 287 349
#     4  11  22  35  55  86 124 154 184 244 294 345
#     4   9  22  39  56  74 116 153 207 232 281 350
#     4  10  20  32  51  85 114 148 190 229 295 353
#     4   9  18  31  49  78 114 146 184 238 295 349
#     4  10  21  38  56  81 114 161 195 238 285 355
#
# _framework density 20.684557999999999
#
# number of rings (size 3 to 8) (size 9 to 14) (size 15 to 20)
#    0.000    2.286    1.429    0.857    6.000    5.143 
#    0.000    0.000    0.000    0.000    0.000    4.000 
#    0.000    0.000    0.000    0.000    0.000    0.000 
#
# Total GULP energy -155870.632345 kJ/mol
# GULP energy per Si atom -5566.808298 kJ/mol
# Density = 2.063748 g / cm^3
# Si number density = 20.684558 Si / 1000 Ang^3
#
#
#
# Elastic Constant Matrix: (Units=GPa)
#
#
# Indices 1 2 3 4 5 6 
#
# 1 50.9117 15.9718 16.4768 0.0000 7.3233 0.0000
# 2 15.9718 46.9661 13.1302 0.0000 1.9439 0.0000
# 3 16.4768 13.1302 118.0359 0.0000 5.8761 0.0000
# 4 0.0000 0.0000 0.0000 13.7508 0.0000 12.8086
# 5 7.3233 1.9439 5.8761 0.0000 41.5186 0.0000
# 6 0.0000 0.0000 0.0000 12.8086 0.0000 18.4259
#
#
#
# Elastic Compliance Matrix: (Units=1/GPa)
#
#
# Indices 1 2 3 4 5 6 
#
# 1 0.023087 -0.007076 -0.002265 0.000000 -0.003420 0.000000
# 2 -0.007076 0.024164 -0.001718 0.000000 0.000360 0.000000
# 3 -0.002265 -0.001718 0.009019 0.000000 -0.000796 0.000000
# 4 0.000000 0.000000 0.000000 0.206312 0.000000 -0.143416
# 5 -0.003420 0.000360 -0.000796 0.000000 0.024785 0.000000
# 6 0.000000 0.000000 0.000000 -0.143416 0.000000 0.153966
#
#
# Mechanical properties :
#
#
# Convention : Reuss Voigt Hill
#
# Bulk Modulus (GPa) = 29.28233 34.11905 31.70069
# Shear Modulus (GPa) = 10.52995 26.09469 18.31232
#
# Velocity S-wave (km/s) = 2.25871 3.55569 2.97865
# Velocity P-wave (km/s) = 4.58145 5.77823 5.21429
#
# Compressibility (1/GPa) = 0.03415029
#
# Stress axis : x y z
#
# Youngs Moduli (GPa) = 43.31452 41.38414 110.87723
#
# Poissons Ratio (x) = 0.29285 0.25117
# Poissons Ratio (y) = 0.30651 0.19050
# Poissons Ratio (z) = 0.09812 0.07110
#
# Static dielectric constant tensor:
#      x y z
#    x 2.168150 0.000000 0.070210 
#    y 0.000000 1.721850 0.000000 
#    z 0.070210 0.000000 1.756360 
# 
# From -- ./inp_files/261211.got.cif
#   From: 2010.05.17/outbox.cif.g08.bks.cpg/sg15_131_cif.got.tgz:261211.got - 2010.06.03 18:47:42.
