data_PCOD9261576
_publ_section_title
;
Structure prediction by ZEFSAII (Michael W. Deem and Ramdas Pophale) SiO2 
 PCOD9261576
Probable space group: C 2/C
;
_chemical_formula_sum "Si O2"
_cell_formula_units_Z 52
_cell_length_a 8.411976
_cell_length_b 26.447089
_cell_length_c 12.779050
_cell_angle_alpha 90.000000
_cell_angle_beta 59.798411
_cell_angle_gamma 90.000000
_cell_volume 2457.080086
_symmetry_space_group_name_H-M "C 2/C"
_symmetry_group_IT_number 15
_symmetry_cell_setting 'monoclinic'
loop_
_space_group_symop_operation_xyz
x,y,z
-x,y,1/2-z
-x,-y,-z
x,-y,1/2+z
1/2+x,1/2+y,z
1/2-x,1/2+y,1/2-z
1/2-x,1/2-y,-z
1/2+x,1/2-y,1/2+z
loop_
_atom_site_type_symbol
_atom_site_label
_atom_site_fract_x
_atom_site_fract_y
_atom_site_fract_z
Si Si1 0.495832 0.243688 0.983789
Si Si2 0.070827 0.159689 0.555116
Si Si3 0.205136 0.653565 0.814442
Si Si4 0.500000 0.492678 0.750000
Si Si5 0.179693 0.548057 0.736859
Si Si6 0.599671 0.415501 0.536168
Si Si7 0.181458 0.180323 0.119268
O O1 0.585706 0.203757 0.873524
O O2 0.379068 0.284752 0.957279
O O3 0.622152 0.284066 0.001673
O O4 0.361579 0.209486 0.100704
O O5 0.204297 0.142718 0.602963
O O6 0.869407 0.163463 0.677121
O O7 0.057561 0.119702 0.465252
O O8 0.113236 0.602009 0.805912
O O9 0.317912 0.524134 0.776837
O O10 0.535682 0.457195 0.638476
O O11 0.302027 0.559327 0.594479
O O12 0.000000 0.520011 0.750000
O O13 0.721738 0.375068 0.560656
O O14 0.000000 0.176904 0.250000
#
# Coordination Sequence:
#
# PCOD9261576 Si02
#       7
#     8   8   8   4   8   8   8
#     4  10  19  30  54  84 118 158 200 244 292 356
#     4   9  19  34  57  87 121 162 199 241 301 371
#     4  10  19  36  56  85 124 157 200 252 301 354
#     4  12  24  44  68  88 120 164 198 266 318 360
#     4  11  24  41  65  94 119 156 212 258 309 369
#     4  10  21  40  63  87 120 159 202 247 313 373
#     4  10  19  33  52  82 118 158 198 242 299 361
#
# _framework density 21.163330999999999
#
# number of rings (size 3 to 8) (size 9 to 14) (size 15 to 20)
#    0.000    1.846    0.769    4.615    0.000    3.692 
#    0.000    1.538    0.000    0.000    0.000    0.000 
#    0.000    0.000    0.000    0.000    0.000    0.000 
#
# Total GULP energy -144890.842656 kJ/mol
# GULP energy per Si atom -5572.724718 kJ/mol
# Density = 2.111516 g / cm^3
# Si number density = 21.163331 Si / 1000 Ang^3
#
#
#
# Elastic Constant Matrix: (Units=GPa)
#
#
# Indices 1 2 3 4 5 6 
#
# 1 88.5931 43.9558 6.1904 0.0000 12.3146 0.0000
# 2 43.9558 102.7790 29.3605 0.0000 8.6753 0.0000
# 3 6.1904 29.3605 56.3350 0.0000 12.5599 0.0000
# 4 0.0000 0.0000 0.0000 38.3664 0.0000 13.4365
# 5 12.3146 8.6753 12.5599 0.0000 23.9632 0.0000
# 6 0.0000 0.0000 0.0000 13.4365 0.0000 -1.6056
#
#
#
# Elastic Compliance Matrix: (Units=1/GPa)
#
#
# Indices 1 2 3 4 5 6 
#
# 1 0.015560 -0.007066 0.003607 0.000000 -0.007329 0.000000
# 2 -0.007066 0.014669 -0.007353 0.000000 0.002175 0.000000
# 3 0.003607 -0.007353 0.023786 0.000000 -0.011659 0.000000
# 4 0.000000 0.000000 0.000000 0.006631 0.000000 0.055491
# 5 -0.007329 0.002175 -0.011659 0.000000 0.050820 0.000000
# 6 0.000000 0.000000 0.000000 0.055491 0.000000 -0.158447
#
#
# Mechanical properties :
#
#
# Convention : Reuss Voigt Hill
#
# Bulk Modulus (GPa) = 30.87428 45.19116 38.03272
# Shear Modulus (GPa) = -343.44222 23.35816 -160.04203
#
# Velocity S-wave (km/s) = -12.75281 3.32582 -8.70554
# Velocity P-wave (km/s) = 14.22059 6.01232 9.11255
#
# Compressibility (1/GPa) = 0.03238942
#
# Stress axis : x y z
#
# Youngs Moduli (GPa) = 64.26620 68.17187 42.04090
#
# Poissons Ratio (x) = 0.48174 -0.15164
# Poissons Ratio (y) = 0.45414 0.30915
# Poissons Ratio (z) = -0.23181 0.50130
#
# Static dielectric constant tensor:
#      x y z
#    x 1.912750 0.000000 -0.026080 
#    y 0.000000 1.801410 0.000000 
#    z -0.026080 0.000000 1.757480 
# 
# From -- ./inp_files/137210.got.cif
#   From: 2010.05.17/outbox.cif.g08.bks.cpg/sg15_69_cif.got.tgz:137210.got - 2010.06.03 18:47:42.
