data_PCOD9261280
_publ_section_title
;
Structure prediction by ZEFSAII (Michael W. Deem and Ramdas Pophale) SiO2 
 PCOD9261280
Probable space group: C 2/C
;
_chemical_formula_sum "Si O2"
_cell_formula_units_Z 52
_cell_length_a 25.550208
_cell_length_b 11.238054
_cell_length_c 11.308240
_cell_angle_alpha 90.000000
_cell_angle_beta 132.741694
_cell_angle_gamma 90.000000
_cell_volume 2384.655253
_symmetry_space_group_name_H-M "C 2/C"
_symmetry_group_IT_number 15
_symmetry_cell_setting 'monoclinic'
loop_
_space_group_symop_operation_xyz
x,y,z
-x,y,1/2-z
-x,-y,-z
x,-y,1/2+z
1/2+x,1/2+y,z
1/2-x,1/2+y,1/2-z
1/2-x,1/2-y,-z
1/2+x,1/2-y,1/2+z
loop_
_atom_site_type_symbol
_atom_site_label
_atom_site_fract_x
_atom_site_fract_y
_atom_site_fract_z
Si Si1 0.210688 0.820033 0.542052
Si Si2 0.219489 0.623111 0.112809
Si Si3 0.851117 0.252515 0.201992
Si Si4 0.500000 0.171831 0.250000
Si Si5 0.004028 0.132651 0.123977
Si Si6 0.574172 0.378592 0.214921
Si Si7 0.359431 0.895815 0.435477
O O1 0.250000 0.750000 0.500000
O O2 0.266364 0.862843 0.725298
O O3 0.152084 0.902704 0.388573
O O4 0.163213 0.729975 0.545222
O O5 0.293776 0.655058 0.160561
O O6 0.186099 0.492333 0.062920
O O7 0.167047 0.711227 0.960557
O O8 0.929788 0.199446 0.336116
O O9 0.844639 0.371375 0.273946
O O10 0.539872 0.261729 0.221357
O O11 0.557403 0.092506 0.407532
O O12 0.000000 0.179594 0.250000
O O13 0.025968 0.993922 0.164513
O O14 0.932848 0.141648 0.936651
#
# Coordination Sequence:
#
# PCOD9261280 Si02
#       7
#     8   8   8   4   8   8   8
#     4  10  24  39  62  96 126 167 221 269 316 407
#     4  10  24  43  65  93 133 176 213 267 335 387
#     4  10  23  44  65  96 135 166 221 278 313 401
#     4  10  18  44  62  94 134 172 216 272 314 404
#     4  11  23  39  67  96 126 173 215 279 333 371
#     4  10  22  39  63  93 131 166 219 267 331 381
#     4  10  22  42  68  90 127 178 213 263 338 379
#
# _framework density 21.806087000000002
#
# number of rings (size 3 to 8) (size 9 to 14) (size 15 to 20)
#    0.000    1.846    2.308    0.000    6.462    2.462 
#    1.385    0.769    0.000    0.000    0.000    0.000 
#    0.000    0.000    0.000    0.000    0.000    0.000 
#
# Total GULP energy -144895.706380 kJ/mol
# GULP energy per Si atom -5572.911784 kJ/mol
# Density = 2.175646 g / cm^3
# Si number density = 21.806087 Si / 1000 Ang^3
#
#
#
# Elastic Constant Matrix: (Units=GPa)
#
#
# Indices 1 2 3 4 5 6 
#
# 1 34.4084 4.9483 21.2722 0.0000 -12.7922 0.0000
# 2 4.9483 52.9980 26.6017 0.0000 1.2759 0.0000
# 3 21.2722 26.6017 148.8872 0.0000 -14.1472 0.0000
# 4 0.0000 0.0000 0.0000 18.8286 0.0000 -5.5148
# 5 -12.7922 1.2759 -14.1472 0.0000 29.0844 0.0000
# 6 0.0000 0.0000 0.0000 -5.5148 0.0000 10.2727
#
#
#
# Elastic Compliance Matrix: (Units=1/GPa)
#
#
# Indices 1 2 3 4 5 6 
#
# 1 0.036979 -0.002034 -0.003529 0.000000 0.014637 0.000000
# 2 -0.002034 0.021066 -0.003823 0.000000 -0.003678 0.000000
# 3 -0.003529 -0.003823 0.008149 0.000000 0.002579 0.000000
# 4 0.000000 0.000000 0.000000 0.063020 0.000000 0.033831
# 5 0.014637 -0.003678 0.002579 0.000000 0.042236 0.000000
# 6 0.000000 0.000000 0.000000 0.033831 0.000000 0.115507
#
#
# Mechanical properties :
#
#
# Convention : Reuss Voigt Hill
#
# Bulk Modulus (GPa) = 21.08718 37.99310 29.54014
# Shear Modulus (GPa) = 15.55043 23.86858 19.70950
#
# Velocity S-wave (km/s) = 2.67333 3.31204 3.00968
# Velocity P-wave (km/s) = 4.38409 5.66455 5.06495
#
# Compressibility (1/GPa) = 0.04742217
#
# Stress axis : x y z
#
# Youngs Moduli (GPa) = 27.04267 47.47021 122.71728
#
# Poissons Ratio (x) = 0.09654 0.43309
# Poissons Ratio (y) = 0.05499 0.46912
# Poissons Ratio (z) = 0.09544 0.18147
#
# Static dielectric constant tensor:
#      x y z
#    x 1.839830 0.000000 -0.030670 
#    y 0.000000 1.791200 0.000000 
#    z -0.030670 0.000000 1.920650 
# 
# From -- ./inp_files/126495.got.cif
#   From: 2010.05.17/outbox.cif.g08.bks.cpg/sg15_64_cif.got.tgz:126495.got - 2010.06.03 18:47:42.
