data_PCOD9261057
_publ_section_title
;
Structure prediction by ZEFSAII (Michael W. Deem and Ramdas Pophale) SiO2 
 PCOD9261057
Probable space group: C 2/C
;
_chemical_formula_sum "Si O2"
_cell_formula_units_Z 56
_cell_length_a 11.988039
_cell_length_b 30.252573
_cell_length_c 8.207613
_cell_angle_alpha 90.000000
_cell_angle_beta 107.215457
_cell_angle_gamma 90.000000
_cell_volume 2843.288910
_symmetry_space_group_name_H-M "C 2/C"
_symmetry_group_IT_number 15
_symmetry_cell_setting 'monoclinic'
loop_
_space_group_symop_operation_xyz
x,y,z
-x,y,1/2-z
-x,-y,-z
x,-y,1/2+z
1/2+x,1/2+y,z
1/2-x,1/2+y,1/2-z
1/2-x,1/2-y,-z
1/2+x,1/2-y,1/2+z
loop_
_atom_site_type_symbol
_atom_site_label
_atom_site_fract_x
_atom_site_fract_y
_atom_site_fract_z
Si Si1 0.500000 0.881100 0.250000
Si Si2 0.132421 0.307392 0.507045
Si Si3 0.833519 0.396669 0.464082
Si Si4 0.083204 0.055498 0.542576
Si Si5 0.385397 0.645353 0.812986
Si Si6 0.612269 0.291663 0.900841
Si Si7 0.500000 0.837635 0.750000
Si Si8 0.840993 0.969527 0.057923
O O1 0.590974 0.848614 0.380929
O O2 0.424632 0.906011 0.355285
O O3 0.266855 0.310120 0.617211
O O4 0.118455 0.261508 0.405336
O O5 0.051444 0.308205 0.629037
O O6 0.728354 0.366553 0.343321
O O7 0.775634 0.441038 0.511925
O O8 0.901594 0.368880 0.628594
O O9 0.107985 0.107122 0.545562
O O10 0.120718 0.042295 0.742378
O O11 0.944185 0.046667 0.480524
O O12 0.155089 0.022286 0.460554
O O13 0.500000 0.641123 0.750000
O O14 0.387404 0.690788 0.912783
O O15 0.500000 0.305751 0.750000
#
# Coordination Sequence:
#
# PCOD9261057 Si02
#       8
#     4   8   8   8   8   8   4   8
#     4  10  18  40  62  75 118 174 204 235 306 352
#     4  10  22  41  57  87 119 165 202 252 304 356
#     4  10  20  39  61  88 116 161 208 248 291 370
#     4   9  17  34  55  87 115 151 179 239 315 359
#     4  11  21  38  60  89 122 154 195 256 316 357
#     4  11  24  39  60  91 124 155 209 260 301 363
#     4  10  24  38  64  87 118 170 212 241 298 364
#     4   9  17  34  57  82 118 148 191 236 296 371
#
# _framework density 19.695501
#
# number of rings (size 3 to 8) (size 9 to 14) (size 15 to 20)
#    0.000    2.000    5.000    0.000    3.000    0.000 
#    7.714    1.429    0.000   10.286    0.000    0.000 
#    0.000    0.000    0.000    0.000    0.000    0.000 
#
# Total GULP energy -156110.773136 kJ/mol
# GULP energy per Si atom -5575.384755 kJ/mol
# Density = 1.965067 g / cm^3
# Si number density = 19.695501 Si / 1000 Ang^3
#
#
#
# Elastic Constant Matrix: (Units=GPa)
#
#
# Indices 1 2 3 4 5 6 
#
# 1 98.2170 29.0121 17.2621 0.0000 16.4653 0.0000
# 2 29.0121 49.3037 -3.6868 0.0000 2.7058 0.0000
# 3 17.2621 -3.6868 33.6782 0.0000 16.1959 0.0000
# 4 0.0000 0.0000 0.0000 19.7980 0.0000 -1.5023
# 5 16.4653 2.7058 16.1959 0.0000 32.2136 0.0000
# 6 0.0000 0.0000 0.0000 -1.5023 0.0000 27.5602
#
#
#
# Elastic Compliance Matrix: (Units=1/GPa)
#
#
# Indices 1 2 3 4 5 6 
#
# 1 0.014565 -0.008908 -0.006885 0.000000 -0.003235 0.000000
# 2 -0.008908 0.026247 0.008322 0.000000 -0.001835 0.000000
# 3 -0.006885 0.008322 0.043228 0.000000 -0.018914 0.000000
# 4 0.000000 0.000000 0.000000 0.050720 0.000000 0.002765
# 5 -0.003235 -0.001835 -0.018914 0.000000 0.042360 0.000000
# 6 0.000000 0.000000 0.000000 0.002765 0.000000 0.036435
#
#
# Mechanical properties :
#
#
# Convention : Reuss Voigt Hill
#
# Bulk Modulus (GPa) = 14.47210 29.59710 22.03460
# Shear Modulus (GPa) = 19.87830 25.15514 22.51672
#
# Velocity S-wave (km/s) = 3.18037 3.57767 3.38485
# Velocity P-wave (km/s) = 4.56620 5.66801 5.14667
#
# Compressibility (1/GPa) = 0.06909845
#
# Stress axis : x y z
#
# Youngs Moduli (GPa) = 68.65647 38.09921 23.13294
#
# Poissons Ratio (x) = 0.33939 0.15927
# Poissons Ratio (y) = 0.61160 -0.19251
# Poissons Ratio (z) = 0.47270 -0.31706
#
# Static dielectric constant tensor:
#      x y z
#    x 1.718330 0.000000 0.003850 
#    y 0.000000 1.741460 0.000000 
#    z 0.003850 0.000000 1.706560 
# 
# From -- ./inp_files/35334.got.cif
#   From: 2010.05.17/outbox.cif.g08.bks.cpg/sg15_18_cif.got.tgz:35334.got - 2010.06.03 18:47:42.
