data_PCOD9261433
_publ_section_title
;
Structure prediction by ZEFSAII (Michael W. Deem and Ramdas Pophale) SiO2 
 PCOD9261433
Probable space group: C 2/C
;
_chemical_formula_sum "Si O2"
_cell_formula_units_Z 48
_cell_length_a 5.053056
_cell_length_b 14.200083
_cell_length_c 22.640391
_cell_angle_alpha 90.000000
_cell_angle_beta 99.496328
_cell_angle_gamma 90.000000
_cell_volume 1602.272087
_symmetry_space_group_name_H-M "C 2/C"
_symmetry_group_IT_number 15
_symmetry_cell_setting 'monoclinic'
loop_
_space_group_symop_operation_xyz
x,y,z
-x,y,1/2-z
-x,-y,-z
x,-y,1/2+z
1/2+x,1/2+y,z
1/2-x,1/2+y,1/2-z
1/2-x,1/2-y,-z
1/2+x,1/2-y,1/2+z
loop_
_atom_site_type_symbol
_atom_site_label
_atom_site_fract_x
_atom_site_fract_y
_atom_site_fract_z
Si Si1 0.744738 0.528860 0.287813
Si Si2 0.928618 0.675858 0.141248
Si Si3 0.191841 0.416195 0.532128
Si Si4 0.611721 0.208329 0.552978
Si Si5 0.279925 0.154708 0.704292
Si Si6 0.474655 0.548108 0.895665
O O1 0.500000 0.586172 0.250000
O O2 0.011928 0.589015 0.312156
O O3 0.754861 0.431533 0.250880
O O4 0.622893 0.496521 0.345100
O O5 0.070840 0.636079 0.085975
O O6 0.064575 0.765710 0.178647
O O7 0.642136 0.716993 0.107805
O O8 0.482057 0.462962 0.556638
O O9 0.000000 0.500000 0.500000
O O10 0.165424 0.340332 0.478155
O O11 0.750000 0.250000 0.500000
O O12 0.822447 0.128060 0.577334
O O13 0.500000 0.209883 0.750000
O O14 0.291030 0.096588 0.642112
#
# Coordination Sequence:
#
# PCOD9261433 Si02
#       6
#     8   8   8   8   8   8
#     4   9  17  30  45  62  90 126 160 196 234 278
#     4   9  16  27  45  69  94 122 155 194 238 281
#     4   8  13  24  45  73  94 114 150 200 239 272
#     4   8  13  22  41  72  94 109 145 198 234 266
#     4  10  19  30  44  66  94 126 160 195 233 277
#     4   8  15  27  44  66  90 119 153 189 230 276
#
# _framework density 29.957456000000001
#
# number of rings (size 3 to 8) (size 9 to 14) (size 15 to 20)
#    0.000    3.333    0.000    0.500    0.000    0.000 
#    0.000    4.167    0.000    0.000    0.000  147.000 
#    0.000    0.000    0.000    0.000    0.000    0.000 
#
# Total GULP energy -133816.868790 kJ/mol
# GULP energy per Si atom -5575.702866 kJ/mol
# Density = 2.988927 g / cm^3
# Si number density = 29.957456 Si / 1000 Ang^3
#
#
#
# Elastic Constant Matrix: (Units=GPa)
#
#
# Indices 1 2 3 4 5 6 
#
# 1 87.7292 22.7828 30.6599 0.0000 5.9145 0.0000
# 2 22.7828 223.8238 82.2194 0.0000 31.1099 0.0000
# 3 30.6599 82.2194 218.1553 0.0000 9.5320 0.0000
# 4 0.0000 0.0000 0.0000 43.4765 0.0000 32.3027
# 5 5.9145 31.1099 9.5320 0.0000 30.4442 0.0000
# 6 0.0000 0.0000 0.0000 32.3027 0.0000 34.8136
#
#
#
# Elastic Compliance Matrix: (Units=1/GPa)
#
#
# Indices 1 2 3 4 5 6 
#
# 1 0.012132 -0.000509 -0.001453 0.000000 -0.001382 0.000000
# 2 -0.000509 0.005987 -0.001949 0.000000 -0.005409 0.000000
# 3 -0.001453 -0.001949 0.005498 0.000000 0.000552 0.000000
# 4 0.000000 0.000000 0.000000 0.074054 0.000000 -0.068713
# 5 -0.001382 -0.005409 0.000552 0.000000 0.038470 0.000000
# 6 0.000000 0.000000 0.000000 -0.068713 0.000000 0.092481
#
#
# Mechanical properties :
#
#
# Convention : Reuss Voigt Hill
#
# Bulk Modulus (GPa) = 63.30575 89.00361 76.15468
# Shear Modulus (GPa) = 20.68606 48.01663 34.35134
#
# Velocity S-wave (km/s) = 2.63062 4.00788 3.38993
# Velocity P-wave (km/s) = 5.51404 7.15485 6.38735
#
# Compressibility (1/GPa) = 0.01579635
#
# Stress axis : x y z
#
# Youngs Moduli (GPa) = 82.42789 167.02126 181.87292
#
# Poissons Ratio (x) = 0.08504 0.26422
# Poissons Ratio (y) = 0.04197 0.35440
# Poissons Ratio (z) = 0.11975 0.32546
#
# Static dielectric constant tensor:
#      x y z
#    x 2.717430 0.000000 0.077280 
#    y 0.000000 2.354670 0.000000 
#    z 0.077280 0.000000 2.404060 
# 
# From -- ./inp_files/231079.got.cif
#   From: 2010.05.17/outbox.cif.g08.bks.cpg/sg15_116_cif.got.tgz:231079.got - 2010.06.03 18:47:42.
