data_PCOD9261215
_publ_section_title
;
Structure prediction by ZEFSAII (Michael W. Deem and Ramdas Pophale) SiO2 
 PCOD9261215
Probable space group: C 2/C
;
_chemical_formula_sum "Si O2"
_cell_formula_units_Z 44
_cell_length_a 7.121466
_cell_length_b 23.020723
_cell_length_c 14.301689
_cell_angle_alpha 90.000000
_cell_angle_beta 126.456471
_cell_angle_gamma 90.000000
_cell_volume 1885.811886
_symmetry_space_group_name_H-M "C 2/C"
_symmetry_group_IT_number 15
_symmetry_cell_setting 'monoclinic'
loop_
_space_group_symop_operation_xyz
x,y,z
-x,y,1/2-z
-x,-y,-z
x,-y,1/2+z
1/2+x,1/2+y,z
1/2-x,1/2+y,1/2-z
1/2-x,1/2-y,-z
1/2+x,1/2-y,1/2+z
loop_
_atom_site_type_symbol
_atom_site_label
_atom_site_fract_x
_atom_site_fract_y
_atom_site_fract_z
Si Si1 0.030274 0.560426 0.903474
Si Si2 0.726259 0.893536 0.653857
Si Si3 0.113643 0.697217 0.380515
Si Si4 0.500000 0.835951 0.250000
Si Si5 0.500000 0.423329 0.250000
Si Si6 0.496331 0.679264 0.894062
Si Si7 0.000000 0.468872 0.750000
O O1 0.028836 0.621479 0.847243
O O2 0.751140 0.545866 0.829666
O O3 0.132492 0.512660 0.861672
O O4 0.158475 0.570269 0.039633
O O5 0.559947 0.836046 0.599531
O O6 0.646174 0.929416 0.722177
O O7 0.000000 0.881213 0.750000
O O8 0.370391 0.670782 0.469881
O O9 0.000000 0.684048 0.250000
O O10 0.135307 0.767188 0.390450
O O11 0.266856 0.799585 0.183282
O O12 0.500209 0.379830 0.161745
#
# Coordination Sequence:
#
# PCOD9261215 Si02
#       7
#     8   8   8   4   4   8   4
#     4  10  23  45  67  97 129 174 230 280 333 405
#     4  12  27  44  68 101 139 178 221 285 345 399
#     4  11  23  41  63  96 139 180 218 271 338 401
#     4   9  22  38  68  98 128 178 230 277 326 400
#     4  10  18  41  68  88 128 171 224 270 324 394
#     4  10  21  39  65  96 131 182 219 267 330 405
#     4  11  26  49  68  98 128 179 230 287 346 392
#
# _framework density 23.332125999999999
#
# number of rings (size 3 to 8) (size 9 to 14) (size 15 to 20)
#    0.000    1.455    3.636    0.545    5.091    0.727 
#    3.273    1.818    0.000    0.000    0.000    0.000 
#    0.000    0.000    0.000    0.000    0.000    0.000 
#
# Total GULP energy -122716.436250 kJ/mol
# GULP energy per Si atom -5578.019830 kJ/mol
# Density = 2.327902 g / cm^3
# Si number density = 23.332126 Si / 1000 Ang^3
#
#
#
# Elastic Constant Matrix: (Units=GPa)
#
#
# Indices 1 2 3 4 5 6 
#
# 1 48.4120 2.3701 36.1487 0.0000 7.1947 0.0000
# 2 2.3701 76.4241 13.8324 0.0000 -2.7234 0.0000
# 3 36.1487 13.8324 153.1348 0.0000 5.6690 0.0000
# 4 0.0000 0.0000 0.0000 -5.8207 0.0000 -12.3986
# 5 7.1947 -2.7234 5.6690 0.0000 41.9900 0.0000
# 6 0.0000 0.0000 0.0000 -12.3986 0.0000 -1.6568
#
#
#
# Elastic Compliance Matrix: (Units=1/GPa)
#
#
# Indices 1 2 3 4 5 6 
#
# 1 0.025605 0.000151 -0.005925 0.000000 -0.003577 0.000000
# 2 0.000151 0.013348 -0.001279 0.000000 0.001013 0.000000
# 3 -0.005925 -0.001279 0.008050 0.000000 -0.000155 0.000000
# 4 0.000000 0.000000 0.000000 0.011499 0.000000 -0.086053
# 5 -0.003577 0.001013 -0.000155 0.000000 0.024515 0.000000
# 6 0.000000 0.000000 0.000000 -0.086053 0.000000 0.040399
#
#
# Mechanical properties :
#
#
# Convention : Reuss Voigt Hill
#
# Bulk Modulus (GPa) = 30.39873 42.51924 36.45899
# Shear Modulus (GPa) = 33.67294 21.94381 27.80837
#
# Velocity S-wave (km/s) = 3.80307 3.07008 3.45606
# Velocity P-wave (km/s) = 5.68695 5.55250 5.62013
#
# Compressibility (1/GPa) = 0.03289611
#
# Stress axis : x y z
#
# Youngs Moduli (GPa) = 39.05527 74.91906 124.22114
#
# Poissons Ratio (x) = -0.01131 0.73606
# Poissons Ratio (y) = -0.00589 0.15885
# Poissons Ratio (z) = 0.23142 0.09581
#
# Static dielectric constant tensor:
#      x y z
#    x 1.955550 0.000000 -0.016750 
#    y 0.000000 1.911950 0.000000 
#    z -0.016750 0.000000 1.917530 
# 
# From -- ./inp_files/138424.got.cif
#   From: 2010.05.17/outbox.cif.g08.bks.cpg/sg15_70_cif.got.tgz:138424.got - 2010.06.03 18:47:42.
