data_PCOD9261848
_publ_section_title
;
Structure prediction by ZEFSAII (Michael W. Deem and Ramdas Pophale) SiO2 
 PCOD9261848
Probable space group: C 2/C
;
_chemical_formula_sum "Si O2"
_cell_formula_units_Z 52
_cell_length_a 18.039292
_cell_length_b 12.335504
_cell_length_c 20.098425
_cell_angle_alpha 90.000000
_cell_angle_beta 140.194111
_cell_angle_gamma 90.000000
_cell_volume 2863.165095
_symmetry_space_group_name_H-M "C 2/C"
_symmetry_group_IT_number 15
_symmetry_cell_setting 'monoclinic'
loop_
_space_group_symop_operation_xyz
x,y,z
-x,y,1/2-z
-x,-y,-z
x,-y,1/2+z
1/2+x,1/2+y,z
1/2-x,1/2+y,1/2-z
1/2-x,1/2-y,-z
1/2+x,1/2-y,1/2+z
loop_
_atom_site_type_symbol
_atom_site_label
_atom_site_fract_x
_atom_site_fract_y
_atom_site_fract_z
Si Si1 0.203319 0.018899 0.809792
Si Si2 0.128664 0.036965 0.108863
Si Si3 0.098499 0.650074 0.018006
Si Si4 0.725496 0.156687 0.832485
Si Si5 0.151833 0.291485 0.130944
Si Si6 0.618034 0.220585 0.891116
Si Si7 0.000000 0.082620 0.250000
O O1 0.250267 0.141161 0.840184
O O2 0.150869 0.990106 0.701643
O O3 0.314886 0.943064 0.899138
O O4 0.105775 0.987479 0.795678
O O5 0.146124 0.164754 0.111064
O O6 0.222181 0.963399 0.134636
O O7 0.000000 0.000000 0.000000
O O8 0.167762 0.761806 0.079294
O O9 0.078428 0.645874 0.924473
O O10 0.974821 0.656517 0.967814
O O11 0.678898 0.191630 0.728123
O O12 0.631352 0.172105 0.826053
O O13 0.548062 0.333382 0.838625
O O14 0.750000 0.250000 0.000000
#
# Coordination Sequence:
#
# PCOD9261848 Si02
#       7
#     8   8   8   8   8   8   4
#     4  11  24  36  58  89 114 155 195 248 291 349
#     4  11  21  35  60  83 115 156 194 237 287 353
#     4  11  19  36  58  86 121 145 191 249 297 332
#     4  10  20  34  55  91 118 145 196 239 290 345
#     4  11  22  38  56  87 122 155 195 234 293 353
#     4  10  19  31  58  89 115 146 188 250 290 334
#     4  12  20  38  60  86 124 150 200 238 300 350
#
# _framework density 18.161719000000002
#
# number of rings (size 3 to 8) (size 9 to 14) (size 15 to 20)
#    0.000    1.231    6.154    2.308    2.154    0.000 
#    0.000    0.000    0.000    8.308    0.000    0.000 
#    0.000    0.000    0.000    0.000    0.000    0.000 
#
# Total GULP energy -145092.391455 kJ/mol
# GULP energy per Si atom -5580.476594 kJ/mol
# Density = 1.812038 g / cm^3
# Si number density = 18.161719 Si / 1000 Ang^3
#
#
#
# Elastic Constant Matrix: (Units=GPa)
#
#
# Indices 1 2 3 4 5 6 
#
# 1 68.6531 48.8086 26.0247 0.0000 16.8902 0.0000
# 2 48.8086 142.8904 47.3158 0.0000 16.0839 0.0000
# 3 26.0247 47.3158 91.0224 0.0000 5.0288 0.0000
# 4 0.0000 0.0000 0.0000 26.9079 0.0000 5.9845
# 5 16.8902 16.0839 5.0288 0.0000 27.0201 0.0000
# 6 0.0000 0.0000 0.0000 5.9845 0.0000 28.4842
#
#
#
# Elastic Compliance Matrix: (Units=1/GPa)
#
#
# Indices 1 2 3 4 5 6 
#
# 1 0.021977 -0.005419 -0.002916 0.000000 -0.009969 0.000000
# 2 -0.005419 0.010304 -0.003693 0.000000 -0.002059 0.000000
# 3 -0.002916 -0.003693 0.013658 0.000000 0.001479 0.000000
# 4 0.000000 0.000000 0.000000 0.038985 0.000000 -0.008191
# 5 -0.009969 -0.002059 0.001479 0.000000 0.044191 0.000000
# 6 0.000000 0.000000 0.000000 -0.008191 0.000000 0.036828
#
#
# Mechanical properties :
#
#
# Convention : Reuss Voigt Hill
#
# Bulk Modulus (GPa) = 45.69817 60.76268 53.23043
# Shear Modulus (GPa) = 25.34290 28.51023 26.92656
#
# Velocity S-wave (km/s) = 3.73956 3.96637 3.85463
# Velocity P-wave (km/s) = 6.62285 7.38276 7.01311
#
# Compressibility (1/GPa) = 0.02188271
#
# Stress axis : x y z
#
# Youngs Moduli (GPa) = 45.50300 97.04846 73.21701
#
# Poissons Ratio (x) = 0.52592 0.21348
# Poissons Ratio (y) = 0.24659 0.27040
# Poissons Ratio (z) = 0.13267 0.35842
#
# Static dielectric constant tensor:
#      x y z
#    x 1.649950 0.000000 -0.000730 
#    y 0.000000 1.614240 0.000000 
#    z -0.000730 0.000000 1.681090 
# 
# From -- ./inp_files/248561.got.cif
#   From: 2010.05.17/outbox.cif.g08.bks.cpg/sg15_125_cif.got.tgz:248561.got - 2010.06.03 18:47:42.
