data_PCOD9261601
_publ_section_title
;
Structure prediction by ZEFSAII (Michael W. Deem and Ramdas Pophale) SiO2 
 PCOD9261601
Probable space group: C 2/C
;
_chemical_formula_sum "Si O2"
_cell_formula_units_Z 40
_cell_length_a 8.312330
_cell_length_b 29.912493
_cell_length_c 7.144477
_cell_angle_alpha 90.000000
_cell_angle_beta 65.662207
_cell_angle_gamma 90.000000
_cell_volume 1618.553117
_symmetry_space_group_name_H-M "C 2/C"
_symmetry_group_IT_number 15
_symmetry_cell_setting 'monoclinic'
loop_
_space_group_symop_operation_xyz
x,y,z
-x,y,1/2-z
-x,-y,-z
x,-y,1/2+z
1/2+x,1/2+y,z
1/2-x,1/2+y,1/2-z
1/2-x,1/2-y,-z
1/2+x,1/2-y,1/2+z
loop_
_atom_site_type_symbol
_atom_site_label
_atom_site_fract_x
_atom_site_fract_y
_atom_site_fract_z
Si Si1 0.836717 0.304272 0.183504
Si Si2 0.028256 0.947486 0.955995
Si Si3 0.310298 0.895889 0.341077
Si Si4 0.041233 0.787147 0.951370
Si Si5 0.204689 0.371800 0.709825
O O1 0.824197 0.357573 0.178393
O O2 0.893350 0.262677 0.029529
O O3 0.643226 0.293219 0.355443
O O4 0.000000 0.302193 0.250000
O O5 0.204162 0.918054 0.905629
O O6 0.000000 0.941390 0.750000
O O7 0.859012 0.924357 0.128237
O O8 0.000000 0.000000 0.000000
O O9 0.500000 0.920233 0.250000
O O10 0.285386 0.875155 0.564020
O O11 0.179223 0.828245 0.908849
O O12 0.000000 0.788632 0.750000
O O13 0.000000 0.367193 0.750000
#
# Coordination Sequence:
#
# PCOD9261601 Si02
#       5
#     8   8   8   8   8
#     4  10  19  30  62  89 114 156 216 245 283 354
#     4  10  22  43  68  90 118 158 200 253 308 366
#     4  10  21  39  65  89 117 158 209 247 296 364
#     4  11  18  34  59  86 118 163 210 243 289 358
#     4  11  23  40  59  89 129 162 194 252 311 357
#
# _framework density 24.713429000000001
#
# number of rings (size 3 to 8) (size 9 to 14) (size 15 to 20)
#    0.000    1.600    4.000    3.000    2.800    2.400 
#    0.000    5.000    0.000    0.000    0.000    0.000 
#    0.000    0.000    0.000    0.000    0.000    0.000 
#
# Total GULP energy -111640.218999 kJ/mol
# GULP energy per Si atom -5582.010950 kJ/mol
# Density = 2.465718 g / cm^3
# Si number density = 24.713429 Si / 1000 Ang^3
#
#
#
# Elastic Constant Matrix: (Units=GPa)
#
#
# Indices 1 2 3 4 5 6 
#
# 1 137.4947 78.1597 32.1211 0.0000 -35.8632 0.0000
# 2 78.1597 180.8604 37.2663 0.0000 -39.6963 0.0000
# 3 32.1211 37.2663 113.0370 0.0000 -34.4315 0.0000
# 4 0.0000 0.0000 0.0000 5.8845 0.0000 -18.3181
# 5 -35.8632 -39.6963 -34.4315 0.0000 65.0254 0.0000
# 6 0.0000 0.0000 0.0000 -18.3181 0.0000 27.3052
#
#
#
# Elastic Compliance Matrix: (Units=1/GPa)
#
#
# Indices 1 2 3 4 5 6 
#
# 1 0.010317 -0.003622 -0.000808 0.000000 0.003051 0.000000
# 2 -0.003622 0.007772 -0.000830 0.000000 0.002307 0.000000
# 3 -0.000808 -0.000830 0.010802 0.000000 0.004767 0.000000
# 4 0.000000 0.000000 0.000000 -0.156141 0.000000 -0.104749
# 5 0.003051 0.002307 0.004767 0.000000 0.020994 0.000000
# 6 0.000000 0.000000 0.000000 -0.104749 0.000000 -0.033650
#
#
# Mechanical properties :
#
#
# Convention : Reuss Voigt Hill
#
# Bulk Modulus (GPa) = 54.43810 80.72070 67.57940
# Shear Modulus (GPa) = -40.56433 38.56602 -0.99916
#
# Velocity S-wave (km/s) = -4.05580 3.95464 -0.63653
# Velocity P-wave (km/s) = 0.37799 7.32023 5.18308
#
# Compressibility (1/GPa) = 0.01836949
#
# Stress axis : x y z
#
# Youngs Moduli (GPa) = 96.93085 128.66747 92.57419
#
# Poissons Ratio (x) = 0.46607 0.07482
# Poissons Ratio (y) = 0.35111 0.07685
# Poissons Ratio (z) = 0.07834 0.10682
#
# Static dielectric constant tensor:
#      x y z
#    x 1.992800 0.000000 0.208940 
#    y 0.000000 2.048910 0.000000 
#    z 0.208940 0.000000 2.133800 
# 
# From -- ./inp_files/24403.got.cif
#   From: 2010.05.17/outbox.cif.g08.bks.cpg/sg15_13_cif.got.tgz:24403.got - 2010.06.03 18:47:42.
