data_PCOD9261933
_publ_section_title
;
Structure prediction by ZEFSAII (Michael W. Deem and Ramdas Pophale) SiO2 
 PCOD9261933
Probable space group: C 2/C
;
_chemical_formula_sum "Si O2"
_cell_formula_units_Z 64
_cell_length_a 12.005543
_cell_length_b 36.593122
_cell_length_c 7.443645
_cell_angle_alpha 90.000000
_cell_angle_beta 119.324711
_cell_angle_gamma 90.000000
_cell_volume 2851.101928
_symmetry_space_group_name_H-M "C 2/C"
_symmetry_group_IT_number 15
_symmetry_cell_setting 'monoclinic'
loop_
_space_group_symop_operation_xyz
x,y,z
-x,y,1/2-z
-x,-y,-z
x,-y,1/2+z
1/2+x,1/2+y,z
1/2-x,1/2+y,1/2-z
1/2-x,1/2-y,-z
1/2+x,1/2-y,1/2+z
loop_
_atom_site_type_symbol
_atom_site_label
_atom_site_fract_x
_atom_site_fract_y
_atom_site_fract_z
Si Si1 0.273872 0.417037 0.290742
Si Si2 0.033162 0.296272 0.980041
Si Si3 0.535167 0.289134 0.564808
Si Si4 0.727386 0.915698 0.691475
Si Si5 0.226039 0.332643 0.658182
Si Si6 0.705441 0.666021 0.700677
Si Si7 0.020037 0.542635 0.552855
Si Si8 0.478303 0.542598 0.445407
O O1 0.249201 0.416490 0.489703
O O2 0.282042 0.375722 0.226961
O O3 0.158496 0.440882 0.119961
O O4 0.409256 0.435905 0.367922
O O5 0.913576 0.315411 0.983945
O O6 0.000000 0.305104 0.750000
O O7 0.031696 0.252879 0.005188
O O8 0.171374 0.311616 0.138527
O O9 0.500000 0.289135 0.750000
O O10 0.676437 0.306433 0.658223
O O11 0.427620 0.312812 0.377205
O O12 0.723694 0.873082 0.738754
O O13 0.592691 0.934355 0.625640
O O14 0.840553 0.939371 0.868793
O O15 0.285164 0.336776 0.507719
O O16 0.000000 0.547326 0.750000
O O17 0.000000 0.500000 0.500000
O O18 0.500000 0.547509 0.250000
O O19 0.500000 0.500000 0.500000
#
# Coordination Sequence:
#
# PCOD9261933 Si02
#       8
#     8   8   8   8   8   8   8   8
#     4   9  18  33  55  79 103 134 174 221 268 311
#     4  12  25  38  54  81 117 152 181 216 273 340
#     4  10  21  37  61  88 108 136 184 234 275 322
#     4   9  18  33  55  79 103 134 174 221 268 311
#     4  10  20  38  62  84 107 140 187 237 277 318
#     4  10  20  38  62  84 107 140 187 237 277 318
#     4  10  19  32  50  74 104 138 173 209 255 307
#     4  10  19  33  53  79 109 140 175 215 265 323
#
# _framework density 22.44746
#
# number of rings (size 3 to 8) (size 9 to 14) (size 15 to 20)
#    0.000    2.000    0.000    4.125    0.000    9.000 
#    0.000    3.750    0.000    1.500    0.000    0.000 
#    0.000    0.000    0.000    0.000    0.000    0.000 
#
# Total GULP energy -178933.334110 kJ/mol
# GULP energy per Si atom -5591.666691 kJ/mol
# Density = 2.239637 g / cm^3
# Si number density = 22.447460 Si / 1000 Ang^3
#
#
#
# Elastic Constant Matrix: (Units=GPa)
#
#
# Indices 1 2 3 4 5 6 
#
# 1 70.4016 46.2442 44.3851 0.0000 41.1977 0.0000
# 2 46.2442 191.2006 49.4270 0.0000 51.4940 0.0000
# 3 44.3851 49.4270 92.9734 0.0000 43.4164 0.0000
# 4 0.0000 0.0000 0.0000 107.4425 0.0000 23.5664
# 5 41.1977 51.4940 43.4164 0.0000 54.5753 0.0000
# 6 0.0000 0.0000 0.0000 23.5664 0.0000 18.0120
#
#
#
# Elastic Compliance Matrix: (Units=1/GPa)
#
#
# Indices 1 2 3 4 5 6 
#
# 1 0.027199 -0.001095 -0.005246 0.000000 -0.015326 0.000000
# 2 -0.001095 0.007117 -0.000813 0.000000 -0.005242 0.000000
# 3 -0.005246 -0.000813 0.018273 0.000000 -0.009810 0.000000
# 4 0.000000 0.000000 0.000000 0.013053 0.000000 -0.017079
# 5 -0.015326 -0.005242 -0.009810 0.000000 0.042642 0.000000
# 6 0.000000 0.000000 0.000000 -0.017079 0.000000 0.077863
#
#
# Mechanical properties :
#
#
# Convention : Reuss Voigt Hill
#
# Bulk Modulus (GPa) = 26.12227 70.52093 48.32160
# Shear Modulus (GPa) = 23.45039 50.30724 36.87881
#
# Velocity S-wave (km/s) = 3.23566 4.73917 4.05766
# Velocity P-wave (km/s) = 5.06178 7.83776 6.59743
#
# Compressibility (1/GPa) = 0.03828151
#
# Stress axis : x y z
#
# Youngs Moduli (GPa) = 36.76606 140.51305 54.72447
#
# Poissons Ratio (x) = 0.15383 0.28708
# Poissons Ratio (y) = 0.04025 0.04449
# Poissons Ratio (z) = 0.19287 0.11424
#
# Static dielectric constant tensor:
#      x y z
#    x 1.743710 0.000000 0.002360 
#    y 0.000000 1.788080 0.000000 
#    z 0.002360 0.000000 1.840630 
# 
# From -- ./inp_files/44874.got.cif
#   From: 2010.05.17/outbox.cif.g08.bks.cpg/sg15_23_cif.got.tgz:44874.got - 2010.06.03 18:47:42.
