data_PCOD9261743
_publ_section_title
;
Structure prediction by ZEFSAII (Michael W. Deem and Ramdas Pophale) SiO2 
 PCOD9261743
Probable space group: C 2/C
;
_chemical_formula_sum "Si O2"
_cell_formula_units_Z 64
_cell_length_a 15.024464
_cell_length_b 17.443334
_cell_length_c 24.138193
_cell_angle_alpha 90.000000
_cell_angle_beta 150.791337
_cell_angle_gamma 90.000000
_cell_volume 3087.063901
_symmetry_space_group_name_H-M "C 2/C"
_symmetry_group_IT_number 15
_symmetry_cell_setting 'monoclinic'
loop_
_space_group_symop_operation_xyz
x,y,z
-x,y,1/2-z
-x,-y,-z
x,-y,1/2+z
1/2+x,1/2+y,z
1/2-x,1/2+y,1/2-z
1/2-x,1/2-y,-z
1/2+x,1/2-y,1/2+z
loop_
_atom_site_type_symbol
_atom_site_label
_atom_site_fract_x
_atom_site_fract_y
_atom_site_fract_z
Si Si1 0.571877 0.668006 0.579707
Si Si2 0.185139 0.001233 0.966586
Si Si3 0.404251 0.217794 0.921347
Si Si4 0.560077 0.228081 0.175732
Si Si5 0.199235 0.003363 0.688430
Si Si6 0.498097 0.048102 0.558772
Si Si7 0.252584 0.657068 0.549116
Si Si8 0.699706 0.912035 0.866534
O O1 0.566701 0.721835 0.522715
O O2 0.622687 0.726626 0.655036
O O3 0.669761 0.587356 0.643382
O O4 0.358295 0.645321 0.471442
O O5 0.150557 0.078021 0.911775
O O6 0.308287 0.955654 0.989932
O O7 0.989610 0.976958 0.884821
O O8 0.298349 0.023525 0.083923
O O9 0.243053 0.270498 0.809509
O O10 0.459075 0.139139 0.921209
O O11 0.319460 0.179228 0.930359
O O12 0.404798 0.280644 0.118369
O O13 0.435933 0.157084 0.089279
O O14 0.350162 0.010799 0.818211
O O15 0.244454 0.948683 0.661693
O O16 0.500000 0.000000 0.500000
O O17 0.500000 0.877475 0.750000
#
# Coordination Sequence:
#
# PCOD9261743 Si02
#       8
#     8   8   8   8   8   8   8   8
#     4  10  21  36  59  86 127 160 203 261 318 367
#     4  11  21  39  61  90 129 166 211 256 313 376
#     4  11  22  35  55  86 128 169 203 251 308 386
#     4  10  19  31  51  82 125 161 197 250 322 373
#     4  11  23  43  63  94 128 163 209 272 316 370
#     4  12  24  40  62  94 131 174 210 250 314 389
#     4  10  19  32  51  85 124 166 199 249 317 382
#     4  11  22  38  67  97 121 160 214 268 323 374
#
# _framework density 20.731674000000002
#
# number of rings (size 3 to 8) (size 9 to 14) (size 15 to 20)
#    0.000    1.250    6.250    1.875    1.750    0.500 
#    0.000    0.000    0.000    3.000    3.250    0.000 
#    0.000    0.000    0.000    0.000    0.000    0.000 
#
# Total GULP energy -178283.364404 kJ/mol
# GULP energy per Si atom -5571.355138 kJ/mol
# Density = 2.068449 g / cm^3
# Si number density = 20.731674 Si / 1000 Ang^3
#
#
#
# Elastic Constant Matrix: (Units=GPa)
#
#
# Indices 1 2 3 4 5 6 
#
# 1 87.5699 28.2312 29.3395 0.0002 -1.7070 0.0001
# 2 28.2312 58.3099 17.5157 0.0006 4.6392 0.0002
# 3 29.3395 17.5157 85.4055 0.0016 -15.2092 0.0002
# 4 0.0002 0.0006 0.0016 19.9096 0.0001 -5.0015
# 5 -1.7070 4.6392 -15.2092 0.0001 26.6376 0.0000
# 6 0.0001 0.0002 0.0002 -5.0015 0.0000 30.1905
#
#
#
# Elastic Compliance Matrix: (Units=1/GPa)
#
#
# Indices 1 2 3 4 5 6 
#
# 1 0.014606 -0.005896 -0.003850 0.000000 -0.000236 0.000000
# 2 -0.005896 0.021537 -0.003481 0.000000 -0.006116 0.000000
# 3 -0.003850 -0.003481 0.015372 -0.000001 0.009137 0.000000
# 4 0.000000 0.000000 -0.000001 0.052408 -0.000001 0.008682
# 5 -0.000236 -0.006116 0.009137 -0.000001 0.043808 0.000000
# 6 0.000000 0.000000 0.000000 0.008682 0.000000 0.034561
#
#
# Mechanical properties :
#
#
# Convention : Reuss Voigt Hill
#
# Bulk Modulus (GPa) = 39.90292 42.38423 41.14358
# Shear Modulus (GPa) = 23.03099 25.76081 24.39590
#
# Velocity S-wave (km/s) = 3.33665 3.52885 3.43409
# Velocity P-wave (km/s) = 5.84238 6.09035 5.96765
#
# Compressibility (1/GPa) = 0.02506082
#
# Stress axis : x y z
#
# Youngs Moduli (GPa) = 68.46660 46.43279 65.05169
#
# Poissons Ratio (x) = 0.27377 0.25046
# Poissons Ratio (y) = 0.40369 0.22641
# Poissons Ratio (z) = 0.26361 0.16161
#
# Static dielectric constant tensor:
#      x y z
#    x 1.784950 0.000000 -0.057260 
#    y 0.000000 1.801050 0.000000 
#    z -0.057260 0.000000 1.804170 
# 
# From -- ./inp_files/155500.got.cif
#   From: 2010.05.17/outbox.cif.g08.bks.cpg/sg15_78_cif.got.tgz:155500.got - 2010.06.03 18:47:42.
