data_PCOD9261817
_publ_section_title
;
Structure prediction by ZEFSAII (Michael W. Deem and Ramdas Pophale) SiO2 
 PCOD9261817
Probable space group: C 2/C
;
_chemical_formula_sum "Si O2"
_cell_formula_units_Z 60
_cell_length_a 13.558032
_cell_length_b 21.919116
_cell_length_c 14.272766
_cell_angle_alpha 90.000000
_cell_angle_beta 38.360963
_cell_angle_gamma 90.000000
_cell_volume 2632.383649
_symmetry_space_group_name_H-M "C 2/C"
_symmetry_group_IT_number 15
_symmetry_cell_setting 'monoclinic'
loop_
_space_group_symop_operation_xyz
x,y,z
-x,y,1/2-z
-x,-y,-z
x,-y,1/2+z
1/2+x,1/2+y,z
1/2-x,1/2+y,1/2-z
1/2-x,1/2-y,-z
1/2+x,1/2-y,1/2+z
loop_
_atom_site_type_symbol
_atom_site_label
_atom_site_fract_x
_atom_site_fract_y
_atom_site_fract_z
Si Si1 0.316530 0.353377 0.865715
Si Si2 0.367230 0.592559 0.125685
Si Si3 0.646512 0.772718 0.210281
Si Si4 0.324505 0.725771 0.113816
Si Si5 0.000000 0.475487 0.250000
Si Si6 0.517423 0.819267 0.625035
Si Si7 0.221805 0.901089 0.407285
Si Si8 0.971151 0.545172 0.109388
O O1 0.500000 0.341050 0.750000
O O2 0.313105 0.386320 0.769956
O O3 0.255241 0.284724 0.904595
O O4 0.266203 0.394878 0.988549
O O5 0.370434 0.654783 0.061794
O O6 0.215915 0.549887 0.216387
O O7 0.552094 0.572809 0.999739
O O8 0.500000 0.788756 0.250000
O O9 0.592847 0.749559 0.352713
O O10 0.754717 0.831966 0.143415
O O11 0.140796 0.719233 0.278201
O O12 0.348220 0.774089 0.013603
O O13 0.115918 0.436625 0.229926
O O14 0.922313 0.519592 0.384637
O O15 0.500000 0.831489 0.750000
O O16 0.518388 0.883157 0.567713
O O17 0.000000 0.500000 0.000000
#
# Coordination Sequence:
#
# PCOD9261817 Si02
#       8
#     8   8   8   8   4   8   8   8
#     4   8  16  30  52  84 125 167 200 250 320 389
#     4   9  20  39  62  91 125 166 209 275 331 392
#     4  10  19  31  54  96 140 172 204 256 332 416
#     4  10  22  38  67 101 129 176 219 275 346 402
#     4  12  26  40  60  90 118 174 222 264 318 392
#     4  11  23  45  71  96 134 172 228 287 338 394
#     4  11  20  34  56  87 130 168 217 257 320 393
#     4  11  25  45  67  90 127 173 224 271 331 393
#
# _framework density 22.793030999999999
#
# number of rings (size 3 to 8) (size 9 to 14) (size 15 to 20)
#    0.000    1.867    1.333    3.200    1.867    3.733 
#    0.000    0.000    0.000    1.600    0.000    0.000 
#    0.000    0.000    0.000    0.000    0.000    0.000 
#
# Total GULP energy -167103.844646 kJ/mol
# GULP energy per Si atom -5570.128155 kJ/mol
# Density = 2.274115 g / cm^3
# Si number density = 22.793031 Si / 1000 Ang^3
#
#
#
# Elastic Constant Matrix: (Units=GPa)
#
#
# Indices 1 2 3 4 5 6 
#
# 1 81.5425 27.2699 12.1938 0.0012 -1.7050 0.0014
# 2 27.2699 94.1154 25.0911 -0.0009 -1.7978 0.0050
# 3 12.1938 25.0911 45.0978 -0.0016 -1.2854 0.0215
# 4 0.0012 -0.0009 -0.0016 25.5213 0.0005 -9.2206
# 5 -1.7050 -1.7978 -1.2854 0.0005 44.5073 -0.0063
# 6 0.0014 0.0050 0.0215 -9.2206 -0.0063 13.4721
#
#
#
# Elastic Compliance Matrix: (Units=1/GPa)
#
#
# Indices 1 2 3 4 5 6 
#
# 1 0.013702 -0.003497 -0.001749 0.000000 0.000333 0.000003
# 2 -0.003497 0.013373 -0.006488 0.000003 0.000219 0.000008
# 3 -0.001749 -0.006488 0.026269 -0.000017 0.000430 -0.000051
# 4 0.000000 0.000003 -0.000017 0.052055 0.000004 0.035627
# 5 0.000333 0.000219 0.000430 0.000004 0.022502 0.000012
# 6 0.000003 0.000008 -0.000051 0.035627 0.000012 0.098612
#
#
# Mechanical properties :
#
#
# Convention : Reuss Voigt Hill
#
# Bulk Modulus (GPa) = 33.47452 38.87390 36.17421
# Shear Modulus (GPa) = 19.23523 27.11354 23.17438
#
# Velocity S-wave (km/s) = 2.90816 3.45273 3.19208
# Velocity P-wave (km/s) = 5.09850 5.74346 5.43056
#
# Compressibility (1/GPa) = 0.02987347
#
# Stress axis : x y z
#
# Youngs Moduli (GPa) = 72.98357 74.78013 38.06743
#
# Poissons Ratio (x) = 0.26153 0.06660
# Poissons Ratio (y) = 0.25525 0.24699
# Poissons Ratio (z) = 0.12768 0.48519
#
# Static dielectric constant tensor:
#      x y z
#    x 1.585430 0.000110 -0.142810 
#    y 0.000110 1.960950 0.000060 
#    z -0.142810 0.000060 1.851330 
# 
# From -- ./inp_files/156363.got.cif
#   From: 2010.05.17/outbox.cif.g08.bks.cpg/sg15_79_cif.got.tgz:156363.got - 2010.06.03 18:47:42.
