data_PCOD9261539
_publ_section_title
;
Structure prediction by ZEFSAII (Michael W. Deem and Ramdas Pophale) SiO2 
 PCOD9261539
Probable space group: C 2/C
;
_chemical_formula_sum "Si O2"
_cell_formula_units_Z 64
_cell_length_a 7.651902
_cell_length_b 21.445454
_cell_length_c 21.664466
_cell_angle_alpha 90.000000
_cell_angle_beta 62.562732
_cell_angle_gamma 90.000000
_cell_volume 3155.213531
_symmetry_space_group_name_H-M "C 2/C"
_symmetry_group_IT_number 15
_symmetry_cell_setting 'monoclinic'
loop_
_space_group_symop_operation_xyz
x,y,z
-x,y,1/2-z
-x,-y,-z
x,-y,1/2+z
1/2+x,1/2+y,z
1/2-x,1/2+y,1/2-z
1/2-x,1/2-y,-z
1/2+x,1/2-y,1/2+z
loop_
_atom_site_type_symbol
_atom_site_label
_atom_site_fract_x
_atom_site_fract_y
_atom_site_fract_z
Si Si1 0.785598 0.517042 0.989813
Si Si2 0.538574 0.692648 0.941695
Si Si3 0.427588 0.448548 0.100086
Si Si4 0.685603 0.479414 0.766188
Si Si5 0.899661 0.314598 0.937699
Si Si6 0.532434 0.639248 0.175973
Si Si7 0.739915 0.163930 0.475768
Si Si8 0.062850 0.437600 0.873145
O O1 0.688226 0.518343 0.936901
O O2 0.988863 0.481586 0.940431
O O3 0.648247 0.475188 0.055844
O O4 0.767222 0.589485 0.010059
O O5 0.568847 0.625619 0.906617
O O6 0.507729 0.750475 0.899613
O O7 0.328682 0.691914 0.011017
O O8 0.702453 0.696530 0.969159
O O9 0.331671 0.470070 0.178642
O O10 0.500000 0.490981 0.750000
O O11 0.642707 0.410776 0.802515
O O12 0.888268 0.476666 0.695564
O O13 0.026405 0.323874 0.980381
O O14 0.924767 0.376836 0.893371
O O15 0.500000 0.668885 0.250000
O O16 0.592187 0.676272 0.104543
O O17 0.727628 0.596141 0.150039
#
# Coordination Sequence:
#
# PCOD9261539 Si02
#       8
#     8   8   8   8   8   8   8   8
#     4  10  19  30  51  85 110 138 175 236 293 323
#     4  10  21  35  53  82 115 151 181 227 277 330
#     4  10  19  33  51  79 115 142 177 226 288 339
#     4   9  18  32  49  78 105 143 179 229 291 335
#     4  10  20  34  54  83 112 145 189 224 266 332
#     4   8  16  29  47  77 111 138 180 225 284 332
#     4  10  19  33  55  80 113 142 185 233 280 331
#     4   9  18  31  49  81 106 136 185 227 274 328
#
# _framework density 20.283887
#
# number of rings (size 3 to 8) (size 9 to 14) (size 15 to 20)
#    0.000    2.750    2.500    0.375    0.000    4.500 
#    0.000    1.250    0.000    2.250   91.000    0.000 
#    0.000    0.000    0.000    0.000    0.000    0.000 
#
# Total GULP energy -178139.309692 kJ/mol
# GULP energy per Si atom -5566.853428 kJ/mol
# Density = 2.023772 g / cm^3
# Si number density = 20.283887 Si / 1000 Ang^3
#
#
#
# Elastic Constant Matrix: (Units=GPa)
#
#
# Indices 1 2 3 4 5 6 
#
# 1 49.4364 1.5386 5.0578 0.0000 -1.1652 0.0000
# 2 1.5386 89.5963 39.3352 0.0000 7.4325 0.0000
# 3 5.0578 39.3352 100.7156 0.0000 -7.9667 0.0000
# 4 0.0000 0.0000 0.0000 28.9550 0.0000 0.8605
# 5 -1.1652 7.4325 -7.9667 0.0000 22.2392 0.0000
# 6 0.0000 0.0000 0.0000 0.8605 0.0000 18.4838
#
#
#
# Elastic Compliance Matrix: (Units=1/GPa)
#
#
# Indices 1 2 3 4 5 6 
#
# 1 0.020344 0.000019 -0.000973 0.000000 0.000711 0.000000
# 2 0.000019 0.014474 -0.006213 0.000000 -0.007062 0.000000
# 3 -0.000973 -0.006213 0.012931 0.000000 0.006657 0.000000
# 4 0.000000 0.000000 0.000000 0.034584 0.000000 -0.001610
# 5 0.000711 -0.007062 0.006657 0.000000 0.049748 0.000000
# 6 0.000000 0.000000 0.000000 -0.001610 0.000000 0.054176
#
#
# Mechanical properties :
#
#
# Convention : Reuss Voigt Hill
#
# Bulk Modulus (GPa) = 29.92616 36.84571 33.38594
# Shear Modulus (GPa) = 23.61512 26.85671 25.23591
#
# Velocity S-wave (km/s) = 3.41578 3.64269 3.53106
# Velocity P-wave (km/s) = 5.50840 5.99138 5.75496
#
# Compressibility (1/GPa) = 0.03341558
#
# Stress axis : x y z
#
# Youngs Moduli (GPa) = 49.15526 69.08879 77.33503
#
# Poissons Ratio (x) = -0.00129 0.07522
# Poissons Ratio (y) = -0.00092 0.48045
# Poissons Ratio (z) = 0.04781 0.42922
#
# Static dielectric constant tensor:
#      x y z
#    x 1.845990 0.000000 0.047770 
#    y 0.000000 1.800680 0.000000 
#    z 0.047770 0.000000 1.782640 
# 
# From -- ./inp_files/265911.got.cif
#   From: 2010.05.17/outbox.cif.g08.bks.cpg/sg15_133_cif.got.tgz:265911.got - 2010.06.03 18:47:42.
