data_PCOD9261789
_publ_section_title
;
Structure prediction by ZEFSAII (Michael W. Deem and Ramdas Pophale) SiO2 
 PCOD9261789
Probable space group: C 2/C
;
_chemical_formula_sum "Si O2"
_cell_formula_units_Z 40
_cell_length_a 10.160609
_cell_length_b 17.611739
_cell_length_c 28.512844
_cell_angle_alpha 90.000000
_cell_angle_beta 154.604432
_cell_angle_gamma 90.000000
_cell_volume 2188.181702
_symmetry_space_group_name_H-M "C 2/C"
_symmetry_group_IT_number 15
_symmetry_cell_setting 'monoclinic'
loop_
_space_group_symop_operation_xyz
x,y,z
-x,y,1/2-z
-x,-y,-z
x,-y,1/2+z
1/2+x,1/2+y,z
1/2-x,1/2+y,1/2-z
1/2-x,1/2-y,-z
1/2+x,1/2-y,1/2+z
loop_
_atom_site_type_symbol
_atom_site_label
_atom_site_fract_x
_atom_site_fract_y
_atom_site_fract_z
Si Si1 0.669438 0.681515 0.120868
Si Si2 0.496959 0.584109 0.979026
Si Si3 0.783190 0.311619 0.952215
Si Si4 0.927174 0.687077 0.780211
Si Si5 0.228503 0.831830 0.465445
O O1 0.425164 0.642971 0.078166
O O2 0.000000 0.686157 0.250000
O O3 0.668989 0.635593 0.072630
O O4 0.527905 0.763012 0.061208
O O5 0.656140 0.603918 0.980720
O O6 0.148370 0.615694 0.861843
O O7 0.500000 0.500000 0.000000
O O8 0.542992 0.252305 0.851888
O O9 0.972597 0.345793 0.969973
O O10 0.566653 0.672545 0.663752
O O11 0.000000 0.710504 0.750000
O O12 0.250000 0.750000 0.500000
#
# Coordination Sequence:
#
# PCOD9261789 Si02
#       5
#     8   8   8   8   8
#     4  10  20  33  52  79 113 144 177 236 289 337
#     4  10  22  38  53  78 114 156 192 223 283 354
#     4  10  19  31  53  86 110 134 185 238 289 332
#     4   9  17  31  56  79 110 140 181 236 283 329
#     4  11  18  34  59  86 107 146 195 241 282 338
#
# _framework density 18.280017000000001
#
# number of rings (size 3 to 8) (size 9 to 14) (size 15 to 20)
#    0.000    2.000    6.000    1.200    0.000    2.400 
#    0.000    1.000    0.000    2.400    0.000    0.000 
#    0.000    0.000    0.000    0.000    0.000    0.000 
#
# Total GULP energy -111443.324219 kJ/mol
# GULP energy per Si atom -5572.166211 kJ/mol
# Density = 1.823841 g / cm^3
# Si number density = 18.280017 Si / 1000 Ang^3
#
#
#
# Elastic Constant Matrix: (Units=GPa)
#
#
# Indices 1 2 3 4 5 6 
#
# 1 109.1159 14.8278 37.6677 -0.0011 10.6433 0.0003
# 2 14.8278 27.8020 19.6411 -0.0030 1.4849 -0.0001
# 3 37.6677 19.6411 141.2905 -0.0059 -7.9290 0.0026
# 4 -0.0011 -0.0030 -0.0059 11.6370 0.0002 -5.5882
# 5 10.6433 1.4849 -7.9290 0.0002 24.5289 0.0024
# 6 0.0003 -0.0001 0.0026 -5.5882 0.0024 19.4611
#
#
#
# Elastic Compliance Matrix: (Units=1/GPa)
#
#
# Indices 1 2 3 4 5 6 
#
# 1 0.011162 -0.003701 -0.002771 -0.000001 -0.005515 0.000001
# 2 -0.003701 0.041560 -0.004931 0.000010 -0.002504 0.000004
# 3 -0.002771 -0.004931 0.008745 0.000002 0.004327 -0.000001
# 4 -0.000001 0.000010 0.000002 0.099677 -0.000003 0.028622
# 5 -0.005515 -0.002504 0.004327 -0.000003 0.044712 -0.000007
# 6 0.000001 0.000004 -0.000001 0.028622 -0.000007 0.059604
#
#
# Mechanical properties :
#
#
# Convention : Reuss Voigt Hill
#
# Bulk Modulus (GPa) = 25.86617 46.94242 36.40430
# Shear Modulus (GPa) = 16.60292 24.86351 20.73322
#
# Velocity S-wave (km/s) = 3.01700 3.69202 3.37144
# Velocity P-wave (km/s) = 5.13001 6.62647 5.92567
#
# Compressibility (1/GPa) = 0.03866054
#
# Stress axis : x y z
#
# Youngs Moduli (GPa) = 89.59040 24.06164 114.35592
#
# Poissons Ratio (x) = 0.08905 0.31685
# Poissons Ratio (y) = 0.33158 0.56391
# Poissons Ratio (z) = 0.24823 0.11865
#
# Static dielectric constant tensor:
#      x y z
#    x 1.708630 0.000040 0.006220 
#    y 0.000040 1.771300 0.000030 
#    z 0.006220 0.000030 1.639000 
# 
# From -- ./inp_files/77742.got.cif
#   From: 2010.05.17/outbox.cif.g08.bks.cpg/sg15_39_cif.got.tgz:77742.got - 2010.06.03 18:47:42.
