data_PCOD9261129
_publ_section_title
;
Structure prediction by ZEFSAII (Michael W. Deem and Ramdas Pophale) SiO2 
 PCOD9261129
Probable space group: C 2/C
;
_chemical_formula_sum "Si O2"
_cell_formula_units_Z 60
_cell_length_a 7.492264
_cell_length_b 28.812855
_cell_length_c 12.280397
_cell_angle_alpha 90.000000
_cell_angle_beta 104.181871
_cell_angle_gamma 90.000000
_cell_volume 2570.217360
_symmetry_space_group_name_H-M "C 2/C"
_symmetry_group_IT_number 15
_symmetry_cell_setting 'monoclinic'
loop_
_space_group_symop_operation_xyz
x,y,z
-x,y,1/2-z
-x,-y,-z
x,-y,1/2+z
1/2+x,1/2+y,z
1/2-x,1/2+y,1/2-z
1/2-x,1/2-y,-z
1/2+x,1/2-y,1/2+z
loop_
_atom_site_type_symbol
_atom_site_label
_atom_site_fract_x
_atom_site_fract_y
_atom_site_fract_z
Si Si1 0.684893 0.870793 0.658108
Si Si2 0.235210 0.002725 0.934303
Si Si3 0.829350 0.788561 0.809427
Si Si4 0.709878 0.186666 0.742478
Si Si5 0.655049 0.600247 0.862932
Si Si6 0.500000 0.442436 0.750000
Si Si7 0.434612 0.655369 0.988960
Si Si8 0.558347 0.949834 0.878124
O O1 0.693686 0.824423 0.730156
O O2 0.826285 0.907429 0.738771
O O3 0.783009 0.860088 0.556379
O O4 0.483685 0.894611 0.620771
O O5 0.264551 0.052511 0.880703
O O6 0.398316 0.967498 0.934366
O O7 0.262243 0.021765 0.060090
O O8 0.063126 0.976282 0.857021
O O9 0.751891 0.736750 0.804816
O O10 0.000000 0.785841 0.750000
O O11 0.922673 0.809826 0.931063
O O12 0.500000 0.185214 0.750000
O O13 0.738747 0.145689 0.660373
O O14 0.836811 0.177490 0.867942
O O15 0.500000 0.593028 0.750000
O O16 0.550478 0.611863 0.959826
O O17 0.500000 0.964672 0.750000
#
# Coordination Sequence:
#
# PCOD9261129 Si02
#       8
#     8   8   8   8   8   4   8   8
#     4  10  20  39  64  94 120 161 215 258 313 379
#     4  10  22  41  60  89 126 164 211 264 322 372
#     4   9  19  38  62  92 119 159 213 256 308 382
#     4  10  23  39  61  91 127 163 208 259 324 382
#     4  10  22  41  59  91 124 164 214 256 309 388
#     4  10  18  40  66  88 118 168 220 254 306 384
#     4  10  21  40  65  88 128 165 205 269 309 376
#     4  10  24  42  59  92 132 160 208 271 320 381
#
# _framework density 23.344331
#
# number of rings (size 3 to 8) (size 9 to 14) (size 15 to 20)
#    0.000    2.133    2.667    0.000    3.733    5.867 
#   12.000    7.333    0.000    0.000    0.000    0.000 
#    0.000    0.000    0.000    0.000    0.000    0.000 
#
# Total GULP energy -167357.892573 kJ/mol
# GULP energy per Si atom -5578.596419 kJ/mol
# Density = 2.329120 g / cm^3
# Si number density = 23.344331 Si / 1000 Ang^3
#
#
#
# Elastic Constant Matrix: (Units=GPa)
#
#
# Indices 1 2 3 4 5 6 
#
# 1 69.7533 15.7223 10.6627 0.0000 -2.3467 0.0000
# 2 15.7223 138.0922 23.8199 0.0000 1.0269 0.0000
# 3 10.6627 23.8199 92.1881 0.0000 3.8491 0.0000
# 4 0.0000 0.0000 0.0000 21.9241 0.0000 19.2580
# 5 -2.3467 1.0269 3.8491 0.0000 19.4561 0.0000
# 6 0.0000 0.0000 0.0000 19.2580 0.0000 40.8492
#
#
#
# Elastic Compliance Matrix: (Units=1/GPa)
#
#
# Indices 1 2 3 4 5 6 
#
# 1 0.014961 -0.001471 -0.001441 0.000000 0.002167 0.000000
# 2 -0.001471 0.007724 -0.001816 0.000000 -0.000226 0.000000
# 3 -0.001441 -0.001816 0.011582 0.000000 -0.002369 0.000000
# 4 0.000000 0.000000 0.000000 0.077851 0.000000 -0.036702
# 5 0.002167 -0.000226 -0.002369 0.000000 0.052140 0.000000
# 6 0.000000 0.000000 0.000000 -0.036702 0.000000 0.041783
#
#
# Mechanical properties :
#
#
# Convention : Reuss Voigt Hill
#
# Bulk Modulus (GPa) = 40.30434 44.49372 42.39903
# Shear Modulus (GPa) = 22.34467 33.10111 27.72289
#
# Velocity S-wave (km/s) = 3.09718 3.76965 3.44984
# Velocity P-wave (km/s) = 5.48568 6.16832 5.83699
#
# Compressibility (1/GPa) = 0.02481122
#
# Stress axis : x y z
#
# Youngs Moduli (GPa) = 66.84070 129.46712 86.33906
#
# Poissons Ratio (x) = 0.19044 0.12440
# Poissons Ratio (y) = 0.09832 0.15681
# Poissons Ratio (z) = 0.09631 0.23514
#
# Static dielectric constant tensor:
#      x y z
#    x 1.961670 0.000000 0.009640 
#    y 0.000000 1.896060 0.000000 
#    z 0.009640 0.000000 1.961110 
# 
# From -- ./inp_files/82650.got.cif
#   From: 2010.05.17/outbox.cif.g08.bks.cpg/sg15_42_cif.got.tgz:82650.got - 2010.06.03 18:47:42.
