data_PCOD9261112
_publ_section_title
;
Structure prediction by ZEFSAII (Michael W. Deem and Ramdas Pophale) SiO2 
 PCOD9261112
Probable space group: C 2/C
;
_chemical_formula_sum "Si O2"
_cell_formula_units_Z 60
_cell_length_a 22.389733
_cell_length_b 22.059570
_cell_length_c 11.484688
_cell_angle_alpha 90.000000
_cell_angle_beta 29.688311
_cell_angle_gamma 90.000000
_cell_volume 2809.423551
_symmetry_space_group_name_H-M "C 2/C"
_symmetry_group_IT_number 15
_symmetry_cell_setting 'monoclinic'
loop_
_space_group_symop_operation_xyz
x,y,z
-x,y,1/2-z
-x,-y,-z
x,-y,1/2+z
1/2+x,1/2+y,z
1/2-x,1/2+y,1/2-z
1/2-x,1/2-y,-z
1/2+x,1/2-y,1/2+z
loop_
_atom_site_type_symbol
_atom_site_label
_atom_site_fract_x
_atom_site_fract_y
_atom_site_fract_z
Si Si1 0.348582 0.360890 0.306152
Si Si2 0.873569 0.212897 0.526992
Si Si3 0.009004 0.573454 0.980298
Si Si4 0.768015 0.969468 0.287530
Si Si5 0.694382 0.154697 0.286499
Si Si6 0.270589 0.612520 0.557392
Si Si7 0.891343 0.093328 0.116118
Si Si8 0.500000 0.950176 0.750000
O O1 0.285566 0.420676 0.359772
O O2 0.266460 0.332478 0.544786
O O3 0.368994 0.316903 0.162370
O O4 0.476227 0.383865 0.139171
O O5 0.855195 0.283980 0.574089
O O6 0.776712 0.177678 0.610006
O O7 0.000000 0.200702 0.250000
O O8 0.141573 0.595841 0.720751
O O9 0.000000 0.500000 0.000000
O O10 0.908945 0.606568 0.073493
O O11 0.997905 0.589635 0.136551
O O12 0.790233 0.936143 0.127250
O O13 0.625842 0.986937 0.532555
O O14 0.861974 0.022995 0.145325
O O15 0.790753 0.126940 0.211265
O O16 0.368648 0.606749 0.290677
#
# Coordination Sequence:
#
# PCOD9261112 Si02
#       8
#     8   8   8   8   8   8   8   4
#     4  11  24  49  67  99 142 184 233 282 350 424
#     4  11  25  50  73  97 136 183 244 295 347 417
#     4  11  23  42  68 103 142 174 232 293 357 420
#     4  10  22  39  72 101 140 183 228 286 349 425
#     4  12  27  43  71 104 134 189 235 295 344 416
#     4  10  24  43  69 102 136 187 229 285 360 411
#     4  12  25  42  68 104 146 181 224 284 353 428
#     4  10  18  40  64  94 142 176 222 280 340 416
#
# _framework density 21.356694999999998
#
# number of rings (size 3 to 8) (size 9 to 14) (size 15 to 20)
#    0.000    1.067    2.667    3.600    3.733    1.600 
#    2.400    1.333    0.000    0.000    0.000    0.000 
#    0.000    0.000    0.000    0.000    0.000    0.000 
#
# Total GULP energy -167773.610710 kJ/mol
# GULP energy per Si atom -5592.453690 kJ/mol
# Density = 2.130809 g / cm^3
# Si number density = 21.356695 Si / 1000 Ang^3
#
#
#
# Elastic Constant Matrix: (Units=GPa)
#
#
# Indices 1 2 3 4 5 6 
#
# 1 95.2521 35.6830 15.1307 -0.0006 -9.9519 0.0009
# 2 35.6830 94.1203 21.8121 0.0000 -7.6573 0.0011
# 3 15.1307 21.8121 60.1168 -0.0015 -6.4744 0.0005
# 4 -0.0006 0.0000 -0.0015 10.0082 0.0007 -5.0640
# 5 -9.9519 -7.6573 -6.4744 0.0007 43.3434 -0.0010
# 6 0.0009 0.0011 0.0005 -5.0640 -0.0010 -8.4634
#
#
#
# Elastic Compliance Matrix: (Units=1/GPa)
#
#
# Indices 1 2 3 4 5 6 
#
# 1 0.012518 -0.004267 -0.001397 0.000001 0.001912 0.000000
# 2 -0.004267 0.013144 -0.003609 0.000000 0.000803 0.000001
# 3 -0.001397 -0.003609 0.018489 0.000002 0.001804 -0.000001
# 4 0.000001 0.000000 0.000002 0.076698 -0.000002 -0.045891
# 5 0.001912 0.000803 0.001804 -0.000002 0.023922 -0.000001
# 6 0.000000 0.000001 -0.000001 -0.045891 -0.000001 -0.090697
#
#
# Mechanical properties :
#
#
# Convention : Reuss Voigt Hill
#
# Bulk Modulus (GPa) = 39.05090 43.86008 41.45549
# Shear Modulus (GPa) = 61.61078 20.76854 41.18966
#
# Velocity S-wave (km/s) = 5.37690 3.12181 4.39641
# Velocity P-wave (km/s) = 7.54141 5.79446 6.72491
#
# Compressibility (1/GPa) = 0.02560760
#
# Stress axis : x y z
#
# Youngs Moduli (GPa) = 79.88188 76.08047 54.08515
#
# Poissons Ratio (x) = 0.32462 0.07554
# Poissons Ratio (y) = 0.34084 0.19517
# Poissons Ratio (z) = 0.11157 0.27454
#
# Static dielectric constant tensor:
#      x y z
#    x 1.783410 0.000000 0.003530 
#    y 0.000000 1.757870 0.000000 
#    z 0.003530 0.000000 1.791010 
# 
# From -- ./inp_files/119947.got.cif
#   From: 2010.05.17/outbox.cif.g08.bks.cpg/sg15_60_cif.got.tgz:119947.got - 2010.06.03 18:47:42.
