data_PCOD9261842
_publ_section_title
;
Structure prediction by ZEFSAII (Michael W. Deem and Ramdas Pophale) SiO2 
 PCOD9261842
Probable space group: C 2/C
;
_chemical_formula_sum "Si O2"
_cell_formula_units_Z 40
_cell_length_a 21.968734
_cell_length_b 7.716563
_cell_length_c 9.263331
_cell_angle_alpha 90.000000
_cell_angle_beta 80.687740
_cell_angle_gamma 90.000000
_cell_volume 1549.653325
_symmetry_space_group_name_H-M "C 2/C"
_symmetry_group_IT_number 15
_symmetry_cell_setting 'monoclinic'
loop_
_space_group_symop_operation_xyz
x,y,z
-x,y,1/2-z
-x,-y,-z
x,-y,1/2+z
1/2+x,1/2+y,z
1/2-x,1/2+y,1/2-z
1/2-x,1/2-y,-z
1/2+x,1/2-y,1/2+z
loop_
_atom_site_type_symbol
_atom_site_label
_atom_site_fract_x
_atom_site_fract_y
_atom_site_fract_z
Si Si1 0.081959 0.171519 0.966572
Si Si2 0.500000 0.734693 0.750000
Si Si3 0.918607 0.408360 0.028549
Si Si4 0.780839 0.529830 0.547865
Si Si5 0.000000 0.776485 0.750000
Si Si6 0.714985 0.642611 0.828246
O O1 0.082523 0.382517 0.963045
O O2 0.147776 0.089863 0.910449
O O3 0.038741 0.127407 0.850269
O O4 0.050835 0.132361 0.129622
O O5 0.547196 0.844663 0.630439
O O6 0.845439 0.372556 0.049009
O O7 0.957063 0.330119 0.148947
O O8 0.727049 0.628291 0.654083
O O9 0.765274 0.474893 0.391265
O O10 0.780127 0.339402 0.621563
#
# Coordination Sequence:
#
# PCOD9261842 Si02
#       6
#     8   4   8   8   4   8
#     4  10  19  34  58  88 124 153 205 258 311 365
#     4  10  19  34  56  97 122 159 202 265 310 357
#     4  10  19  31  57  89 129 150 203 257 316 360
#     4  10  24  41  64  93 125 169 210 257 312 372
#     4  10  19  32  58  95 122 161 196 263 318 353
#     4  10  24  43  63  91 127 167 213 258 309 372
#
# _framework density 25.812225999999999
#
# number of rings (size 3 to 8) (size 9 to 14) (size 15 to 20)
#    0.000    2.000    0.000    4.800   14.000    0.800 
#    0.000    0.000    0.000    3.600    0.000    0.000 
#    0.000    0.000    0.000    0.000    0.000    0.000 
#
# Total GULP energy -111910.742033 kJ/mol
# GULP energy per Si atom -5595.537102 kJ/mol
# Density = 2.575348 g / cm^3
# Si number density = 25.812226 Si / 1000 Ang^3
#
#
#
# Elastic Constant Matrix: (Units=GPa)
#
#
# Indices 1 2 3 4 5 6 
#
# 1 141.6820 30.8534 48.0269 0.0000 -21.1210 0.0000
# 2 30.8534 59.2841 28.6001 0.0000 -2.0030 0.0000
# 3 48.0269 28.6001 175.8856 0.0000 -10.8416 0.0000
# 4 0.0000 0.0000 0.0000 78.2653 0.0000 -20.0767
# 5 -21.1210 -2.0030 -10.8416 0.0000 35.5960 0.0000
# 6 0.0000 0.0000 0.0000 -20.0767 0.0000 29.9639
#
#
#
# Elastic Compliance Matrix: (Units=1/GPa)
#
#
# Indices 1 2 3 4 5 6 
#
# 1 0.009132 -0.003831 -0.001579 0.000000 0.004722 0.000000
# 2 -0.003831 0.019911 -0.002306 0.000000 -0.001855 0.000000
# 3 -0.001579 -0.002306 0.006549 0.000000 0.000928 0.000000
# 4 0.000000 0.000000 0.000000 0.015429 0.000000 0.010338
# 5 0.004722 -0.001855 0.000928 0.000000 0.031073 0.000000
# 6 0.000000 0.000000 0.000000 0.010338 0.000000 0.040300
#
#
# Mechanical properties :
#
#
# Convention : Reuss Voigt Hill
#
# Bulk Modulus (GPa) = 49.60508 65.75697 57.68102
# Shear Modulus (GPa) = 34.59100 46.72313 40.65706
#
# Velocity S-wave (km/s) = 3.66471 4.25916 3.97307
# Velocity P-wave (km/s) = 6.09641 7.05108 6.59105
#
# Compressibility (1/GPa) = 0.02015923
#
# Stress axis : x y z
#
# Youngs Moduli (GPa) = 109.51031 50.22240 152.69597
#
# Poissons Ratio (x) = 0.19239 0.24118
# Poissons Ratio (y) = 0.41952 0.35212
# Poissons Ratio (z) = 0.17297 0.11581
#
# Static dielectric constant tensor:
#      x y z
#    x 2.071600 0.000000 0.011780 
#    y 0.000000 2.187080 0.000000 
#    z 0.011780 0.000000 1.948740 
# 
# From -- ./inp_files/60045.got.cif
#   From: 2010.05.17/outbox.cif.g08.bks.cpg/sg15_31_cif.got.tgz:60045.got - 2010.06.03 18:47:42.
