data_PCOD9261059
_publ_section_title
;
Structure prediction by ZEFSAII (Michael W. Deem and Ramdas Pophale) SiO2 
 PCOD9261059
Probable space group: C 2/C
;
_chemical_formula_sum "Si O2"
_cell_formula_units_Z 48
_cell_length_a 23.428838
_cell_length_b 17.382024
_cell_length_c 17.524748
_cell_angle_alpha 90.000000
_cell_angle_beta 21.372938
_cell_angle_gamma 90.000000
_cell_volume 2600.909992
_symmetry_space_group_name_H-M "C 2/C"
_symmetry_group_IT_number 15
_symmetry_cell_setting 'monoclinic'
loop_
_space_group_symop_operation_xyz
x,y,z
-x,y,1/2-z
-x,-y,-z
x,-y,1/2+z
1/2+x,1/2+y,z
1/2-x,1/2+y,1/2-z
1/2-x,1/2-y,-z
1/2+x,1/2-y,1/2+z
loop_
_atom_site_type_symbol
_atom_site_label
_atom_site_fract_x
_atom_site_fract_y
_atom_site_fract_z
Si Si1 0.029509 0.074023 0.125574
Si Si2 0.994533 0.818853 0.991409
Si Si3 0.339728 0.020393 0.243868
Si Si4 0.871971 0.036788 0.717469
Si Si5 0.962871 0.539220 0.882041
Si Si6 0.325218 0.162992 0.161181
O O1 0.000000 0.096706 0.250000
O O2 0.999432 0.139500 0.099467
O O3 0.921264 0.001081 0.236264
O O4 0.206047 0.042553 0.897051
O O5 0.894227 0.873602 0.173147
O O6 0.914105 0.736912 0.081704
O O7 0.167882 0.815528 0.811367
O O8 0.286235 0.102007 0.277062
O O9 0.398295 0.013318 0.257388
O O10 0.500000 0.000000 0.000000
O O11 0.000000 0.000000 0.500000
O O12 0.700565 0.006826 0.910110
O O13 0.000000 0.560413 0.750000
O O14 0.936781 0.615513 0.964561
#
# Coordination Sequence:
#
# PCOD9261059 Si02
#       6
#     8   8   8   8   8   8
#     4  11  21  38  63  88 113 152 195 242 298 346
#     4  11  23  38  61  85 120 156 196 238 291 347
#     4  10  21  37  61  86 114 154 205 237 276 345
#     4  10  18  40  62  80 115 158 201 237 277 344
#     4  11  22  38  62  93 122 147 191 249 296 341
#     4  11  23  39  58  88 119 158 194 239 286 351
#
# _framework density 18.455079999999999
#
# number of rings (size 3 to 8) (size 9 to 14) (size 15 to 20)
#    0.000    1.333    5.000    4.000    7.000    0.667 
#    0.000    1.667    0.000    6.000    0.000    0.000 
#    0.000    0.000    0.000    0.000    0.000    0.000 
#
# Total GULP energy -133869.763826 kJ/mol
# GULP energy per Si atom -5577.906826 kJ/mol
# Density = 1.841308 g / cm^3
# Si number density = 18.455080 Si / 1000 Ang^3
#
#
#
# Elastic Constant Matrix: (Units=GPa)
#
#
# Indices 1 2 3 4 5 6 
#
# 1 42.4981 18.7247 0.1906 0.0005 -48.0594 -0.0012
# 2 18.7247 88.8512 22.8399 -0.0003 -21.1719 -0.0001
# 3 0.1906 22.8399 62.8421 -0.0015 -32.1521 -0.0001
# 4 0.0005 -0.0003 -0.0015 20.9445 0.0008 -11.2728
# 5 -48.0594 -21.1719 -32.1521 0.0008 29.1814 -0.0005
# 6 -0.0012 -0.0001 -0.0001 -11.2728 -0.0005 31.3493
#
#
#
# Elastic Compliance Matrix: (Units=1/GPa)
#
#
# Indices 1 2 3 4 5 6 
#
# 1 -0.007035 -0.001635 -0.013566 0.000000 -0.027719 -0.000001
# 2 -0.001635 0.013229 -0.002912 0.000000 0.003697 0.000000
# 3 -0.013566 -0.002912 0.010315 0.000001 -0.013090 0.000000
# 4 0.000000 0.000000 0.000001 0.059204 0.000000 0.021289
# 5 -0.027719 0.003697 -0.013090 0.000000 -0.023123 -0.000002
# 6 -0.000001 0.000000 0.000000 0.021289 -0.000002 0.039554
#
#
# Mechanical properties :
#
#
# Convention : Reuss Voigt Hill
#
# Bulk Modulus (GPa) = -50.71692 30.85576 -9.93058
# Shear Modulus (GPa) = 41.05171 26.45743 33.75457
#
# Velocity S-wave (km/s) = 4.72148 3.79041 4.28134
# Velocity P-wave (km/s) = 1.47725 5.99266 4.36430
#
# Compressibility (1/GPa) = -0.01971728
#
# Stress axis : x y z
#
# Youngs Moduli (GPa) = -142.15630 75.59317 96.94564
#
# Poissons Ratio (x) = 0.12361 1.31519
# Poissons Ratio (y) = -0.23246 0.28228
# Poissons Ratio (z) = -1.92853 0.22011
#
# Static dielectric constant tensor:
#      x y z
#    x 1.720060 0.000000 0.003410 
#    y 0.000000 1.640660 0.000000 
#    z 0.003410 0.000000 1.643490 
# 
# From -- ./inp_files/206515.got.cif
#   From: 2010.05.17/outbox.cif.g08.bks.cpg/sg15_104_cif.got.tgz:206515.got - 2010.06.03 18:47:42.
