data_PCOD9261135
_publ_section_title
;
Structure prediction by ZEFSAII (Michael W. Deem and Ramdas Pophale) SiO2 
 PCOD9261135
Probable space group: C 2/C
;
_chemical_formula_sum "Si O2"
_cell_formula_units_Z 44
_cell_length_a 11.040410
_cell_length_b 10.375222
_cell_length_c 24.002314
_cell_angle_alpha 90.000000
_cell_angle_beta 129.828510
_cell_angle_gamma 90.000000
_cell_volume 2111.431964
_symmetry_space_group_name_H-M "C 2/C"
_symmetry_group_IT_number 15
_symmetry_cell_setting 'monoclinic'
loop_
_space_group_symop_operation_xyz
x,y,z
-x,y,1/2-z
-x,-y,-z
x,-y,1/2+z
1/2+x,1/2+y,z
1/2-x,1/2+y,1/2-z
1/2-x,1/2-y,-z
1/2+x,1/2-y,1/2+z
loop_
_atom_site_type_symbol
_atom_site_label
_atom_site_fract_x
_atom_site_fract_y
_atom_site_fract_z
Si Si1 0.596008 0.086920 0.449723
Si Si2 0.728392 0.738454 0.087557
Si Si3 0.075870 0.297498 0.440127
Si Si4 0.412867 0.164661 0.779366
Si Si5 0.500000 0.239052 0.250000
Si Si6 0.692811 0.098848 0.211121
O O1 0.672892 0.167960 0.521657
O O2 0.702064 0.114723 0.425202
O O3 0.421838 0.120020 0.375585
O O4 0.579235 0.941665 0.464575
O O5 0.569846 0.718052 0.076760
O O6 0.867141 0.797197 0.168216
O O7 0.250000 0.250000 0.500000
O O8 0.039606 0.314364 0.364689
O O9 0.500000 0.116737 0.750000
O O10 0.336792 0.304078 0.745499
O O11 0.295221 0.053969 0.770340
O O12 0.605903 0.155815 0.239651
#
# Coordination Sequence:
#
# PCOD9261135 Si02
#       6
#     8   8   8   8   4   8
#     4   9  22  41  64  91 126 169 212 268 320 380
#     4  10  20  41  64  92 123 171 215 258 325 384
#     4  11  24  41  61  92 132 168 207 271 328 379
#     4  11  24  44  65  98 131 172 219 272 329 385
#     4  10  18  40  66  90 126 170 214 268 326 380
#     4  10  21  43  67  92 131 171 214 278 322 384
#
# _framework density 20.838939
#
# number of rings (size 3 to 8) (size 9 to 14) (size 15 to 20)
#    0.000    1.818    2.727    0.545    2.545    0.727 
#   11.455    0.000    0.000    0.000    0.000    0.000 
#    0.000    0.000    0.000    0.000    0.000    0.000 
#
# Total GULP energy -122497.825471 kJ/mol
# GULP energy per Si atom -5568.082976 kJ/mol
# Density = 2.079151 g / cm^3
# Si number density = 20.838939 Si / 1000 Ang^3
#
#
#
# Elastic Constant Matrix: (Units=GPa)
#
#
# Indices 1 2 3 4 5 6 
#
# 1 78.8401 12.9742 27.5674 0.0000 3.9969 0.0000
# 2 12.9742 67.7322 43.2448 0.0000 15.6840 0.0000
# 3 27.5674 43.2448 115.5172 0.0000 -0.2789 0.0000
# 4 0.0000 0.0000 0.0000 17.2734 0.0000 12.6811
# 5 3.9969 15.6840 -0.2789 0.0000 32.2189 0.0000
# 6 0.0000 0.0000 0.0000 12.6811 0.0000 17.2468
#
#
#
# Elastic Compliance Matrix: (Units=1/GPa)
#
#
# Indices 1 2 3 4 5 6 
#
# 1 0.013939 -0.000211 -0.003252 0.000000 -0.001655 0.000000
# 2 -0.000211 0.022831 -0.008524 0.000000 -0.011162 0.000000
# 3 -0.003252 -0.008524 0.012635 0.000000 0.004662 0.000000
# 4 0.000000 0.000000 0.000000 0.125796 0.000000 -0.092494
# 5 -0.001655 -0.011162 0.004662 0.000000 0.036717 0.000000
# 6 0.000000 0.000000 0.000000 -0.092494 0.000000 0.125990
#
#
# Mechanical properties :
#
#
# Convention : Reuss Voigt Hill
#
# Bulk Modulus (GPa) = 39.31886 47.74027 43.52956
# Shear Modulus (GPa) = 13.50046 25.23470 19.36758
#
# Velocity S-wave (km/s) = 2.54805 3.48363 3.05190
# Velocity P-wave (km/s) = 5.25030 6.25618 5.77518
#
# Compressibility (1/GPa) = 0.02543309
#
# Stress axis : x y z
#
# Youngs Moduli (GPa) = 71.73883 43.79997 79.14627
#
# Poissons Ratio (x) = 0.00924 0.25735
# Poissons Ratio (y) = 0.01513 0.67461
# Poissons Ratio (z) = 0.23327 0.37333
#
# Static dielectric constant tensor:
#      x y z
#    x 1.773970 0.000000 -0.043860 
#    y 0.000000 1.769110 0.000000 
#    z -0.043860 0.000000 1.712250 
# 
# From -- ./inp_files/268575.got.cif
#   From: 2010.05.17/outbox.cif.g08.bks.cpg/sg15_135_cif.got.tgz:268575.got - 2010.06.03 18:47:42.
