data_PCOD9261866
_publ_section_title
;
Structure prediction by ZEFSAII (Michael W. Deem and Ramdas Pophale) SiO2 
 PCOD9261866
Probable space group: C 2/C
;
_chemical_formula_sum "Si O2"
_cell_formula_units_Z 56
_cell_length_a 18.142770
_cell_length_b 17.471143
_cell_length_c 12.877143
_cell_angle_alpha 90.000000
_cell_angle_beta 44.784034
_cell_angle_gamma 90.000000
_cell_volume 2875.320457
_symmetry_space_group_name_H-M "C 2/C"
_symmetry_group_IT_number 15
_symmetry_cell_setting 'monoclinic'
loop_
_space_group_symop_operation_xyz
x,y,z
-x,y,1/2-z
-x,-y,-z
x,-y,1/2+z
1/2+x,1/2+y,z
1/2-x,1/2+y,1/2-z
1/2-x,1/2-y,-z
1/2+x,1/2-y,1/2+z
loop_
_atom_site_type_symbol
_atom_site_label
_atom_site_fract_x
_atom_site_fract_y
_atom_site_fract_z
Si Si1 0.878397 0.844818 0.252942
Si Si2 0.750000 0.750000 0.216447
Si Si3 0.679451 0.942412 0.457111
Si Si4 0.820549 0.442412 0.816013
Si Si5 0.878397 0.844818 0.490263
Si Si6 0.618747 0.112523 0.798148
Si Si7 0.881253 0.612523 0.035642
O O1 0.835507 0.787360 0.208721
O O2 0.800625 0.917619 0.324701
O O3 0.867260 0.814307 0.382740
O O4 1.000000 0.862831 0.115169
O O5 0.664493 0.712640 0.379735
O O6 0.694084 0.815832 0.206358
O O7 0.805916 0.684168 0.094525
O O8 0.621032 0.902396 0.420483
O O9 0.643486 0.916172 0.606514
O O10 0.661912 0.032917 0.465967
O O11 0.838088 0.532917 0.789790
O O12 0.878968 0.402396 0.662547
O O13 0.699375 0.417619 0.925951
O O14 0.500000 0.124997 0.882672
#
# Coordination Sequence:
#
# PCOD9261866 Si02
#       7
#     8   8   8   8   8   8   8
#     4   9  17  30  49  72  97 125 157 197 245 289
#     4  10  19  32  45  68 100 130 158 194 234 284
#     4   9  18  33  52  73  96 123 160 202 239 279
#     4   9  18  33  52  73  96 123 160 202 239 279
#     4   9  17  30  49  72  97 125 157 197 245 289
#     4  10  20  33  50  73  98 125 160 198 237 285
#     4  10  20  33  50  73  98 125 160 198 237 285
#
# _framework density 19.476091
#
# number of rings (size 3 to 8) (size 9 to 14) (size 15 to 20)
#    0.000    2.571    0.000    3.000    0.000    3.429 
#    0.000   13.571    0.000    0.000    0.000    0.000 
#    0.000    0.000    0.000    0.000    0.000    0.000 
#
# Total GULP energy -156165.054976 kJ/mol
# GULP energy per Si atom -5577.323392 kJ/mol
# Density = 1.943176 g / cm^3
# Si number density = 19.476091 Si / 1000 Ang^3
#
#
#
# Elastic Constant Matrix: (Units=GPa)
#
#
# Indices 1 2 3 4 5 6 
#
# 1 48.0130 3.0444 23.5535 0.0000 -13.6724 0.0000
# 2 3.0444 81.3250 6.9594 0.0000 -19.9130 0.0000
# 3 23.5535 6.9594 54.2841 0.0000 -18.2247 0.0000
# 4 0.0000 0.0000 0.0000 8.9556 0.0000 -4.9175
# 5 -13.6724 -19.9130 -18.2247 0.0000 36.7284 0.0000
# 6 0.0000 0.0000 0.0000 -4.9175 0.0000 7.9888
#
#
#
# Elastic Compliance Matrix: (Units=1/GPa)
#
#
# Indices 1 2 3 4 5 6 
#
# 1 0.027357 0.001278 -0.010058 0.000000 0.005886 0.000000
# 2 0.001278 0.014276 0.000448 0.000000 0.008438 0.000000
# 3 -0.010058 0.000448 0.025861 0.000000 0.009331 0.000000
# 4 0.000000 0.000000 0.000000 0.168673 0.000000 0.103826
# 5 0.005886 0.008438 0.009331 0.000000 0.038623 0.000000
# 6 0.000000 0.000000 0.000000 0.103826 0.000000 0.189086
#
#
# Mechanical properties :
#
#
# Convention : Reuss Voigt Hill
#
# Bulk Modulus (GPa) = 19.67320 27.85964 23.76642
# Shear Modulus (GPa) = 10.05062 20.73889 15.39475
#
# Velocity S-wave (km/s) = 2.27414 3.26673 2.81453
# Velocity P-wave (km/s) = 4.12538 5.34455 4.77404
#
# Compressibility (1/GPa) = 0.05083058
#
# Stress axis : x y z
#
# Youngs Moduli (GPa) = 36.55407 70.04617 38.66849
#
# Poissons Ratio (x) = -0.08950 0.38892
# Poissons Ratio (y) = -0.04671 -0.01733
# Poissons Ratio (z) = 0.36765 -0.03140
#
# Static dielectric constant tensor:
#      x y z
#    x 1.694720 0.000000 0.021740 
#    y 0.000000 1.677640 0.000000 
#    z 0.021740 0.000000 1.690440 
# 
# From -- ./inp_files/168443.got.cif
#   From: 2010.05.17/outbox.cif.g08.bks.cpg/sg15_85_cif.got.tgz:168443.got - 2010.06.03 18:47:42.
