data_PCOD9261572
_publ_section_title
;
Structure prediction by ZEFSAII (Michael W. Deem and Ramdas Pophale) SiO2 
 PCOD9261572
Probable space group: C 2/C
;
_chemical_formula_sum "Si O2"
_cell_formula_units_Z 60
_cell_length_a 23.537190
_cell_length_b 18.231461
_cell_length_c 15.073255
_cell_angle_alpha 90.000000
_cell_angle_beta 149.945952
_cell_angle_gamma 90.000000
_cell_volume 3239.380365
_symmetry_space_group_name_H-M "C 2/C"
_symmetry_group_IT_number 15
_symmetry_cell_setting 'monoclinic'
loop_
_space_group_symop_operation_xyz
x,y,z
-x,y,1/2-z
-x,-y,-z
x,-y,1/2+z
1/2+x,1/2+y,z
1/2-x,1/2+y,1/2-z
1/2-x,1/2-y,-z
1/2+x,1/2-y,1/2+z
loop_
_atom_site_type_symbol
_atom_site_label
_atom_site_fract_x
_atom_site_fract_y
_atom_site_fract_z
Si Si1 0.713995 0.105214 0.058081
Si Si2 0.626897 0.004858 0.788301
Si Si3 0.643248 0.266200 0.793679
Si Si4 0.846474 0.345469 0.672296
Si Si5 0.860076 0.492255 0.401662
Si Si6 0.095950 0.326548 0.062283
Si Si7 0.000000 0.289304 0.250000
Si Si8 0.376393 0.720726 0.563497
O O1 0.826455 0.155221 0.207614
O O2 0.713026 0.043445 0.132940
O O3 0.605477 0.159424 0.921739
O O4 0.689127 0.065696 0.930255
O O5 0.650939 0.926280 0.865021
O O6 0.490760 0.014957 0.600648
O O7 0.662082 0.997282 0.733060
O O8 0.636535 0.202894 0.711166
O O9 0.537081 0.259225 0.715902
O O10 0.750000 0.250000 0.000000
O O11 0.731425 0.331039 0.569990
O O12 0.860739 0.284743 0.615745
O O13 0.960276 0.339315 0.884520
O O14 0.853727 0.403912 0.402912
O O15 0.120469 0.262518 0.025318
O O16 0.500000 0.686419 0.750000
#
# Coordination Sequence:
#
# PCOD9261572 Si02
#       8
#     8   8   8   8   8   8   4   8
#     4  11  20  35  56  83 113 154 193 243 302 350
#     4  10  19  31  52  81 113 143 190 236 301 339
#     4  10  23  35  54  81 117 160 201 232 293 349
#     4   9  19  32  56  84 111 148 183 237 300 342
#     4  10  19  30  54  80 114 144 185 247 298 338
#     4  10  20  34  53  84 118 144 196 240 292 344
#     4  10  20  36  52  74 116 148 198 246 284 342
#     4   9  18  34  54  83 112 143 184 230 292 355
#
# _framework density 18.522061999999998
#
# number of rings (size 3 to 8) (size 9 to 14) (size 15 to 20)
#    0.000    2.133    1.333    2.400    5.600    3.200 
#    0.000    0.000    1.467    0.000    0.000    8.400 
#    0.000    0.000    0.000    0.000    0.000    0.000 
#
# Total GULP energy -167294.642601 kJ/mol
# GULP energy per Si atom -5576.488087 kJ/mol
# Density = 1.847991 g / cm^3
# Si number density = 18.522062 Si / 1000 Ang^3
#
#
#
# Elastic Constant Matrix: (Units=GPa)
#
#
# Indices 1 2 3 4 5 6 
#
# 1 96.8545 46.3770 30.3942 0.0000 0.7794 0.0000
# 2 46.3770 91.6506 34.1283 0.0000 1.5461 0.0000
# 3 30.3942 34.1283 43.5904 0.0000 0.1600 0.0000
# 4 0.0000 0.0000 0.0000 22.7995 0.0000 2.1037
# 5 0.7794 1.5461 0.1600 0.0000 24.9180 0.0000
# 6 0.0000 0.0000 0.0000 2.1037 0.0000 36.1608
#
#
#
# Elastic Compliance Matrix: (Units=1/GPa)
#
#
# Indices 1 2 3 4 5 6 
#
# 1 0.014748 -0.005126 -0.006269 0.000000 -0.000103 0.000000
# 2 -0.005126 0.017202 -0.009891 0.000000 -0.000843 0.000000
# 3 -0.006269 -0.009891 0.035054 0.000000 0.000585 0.000000
# 4 0.000000 0.000000 0.000000 0.044097 0.000000 -0.002565
# 5 -0.000103 -0.000843 0.000585 0.000000 0.040183 0.000000
# 6 0.000000 0.000000 0.000000 -0.002565 0.000000 0.027804
#
#
# Mechanical properties :
#
#
# Convention : Reuss Voigt Hill
#
# Bulk Modulus (GPa) = 40.93107 50.43272 45.68190
# Shear Modulus (GPa) = 21.75769 24.85537 23.30653
#
# Velocity S-wave (km/s) = 3.43109 3.66722 3.55112
# Velocity P-wave (km/s) = 6.15167 6.72450 6.44445
#
# Compressibility (1/GPa) = 0.02443132
#
# Stress axis : x y z
#
# Youngs Moduli (GPa) = 67.80764 58.13167 28.52777
#
# Poissons Ratio (x) = 0.29801 0.17884
# Poissons Ratio (y) = 0.34761 0.28216
# Poissons Ratio (z) = 0.42509 0.57496
#
# Static dielectric constant tensor:
#      x y z
#    x 1.697380 0.000000 -0.010530 
#    y 0.000000 1.677070 0.000000 
#    z -0.010530 0.000000 1.631330 
# 
# From -- ./inp_files/174111.got.cif
#   From: 2010.05.17/outbox.cif.g08.bks.cpg/sg15_88_cif.got.tgz:174111.got - 2010.06.03 18:47:42.
