data_PCOD9261042
_publ_section_title
;
Structure prediction by ZEFSAII (Michael W. Deem and Ramdas Pophale) SiO2 
 PCOD9261042
Probable space group: C 2/C
;
_chemical_formula_sum "Si O2"
_cell_formula_units_Z 44
_cell_length_a 12.028828
_cell_length_b 7.394633
_cell_length_c 21.746659
_cell_angle_alpha 90.000000
_cell_angle_beta 71.753339
_cell_angle_gamma 90.000000
_cell_volume 1837.074917
_symmetry_space_group_name_H-M "C 2/C"
_symmetry_group_IT_number 15
_symmetry_cell_setting 'monoclinic'
loop_
_space_group_symop_operation_xyz
x,y,z
-x,y,1/2-z
-x,-y,-z
x,-y,1/2+z
1/2+x,1/2+y,z
1/2-x,1/2+y,1/2-z
1/2-x,1/2-y,-z
1/2+x,1/2-y,1/2+z
loop_
_atom_site_type_symbol
_atom_site_label
_atom_site_fract_x
_atom_site_fract_y
_atom_site_fract_z
Si Si1 0.985245 0.935484 0.679216
Si Si2 0.046367 0.340477 0.864385
Si Si3 0.000000 0.420733 0.750000
Si Si4 0.238521 0.917821 0.599294
Si Si5 0.749034 0.177623 0.153881
Si Si6 0.187363 0.430136 0.535645
O O1 0.983902 0.149810 0.662555
O O2 0.000000 0.911672 0.750000
O O3 0.103680 0.861844 0.627162
O O4 0.863937 0.862191 0.673276
O O5 0.172281 0.317398 0.871715
O O6 0.030020 0.490784 0.813450
O O7 0.949844 0.389130 0.931891
O O8 0.869213 0.342031 0.786258
O O9 0.248952 0.121069 0.625982
O O10 0.284782 0.926404 0.521748
O O11 0.737622 0.047721 0.095821
O O12 0.250000 0.250000 0.500000
#
# Coordination Sequence:
#
# PCOD9261042 Si02
#       6
#     8   8   4   8   8   8
#     4  12  23  41  61  90 122 160 199 249 305 355
#     4  11  20  38  66  85 123 161 197 249 301 351
#     4  10  18  40  60  82 118 164 188 240 304 346
#     4  11  22  41  62  90 122 158 202 247 299 359
#     4  10  22  40  65  85 122 161 200 247 302 358
#     4   9  18  40  64  86 120 167 193 243 309 355
#
# _framework density 23.951118999999998
#
# number of rings (size 3 to 8) (size 9 to 14) (size 15 to 20)
#    0.000    1.455    6.364    1.636    0.000    0.727 
#    8.182    0.909    0.000    0.000    0.000    0.000 
#    0.000    0.000    0.000    0.000    0.000    0.000 
#
# Total GULP energy -122803.135910 kJ/mol
# GULP energy per Si atom -5581.960723 kJ/mol
# Density = 2.389661 g / cm^3
# Si number density = 23.951119 Si / 1000 Ang^3
#
#
#
# Elastic Constant Matrix: (Units=GPa)
#
#
# Indices 1 2 3 4 5 6 
#
# 1 236.1841 47.4402 66.3639 0.0000 -6.4876 0.0000
# 2 47.4402 26.7951 24.7749 0.0000 13.3452 0.0000
# 3 66.3639 24.7749 151.1105 0.0000 -23.8225 0.0000
# 4 0.0000 0.0000 0.0000 11.6716 0.0000 5.6980
# 5 -6.4876 13.3452 -23.8225 0.0000 31.4330 0.0000
# 6 0.0000 0.0000 0.0000 5.6980 0.0000 34.0374
#
#
#
# Elastic Compliance Matrix: (Units=1/GPa)
#
#
# Indices 1 2 3 4 5 6 
#
# 1 0.009131 -0.025976 0.002594 0.000000 0.014879 0.000000
# 2 -0.025976 0.157362 -0.029266 0.000000 -0.094351 0.000000
# 3 0.002594 -0.029266 0.013992 0.000000 0.023565 0.000000
# 4 0.000000 0.000000 0.000000 0.093303 0.000000 -0.015619
# 5 0.014879 -0.094351 0.023565 0.000000 0.092802 0.000000
# 6 0.000000 0.000000 0.000000 -0.015619 0.000000 0.031994
#
#
# Mechanical properties :
#
#
# Convention : Reuss Voigt Hill
#
# Bulk Modulus (GPa) = 13.29991 76.80529 45.05260
# Shear Modulus (GPa) = 9.45283 33.79579 21.62431
#
# Velocity S-wave (km/s) = 1.98879 3.76045 3.00801
# Velocity P-wave (km/s) = 3.29222 7.14085 5.56015
#
# Compressibility (1/GPa) = 0.07518848
#
# Stress axis : x y z
#
# Youngs Moduli (GPa) = 109.51275 6.35479 71.47195
#
# Poissons Ratio (x) = 0.16507 -0.18542
# Poissons Ratio (y) = 2.84473 2.09171
# Poissons Ratio (z) = -0.28411 0.18598
#
# Static dielectric constant tensor:
#      x y z
#    x 1.850980 0.000000 0.032670 
#    y 0.000000 2.075800 0.000000 
#    z 0.032670 0.000000 1.917520 
# 
# From -- ./inp_files/267371.got.cif
#   From: 2010.05.17/outbox.cif.g08.bks.cpg/sg15_134_cif.got.tgz:267371.got - 2010.06.03 18:47:42.
