data_PCOD9261888
_publ_section_title
;
Structure prediction by ZEFSAII (Michael W. Deem and Ramdas Pophale) SiO2 
 PCOD9261888
Probable space group: C 2/C
;
_chemical_formula_sum "Si O2"
_cell_formula_units_Z 56
_cell_length_a 6.209925
_cell_length_b 23.559677
_cell_length_c 23.707404
_cell_angle_alpha 90.000000
_cell_angle_beta 58.853535
_cell_angle_gamma 90.000000
_cell_volume 2968.494734
_symmetry_space_group_name_H-M "C 2/C"
_symmetry_group_IT_number 15
_symmetry_cell_setting 'monoclinic'
loop_
_space_group_symop_operation_xyz
x,y,z
-x,y,1/2-z
-x,-y,-z
x,-y,1/2+z
1/2+x,1/2+y,z
1/2-x,1/2+y,1/2-z
1/2-x,1/2-y,-z
1/2+x,1/2-y,1/2+z
loop_
_atom_site_type_symbol
_atom_site_label
_atom_site_fract_x
_atom_site_fract_y
_atom_site_fract_z
Si Si1 0.500000 0.560920 0.250000
Si Si2 0.025892 0.605958 0.638555
Si Si3 0.610840 0.300718 0.356175
Si Si4 0.479928 0.013949 0.320242
Si Si5 0.748406 0.872553 0.683726
Si Si6 0.500000 0.654464 0.750000
Si Si7 0.154320 0.784016 0.596344
Si Si8 0.960154 0.680766 0.544626
O O1 0.585321 0.599224 0.290022
O O2 0.735545 0.524036 0.198905
O O3 0.211096 0.648320 0.646737
O O4 0.116492 0.542057 0.636585
O O5 0.745417 0.617292 0.701396
O O6 0.007793 0.624842 0.575782
O O7 0.566232 0.307648 0.295613
O O8 0.742482 0.243063 0.359568
O O9 0.336623 0.308119 0.422048
O O10 0.500000 0.002855 0.250000
O O11 0.336026 0.074183 0.343998
O O12 0.500000 0.851141 0.750000
O O13 0.913705 0.824074 0.634150
O O14 0.380963 0.816035 0.533904
O O15 0.068219 0.730941 0.569814
#
# Coordination Sequence:
#
# PCOD9261888 Si02
#       8
#     4   8   8   8   8   4   8   8
#     4   8  17  34  50  78 106 146 178 211 272 328
#     4  10  19  34  54  84 112 142 179 234 280 334
#     4  10  20  34  52  80 110 146 183 227 282 334
#     4   9  17  31  55  77 109 144 179 222 278 335
#     4   9  20  36  53  82 107 141 187 221 276 330
#     4  10  19  32  48  82 120 136 180 233 288 340
#     4  10  20  40  56  75 110 154 184 228 267 336
#     4   9  21  37  57  78 106 148 195 220 274 331
#
# _framework density 18.864781000000001
#
# number of rings (size 3 to 8) (size 9 to 14) (size 15 to 20)
#    0.000    2.857    0.000    2.143    0.000    5.714 
#   21.857    0.714    0.000    1.714    0.000    0.000 
#    0.000    0.000    0.000    0.000    0.000    0.000 
#
# Total GULP energy -156150.291428 kJ/mol
# GULP energy per Si atom -5576.796122 kJ/mol
# Density = 1.882184 g / cm^3
# Si number density = 18.864781 Si / 1000 Ang^3
#
#
#
# Elastic Constant Matrix: (Units=GPa)
#
#
# Indices 1 2 3 4 5 6 
#
# 1 90.2215 17.6978 20.4094 0.0000 -11.7653 0.0000
# 2 17.6978 82.1801 38.8370 0.0000 -1.3617 0.0000
# 3 20.4094 38.8370 52.4348 0.0000 -8.6799 0.0000
# 4 0.0000 0.0000 0.0000 9.0735 0.0000 2.0518
# 5 -11.7653 -1.3617 -8.6799 0.0000 19.2936 0.0000
# 6 0.0000 0.0000 0.0000 2.0518 0.0000 2.7575
#
#
#
# Elastic Compliance Matrix: (Units=1/GPa)
#
#
# Indices 1 2 3 4 5 6 
#
# 1 0.012843 -0.001226 -0.003035 0.000000 0.006380 0.000000
# 2 -0.001226 0.019356 -0.014864 0.000000 -0.006069 0.000000
# 3 -0.003035 -0.014864 0.033259 0.000000 0.012063 0.000000
# 4 0.000000 0.000000 0.000000 0.132508 0.000000 -0.098600
# 5 0.006380 -0.006069 0.012063 0.000000 0.060720 0.000000
# 6 0.000000 0.000000 0.000000 -0.098600 0.000000 0.436022
#
#
# Mechanical properties :
#
#
# Convention : Reuss Voigt Hill
#
# Bulk Modulus (GPa) = 36.75333 42.08051 39.41692
# Shear Modulus (GPa) = 6.73830 16.08439 11.41135
#
# Velocity S-wave (km/s) = 1.89200 2.92312 2.46214
# Velocity P-wave (km/s) = 4.92927 5.80928 5.38727
#
# Compressibility (1/GPa) = 0.02720842
#
# Stress axis : x y z
#
# Youngs Moduli (GPa) = 77.86491 51.66241 30.06705
#
# Poissons Ratio (x) = 0.06333 0.09125
# Poissons Ratio (y) = 0.09545 0.44692
# Poissons Ratio (z) = 0.23631 0.76792
#
# Static dielectric constant tensor:
#      x y z
#    x 1.680390 0.000000 -0.009080 
#    y 0.000000 1.683930 0.000000 
#    z -0.009080 0.000000 1.662240 
# 
# From -- ./inp_files/227873.got.cif
#   From: 2010.05.17/outbox.cif.g08.bks.cpg/sg15_114_cif.got.tgz:227873.got - 2010.06.03 18:47:42.
