data_PCOD9261778
_publ_section_title
;
Structure prediction by ZEFSAII (Michael W. Deem and Ramdas Pophale) SiO2 
 PCOD9261778
Probable space group: C 2/C
;
_chemical_formula_sum "Si O2"
_cell_formula_units_Z 48
_cell_length_a 5.512152
_cell_length_b 17.906864
_cell_length_c 22.779124
_cell_angle_alpha 90.000000
_cell_angle_beta 80.584561
_cell_angle_gamma 90.000000
_cell_volume 2218.131074
_symmetry_space_group_name_H-M "C 2/C"
_symmetry_group_IT_number 15
_symmetry_cell_setting 'monoclinic'
loop_
_space_group_symop_operation_xyz
x,y,z
-x,y,1/2-z
-x,-y,-z
x,-y,1/2+z
1/2+x,1/2+y,z
1/2-x,1/2+y,1/2-z
1/2-x,1/2-y,-z
1/2+x,1/2-y,1/2+z
loop_
_atom_site_type_symbol
_atom_site_label
_atom_site_fract_x
_atom_site_fract_y
_atom_site_fract_z
Si Si1 0.728813 0.630883 0.777046
Si Si2 0.739548 0.300036 0.770635
Si Si3 0.154187 0.598389 0.601628
Si Si4 0.484480 0.322331 0.494180
Si Si5 0.771514 0.470245 0.970729
Si Si6 0.326222 0.231700 0.598852
O O1 0.500000 0.599908 0.750000
O O2 0.738025 0.719809 0.764009
O O3 0.694166 0.618392 0.846878
O O4 0.000000 0.601176 0.750000
O O5 0.500000 0.336148 0.750000
O O6 0.712526 0.278291 0.840290
O O7 0.000000 0.339686 0.750000
O O8 0.287010 0.631001 0.538764
O O9 0.158537 0.509419 0.593618
O O10 0.908541 0.648194 0.614653
O O11 0.270830 0.382044 0.521175
O O12 0.528756 0.273603 0.550344
O O13 0.387690 0.277125 0.441115
O O14 0.500000 0.500000 0.000000
O O15 0.000000 0.500000 0.000000
#
# Coordination Sequence:
#
# PCOD9261778 Si02
#       6
#     8   8   8   8   8   8
#     4  10  19  31  53  80 108 137 189 239 283 320
#     4  10  19  33  51  78 109 141 183 232 283 325
#     4  11  20  35  58  81 117 149 194 242 288 347
#     4  10  22  35  53  86 118 150 188 232 296 355
#     4  10  21  37  56  78 113 150 185 222 285 348
#     4  11  20  34  57  84 116 148 189 245 289 344
#
# _framework density 21.639838000000001
#
# number of rings (size 3 to 8) (size 9 to 14) (size 15 to 20)
#    0.000    1.667    5.000    2.500    0.000    0.000 
#    0.000    0.000    0.000    2.000    0.000    0.000 
#    0.000    0.000    0.000    0.000    0.000    0.000 
#
# Total GULP energy -133655.671323 kJ/mol
# GULP energy per Si atom -5568.986305 kJ/mol
# Density = 2.159058 g / cm^3
# Si number density = 21.639838 Si / 1000 Ang^3
#
#
#
# Elastic Constant Matrix: (Units=GPa)
#
#
# Indices 1 2 3 4 5 6 
#
# 1 134.2111 13.0179 20.4811 0.0000 11.0142 0.0000
# 2 13.0179 46.7489 15.9178 0.0000 5.1103 0.0000
# 3 20.4811 15.9178 102.0180 0.0000 10.2698 0.0000
# 4 0.0000 0.0000 0.0000 14.9652 0.0000 -2.7669
# 5 11.0142 5.1103 10.2698 0.0000 30.6651 0.0000
# 6 0.0000 0.0000 0.0000 -2.7669 0.0000 20.2660
#
#
#
# Elastic Compliance Matrix: (Units=1/GPa)
#
#
# Indices 1 2 3 4 5 6 
#
# 1 0.007959 -0.001590 -0.001127 0.000000 -0.002216 0.000000
# 2 -0.001590 0.023123 -0.003061 0.000000 -0.002257 0.000000
# 3 -0.001127 -0.003061 0.010777 0.000000 -0.002695 0.000000
# 4 0.000000 0.000000 0.000000 0.068552 0.000000 0.009359
# 5 -0.002216 -0.002257 -0.002695 0.000000 0.034685 0.000000
# 6 0.000000 0.000000 0.000000 0.009359 0.000000 0.050622
#
#
# Mechanical properties :
#
#
# Convention : Reuss Voigt Hill
#
# Bulk Modulus (GPa) = 33.00069 42.42352 37.71211
# Shear Modulus (GPa) = 23.00168 28.74999 25.87584
#
# Velocity S-wave (km/s) = 3.26380 3.64891 3.46171
# Velocity P-wave (km/s) = 5.43013 6.11552 5.78299
#
# Compressibility (1/GPa) = 0.03030240
#
# Stress axis : x y z
#
# Youngs Moduli (GPa) = 125.64362 43.24729 92.78790
#
# Poissons Ratio (x) = 0.06878 0.10453
# Poissons Ratio (y) = 0.19983 0.28406
# Poissons Ratio (z) = 0.14155 0.13240
#
# Static dielectric constant tensor:
#      x y z
#    x 1.946090 0.000000 -0.031130 
#    y 0.000000 1.884150 0.000000 
#    z -0.031130 0.000000 1.800650 
# 
# From -- ./inp_files/227275.got.cif
#   From: 2010.05.17/outbox.cif.g08.bks.cpg/sg15_114_cif.got.tgz:227275.got - 2010.06.03 18:47:42.
