data_PCOD9261953
_publ_section_title
;
Structure prediction by ZEFSAII (Michael W. Deem and Ramdas Pophale) SiO2 
 PCOD9261953
Probable space group: C 2/C
;
_chemical_formula_sum "Si O2"
_cell_formula_units_Z 64
_cell_length_a 20.260518
_cell_length_b 23.984440
_cell_length_c 11.558968
_cell_angle_alpha 90.000000
_cell_angle_beta 39.132587
_cell_angle_gamma 90.000000
_cell_volume 3544.941920
_symmetry_space_group_name_H-M "C 2/C"
_symmetry_group_IT_number 15
_symmetry_cell_setting 'monoclinic'
loop_
_space_group_symop_operation_xyz
x,y,z
-x,y,1/2-z
-x,-y,-z
x,-y,1/2+z
1/2+x,1/2+y,z
1/2-x,1/2+y,1/2-z
1/2-x,1/2-y,-z
1/2+x,1/2-y,1/2+z
loop_
_atom_site_type_symbol
_atom_site_label
_atom_site_fract_x
_atom_site_fract_y
_atom_site_fract_z
Si Si1 0.155317 0.949364 0.730650
Si Si2 0.767037 0.774541 0.603945
Si Si3 0.073222 0.070040 0.892392
Si Si4 0.853446 0.661137 0.557418
Si Si5 0.295184 0.951375 0.759184
Si Si6 0.092844 0.355510 0.785374
Si Si7 0.383912 0.620782 0.880069
Si Si8 0.229649 0.927218 0.381061
O O1 0.253787 0.948689 0.683701
O O2 0.190942 0.920377 0.564444
O O3 0.111713 0.013076 0.776123
O O4 0.050901 0.922628 0.927759
O O5 0.750000 0.750000 0.500000
O O6 0.799388 0.721863 0.635514
O O7 0.663044 0.811582 0.763002
O O8 0.859875 0.819677 0.468330
O O9 0.120387 0.120322 0.753250
O O10 0.125294 0.063978 0.946313
O O11 0.861463 0.642333 0.409680
O O12 0.793090 0.619458 0.724956
O O13 0.973952 0.663102 0.434070
O O14 0.392852 0.914621 0.668722
O O15 0.297511 0.016059 0.787407
O O16 0.201101 0.921560 0.956339
O O17 0.500000 0.601204 0.750000
#
# Coordination Sequence:
#
# PCOD9261953 Si02
#       8
#     8   8   8   8   8   8   8   8
#     4  10  20  31  51  79 122 156 187 223 278 350
#     4   9  19  33  56  84 111 139 184 245 292 337
#     4  10  19  32  50  81 119 157 184 232 282 334
#     4  10  21  38  58  85 113 150 188 247 294 337
#     4  10  20  34  52  82 116 153 189 231 282 344
#     4   9  20  38  57  80 118 144 192 245 294 339
#     4  11  19  31  55  86 114 146 192 236 290 343
#     4  11  21  33  55  79 119 158 193 227 282 354
#
# _framework density 18.053892999999999
#
# number of rings (size 3 to 8) (size 9 to 14) (size 15 to 20)
#    0.000    2.000    2.500    2.625    5.250    0.500 
#    0.000    0.625    0.000    3.000    0.000    5.250 
#    0.000    0.000    0.000    0.000    0.000    0.000 
#
# Total GULP energy -178190.148885 kJ/mol
# GULP energy per Si atom -5568.442153 kJ/mol
# Density = 1.801280 g / cm^3
# Si number density = 18.053893 Si / 1000 Ang^3
#
#
#
# Elastic Constant Matrix: (Units=GPa)
#
#
# Indices 1 2 3 4 5 6 
#
# 1 63.8311 23.2177 24.5193 0.0000 -5.9036 0.0000
# 2 23.2177 112.9653 38.5824 0.0000 2.1130 0.0000
# 3 24.5193 38.5824 72.6576 0.0000 6.3670 0.0000
# 4 0.0000 0.0000 0.0000 18.8642 0.0000 2.2331
# 5 -5.9036 2.1130 6.3670 0.0000 29.1912 0.0000
# 6 0.0000 0.0000 0.0000 2.2331 0.0000 29.9276
#
#
#
# Elastic Compliance Matrix: (Units=1/GPa)
#
#
# Indices 1 2 3 4 5 6 
#
# 1 0.019141 -0.002038 -0.005841 0.000000 0.005293 0.000000
# 2 -0.002038 0.011037 -0.005166 0.000000 -0.000084 0.000000
# 3 -0.005841 -0.005166 0.018909 0.000000 -0.004932 0.000000
# 4 0.000000 0.000000 0.000000 0.053483 0.000000 -0.003991
# 5 0.005293 -0.000084 -0.004932 0.000000 0.036409 0.000000
# 6 0.000000 0.000000 0.000000 -0.003991 0.000000 0.033712
#
#
# Mechanical properties :
#
#
# Convention : Reuss Voigt Hill
#
# Bulk Modulus (GPa) = 43.48187 46.89920 45.19053
# Shear Modulus (GPa) = 24.21938 26.47223 25.34581
#
# Velocity S-wave (km/s) = 3.66663 3.83337 3.75093
# Velocity P-wave (km/s) = 6.48555 6.75475 6.62152
#
# Compressibility (1/GPa) = 0.02299809
#
# Stress axis : x y z
#
# Youngs Moduli (GPa) = 52.24442 90.60408 52.88351
#
# Poissons Ratio (x) = 0.18466 0.30888
# Poissons Ratio (y) = 0.10648 0.27318
# Poissons Ratio (z) = 0.30515 0.46803
#
# Static dielectric constant tensor:
#      x y z
#    x 1.690980 0.000000 -0.024690 
#    y 0.000000 1.653870 0.000000 
#    z -0.024690 0.000000 1.632770 
# 
# From -- ./inp_files/114596.got.cif
#   From: 2010.05.17/outbox.cif.g08.bks.cpg/sg15_58_cif.got.tgz:114596.got - 2010.06.03 18:47:42.
