data_PCOD9261949
_publ_section_title
;
Structure prediction by ZEFSAII (Michael W. Deem and Ramdas Pophale) SiO2 
 PCOD9261949
Probable space group: C 2/C
;
_chemical_formula_sum "Si O2"
_cell_formula_units_Z 64
_cell_length_a 18.483516
_cell_length_b 8.472260
_cell_length_c 18.094568
_cell_angle_alpha 90.000000
_cell_angle_beta 59.066053
_cell_angle_gamma 90.000000
_cell_volume 2430.513956
_symmetry_space_group_name_H-M "C 2/C"
_symmetry_group_IT_number 15
_symmetry_cell_setting 'monoclinic'
loop_
_space_group_symop_operation_xyz
x,y,z
-x,y,1/2-z
-x,-y,-z
x,-y,1/2+z
1/2+x,1/2+y,z
1/2-x,1/2+y,1/2-z
1/2-x,1/2-y,-z
1/2+x,1/2-y,1/2+z
loop_
_atom_site_type_symbol
_atom_site_label
_atom_site_fract_x
_atom_site_fract_y
_atom_site_fract_z
Si Si1 0.595358 0.757584 0.731312
Si Si2 0.823409 0.599037 0.665397
Si Si3 0.923779 0.872198 0.983207
Si Si4 0.481432 0.300696 0.420715
Si Si5 0.904359 0.406389 0.270834
Si Si6 0.096892 0.926388 0.726213
Si Si7 0.825972 0.043032 0.159724
Si Si8 0.580931 0.977507 0.011985
O O1 0.500000 0.754753 0.750000
O O2 0.568862 0.741286 0.831973
O O3 0.636107 0.594780 0.684298
O O4 0.634590 0.923963 0.690243
O O5 0.901551 0.596652 0.682784
O O6 0.806064 0.777009 0.648910
O O7 0.749021 0.536357 0.755548
O O8 0.842164 0.491832 0.585758
O O9 0.912059 0.696456 0.955601
O O10 0.998587 0.832442 0.003246
O O11 0.852054 0.935507 0.077293
O O12 0.940214 0.027888 0.924480
O O13 0.425310 0.143053 0.439917
O O14 0.863448 0.241205 0.316095
O O15 0.000000 0.409680 0.250000
O O16 0.104146 0.930852 0.811976
O O17 0.000000 0.921083 0.750000
O O18 0.500000 0.000000 0.000000
#
# Coordination Sequence:
#
# PCOD9261949 Si02
#       8
#     8   8   8   8   8   8   8   8
#     4  10  19  32  55  81 111 146 189 241 285 331
#     4  11  22  34  55  86 121 157 190 245 303 343
#     4  10  19  32  51  76 115 154 183 233 291 341
#     4  10  19  32  50  79 115 145 191 234 290 348
#     4   9  19  34  52  78 111 147 191 235 285 342
#     4   9  19  34  53  79 112 152 192 234 287 343
#     4  11  21  35  55  84 126 153 193 246 297 350
#     4  10  20  33  52  78 113 151 192 234 294 348
#
# _framework density 26.331878
#
# number of rings (size 3 to 8) (size 9 to 14) (size 15 to 20)
#    0.000    2.000    2.500    2.250    1.750    1.000 
#    0.000    0.000    0.000    0.000    0.000   17.500 
#    0.000   47.250    0.000    0.000    0.000    0.000 
#
# Total GULP energy -178445.887410 kJ/mol
# GULP energy per Si atom -5576.433982 kJ/mol
# Density = 2.627195 g / cm^3
# Si number density = 26.331878 Si / 1000 Ang^3
#
#
#
# Elastic Constant Matrix: (Units=GPa)
#
#
# Indices 1 2 3 4 5 6 
#
# 1 64.2257 7.6002 13.1930 0.0000 9.4904 0.0000
# 2 7.6002 343.9571 37.2224 -0.0001 -4.9774 -0.0002
# 3 13.1930 37.2224 105.5410 0.0000 -3.7150 0.0000
# 4 0.0000 -0.0001 0.0000 13.0974 0.0000 -13.5931
# 5 9.4904 -4.9774 -3.7150 0.0000 27.9866 0.0000
# 6 0.0000 -0.0002 0.0000 -13.5931 0.0000 14.6011
#
#
#
# Elastic Compliance Matrix: (Units=1/GPa)
#
#
# Indices 1 2 3 4 5 6 
#
# 1 0.016959 -0.000219 -0.002257 0.000002 -0.006090 0.000002
# 2 -0.000219 0.003030 -0.001024 0.000002 0.000477 0.000002
# 3 -0.002257 -0.001024 0.010187 -0.000001 0.001935 -0.000001
# 4 0.000002 0.000002 -0.000001 2.259206 0.000001 2.103247
# 5 -0.006090 0.000477 0.001935 0.000001 0.038138 0.000001
# 6 0.000002 0.000002 -0.000001 2.103247 0.000001 2.026542
#
#
# Mechanical properties :
#
#
# Convention : Reuss Voigt Hill
#
# Bulk Modulus (GPa) = 43.14928 69.97278 56.56103
# Shear Modulus (GPa) = 1.14448 41.51755 21.33102
#
# Velocity S-wave (km/s) = 0.65999 3.97508 2.84928
# Velocity P-wave (km/s) = 4.12348 6.90648 5.68782
#
# Compressibility (1/GPa) = 0.02317536
#
# Stress axis : x y z
#
# Youngs Moduli (GPa) = 58.96410 330.03947 98.16821
#
# Poissons Ratio (x) = 0.07214 0.22159
# Poissons Ratio (y) = 0.01289 0.10057
# Poissons Ratio (z) = 0.13310 0.33812
#
# Static dielectric constant tensor:
#      x y z
#    x 2.176940 0.000000 0.045220 
#    y 0.000000 2.194260 0.000000 
#    z 0.045220 0.000000 2.192010 
# 
# From -- ./inp_files/281499.got.cif
#   From: 2010.05.17/outbox.cif.g08.bks.cpg/sg15_141_cif.got.tgz:281499.got - 2010.06.03 18:47:42.
