data_PCOD9261017
_publ_section_title
;
Structure prediction by ZEFSAII (Michael W. Deem and Ramdas Pophale) SiO2 
 PCOD9261017
Probable space group: C 2/C
;
_chemical_formula_sum "Si O2"
_cell_formula_units_Z 60
_cell_length_a 18.246833
_cell_length_b 10.736294
_cell_length_c 21.491121
_cell_angle_alpha 90.000000
_cell_angle_beta 38.649627
_cell_angle_gamma 90.000000
_cell_volume 2629.496166
_symmetry_space_group_name_H-M "C 2/C"
_symmetry_group_IT_number 15
_symmetry_cell_setting 'monoclinic'
loop_
_space_group_symop_operation_xyz
x,y,z
-x,y,1/2-z
-x,-y,-z
x,-y,1/2+z
1/2+x,1/2+y,z
1/2-x,1/2+y,1/2-z
1/2-x,1/2-y,-z
1/2+x,1/2-y,1/2+z
loop_
_atom_site_type_symbol
_atom_site_label
_atom_site_fract_x
_atom_site_fract_y
_atom_site_fract_z
Si Si1 0.000000 0.779489 0.750000
Si Si2 0.581717 0.680184 0.074734
Si Si3 0.592860 0.600817 0.413197
Si Si4 0.216078 0.121834 0.776274
Si Si5 0.889874 0.081265 0.869536
Si Si6 0.247250 0.206081 0.132027
Si Si7 0.333844 0.942070 0.071121
Si Si8 0.542376 0.740275 0.565792
O O1 0.948741 0.725716 0.848423
O O2 0.882417 0.841794 0.799518
O O3 0.478518 0.674112 0.092289
O O4 0.596321 0.543153 0.096329
O O5 0.697817 0.716201 0.960911
O O6 0.500000 0.500000 0.500000
O O7 0.694505 0.519333 0.314797
O O8 0.615785 0.676233 0.460623
O O9 0.260780 0.205862 0.803180
O O10 0.295344 0.115634 0.662837
O O11 0.088312 0.182584 0.845951
O O12 0.771208 0.080991 0.908689
O O13 0.899510 0.199630 0.908583
O O14 0.000000 0.085111 0.750000
O O15 0.333409 0.089787 0.082491
O O16 0.447201 0.883032 0.962754
#
# Coordination Sequence:
#
# PCOD9261017 Si02
#       8
#     4   8   8   8   8   8   8   8
#     4  12  26  40  68 100 128 174 226 272 336 402
#     4  12  21  42  73 100 129 171 230 284 324 390
#     4  10  18  39  70  96 125 173 226 270 318 393
#     4  11  23  44  69 101 133 177 231 275 327 407
#     4  12  20  42  73  99 129 177 238 275 314 400
#     4  12  26  44  70 101 139 172 222 286 340 396
#     4  12  27  40  68 102 137 180 220 276 348 395
#     4  11  23  42  69 100 134 176 228 277 328 401
#
# _framework density 22.818059000000002
#
# number of rings (size 3 to 8) (size 9 to 14) (size 15 to 20)
#    0.000    0.533    8.667    1.600    3.733    0.533 
#    0.000    0.000    1.467    0.000    0.000    0.000 
#    0.000    0.000    0.000    0.000    0.000    0.000 
#
# Total GULP energy -167509.621933 kJ/mol
# GULP energy per Si atom -5583.654064 kJ/mol
# Density = 2.276612 g / cm^3
# Si number density = 22.818059 Si / 1000 Ang^3
#
#
#
# Elastic Constant Matrix: (Units=GPa)
#
#
# Indices 1 2 3 4 5 6 
#
# 1 109.3467 11.1826 27.1903 0.0000 23.9637 0.0000
# 2 11.1826 55.9871 36.9736 0.0000 8.3676 0.0000
# 3 27.1903 36.9736 102.8197 0.0000 33.0390 0.0000
# 4 0.0000 0.0000 0.0000 35.7233 0.0000 -2.4807
# 5 23.9637 8.3676 33.0390 0.0000 38.9556 0.0000
# 6 0.0000 0.0000 0.0000 -2.4807 0.0000 17.1113
#
#
#
# Elastic Compliance Matrix: (Units=1/GPa)
#
#
# Indices 1 2 3 4 5 6 
#
# 1 0.010670 -0.000831 -0.000647 0.000000 -0.005836 0.000000
# 2 -0.000831 0.023730 -0.009402 0.000000 0.003388 0.000000
# 3 -0.000647 -0.009402 0.017184 0.000000 -0.012156 0.000000
# 4 0.000000 0.000000 0.000000 0.028278 0.000000 0.004100
# 5 -0.005836 0.003388 -0.012156 0.000000 0.038843 0.000000
# 6 0.000000 0.000000 0.000000 0.004100 0.000000 0.059035
#
#
# Mechanical properties :
#
#
# Convention : Reuss Voigt Hill
#
# Bulk Modulus (GPa) = 33.53180 46.53851 40.03516
# Shear Modulus (GPa) = 23.87288 31.21184 27.54236
#
# Velocity S-wave (km/s) = 3.23805 3.70247 3.47802
# Velocity P-wave (km/s) = 5.35791 6.22233 5.80623
#
# Compressibility (1/GPa) = 0.02982244
#
# Stress axis : x y z
#
# Youngs Moduli (GPa) = 93.71851 42.14068 58.19323
#
# Poissons Ratio (x) = 0.03504 0.03767
# Poissons Ratio (y) = 0.07792 0.54714
# Poissons Ratio (z) = 0.06067 0.39621
#
# Static dielectric constant tensor:
#      x y z
#    x 1.860560 0.000000 -0.000850 
#    y 0.000000 1.963870 0.000000 
#    z -0.000850 0.000000 1.845920 
# 
# From -- ./inp_files/248754.got.cif
#   From: 2010.05.17/outbox.cif.g08.bks.cpg/sg15_125_cif.got.tgz:248754.got - 2010.06.03 18:47:42.
