data_PCOD9261490
_publ_section_title
;
Structure prediction by ZEFSAII (Michael W. Deem and Ramdas Pophale) SiO2 
 PCOD9261490
Probable space group: C 2/C
;
_chemical_formula_sum "Si O2"
_cell_formula_units_Z 52
_cell_length_a 12.555961
_cell_length_b 23.579417
_cell_length_c 12.609386
_cell_angle_alpha 90.000000
_cell_angle_beta 44.171779
_cell_angle_gamma 90.000000
_cell_volume 2601.312467
_symmetry_space_group_name_H-M "C 2/C"
_symmetry_group_IT_number 15
_symmetry_cell_setting 'monoclinic'
loop_
_space_group_symop_operation_xyz
x,y,z
-x,y,1/2-z
-x,-y,-z
x,-y,1/2+z
1/2+x,1/2+y,z
1/2-x,1/2+y,1/2-z
1/2-x,1/2-y,-z
1/2+x,1/2-y,1/2+z
loop_
_atom_site_type_symbol
_atom_site_label
_atom_site_fract_x
_atom_site_fract_y
_atom_site_fract_z
Si Si1 0.322460 0.188170 0.561715
Si Si2 0.644808 0.053031 0.487845
Si Si3 0.140632 0.427421 0.572712
Si Si4 0.689605 0.451857 0.843508
Si Si5 0.500000 0.745509 0.750000
Si Si6 0.350937 0.425053 0.038638
Si Si7 0.087645 0.653195 0.788557
O O1 0.324484 0.121354 0.534676
O O2 0.426848 0.217650 0.397501
O O3 0.399008 0.194401 0.621620
O O4 0.148238 0.210137 0.682436
O O5 0.689026 0.061581 0.334472
O O6 0.787122 0.064344 0.465799
O O7 0.512519 0.096686 0.614039
O O8 0.607761 0.987782 0.541601
O O9 0.276385 0.431439 0.561858
O O10 0.000000 0.413033 0.750000
O O11 0.686699 0.520109 0.860520
O O12 0.532376 0.424685 0.915903
O O13 0.256980 0.370496 0.143588
O O14 0.000000 0.678532 0.750000
#
# Coordination Sequence:
#
# PCOD9261490 Si02
#       7
#     8   8   8   8   4   8   8
#     4  11  23  44  66  88 118 150 204 260 320 357
#     4  10  19  33  53  84 128 163 198 237 281 366
#     4  11  21  33  57  88 116 162 206 240 298 368
#     4  10  19  30  48  77 118 162 204 238 281 341
#     4  10  26  46  66  90 114 152 200 280 314 346
#     4   9  19  32  46  78 121 158 197 241 284 343
#     4  10  21  38  63  90 123 163 194 238 302 370
#
# _framework density 19.989909000000001
#
# number of rings (size 3 to 8) (size 9 to 14) (size 15 to 20)
#    0.000    1.846    0.769    4.615    2.154    1.846 
#    2.769    0.769    0.000    0.000    0.000    0.000 
#    0.000    0.000    0.000    0.000    0.000    0.000 
#
# Total GULP energy -145128.349100 kJ/mol
# GULP energy per Si atom -5581.859581 kJ/mol
# Density = 1.994441 g / cm^3
# Si number density = 19.989909 Si / 1000 Ang^3
#
#
#
# Elastic Constant Matrix: (Units=GPa)
#
#
# Indices 1 2 3 4 5 6 
#
# 1 137.2668 28.8686 41.4737 0.0000 1.1206 0.0000
# 2 28.8686 24.5280 2.7920 0.0000 2.8092 0.0000
# 3 41.4737 2.7920 67.9205 0.0000 6.6557 0.0000
# 4 0.0000 0.0000 0.0000 4.2671 0.0000 4.3361
# 5 1.1206 2.8092 6.6557 0.0000 35.4790 0.0000
# 6 0.0000 0.0000 0.0000 4.3361 0.0000 16.3457
#
#
#
# Elastic Compliance Matrix: (Units=1/GPa)
#
#
# Indices 1 2 3 4 5 6 
#
# 1 0.012383 -0.013993 -0.007188 0.000000 0.002065 0.000000
# 2 -0.013993 0.057085 0.006721 0.000000 -0.005339 0.000000
# 3 -0.007188 0.006721 0.019219 0.000000 -0.003911 0.000000
# 4 0.000000 0.000000 0.000000 0.320835 0.000000 -0.085109
# 5 0.002065 -0.005339 -0.003911 0.000000 0.029277 0.000000
# 6 0.000000 0.000000 0.000000 -0.085109 0.000000 0.083755
#
#
# Mechanical properties :
#
#
# Convention : Reuss Voigt Hill
#
# Bulk Modulus (GPa) = 16.73169 41.77598 29.25384
# Shear Modulus (GPa) = 8.75047 21.65709 15.20378
#
# Velocity S-wave (km/s) = 2.09450 3.29508 2.76084
# Velocity P-wave (km/s) = 3.77326 5.95152 4.98288
#
# Compressibility (1/GPa) = 0.05976681
#
# Stress axis : x y z
#
# Youngs Moduli (GPa) = 80.75642 17.51775 52.03057
#
# Poissons Ratio (x) = 0.24512 0.37402
# Poissons Ratio (y) = 1.12999 -0.34969
# Poissons Ratio (z) = 0.58052 -0.11773
#
# Static dielectric constant tensor:
#      x y z
#    x 1.753620 0.000000 0.014510 
#    y 0.000000 1.694070 0.000000 
#    z 0.014510 0.000000 1.708440 
# 
# From -- ./inp_files/33519.got.cif
#   From: 2010.05.17/outbox.cif.g08.bks.cpg/sg15_17_cif.got.tgz:33519.got - 2010.06.03 18:47:42.
