data_PCOD9261347
_publ_section_title
;
Structure prediction by ZEFSAII (Michael W. Deem and Ramdas Pophale) SiO2 
 PCOD9261347
Probable space group: C 2/C
;
_chemical_formula_sum "Si O2"
_cell_formula_units_Z 44
_cell_length_a 18.981754
_cell_length_b 28.435164
_cell_length_c 10.310005
_cell_angle_alpha 90.000000
_cell_angle_beta 158.978795
_cell_angle_gamma 90.000000
_cell_volume 1996.174959
_symmetry_space_group_name_H-M "C 2/C"
_symmetry_group_IT_number 15
_symmetry_cell_setting 'monoclinic'
loop_
_space_group_symop_operation_xyz
x,y,z
-x,y,1/2-z
-x,-y,-z
x,-y,1/2+z
1/2+x,1/2+y,z
1/2-x,1/2+y,1/2-z
1/2-x,1/2-y,-z
1/2+x,1/2-y,1/2+z
loop_
_atom_site_type_symbol
_atom_site_label
_atom_site_fract_x
_atom_site_fract_y
_atom_site_fract_z
Si Si1 0.868117 0.906047 0.329111
Si Si2 0.500000 0.478657 0.750000
Si Si3 0.224476 0.692800 0.594236
Si Si4 0.265535 0.294953 0.857381
Si Si5 0.188202 0.891307 0.672274
Si Si6 0.834481 0.539451 0.230948
O O1 0.865661 0.945171 0.434176
O O2 0.832782 0.854262 0.322108
O O3 0.080798 0.903652 0.621950
O O4 0.696373 0.921730 0.933879
O O5 0.369798 0.510820 0.618353
O O6 0.227356 0.692874 0.441970
O O7 0.314531 0.742141 0.799625
O O8 0.000000 0.689286 0.250000
O O9 0.220014 0.339194 0.686378
O O10 0.500000 0.288852 0.250000
O O11 0.330030 0.931075 0.857437
O O12 0.000000 0.889980 0.250000
O O13 0.000000 0.500000 0.500000
#
# Coordination Sequence:
#
# PCOD9261347 Si02
#       6
#     8   4   8   8   8   8
#     4  11  22  41  59  86 123 161 200 248 307 368
#     4  12  26  40  58  84 122 164 204 248 304 362
#     4  10  19  28  56  94 120 144 198 257 297 361
#     4   9  15  31  54  88 117 154 189 246 314 356
#     4   9  16  36  60  81 116 157 198 240 309 366
#     4  11  23  39  62  87 116 156 203 260 307 358
#
# _framework density 22.042157
#
# number of rings (size 3 to 8) (size 9 to 14) (size 15 to 20)
#    0.000    1.818    8.182    0.545    2.545    0.000 
#    0.000    0.000    0.000    1.091    0.000    0.000 
#    0.000    0.000    0.000    0.000    0.000    0.000 
#
# Total GULP energy -122700.756096 kJ/mol
# GULP energy per Si atom -5577.307095 kJ/mol
# Density = 2.199199 g / cm^3
# Si number density = 22.042157 Si / 1000 Ang^3
#
#
#
# Elastic Constant Matrix: (Units=GPa)
#
#
# Indices 1 2 3 4 5 6 
#
# 1 55.3035 9.9950 10.7731 0.0000 21.4618 0.0000
# 2 9.9950 192.1579 19.6175 0.0000 12.2349 0.0000
# 3 10.7731 19.6175 39.2743 -0.0001 8.6594 -0.0002
# 4 0.0000 0.0000 -0.0001 5.6617 0.0000 28.2283
# 5 21.4618 12.2349 8.6594 0.0000 24.4733 -0.0001
# 6 0.0000 0.0000 -0.0002 28.2283 -0.0001 24.9042
#
#
#
# Elastic Compliance Matrix: (Units=1/GPa)
#
#
# Indices 1 2 3 4 5 6 
#
# 1 0.027640 0.000320 -0.002562 0.000000 -0.023492 0.000000
# 2 0.000320 0.005572 -0.002381 0.000000 -0.002224 0.000000
# 3 -0.002562 -0.002381 0.028846 0.000000 -0.006770 0.000000
# 4 0.000000 0.000000 0.000000 -0.037973 0.000000 0.043042
# 5 -0.023492 -0.002224 -0.006770 0.000000 0.064969 0.000000
# 6 0.000000 0.000000 0.000000 0.043042 0.000000 -0.008633
#
#
# Mechanical properties :
#
#
# Convention : Reuss Voigt Hill
#
# Bulk Modulus (GPa) = 18.93478 40.83411 29.88445
# Shear Modulus (GPa) = 46.61075 27.43119 37.02097
#
# Velocity S-wave (km/s) = 4.60349 3.53156 4.10268
# Velocity P-wave (km/s) = 6.07166 5.93253 6.00250
#
# Compressibility (1/GPa) = 0.05281286
#
# Stress axis : x y z
#
# Youngs Moduli (GPa) = 36.17950 179.46718 34.66630
#
# Poissons Ratio (x) = -0.05736 0.08881
# Poissons Ratio (y) = -0.01156 0.08253
# Poissons Ratio (z) = 0.09268 0.42725
#
# Static dielectric constant tensor:
#      x y z
#    x 1.865260 0.000000 -0.013090 
#    y 0.000000 1.875520 0.000000 
#    z -0.013090 0.000000 1.826730 
# 
# From -- ./inp_files/115125.got.cif
#   From: 2010.05.17/outbox.cif.g08.bks.cpg/sg15_58_cif.got.tgz:115125.got - 2010.06.03 18:47:42.
