data_PCOD9261161
_publ_section_title
;
Structure prediction by ZEFSAII (Michael W. Deem and Ramdas Pophale) SiO2 
 PCOD9261161
Probable space group: C 2/C
;
_chemical_formula_sum "Si O2"
_cell_formula_units_Z 36
_cell_length_a 15.719625
_cell_length_b 10.610699
_cell_length_c 12.507666
_cell_angle_alpha 90.000000
_cell_angle_beta 120.892137
_cell_angle_gamma 90.000000
_cell_volume 1790.268855
_symmetry_space_group_name_H-M "C 2/C"
_symmetry_group_IT_number 15
_symmetry_cell_setting 'monoclinic'
loop_
_space_group_symop_operation_xyz
x,y,z
-x,y,1/2-z
-x,-y,-z
x,-y,1/2+z
1/2+x,1/2+y,z
1/2-x,1/2+y,1/2-z
1/2-x,1/2-y,-z
1/2+x,1/2-y,1/2+z
loop_
_atom_site_type_symbol
_atom_site_label
_atom_site_fract_x
_atom_site_fract_y
_atom_site_fract_z
Si Si1 0.720564 0.449006 0.943106
Si Si2 0.215315 0.795386 0.145429
Si Si3 0.810486 0.306558 0.439962
Si Si4 0.500000 0.582267 0.250000
Si Si5 0.505576 0.347851 0.519069
O O1 0.739103 0.322485 0.887893
O O2 0.805898 0.546085 0.966049
O O3 0.605924 0.488386 0.839851
O O4 0.728149 0.414635 0.073469
O O5 0.259748 0.803057 0.291073
O O6 0.097587 0.786729 0.080546
O O7 0.750000 0.250000 0.500000
O O8 0.908523 0.223996 0.487640
O O9 0.484178 0.664375 0.346156
O O10 0.500000 0.500000 0.500000
#
# Coordination Sequence:
#
# PCOD9261161 Si02
#       5
#     8   8   8   4   8
#     4  10  22  40  68  96 136 174 228 278 332 399
#     4  10  23  42  65  97 133 179 224 278 336 398
#     4  12  25  40  68 101 135 175 227 284 334 406
#     4  10  18  40  68  92 124 182 218 260 336 406
#     4  11  23  41  68  97 130 177 225 276 339 406
#
# _framework density 20.108712000000001
#
# number of rings (size 3 to 8) (size 9 to 14) (size 15 to 20)
#    0.000    1.333    2.222    4.000    3.111    1.778 
#    0.000    0.000    4.889    0.000    0.000    0.000 
#    0.000    0.000    0.000    0.000    0.000    0.000 
#
# Total GULP energy -100371.607365 kJ/mol
# GULP energy per Si atom -5576.200409 kJ/mol
# Density = 2.006294 g / cm^3
# Si number density = 20.108712 Si / 1000 Ang^3
#
#
#
# Elastic Constant Matrix: (Units=GPa)
#
#
# Indices 1 2 3 4 5 6 
#
# 1 160.9188 47.5423 55.1920 0.0000 -0.5564 0.0000
# 2 47.5423 69.6579 31.2362 0.0000 4.0902 0.0000
# 3 55.1920 31.2362 108.9930 0.0000 -11.8210 0.0000
# 4 0.0000 0.0000 0.0000 9.8113 0.0000 -1.9022
# 5 -0.5564 4.0902 -11.8210 0.0000 41.6099 0.0000
# 6 0.0000 0.0000 0.0000 -1.9022 0.0000 45.8896
#
#
#
# Elastic Compliance Matrix: (Units=1/GPa)
#
#
# Indices 1 2 3 4 5 6 
#
# 1 0.008596 -0.004451 -0.003113 0.000000 -0.000332 0.000000
# 2 -0.004451 0.019163 -0.003558 0.000000 -0.002954 0.000000
# 3 -0.003113 -0.003558 0.012180 0.000000 0.003768 0.000000
# 4 0.000000 0.000000 0.000000 0.102749 0.000000 0.004259
# 5 -0.000332 -0.002954 0.003768 0.000000 0.025389 0.000000
# 6 0.000000 0.000000 0.000000 0.004259 0.000000 0.021968
#
#
# Mechanical properties :
#
#
# Convention : Reuss Voigt Hill
#
# Bulk Modulus (GPa) = 56.51839 67.50119 62.00979
# Shear Modulus (GPa) = 22.91595 33.16875 28.04235
#
# Velocity S-wave (km/s) = 3.37946 4.06577 3.73840
# Velocity P-wave (km/s) = 6.58750 7.46202 7.03835
#
# Compressibility (1/GPa) = 0.01769336
#
# Stress axis : x y z
#
# Youngs Moduli (GPa) = 116.33245 52.18379 82.10321
#
# Poissons Ratio (x) = 0.23229 0.25560
# Poissons Ratio (y) = 0.51784 0.29214
# Poissons Ratio (z) = 0.36216 0.18568
#
# Static dielectric constant tensor:
#      x y z
#    x 1.742810 0.000000 -0.005330 
#    y 0.000000 1.792810 0.000000 
#    z -0.005330 0.000000 1.743080 
# 
# From -- ./inp_files/94354.got.cif
#   From: 2010.05.17/outbox.cif.g08.bks.cpg/sg15_48_cif.got.tgz:94354.got - 2010.06.03 18:47:42.
