data_PCOD9261972
_publ_section_title
;
Structure prediction by ZEFSAII (Michael W. Deem and Ramdas Pophale) SiO2 
 PCOD9261972
Probable space group: C 2/C
;
_chemical_formula_sum "Si O2"
_cell_formula_units_Z 60
_cell_length_a 35.782443
_cell_length_b 18.354291
_cell_length_c 5.095104
_cell_angle_alpha 90.000000
_cell_angle_beta 83.547237
_cell_angle_gamma 90.000000
_cell_volume 3325.068376
_symmetry_space_group_name_H-M "C 2/C"
_symmetry_group_IT_number 15
_symmetry_cell_setting 'monoclinic'
loop_
_space_group_symop_operation_xyz
x,y,z
-x,y,1/2-z
-x,-y,-z
x,-y,1/2+z
1/2+x,1/2+y,z
1/2-x,1/2+y,1/2-z
1/2-x,1/2-y,-z
1/2+x,1/2-y,1/2+z
loop_
_atom_site_type_symbol
_atom_site_label
_atom_site_fract_x
_atom_site_fract_y
_atom_site_fract_z
Si Si1 0.043214 0.175436 0.196214
Si Si2 0.500000 0.949901 0.250000
Si Si3 0.435182 0.838952 0.389620
Si Si4 0.259700 0.452103 0.449889
Si Si5 0.323898 0.052852 0.401141
Si Si6 0.387820 0.172076 0.415285
Si Si7 0.094017 0.162200 0.668302
Si Si8 0.840177 0.049975 0.003726
O O1 0.043737 0.261380 0.124522
O O2 0.063918 0.166030 0.456656
O O3 0.000000 0.149998 0.250000
O O4 0.070379 0.143463 0.948758
O O5 0.463603 0.899505 0.274598
O O6 0.500000 0.000000 0.500000
O O7 0.401724 0.832040 0.204199
O O8 0.419630 0.856600 0.689534
O O9 0.260357 0.521870 0.647807
O O10 0.219169 0.418513 0.542760
O O11 0.299051 0.586055 0.987339
O O12 0.352081 0.120457 0.403389
O O13 0.329011 0.993763 0.631122
O O14 0.386368 0.257656 0.335905
O O15 0.125941 0.103970 0.580358
O O16 0.841986 0.016161 0.292322
#
# Coordination Sequence:
#
# PCOD9261972 Si02
#       8
#     8   4   8   8   8   8   8   8
#     4  10  19  36  58  73  99 134 176 211 246 309
#     4  12  24  34  48  70 100 130 172 224 260 302
#     4  10  21  36  49  69  96 135 174 211 262 302
#     4   8  16  30  50  75 100 136 175 203 241 309
#     4  10  19  32  51  74 103 140 180 212 252 303
#     4  10  21  34  52  74 105 133 172 222 255 305
#     4  10  21  34  55  84 102 131 176 215 256 311
#     4  10  19  35  58  80 108 136 165 208 258 311
#
# _framework density 18.044741999999999
#
# number of rings (size 3 to 8) (size 9 to 14) (size 15 to 20)
#    0.000    2.133    0.667    2.800    0.000    3.200 
#    0.000    0.667    0.000    8.000    0.000   16.800 
#    0.000    0.000    0.000    0.000    0.000    0.000 
#
# Total GULP energy -167250.794163 kJ/mol
# GULP energy per Si atom -5575.026472 kJ/mol
# Density = 1.800367 g / cm^3
# Si number density = 18.044742 Si / 1000 Ang^3
#
#
#
# Elastic Constant Matrix: (Units=GPa)
#
#
# Indices 1 2 3 4 5 6 
#
# 1 81.3504 23.3643 -5.9399 0.0000 -20.8718 0.0000
# 2 23.3643 25.3878 -1.9585 0.0000 -11.6831 0.0000
# 3 -5.9399 -1.9585 76.0124 0.0000 0.1995 0.0000
# 4 0.0000 0.0000 0.0000 -6.3650 0.0000 20.9949
# 5 -20.8718 -11.6831 0.1995 0.0000 27.0064 0.0000
# 6 0.0000 0.0000 0.0000 20.9949 0.0000 -11.6907
#
#
#
# Elastic Compliance Matrix: (Units=1/GPa)
#
#
# Indices 1 2 3 4 5 6 
#
# 1 0.018231 -0.012754 0.001074 0.000000 0.008565 0.000000
# 2 -0.012754 0.058214 0.000463 0.000000 0.015323 0.000000
# 3 0.001074 0.000463 0.013249 0.000000 0.000932 0.000000
# 4 0.000000 0.000000 0.000000 0.031909 0.000000 0.057305
# 5 0.008565 0.015323 0.000932 0.000000 0.050269 0.000000
# 6 0.000000 0.000000 0.000000 0.057305 0.000000 0.017373
#
#
# Mechanical properties :
#
#
# Convention : Reuss Voigt Hill
#
# Bulk Modulus (GPa) = 14.86783 23.74248 19.30515
# Shear Modulus (GPa) = 21.35833 12.94245 17.15039
#
# Velocity S-wave (km/s) = 3.44413 2.68104 3.08626
# Velocity P-wave (km/s) = 4.90646 4.77180 4.83960
#
# Compressibility (1/GPa) = 0.06725931
#
# Stress axis : x y z
#
# Youngs Moduli (GPa) = 54.85056 17.17803 75.47668
#
# Poissons Ratio (x) = 0.21909 -0.08103
# Poissons Ratio (y) = 0.69957 -0.03495
# Poissons Ratio (z) = -0.05889 -0.00795
#
# Static dielectric constant tensor:
#      x y z
#    x 1.633050 0.000000 -0.008890 
#    y 0.000000 1.567290 0.000000 
#    z -0.008890 0.000000 1.633770 
# 
# From -- ./inp_files/18363.got.cif
#   From: 2010.05.17/outbox.cif.g08.bks.cpg/sg15_10_cif.got.tgz:18363.got - 2010.06.03 18:47:42.
