data_PCOD9261298
_publ_section_title
;
Structure prediction by ZEFSAII (Michael W. Deem and Ramdas Pophale) SiO2 
 PCOD9261298
Probable space group: C 2/C
;
_chemical_formula_sum "Si O2"
_cell_formula_units_Z 48
_cell_length_a 18.048614
_cell_length_b 22.025042
_cell_length_c 5.389988
_cell_angle_alpha 90.000000
_cell_angle_beta 67.968886
_cell_angle_gamma 90.000000
_cell_volume 1986.181356
_symmetry_space_group_name_H-M "C 2/C"
_symmetry_group_IT_number 15
_symmetry_cell_setting 'monoclinic'
loop_
_space_group_symop_operation_xyz
x,y,z
-x,y,1/2-z
-x,-y,-z
x,-y,1/2+z
1/2+x,1/2+y,z
1/2-x,1/2+y,1/2-z
1/2-x,1/2-y,-z
1/2+x,1/2-y,1/2+z
loop_
_atom_site_type_symbol
_atom_site_label
_atom_site_fract_x
_atom_site_fract_y
_atom_site_fract_z
Si Si1 0.421629 0.037134 0.778085
Si Si2 0.745250 0.933582 0.185703
Si Si3 0.340844 0.776312 0.360353
Si Si4 0.152982 0.153798 0.288751
Si Si5 0.606401 0.524445 0.485995
Si Si6 0.694172 0.159214 0.106226
O O1 0.500000 0.077248 0.750000
O O2 0.331057 0.059417 0.896128
O O3 0.428160 0.012327 0.489822
O O4 0.709225 0.909878 0.492897
O O5 0.804834 0.990605 0.127828
O O6 0.797186 0.879586 0.994850
O O7 0.250000 0.750000 0.500000
O O8 0.389157 0.713432 0.265781
O O9 0.342165 0.811771 0.097934
O O10 0.353781 0.816992 0.590727
O O11 0.106574 0.096566 0.456818
O O12 0.214510 0.175303 0.428438
O O13 0.571490 0.506037 0.788864
#
# Coordination Sequence:
#
# PCOD9261298 Si02
#       6
#     8   8   8   8   8   8
#     4  10  22  36  47  60  80 106 134 172 222 269
#     4  11  20  29  46  61  80  99 136 172 212 250
#     4  10  19  28  41  54  81 100 127 151 204 245
#     4  10  19  29  41  58  78 103 127 163 202 243
#     4  10  19  26  37  56  74  94 125 161 198 231
#     4  11  19  29  40  60  76 103 123 162 202 244
#
# _framework density 24.166979000000001
#
# number of rings (size 3 to 8) (size 9 to 14) (size 15 to 20)
#    0.000    1.667    5.000    4.000    2.333    0.000 
#    0.000    0.000    0.000    0.000    0.000    0.000 
#    0.000    0.000    0.000    0.000    0.000    0.000 
#
# Total GULP energy -133619.993491 kJ/mol
# GULP energy per Si atom -5567.499729 kJ/mol
# Density = 2.411197 g / cm^3
# Si number density = 24.166979 Si / 1000 Ang^3
#
#
#
# Elastic Constant Matrix: (Units=GPa)
#
#
# Indices 1 2 3 4 5 6 
#
# 1 46.6498 3.7299 25.8604 0.0000 7.2118 0.0000
# 2 3.7299 96.0578 53.7577 0.0000 -8.9646 0.0000
# 3 25.8604 53.7577 216.0515 0.0000 16.4630 0.0000
# 4 0.0000 0.0000 0.0000 34.6040 0.0000 16.1579
# 5 7.2118 -8.9646 16.4630 0.0000 25.8020 0.0000
# 6 0.0000 0.0000 0.0000 16.1579 0.0000 -4.4325
#
#
#
# Elastic Compliance Matrix: (Units=1/GPa)
#
#
# Indices 1 2 3 4 5 6 
#
# 1 0.023565 -0.000026 -0.002430 0.000000 -0.005045 0.000000
# 2 -0.000026 0.013204 -0.003818 0.000000 0.007031 0.000000
# 3 -0.002430 -0.003818 0.006221 0.000000 -0.004617 0.000000
# 4 0.000000 0.000000 0.000000 0.010695 0.000000 0.038985
# 5 -0.005045 0.007031 -0.004617 0.000000 0.045556 0.000000
# 6 0.000000 0.000000 0.000000 0.038985 0.000000 -0.083492
#
#
# Mechanical properties :
#
#
# Convention : Reuss Voigt Hill
#
# Bulk Modulus (GPa) = 32.84836 58.38391 45.61613
# Shear Modulus (GPa) = 130.05661 29.55544 79.80603
#
# Velocity S-wave (km/s) = 7.34389 3.50089 5.75278
# Velocity P-wave (km/s) = 9.24835 6.36809 7.93992
#
# Compressibility (1/GPa) = 0.03044292
#
# Stress axis : x y z
#
# Youngs Moduli (GPa) = 42.43521 75.73249 160.74126
#
# Poissons Ratio (x) = 0.00198 0.39055
# Poissons Ratio (y) = 0.00111 0.61373
# Poissons Ratio (z) = 0.10310 0.28916
#
# Static dielectric constant tensor:
#      x y z
#    x 2.059630 0.000000 0.015430 
#    y 0.000000 2.111470 0.000000 
#    z 0.015430 0.000000 2.047940 
# 
# From -- ./inp_files/13552.got.cif
#   From: 2010.05.17/outbox.cif.g08.bks.cpg/sg15_7_cif.got.tgz:13552.got - 2010.06.03 18:47:42.
