data_PCOD9261246
_publ_section_title
;
Structure prediction by ZEFSAII (Michael W. Deem and Ramdas Pophale) SiO2 
 PCOD9261246
Probable space group: C 2/C
;
_chemical_formula_sum "Si O2"
_cell_formula_units_Z 48
_cell_length_a 9.935506
_cell_length_b 22.940228
_cell_length_c 11.316617
_cell_angle_alpha 90.000000
_cell_angle_beta 119.063798
_cell_angle_gamma 90.000000
_cell_volume 2254.525706
_symmetry_space_group_name_H-M "C 2/C"
_symmetry_group_IT_number 15
_symmetry_cell_setting 'monoclinic'
loop_
_space_group_symop_operation_xyz
x,y,z
-x,y,1/2-z
-x,-y,-z
x,-y,1/2+z
1/2+x,1/2+y,z
1/2-x,1/2+y,1/2-z
1/2-x,1/2-y,-z
1/2+x,1/2-y,1/2+z
loop_
_atom_site_type_symbol
_atom_site_label
_atom_site_fract_x
_atom_site_fract_y
_atom_site_fract_z
Si Si1 0.888439 0.553306 0.478368
Si Si2 0.350460 0.521818 0.737641
Si Si3 0.459521 0.405133 0.873133
Si Si4 0.352611 0.154405 0.270975
Si Si5 0.226475 0.387530 0.349380
Si Si6 0.681432 0.754003 0.338108
O O1 0.727416 0.518598 0.394491
O O2 0.897564 0.603815 0.384251
O O3 0.887736 0.585383 0.602334
O O4 0.000000 0.500000 0.500000
O O5 0.500000 0.552432 0.750000
O O6 0.406853 0.472735 0.854108
O O7 0.239281 0.568704 0.745978
O O8 0.500000 0.392727 0.750000
O O9 0.307892 0.370299 0.850812
O O10 0.606307 0.389366 0.013996
O O11 0.500000 0.163013 0.250000
O O12 0.293256 0.212632 0.310077
O O13 0.189643 0.321394 0.303080
O O14 0.500000 0.736879 0.250000
O O15 0.750000 0.750000 0.500000
#
# Coordination Sequence:
#
# PCOD9261246 Si02
#       6
#     8   8   8   8   8   8
#     4  11  25  39  64 100 138 173 227 282 358 416
#     4  10  22  37  60  96 133 170 221 275 348 424
#     4  10  18  42  66  93 129 185 226 266 350 440
#     4  11  24  43  69  98 134 181 233 291 356 411
#     4  12  23  40  71  95 134 183 231 288 344 416
#     4  12  26  48  73  98 136 191 249 286 344 433
#
# _framework density 21.290510999999999
#
# number of rings (size 3 to 8) (size 9 to 14) (size 15 to 20)
#    0.000    1.000    6.667    2.000    7.000    0.667 
#    0.000    3.333    0.000    0.000    0.000    0.000 
#    0.000    0.000    0.000    0.000    0.000    0.000 
#
# Total GULP energy -134020.240248 kJ/mol
# GULP energy per Si atom -5584.176677 kJ/mol
# Density = 2.124205 g / cm^3
# Si number density = 21.290511 Si / 1000 Ang^3
#
#
#
# Elastic Constant Matrix: (Units=GPa)
#
#
# Indices 1 2 3 4 5 6 
#
# 1 175.1461 72.6772 27.5318 0.0000 -1.1066 0.0000
# 2 72.6772 174.0482 18.3330 0.0000 -13.9009 0.0000
# 3 27.5318 18.3330 52.0738 0.0000 7.4802 0.0000
# 4 0.0000 0.0000 0.0000 25.9532 0.0000 1.7939
# 5 -1.1066 -13.9009 7.4802 0.0000 30.4120 0.0000
# 6 0.0000 0.0000 0.0000 1.7939 0.0000 40.3633
#
#
#
# Elastic Compliance Matrix: (Units=1/GPa)
#
#
# Indices 1 2 3 4 5 6 
#
# 1 0.007306 -0.002776 -0.002842 0.000000 -0.000304 0.000000
# 2 -0.002776 0.007373 -0.001656 0.000000 0.003676 0.000000
# 3 -0.002842 -0.001656 0.022197 0.000000 -0.006320 0.000000
# 4 0.000000 0.000000 0.000000 0.038650 0.000000 -0.001718
# 5 -0.000304 0.003676 -0.006320 0.000000 0.036106 0.000000
# 6 0.000000 0.000000 0.000000 -0.001718 0.000000 0.024851
#
#
# Mechanical properties :
#
#
# Convention : Reuss Voigt Hill
#
# Bulk Modulus (GPa) = 44.78652 70.92801 57.85726
# Shear Modulus (GPa) = 31.55122 38.19412 34.87267
#
# Velocity S-wave (km/s) = 3.85377 4.24010 4.05154
# Velocity P-wave (km/s) = 6.39403 7.57350 7.00862
#
# Compressibility (1/GPa) = 0.02232815
#
# Stress axis : x y z
#
# Youngs Moduli (GPa) = 136.87142 135.63623 45.05122
#
# Poissons Ratio (x) = 0.37649 0.12803
# Poissons Ratio (y) = 0.37992 0.07461
# Poissons Ratio (z) = 0.38898 0.22463
#
# Static dielectric constant tensor:
#      x y z
#    x 1.820740 0.000000 0.066500 
#    y 0.000000 1.756030 0.000000 
#    z 0.066500 0.000000 1.846580 
# 
# From -- ./inp_files/79889.got.cif
#   From: 2010.05.17/outbox.cif.g08.bks.cpg/sg15_40_cif.got.tgz:79889.got - 2010.06.03 18:47:42.
