data_PCOD9261868
_publ_section_title
;
Structure prediction by ZEFSAII (Michael W. Deem and Ramdas Pophale) SiO2 
 PCOD9261868
Probable space group: C 2/C
;
_chemical_formula_sum "Si O2"
_cell_formula_units_Z 32
_cell_length_a 12.787645
_cell_length_b 30.685951
_cell_length_c 13.249813
_cell_angle_alpha 90.000000
_cell_angle_beta 157.794788
_cell_angle_gamma 90.000000
_cell_volume 1964.923012
_symmetry_space_group_name_H-M "C 2/C"
_symmetry_group_IT_number 15
_symmetry_cell_setting 'monoclinic'
loop_
_space_group_symop_operation_xyz
x,y,z
-x,y,1/2-z
-x,-y,-z
x,-y,1/2+z
1/2+x,1/2+y,z
1/2-x,1/2+y,1/2-z
1/2-x,1/2-y,-z
1/2+x,1/2-y,1/2+z
loop_
_atom_site_type_symbol
_atom_site_label
_atom_site_fract_x
_atom_site_fract_y
_atom_site_fract_z
Si Si1 0.208031 0.450862 0.785851
Si Si2 0.702119 0.361129 0.524011
Si Si3 0.173694 0.007312 0.310343
Si Si4 0.571016 0.274595 0.193255
O O1 0.219502 0.402069 0.837061
O O2 0.228393 0.456716 0.682997
O O3 0.935092 0.477631 0.574073
O O4 0.468742 0.475159 0.067568
O O5 0.534295 0.322597 0.429261
O O6 0.000000 0.343771 0.750000
O O7 0.500000 0.374538 0.250000
O O8 0.000000 0.024305 0.250000
O O9 0.500000 0.273008 0.250000
O O10 0.888748 0.261373 0.473165
#
# Coordination Sequence:
#
# PCOD9261868 Si02
#       4
#     8   8   8   8
#     4  10  20  30  44  65  83 109 146 174 206 252
#     4  11  19  27  42  61  85 112 139 173 204 242
#     4  10  19  32  46  60  85 113 139 176 214 246
#     4   9  16  26  38  55  80 110 137 161 200 248
#
# _framework density 16.285623999999999
#
# number of rings (size 3 to 8) (size 9 to 14) (size 15 to 20)
#    0.000    2.000    0.000    8.250    0.000    0.000 
#    0.000    0.000    0.000    0.000    0.000    0.000 
#    0.000    2.000    0.000    0.000    0.000   24.000 
#
# Total GULP energy -89167.456967 kJ/mol
# GULP energy per Si atom -5572.966060 kJ/mol
# Density = 1.624856 g / cm^3
# Si number density = 16.285624 Si / 1000 Ang^3
#
#
#
# Elastic Constant Matrix: (Units=GPa)
#
#
# Indices 1 2 3 4 5 6 
#
# 1 65.4089 20.3542 3.4755 0.0002 -0.6468 -0.0002
# 2 20.3542 83.5351 34.4076 -0.0001 -8.4040 0.0001
# 3 3.4755 34.4076 82.9989 -0.0008 1.6320 0.0000
# 4 0.0002 -0.0001 -0.0008 32.9840 -0.0013 -6.9917
# 5 -0.6468 -8.4040 1.6320 -0.0013 15.1664 0.0001
# 6 -0.0002 0.0001 0.0000 -6.9917 0.0001 11.1894
#
#
#
# Elastic Compliance Matrix: (Units=1/GPa)
#
#
# Indices 1 2 3 4 5 6 
#
# 1 0.016701 -0.004837 0.001347 0.000000 -0.002113 0.000000
# 2 -0.004837 0.017069 -0.007070 0.000000 0.010013 0.000000
# 3 0.001347 -0.007070 0.015031 0.000000 -0.005478 0.000000
# 4 0.000000 0.000000 0.000000 0.034946 0.000003 0.021836
# 5 -0.002113 0.010013 -0.005478 0.000003 0.071983 0.000001
# 6 0.000000 0.000000 0.000000 0.021836 0.000001 0.103014
#
#
# Mechanical properties :
#
#
# Convention : Reuss Voigt Hill
#
# Bulk Modulus (GPa) = 36.12584 38.71305 37.41944
# Shear Modulus (GPa) = 17.29555 23.44835 20.37195
#
# Velocity S-wave (km/s) = 3.26239 3.79861 3.54067
# Velocity P-wave (km/s) = 6.03504 6.56218 6.30412
#
# Compressibility (1/GPa) = 0.02768102
#
# Stress axis : x y z
#
# Youngs Moduli (GPa) = 59.87614 58.58503 66.53038
#
# Poissons Ratio (x) = 0.28337 -0.08964
# Poissons Ratio (y) = 0.28962 0.47040
# Poissons Ratio (z) = -0.08068 0.41422
#
# Static dielectric constant tensor:
#      x y z
#    x 1.566030 0.000000 0.001800 
#    y 0.000000 1.579670 0.000000 
#    z 0.001800 0.000000 1.580970 
# 
# From -- ./inp_files/5224.got.cif
#   From: 2010.05.17/outbox.cif.g08.bks.cpg/sg15_3_cif.got.tgz:5224.got - 2010.06.03 18:47:42.
