data_PCOD9261085
_publ_section_title
;
Structure prediction by ZEFSAII (Michael W. Deem and Ramdas Pophale) SiO2 
 PCOD9261085
Probable space group: C 2/C
;
_chemical_formula_sum "Si O2"
_cell_formula_units_Z 64
_cell_length_a 20.693207
_cell_length_b 12.030629
_cell_length_c 26.449636
_cell_angle_alpha 90.000000
_cell_angle_beta 148.015445
_cell_angle_gamma 90.000000
_cell_volume 3487.852695
_symmetry_space_group_name_H-M "C 2/C"
_symmetry_group_IT_number 15
_symmetry_cell_setting 'monoclinic'
loop_
_space_group_symop_operation_xyz
x,y,z
-x,y,1/2-z
-x,-y,-z
x,-y,1/2+z
1/2+x,1/2+y,z
1/2-x,1/2+y,1/2-z
1/2-x,1/2-y,-z
1/2+x,1/2-y,1/2+z
loop_
_atom_site_type_symbol
_atom_site_label
_atom_site_fract_x
_atom_site_fract_y
_atom_site_fract_z
Si Si1 0.481197 0.394164 0.085348
Si Si2 0.712068 0.541100 0.218503
Si Si3 0.052847 0.575094 0.580528
Si Si4 0.684961 0.837075 0.524130
Si Si5 0.413089 0.656810 0.740528
Si Si6 0.325399 0.715047 0.394627
Si Si7 0.128739 0.102132 0.269996
Si Si8 0.135143 0.894598 0.938990
O O1 0.607151 0.446557 0.147788
O O2 0.515556 0.327344 0.159056
O O3 0.399048 0.497581 0.050938
O O4 0.414005 0.326592 0.997612
O O5 0.842140 0.488151 0.318479
O O6 0.705430 0.615456 0.164401
O O7 0.674170 0.613614 0.242571
O O8 0.112140 0.685267 0.595369
O O9 0.000000 0.500000 0.500000
O O10 0.938857 0.607578 0.539468
O O11 0.782725 0.834236 0.634184
O O12 0.750277 0.904421 0.522180
O O13 0.657920 0.712837 0.487971
O O14 0.500000 0.667219 0.750000
O O15 0.298339 0.737339 0.663525
O O16 0.364848 0.529230 0.711864
O O17 0.985561 0.129080 0.175002
#
# Coordination Sequence:
#
# PCOD9261085 Si02
#       8
#     8   8   8   8   8   8   8   8
#     4  10  22  43  65  85 123 166 203 250 302 376
#     4  10  22  41  59  90 123 155 203 244 309 370
#     4  12  23  38  62  95 120 156 203 260 308 357
#     4  11  20  36  63  89 121 153 204 254 301 357
#     4  10  21  40  64  90 116 160 208 245 297 364
#     4  12  24  42  62  91 125 162 202 254 315 367
#     4  10  18  40  63  82 117 158 204 250 289 363
#     4   9  21  39  58  90 116 161 204 238 308 371
#
# _framework density 18.349398999999998
#
# number of rings (size 3 to 8) (size 9 to 14) (size 15 to 20)
#    0.000    1.750    3.750    3.750    1.750    0.500 
#    9.000    0.000    0.000    0.000    0.000    0.000 
#    0.000    0.000    0.000    0.000    0.000    0.000 
#
# Total GULP energy -178701.459271 kJ/mol
# GULP energy per Si atom -5584.420602 kJ/mol
# Density = 1.830763 g / cm^3
# Si number density = 18.349399 Si / 1000 Ang^3
#
#
#
# Elastic Constant Matrix: (Units=GPa)
#
#
# Indices 1 2 3 4 5 6 
#
# 1 67.2608 16.6451 40.3436 0.0000 13.4522 0.0001
# 2 16.6451 39.2384 62.4544 0.0008 -8.5586 -0.0002
# 3 40.3436 62.4544 126.3973 0.0007 -9.7456 -0.0001
# 4 0.0000 0.0008 0.0007 35.6726 0.0001 -0.4690
# 5 13.4522 -8.5586 -9.7456 0.0001 32.6340 0.0000
# 6 0.0001 -0.0002 -0.0001 -0.4690 0.0000 16.4433
#
#
#
# Elastic Compliance Matrix: (Units=1/GPa)
#
#
# Indices 1 2 3 4 5 6 
#
# 1 0.021953 0.003718 -0.009690 0.000000 -0.010968 0.000000
# 2 0.003718 0.126582 -0.062735 -0.000002 0.012930 0.000001
# 3 -0.009690 -0.062735 0.042009 0.000001 0.000087 0.000000
# 4 0.000000 -0.000002 0.000001 0.028043 0.000000 0.000800
# 5 -0.010968 0.012930 0.000087 0.000000 0.038581 0.000000
# 6 0.000000 0.000001 0.000000 0.000800 0.000000 0.060838
#
#
# Mechanical properties :
#
#
# Convention : Reuss Voigt Hill
#
# Bulk Modulus (GPa) = 18.82184 52.42030 35.62107
# Shear Modulus (GPa) = 10.56793 24.51354 17.54073
#
# Velocity S-wave (km/s) = 2.40245 3.65900 3.09517
# Velocity P-wave (km/s) = 4.23975 6.81770 5.67699
#
# Compressibility (1/GPa) = 0.05312976
#
# Stress axis : x y z
#
# Youngs Moduli (GPa) = 45.55184 7.90004 23.80433
#
# Poissons Ratio (x) = -0.02937 0.23066
# Poissons Ratio (y) = -0.16935 1.49337
# Poissons Ratio (z) = 0.44138 0.49561
#
# Static dielectric constant tensor:
#      x y z
#    x 1.638090 0.000000 -0.001510 
#    y 0.000000 1.617590 0.000000 
#    z -0.001510 0.000000 1.627410 
# 
# From -- ./inp_files/300858.got.cif
#   From: 2010.05.17/outbox.cif.g08.bks.cpg/sg15_151_cif.got.tgz:300858.got - 2010.06.03 18:47:42.
