data_PCOD9261355
_publ_section_title
;
Structure prediction by ZEFSAII (Michael W. Deem and Ramdas Pophale) SiO2 
 PCOD9261355
Probable space group: C 2/C
;
_chemical_formula_sum "Si O2"
_cell_formula_units_Z 56
_cell_length_a 18.915580
_cell_length_b 23.662306
_cell_length_c 5.558169
_cell_angle_alpha 90.000000
_cell_angle_beta 67.429753
_cell_angle_gamma 90.000000
_cell_volume 2297.221575
_symmetry_space_group_name_H-M "C 2/C"
_symmetry_group_IT_number 15
_symmetry_cell_setting 'monoclinic'
loop_
_space_group_symop_operation_xyz
x,y,z
-x,y,1/2-z
-x,-y,-z
x,-y,1/2+z
1/2+x,1/2+y,z
1/2-x,1/2+y,1/2-z
1/2-x,1/2-y,-z
1/2+x,1/2-y,1/2+z
loop_
_atom_site_type_symbol
_atom_site_label
_atom_site_fract_x
_atom_site_fract_y
_atom_site_fract_z
Si Si1 0.321063 0.133060 0.463085
Si Si2 0.414182 0.467869 0.402858
Si Si3 0.150887 0.191810 0.150857
Si Si4 0.670073 0.824550 0.050269
Si Si5 0.738039 0.993591 0.440674
Si Si6 0.919601 0.465111 0.364041
Si Si7 0.353384 0.650423 0.842601
O O1 0.361424 0.149798 0.659209
O O2 0.303265 0.066787 0.497056
O O3 0.237849 0.163946 0.565939
O O4 0.360541 0.150582 0.161593
O O5 0.500000 0.443423 0.250000
O O6 0.411722 0.485958 0.687669
O O7 0.361075 0.414901 0.399857
O O8 0.157388 0.257637 0.079167
O O9 0.116340 0.183297 0.462073
O O10 0.237459 0.166499 0.065046
O O11 0.113763 0.162808 0.965068
O O12 0.780609 0.995778 0.132916
O O13 0.673018 0.042959 0.519927
O O14 0.925079 0.498050 0.611420
O O15 0.000000 0.430368 0.250000
#
# Coordination Sequence:
#
# PCOD9261355 Si02
#       7
#     8   8   8   8   8   8   8
#     4  10  19  29  44  68  97 126 153 185 233 289
#     4  10  21  36  52  71  98 131 167 208 250 290
#     4   9  17  30  49  71  93 116 149 194 232 272
#     4   9  17  30  46  67  95 121 148 186 232 279
#     4  10  19  29  41  61  90 120 150 182 217 262
#     4   8  14  25  40  56  74 100 138 178 206 230
#     4  10  19  31  49  72  93 120 158 191 232 287
#
# _framework density 24.377272000000001
#
# number of rings (size 3 to 8) (size 9 to 14) (size 15 to 20)
#    0.000    2.571    0.000    2.571    0.000    4.571 
#    0.000    0.000    0.000    0.000    0.000    6.000 
#    0.000    0.000    0.000    0.000    0.000    0.000 
#
# Total GULP energy -155962.565130 kJ/mol
# GULP energy per Si atom -5570.091612 kJ/mol
# Density = 2.432179 g / cm^3
# Si number density = 24.377272 Si / 1000 Ang^3
#
#
#
# Elastic Constant Matrix: (Units=GPa)
#
#
# Indices 1 2 3 4 5 6 
#
# 1 45.4062 -4.6566 16.2301 0.0000 19.3872 0.0000
# 2 -4.6566 71.5038 42.9742 0.0000 18.3269 0.0000
# 3 16.2301 42.9742 229.9057 0.0000 47.8832 0.0000
# 4 0.0000 0.0000 0.0000 37.7144 0.0000 13.6923
# 5 19.3872 18.3269 47.8832 0.0000 51.7752 0.0000
# 6 0.0000 0.0000 0.0000 13.6923 0.0000 12.3868
#
#
#
# Elastic Compliance Matrix: (Units=1/GPa)
#
#
# Indices 1 2 3 4 5 6 
#
# 1 0.027734 0.005098 -0.000461 0.000000 -0.011763 0.000000
# 2 0.005098 0.017232 -0.002369 0.000000 -0.005817 0.000000
# 3 -0.000461 -0.002369 0.005715 0.000000 -0.004274 0.000000
# 4 0.000000 0.000000 0.000000 0.044289 0.000000 -0.048957
# 5 -0.011763 -0.005817 -0.004274 0.000000 0.029731 0.000000
# 6 0.000000 0.000000 0.000000 -0.048957 0.000000 0.134848
#
#
# Mechanical properties :
#
#
# Convention : Reuss Voigt Hill
#
# Bulk Modulus (GPa) = 18.11038 50.65679 34.38359
# Shear Modulus (GPa) = 18.28690 39.85980 29.07335
#
# Velocity S-wave (km/s) = 2.74188 4.04805 3.45721
# Velocity P-wave (km/s) = 4.17962 6.53256 5.48378
#
# Compressibility (1/GPa) = 0.05521694
#
# Stress axis : x y z
#
# Youngs Moduli (GPa) = 36.05741 58.03045 174.96980
#
# Poissons Ratio (x) = -0.29584 0.08063
# Poissons Ratio (y) = -0.18382 0.41457
# Poissons Ratio (z) = 0.01662 0.13750
#
# Static dielectric constant tensor:
#      x y z
#    x 2.060040 0.000000 -0.037310 
#    y 0.000000 2.035050 0.000000 
#    z -0.037310 0.000000 2.059980 
# 
# From -- ./inp_files/15812.got.cif
#   From: 2010.05.17/outbox.cif.g08.bks.cpg/sg15_8_cif.got.tgz:15812.got - 2010.06.03 18:47:42.
