data_PCOD9261691
_publ_section_title
;
Structure prediction by ZEFSAII (Michael W. Deem and Ramdas Pophale) SiO2 
 PCOD9261691
Probable space group: C 2/C
;
_chemical_formula_sum "Si O2"
_cell_formula_units_Z 56
_cell_length_a 13.249387
_cell_length_b 19.453755
_cell_length_c 11.758304
_cell_angle_alpha 90.000000
_cell_angle_beta 66.647227
_cell_angle_gamma 90.000000
_cell_volume 2782.436285
_symmetry_space_group_name_H-M "C 2/C"
_symmetry_group_IT_number 15
_symmetry_cell_setting 'monoclinic'
loop_
_space_group_symop_operation_xyz
x,y,z
-x,y,1/2-z
-x,-y,-z
x,-y,1/2+z
1/2+x,1/2+y,z
1/2-x,1/2+y,1/2-z
1/2-x,1/2-y,-z
1/2+x,1/2-y,1/2+z
loop_
_atom_site_type_symbol
_atom_site_label
_atom_site_fract_x
_atom_site_fract_y
_atom_site_fract_z
Si Si1 0.124968 0.023247 0.438849
Si Si2 0.774365 0.335594 0.589839
Si Si3 0.231639 0.192528 0.677386
Si Si4 0.540802 0.760828 0.855197
Si Si5 0.869859 0.697198 0.816086
Si Si6 0.634944 0.528699 0.186392
Si Si7 0.162681 0.821882 0.962521
O O1 0.165683 0.994895 0.296561
O O2 0.130481 0.105960 0.425342
O O3 0.165566 0.004459 0.549092
O O4 0.000000 0.000000 0.500000
O O5 0.884138 0.314209 0.610566
O O6 0.821490 0.345622 0.441945
O O7 0.690324 0.270842 0.636592
O O8 0.703250 0.400752 0.655415
O O9 0.116630 0.194088 0.794358
O O10 0.325781 0.167252 0.717195
O O11 0.217127 0.162330 0.560190
O O12 0.255001 0.274053 0.644059
O O13 0.500000 0.786235 0.750000
O O14 0.438984 0.729845 0.969997
O O15 0.000000 0.704636 0.750000
O O16 0.500000 0.536440 0.250000
#
# Coordination Sequence:
#
# PCOD9261691 Si02
#       7
#     8   8   8   8   8   8   8
#     4  10  22  36  56  81 113 154 186 229 285 333
#     4  10  20  32  52  81 113 155 187 220 290 344
#     4   9  19  31  51  79 104 144 180 219 279 323
#     4   9  18  31  51  77 106 139 178 225 269 327
#     4  10  19  31  49  80 117 147 182 234 286 339
#     4  10  22  38  55  81 114 150 191 231 276 338
#     4  10  19  35  54  79 112 141 181 224 271 334
#
# _framework density 20.126246999999999
#
# number of rings (size 3 to 8) (size 9 to 14) (size 15 to 20)
#    0.000    2.286    0.000    3.000    0.000   14.286 
#    0.000    0.000    0.000    0.000    0.000   41.000 
#    0.000    0.000    0.000    0.000    0.000    0.000 
#
# Total GULP energy -155868.725922 kJ/mol
# GULP energy per Si atom -5566.740211 kJ/mol
# Density = 2.008044 g / cm^3
# Si number density = 20.126247 Si / 1000 Ang^3
#
#
#
# Elastic Constant Matrix: (Units=GPa)
#
#
# Indices 1 2 3 4 5 6 
#
# 1 103.7429 16.1947 45.9320 0.0000 4.9812 0.0000
# 2 16.1947 52.7188 16.5932 0.0000 4.7596 0.0000
# 3 45.9320 16.5932 138.1517 0.0000 19.1658 0.0000
# 4 0.0000 0.0000 0.0000 5.0834 0.0000 -0.4957
# 5 4.9812 4.7596 19.1658 0.0000 37.3338 0.0000
# 6 0.0000 0.0000 0.0000 -0.4957 0.0000 25.3596
#
#
#
# Elastic Compliance Matrix: (Units=1/GPa)
#
#
# Indices 1 2 3 4 5 6 
#
# 1 0.011612 -0.002475 -0.003652 0.000000 0.000641 0.000000
# 2 -0.002475 0.020309 -0.001403 0.000000 -0.001539 0.000000
# 3 -0.003652 -0.001403 0.009183 0.000000 -0.004048 0.000000
# 4 0.000000 0.000000 0.000000 0.197093 0.000000 0.003852
# 5 0.000641 -0.001539 -0.004048 0.000000 0.028974 0.000000
# 6 0.000000 0.000000 0.000000 0.003852 0.000000 0.039508
#
#
# Mechanical properties :
#
#
# Convention : Reuss Voigt Hill
#
# Bulk Modulus (GPa) = 38.39803 50.22813 44.31308
# Shear Modulus (GPa) = 15.13218 27.94828 21.54023
#
# Velocity S-wave (km/s) = 2.74499 3.73050 3.27503
# Velocity P-wave (km/s) = 5.40061 6.60047 6.03046
#
# Compressibility (1/GPa) = 0.02604300
#
# Stress axis : x y z
#
# Youngs Moduli (GPa) = 86.11860 49.23820 108.89942
#
# Poissons Ratio (x) = 0.12188 0.39773
# Poissons Ratio (y) = 0.21318 0.15277
# Poissons Ratio (z) = 0.31453 0.06907
#
# Static dielectric constant tensor:
#      x y z
#    x 1.732280 0.000000 0.103420 
#    y 0.000000 1.693690 0.000000 
#    z 0.103420 0.000000 1.419800 
# 
# From -- ./inp_files/89565.got.cif
#   From: 2010.05.17/outbox.cif.g08.bks.cpg/sg15_45_cif.got.tgz:89565.got - 2010.06.03 18:47:42.
