data_PCOD9261052
_publ_section_title
;
Structure prediction by ZEFSAII (Michael W. Deem and Ramdas Pophale) SiO2 
 PCOD9261052
Probable space group: C 2/C
;
_chemical_formula_sum "Si O2"
_cell_formula_units_Z 52
_cell_length_a 31.128234
_cell_length_b 4.964647
_cell_length_c 22.963532
_cell_angle_alpha 90.000000
_cell_angle_beta 143.661179
_cell_angle_gamma 90.000000
_cell_volume 2102.873840
_symmetry_space_group_name_H-M "C 2/C"
_symmetry_group_IT_number 15
_symmetry_cell_setting 'monoclinic'
loop_
_space_group_symop_operation_xyz
x,y,z
-x,y,1/2-z
-x,-y,-z
x,-y,1/2+z
1/2+x,1/2+y,z
1/2-x,1/2+y,1/2-z
1/2-x,1/2-y,-z
1/2+x,1/2-y,1/2+z
loop_
_atom_site_type_symbol
_atom_site_label
_atom_site_fract_x
_atom_site_fract_y
_atom_site_fract_z
Si Si1 0.600100 0.869516 0.005073
Si Si2 0.192314 0.618042 0.331256
Si Si3 0.000000 0.562901 0.250000
Si Si4 0.793097 0.550898 0.283536
Si Si5 0.385886 0.539794 0.674941
Si Si6 0.963432 0.334752 0.327970
Si Si7 0.151831 0.143165 0.487597
O O1 0.642547 0.897613 0.112464
O O2 0.643193 0.072232 0.009559
O O3 0.607286 0.578321 0.980268
O O4 0.520853 0.007580 0.930303
O O5 0.191188 0.684273 0.261676
O O6 0.185173 0.854283 0.370576
O O7 0.116992 0.457226 0.257383
O O8 0.265673 0.458789 0.422088
O O9 0.069112 0.745591 0.313299
O O10 0.996455 0.387205 0.189287
O O11 0.736404 0.306169 0.212595
O O12 0.439391 0.471431 0.788481
O O13 0.368068 0.336520 0.603093
#
# Coordination Sequence:
#
# PCOD9261052 Si02
#       7
#     8   8   4   8   8   8   8
#     4  12  25  47  77 105 140 200 248 294 360 448
#     4  11  27  44  70 109 143 188 243 310 363 424
#     4  10  18  40  60  96 138 194 218 282 352 430
#     4  12  25  50  77 101 142 194 250 307 359 431
#     4  11  24  41  69 103 151 185 239 297 364 432
#     4  11  25  41  69 106 149 184 240 296 367 433
#     4  12  25  46  75 105 145 195 247 289 369 437
#
# _framework density 24.728065999999998
#
# number of rings (size 3 to 8) (size 9 to 14) (size 15 to 20)
#    0.000    0.615    4.615    2.769    8.615    1.231 
#    0.000    0.769    0.000    0.000    0.000    0.000 
#    0.000    0.000    0.000    0.000    0.000    0.000 
#
# Total GULP energy -144975.145158 kJ/mol
# GULP energy per Si atom -5575.967121 kJ/mol
# Density = 2.467178 g / cm^3
# Si number density = 24.728066 Si / 1000 Ang^3
#
#
#
# Elastic Constant Matrix: (Units=GPa)
#
#
# Indices 1 2 3 4 5 6 
#
# 1 73.4480 -0.9184 12.4578 0.0014 3.5545 -0.0011
# 2 -0.9184 76.4487 -12.9944 -0.0049 -1.4287 -0.0093
# 3 12.4578 -12.9944 101.1845 0.0026 6.8703 0.0009
# 4 0.0014 -0.0049 0.0026 26.7943 -0.0015 -1.5543
# 5 3.5545 -1.4287 6.8703 -0.0015 47.7985 -0.0033
# 6 -0.0011 -0.0093 0.0009 -1.5543 -0.0033 24.7505
#
#
#
# Elastic Compliance Matrix: (Units=1/GPa)
#
#
# Indices 1 2 3 4 5 6 
#
# 1 0.013937 -0.000133 -0.001679 -0.000001 -0.000799 0.000000
# 2 -0.000133 0.013375 0.001723 0.000003 0.000162 0.000005
# 3 -0.001679 0.001723 0.010400 -0.000001 -0.001319 0.000000
# 4 -0.000001 0.000003 -0.000001 0.037458 0.000002 0.002352
# 5 -0.000799 0.000162 -0.001319 0.000002 0.021175 0.000003
# 6 0.000000 0.000005 0.000000 0.002352 0.000003 0.040551
#
#
# Mechanical properties :
#
#
# Convention : Reuss Voigt Hill
#
# Bulk Modulus (GPa) = 26.64173 27.57460 27.10816
# Shear Modulus (GPa) = 33.42586 36.70440 35.06513
#
# Velocity S-wave (km/s) = 3.68059 3.85687 3.76976
# Velocity P-wave (km/s) = 5.37211 5.56860 5.47124
#
# Compressibility (1/GPa) = 0.03753510
#
# Stress axis : x y z
#
# Youngs Moduli (GPa) = 71.75244 74.76657 96.14994
#
# Poissons Ratio (x) = 0.00993 0.16141
# Poissons Ratio (y) = 0.00953 -0.16567
# Poissons Ratio (z) = 0.12045 -0.12882
#
# Static dielectric constant tensor:
#      x y z
#    x 1.936180 0.000000 0.004010 
#    y 0.000000 2.093220 0.000000 
#    z 0.004010 0.000000 2.237000 
# 
# From -- ./inp_files/258411.got.cif
#   From: 2010.05.17/outbox.cif.g08.bks.cpg/sg15_130_cif.got.tgz:258411.got - 2010.06.03 18:47:42.
