data_PCOD9261620
_publ_section_title
;
Structure prediction by ZEFSAII (Michael W. Deem and Ramdas Pophale) SiO2 
 PCOD9261620
Probable space group: C 2/C
;
_chemical_formula_sum "Si O2"
_cell_formula_units_Z 52
_cell_length_a 23.605643
_cell_length_b 20.476507
_cell_length_c 5.735505
_cell_angle_alpha 90.000000
_cell_angle_beta 43.204821
_cell_angle_gamma 90.000000
_cell_volume 1897.953732
_symmetry_space_group_name_H-M "C 2/C"
_symmetry_group_IT_number 15
_symmetry_cell_setting 'monoclinic'
loop_
_space_group_symop_operation_xyz
x,y,z
-x,y,1/2-z
-x,-y,-z
x,-y,1/2+z
1/2+x,1/2+y,z
1/2-x,1/2+y,1/2-z
1/2-x,1/2-y,-z
1/2+x,1/2-y,1/2+z
loop_
_atom_site_type_symbol
_atom_site_label
_atom_site_fract_x
_atom_site_fract_y
_atom_site_fract_z
Si Si1 0.827441 0.499077 0.767677
Si Si2 0.500000 0.965471 0.250000
Si Si3 0.202088 0.317988 0.643735
Si Si4 0.174835 0.357040 0.225494
Si Si5 0.000000 0.772015 0.250000
Si Si6 0.870883 0.110990 0.137349
Si Si7 0.500000 0.274034 0.750000
Si Si8 0.129542 0.108253 0.861376
O O1 0.782623 0.500000 0.652129
O O2 0.901298 0.445404 0.546107
O O3 0.866877 0.572010 0.649371
O O4 0.500000 0.000000 0.500000
O O5 0.250000 0.250000 0.500000
O O6 0.158904 0.322504 0.520309
O O7 0.272688 0.374716 0.431935
O O8 0.158904 0.322505 0.026260
O O9 0.274172 0.370193 0.927483
O O10 0.922241 0.821590 0.483275
O O11 0.000000 0.737895 0.501866
O O12 0.890549 0.077990 0.326618
O O13 0.890549 0.077990 0.830089
O O14 0.578312 0.323493 0.515065
#
# Coordination Sequence:
#
# PCOD9261620 Si02
#       8
#     8   4   8   8   4   8   4   8
#     4  10  19  33  53  77 101 127 161 206 254 306
#     4   8  16  30  50  74  98 124 158 196 244 308
#     4  10  19  31  46  66  94 129 162 194 232 285
#     4  10  19  31  48  71  95 122 159 200 242 287
#     4   8  12  20  34  54  79 105 138 176 215 257
#     4   8  14  23  37  59  83 108 141 179 218 260
#     4   8  12  20  34  52  73 101 136 184 223 245
#     4   8  14  23  37  55  78 106 142 183 220 254
#
# _framework density 27.397928
#
# number of rings (size 3 to 8) (size 9 to 14) (size 15 to 20)
#    0.000    3.077    0.000    1.385    0.000    0.000 
#    0.000    0.000    0.000    1.846    0.000    3.231 
#    0.000    0.000    0.000    0.000    0.000    0.000 
#
# Total GULP energy -144807.864158 kJ/mol
# GULP energy per Si atom -5569.533237 kJ/mol
# Density = 2.733557 g / cm^3
# Si number density = 27.397928 Si / 1000 Ang^3
#
#
#
# Elastic Constant Matrix: (Units=GPa)
#
#
# Indices 1 2 3 4 5 6 
#
# 1 136.4230 24.2058 124.7350 0.0000 58.3268 0.0000
# 2 24.2058 68.4146 29.7539 0.0000 19.6538 0.0000
# 3 124.7350 29.7539 179.4335 0.0000 94.0052 0.0000
# 4 0.0000 0.0000 0.0000 -13.7416 0.0000 36.7463
# 5 58.3268 19.6538 94.0052 0.0000 140.4527 0.0000
# 6 0.0000 0.0000 0.0000 36.7463 0.0000 -24.1186
#
#
#
# Elastic Compliance Matrix: (Units=1/GPa)
#
#
# Indices 1 2 3 4 5 6 
#
# 1 0.020434 -0.001238 -0.014852 0.000000 0.001628 0.000000
# 2 -0.001238 0.015873 -0.001351 0.000000 -0.000803 0.000000
# 3 -0.014852 -0.001351 0.019699 0.000000 -0.006828 0.000000
# 4 0.000000 0.000000 0.000000 0.023672 0.000000 0.036066
# 5 0.001628 -0.000803 -0.006828 0.000000 0.011126 0.000000
# 6 0.000000 0.000000 0.000000 0.036066 0.000000 0.013487
#
#
# Mechanical properties :
#
#
# Convention : Reuss Voigt Hill
#
# Bulk Modulus (GPa) = 47.34205 82.40673 64.87439
# Shear Modulus (GPa) = 34.19652 34.22358 34.21005
#
# Velocity S-wave (km/s) = 3.53674 3.53814 3.53744
# Velocity P-wave (km/s) = 5.83052 6.84356 6.35725
#
# Compressibility (1/GPa) = 0.02112287
#
# Stress axis : x y z
#
# Youngs Moduli (GPa) = 48.93917 63.00045 50.76429
#
# Poissons Ratio (x) = 0.07799 0.75397
# Poissons Ratio (y) = 0.06059 0.06857
# Poissons Ratio (z) = 0.72686 0.08510
#
# Static dielectric constant tensor:
#      x y z
#    x 2.156550 0.000000 0.045160 
#    y 0.000000 2.161540 0.000000 
#    z 0.045160 0.000000 2.169290 
# 
# From -- ./inp_files/13346.got.cif
#   From: 2010.05.17/outbox.cif.g08.bks.cpg/sg15_7_cif.got.tgz:13346.got - 2010.06.03 18:47:42.
