data_PCOD9261150
_publ_section_title
;
Structure prediction by ZEFSAII (Michael W. Deem and Ramdas Pophale) SiO2 
 PCOD9261150
Probable space group: C 2/C
;
_chemical_formula_sum "Si O2"
_cell_formula_units_Z 40
_cell_length_a 15.759787
_cell_length_b 6.792736
_cell_length_c 14.065251
_cell_angle_alpha 90.000000
_cell_angle_beta 74.079589
_cell_angle_gamma 90.000000
_cell_volume 1447.960572
_symmetry_space_group_name_H-M "C 2/C"
_symmetry_group_IT_number 15
_symmetry_cell_setting 'monoclinic'
loop_
_space_group_symop_operation_xyz
x,y,z
-x,y,1/2-z
-x,-y,-z
x,-y,1/2+z
1/2+x,1/2+y,z
1/2-x,1/2+y,1/2-z
1/2-x,1/2-y,-z
1/2+x,1/2-y,1/2+z
loop_
_atom_site_type_symbol
_atom_site_label
_atom_site_fract_x
_atom_site_fract_y
_atom_site_fract_z
Si Si1 0.004435 0.768313 0.638517
Si Si2 0.633809 0.163163 0.448276
Si Si3 0.473244 0.735962 0.866709
Si Si4 0.335842 0.572875 0.159115
Si Si5 0.204103 0.126297 0.638829
O O1 0.088512 0.669805 0.565287
O O2 0.000000 0.718681 0.750000
O O3 0.908691 0.757231 0.618837
O O4 0.011278 0.003880 0.621168
O O5 0.544953 0.148901 0.408256
O O6 0.664510 0.384575 0.409154
O O7 0.718124 0.019822 0.418765
O O8 0.500000 0.782680 0.750000
O O9 0.366898 0.726004 0.909540
O O10 0.245151 0.687911 0.180122
O O11 0.346340 0.497087 0.264080
#
# Coordination Sequence:
#
# PCOD9261150 Si02
#       5
#     8   8   8   8   8
#     4  10  21  44  69  93 140 197 237 296 368 428
#     4  11  24  43  71 104 143 193 244 296 368 453
#     4  10  18  40  67  99 144 184 228 293 371 438
#     4  11  21  41  69 102 144 185 235 304 366 446
#     4  12  22  40  72 105 146 187 237 301 375 446
#
# _framework density 27.625060999999999
#
# number of rings (size 3 to 8) (size 9 to 14) (size 15 to 20)
#    0.000    1.200    8.000    2.400    0.000    1.600 
#    0.000   11.000    0.000    6.000    0.000    0.000 
#    0.000    0.000    0.000    0.000    0.000    0.000 
#
# Total GULP energy -111877.323980 kJ/mol
# GULP energy per Si atom -5593.866199 kJ/mol
# Density = 2.756219 g / cm^3
# Si number density = 27.625061 Si / 1000 Ang^3
#
#
#
# Elastic Constant Matrix: (Units=GPa)
#
#
# Indices 1 2 3 4 5 6 
#
# 1 179.1556 69.3769 48.8159 0.0000 -12.8823 0.0000
# 2 69.3769 133.4734 29.7356 0.0000 -20.1026 0.0000
# 3 48.8159 29.7356 160.0013 0.0000 -15.2809 0.0000
# 4 0.0000 0.0000 0.0000 10.4013 0.0000 -3.0250
# 5 -12.8823 -20.1026 -15.2809 0.0000 43.0448 0.0000
# 6 0.0000 0.0000 0.0000 -3.0250 0.0000 41.6237
#
#
#
# Elastic Compliance Matrix: (Units=1/GPa)
#
#
# Indices 1 2 3 4 5 6 
#
# 1 0.007362 -0.003468 -0.001600 0.000000 0.000016 0.000000
# 2 -0.003468 0.009913 -0.000457 0.000000 0.003430 0.000000
# 3 -0.001600 -0.000457 0.006994 0.000000 0.001791 0.000000
# 4 0.000000 0.000000 0.000000 0.098218 0.000000 0.007138
# 5 0.000016 0.003430 0.001791 0.000000 0.025474 0.000000
# 6 0.000000 0.000000 0.000000 0.007138 0.000000 0.024544
#
#
# Mechanical properties :
#
#
# Convention : Reuss Voigt Hill
#
# Bulk Modulus (GPa) = 75.64524 85.38746 80.51635
# Shear Modulus (GPa) = 26.60158 40.66078 33.63118
#
# Velocity S-wave (km/s) = 3.10651 3.84067 3.49293
# Velocity P-wave (km/s) = 6.34898 7.11647 6.74365
#
# Compressibility (1/GPa) = 0.01321960
#
# Stress axis : x y z
#
# Youngs Moduli (GPa) = 135.83887 100.87963 142.97900
#
# Poissons Ratio (x) = 0.34981 0.22878
# Poissons Ratio (y) = 0.47104 0.06531
# Poissons Ratio (z) = 0.21735 0.04608
#
# Static dielectric constant tensor:
#      x y z
#    x 2.300220 0.000000 -0.004670 
#    y 0.000000 2.186160 0.000000 
#    z -0.004670 0.000000 2.135040 
# 
# From -- ./inp_files/150537.got.cif
#   From: 2010.05.17/outbox.cif.g08.bks.cpg/sg15_76_cif.got.tgz:150537.got - 2010.06.03 18:47:42.
