data_PCOD9261307
_publ_section_title
;
Structure prediction by ZEFSAII (Michael W. Deem and Ramdas Pophale) SiO2 
 PCOD9261307
Probable space group: C 2/C
;
_chemical_formula_sum "Si O2"
_cell_formula_units_Z 40
_cell_length_a 16.359503
_cell_length_b 18.300128
_cell_length_c 5.762577
_cell_angle_alpha 90.000000
_cell_angle_beta 116.621262
_cell_angle_gamma 90.000000
_cell_volume 1542.313541
_symmetry_space_group_name_H-M "C 2/C"
_symmetry_group_IT_number 15
_symmetry_cell_setting 'monoclinic'
loop_
_space_group_symop_operation_xyz
x,y,z
-x,y,1/2-z
-x,-y,-z
x,-y,1/2+z
1/2+x,1/2+y,z
1/2-x,1/2+y,1/2-z
1/2-x,1/2-y,-z
1/2+x,1/2-y,1/2+z
loop_
_atom_site_type_symbol
_atom_site_label
_atom_site_fract_x
_atom_site_fract_y
_atom_site_fract_z
Si Si1 0.703259 0.301918 0.246225
Si Si2 0.144024 0.674178 0.944874
Si Si3 0.769352 0.071209 0.398468
Si Si4 0.034100 0.083322 0.042862
Si Si5 0.604415 0.029416 0.746783
O O1 0.750000 0.250000 0.500000
O O2 0.621971 0.251585 0.035541
O O3 0.690737 0.382796 0.331745
O O4 0.777311 0.310429 0.140480
O O5 0.188189 0.622639 0.198325
O O6 0.083885 0.616025 0.729155
O O7 0.856106 0.074987 0.338185
O O8 0.713571 0.997118 0.384993
O O9 0.000000 0.113508 0.250000
O O10 0.000000 0.116854 0.750000
O O11 0.000000 0.000000 0.000000
O O12 0.574778 0.002114 0.457649
#
# Coordination Sequence:
#
# PCOD9261307 Si02
#       5
#     8   8   8   8   8
#     4   9  17  31  45  66  85 118 157 207 241 301
#     4   9  18  28  46  66  90 114 166 198 246 292
#     4  10  20  31  49  62  95 128 166 205 251 273
#     4  10  24  33  45  65  93 122 170 211 241 272
#     4  10  19  27  45  65  86 120 154 191 239 278
#
# _framework density 25.935061000000001
#
# number of rings (size 3 to 8) (size 9 to 14) (size 15 to 20)
#    0.000    2.400    2.000    0.000   14.000    0.000 
#    0.000    0.000    0.000    0.000    0.000    0.000 
#    0.000    0.000    0.000    0.000    0.000   96.000 
#
# Total GULP energy -111351.338136 kJ/mol
# GULP energy per Si atom -5567.566907 kJ/mol
# Density = 2.587603 g / cm^3
# Si number density = 25.935061 Si / 1000 Ang^3
#
#
#
# Elastic Constant Matrix: (Units=GPa)
#
#
# Indices 1 2 3 4 5 6 
#
# 1 104.6106 20.1896 40.8352 0.0000 -22.2058 0.0000
# 2 20.1896 114.2222 36.1478 0.0000 -5.1605 0.0000
# 3 40.8352 36.1478 152.7206 0.0000 -17.3044 0.0000
# 4 0.0000 0.0000 0.0000 39.7504 0.0000 -14.6562
# 5 -22.2058 -5.1605 -17.3044 0.0000 41.0834 0.0000
# 6 0.0000 0.0000 0.0000 -14.6562 0.0000 7.0526
#
#
#
# Elastic Compliance Matrix: (Units=1/GPa)
#
#
# Indices 1 2 3 4 5 6 
#
# 1 0.011787 -0.001121 -0.002290 0.000000 0.005266 0.000000
# 2 -0.001121 0.009573 -0.001994 0.000000 -0.000243 0.000000
# 3 -0.002290 -0.001994 0.007837 0.000000 0.001813 0.000000
# 4 0.000000 0.000000 0.000000 0.107610 0.000000 0.223627
# 5 0.005266 -0.000243 0.001813 0.000000 0.027920 0.000000
# 6 0.000000 0.000000 0.000000 0.223627 0.000000 0.606520
#
#
# Mechanical properties :
#
#
# Convention : Reuss Voigt Hill
#
# Bulk Modulus (GPa) = 54.38061 62.87762 58.62912
# Shear Modulus (GPa) = 6.34369 35.86932 21.10650
#
# Velocity S-wave (km/s) = 1.56566 3.72296 2.85585
# Velocity P-wave (km/s) = 4.92767 6.54045 5.79048
#
# Compressibility (1/GPa) = 0.01838891
#
# Stress axis : x y z
#
# Youngs Moduli (GPa) = 84.83784 104.46103 127.59215
#
# Poissons Ratio (x) = 0.11709 0.29215
# Poissons Ratio (y) = 0.09510 0.25438
# Poissons Ratio (z) = 0.19426 0.20826
#
# Static dielectric constant tensor:
#      x y z
#    x 2.135140 0.000000 0.070620 
#    y 0.000000 2.109410 0.000000 
#    z 0.070620 0.000000 2.177120 
# 
# From -- ./inp_files/10163.got.cif
#   From: 2010.05.17/outbox.cif.g08.bks.cpg/sg15_6_cif.got.tgz:10163.got - 2010.06.03 18:47:42.
