data_PCOD9261625
_publ_section_title
;
Structure prediction by ZEFSAII (Michael W. Deem and Ramdas Pophale) SiO2 
 PCOD9261625
Probable space group: C 2/C
;
_chemical_formula_sum "Si O2"
_cell_formula_units_Z 56
_cell_length_a 17.695285
_cell_length_b 11.790492
_cell_length_c 12.239560
_cell_angle_alpha 90.000000
_cell_angle_beta 72.155195
_cell_angle_gamma 90.000000
_cell_volume 2430.760007
_symmetry_space_group_name_H-M "C 2/C"
_symmetry_group_IT_number 15
_symmetry_cell_setting 'monoclinic'
loop_
_space_group_symop_operation_xyz
x,y,z
-x,y,1/2-z
-x,-y,-z
x,-y,1/2+z
1/2+x,1/2+y,z
1/2-x,1/2+y,1/2-z
1/2-x,1/2-y,-z
1/2+x,1/2-y,1/2+z
loop_
_atom_site_type_symbol
_atom_site_label
_atom_site_fract_x
_atom_site_fract_y
_atom_site_fract_z
Si Si1 0.427661 0.987533 0.202922
Si Si2 0.408532 0.873815 0.524369
Si Si3 0.017885 0.160317 0.113952
Si Si4 0.314803 0.425411 0.991946
Si Si5 0.753150 0.734501 0.167007
Si Si6 0.678600 0.923989 0.564879
Si Si7 0.134093 0.735012 0.900702
O O1 0.500000 0.962346 0.250000
O O2 0.461936 0.070909 0.093998
O O3 0.359699 0.053133 0.300506
O O4 0.394012 0.874837 0.160274
O O5 0.445255 0.785207 0.425024
O O6 0.342504 0.806209 0.620096
O O7 0.362015 0.973084 0.485222
O O8 0.089705 0.079427 0.040774
O O9 0.065220 0.171365 0.414640
O O10 0.000000 0.141843 0.250000
O O11 0.296652 0.348241 0.891971
O O12 0.272122 0.547110 0.009725
O O13 0.264024 0.358444 0.107711
O O14 0.713763 0.730434 0.301927
O O15 0.652223 0.810939 0.513255
#
# Coordination Sequence:
#
# PCOD9261625 Si02
#       7
#     8   8   8   8   8   8   8
#     4  11  20  30  47  72 109 133 157 202 267 315
#     4   9  20  32  45  71 103 135 165 207 257 314
#     4  11  18  28  50  80 104 128 171 221 260 301
#     4   9  17  30  48  69 104 140 173 206 258 308
#     4   9  16  30  48  67  98 132 175 208 249 302
#     4  10  19  31  46  72 106 142 166 206 263 320
#     4  11  19  28  49  79 103 129 168 217 261 301
#
# _framework density 23.038062
#
# number of rings (size 3 to 8) (size 9 to 14) (size 15 to 20)
#    0.000    2.000    2.857    3.857    0.000    2.286 
#    0.000    0.714    0.000    0.000    0.000   10.000 
#    0.000    0.000    0.000    0.000    0.000    0.000 
#
# Total GULP energy -156284.404119 kJ/mol
# GULP energy per Si atom -5581.585861 kJ/mol
# Density = 2.298563 g / cm^3
# Si number density = 23.038062 Si / 1000 Ang^3
#
#
#
# Elastic Constant Matrix: (Units=GPa)
#
#
# Indices 1 2 3 4 5 6 
#
# 1 93.2554 24.1657 39.8829 0.0000 -32.7697 0.0000
# 2 24.1657 38.5164 26.2461 0.0000 -1.0728 0.0000
# 3 39.8829 26.2461 76.0443 0.0000 -21.9415 0.0000
# 4 0.0000 0.0000 0.0000 21.8114 0.0000 -0.6723
# 5 -32.7697 -1.0728 -21.9415 0.0000 40.6187 0.0000
# 6 0.0000 0.0000 0.0000 -0.6723 0.0000 13.6198
#
#
#
# Elastic Compliance Matrix: (Units=1/GPa)
#
#
# Indices 1 2 3 4 5 6 
#
# 1 0.019314 -0.009875 -0.002726 0.000000 0.013849 0.000000
# 2 -0.009875 0.040478 -0.012772 0.000000 -0.013797 0.000000
# 3 -0.002726 -0.012772 0.021627 0.000000 0.009146 0.000000
# 4 0.000000 0.000000 0.000000 0.045917 0.000000 0.002267
# 5 0.013849 -0.013797 0.009146 0.000000 0.040368 0.000000
# 6 0.000000 0.000000 0.000000 0.002267 0.000000 0.073535
#
#
# Mechanical properties :
#
#
# Convention : Reuss Voigt Hill
#
# Bulk Modulus (GPa) = 32.60182 43.15618 37.87900
# Shear Modulus (GPa) = 16.54476 23.04473 19.79475
#
# Velocity S-wave (km/s) = 2.68274 3.16617 2.93442
# Velocity P-wave (km/s) = 4.87628 5.66916 5.28760
#
# Compressibility (1/GPa) = 0.03067314
#
# Stress axis : x y z
#
# Youngs Moduli (GPa) = 51.77485 24.70481 46.23839
#
# Poissons Ratio (x) = 0.24396 0.12602
# Poissons Ratio (y) = 0.51128 0.59058
# Poissons Ratio (z) = 0.14111 0.31554
#
# Static dielectric constant tensor:
#      x y z
#    x 1.955900 0.000000 0.006290 
#    y 0.000000 1.874300 0.000000 
#    z 0.006290 0.000000 1.886980 
# 
# From -- ./inp_files/112344.got.cif
#   From: 2010.05.17/outbox.cif.g08.bks.cpg/sg15_57_cif.got.tgz:112344.got - 2010.06.03 18:47:42.
