data_PCOD9261268
_publ_section_title
;
Structure prediction by ZEFSAII (Michael W. Deem and Ramdas Pophale) SiO2 
 PCOD9261268
Probable space group: C 2/C
;
_chemical_formula_sum "Si O2"
_cell_formula_units_Z 52
_cell_length_a 20.868027
_cell_length_b 11.103588
_cell_length_c 10.083778
_cell_angle_alpha 90.000000
_cell_angle_beta 117.073241
_cell_angle_gamma 90.000000
_cell_volume 2080.489723
_symmetry_space_group_name_H-M "C 2/C"
_symmetry_group_IT_number 15
_symmetry_cell_setting 'monoclinic'
loop_
_space_group_symop_operation_xyz
x,y,z
-x,y,1/2-z
-x,-y,-z
x,-y,1/2+z
1/2+x,1/2+y,z
1/2-x,1/2+y,1/2-z
1/2-x,1/2-y,-z
1/2+x,1/2-y,1/2+z
loop_
_atom_site_type_symbol
_atom_site_label
_atom_site_fract_x
_atom_site_fract_y
_atom_site_fract_z
Si Si1 0.586990 0.039429 0.834079
Si Si2 0.694459 0.627600 0.155769
Si Si3 0.554305 0.208635 0.200670
Si Si4 0.000000 0.895293 0.750000
Si Si5 0.338440 0.773211 0.908803
Si Si6 0.156950 0.954116 0.905272
Si Si7 0.567871 0.788927 0.099260
O O1 0.500000 0.058095 0.750000
O O2 0.609888 0.114789 0.726647
O O3 0.596637 0.898692 0.813924
O O4 0.625911 0.106215 0.992423
O O5 0.765393 0.696371 0.266390
O O6 0.701726 0.548644 0.031856
O O7 0.674541 0.548200 0.267063
O O8 0.626985 0.715973 0.073921
O O9 0.500000 0.274209 0.250000
O O10 0.607324 0.276742 0.152896
O O11 0.494198 0.150626 0.045684
O O12 0.027425 0.807058 0.657892
O O13 0.928566 0.969573 0.649805
O O14 0.328510 0.677511 0.016882
#
# Coordination Sequence:
#
# PCOD9261268 Si02
#       7
#     8   8   8   4   8   8   8
#     4  11  20  38  70  98 129 174 234 275 339 407
#     4  11  28  43  73 101 140 189 232 278 356 423
#     4  11  25  38  67 105 135 177 229 292 343 402
#     4  10  18  42  76  84 130 182 230 282 322 408
#     4  12  24  47  70  95 146 184 223 286 353 426
#     4  11  24  48  71 106 135 186 240 281 349 415
#     4  11  19  42  62  99 131 178 224 280 338 403
#
# _framework density 24.994115000000001
#
# number of rings (size 3 to 8) (size 9 to 14) (size 15 to 20)
#    0.000    0.923    6.923    0.923    4.308    3.692 
#    1.385    1.538    0.000    0.000    0.000    0.000 
#    0.000    0.000    0.000    0.000    0.000    0.000 
#
# Total GULP energy -145450.514026 kJ/mol
# GULP energy per Si atom -5594.250539 kJ/mol
# Density = 2.493723 g / cm^3
# Si number density = 24.994115 Si / 1000 Ang^3
#
#
#
# Elastic Constant Matrix: (Units=GPa)
#
#
# Indices 1 2 3 4 5 6 
#
# 1 51.9417 -0.9208 15.2724 0.0000 6.5677 0.0000
# 2 -0.9208 61.3056 18.5445 0.0000 -0.5450 0.0000
# 3 15.2724 18.5445 72.3387 0.0000 17.6310 0.0000
# 4 0.0000 0.0000 0.0000 36.9604 0.0000 4.1971
# 5 6.5677 -0.5450 17.6310 0.0000 44.0785 0.0000
# 6 0.0000 0.0000 0.0000 4.1971 0.0000 12.1261
#
#
#
# Elastic Compliance Matrix: (Units=1/GPa)
#
#
# Indices 1 2 3 4 5 6 
#
# 1 0.020766 0.001662 -0.004500 0.000000 -0.001274 0.000000
# 2 0.001662 0.018020 -0.005501 0.000000 0.002175 0.000000
# 3 -0.004500 -0.005501 0.017769 0.000000 -0.006505 0.000000
# 4 0.000000 0.000000 0.000000 0.028163 0.000000 -0.009748
# 5 -0.001274 0.002175 -0.006505 0.000000 0.025505 0.000000
# 6 0.000000 0.000000 0.000000 -0.009748 0.000000 0.085840
#
#
# Mechanical properties :
#
#
# Convention : Reuss Voigt Hill
#
# Bulk Modulus (GPa) = 25.07638 27.93091 26.50364
# Shear Modulus (GPa) = 22.12058 28.81235 25.46646
#
# Velocity S-wave (km/s) = 2.97818 3.39892 3.19548
# Velocity P-wave (km/s) = 4.67768 5.15779 4.92359
#
# Compressibility (1/GPa) = 0.03987817
#
# Stress axis : x y z
#
# Youngs Moduli (GPa) = 48.15578 55.49426 56.27631
#
# Poissons Ratio (x) = -0.09222 0.25323
# Poissons Ratio (y) = -0.08002 0.30955
# Poissons Ratio (z) = 0.21669 0.30525
#
# Static dielectric constant tensor:
#      x y z
#    x 2.005230 0.000000 -0.052160 
#    y 0.000000 1.984750 0.000000 
#    z -0.052160 0.000000 1.982260 
# 
# From -- ./inp_files/111734.got.cif
#   From: 2010.05.17/outbox.cif.g08.bks.cpg/sg15_56_cif.got.tgz:111734.got - 2010.06.03 18:47:42.
