data_PCOD9261923
_publ_section_title
;
Structure prediction by ZEFSAII (Michael W. Deem and Ramdas Pophale) SiO2 
 PCOD9261923
Probable space group: C 2/C
;
_chemical_formula_sum "Si O2"
_cell_formula_units_Z 64
_cell_length_a 22.796823
_cell_length_b 27.005936
_cell_length_c 19.853681
_cell_angle_alpha 90.000000
_cell_angle_beta 18.497640
_cell_angle_gamma 90.000000
_cell_volume 3877.908696
_symmetry_space_group_name_H-M "C 2/C"
_symmetry_group_IT_number 15
_symmetry_cell_setting 'monoclinic'
loop_
_space_group_symop_operation_xyz
x,y,z
-x,y,1/2-z
-x,-y,-z
x,-y,1/2+z
1/2+x,1/2+y,z
1/2-x,1/2+y,1/2-z
1/2-x,1/2-y,-z
1/2+x,1/2-y,1/2+z
loop_
_atom_site_type_symbol
_atom_site_label
_atom_site_fract_x
_atom_site_fract_y
_atom_site_fract_z
Si Si1 0.675557 0.554132 0.627851
Si Si2 0.172985 0.302962 0.720388
Si Si3 0.759246 0.806682 0.334737
Si Si4 0.781246 0.596900 0.262708
Si Si5 0.127800 0.085249 0.825712
Si Si6 0.222357 0.336676 0.520663
Si Si7 0.251850 0.022123 0.410507
Si Si8 0.105875 0.453107 0.352043
O O1 0.723648 0.562525 0.653725
O O2 0.686710 0.609217 0.583555
O O3 0.793715 0.524317 0.444207
O O4 0.469963 0.530914 0.852809
O O5 0.192967 0.249826 0.733343
O O6 0.249446 0.346717 0.683180
O O7 0.257997 0.309789 0.552652
O O8 0.957159 0.312921 0.943765
O O9 0.848437 0.855213 0.204552
O O10 0.796842 0.808717 0.374067
O O11 0.590747 0.574799 0.441530
O O12 0.827005 0.567903 0.283038
O O13 0.950123 0.589096 0.027797
O O14 0.225138 0.062927 0.784607
O O15 0.000000 0.342175 0.750000
O O16 0.320558 0.972723 0.299110
O O17 0.000000 0.500000 0.500000
#
# Coordination Sequence:
#
# PCOD9261923 Si02
#       8
#     8   8   8   8   8   8   8   8
#     4   9  17  30  48  70  95 127 166 214 247 291
#     4  11  18  31  44  67  98 130 174 211 253 282
#     4  10  20  30  45  68  95 132 173 214 249 289
#     4  10  19  32  50  66  95 128 164 211 247 291
#     4  10  20  35  50  72  97 129 173 209 249 296
#     4   9  18  28  43  63  96 133 169 214 250 284
#     4   9  18  31  48  70  90 127 167 207 252 297
#     4  10  21  35  51  69  96 129 170 209 252 302
#
# _framework density 16.503740000000001
#
# number of rings (size 3 to 8) (size 9 to 14) (size 15 to 20)
#    0.000    2.250    2.500    1.125    0.000    4.500 
#    0.000    0.000    0.000    0.000    0.000    0.000 
#    0.000    0.000    0.000    4.500    7.000    3.375 
#
# Total GULP energy -178300.424533 kJ/mol
# GULP energy per Si atom -5571.888267 kJ/mol
# Density = 1.646618 g / cm^3
# Si number density = 16.503740 Si / 1000 Ang^3
#
#
#
# Elastic Constant Matrix: (Units=GPa)
#
#
# Indices 1 2 3 4 5 6 
#
# 1 54.2381 27.9935 30.1910 0.0197 -1.0611 -0.0085
# 2 27.9935 54.5148 13.1254 0.0054 11.2664 -0.0173
# 3 30.1910 13.1254 47.4447 -0.0655 -1.8098 -0.0295
# 4 0.0197 0.0054 -0.0655 19.6017 -0.0134 -3.4336
# 5 -1.0611 11.2664 -1.8098 -0.0134 27.4923 0.0077
# 6 -0.0085 -0.0173 -0.0295 -3.4336 0.0077 19.3937
#
#
#
# Elastic Compliance Matrix: (Units=1/GPa)
#
#
# Indices 1 2 3 4 5 6 
#
# 1 0.037534 -0.016052 -0.019186 -0.000101 0.006764 -0.000048
# 2 -0.016052 0.028683 0.001812 0.000011 -0.012255 0.000028
# 3 -0.019186 0.001812 0.032811 0.000141 0.000677 0.000068
# 4 -0.000101 0.000011 0.000141 0.052649 0.000024 0.009321
# 5 0.006764 -0.012255 0.000677 0.000024 0.041701 -0.000019
# 6 -0.000048 0.000028 0.000068 0.009321 -0.000019 0.053214
#
#
# Mechanical properties :
#
#
# Convention : Reuss Voigt Hill
#
# Bulk Modulus (GPa) = 31.07926 33.20194 32.14060
# Shear Modulus (GPa) = 15.42404 18.95671 17.19037
#
# Velocity S-wave (km/s) = 3.06040 3.39282 3.23089
# Velocity P-wave (km/s) = 5.60006 5.95901 5.78232
#
# Compressibility (1/GPa) = 0.03217580
#
# Stress axis : x y z
#
# Youngs Moduli (GPa) = 26.64235 34.86397 30.47798
#
# Poissons Ratio (x) = 0.55965 0.58475
# Poissons Ratio (y) = 0.42768 -0.05524
# Poissons Ratio (z) = 0.51116 -0.06319
#
# Static dielectric constant tensor:
#      x y z
#    x 1.574250 -0.000070 -0.017940 
#    y -0.000070 1.591470 0.000150 
#    z -0.017940 0.000150 1.622000 
# 
# From -- ./inp_files/217186.got.cif
#   From: 2010.05.17/outbox.cif.g08.bks.cpg/sg15_109_cif.got.tgz:217186.got - 2010.06.03 18:47:42.
