data_PCOD9261658
_publ_section_title
;
Structure prediction by ZEFSAII (Michael W. Deem and Ramdas Pophale) SiO2 
 PCOD9261658
Probable space group: C 2/C
;
_chemical_formula_sum "Si O2"
_cell_formula_units_Z 56
_cell_length_a 16.416505
_cell_length_b 19.883074
_cell_length_c 18.621877
_cell_angle_alpha 90.000000
_cell_angle_beta 28.934235
_cell_angle_gamma 90.000000
_cell_volume 2940.751967
_symmetry_space_group_name_H-M "C 2/C"
_symmetry_group_IT_number 15
_symmetry_cell_setting 'monoclinic'
loop_
_space_group_symop_operation_xyz
x,y,z
-x,y,1/2-z
-x,-y,-z
x,-y,1/2+z
1/2+x,1/2+y,z
1/2-x,1/2+y,1/2-z
1/2-x,1/2-y,-z
1/2+x,1/2-y,1/2+z
loop_
_atom_site_type_symbol
_atom_site_label
_atom_site_fract_x
_atom_site_fract_y
_atom_site_fract_z
Si Si1 0.677425 0.969076 0.338924
Si Si2 0.723579 0.664061 0.185712
Si Si3 0.148996 0.224767 0.008864
Si Si4 0.314369 0.477835 0.865530
Si Si5 0.743263 0.599509 0.849971
Si Si6 0.184692 0.467381 0.614691
Si Si7 0.655860 0.409142 0.875282
O O1 0.663783 0.904674 0.298480
O O2 0.500000 0.000000 0.500000
O O3 0.791978 0.966581 0.320744
O O4 0.771708 0.023193 0.216371
O O5 0.850682 0.715883 0.050534
O O6 0.533620 0.695375 0.327689
O O7 0.735641 0.593474 0.132318
O O8 0.739915 0.647167 0.258360
O O9 0.254062 0.165586 0.889201
O O10 0.250000 0.250000 0.000000
O O11 0.500000 0.466224 0.750000
O O12 0.226014 0.508654 0.002805
O O13 0.809958 0.538049 0.846372
O O14 0.543410 0.593497 0.985775
O O15 0.298514 0.417606 0.575979
O O16 0.000000 0.437195 0.750000
#
# Coordination Sequence:
#
# PCOD9261658 Si02
#       7
#     8   8   8   8   8   8   8
#     4  10  19  31  48  74 103 133 171 212 254 300
#     4  10  22  36  51  73 105 141 173 206 250 308
#     4  11  21  34  53  77 104 138 176 208 246 301
#     4  11  19  32  52  75 104 137 170 212 256 303
#     4  10  20  35  51  71 106 147 170 198 254 324
#     4  11  20  31  52  81 103 131 173 223 263 293
#     4   9  19  37  52  67 102 145 176 203 254 319
#
# _framework density 19.042749000000001
#
# number of rings (size 3 to 8) (size 9 to 14) (size 15 to 20)
#    0.000    1.714    0.000    9.000    0.000    4.571 
#    0.000    1.429    0.000    0.000    0.000   10.000 
#    0.000    0.000    0.000    0.000    0.000    0.000 
#
# Total GULP energy -155959.405159 kJ/mol
# GULP energy per Si atom -5569.978756 kJ/mol
# Density = 1.899941 g / cm^3
# Si number density = 19.042749 Si / 1000 Ang^3
#
#
#
# Elastic Constant Matrix: (Units=GPa)
#
#
# Indices 1 2 3 4 5 6 
#
# 1 175.4908 30.9171 10.1729 0.0099 17.4554 -0.0223
# 2 30.9171 60.4790 21.4464 -0.0102 12.6599 0.0178
# 3 10.1729 21.4464 70.8170 -0.0007 18.6805 0.0230
# 4 0.0099 -0.0102 -0.0007 28.3197 0.0073 12.7598
# 5 17.4554 12.6599 18.6805 0.0073 36.4831 0.0012
# 6 -0.0223 0.0178 0.0230 12.7598 0.0012 35.5031
#
#
#
# Elastic Compliance Matrix: (Units=1/GPa)
#
#
# Indices 1 2 3 4 5 6 
#
# 1 0.006426 -0.003010 0.000606 -0.000006 -0.002340 0.000007
# 2 -0.003010 0.020483 -0.004943 0.000016 -0.003136 -0.000014
# 3 0.000606 -0.004943 0.017521 0.000005 -0.007546 -0.000010
# 4 -0.000006 0.000016 0.000005 0.042134 -0.000013 -0.015143
# 5 -0.002340 -0.003136 -0.007546 -0.000013 0.033482 0.000009
# 6 0.000007 -0.000014 -0.000010 -0.015143 0.000009 0.033609
#
#
# Mechanical properties :
#
#
# Convention : Reuss Voigt Hill
#
# Bulk Modulus (GPa) = 33.62995 47.98440 40.80717
# Shear Modulus (GPa) = 28.04850 36.34453 32.19651
#
# Velocity S-wave (km/s) = 3.84203 4.37346 4.11633
# Velocity P-wave (km/s) = 6.11393 7.12432 6.63838
#
# Compressibility (1/GPa) = 0.02973540
#
# Stress axis : x y z
#
# Youngs Moduli (GPa) = 155.61128 48.82117 57.07276
#
# Poissons Ratio (x) = 0.14695 -0.03457
# Poissons Ratio (y) = 0.46840 0.28213
# Poissons Ratio (z) = -0.09427 0.24134
#
# Static dielectric constant tensor:
#      x y z
#    x 1.686780 -0.000050 0.027750 
#    y -0.000050 1.744840 -0.000010 
#    z 0.027750 -0.000010 1.743480 
# 
# From -- ./inp_files/206908.got.cif
#   From: 2010.05.17/outbox.cif.g08.bks.cpg/sg15_104_cif.got.tgz:206908.got - 2010.06.03 18:47:42.
