data_PCOD9261835
_publ_section_title
;
Structure prediction by ZEFSAII (Michael W. Deem and Ramdas Pophale) SiO2 
 PCOD9261835
Probable space group: C 2/C
;
_chemical_formula_sum "Si O2"
_cell_formula_units_Z 56
_cell_length_a 7.599725
_cell_length_b 19.417956
_cell_length_c 22.901183
_cell_angle_alpha 90.000000
_cell_angle_beta 133.566992
_cell_angle_gamma 90.000000
_cell_volume 2448.719695
_symmetry_space_group_name_H-M "C 2/C"
_symmetry_group_IT_number 15
_symmetry_cell_setting 'monoclinic'
loop_
_space_group_symop_operation_xyz
x,y,z
-x,y,1/2-z
-x,-y,-z
x,-y,1/2+z
1/2+x,1/2+y,z
1/2-x,1/2+y,1/2-z
1/2-x,1/2-y,-z
1/2+x,1/2-y,1/2+z
loop_
_atom_site_type_symbol
_atom_site_label
_atom_site_fract_x
_atom_site_fract_y
_atom_site_fract_z
Si Si1 0.384247 0.425869 0.461128
Si Si2 0.249896 0.033318 0.368184
Si Si3 0.727065 0.911746 0.041794
Si Si4 0.035863 0.727493 0.996503
Si Si5 0.939990 0.184940 0.169774
Si Si6 0.168885 0.153944 0.107902
Si Si7 0.992976 0.515632 0.180538
O O1 0.500000 0.500000 0.500000
O O2 0.549535 0.392213 0.448885
O O3 0.419756 0.384718 0.529019
O O4 0.130155 0.448852 0.377730
O O5 0.525566 0.050756 0.454547
O O6 0.110123 0.103462 0.346333
O O7 0.267921 0.022455 0.303125
O O8 0.179157 0.967456 0.389944
O O9 0.593979 0.846277 0.039242
O O10 0.195614 0.723058 0.092057
O O11 0.250000 0.750000 0.000000
O O12 0.825573 0.784007 0.937404
O O13 0.000000 0.202878 0.250000
O O14 0.145662 0.189314 0.166078
O O15 0.360226 0.091486 0.146816
O O16 0.000000 0.501684 0.250000
#
# Coordination Sequence:
#
# PCOD9261835 Si02
#       7
#     8   8   8   8   8   8   8
#     4  10  19  35  56  87 115 155 197 246 307 361
#     4  10  19  31  56  84 112 144 193 246 298 355
#     4  10  19  34  57  86 112 149 204 246 287 360
#     4   9  21  36  60  87 113 160 204 239 292 362
#     4  10  20  36  58  89 115 152 199 250 306 358
#     4  10  20  38  60  81 121 152 200 243 296 367
#     4  11  22  35  57  89 119 152 193 256 321 351
#
# _framework density 22.869095000000002
#
# number of rings (size 3 to 8) (size 9 to 14) (size 15 to 20)
#    0.000    2.000    2.857    2.571    6.000    0.571 
#    0.000    0.714    0.000    0.857    0.000    0.000 
#    0.000    0.000    0.000    0.000    0.000    0.000 
#
# Total GULP energy -156083.568358 kJ/mol
# GULP energy per Si atom -5574.413156 kJ/mol
# Density = 2.281704 g / cm^3
# Si number density = 22.869095 Si / 1000 Ang^3
#
#
#
# Elastic Constant Matrix: (Units=GPa)
#
#
# Indices 1 2 3 4 5 6 
#
# 1 77.3643 8.1811 10.4645 -0.0001 -16.1193 -0.0001
# 2 8.1811 51.7349 23.9133 0.0000 -12.9925 0.0000
# 3 10.4645 23.9133 119.6466 -0.0001 -31.6472 0.0000
# 4 -0.0001 0.0000 -0.0001 32.1248 0.0000 3.9191
# 5 -16.1193 -12.9925 -31.6472 0.0000 31.7793 0.0000
# 6 -0.0001 0.0000 0.0000 3.9191 0.0000 27.7994
#
#
#
# Elastic Compliance Matrix: (Units=1/GPa)
#
#
# Indices 1 2 3 4 5 6 
#
# 1 0.014552 -0.000739 0.001015 0.000000 0.008090 0.000000
# 2 -0.000739 0.022232 -0.002815 0.000000 0.005911 0.000000
# 3 0.001015 -0.002815 0.011762 0.000000 0.011076 0.000000
# 4 0.000000 0.000000 0.000000 0.031673 0.000000 -0.004465
# 5 0.008090 0.005911 0.011076 0.000000 0.049017 0.000000
# 6 0.000000 0.000000 0.000000 -0.004465 0.000000 0.036602
#
#
# Mechanical properties :
#
#
# Convention : Reuss Voigt Hill
#
# Bulk Modulus (GPa) = 23.00584 37.09596 30.05090
# Shear Modulus (GPa) = 26.96792 32.08650 29.52721
#
# Velocity S-wave (km/s) = 3.43772 3.74980 3.59714
# Velocity P-wave (km/s) = 5.08319 5.91643 5.51557
#
# Compressibility (1/GPa) = 0.04346723
#
# Stress axis : x y z
#
# Youngs Moduli (GPa) = 68.71789 44.98042 85.02204
#
# Poissons Ratio (x) = 0.03322 -0.08627
# Poissons Ratio (y) = 0.05075 0.23937
# Poissons Ratio (z) = -0.06972 0.12664
#
# Static dielectric constant tensor:
#      x y z
#    x 1.997560 0.000000 0.032010 
#    y 0.000000 1.884440 0.000000 
#    z 0.032010 0.000000 1.943280 
# 
# From -- ./inp_files/232770.got.cif
#   From: 2010.05.17/outbox.cif.g08.bks.cpg/sg15_117_cif.got.tgz:232770.got - 2010.06.03 18:47:42.
