data_PCOD9261921
_publ_section_title
;
Structure prediction by ZEFSAII (Michael W. Deem and Ramdas Pophale) SiO2 
 PCOD9261921
Probable space group: C 2/C
;
_chemical_formula_sum "Si O2"
_cell_formula_units_Z 60
_cell_length_a 21.948699
_cell_length_b 18.824344
_cell_length_c 12.472504
_cell_angle_alpha 90.000000
_cell_angle_beta 147.137049
_cell_angle_gamma 90.000000
_cell_volume 2796.322253
_symmetry_space_group_name_H-M "C 2/C"
_symmetry_group_IT_number 15
_symmetry_cell_setting 'monoclinic'
loop_
_space_group_symop_operation_xyz
x,y,z
-x,y,1/2-z
-x,-y,-z
x,-y,1/2+z
1/2+x,1/2+y,z
1/2-x,1/2+y,1/2-z
1/2-x,1/2-y,-z
1/2+x,1/2-y,1/2+z
loop_
_atom_site_type_symbol
_atom_site_label
_atom_site_fract_x
_atom_site_fract_y
_atom_site_fract_z
Si Si1 0.403196 0.055080 0.893262
Si Si2 0.937966 0.244410 0.256243
Si Si3 0.328376 0.732530 0.444522
Si Si4 0.511281 0.197244 0.068666
Si Si5 0.500000 0.983680 0.750000
Si Si6 0.246323 0.351428 0.016776
Si Si7 0.248739 0.838482 0.885444
Si Si8 0.275281 0.016360 0.518768
O O1 0.288690 0.031621 0.666337
O O2 0.430201 0.135309 0.904724
O O3 0.500000 0.000000 0.000000
O O4 0.422754 0.057264 0.050265
O O5 0.026027 0.258892 0.481941
O O6 0.840274 0.201685 0.170999
O O7 0.000000 0.206546 0.250000
O O8 0.871955 0.310774 0.103152
O O9 0.442513 0.760526 0.557564
O O10 0.331083 0.684065 0.556057
O O11 0.262418 0.802785 0.390047
O O12 0.270851 0.686520 0.265409
O O13 0.622888 0.161062 0.279962
O O14 0.405152 0.024707 0.673048
O O15 0.263447 0.435490 0.055279
O O16 0.222850 0.920970 0.871751
#
# Coordination Sequence:
#
# PCOD9261921 Si02
#       8
#     8   8   8   8   4   8   8   8
#     4  10  19  32  49  90 122 154 184 233 314 370
#     4  10  21  36  57  82 122 170 205 241 302 367
#     4  10  24  38  57  85 127 163 208 236 303 378
#     4  11  19  36  59  83 123 159 200 246 296 373
#     4  10  20  30  52  86 126 160 178 228 326 376
#     4  11  22  39  60  91 115 166 203 253 306 365
#     4  10  22  39  55  90 122 162 204 256 303 366
#     4  11  22  34  58  88 126 151 200 251 314 363
#
# _framework density 21.456755999999999
#
# number of rings (size 3 to 8) (size 9 to 14) (size 15 to 20)
#    0.000    1.600    4.000    2.000    2.800    0.000 
#    0.000    0.000    0.000    3.200    0.000   14.933 
#    0.000    0.000    0.000    0.000    0.000    0.000 
#
# Total GULP energy -167081.863647 kJ/mol
# GULP energy per Si atom -5569.395455 kJ/mol
# Density = 2.140792 g / cm^3
# Si number density = 21.456756 Si / 1000 Ang^3
#
#
#
# Elastic Constant Matrix: (Units=GPa)
#
#
# Indices 1 2 3 4 5 6 
#
# 1 101.6222 21.4105 21.3111 0.0000 -23.4096 0.0000
# 2 21.4105 139.9571 34.7052 0.0000 -12.8552 0.0000
# 3 21.3111 34.7052 73.9891 0.0000 -27.0284 0.0000
# 4 0.0000 0.0000 0.0000 26.8866 0.0000 -11.6440
# 5 -23.4096 -12.8552 -27.0284 0.0000 34.3007 0.0000
# 6 0.0000 0.0000 0.0000 -11.6440 0.0000 11.1230
#
#
#
# Elastic Compliance Matrix: (Units=1/GPa)
#
#
# Indices 1 2 3 4 5 6 
#
# 1 0.011840 -0.001082 -0.000139 0.000000 0.007566 0.000000
# 2 -0.001082 0.008184 -0.003758 0.000000 -0.000633 0.000000
# 3 -0.000139 -0.003758 0.020739 0.000000 0.014839 0.000000
# 4 0.000000 0.000000 0.000000 0.068041 0.000000 0.071228
# 5 0.007566 -0.000633 0.014839 0.000000 0.045773 0.000000
# 6 0.000000 0.000000 0.000000 0.071228 0.000000 0.164469
#
#
# Mechanical properties :
#
#
# Convention : Reuss Voigt Hill
#
# Bulk Modulus (GPa) = 32.46238 52.26911 42.36575
# Shear Modulus (GPa) = 14.73739 30.33816 22.53777
#
# Velocity S-wave (km/s) = 2.62361 3.76429 3.24447
# Velocity P-wave (km/s) = 4.93354 6.58075 5.81576
#
# Compressibility (1/GPa) = 0.03080489
#
# Stress axis : x y z
#
# Youngs Moduli (GPa) = 84.45714 122.18319 48.21810
#
# Poissons Ratio (x) = 0.13219 0.00671
# Poissons Ratio (y) = 0.09137 0.18123
# Poissons Ratio (z) = 0.01175 0.45922
#
# Static dielectric constant tensor:
#      x y z
#    x 1.914650 0.000000 -0.095640 
#    y 0.000000 1.818760 0.000000 
#    z -0.095640 0.000000 1.915200 
# 
# From -- ./inp_files/119474.got.cif
#   From: 2010.05.17/outbox.cif.g08.bks.cpg/sg15_60_cif.got.tgz:119474.got - 2010.06.03 18:47:42.
