data_PCOD9261863
_publ_section_title
;
Structure prediction by ZEFSAII (Michael W. Deem and Ramdas Pophale) SiO2 
 PCOD9261863
Probable space group: C 2/C
;
_chemical_formula_sum "Si O2"
_cell_formula_units_Z 56
_cell_length_a 11.577577
_cell_length_b 23.773436
_cell_length_c 7.918341
_cell_angle_alpha 90.000000
_cell_angle_beta 105.368274
_cell_angle_gamma 90.000000
_cell_volume 2101.502998
_symmetry_space_group_name_H-M "C 2/C"
_symmetry_group_IT_number 15
_symmetry_cell_setting 'monoclinic'
loop_
_space_group_symop_operation_xyz
x,y,z
-x,y,1/2-z
-x,-y,-z
x,-y,1/2+z
1/2+x,1/2+y,z
1/2-x,1/2+y,1/2-z
1/2-x,1/2-y,-z
1/2+x,1/2-y,1/2+z
loop_
_atom_site_type_symbol
_atom_site_label
_atom_site_fract_x
_atom_site_fract_y
_atom_site_fract_z
Si Si1 0.305665 0.471635 0.813990
Si Si2 0.155580 0.917979 0.358627
Si Si3 0.797193 0.835356 0.404783
Si Si4 0.300610 0.716126 0.264201
Si Si5 0.060800 0.405375 0.955944
Si Si6 0.152386 0.437584 0.448453
Si Si7 0.917455 0.281492 0.573823
O O1 0.371034 0.523130 0.745776
O O2 0.232183 0.436535 0.649885
O O3 0.385260 0.431553 0.964678
O O4 0.206396 0.509268 0.874179
O O5 0.298386 0.912243 0.458324
O O6 0.127141 0.868238 0.213509
O O7 0.754813 0.775331 0.320802
O O8 0.831328 0.821673 0.614137
O O9 0.686740 0.879057 0.375799
O O10 0.202812 0.698629 0.370520
O O11 0.408575 0.736159 0.423777
O O12 0.030019 0.339595 0.973454
O O13 0.000000 0.416773 0.750000
O O14 0.985391 0.440980 0.059466
O O15 0.000000 0.257409 0.750000
#
# Coordination Sequence:
#
# PCOD9261863 Si02
#       7
#     8   8   8   8   8   8   8
#     4   9  20  31  46  68 105 148 189 233 251 307
#     4  10  19  32  44  69  99 144 185 225 265 306
#     4  10  20  34  51  72  99 140 185 229 279 320
#     4  10  21  38  56  78 103 137 190 239 288 327
#     4  11  19  29  48  70 100 145 198 228 261 305
#     4  10  20  33  48  72 107 149 195 224 265 312
#     4  10  21  37  56  79 103 139 188 239 276 330
#
# _framework density 26.647594000000002
#
# number of rings (size 3 to 8) (size 9 to 14) (size 15 to 20)
#    0.000    2.000    2.857    1.714    0.000    5.714 
#    2.571    2.143    0.000    0.000    0.000    0.000 
#    0.000    0.000    0.000  205.714    0.000    6.857 
#
# Total GULP energy -156285.415517 kJ/mol
# GULP energy per Si atom -5581.621983 kJ/mol
# Density = 2.658694 g / cm^3
# Si number density = 26.647594 Si / 1000 Ang^3
#
#
#
# Elastic Constant Matrix: (Units=GPa)
#
#
# Indices 1 2 3 4 5 6 
#
# 1 46.2014 25.6482 18.7711 0.0000 6.4865 0.0000
# 2 25.6482 102.5756 35.8455 0.0000 -17.3079 0.0000
# 3 18.7711 35.8455 175.6612 0.0000 -12.0239 0.0000
# 4 0.0000 0.0000 0.0000 66.7146 0.0000 -12.8005
# 5 6.4865 -17.3079 -12.0239 0.0000 28.9097 0.0000
# 6 0.0000 0.0000 0.0000 -12.8005 0.0000 11.8395
#
#
#
# Elastic Compliance Matrix: (Units=1/GPa)
#
#
# Indices 1 2 3 4 5 6 
#
# 1 0.029109 -0.008635 -0.002212 0.000000 -0.012621 0.000000
# 2 -0.008635 0.014002 -0.001264 0.000000 0.009795 0.000000
# 3 -0.002212 -0.001264 0.006350 0.000000 0.002381 0.000000
# 4 0.000000 0.000000 0.000000 0.018912 0.000000 0.020448
# 5 -0.012621 0.009795 0.002381 0.000000 0.044276 0.000000
# 6 0.000000 0.000000 0.000000 0.020448 0.000000 0.106570
#
#
# Mechanical properties :
#
#
# Convention : Reuss Voigt Hill
#
# Bulk Modulus (GPa) = 39.62215 53.88529 46.75372
# Shear Modulus (GPa) = 19.85260 37.77100 28.81180
#
# Velocity S-wave (km/s) = 2.73244 3.76896 3.29175
# Velocity P-wave (km/s) = 4.98560 6.26142 5.65958
#
# Compressibility (1/GPa) = 0.02523841
#
# Stress axis : x y z
#
# Youngs Moduli (GPa) = 34.35403 71.41612 157.47736
#
# Poissons Ratio (x) = 0.61666 0.34840
# Poissons Ratio (y) = 0.29664 0.19908
# Poissons Ratio (z) = 0.07601 0.09028
#
# Static dielectric constant tensor:
#      x y z
#    x 2.274560 0.000000 -0.068580 
#    y 0.000000 2.046160 0.000000 
#    z -0.068580 0.000000 2.181850 
# 
# From -- ./inp_files/42266.got.cif
#   From: 2010.05.17/outbox.cif.g08.bks.cpg/sg15_22_cif.got.tgz:42266.got - 2010.06.03 18:47:42.
