data_PCOD9261397
_publ_section_title
;
Structure prediction by ZEFSAII (Michael W. Deem and Ramdas Pophale) SiO2 
 PCOD9261397
Probable space group: C 2/C
;
_chemical_formula_sum "Si O2"
_cell_formula_units_Z 64
_cell_length_a 20.583641
_cell_length_b 12.704715
_cell_length_c 19.686032
_cell_angle_alpha 90.000000
_cell_angle_beta 145.781030
_cell_angle_gamma 90.000000
_cell_volume 2895.059943
_symmetry_space_group_name_H-M "C 2/C"
_symmetry_group_IT_number 15
_symmetry_cell_setting 'monoclinic'
loop_
_space_group_symop_operation_xyz
x,y,z
-x,y,1/2-z
-x,-y,-z
x,-y,1/2+z
1/2+x,1/2+y,z
1/2-x,1/2+y,1/2-z
1/2-x,1/2-y,-z
1/2+x,1/2-y,1/2+z
loop_
_atom_site_type_symbol
_atom_site_label
_atom_site_fract_x
_atom_site_fract_y
_atom_site_fract_z
Si Si1 0.227885 0.145984 0.525781
Si Si2 0.144996 0.976646 0.169587
Si Si3 0.518467 0.551669 0.191373
Si Si4 0.076988 0.545266 0.877182
Si Si5 0.385486 0.968593 0.939160
Si Si6 0.136029 0.792352 0.608919
Si Si7 0.110716 0.746700 0.128678
Si Si8 0.592768 0.770641 0.226087
O O1 0.250000 0.250000 0.500000
O O2 0.296920 0.057830 0.544374
O O3 0.298140 0.164110 0.655054
O O4 0.101026 0.107954 0.430234
O O5 0.121138 0.866634 0.113772
O O6 0.068067 0.985932 0.171942
O O7 0.275616 0.978643 0.309947
O O8 0.128618 0.080358 0.109547
O O9 0.500000 0.502381 0.250000
O O10 0.598498 0.655989 0.266174
O O11 0.000000 0.497282 0.750000
O O12 0.014450 0.658537 0.840283
O O13 0.093893 0.498861 0.965800
O O14 0.369301 0.843503 0.910648
O O15 0.500000 0.000000 0.000000
O O16 0.275501 0.768631 0.723042
O O17 0.100944 0.749191 0.653493
O O18 0.027947 0.745759 0.470927
#
# Coordination Sequence:
#
# PCOD9261397 Si02
#       8
#     8   8   8   8   8   8   8   8
#     4  11  19  28  49  81 120 164 204 257 338 407
#     4  10  24  36  58  92 125 166 219 267 335 400
#     4  11  19  32  51  80 122 160 204 262 322 395
#     4  10  20  36  55  92 125 161 214 267 333 398
#     4  11  23  42  68  94 127 175 224 271 331 401
#     4  10  22  35  59  82 123 168 210 266 326 385
#     4  11  22  42  60  88 126 168 218 274 320 392
#     4  10  19  29  49  81 114 160 203 252 323 395
#
# _framework density 22.106622999999999
#
# number of rings (size 3 to 8) (size 9 to 14) (size 15 to 20)
#    0.000    1.500    3.750    2.250    7.000    0.000 
#    0.000    1.250    0.000    0.750    0.000    3.500 
#    0.000    0.000    0.000    0.000    0.000    0.000 
#
# Total GULP energy -178477.696372 kJ/mol
# GULP energy per Si atom -5577.428012 kJ/mol
# Density = 2.205631 g / cm^3
# Si number density = 22.106623 Si / 1000 Ang^3
#
#
#
# Elastic Constant Matrix: (Units=GPa)
#
#
# Indices 1 2 3 4 5 6 
#
# 1 72.2724 10.2174 32.7001 0.0000 17.8143 0.0000
# 2 10.2174 68.7121 19.3314 0.0000 1.0934 0.0000
# 3 32.7001 19.3314 142.1347 0.0000 24.5824 0.0000
# 4 0.0000 0.0000 0.0000 19.4551 0.0000 7.1728
# 5 17.8143 1.0934 24.5824 0.0000 29.3870 0.0000
# 6 0.0000 0.0000 0.0000 7.1728 0.0000 13.4748
#
#
#
# Elastic Compliance Matrix: (Units=1/GPa)
#
#
# Indices 1 2 3 4 5 6 
#
# 1 0.017196 -0.001790 -0.002246 0.000000 -0.008478 0.000000
# 2 -0.001790 0.015365 -0.002066 0.000000 0.002241 0.000000
# 3 -0.002246 -0.002066 0.008867 0.000000 -0.005979 0.000000
# 4 0.000000 0.000000 0.000000 0.063951 0.000000 -0.034042
# 5 -0.008478 0.002241 -0.005979 0.000000 0.044086 0.000000
# 6 0.000000 0.000000 0.000000 -0.034042 0.000000 0.092333
#
#
# Mechanical properties :
#
#
# Convention : Reuss Voigt Hill
#
# Bulk Modulus (GPa) = 34.21809 45.29078 39.75444
# Shear Modulus (GPa) = 18.95775 27.18810 23.07293
#
# Velocity S-wave (km/s) = 2.93159 3.51074 3.23416
# Velocity P-wave (km/s) = 5.19338 6.07994 5.65406
#
# Compressibility (1/GPa) = 0.02922430
#
# Stress axis : x y z
#
# Youngs Moduli (GPa) = 58.15383 65.08248 112.77272
#
# Poissons Ratio (x) = 0.11650 0.25332
# Poissons Ratio (y) = 0.10410 0.23294
# Poissons Ratio (z) = 0.13063 0.13443
#
# Static dielectric constant tensor:
#      x y z
#    x 1.698950 0.000000 -0.055780 
#    y 0.000000 1.800580 0.000000 
#    z -0.055780 0.000000 1.887640 
# 
# From -- ./inp_files/281973.got.cif
#   From: 2010.05.17/outbox.cif.g08.bks.cpg/sg15_141_cif.got.tgz:281973.got - 2010.06.03 18:47:42.
