data_PCOD9261305
_publ_section_title
;
Structure prediction by ZEFSAII (Michael W. Deem and Ramdas Pophale) SiO2 
 PCOD9261305
Probable space group: C 2/C
;
_chemical_formula_sum "Si O2"
_cell_formula_units_Z 52
_cell_length_a 31.190869
_cell_length_b 16.293763
_cell_length_c 8.283450
_cell_angle_alpha 90.000000
_cell_angle_beta 129.543936
_cell_angle_gamma 90.000000
_cell_volume 3246.320825
_symmetry_space_group_name_H-M "C 2/C"
_symmetry_group_IT_number 15
_symmetry_cell_setting 'monoclinic'
loop_
_space_group_symop_operation_xyz
x,y,z
-x,y,1/2-z
-x,-y,-z
x,-y,1/2+z
1/2+x,1/2+y,z
1/2-x,1/2+y,1/2-z
1/2-x,1/2-y,-z
1/2+x,1/2-y,1/2+z
loop_
_atom_site_type_symbol
_atom_site_label
_atom_site_fract_x
_atom_site_fract_y
_atom_site_fract_z
Si Si1 0.939493 0.006745 0.937954
Si Si2 0.238832 0.375125 0.361991
Si Si3 0.161512 0.080617 0.998125
Si Si4 0.000000 0.136399 0.250000
Si Si5 0.458368 0.320289 0.998173
Si Si6 0.233600 0.967541 0.385204
Si Si7 0.161110 0.777555 0.743544
O O1 0.893719 0.045957 0.714829
O O2 0.948294 0.074510 0.097768
O O3 0.932220 0.911920 0.965648
O O4 0.000000 0.000000 0.000000
O O5 0.237883 0.410763 0.179075
O O6 0.233161 0.454365 0.464902
O O7 0.193096 0.306938 0.289293
O O8 0.298967 0.332066 0.542887
O O9 0.209433 0.082073 0.977419
O O10 0.158026 0.168327 0.073204
O O11 0.181616 0.011769 0.172692
O O12 0.989011 0.180645 0.395877
O O13 0.500000 0.304638 0.250000
O O14 0.402585 0.266125 0.855131
#
# Coordination Sequence:
#
# PCOD9261305 Si02
#       7
#     8   8   8   4   8   8   8
#     4  10  19  27  41  67  97 136 177 199 214 278
#     4   9  19  34  52  73  99 126 164 205 254 300
#     4  10  19  28  46  68  99 135 168 202 243 282
#     4  10  22  28  46  66  96 142 180 202 226 286
#     4  11  21  34  47  70 104 139 173 209 241 292
#     4   9  18  32  50  68  92 130 168 202 241 308
#     4  10  20  33  48  74 104 129 156 211 256 287
#
# _framework density 16.018135000000001
#
# number of rings (size 3 to 8) (size 9 to 14) (size 15 to 20)
#    0.000    2.154    0.769    4.615    8.615    0.615 
#    0.000    0.000    0.000    0.000    0.000    1.077 
#    0.000    0.000    0.000    0.000    0.000    0.000 
#
# Total GULP energy -144812.020827 kJ/mol
# GULP energy per Si atom -5569.693109 kJ/mol
# Density = 1.598168 g / cm^3
# Si number density = 16.018135 Si / 1000 Ang^3
#
#
#
# Elastic Constant Matrix: (Units=GPa)
#
#
# Indices 1 2 3 4 5 6 
#
# 1 87.5507 45.6184 43.0703 0.0000 -12.7795 0.0000
# 2 45.6184 57.5979 21.7928 0.0000 1.0521 0.0000
# 3 43.0703 21.7928 69.4369 0.0000 -0.3574 0.0000
# 4 0.0000 0.0000 0.0000 17.0464 0.0000 2.7919
# 5 -12.7795 1.0521 -0.3574 0.0000 27.3710 0.0000
# 6 0.0000 0.0000 0.0000 2.7919 0.0000 16.5434
#
#
#
# Elastic Compliance Matrix: (Units=1/GPa)
#
#
# Indices 1 2 3 4 5 6 
#
# 1 0.029351 -0.018890 -0.012204 0.000000 0.014271 0.000000
# 2 -0.018890 0.031878 0.001661 0.000000 -0.010023 0.000000
# 3 -0.012204 0.001661 0.021422 0.000000 -0.005482 0.000000
# 4 0.000000 0.000000 0.000000 0.060331 0.000000 -0.010181
# 5 0.014271 -0.010023 -0.005482 0.000000 0.043512 0.000000
# 6 0.000000 0.000000 0.000000 -0.010181 0.000000 0.062165
#
#
# Mechanical properties :
#
#
# Convention : Reuss Voigt Hill
#
# Bulk Modulus (GPa) = 42.04424 48.39428 45.21926
# Shear Modulus (GPa) = 15.85019 19.13242 17.49131
#
# Velocity S-wave (km/s) = 3.14907 3.45979 3.30808
# Velocity P-wave (km/s) = 6.28705 6.79985 6.54847
#
# Compressibility (1/GPa) = 0.02378447
#
# Stress axis : x y z
#
# Youngs Moduli (GPa) = 34.07001 31.37009 46.68088
#
# Poissons Ratio (x) = 0.59258 0.56969
# Poissons Ratio (y) = 0.64358 -0.07752
# Poissons Ratio (z) = 0.41579 -0.05209
#
# Static dielectric constant tensor:
#      x y z
#    x 1.643720 0.000000 -0.028900 
#    y 0.000000 1.534140 0.000000 
#    z -0.028900 0.000000 1.585770 
# 
# From -- ./inp_files/70424.got.cif
#   From: 2010.05.17/outbox.cif.g08.bks.cpg/sg15_36_cif.got.tgz:70424.got - 2010.06.03 18:47:42.
