data_PCOD9261899
_publ_section_title
;
Structure prediction by ZEFSAII (Michael W. Deem and Ramdas Pophale) SiO2 
 PCOD9261899
Probable space group: C 2/C
;
_chemical_formula_sum "Si O2"
_cell_formula_units_Z 64
_cell_length_a 18.681655
_cell_length_b 8.527970
_cell_length_c 21.860993
_cell_angle_alpha 90.000000
_cell_angle_beta 115.774148
_cell_angle_gamma 90.000000
_cell_volume 3136.330890
_symmetry_space_group_name_H-M "C 2/C"
_symmetry_group_IT_number 15
_symmetry_cell_setting 'monoclinic'
loop_
_space_group_symop_operation_xyz
x,y,z
-x,y,1/2-z
-x,-y,-z
x,-y,1/2+z
1/2+x,1/2+y,z
1/2-x,1/2+y,1/2-z
1/2-x,1/2-y,-z
1/2+x,1/2-y,1/2+z
loop_
_atom_site_type_symbol
_atom_site_label
_atom_site_fract_x
_atom_site_fract_y
_atom_site_fract_z
Si Si1 0.731958 0.494095 0.933065
Si Si2 0.857012 0.281568 0.912745
Si Si3 0.722057 0.931267 0.317882
Si Si4 0.977518 0.851383 0.842978
Si Si5 0.877637 0.570305 0.840247
Si Si6 0.694606 0.709789 0.083768
Si Si7 0.878962 0.131883 0.198493
Si Si8 0.407566 0.471136 0.519974
O O1 0.799705 0.368020 0.941585
O O2 0.770149 0.664686 0.950442
O O3 0.679822 0.493831 0.851673
O O4 0.670390 0.451717 0.964045
O O5 0.802974 0.171565 0.848794
O O6 0.895786 0.416302 0.886367
O O7 0.911211 0.169154 0.972841
O O8 0.680994 0.972535 0.237998
O O9 0.660314 0.803269 0.321080
O O10 0.743826 0.077054 0.369689
O O11 0.955029 0.671651 0.850181
O O12 0.900331 0.906053 0.776346
O O13 0.046330 0.859801 0.818224
O O14 0.012822 0.955892 0.910417
O O15 0.831742 0.691168 0.867213
O O16 0.617676 0.625840 0.025941
#
# Coordination Sequence:
#
# PCOD9261899 Si02
#       8
#     8   8   8   8   8   8   8   8
#     4   9  17  32  53  75  98 125 166 217 258 290
#     4   9  18  30  49  75  98 129 171 207 252 299
#     4   9  17  32  53  75  98 123 163 218 262 290
#     4   9  18  32  52  72  99 137 172 198 243 303
#     4  10  19  32  49  71 103 136 166 205 246 301
#     4  10  20  31  51  78 102 126 163 212 261 303
#     4   8  16  33  56  75  93 128 172 209 246 302
#     4  10  19  32  49  71 103 137 167 205 246 299
#
# _framework density 20.406010999999999
#
# number of rings (size 3 to 8) (size 9 to 14) (size 15 to 20)
#    0.000    2.750    0.000    1.500    0.000    3.000 
#    0.000    0.000    0.000   24.000    0.000    0.000 
#    0.000    0.000    0.000    0.000    0.000    0.000 
#
# Total GULP energy -178206.891235 kJ/mol
# GULP energy per Si atom -5568.965351 kJ/mol
# Density = 2.035957 g / cm^3
# Si number density = 20.406011 Si / 1000 Ang^3
#
#
#
# Elastic Constant Matrix: (Units=GPa)
#
#
# Indices 1 2 3 4 5 6 
#
# 1 30.3126 12.2835 15.4009 0.0000 4.7238 0.0000
# 2 12.2835 81.7245 41.9266 0.0000 11.6808 0.0000
# 3 15.4009 41.9266 92.4488 0.0000 11.9340 0.0000
# 4 0.0000 0.0000 0.0000 14.6392 0.0000 -5.9279
# 5 4.7238 11.6808 11.9340 0.0000 21.1335 0.0000
# 6 0.0000 0.0000 0.0000 -5.9279 0.0000 15.0742
#
#
#
# Elastic Compliance Matrix: (Units=1/GPa)
#
#
# Indices 1 2 3 4 5 6 
#
# 1 0.036979 -0.002695 -0.004383 0.000000 -0.004301 0.000000
# 2 -0.002695 0.016670 -0.006471 0.000000 -0.004957 0.000000
# 3 -0.004383 -0.006471 0.014986 0.000000 -0.003906 0.000000
# 4 0.000000 0.000000 0.000000 0.081247 0.000000 0.031950
# 5 -0.004301 -0.004957 -0.003906 0.000000 0.053225 0.000000
# 6 0.000000 0.000000 0.000000 0.031950 0.000000 0.078903
#
#
# Mechanical properties :
#
#
# Convention : Reuss Voigt Hill
#
# Bulk Modulus (GPa) = 24.07508 38.18978 31.13243
# Shear Modulus (GPa) = 15.48214 19.16104 17.32159
#
# Velocity S-wave (km/s) = 2.75745 3.06762 2.91666
# Velocity P-wave (km/s) = 4.68633 5.59488 5.16064
#
# Compressibility (1/GPa) = 0.04153673
#
# Stress axis : x y z
#
# Youngs Moduli (GPa) = 27.04258 59.98956 66.72955
#
# Poissons Ratio (x) = 0.16166 0.29247
# Poissons Ratio (y) = 0.07287 0.43181
# Poissons Ratio (z) = 0.11853 0.38819
#
# Static dielectric constant tensor:
#      x y z
#    x 1.771540 0.000000 0.001120 
#    y 0.000000 1.704380 0.000000 
#    z 0.001120 0.000000 1.784180 
# 
# From -- ./inp_files/251589.got.cif
#   From: 2010.05.17/outbox.cif.g08.bks.cpg/sg15_126_cif.got.tgz:251589.got - 2010.06.03 18:47:42.
