data_PCOD9261707
_publ_section_title
;
Structure prediction by ZEFSAII (Michael W. Deem and Ramdas Pophale) SiO2 
 PCOD9261707
Probable space group: C 2/C
;
_chemical_formula_sum "Si O2"
_cell_formula_units_Z 56
_cell_length_a 28.858113
_cell_length_b 15.841651
_cell_length_c 9.896518
_cell_angle_alpha 90.000000
_cell_angle_beta 143.358543
_cell_angle_gamma 90.000000
_cell_volume 2700.123845
_symmetry_space_group_name_H-M "C 2/C"
_symmetry_group_IT_number 15
_symmetry_cell_setting 'monoclinic'
loop_
_space_group_symop_operation_xyz
x,y,z
-x,y,1/2-z
-x,-y,-z
x,-y,1/2+z
1/2+x,1/2+y,z
1/2-x,1/2+y,1/2-z
1/2-x,1/2-y,-z
1/2+x,1/2-y,1/2+z
loop_
_atom_site_type_symbol
_atom_site_label
_atom_site_fract_x
_atom_site_fract_y
_atom_site_fract_z
Si Si1 0.778192 0.840935 0.861018
Si Si2 0.662081 0.979837 0.463748
Si Si3 0.792248 0.174787 0.907613
Si Si4 0.313096 0.430843 0.215062
Si Si5 0.127099 0.398565 0.110043
Si Si6 0.955643 0.955106 0.013505
Si Si7 0.105675 0.786639 0.598648
O O1 0.714878 0.910146 0.664554
O O2 0.738876 0.749085 0.762119
O O3 0.846300 0.830625 0.910098
O O4 0.811324 0.869530 0.082260
O O5 0.616499 0.937512 0.233549
O O6 0.725302 0.040096 0.539018
O O7 0.613547 0.034489 0.458396
O O8 0.838045 0.112126 0.915247
O O9 0.718616 0.126800 0.801823
O O10 0.839553 0.215947 0.140495
O O11 0.367943 0.509732 0.310119
O O12 0.085632 0.307878 0.008691
O O13 0.959088 0.853934 0.013206
O O14 0.000000 0.981842 0.250000
O O15 0.000000 0.000000 0.000000
#
# Coordination Sequence:
#
# PCOD9261707 Si02
#       7
#     8   8   8   8   8   8   8
#     4  11  18  31  50  78 114 141 175 211 272 347
#     4  11  18  30  52  79 112 141 168 209 274 352
#     4  10  19  31  52  78 109 150 174 209 274 343
#     4  11  22  33  51  76 113 146 181 228 273 310
#     4  10  19  31  50  79 109 143 171 207 271 349
#     4  12  25  39  56  76 104 152 204 235 261 307
#     4  11  20  36  52  73 108 148 182 230 274 314
#
# _framework density 20.739788000000001
#
# number of rings (size 3 to 8) (size 9 to 14) (size 15 to 20)
#    0.000    1.143    5.714    3.000    2.000    0.000 
#    0.000    0.000    0.000    0.000    0.000    1.000 
#    0.000    0.000    0.000    0.000    0.000    0.000 
#
# Total GULP energy -156385.233236 kJ/mol
# GULP energy per Si atom -5585.186901 kJ/mol
# Density = 2.069258 g / cm^3
# Si number density = 20.739788 Si / 1000 Ang^3
#
#
#
# Elastic Constant Matrix: (Units=GPa)
#
#
# Indices 1 2 3 4 5 6 
#
# 1 61.4976 52.4919 30.1210 0.0000 -27.8740 0.0000
# 2 52.4919 108.8276 11.7054 0.0000 -18.3225 0.0000
# 3 30.1210 11.7054 54.6086 0.0000 -23.6273 0.0000
# 4 0.0000 0.0000 0.0000 24.5856 0.0000 -1.8458
# 5 -27.8740 -18.3225 -23.6273 0.0000 28.0516 0.0000
# 6 0.0000 0.0000 0.0000 -1.8458 0.0000 21.8619
#
#
#
# Elastic Compliance Matrix: (Units=1/GPa)
#
#
# Indices 1 2 3 4 5 6 
#
# 1 0.050429 -0.018297 -0.011617 0.000000 0.028374 0.000000
# 2 -0.018297 0.017006 0.005328 0.000000 -0.002586 0.000000
# 3 -0.011617 0.005328 0.031608 0.000000 0.018559 0.000000
# 4 0.000000 0.000000 0.000000 0.040934 0.000000 0.003456
# 5 0.028374 -0.002586 0.018559 0.000000 0.077786 0.000000
# 6 0.000000 0.000000 0.000000 0.003456 0.000000 0.046033
#
#
# Mechanical properties :
#
#
# Convention : Reuss Voigt Hill
#
# Bulk Modulus (GPa) = 20.05196 45.95227 33.00212
# Shear Modulus (GPa) = 15.17027 23.60752 19.38890
#
# Velocity S-wave (km/s) = 2.70748 3.37749 3.06087
# Velocity P-wave (km/s) = 4.41172 6.11675 5.33282
#
# Compressibility (1/GPa) = 0.04987043
#
# Stress axis : x y z
#
# Youngs Moduli (GPa) = 19.82976 58.80301 31.63778
#
# Poissons Ratio (x) = 1.07594 0.36755
# Poissons Ratio (y) = 0.36283 -0.16858
# Poissons Ratio (z) = 0.23037 -0.31333
#
# Static dielectric constant tensor:
#      x y z
#    x 1.733420 0.000000 0.013970 
#    y 0.000000 1.795550 0.000000 
#    z 0.013970 0.000000 1.766750 
# 
# From -- ./inp_files/70504.got.cif
#   From: 2010.05.17/outbox.cif.g08.bks.cpg/sg15_36_cif.got.tgz:70504.got - 2010.06.03 18:47:42.
