data_PCOD9261947
_publ_section_title
;
Structure prediction by ZEFSAII (Michael W. Deem and Ramdas Pophale) SiO2 
 PCOD9261947
Probable space group: C 2/C
;
_chemical_formula_sum "Si O2"
_cell_formula_units_Z 60
_cell_length_a 13.312691
_cell_length_b 26.895356
_cell_length_c 17.172166
_cell_angle_alpha 90.000000
_cell_angle_beta 29.433778
_cell_angle_gamma 90.000000
_cell_volume 3021.472542
_symmetry_space_group_name_H-M "C 2/C"
_symmetry_group_IT_number 15
_symmetry_cell_setting 'monoclinic'
loop_
_space_group_symop_operation_xyz
x,y,z
-x,y,1/2-z
-x,-y,-z
x,-y,1/2+z
1/2+x,1/2+y,z
1/2-x,1/2+y,1/2-z
1/2-x,1/2-y,-z
1/2+x,1/2-y,1/2+z
loop_
_atom_site_type_symbol
_atom_site_label
_atom_site_fract_x
_atom_site_fract_y
_atom_site_fract_z
Si Si1 0.993152 0.197417 0.567959
Si Si2 0.097846 0.188641 0.051919
Si Si3 0.757815 0.099534 0.891924
Si Si4 0.500000 0.752425 0.250000
Si Si5 0.701456 0.976712 0.561950
Si Si6 0.272272 0.290082 0.368581
Si Si7 0.933221 0.915396 0.116035
Si Si8 0.760840 0.414771 0.423857
O O1 0.959153 0.197331 0.498969
O O2 0.803529 0.208346 0.753722
O O3 0.039829 0.139307 0.552311
O O4 0.153160 0.241287 0.475259
O O5 0.321932 0.213293 0.902935
O O6 0.133251 0.130835 0.044781
O O7 0.948599 0.215821 0.212958
O O8 0.679020 0.156157 0.955319
O O9 0.758790 0.084970 0.800462
O O10 0.000000 0.101175 0.750000
O O11 0.670157 0.057330 0.007005
O O12 0.500000 0.973271 0.750000
O O13 0.895361 0.954901 0.477453
O O14 0.743550 0.035142 0.522677
O O15 0.500000 0.288528 0.250000
O O16 0.836638 0.922877 0.096456
O O17 0.000000 0.401262 0.250000
#
# Coordination Sequence:
#
# PCOD9261947 Si02
#       8
#     8   8   8   4   8   8   8   8
#     4  10  20  32  53  79 110 140 183 214 269 324
#     4  10  20  37  57  81 110 143 179 226 268 325
#     4   8  17  35  53  77 109 149 183 219 277 332
#     4  10  20  36  58  78 110 140 176 218 280 310
#     4  10  20  35  57  82 108 141 185 233 282 327
#     4  10  19  32  50  79 111 148 178 217 267 332
#     4   9  19  36  57  77 110 149 181 226 279 334
#     4  10  20  37  59  81 107 147 191 227 275 328
#
# _framework density 19.857866999999999
#
# number of rings (size 3 to 8) (size 9 to 14) (size 15 to 20)
#    0.000    2.400    0.667    2.400    0.000    1.600 
#    3.600    2.667    0.000    0.000    0.000    0.000 
#    0.000    0.000    0.000    0.000    0.000    0.000 
#
# Total GULP energy -167149.340193 kJ/mol
# GULP energy per Si atom -5571.644673 kJ/mol
# Density = 1.981267 g / cm^3
# Si number density = 19.857867 Si / 1000 Ang^3
#
#
#
# Elastic Constant Matrix: (Units=GPa)
#
#
# Indices 1 2 3 4 5 6 
#
# 1 42.3418 23.5758 1.8197 0.0166 17.1715 0.0056
# 2 23.5758 149.5160 41.7162 0.0438 13.3696 0.0104
# 3 1.8197 41.7162 28.3263 0.1646 13.5696 0.0277
# 4 0.0166 0.0438 0.1646 146.2203 -0.0799 23.9508
# 5 17.1715 13.3696 13.5696 -0.0799 28.3449 -0.0166
# 6 0.0056 0.0104 0.0277 23.9508 -0.0166 25.4262
#
#
#
# Elastic Compliance Matrix: (Units=1/GPa)
#
#
# Indices 1 2 3 4 5 6 
#
# 1 0.044822 -0.013451 0.034904 -0.000059 -0.037519 -0.000011
# 2 -0.013451 0.015654 -0.029269 0.000037 0.014777 0.000003
# 3 0.034904 -0.029269 0.103394 -0.000140 -0.056837 -0.000013
# 4 -0.000059 0.000037 -0.000140 0.008087 0.000104 -0.007617
# 5 -0.037519 0.014777 -0.056837 0.000104 0.078249 0.000018
# 6 -0.000011 0.000003 -0.000013 -0.007617 0.000018 0.046505
#
#
# Mechanical properties :
#
#
# Convention : Reuss Voigt Hill
#
# Bulk Modulus (GPa) = 6.74595 39.37862 23.06229
# Shear Modulus (GPa) = 13.82146 50.20311 32.01228
#
# Velocity S-wave (km/s) = 2.64108 5.03350 4.01942
# Velocity P-wave (km/s) = 3.56439 7.32494 5.76019
#
# Compressibility (1/GPa) = 0.14823707
#
# Stress axis : x y z
#
# Youngs Moduli (GPa) = 22.31032 63.88087 9.67178
#
# Poissons Ratio (x) = 0.85927 -0.33758
# Poissons Ratio (y) = 0.30010 0.28308
# Poissons Ratio (z) = -0.77871 1.86972
#
# Static dielectric constant tensor:
#      x y z
#    x 1.756940 0.000010 0.029130 
#    y 0.000010 1.741380 0.000010 
#    z 0.029130 0.000010 1.687660 
# 
# From -- ./inp_files/207230.got.cif
#   From: 2010.05.17/outbox.cif.g08.bks.cpg/sg15_104_cif.got.tgz:207230.got - 2010.06.03 18:47:42.
