data_PCOD9261919
_publ_section_title
;
Structure prediction by ZEFSAII (Michael W. Deem and Ramdas Pophale) SiO2 
 PCOD9261919
Probable space group: C 2/C
;
_chemical_formula_sum "Si O2"
_cell_formula_units_Z 48
_cell_length_a 19.064071
_cell_length_b 12.105886
_cell_length_c 11.779269
_cell_angle_alpha 90.000000
_cell_angle_beta 73.636064
_cell_angle_gamma 90.000000
_cell_volume 2608.385025
_symmetry_space_group_name_H-M "C 2/C"
_symmetry_group_IT_number 15
_symmetry_cell_setting 'monoclinic'
loop_
_space_group_symop_operation_xyz
x,y,z
-x,y,1/2-z
-x,-y,-z
x,-y,1/2+z
1/2+x,1/2+y,z
1/2-x,1/2+y,1/2-z
1/2-x,1/2-y,-z
1/2+x,1/2-y,1/2+z
loop_
_atom_site_type_symbol
_atom_site_label
_atom_site_fract_x
_atom_site_fract_y
_atom_site_fract_z
Si Si1 0.071197 0.763145 0.558838
Si Si2 0.252104 0.733458 0.177434
Si Si3 0.093336 0.804919 0.813821
Si Si4 0.413328 0.489202 0.045810
Si Si5 0.288705 0.574809 0.955521
Si Si6 0.290861 0.154999 0.056357
O O1 0.087855 0.795332 0.681622
O O2 0.122670 0.659439 0.510502
O O3 0.982928 0.762371 0.596728
O O4 0.099988 0.859305 0.461176
O O5 0.337228 0.758180 0.167329
O O6 0.213694 0.843814 0.150297
O O7 0.220485 0.684005 0.306942
O O8 0.252178 0.643898 0.075857
O O9 0.106965 0.934093 0.838508
O O10 0.369756 0.545073 0.961886
O O11 0.500000 0.500000 0.000000
O O12 0.245744 0.461841 0.954075
O O13 0.250000 0.250000 0.000000
#
# Coordination Sequence:
#
# PCOD9261919 Si02
#       6
#     8   8   8   8   8   8
#     4  10  19  32  49  83 107 142 191 232 286 338
#     4  10  22  38  59  83 115 153 188 241 285 345
#     4   9  18  33  53  72 112 148 183 233 281 345
#     4   9  17  31  52  78 108 143 181 233 292 339
#     4  10  22  38  57  85 117 150 191 233 294 344
#     4  12  22  34  59  88 112 145 196 241 285 345
#
# _framework density 18.402190999999998
#
# number of rings (size 3 to 8) (size 9 to 14) (size 15 to 20)
#    0.000    2.000    3.333    0.000    2.333    1.333 
#    0.000    2.500    0.000    8.000    0.000    0.000 
#    0.000    0.000    0.000    0.000    0.000    0.000 
#
# Total GULP energy -133742.508686 kJ/mol
# GULP energy per Si atom -5572.604529 kJ/mol
# Density = 1.836031 g / cm^3
# Si number density = 18.402191 Si / 1000 Ang^3
#
#
#
# Elastic Constant Matrix: (Units=GPa)
#
#
# Indices 1 2 3 4 5 6 
#
# 1 111.5469 46.0735 34.4870 0.0000 -0.7199 0.0000
# 2 46.0735 88.2738 28.8961 0.0000 9.1568 0.0000
# 3 34.4870 28.8961 83.1850 0.0000 5.3124 0.0000
# 4 0.0000 0.0000 0.0000 11.3717 0.0000 -0.4682
# 5 -0.7199 9.1568 5.3124 0.0000 21.3306 0.0000
# 6 0.0000 0.0000 0.0000 -0.4682 0.0000 24.6431
#
#
#
# Elastic Compliance Matrix: (Units=1/GPa)
#
#
# Indices 1 2 3 4 5 6 
#
# 1 0.012414 -0.005759 -0.003385 0.000000 0.003734 0.000000
# 2 -0.005759 0.015883 -0.002725 0.000000 -0.006334 0.000000
# 3 -0.003385 -0.002725 0.014535 0.000000 -0.002564 0.000000
# 4 0.000000 0.000000 0.000000 0.088006 0.000000 0.001672
# 5 0.003734 -0.006334 -0.002564 0.000000 0.050365 0.000000
# 6 0.000000 0.000000 0.000000 0.001672 0.000000 0.040611
#
#
# Mechanical properties :
#
#
# Convention : Reuss Voigt Hill
#
# Bulk Modulus (GPa) = 52.37041 55.76877 54.06959
# Shear Modulus (GPa) = 19.84780 23.03901 21.44341
#
# Velocity S-wave (km/s) = 3.28770 3.54216 3.41730
# Velocity P-wave (km/s) = 6.55229 6.86298 6.70943
#
# Compressibility (1/GPa) = 0.01909475
#
# Stress axis : x y z
#
# Youngs Moduli (GPa) = 80.55445 62.95925 68.79889
#
# Poissons Ratio (x) = 0.36256 0.23286
# Poissons Ratio (y) = 0.46389 0.18751
# Poissons Ratio (z) = 0.27265 0.17159
#
# Static dielectric constant tensor:
#      x y z
#    x 1.662120 0.000000 -0.013980 
#    y 0.000000 1.645790 0.000000 
#    z -0.013980 0.000000 1.649670 
# 
# From -- ./inp_files/103647.got.cif
#   From: 2010.05.17/outbox.cif.g08.bks.cpg/sg15_52_cif.got.tgz:103647.got - 2010.06.03 18:47:42.
