data_PCOD9261584
_publ_section_title
;
Structure prediction by ZEFSAII (Michael W. Deem and Ramdas Pophale) SiO2 
 PCOD9261584
Probable space group: C 2/C
;
_chemical_formula_sum "Si O2"
_cell_formula_units_Z 56
_cell_length_a 13.786204
_cell_length_b 18.579545
_cell_length_c 14.286488
_cell_angle_alpha 90.000000
_cell_angle_beta 121.337921
_cell_angle_gamma 90.000000
_cell_volume 3125.514396
_symmetry_space_group_name_H-M "C 2/C"
_symmetry_group_IT_number 15
_symmetry_cell_setting 'monoclinic'
loop_
_space_group_symop_operation_xyz
x,y,z
-x,y,1/2-z
-x,-y,-z
x,-y,1/2+z
1/2+x,1/2+y,z
1/2-x,1/2+y,1/2-z
1/2-x,1/2-y,-z
1/2+x,1/2-y,1/2+z
loop_
_atom_site_type_symbol
_atom_site_label
_atom_site_fract_x
_atom_site_fract_y
_atom_site_fract_z
Si Si1 0.130855 0.903431 0.805248
Si Si2 0.048737 0.198712 0.675684
Si Si3 0.857864 0.270283 0.491343
Si Si4 0.922364 0.957445 0.342833
Si Si5 0.676533 0.488781 0.006859
Si Si6 0.377686 0.897744 0.639372
Si Si7 0.247330 0.296583 0.771046
O O1 0.194002 0.842380 0.779254
O O2 0.000000 0.880930 0.750000
O O3 0.124480 0.976340 0.740206
O O4 0.183149 0.927486 0.930592
O O5 0.093243 0.119036 0.713746
O O6 0.143497 0.249971 0.682724
O O7 0.000000 0.227110 0.750000
O O8 0.945746 0.205735 0.553280
O O9 0.750000 0.250000 0.500000
O O10 0.897610 0.345710 0.558044
O O11 0.823013 0.261272 0.366568
O O12 0.857211 0.957344 0.408760
O O13 0.058889 0.968142 0.423140
O O14 0.790466 0.537409 0.068925
O O15 0.500000 0.915957 0.750000
O O16 0.306072 0.851669 0.679636
#
# Coordination Sequence:
#
# PCOD9261584 Si02
#       7
#     8   8   8   8   8   8   8
#     4  10  22  39  60  87 116 155 196 242 297 355
#     4  12  20  33  56  91 117 143 192 249 295 343
#     4  10  19  30  55  85 116 146 179 236 304 338
#     4  10  21  34  59  90 115 145 196 254 294 345
#     4  10  21  37  61  83 118 157 196 239 301 344
#     4  11  19  37  58  88 122 153 191 241 295 354
#     4  11  21  36  57  86 123 152 192 243 297 349
#
# _framework density 17.917051000000001
#
# number of rings (size 3 to 8) (size 9 to 14) (size 15 to 20)
#    0.000    1.429    5.714    3.000    6.000    0.000 
#    0.000    1.429    3.143    0.000    0.000    0.000 
#    0.000    0.000    0.000    0.000    0.000    0.000 
#
# Total GULP energy -155982.239487 kJ/mol
# GULP energy per Si atom -5570.794267 kJ/mol
# Density = 1.787627 g / cm^3
# Si number density = 17.917051 Si / 1000 Ang^3
#
#
#
# Elastic Constant Matrix: (Units=GPa)
#
#
# Indices 1 2 3 4 5 6 
#
# 1 87.1711 57.1476 37.8877 0.0000 -12.7344 0.0000
# 2 57.1476 73.1646 15.0385 0.0000 1.4567 0.0000
# 3 37.8877 15.0385 60.3802 0.0000 -0.2397 0.0000
# 4 0.0000 0.0000 0.0000 20.6263 0.0000 -6.4164
# 5 -12.7344 1.4567 -0.2397 0.0000 27.1555 0.0000
# 6 0.0000 0.0000 0.0000 -6.4164 0.0000 31.8120
#
#
#
# Elastic Compliance Matrix: (Units=1/GPa)
#
#
# Indices 1 2 3 4 5 6 
#
# 1 0.042088 -0.029389 -0.019006 0.000000 0.021146 0.000000
# 2 -0.029389 0.034944 0.009676 0.000000 -0.015571 0.000000
# 3 -0.019006 0.009676 0.026041 0.000000 -0.009202 0.000000
# 4 0.000000 0.000000 0.000000 0.051727 0.000000 0.010433
# 5 0.021146 -0.015571 -0.009202 0.000000 0.047495 0.000000
# 6 0.000000 0.000000 0.000000 0.010433 0.000000 0.033539
#
#
# Mechanical properties :
#
#
# Convention : Reuss Voigt Hill
#
# Bulk Modulus (GPa) = 39.00818 48.98485 43.99651
# Shear Modulus (GPa) = 15.53669 23.29490 19.41579
#
# Velocity S-wave (km/s) = 2.94793 3.60967 3.29545
# Velocity P-wave (km/s) = 5.77978 6.69120 6.25212
#
# Compressibility (1/GPa) = 0.02563565
#
# Stress axis : x y z
#
# Youngs Moduli (GPa) = 23.75956 28.61710 38.40048
#
# Poissons Ratio (x) = 0.84102 0.72985
# Poissons Ratio (y) = 0.69827 -0.37156
# Poissons Ratio (z) = 0.45158 -0.27690
#
# Static dielectric constant tensor:
#      x y z
#    x 1.602620 0.000000 0.006680 
#    y 0.000000 1.628840 0.000000 
#    z 0.006680 0.000000 1.752470 
# 
# From -- ./inp_files/146151.got.cif
#   From: 2010.05.17/outbox.cif.g08.bks.cpg/sg15_74_cif.got.tgz:146151.got - 2010.06.03 18:47:42.
