data_PCOD9261525
_publ_section_title
;
Structure prediction by ZEFSAII (Michael W. Deem and Ramdas Pophale) SiO2 
 PCOD9261525
Probable space group: C 2/C
;
_chemical_formula_sum "Si O2"
_cell_formula_units_Z 56
_cell_length_a 15.302408
_cell_length_b 9.978973
_cell_length_c 15.339054
_cell_angle_alpha 90.000000
_cell_angle_beta 79.793013
_cell_angle_gamma 90.000000
_cell_volume 2305.239705
_symmetry_space_group_name_H-M "C 2/C"
_symmetry_group_IT_number 15
_symmetry_cell_setting 'monoclinic'
loop_
_space_group_symop_operation_xyz
x,y,z
-x,y,1/2-z
-x,-y,-z
x,-y,1/2+z
1/2+x,1/2+y,z
1/2-x,1/2+y,1/2-z
1/2-x,1/2-y,-z
1/2+x,1/2-y,1/2+z
loop_
_atom_site_type_symbol
_atom_site_label
_atom_site_fract_x
_atom_site_fract_y
_atom_site_fract_z
Si Si1 0.422774 0.660113 0.342102
Si Si2 0.379795 0.333512 0.494290
Si Si3 0.171875 0.354765 0.035195
Si Si4 0.470847 0.609888 0.661184
Si Si5 0.294298 0.482608 0.143040
Si Si6 0.255061 0.540317 0.887646
Si Si7 0.156496 0.262369 0.315566
O O1 0.412126 0.766597 0.421934
O O2 0.500196 0.549000 0.157657
O O3 0.335962 0.562397 0.358629
O O4 0.409413 0.741917 0.253414
O O5 0.355338 0.473930 0.546336
O O6 0.471125 0.329380 0.426017
O O7 0.302180 0.337925 0.434106
O O8 0.380404 0.237101 0.578010
O O9 0.205779 0.427824 0.116718
O O10 0.250000 0.250000 0.000000
O O11 0.180099 0.461972 0.956477
O O12 0.500000 0.663501 0.750000
O O13 0.365436 0.382436 0.172429
O O14 0.214652 0.396476 0.307075
O O15 0.285999 0.625567 0.191609
#
# Coordination Sequence:
#
# PCOD9261525 Si02
#       7
#     8   8   8   8   8   8   8
#     4  10  21  32  53  81 111 140 177 228 276 319
#     4   8  18  28  46  75 102 133 165 222 264 310
#     4   9  19  35  50  78 109 141 175 225 278 320
#     4  11  18  33  51  79 107 139 181 226 270 320
#     4   9  19  31  52  77 105 137 179 217 275 317
#     4   9  18  33  51  73 112 140 179 214 273 325
#     4  10  19  30  50  80 106 141 177 224 269 324
#
# _framework density 24.292484999999999
#
# number of rings (size 3 to 8) (size 9 to 14) (size 15 to 20)
#    0.857    1.714    1.429    1.714    2.000    0.000 
#    0.000    0.000    0.000    0.857    0.000    1.000 
#    0.000    0.000    0.000    0.000    0.000    0.000 
#
# Total GULP energy -155996.572994 kJ/mol
# GULP energy per Si atom -5571.306178 kJ/mol
# Density = 2.423719 g / cm^3
# Si number density = 24.292485 Si / 1000 Ang^3
#
#
#
# Elastic Constant Matrix: (Units=GPa)
#
#
# Indices 1 2 3 4 5 6 
#
# 1 56.8296 17.4419 19.3678 0.0000 10.1626 0.0000
# 2 17.4419 60.3112 7.4645 0.0000 0.0485 0.0000
# 3 19.3678 7.4645 71.6516 0.0000 -4.8733 0.0000
# 4 0.0000 0.0000 0.0000 34.9651 0.0000 -0.5197
# 5 10.1626 0.0485 -4.8733 0.0000 37.1166 0.0000
# 6 0.0000 0.0000 0.0000 -0.5197 0.0000 17.5899
#
#
#
# Elastic Compliance Matrix: (Units=1/GPa)
#
#
# Indices 1 2 3 4 5 6 
#
# 1 0.022673 -0.005809 -0.005999 0.000000 -0.006988 0.000000
# 2 -0.005809 0.018288 -0.000230 0.000000 0.001536 0.000000
# 3 -0.005999 -0.000230 0.015855 0.000000 0.003725 0.000000
# 4 0.000000 0.000000 0.000000 0.028612 0.000000 0.000845
# 5 -0.006988 0.001536 0.003725 0.000000 0.029343 0.000000
# 6 0.000000 0.000000 0.000000 0.000845 0.000000 0.056876
#
#
# Mechanical properties :
#
#
# Convention : Reuss Voigt Hill
#
# Bulk Modulus (GPa) = 30.54380 30.81564 30.67972
# Shear Modulus (GPa) = 24.19697 27.56888 25.88293
#
# Velocity S-wave (km/s) = 3.15948 3.37244 3.26770
# Velocity P-wave (km/s) = 5.09023 5.27989 5.18593
#
# Compressibility (1/GPa) = 0.03273986
#
# Stress axis : x y z
#
# Youngs Moduli (GPa) = 44.10447 54.68090 63.07049
#
# Poissons Ratio (x) = 0.31764 0.37835
# Poissons Ratio (y) = 0.25620 0.01454
# Poissons Ratio (z) = 0.26458 0.01260
#
# Static dielectric constant tensor:
#      x y z
#    x 2.016280 0.000000 -0.049130 
#    y 0.000000 1.988790 0.000000 
#    z -0.049130 0.000000 2.154790 
# 
# From -- ./inp_files/167207.got.cif
#   From: 2010.05.17/outbox.cif.g08.bks.cpg/sg15_84_cif.got.tgz:167207.got - 2010.06.03 18:47:42.
