data_PCOD9261242
_publ_section_title
;
Structure prediction by ZEFSAII (Michael W. Deem and Ramdas Pophale) SiO2 
 PCOD9261242
Probable space group: C 2/C
;
_chemical_formula_sum "Si O2"
_cell_formula_units_Z 36
_cell_length_a 19.736200
_cell_length_b 10.127678
_cell_length_c 13.169904
_cell_angle_alpha 90.000000
_cell_angle_beta 44.046303
_cell_angle_gamma 90.000000
_cell_volume 1830.165869
_symmetry_space_group_name_H-M "C 2/C"
_symmetry_group_IT_number 15
_symmetry_cell_setting 'monoclinic'
loop_
_space_group_symop_operation_xyz
x,y,z
-x,y,1/2-z
-x,-y,-z
x,-y,1/2+z
1/2+x,1/2+y,z
1/2-x,1/2+y,1/2-z
1/2-x,1/2-y,-z
1/2+x,1/2-y,1/2+z
loop_
_atom_site_type_symbol
_atom_site_label
_atom_site_fract_x
_atom_site_fract_y
_atom_site_fract_z
Si Si1 0.500000 0.747685 0.250000
Si Si2 0.475025 0.852392 0.052188
Si Si3 0.416692 0.603600 0.627659
Si Si4 0.311378 0.579037 0.395435
Si Si5 0.742290 0.831970 0.165101
O O1 0.502787 0.824100 0.140365
O O2 0.404464 0.657952 0.340009
O O3 0.359089 0.838238 0.167285
O O4 0.528733 0.743642 0.925102
O O5 0.500000 0.000000 0.000000
O O6 0.500000 0.500000 0.500000
O O7 0.359278 0.543628 0.785952
O O8 0.332786 0.626600 0.635129
O O9 0.257756 0.680997 0.376791
O O10 0.241550 0.570026 0.568043
#
# Coordination Sequence:
#
# PCOD9261242 Si02
#       5
#     4   8   8   8   8
#     4  10  18  42  66  86 126 174 216 260 340 396
#     4  11  25  40  65  99 135 174 216 282 339 402
#     4  12  22  40  69 100 127 177 233 275 329 411
#     4  10  20  39  66  96 120 177 223 269 324 405
#     4  10  22  37  65  93 129 167 221 270 336 391
#
# _framework density 19.670347
#
# number of rings (size 3 to 8) (size 9 to 14) (size 15 to 20)
#    0.000    1.333    6.667    0.000    3.111    0.000 
#    0.000    4.444    0.000    0.000    0.000    0.000 
#    0.000    0.000    0.000    0.000    0.000    0.000 
#
# Total GULP energy -100386.288822 kJ/mol
# GULP energy per Si atom -5577.016046 kJ/mol
# Density = 1.962558 g / cm^3
# Si number density = 19.670347 Si / 1000 Ang^3
#
#
#
# Elastic Constant Matrix: (Units=GPa)
#
#
# Indices 1 2 3 4 5 6 
#
# 1 93.0838 29.2298 24.9036 0.0000 -25.4043 0.0000
# 2 29.2298 119.2771 54.3622 0.0000 -1.1935 0.0000
# 3 24.9036 54.3622 98.7312 0.0000 -1.8647 0.0000
# 4 0.0000 0.0000 0.0000 46.2775 0.0000 2.6300
# 5 -25.4043 -1.1935 -1.8647 0.0000 27.0762 0.0000
# 6 0.0000 0.0000 0.0000 2.6300 0.0000 21.2804
#
#
#
# Elastic Compliance Matrix: (Units=1/GPa)
#
#
# Indices 1 2 3 4 5 6 
#
# 1 0.016348 -0.002811 -0.002291 0.000000 0.015057 0.000000
# 2 -0.002811 0.011676 -0.005767 0.000000 -0.002520 0.000000
# 3 -0.002291 -0.005767 0.013855 0.000000 -0.001450 0.000000
# 4 0.000000 0.000000 0.000000 0.021762 0.000000 -0.002689
# 5 0.015057 -0.002520 -0.001450 0.000000 0.050849 0.000000
# 6 0.000000 0.000000 0.000000 -0.002689 0.000000 0.047324
#
#
# Mechanical properties :
#
#
# Convention : Reuss Voigt Hill
#
# Bulk Modulus (GPa) = 49.65525 58.67591 54.16558
# Shear Modulus (GPa) = 26.27888 32.43325 29.35606
#
# Velocity S-wave (km/s) = 3.65905 4.06500 3.86735
# Velocity P-wave (km/s) = 6.56887 7.20601 6.89481
#
# Compressibility (1/GPa) = 0.02013886
#
# Stress axis : x y z
#
# Youngs Moduli (GPa) = 61.16908 85.64461 72.17766
#
# Poissons Ratio (x) = 0.24077 0.16538
# Poissons Ratio (y) = 0.17196 0.41628
# Poissons Ratio (z) = 0.14016 0.49395
#
# Static dielectric constant tensor:
#      x y z
#    x 1.793530 0.000000 -0.312130 
#    y 0.000000 1.743670 0.000000 
#    z -0.312130 0.000000 2.987700 
# 
# From -- ./inp_files/160172.got.cif
#   From: 2010.05.17/outbox.cif.g08.bks.cpg/sg15_81_cif.got.tgz:160172.got - 2010.06.03 18:47:42.
