data_PCOD9261011
_publ_section_title
;
Structure prediction by ZEFSAII (Michael W. Deem and Ramdas Pophale) SiO2 
 PCOD9261011
Probable space group: C 2/C
;
_chemical_formula_sum "Si O2"
_cell_formula_units_Z 60
_cell_length_a 10.915691
_cell_length_b 17.517702
_cell_length_c 21.147154
_cell_angle_alpha 90.000000
_cell_angle_beta 42.793398
_cell_angle_gamma 90.000000
_cell_volume 2747.123557
_symmetry_space_group_name_H-M "C 2/C"
_symmetry_group_IT_number 15
_symmetry_cell_setting 'monoclinic'
loop_
_space_group_symop_operation_xyz
x,y,z
-x,y,1/2-z
-x,-y,-z
x,-y,1/2+z
1/2+x,1/2+y,z
1/2-x,1/2+y,1/2-z
1/2-x,1/2-y,-z
1/2+x,1/2-y,1/2+z
loop_
_atom_site_type_symbol
_atom_site_label
_atom_site_fract_x
_atom_site_fract_y
_atom_site_fract_z
Si Si1 0.779364 0.051491 0.672749
Si Si2 0.034959 0.672529 0.809736
Si Si3 0.156520 0.667132 0.037398
Si Si4 0.184748 0.883120 0.479743
Si Si5 0.769457 0.121202 0.134807
Si Si6 0.337121 0.476814 0.415977
Si Si7 0.729989 0.186231 0.275274
Si Si8 0.000000 0.922711 0.750000
O O1 0.615874 0.087304 0.773922
O O2 0.808356 0.098442 0.597588
O O3 0.961543 0.051586 0.643409
O O4 0.749526 0.967256 0.658909
O O5 0.190465 0.730651 0.767921
O O6 0.000000 0.695455 0.750000
O O7 0.857110 0.672286 0.920095
O O8 0.215777 0.635807 0.083784
O O9 0.943083 0.682044 0.114443
O O10 0.250000 0.750000 0.000000
O O11 0.215720 0.599176 0.967115
O O12 0.980292 0.856202 0.567134
O O13 0.210810 0.959015 0.512622
O O14 0.664801 0.160407 0.231130
O O15 0.362206 0.523685 0.341532
O O16 0.884202 0.130610 0.246106
#
# Coordination Sequence:
#
# PCOD9261011 Si02
#       8
#     8   8   8   8   8   8   8   4
#     4  10  18  39  69 101 126 165 220 286 320 376
#     4  10  23  37  67 100 136 173 223 280 330 388
#     4  12  27  46  69  97 135 180 224 279 339 401
#     4  10  19  37  72 100 119 172 225 283 323 377
#     4  11  22  43  70 100 128 169 229 278 329 399
#     4  11  22  44  69  95 136 171 229 275 331 409
#     4  12  26  45  65  98 144 179 217 279 342 401
#     4  12  26  46  68  98 136 186 214 276 350 398
#
# _framework density 21.841027
#
# number of rings (size 3 to 8) (size 9 to 14) (size 15 to 20)
#    0.000    1.067    6.000    2.000    3.733    2.133 
#    7.200    0.000    0.000    0.000    0.000    0.000 
#    0.000    0.000    0.000    0.000    0.000    0.000 
#
# Total GULP energy -167440.659253 kJ/mol
# GULP energy per Si atom -5581.355308 kJ/mol
# Density = 2.179132 g / cm^3
# Si number density = 21.841027 Si / 1000 Ang^3
#
#
#
# Elastic Constant Matrix: (Units=GPa)
#
#
# Indices 1 2 3 4 5 6 
#
# 1 40.7434 18.2931 14.1147 0.0014 -6.8813 -0.0036
# 2 18.2931 75.2014 40.0265 0.0040 -16.6363 -0.0060
# 3 14.1147 40.0265 89.7485 0.0073 -16.3701 -0.0089
# 4 0.0014 0.0040 0.0073 -21.1540 -0.0020 104.8846
# 5 -6.8813 -16.6363 -16.3701 -0.0020 30.9236 0.0030
# 6 -0.0036 -0.0060 -0.0089 104.8846 0.0030 -313.5941
#
#
#
# Elastic Compliance Matrix: (Units=1/GPa)
#
#
# Indices 1 2 3 4 5 6 
#
# 1 0.027930 -0.005438 -0.001513 0.000001 0.002488 0.000000
# 2 -0.005438 0.019499 -0.006805 0.000000 0.005677 0.000000
# 3 -0.001513 -0.006805 0.015149 -0.000003 0.004021 -0.000001
# 4 0.000001 0.000000 -0.000003 0.071810 0.000001 0.024018
# 5 0.002488 0.005677 0.004021 0.000001 0.038075 0.000000
# 6 0.000000 0.000000 -0.000001 0.024018 0.000000 0.004844
#
#
# Mechanical properties :
#
#
# Convention : Reuss Voigt Hill
#
# Bulk Modulus (GPa) = 28.51939 38.95134 33.73536
# Shear Modulus (GPa) = 23.09388 -51.88097 -14.39355
#
# Velocity S-wave (km/s) = 3.25524 -4.87909 -2.56991
# Velocity P-wave (km/s) = 5.21678 3.72396 2.58331
#
# Compressibility (1/GPa) = 0.03506387
#
# Stress axis : x y z
#
# Youngs Moduli (GPa) = 35.80380 51.28576 66.01175
#
# Poissons Ratio (x) = 0.27890 0.09990
# Poissons Ratio (y) = 0.19471 0.44923
# Poissons Ratio (z) = 0.05418 0.34901
#
# Static dielectric constant tensor:
#      x y z
#    x 1.764810 0.000000 -0.066960 
#    y 0.000000 1.822970 0.000000 
#    z -0.066960 0.000000 1.823630 
# 
# From -- ./inp_files/239953.got.cif
#   From: 2010.05.17/outbox.cif.g08.bks.cpg/sg15_120_cif.got.tgz:239953.got - 2010.06.03 18:47:42.
