data_PCOD9261554
_publ_section_title
;
Structure prediction by ZEFSAII (Michael W. Deem and Ramdas Pophale) SiO2 
 PCOD9261554
Probable space group: C 2/C
;
_chemical_formula_sum "Si O2"
_cell_formula_units_Z 56
_cell_length_a 26.081575
_cell_length_b 5.113541
_cell_length_c 18.252284
_cell_angle_alpha 90.000000
_cell_angle_beta 121.351913
_cell_angle_gamma 90.000000
_cell_volume 2078.856080
_symmetry_space_group_name_H-M "C 2/C"
_symmetry_group_IT_number 15
_symmetry_cell_setting 'monoclinic'
loop_
_space_group_symop_operation_xyz
x,y,z
-x,y,1/2-z
-x,-y,-z
x,-y,1/2+z
1/2+x,1/2+y,z
1/2-x,1/2+y,1/2-z
1/2-x,1/2-y,-z
1/2+x,1/2-y,1/2+z
loop_
_atom_site_type_symbol
_atom_site_label
_atom_site_fract_x
_atom_site_fract_y
_atom_site_fract_z
Si Si1 0.454956 0.513983 0.072733
Si Si2 0.474761 0.013344 0.398579
Si Si3 0.862153 0.593990 0.686110
Si Si4 0.239211 0.085845 0.124480
Si Si5 0.570728 0.404540 0.294640
Si Si6 0.686161 0.065683 0.016429
Si Si7 0.374867 0.235485 0.903884
O O1 0.483449 0.796037 0.108364
O O2 0.411161 0.434232 0.106123
O O3 0.509450 0.305345 0.112834
O O4 0.418784 0.458069 0.970777
O O5 0.407789 0.906784 0.361864
O O6 0.500000 0.000000 0.500000
O O7 0.806296 0.495538 0.692523
O O8 0.763517 0.346374 0.427677
O O9 0.835340 0.574247 0.582701
O O10 0.915821 0.383691 0.724165
O O11 0.389223 0.618938 0.215948
O O12 0.210698 0.844881 0.059138
O O13 0.191816 0.146943 0.154471
O O14 0.500000 0.460144 0.250000
O O15 0.635205 0.972043 0.036825
#
# Coordination Sequence:
#
# PCOD9261554 Si02
#       7
#     8   8   8   8   8   8   8
#     4  11  21  36  53  77 114 151 182 229 273 317
#     4  10  21  31  53  80 115 149 181 212 271 340
#     4  12  21  39  55  80 113 150 183 235 279 330
#     4  10  21  30  54  82 118 151 175 210 276 351
#     4  12  26  41  59  78 107 149 202 244 277 315
#     4  10  19  30  52  81 121 147 176 201 276 341
#     4   9  20  30  53  83 119 143 174 208 269 349
#
# _framework density 26.937892999999999
#
# number of rings (size 3 to 8) (size 9 to 14) (size 15 to 20)
#    0.857    0.571    1.429    6.429    8.000    0.000 
#    0.000    0.000    0.000    0.000    0.000    4.000 
#    0.000    0.000    0.000    0.000    0.000    0.000 
#
# Total GULP energy -156772.098378 kJ/mol
# GULP energy per Si atom -5599.003513 kJ/mol
# Density = 2.687658 g / cm^3
# Si number density = 26.937893 Si / 1000 Ang^3
#
#
#
# Elastic Constant Matrix: (Units=GPa)
#
#
# Indices 1 2 3 4 5 6 
#
# 1 128.8839 27.3637 8.7750 -0.0002 26.6903 0.0006
# 2 27.3637 130.0526 7.1205 -0.0002 20.7617 0.0031
# 3 8.7750 7.1205 69.3447 -0.0001 27.7905 0.0004
# 4 -0.0002 -0.0002 -0.0001 39.1602 -0.0001 4.3536
# 5 26.6903 20.7617 27.7905 -0.0001 50.0522 0.0001
# 6 0.0006 0.0031 0.0004 4.3536 0.0001 57.0309
#
#
#
# Elastic Compliance Matrix: (Units=1/GPa)
#
#
# Indices 1 2 3 4 5 6 
#
# 1 0.008936 -0.001166 0.000906 0.000000 -0.004785 0.000000
# 2 -0.001166 0.008411 0.000557 0.000000 -0.003176 0.000000
# 3 0.000906 0.000557 0.018695 0.000000 -0.011094 0.000000
# 4 0.000000 0.000000 0.000000 0.025755 0.000000 -0.001966
# 5 -0.004785 -0.003176 -0.011094 0.000000 0.030008 0.000000
# 6 0.000000 0.000000 0.000000 -0.001966 0.000000 0.017684
#
#
# Mechanical properties :
#
#
# Convention : Reuss Voigt Hill
#
# Bulk Modulus (GPa) = 27.29527 46.08885 36.69206
# Shear Modulus (GPa) = 41.28608 48.25012 44.76810
#
# Velocity S-wave (km/s) = 3.91914 4.23680 4.08106
# Velocity P-wave (km/s) = 5.53482 6.40940 5.98810
#
# Compressibility (1/GPa) = 0.03663639
#
# Stress axis : x y z
#
# Youngs Moduli (GPa) = 111.91231 118.89042 53.49030
#
# Poissons Ratio (x) = 0.13862 -0.04849
# Poissons Ratio (y) = 0.13048 -0.02979
# Poissons Ratio (z) = -0.10144 -0.06620
#
# Static dielectric constant tensor:
#      x y z
#    x 2.127440 0.000000 0.001250 
#    y 0.000000 2.068360 0.000000 
#    z 0.001250 0.000000 2.237410 
# 
# From -- ./inp_files/301715.got.cif
#   From: 2010.05.17/outbox.cif.g08.bks.cpg/sg15_151_cif.got.tgz:301715.got - 2010.06.03 18:47:42.
