data_PCOD9261198
_publ_section_title
;
Structure prediction by ZEFSAII (Michael W. Deem and Ramdas Pophale) SiO2 
 PCOD9261198
Probable space group: C 2/C
;
_chemical_formula_sum "Si O2"
_cell_formula_units_Z 48
_cell_length_a 11.757121
_cell_length_b 15.014291
_cell_length_c 28.035591
_cell_angle_alpha 90.000000
_cell_angle_beta 153.689463
_cell_angle_gamma 90.000000
_cell_volume 2193.565516
_symmetry_space_group_name_H-M "C 2/C"
_symmetry_group_IT_number 15
_symmetry_cell_setting 'monoclinic'
loop_
_space_group_symop_operation_xyz
x,y,z
-x,y,1/2-z
-x,-y,-z
x,-y,1/2+z
1/2+x,1/2+y,z
1/2-x,1/2+y,1/2-z
1/2-x,1/2-y,-z
1/2+x,1/2-y,1/2+z
loop_
_atom_site_type_symbol
_atom_site_label
_atom_site_fract_x
_atom_site_fract_y
_atom_site_fract_z
Si Si1 0.768489 0.886419 0.199920
Si Si2 0.725309 0.820521 0.534426
Si Si3 0.185329 0.696611 0.227119
Si Si4 0.809960 0.247439 0.874552
Si Si5 0.842790 0.049548 0.901811
Si Si6 0.154160 0.485902 0.740390
O O1 0.810916 0.792597 0.245228
O O2 0.759432 0.969589 0.232426
O O3 0.000000 0.893920 0.250000
O O4 0.496052 0.883975 0.069553
O O5 0.750000 0.750000 0.500000
O O6 0.630538 0.786653 0.550887
O O7 0.022173 0.841715 0.658218
O O8 0.101596 0.705845 0.140797
O O9 0.035717 0.612814 0.192931
O O10 0.500000 0.243956 0.750000
O O11 0.918012 0.148160 0.916198
O O12 0.850732 0.989887 0.857742
O O13 0.562977 0.053431 0.821600
O O14 0.000000 0.000000 0.000000
#
# Coordination Sequence:
#
# PCOD9261198 Si02
#       6
#     8   8   8   8   8   8
#     4  11  24  43  62  94 138 169 209 269 325 388
#     4   9  20  37  68  90 118 171 221 252 320 386
#     4  10  22  41  66  91 129 167 217 263 325 378
#     4  10  18  41  64  92 124 166 209 265 311 382
#     4  11  23  39  69  95 127 162 223 270 320 374
#     4  11  24  43  63  98 129 169 212 270 323 377
#
# _framework density 21.882180999999999
#
# number of rings (size 3 to 8) (size 9 to 14) (size 15 to 20)
#    0.000    1.667    3.333    2.000    9.333    2.000 
#    3.000    3.333    0.000    0.000    0.000    0.000 
#    0.000    0.000    0.000    0.000    0.000    0.000 
#
# Total GULP energy -133769.336014 kJ/mol
# GULP energy per Si atom -5573.722334 kJ/mol
# Density = 2.183238 g / cm^3
# Si number density = 21.882181 Si / 1000 Ang^3
#
#
#
# Elastic Constant Matrix: (Units=GPa)
#
#
# Indices 1 2 3 4 5 6 
#
# 1 83.5679 12.3316 34.6383 0.0013 -35.7338 -0.0002
# 2 12.3316 71.5978 16.8014 0.0013 -29.3651 0.0000
# 3 34.6383 16.8014 90.6535 0.0033 -40.0402 0.0000
# 4 0.0013 0.0013 0.0033 18.3151 0.0014 -10.6657
# 5 -35.7338 -29.3651 -40.0402 0.0014 52.4128 0.0000
# 6 -0.0002 0.0000 0.0000 -10.6657 0.0000 33.2980
#
#
#
# Elastic Compliance Matrix: (Units=1/GPa)
#
#
# Indices 1 2 3 4 5 6 
#
# 1 0.017418 0.002233 -0.001919 -0.000002 0.011660 -0.000001
# 2 0.002233 0.018595 0.001471 -0.000003 0.013064 -0.000001
# 3 -0.001919 0.001471 0.017021 -0.000005 0.012519 -0.000002
# 4 -0.000002 -0.000003 -0.000005 0.067119 -0.000009 0.021499
# 5 0.011660 0.013064 0.012519 -0.000009 0.043911 -0.000003
# 6 -0.000001 -0.000001 -0.000002 0.021499 -0.000003 0.036918
#
#
# Mechanical properties :
#
#
# Convention : Reuss Voigt Hill
#
# Bulk Modulus (GPa) = 17.66699 41.48464 29.57582
# Shear Modulus (GPa) = 23.11787 32.94172 28.02980
#
# Velocity S-wave (km/s) = 3.25386 3.88417 3.58291
# Velocity P-wave (km/s) = 4.71254 6.25421 5.53729
#
# Compressibility (1/GPa) = 0.05660272
#
# Stress axis : x y z
#
# Youngs Moduli (GPa) = 57.41118 53.77708 58.75106
#
# Poissons Ratio (x) = -0.12006 0.11275
# Poissons Ratio (y) = -0.12818 -0.08640
# Poissons Ratio (z) = 0.11018 -0.07909
#
# Static dielectric constant tensor:
#      x y z
#    x 1.827630 0.000000 0.061320 
#    y 0.000000 1.479930 -0.000030 
#    z 0.061320 -0.000030 1.947090 
# 
# From -- ./inp_files/293129.got.cif
#   From: 2010.05.17/outbox.cif.g08.bks.cpg/sg15_147_cif.got.tgz:293129.got - 2010.06.03 18:47:42.
