data_PCOD9261869
_publ_section_title
;
Structure prediction by ZEFSAII (Michael W. Deem and Ramdas Pophale) SiO2 
 PCOD9261869
Probable space group: C 2/C
;
_chemical_formula_sum "Si O2"
_cell_formula_units_Z 48
_cell_length_a 17.368076
_cell_length_b 12.684876
_cell_length_c 12.244604
_cell_angle_alpha 90.000000
_cell_angle_beta 47.980686
_cell_angle_gamma 90.000000
_cell_volume 2004.122564
_symmetry_space_group_name_H-M "C 2/C"
_symmetry_group_IT_number 15
_symmetry_cell_setting 'monoclinic'
loop_
_space_group_symop_operation_xyz
x,y,z
-x,y,1/2-z
-x,-y,-z
x,-y,1/2+z
1/2+x,1/2+y,z
1/2-x,1/2+y,1/2-z
1/2-x,1/2-y,-z
1/2+x,1/2-y,1/2+z
loop_
_atom_site_type_symbol
_atom_site_label
_atom_site_fract_x
_atom_site_fract_y
_atom_site_fract_z
Si Si1 0.831520 0.164433 0.793700
Si Si2 0.606246 0.198906 0.606880
Si Si3 0.216139 0.206555 0.211471
Si Si4 0.494314 0.324943 0.977410
Si Si5 0.658203 0.882636 0.598300
Si Si6 0.022127 0.592514 0.400852
O O1 0.759471 0.221829 0.769736
O O2 0.926466 0.117328 0.634577
O O3 0.857969 0.258961 0.853579
O O4 0.763514 0.091947 0.936714
O O5 0.500000 0.144761 0.750000
O O6 0.686502 0.150724 0.442056
O O7 0.668833 0.223401 0.657615
O O8 0.564816 0.304826 0.581757
O O9 0.114168 0.144840 0.349659
O O10 0.489772 0.205208 0.029900
O O11 0.567778 0.908815 0.602306
O O12 0.633068 0.930668 0.739177
O O13 0.000000 0.500000 0.500000
#
# Coordination Sequence:
#
# PCOD9261869 Si02
#       6
#     8   8   8   8   8   8
#     4   9  16  28  50  67  98 135 164 236 271 297
#     4   8  15  24  38  63  97 133 160 202 258 330
#     4   9  14  25  41  64  98 130 163 209 265 315
#     4   9  16  27  44  70  99 131 170 213 268 317
#     4   9  18  32  45  69  96 133 178 214 257 319
#     4  10  19  32  46  65 102 144 170 206 254 327
#
# _framework density 23.950631000000001
#
# number of rings (size 3 to 8) (size 9 to 14) (size 15 to 20)
#    0.000    3.000    1.667    0.000    0.000    0.000 
#    9.000    0.000    0.000    0.000    0.000    0.000 
#    0.000   29.333    0.000    0.167    0.000    0.000 
#
# Total GULP energy -133687.865292 kJ/mol
# GULP energy per Si atom -5570.327721 kJ/mol
# Density = 2.389612 g / cm^3
# Si number density = 23.950631 Si / 1000 Ang^3
#
#
#
# Elastic Constant Matrix: (Units=GPa)
#
#
# Indices 1 2 3 4 5 6 
#
# 1 70.7703 4.7899 38.9500 0.0000 -6.9177 0.0000
# 2 4.7899 27.4043 21.3552 0.0000 2.1090 0.0000
# 3 38.9500 21.3552 259.8288 0.0000 -31.0278 0.0000
# 4 0.0000 0.0000 0.0000 17.3710 0.0000 -0.5592
# 5 -6.9177 2.1090 -31.0278 0.0000 46.2299 0.0000
# 6 0.0000 0.0000 0.0000 -0.5592 0.0000 -5.6599
#
#
#
# Elastic Compliance Matrix: (Units=1/GPa)
#
#
# Indices 1 2 3 4 5 6 
#
# 1 0.015462 -0.001130 -0.002112 0.000000 0.000948 0.000000
# 2 -0.001130 0.039862 -0.003636 0.000000 -0.004428 0.000000
# 3 -0.002112 -0.003636 0.004834 0.000000 0.003094 0.000000
# 4 0.000000 0.000000 0.000000 0.057385 0.000000 -0.005669
# 5 0.000948 -0.004428 0.003094 0.000000 0.024051 0.000000
# 6 0.000000 0.000000 0.000000 -0.005669 0.000000 -0.176120
#
#
# Mechanical properties :
#
#
# Convention : Reuss Voigt Hill
#
# Bulk Modulus (GPa) = 21.55043 54.24374 37.89709
# Shear Modulus (GPa) = -942.52688 31.11540 -455.70574
#
# Velocity S-wave (km/s) = -19.85909 3.60828 -13.80876
# Velocity P-wave (km/s) = 22.73383 6.32905 15.43972
#
# Compressibility (1/GPa) = 0.04640278
#
# Stress axis : x y z
#
# Youngs Moduli (GPa) = 64.67641 25.08655 206.88821
#
# Poissons Ratio (x) = 0.02834 0.43690
# Poissons Ratio (y) = 0.07307 0.75216
# Poissons Ratio (z) = 0.13658 0.09120
#
# Static dielectric constant tensor:
#      x y z
#    x 1.939740 0.000000 -0.050520 
#    y 0.000000 1.899010 0.000000 
#    z -0.050520 0.000000 2.081170 
# 
# From -- ./inp_files/106283.got.cif
#   From: 2010.05.17/outbox.cif.g08.bks.cpg/sg15_54_cif.got.tgz:106283.got - 2010.06.03 18:47:42.
