data_PCOD9261596
_publ_section_title
;
Structure prediction by ZEFSAII (Michael W. Deem and Ramdas Pophale) SiO2 
 PCOD9261596
Probable space group: C 2/C
;
_chemical_formula_sum "Si O2"
_cell_formula_units_Z 56
_cell_length_a 17.573300
_cell_length_b 17.815337
_cell_length_c 14.932407
_cell_angle_alpha 90.000000
_cell_angle_beta 141.010441
_cell_angle_gamma 90.000000
_cell_volume 2941.380696
_symmetry_space_group_name_H-M "C 2/C"
_symmetry_group_IT_number 15
_symmetry_cell_setting 'monoclinic'
loop_
_space_group_symop_operation_xyz
x,y,z
-x,y,1/2-z
-x,-y,-z
x,-y,1/2+z
1/2+x,1/2+y,z
1/2-x,1/2+y,1/2-z
1/2-x,1/2-y,-z
1/2+x,1/2-y,1/2+z
loop_
_atom_site_type_symbol
_atom_site_label
_atom_site_fract_x
_atom_site_fract_y
_atom_site_fract_z
Si Si1 0.235373 0.516631 0.145850
Si Si2 0.903143 0.550759 0.235719
Si Si3 0.180436 0.895052 0.602990
Si Si4 0.740129 0.767857 0.096755
Si Si5 0.932285 0.895643 0.282146
Si Si6 0.941248 0.377742 0.480922
Si Si7 0.520340 0.108006 0.863816
O O1 0.290317 0.564441 0.277175
O O2 0.342894 0.467289 0.201325
O O3 0.144140 0.451763 0.098843
O O4 0.151554 0.569694 0.005447
O O5 0.762006 0.566396 0.098426
O O6 0.000000 0.577293 0.250000
O O7 0.941158 0.593673 0.360177
O O8 0.931561 0.463695 0.272315
O O9 0.223101 0.808982 0.634936
O O10 0.039266 0.901781 0.452035
O O11 0.853293 0.820496 0.225284
O O12 0.624435 0.817230 0.017899
O O13 0.750000 0.750000 0.000000
O O14 0.000000 0.887989 0.250000
O O15 0.976810 0.351630 0.414333
O O16 0.500000 0.148636 0.750000
#
# Coordination Sequence:
#
# PCOD9261596 Si02
#       7
#     8   8   8   8   8   8   8
#     4  10  21  39  57  86 121 158 209 260 302 364
#     4  10  19  30  58  87 114 147 195 250 300 357
#     4  12  22  37  59  83 123 164 201 242 313 367
#     4  11  24  39  58  88 128 164 201 250 314 391
#     4  11  25  38  56  88 126 167 201 243 314 387
#     4  10  19  38  57  86 123 156 204 260 307 362
#     4  10  19  34  61  88 110 150 208 261 307 342
#
# _framework density 19.038678000000001
#
# number of rings (size 3 to 8) (size 9 to 14) (size 15 to 20)
#    0.000    1.429    4.286    2.143    8.000    0.571 
#    0.000    0.000    0.000    1.714    0.000    0.000 
#    0.000    0.000    0.000    0.000    0.000    0.000 
#
# Total GULP energy -156135.395518 kJ/mol
# GULP energy per Si atom -5576.264126 kJ/mol
# Density = 1.899535 g / cm^3
# Si number density = 19.038678 Si / 1000 Ang^3
#
#
#
# Elastic Constant Matrix: (Units=GPa)
#
#
# Indices 1 2 3 4 5 6 
#
# 1 81.0458 10.7924 23.8570 0.0000 -3.3485 0.0000
# 2 10.7924 62.8819 22.4717 0.0000 2.0406 0.0000
# 3 23.8570 22.4717 97.2169 -0.0001 2.1735 -0.0001
# 4 0.0000 0.0000 -0.0001 14.0409 0.0000 -1.3757
# 5 -3.3485 2.0406 2.1735 0.0000 42.3987 0.0000
# 6 0.0000 0.0000 -0.0001 -1.3757 0.0000 31.5971
#
#
#
# Elastic Compliance Matrix: (Units=1/GPa)
#
#
# Indices 1 2 3 4 5 6 
#
# 1 0.013454 -0.001265 -0.003038 0.000000 0.001279 0.000000
# 2 -0.001265 0.017471 -0.003711 0.000000 -0.000751 0.000000
# 3 -0.003038 -0.003711 0.011905 0.000000 -0.000672 0.000000
# 4 0.000000 0.000000 0.000000 0.071526 0.000000 0.003114
# 5 0.001279 -0.000751 -0.000672 0.000000 0.023757 0.000000
# 6 0.000000 0.000000 0.000000 0.003114 0.000000 0.031784
#
#
# Mechanical properties :
#
#
# Convention : Reuss Voigt Hill
#
# Bulk Modulus (GPa) = 37.31149 39.48741 38.39945
# Shear Modulus (GPa) = 25.65972 29.87557 27.76764
#
# Velocity S-wave (km/s) = 3.67518 3.96562 3.82316
# Velocity P-wave (km/s) = 6.13592 6.46172 6.30093
#
# Compressibility (1/GPa) = 0.02680139
#
# Stress axis : x y z
#
# Youngs Moduli (GPa) = 74.32602 57.23926 84.00109
#
# Poissons Ratio (x) = 0.07241 0.25518
# Poissons Ratio (y) = 0.09403 0.31174
# Poissons Ratio (z) = 0.22579 0.21242
#
# Static dielectric constant tensor:
#      x y z
#    x 1.728170 0.000000 -0.012260 
#    y 0.000000 1.665640 0.000000 
#    z -0.012260 0.000000 1.722880 
# 
# From -- ./inp_files/163088.got.cif
#   From: 2010.05.17/outbox.cif.g08.bks.cpg/sg15_82_cif.got.tgz:163088.got - 2010.06.03 18:47:42.
