data_PCOD9261341
_publ_section_title
;
Structure prediction by ZEFSAII (Michael W. Deem and Ramdas Pophale) SiO2 
 PCOD9261341
Probable space group: C 2/C
;
_chemical_formula_sum "Si O2"
_cell_formula_units_Z 52
_cell_length_a 25.983726
_cell_length_b 11.394089
_cell_length_c 8.712048
_cell_angle_alpha 90.000000
_cell_angle_beta 88.934211
_cell_angle_gamma 90.000000
_cell_volume 2578.850428
_symmetry_space_group_name_H-M "C 2/C"
_symmetry_group_IT_number 15
_symmetry_cell_setting 'monoclinic'
loop_
_space_group_symop_operation_xyz
x,y,z
-x,y,1/2-z
-x,-y,-z
x,-y,1/2+z
1/2+x,1/2+y,z
1/2-x,1/2+y,1/2-z
1/2-x,1/2-y,-z
1/2+x,1/2-y,1/2+z
loop_
_atom_site_type_symbol
_atom_site_label
_atom_site_fract_x
_atom_site_fract_y
_atom_site_fract_z
Si Si1 0.253666 0.031932 0.843117
Si Si2 0.207877 0.845174 0.053479
Si Si3 0.417242 0.972504 0.972395
Si Si4 0.991563 0.327892 0.413524
Si Si5 0.889746 0.244869 0.791290
Si Si6 0.824051 0.396409 0.604217
Si Si7 0.000000 0.205986 0.750000
O O1 0.226971 0.108831 0.716472
O O2 0.292090 0.942207 0.752518
O O3 0.285806 0.108908 0.962487
O O4 0.213108 0.953226 0.937204
O O5 0.150295 0.798654 0.078590
O O6 0.250000 0.750000 0.000000
O O7 0.409829 0.873759 0.843331
O O8 0.439833 0.095305 0.912301
O O9 0.461088 0.919818 0.079665
O O10 0.364197 0.000934 0.058238
O O11 0.993121 0.265153 0.579592
O O12 0.000000 0.262256 0.250000
O O13 0.855641 0.279466 0.644920
O O14 0.940161 0.163521 0.770462
#
# Coordination Sequence:
#
# PCOD9261341 Si02
#       7
#     8   8   8   8   8   8   4
#     4  10  23  36  61  85 119 155 206 241 309 356
#     4  11  22  44  61  89 121 159 199 257 301 362
#     4  10  19  28  48  81 114 163 188 229 294 364
#     4  10  20  29  46  74 122 160 196 226 287 374
#     4  11  20  34  57  80 123 154 197 246 298 356
#     4  11  17  33  52  84 115 156 190 242 292 365
#     4  10  22  36  52  86 118 164 200 242 308 368
#
# _framework density 20.164023
#
# number of rings (size 3 to 8) (size 9 to 14) (size 15 to 20)
#    0.000    1.538    4.615    1.846    7.538    0.615 
#    0.000    0.000    0.000    0.923    0.000    0.000 
#    0.000    0.000    0.000    0.000    0.000    0.000 
#
# Total GULP energy -144771.872372 kJ/mol
# GULP energy per Si atom -5568.148937 kJ/mol
# Density = 2.011813 g / cm^3
# Si number density = 20.164023 Si / 1000 Ang^3
#
#
#
# Elastic Constant Matrix: (Units=GPa)
#
#
# Indices 1 2 3 4 5 6 
#
# 1 78.1527 11.8280 24.4090 0.0000 -17.1941 0.0000
# 2 11.8280 21.4083 17.7456 0.0000 6.0607 0.0000
# 3 24.4090 17.7456 127.0902 0.0000 -4.7411 0.0000
# 4 0.0000 0.0000 0.0000 19.5533 0.0000 -11.7024
# 5 -17.1941 6.0607 -4.7411 0.0000 21.4464 0.0000
# 6 0.0000 0.0000 0.0000 -11.7024 0.0000 19.7325
#
#
#
# Elastic Compliance Matrix: (Units=1/GPa)
#
#
# Indices 1 2 3 4 5 6 
#
# 1 0.019981 -0.016130 -0.000825 0.000000 0.020395 0.000000
# 2 -0.016130 0.072525 -0.008344 0.000000 -0.035272 0.000000
# 3 -0.000825 -0.008344 0.009332 0.000000 0.003760 0.000000
# 4 0.000000 0.000000 0.000000 0.079282 0.000000 0.047018
# 5 0.020395 -0.035272 0.003760 0.000000 0.073778 0.000000
# 6 0.000000 0.000000 0.000000 0.047018 0.000000 0.078562
#
#
# Mechanical properties :
#
#
# Convention : Reuss Voigt Hill
#
# Bulk Modulus (GPa) = 19.51595 37.17960 28.34777
# Shear Modulus (GPa) = 12.46450 23.65768 18.06109
#
# Velocity S-wave (km/s) = 2.48897 3.42901 2.99609
# Velocity P-wave (km/s) = 4.23787 5.84432 5.10469
#
# Compressibility (1/GPa) = 0.05124014
#
# Stress axis : x y z
#
# Youngs Moduli (GPa) = 50.04674 13.78840 107.15585
#
# Poissons Ratio (x) = 0.22241 0.08835
# Poissons Ratio (y) = 0.80726 0.89416
# Poissons Ratio (z) = 0.04127 0.11506
#
# Static dielectric constant tensor:
#      x y z
#    x 1.788240 0.000000 -0.008530 
#    y 0.000000 1.729780 0.000000 
#    z -0.008530 0.000000 1.764330 
# 
# From -- ./inp_files/61228.got.cif
#   From: 2010.05.17/outbox.cif.g08.bks.cpg/sg15_31_cif.got.tgz:61228.got - 2010.06.03 18:47:42.
