data_PCOD9261348
_publ_section_title
;
Structure prediction by ZEFSAII (Michael W. Deem and Ramdas Pophale) SiO2 
 PCOD9261348
Probable space group: C 2/C
;
_chemical_formula_sum "Si O2"
_cell_formula_units_Z 64
_cell_length_a 22.680192
_cell_length_b 18.852823
_cell_length_c 5.656424
_cell_angle_alpha 90.000000
_cell_angle_beta 106.207191
_cell_angle_gamma 90.000000
_cell_volume 2322.487082
_symmetry_space_group_name_H-M "C 2/C"
_symmetry_group_IT_number 15
_symmetry_cell_setting 'monoclinic'
loop_
_space_group_symop_operation_xyz
x,y,z
-x,y,1/2-z
-x,-y,-z
x,-y,1/2+z
1/2+x,1/2+y,z
1/2-x,1/2+y,1/2-z
1/2-x,1/2-y,-z
1/2+x,1/2-y,1/2+z
loop_
_atom_site_type_symbol
_atom_site_label
_atom_site_fract_x
_atom_site_fract_y
_atom_site_fract_z
Si Si1 0.155081 0.743938 0.964416
Si Si2 0.527878 0.908061 0.535126
Si Si3 0.906476 0.135453 0.633124
Si Si4 0.691469 0.527452 0.980451
Si Si5 0.353753 0.121736 0.163675
Si Si6 0.066159 0.064584 0.337631
Si Si7 0.442968 0.783064 0.488587
Si Si8 0.248916 0.683786 0.679326
O O1 0.087746 0.748252 0.782291
O O2 0.199680 0.713040 0.814458
O O3 0.154894 0.685846 0.165679
O O4 0.187842 0.814593 0.099337
O O5 0.500000 0.925341 0.250000
O O6 0.600239 0.927775 0.635707
O O7 0.507896 0.823247 0.530451
O O8 0.500000 0.936079 0.750000
O O9 0.834346 0.109175 0.541902
O O10 0.930057 0.106446 0.406226
O O11 0.926749 0.217632 0.643507
O O12 0.931130 0.107031 0.911548
O O13 0.719499 0.503950 0.265527
O O14 0.625315 0.485658 0.909143
O O15 0.399399 0.150209 0.011433
O O16 0.285922 0.115482 0.976582
O O17 0.000000 0.027328 0.250000
O O18 0.250000 0.750000 0.500000
#
# Coordination Sequence:
#
# PCOD9261348 Si02
#       8
#     8   8   8   8   8   8   8   8
#     4   9  15  27  42  52  70  88 110 140 169 205
#     4  10  19  29  38  50  72  98 115 132 163 207
#     4  10  21  29  40  54  68  88 112 141 174 214
#     4   8  16  30  41  51  63  81 110 145 176 201
#     4   9  17  27  38  53  71  92 114 139 165 205
#     4  10  20  31  41  51  64  85 115 147 174 203
#     4  10  20  28  38  54  75  96 115 138 174 220
#     4   8  15  26  41  57  65  83 113 141 168 195
#
# _framework density 27.556667999999998
#
# number of rings (size 3 to 8) (size 9 to 14) (size 15 to 20)
#    0.000    2.750    1.250    0.375    1.750    8.000 
#    0.000    0.000    0.000    0.000    0.000    0.000 
#    0.000    0.000    0.000    0.000    0.000    0.000 
#
# Total GULP energy -178285.014466 kJ/mol
# GULP energy per Si atom -5571.406702 kJ/mol
# Density = 2.749395 g / cm^3
# Si number density = 27.556668 Si / 1000 Ang^3
#
#
#
# Elastic Constant Matrix: (Units=GPa)
#
#
# Indices 1 2 3 4 5 6 
#
# 1 61.8974 -13.6572 29.7220 0.0000 14.5850 0.0000
# 2 -13.6572 80.4949 33.2196 0.0000 -4.1292 0.0000
# 3 29.7220 33.2196 194.5043 0.0000 -11.7500 0.0000
# 4 0.0000 0.0000 0.0000 98.3043 0.0000 -27.9727
# 5 14.5850 -4.1292 -11.7500 0.0000 64.0159 0.0000
# 6 0.0000 0.0000 0.0000 -27.9727 0.0000 5.8284
#
#
#
# Elastic Compliance Matrix: (Units=1/GPa)
#
#
# Indices 1 2 3 4 5 6 
#
# 1 0.020537 0.004996 -0.004302 0.000000 -0.005146 0.000000
# 2 0.004996 0.014593 -0.003304 0.000000 -0.000803 0.000000
# 3 -0.004302 -0.003304 0.006481 0.000000 0.001957 0.000000
# 4 0.000000 0.000000 0.000000 -0.027818 0.000000 -0.133510
# 5 -0.005146 -0.000803 0.001957 0.000000 0.017101 0.000000
# 6 0.000000 0.000000 0.000000 -0.133510 0.000000 -0.469193
#
#
# Mechanical properties :
#
#
# Convention : Reuss Voigt Hill
#
# Bulk Modulus (GPa) = 27.48038 48.38505 37.93271
# Shear Modulus (GPa) = -11.87798 52.80384 20.46293
#
# Velocity S-wave (km/s) = -2.07840 4.38218 2.72798
# Velocity P-wave (km/s) = 2.05774 6.57276 4.87009
#
# Compressibility (1/GPa) = 0.03638960
#
# Stress axis : x y z
#
# Youngs Moduli (GPa) = 48.69342 68.52482 154.29065
#
# Poissons Ratio (x) = -0.34234 0.66381
# Poissons Ratio (y) = -0.24327 0.50983
# Poissons Ratio (z) = 0.20950 0.22643
#
# Static dielectric constant tensor:
#      x y z
#    x 2.275590 0.000000 0.065590 
#    y 0.000000 2.203890 0.000000 
#    z 0.065590 0.000000 2.300660 
# 
# From -- ./inp_files/17839.got.cif
#   From: 2010.05.17/outbox.cif.g08.bks.cpg/sg15_9_cif.got.tgz:17839.got - 2010.06.03 18:47:42.
