data_PCOD9261967
_publ_section_title
;
Structure prediction by ZEFSAII (Michael W. Deem and Ramdas Pophale) SiO2 
 PCOD9261967
Probable space group: C 2/C
;
_chemical_formula_sum "Si O2"
_cell_formula_units_Z 64
_cell_length_a 28.772945
_cell_length_b 8.294237
_cell_length_c 21.283494
_cell_angle_alpha 90.000000
_cell_angle_beta 137.705628
_cell_angle_gamma 90.000000
_cell_volume 3418.061984
_symmetry_space_group_name_H-M "C 2/C"
_symmetry_group_IT_number 15
_symmetry_cell_setting 'monoclinic'
loop_
_space_group_symop_operation_xyz
x,y,z
-x,y,1/2-z
-x,-y,-z
x,-y,1/2+z
1/2+x,1/2+y,z
1/2-x,1/2+y,1/2-z
1/2-x,1/2-y,-z
1/2+x,1/2-y,1/2+z
loop_
_atom_site_type_symbol
_atom_site_label
_atom_site_fract_x
_atom_site_fract_y
_atom_site_fract_z
Si Si1 0.215632 0.892870 0.866734
Si Si2 0.917688 0.488901 0.847788
Si Si3 0.847123 0.405574 0.540492
Si Si4 0.652872 0.905576 0.346243
Si Si5 0.322360 0.315552 0.395504
Si Si6 0.582316 0.011094 0.012419
Si Si7 0.822362 0.184447 0.749218
Si Si8 0.715636 0.392872 0.564535
O O1 0.175592 0.779573 0.875764
O O2 0.255344 0.777805 0.856265
O O3 0.277917 0.989526 0.960905
O O4 0.170279 0.023453 0.784449
O O5 0.888204 0.587484 0.760064
O O6 0.893933 0.542526 0.893930
O O7 0.886129 0.309067 0.807974
O O8 0.000002 0.499996 0.929104
O O9 0.884113 0.500000 0.634109
O O10 0.888196 0.412509 0.516331
O O11 0.824403 0.220425 0.524574
O O12 0.722078 0.010473 0.405066
O O13 0.386126 0.190929 0.464278
O O14 0.311885 0.354285 0.311884
O O15 0.329719 0.476545 0.443889
O O16 0.755346 0.277806 0.654425
#
# Coordination Sequence:
#
# PCOD9261967 Si02
#       8
#     8   8   8   8   8   8   8   8
#     4   9  18  29  46  75 104 129 163 207 258 308
#     4   9  19  35  51  69  97 133 172 212 253 298
#     4  10  19  32  51  74 100 132 165 204 253 308
#     4  10  19  32  51  74 100 132 165 204 253 308
#     4   9  16  28  48  73 103 136 169 210 257 307
#     4   9  19  35  51  69  97 133 172 212 253 298
#     4   9  16  28  48  73 103 136 169 210 257 307
#     4   9  18  29  46  75 104 129 163 207 258 308
#
# _framework density 18.724062
#
# number of rings (size 3 to 8) (size 9 to 14) (size 15 to 20)
#    0.000    2.750    0.000    1.500    0.000    7.500 
#    0.000    1.250    0.000    4.500    0.000   10.500 
#    0.000    0.000    0.000    0.000    0.000    0.000 
#
# Total GULP energy -178285.299881 kJ/mol
# GULP energy per Si atom -5571.415621 kJ/mol
# Density = 1.868144 g / cm^3
# Si number density = 18.724062 Si / 1000 Ang^3
#
#
#
# Elastic Constant Matrix: (Units=GPa)
#
#
# Indices 1 2 3 4 5 6 
#
# 1 49.6563 6.6515 27.2846 0.0000 -3.3349 0.0000
# 2 6.6515 55.1031 6.7210 0.0000 4.4856 0.0000
# 3 27.2846 6.7210 49.5560 0.0000 -3.2116 0.0000
# 4 0.0000 0.0000 0.0000 17.6742 0.0000 -8.2847
# 5 -3.3349 4.4856 -3.2116 0.0000 18.6865 0.0000
# 6 0.0000 0.0000 0.0000 -8.2847 0.0000 17.8088
#
#
#
# Elastic Compliance Matrix: (Units=1/GPa)
#
#
# Indices 1 2 3 4 5 6 
#
# 1 0.029166 -0.001858 -0.015614 0.000000 0.002968 0.000000
# 2 -0.001858 0.019029 -0.001897 0.000000 -0.005225 0.000000
# 3 -0.015614 -0.001897 0.029207 0.000000 0.002688 0.000000
# 4 0.000000 0.000000 0.000000 0.072358 0.000000 0.033661
# 5 0.002968 -0.005225 0.002688 0.000000 0.055761 0.000000
# 6 0.000000 0.000000 0.000000 0.033661 0.000000 0.071811
#
#
# Mechanical properties :
#
#
# Convention : Reuss Voigt Hill
#
# Bulk Modulus (GPa) = 25.86279 26.18106 26.02192
# Shear Modulus (GPa) = 15.19956 18.41113 16.80535
#
# Velocity S-wave (km/s) = 2.85224 3.13914 2.99913
# Velocity P-wave (km/s) = 4.96887 5.21075 5.09124
#
# Compressibility (1/GPa) = 0.03866559
#
# Stress axis : x y z
#
# Youngs Moduli (GPa) = 34.28653 52.55212 34.23791
#
# Poissons Ratio (x) = 0.09763 0.53459
# Poissons Ratio (y) = 0.06369 0.06493
# Poissons Ratio (z) = 0.53535 0.09967
#
# Static dielectric constant tensor:
#      x y z
#    x 1.677740 0.000000 -0.049660 
#    y 0.000000 1.692480 0.000000 
#    z -0.049660 0.000000 1.676930 
# 
# From -- ./inp_files/257013.got.cif
#   From: 2010.05.17/outbox.cif.g08.bks.cpg/sg15_129_cif.got.tgz:257013.got - 2010.06.03 18:47:42.
