data_PCOD9261940
_publ_section_title
;
Structure prediction by ZEFSAII (Michael W. Deem and Ramdas Pophale) SiO2 
 PCOD9261940
Probable space group: C 2/C
;
_chemical_formula_sum "Si O2"
_cell_formula_units_Z 56
_cell_length_a 19.677241
_cell_length_b 17.388944
_cell_length_c 13.226297
_cell_angle_alpha 90.000000
_cell_angle_beta 42.050693
_cell_angle_gamma 90.000000
_cell_volume 3031.188529
_symmetry_space_group_name_H-M "C 2/C"
_symmetry_group_IT_number 15
_symmetry_cell_setting 'monoclinic'
loop_
_space_group_symop_operation_xyz
x,y,z
-x,y,1/2-z
-x,-y,-z
x,-y,1/2+z
1/2+x,1/2+y,z
1/2-x,1/2+y,1/2-z
1/2-x,1/2-y,-z
1/2+x,1/2-y,1/2+z
loop_
_atom_site_type_symbol
_atom_site_label
_atom_site_fract_x
_atom_site_fract_y
_atom_site_fract_z
Si Si1 0.245029 0.039110 0.571583
Si Si2 0.045811 0.883966 0.015607
Si Si3 0.361835 0.701293 0.813985
Si Si4 0.093768 0.405805 0.447798
Si Si5 0.969245 0.042258 0.176354
Si Si6 0.325519 0.745322 0.075176
Si Si7 0.068726 0.493356 0.267769
O O1 0.197640 0.121828 0.597320
O O2 0.312793 0.051166 0.597774
O O3 0.322344 0.013385 0.399446
O O4 0.148362 0.984282 0.694753
O O5 0.968493 0.825482 0.154082
O O6 0.013504 0.903162 0.937745
O O7 0.149576 0.837656 0.906825
O O8 0.036359 0.964812 0.084474
O O9 0.294475 0.742232 0.803672
O O10 0.363318 0.747612 0.916306
O O11 0.121039 0.315986 0.426856
O O12 0.080468 0.435604 0.348647
O O13 0.993317 0.432679 0.620262
O O14 0.000000 0.075366 0.250000
O O15 0.000000 0.463656 0.250000
#
# Coordination Sequence:
#
# PCOD9261940 Si02
#       7
#     8   8   8   8   8   8   8
#     4   9  18  32  53  77 101 135 178 221 259 304
#     4  10  20  35  54  76 106 138 173 217 263 311
#     4   9  19  32  51  79 104 130 170 216 266 313
#     4   9  19  33  52  80 109 137 171 213 266 315
#     4  10  21  36  54  77 105 142 182 219 258 305
#     4  10  19  32  50  76 106 133 168 215 267 316
#     4   9  18  34  54  77 106 139 174 213 258 314
#
# _framework density 18.474602000000001
#
# number of rings (size 3 to 8) (size 9 to 14) (size 15 to 20)
#    0.000    2.571    0.000    2.143    0.000   12.571 
#    0.000    3.571    0.000    1.714    0.000    0.000 
#    0.000    0.000    0.000    0.000    0.000    0.000 
#
# Total GULP energy -156157.886097 kJ/mol
# GULP energy per Si atom -5577.067361 kJ/mol
# Density = 1.843255 g / cm^3
# Si number density = 18.474602 Si / 1000 Ang^3
#
#
#
# Elastic Constant Matrix: (Units=GPa)
#
#
# Indices 1 2 3 4 5 6 
#
# 1 57.7740 21.5185 13.0045 0.0000 15.0143 0.0000
# 2 21.5185 24.7903 0.4790 0.0000 -1.7774 0.0000
# 3 13.0045 0.4790 39.7351 0.0000 10.3613 0.0000
# 4 0.0000 0.0000 0.0000 15.5512 0.0000 6.9854
# 5 15.0143 -1.7774 10.3613 0.0000 30.6959 0.0000
# 6 0.0000 0.0000 0.0000 6.9854 0.0000 21.4771
#
#
#
# Elastic Compliance Matrix: (Units=1/GPa)
#
#
# Indices 1 2 3 4 5 6 
#
# 1 0.034735 -0.031207 -0.006678 0.000000 -0.016543 0.000000
# 2 -0.031207 0.068598 0.004792 0.000000 0.017619 0.000000
# 3 -0.006678 0.004792 0.028915 0.000000 -0.006216 0.000000
# 4 0.000000 0.000000 0.000000 0.075306 0.000000 -0.024493
# 5 -0.016543 0.017619 -0.006216 0.000000 0.043788 0.000000
# 6 0.000000 0.000000 0.000000 -0.024493 0.000000 0.054528
#
#
# Mechanical properties :
#
#
# Convention : Reuss Voigt Hill
#
# Bulk Modulus (GPa) = 15.13744 21.36704 18.25224
# Shear Modulus (GPa) = 12.68793 19.36467 16.02630
#
# Velocity S-wave (km/s) = 2.62349 3.24107 2.94849
# Velocity P-wave (km/s) = 4.16993 5.05933 4.63601
#
# Compressibility (1/GPa) = 0.06606135
#
# Stress axis : x y z
#
# Youngs Moduli (GPa) = 28.78977 14.57776 34.58356
#
# Poissons Ratio (x) = 0.45493 0.23095
# Poissons Ratio (y) = 0.89845 -0.16573
# Poissons Ratio (z) = 0.19226 -0.06986
#
# Static dielectric constant tensor:
#      x y z
#    x 1.680760 0.000000 -0.031820 
#    y 0.000000 1.638250 0.000000 
#    z -0.031820 0.000000 1.656690 
# 
# From -- ./inp_files/106628.got.cif
#   From: 2010.05.17/outbox.cif.g08.bks.cpg/sg15_54_cif.got.tgz:106628.got - 2010.06.03 18:47:42.
