data_PCOD9261568
_publ_section_title
;
Structure prediction by ZEFSAII (Michael W. Deem and Ramdas Pophale) SiO2 
 PCOD9261568
Probable space group: C 2/C
;
_chemical_formula_sum "Si O2"
_cell_formula_units_Z 48
_cell_length_a 9.613627
_cell_length_b 12.316907
_cell_length_c 14.503665
_cell_angle_alpha 90.000000
_cell_angle_beta 99.615659
_cell_angle_gamma 90.000000
_cell_volume 1693.252664
_symmetry_space_group_name_H-M "C 2/C"
_symmetry_group_IT_number 15
_symmetry_cell_setting 'monoclinic'
loop_
_space_group_symop_operation_xyz
x,y,z
-x,y,1/2-z
-x,-y,-z
x,-y,1/2+z
1/2+x,1/2+y,z
1/2-x,1/2+y,1/2-z
1/2-x,1/2-y,-z
1/2+x,1/2-y,1/2+z
loop_
_atom_site_type_symbol
_atom_site_label
_atom_site_fract_x
_atom_site_fract_y
_atom_site_fract_z
Si Si1 0.325743 0.523765 0.622744
Si Si2 0.679768 0.236943 0.389096
Si Si3 0.979289 0.436485 0.353150
Si Si4 0.617773 0.293929 0.104569
Si Si5 0.584531 0.705490 0.379328
Si Si6 0.784876 0.984499 0.908301
O O1 0.332506 0.646531 0.661752
O O2 0.158229 0.506402 0.621890
O O3 0.417845 0.418254 0.655593
O O4 0.349652 0.538004 0.515462
O O5 0.750000 0.250000 0.500000
O O6 0.511857 0.218794 0.381039
O O7 0.756593 0.131085 0.357744
O O8 0.000000 0.467899 0.250000
O O9 0.973338 0.303598 0.354858
O O10 0.129159 0.467352 0.413815
O O11 0.768778 0.247443 0.146244
O O12 0.629328 0.421395 0.133571
O O13 0.605332 0.300462 0.991948
#
# Coordination Sequence:
#
# PCOD9261568 Si02
#       6
#     8   8   8   8   8   8
#     4  10  20  34  58  85 112 143 188 237 288 336
#     4  10  19  30  53  89 118 140 180 234 290 338
#     4  11  22  38  57  81 109 151 194 233 286 344
#     4   9  17  31  55  85 109 143 182 231 287 325
#     4   9  18  34  57  78 109 144 187 233 274 339
#     4   9  19  35  58  84 111 148 188 239 279 339
#
# _framework density 28.347809000000002
#
# number of rings (size 3 to 8) (size 9 to 14) (size 15 to 20)
#    0.000    2.333    0.000    4.500    0.000    7.333 
#    3.000    0.000    0.000    0.000    0.000    0.000 
#    0.000    0.000    0.000    0.000    0.000    0.000 
#
# Total GULP energy -134175.429128 kJ/mol
# GULP energy per Si atom -5590.642880 kJ/mol
# Density = 2.828329 g / cm^3
# Si number density = 28.347809 Si / 1000 Ang^3
#
#
#
# Elastic Constant Matrix: (Units=GPa)
#
#
# Indices 1 2 3 4 5 6 
#
# 1 80.1271 29.4255 7.0934 0.0000 2.7279 0.0000
# 2 29.4255 191.7454 31.4409 0.0000 2.4408 0.0000
# 3 7.0934 31.4409 94.1093 0.0000 -5.9643 0.0000
# 4 0.0000 0.0000 0.0000 -9.4549 0.0000 -9.2831
# 5 2.7279 2.4408 -5.9643 0.0000 10.4393 0.0000
# 6 0.0000 0.0000 0.0000 -9.2831 0.0000 68.8888
#
#
#
# Elastic Compliance Matrix: (Units=1/GPa)
#
#
# Indices 1 2 3 4 5 6 
#
# 1 0.013348 -0.001910 -0.000582 0.000000 -0.003374 0.000000
# 2 -0.001910 0.005851 -0.001936 0.000000 -0.001975 0.000000
# 3 -0.000582 -0.001936 0.011781 0.000000 0.007336 0.000000
# 4 0.000000 0.000000 0.000000 -0.093407 0.000000 -0.012587
# 5 -0.003374 -0.001975 0.007336 0.000000 0.101326 0.000000
# 6 0.000000 0.000000 0.000000 -0.012587 0.000000 0.012820
#
#
# Mechanical properties :
#
#
# Convention : Reuss Voigt Hill
#
# Bulk Modulus (GPa) = 45.19802 55.76682 50.48242
# Shear Modulus (GPa) = 73.58293 33.84277 53.71285
#
# Velocity S-wave (km/s) = 5.10035 3.45895 4.35763
# Velocity P-wave (km/s) = 7.11782 5.97223 6.57004
#
# Compressibility (1/GPa) = 0.02212486
#
# Stress axis : x y z
#
# Youngs Moduli (GPa) = 74.91776 170.91248 84.87896
#
# Poissons Ratio (x) = 0.32645 0.04938
# Poissons Ratio (y) = 0.14310 0.16432
# Poissons Ratio (z) = 0.04359 0.33087
#
# Static dielectric constant tensor:
#      x y z
#    x 2.253080 0.000000 0.023440 
#    y 0.000000 2.282190 0.000000 
#    z 0.023440 0.000000 2.133020 
# 
# From -- ./inp_files/196230.got.cif
#   From: 2010.05.17/outbox.cif.g08.bks.cpg/sg15_99_cif.got.tgz:196230.got - 2010.06.03 18:47:42.
