data_PCOD9261879
_publ_section_title
;
Structure prediction by ZEFSAII (Michael W. Deem and Ramdas Pophale) SiO2 
 PCOD9261879
Probable space group: C 2/C
;
_chemical_formula_sum "Si O2"
_cell_formula_units_Z 60
_cell_length_a 17.227790
_cell_length_b 5.504160
_cell_length_c 26.811827
_cell_angle_alpha 90.000000
_cell_angle_beta 109.297541
_cell_angle_gamma 90.000000
_cell_volume 2399.572993
_symmetry_space_group_name_H-M "C 2/C"
_symmetry_group_IT_number 15
_symmetry_cell_setting 'monoclinic'
loop_
_space_group_symop_operation_xyz
x,y,z
-x,y,1/2-z
-x,-y,-z
x,-y,1/2+z
1/2+x,1/2+y,z
1/2-x,1/2+y,1/2-z
1/2-x,1/2-y,-z
1/2+x,1/2-y,1/2+z
loop_
_atom_site_type_symbol
_atom_site_label
_atom_site_fract_x
_atom_site_fract_y
_atom_site_fract_z
Si Si1 0.312213 0.978110 0.217851
Si Si2 0.415056 0.798784 0.631566
Si Si3 0.749200 0.485637 0.312357
Si Si4 0.574729 0.672170 0.191355
Si Si5 0.597486 0.742703 0.622815
Si Si6 0.500000 0.295045 0.250000
Si Si7 0.051334 0.752842 0.005423
Si Si8 0.899905 0.215849 0.098435
O O1 0.291124 0.227771 0.185030
O O2 0.249223 0.993863 0.251854
O O3 0.987912 0.230258 0.146708
O O4 0.295395 0.735667 0.182689
O O5 0.500681 0.784655 0.616336
O O6 0.447425 0.827419 0.695158
O O7 0.369899 0.546159 0.609817
O O8 0.361594 0.028017 0.604797
O O9 0.843361 0.536140 0.348258
O O10 0.617866 0.507300 0.156778
O O11 0.559364 0.469120 0.230700
O O12 0.607594 0.898115 0.232028
O O13 0.108483 0.767256 0.066137
O O14 0.089002 0.771163 0.958504
O O15 0.000000 0.500000 0.000000
O O16 0.000000 0.000000 0.000000
#
# Coordination Sequence:
#
# PCOD9261879 Si02
#       8
#     8   8   8   8   8   4   8   8
#     4  10  20  32  49  69 101 135 185 223 264 316
#     4  10  19  32  49  71 106 143 179 225 261 331
#     4  10  20  33  47  73  96 139 185 219 262 326
#     4  10  19  35  56  77 113 151 183 233 278 328
#     4  10  19  32  54  73 111 148 181 222 276 328
#     4   8  20  34  52  80 106 146 196 224 280 336
#     4  12  20  32  48  79 106 148 185 220 270 350
#     4  10  19  32  47  73 106 142 181 214 271 328
#
# _framework density 25.004451
#
# number of rings (size 3 to 8) (size 9 to 14) (size 15 to 20)
#    0.000    2.133    4.000    3.200    0.000    6.400 
#    0.000    0.000    0.000    0.000    0.000    0.000 
#    0.000   14.933    0.000    0.400    0.000  196.000 
#
# Total GULP energy -167353.643278 kJ/mol
# GULP energy per Si atom -5578.454776 kJ/mol
# Density = 2.494754 g / cm^3
# Si number density = 25.004451 Si / 1000 Ang^3
#
#
#
# Elastic Constant Matrix: (Units=GPa)
#
#
# Indices 1 2 3 4 5 6 
#
# 1 36.0965 10.3904 -5.9179 0.0000 1.0257 -0.0001
# 2 10.3904 242.8091 63.1381 0.0000 -6.0507 -0.0002
# 3 -5.9179 63.1381 185.7666 0.0000 -12.4455 0.0000
# 4 0.0000 0.0000 0.0000 37.9257 0.0000 0.2667
# 5 1.0257 -6.0507 -12.4455 0.0000 19.6663 0.0000
# 6 -0.0001 -0.0002 0.0000 0.2667 0.0000 27.8749
#
#
#
# Elastic Compliance Matrix: (Units=1/GPa)
#
#
# Indices 1 2 3 4 5 6 
#
# 1 0.028421 -0.001601 0.001376 0.000000 -0.001104 0.000000
# 2 -0.001601 0.004612 -0.001585 0.000000 0.000499 0.000000
# 3 0.001376 -0.001585 0.006191 0.000000 0.003358 0.000000
# 4 0.000000 0.000000 0.000000 0.026369 0.000000 -0.000252
# 5 -0.001104 0.000499 0.003358 0.000000 0.053185 0.000000
# 6 0.000000 0.000000 0.000000 -0.000252 0.000000 0.035877
#
#
# Mechanical properties :
#
#
# Convention : Reuss Voigt Hill
#
# Bulk Modulus (GPa) = 28.08812 66.65484 47.37148
# Shear Modulus (GPa) = 29.38698 43.56414 36.47556
#
# Velocity S-wave (km/s) = 3.43194 4.17856 3.82352
# Velocity P-wave (km/s) = 5.19249 7.07075 6.20312
#
# Compressibility (1/GPa) = 0.03560225
#
# Stress axis : x y z
#
# Youngs Moduli (GPa) = 35.18468 216.84585 161.53539
#
# Poissons Ratio (x) = 0.34727 -0.22223
# Poissons Ratio (y) = 0.05635 0.25602
# Poissons Ratio (z) = -0.04840 0.34369
#
# Static dielectric constant tensor:
#      x y z
#    x 2.220610 0.000000 -0.071780 
#    y 0.000000 2.294610 0.000000 
#    z -0.071780 0.000000 1.971410 
# 
# From -- ./inp_files/302674.got.cif
#   From: 2010.05.17/outbox.cif.g08.bks.cpg/sg15_152_cif.got.tgz:302674.got - 2010.06.03 18:47:42.
