data_PCOD9261024
_publ_section_title
;
Structure prediction by ZEFSAII (Michael W. Deem and Ramdas Pophale) SiO2 
 PCOD9261024
Probable space group: C 2/C
;
_chemical_formula_sum "Si O2"
_cell_formula_units_Z 60
_cell_length_a 12.055300
_cell_length_b 15.497367
_cell_length_c 13.214599
_cell_angle_alpha 90.000000
_cell_angle_beta 85.357515
_cell_angle_gamma 90.000000
_cell_volume 2460.722985
_symmetry_space_group_name_H-M "C 2/C"
_symmetry_group_IT_number 15
_symmetry_cell_setting 'monoclinic'
loop_
_space_group_symop_operation_xyz
x,y,z
-x,y,1/2-z
-x,-y,-z
x,-y,1/2+z
1/2+x,1/2+y,z
1/2-x,1/2+y,1/2-z
1/2-x,1/2-y,-z
1/2+x,1/2-y,1/2+z
loop_
_atom_site_type_symbol
_atom_site_label
_atom_site_fract_x
_atom_site_fract_y
_atom_site_fract_z
Si Si1 0.040540 0.563909 0.129326
Si Si2 0.110141 0.025644 0.432228
Si Si3 0.696116 0.585206 0.632341
Si Si4 0.500000 0.471207 0.750000
Si Si5 0.806360 0.842454 0.067560
Si Si6 0.122271 0.275406 0.691069
Si Si7 0.165934 0.342467 0.895297
Si Si8 0.375596 0.102154 0.788448
O O1 0.108019 0.651645 0.107467
O O2 0.107633 0.476291 0.131997
O O3 0.000000 0.568010 0.250000
O O4 0.925902 0.583580 0.080498
O O5 0.190817 0.064705 0.512295
O O6 0.068042 0.076188 0.335581
O O7 0.148105 0.930801 0.391877
O O8 0.000000 0.000000 0.500000
O O9 0.595353 0.529131 0.688173
O O10 0.670639 0.686303 0.650789
O O11 0.807541 0.571683 0.692960
O O12 0.873955 0.753915 0.066882
O O13 0.696667 0.828627 0.144753
O O14 0.771750 0.860872 0.955541
O O15 0.186994 0.325737 0.775863
O O16 0.000000 0.256237 0.750000
O O17 0.500000 0.129752 0.750000
#
# Coordination Sequence:
#
# PCOD9261024 Si02
#       8
#     8   8   8   4   8   8   8   8
#     4   8  19  33  56  85 122 165 219 263 322 388
#     4  10  23  33  62  96 126 165 212 293 343 393
#     4  11  20  35  64  93 129 168 229 280 343 392
#     4  10  18  40  54  94 128 160 220 286 342 396
#     4  11  21  38  62  93 128 166 231 283 335 405
#     4   9  16  33  63  88 119 156 216 279 323 397
#     4   9  19  35  61  91 115 172 219 279 323 401
#     4  11  23  39  59  96 136 179 217 289 335 405
#
# _framework density 24.38308
#
# number of rings (size 3 to 8) (size 9 to 14) (size 15 to 20)
#    0.000    2.400    3.333    0.000   11.200    0.533 
#    0.000    0.000    0.000    4.000   29.467    0.000 
#    0.000    0.000    0.000    0.000    0.000    0.000 
#
# Total GULP energy -167095.220815 kJ/mol
# GULP energy per Si atom -5569.840694 kJ/mol
# Density = 2.432758 g / cm^3
# Si number density = 24.383080 Si / 1000 Ang^3
#
#
#
# Elastic Constant Matrix: (Units=GPa)
#
#
# Indices 1 2 3 4 5 6 
#
# 1 88.6570 12.7310 37.1928 0.0000 6.3846 0.0000
# 2 12.7310 61.9173 15.3710 0.0000 6.0234 0.0000
# 3 37.1928 15.3710 121.1896 0.0000 40.7848 0.0000
# 4 0.0000 0.0000 0.0000 22.2345 0.0000 1.9991
# 5 6.3846 6.0234 40.7848 0.0000 46.2011 0.0000
# 6 0.0000 0.0000 0.0000 1.9991 0.0000 31.6035
#
#
#
# Elastic Compliance Matrix: (Units=1/GPa)
#
#
# Indices 1 2 3 4 5 6 
#
# 1 0.013339 -0.001819 -0.004727 0.000000 0.002566 0.000000
# 2 -0.001819 0.016930 -0.001324 0.000000 -0.000787 0.000000
# 3 -0.004727 -0.001324 0.013646 0.000000 -0.011221 0.000000
# 4 0.000000 0.000000 0.000000 0.045232 0.000000 -0.002861
# 5 0.002566 -0.000787 -0.011221 0.000000 0.031298 0.000000
# 6 0.000000 0.000000 0.000000 -0.002861 0.000000 0.031823
#
#
# Mechanical properties :
#
#
# Convention : Reuss Voigt Hill
#
# Bulk Modulus (GPa) = 35.49210 44.70594 40.09902
# Shear Modulus (GPa) = 28.18505 33.77244 30.97874
#
# Velocity S-wave (km/s) = 3.40358 3.72570 3.56828
# Velocity P-wave (km/s) = 5.48028 6.07309 5.78428
#
# Compressibility (1/GPa) = 0.02817528
#
# Stress axis : x y z
#
# Youngs Moduli (GPa) = 74.97009 59.06725 73.28033
#
# Poissons Ratio (x) = 0.10744 0.34636
# Poissons Ratio (y) = 0.13636 0.09704
# Poissons Ratio (z) = 0.35435 0.07822
#
# Static dielectric constant tensor:
#      x y z
#    x 1.998380 0.000000 0.092620 
#    y 0.000000 2.027160 0.000000 
#    z 0.092620 0.000000 1.966200 
# 
# From -- ./inp_files/145663.got.cif
#   From: 2010.05.17/outbox.cif.g08.bks.cpg/sg15_73_cif.got.tgz:145663.got - 2010.06.03 18:47:42.
