data_PCOD9261624
_publ_section_title
;
Structure prediction by ZEFSAII (Michael W. Deem and Ramdas Pophale) SiO2 
 PCOD9261624
Probable space group: C 2/C
;
_chemical_formula_sum "Si O2"
_cell_formula_units_Z 32
_cell_length_a 24.216336
_cell_length_b 7.814276
_cell_length_c 21.053786
_cell_angle_alpha 90.000000
_cell_angle_beta 15.909509
_cell_angle_gamma 90.000000
_cell_volume 1092.109669
_symmetry_space_group_name_H-M "C 2/C"
_symmetry_group_IT_number 15
_symmetry_cell_setting 'monoclinic'
loop_
_space_group_symop_operation_xyz
x,y,z
-x,y,1/2-z
-x,-y,-z
x,-y,1/2+z
1/2+x,1/2+y,z
1/2-x,1/2+y,1/2-z
1/2-x,1/2-y,-z
1/2+x,1/2-y,1/2+z
loop_
_atom_site_type_symbol
_atom_site_label
_atom_site_fract_x
_atom_site_fract_y
_atom_site_fract_z
Si Si1 0.776175 0.426065 0.757552
Si Si2 0.665226 0.473496 0.615058
Si Si3 0.439985 0.852083 0.712798
Si Si4 0.173500 0.081841 0.238579
O O1 0.732844 0.323006 0.738562
O O2 0.000000 0.500000 0.500000
O O3 0.811346 0.363484 0.790497
O O4 0.556867 0.517810 0.001600
O O5 0.500000 0.405023 0.750000
O O6 0.587057 0.660973 0.728168
O O7 0.851405 0.526236 0.365420
O O8 0.686936 0.350166 0.651895
O O9 0.652958 0.936163 0.457219
#
# Coordination Sequence:
#
# PCOD9261624 Si02
#       4
#     8   8   8   8
#     4   9  19  34  46  60  91 139 178 208 237 293
#     4  11  19  30  47  76 109 134 161 203 256 305
#     4  10  19  31  46  71 104 133 166 206 250 303
#     4  10  19  31  47  64  94 141 174 201 243 295
#
# _framework density 29.301086999999999
#
# number of rings (size 3 to 8) (size 9 to 14) (size 15 to 20)
#    0.000    2.000    2.500    3.750    0.000    0.000 
#    0.000    0.000    0.000    0.000    0.000    0.000 
#    0.000    2.000   37.500   12.750   18.000    5.500 
#
# Total GULP energy -89237.102004 kJ/mol
# GULP energy per Si atom -5577.318875 kJ/mol
# Density = 2.923440 g / cm^3
# Si number density = 29.301087 Si / 1000 Ang^3
#
#
#
# Elastic Constant Matrix: (Units=GPa)
#
#
# Indices 1 2 3 4 5 6 
#
# 1 321.4204 42.4390 68.9256 0.0001 -32.6753 -0.0002
# 2 42.4390 73.5036 84.0498 -0.0041 11.1987 0.0010
# 3 68.9256 84.0498 241.7795 -0.0043 11.6199 0.0020
# 4 0.0001 -0.0041 -0.0043 31.5726 0.0016 14.6500
# 5 -32.6753 11.1987 11.6199 0.0016 74.0495 0.0001
# 6 -0.0002 0.0010 0.0020 14.6500 0.0001 -5.4099
#
#
#
# Elastic Compliance Matrix: (Units=1/GPa)
#
#
# Indices 1 2 3 4 5 6 
#
# 1 0.003662 -0.001847 -0.000497 0.000000 0.001973 -0.000001
# 2 -0.001847 0.023874 -0.007617 0.000001 -0.003230 0.000003
# 3 -0.000497 -0.007617 0.006933 0.000000 -0.000155 0.000000
# 4 0.000000 0.000001 0.000000 0.014036 0.000000 0.038010
# 5 0.001973 -0.003230 -0.000155 0.000000 0.014888 -0.000002
# 6 -0.000001 0.000003 0.000000 0.038010 -0.000002 -0.081916
#
#
# Mechanical properties :
#
#
# Convention : Reuss Voigt Hill
#
# Bulk Modulus (GPa) = 68.74487 114.17024 91.45755
# Shear Modulus (GPa) = 800.15584 49.46171 424.80877
#
# Velocity S-wave (km/s) = 16.54308 4.11305 12.05385
# Velocity P-wave (km/s) = 19.70813 7.84890 15.00026
#
# Compressibility (1/GPa) = 0.01454654
#
# Stress axis : x y z
#
# Youngs Moduli (GPa) = 273.06038 41.88712 144.23556
#
# Poissons Ratio (x) = 0.07737 0.07165
# Poissons Ratio (y) = 0.50436 1.09870
# Poissons Ratio (z) = 0.13564 0.31907
#
# Static dielectric constant tensor:
#      x y z
#    x 2.381440 0.000000 0.027430 
#    y 0.000000 2.432340 0.000000 
#    z 0.027430 0.000000 2.262760 
# 
# From -- ./inp_files/252850.got.cif
#   From: 2010.05.17/outbox.cif.g08.bks.cpg/sg15_127_cif.got.tgz:252850.got - 2010.06.03 18:47:42.
