data_PCOD9261733
_publ_section_title
;
Structure prediction by ZEFSAII (Michael W. Deem and Ramdas Pophale) SiO2 
 PCOD9261733
Probable space group: C 2/C
;
_chemical_formula_sum "Si O2"
_cell_formula_units_Z 64
_cell_length_a 12.063364
_cell_length_b 25.815949
_cell_length_c 25.851263
_cell_angle_alpha 90.000000
_cell_angle_beta 152.445288
_cell_angle_gamma 90.000000
_cell_volume 3724.256764
_symmetry_space_group_name_H-M "C 2/C"
_symmetry_group_IT_number 15
_symmetry_cell_setting 'monoclinic'
loop_
_space_group_symop_operation_xyz
x,y,z
-x,y,1/2-z
-x,-y,-z
x,-y,1/2+z
1/2+x,1/2+y,z
1/2-x,1/2+y,1/2-z
1/2-x,1/2-y,-z
1/2+x,1/2-y,1/2+z
loop_
_atom_site_type_symbol
_atom_site_label
_atom_site_fract_x
_atom_site_fract_y
_atom_site_fract_z
Si Si1 0.439057 0.061055 0.852043
Si Si2 0.945440 0.951952 0.515223
Si Si3 0.729062 0.632612 0.316577
Si Si4 0.662340 0.121811 0.364488
Si Si5 0.743145 0.049174 0.256116
Si Si6 0.520285 0.625045 0.817778
Si Si7 0.024586 0.560604 0.516030
Si Si8 0.306505 0.810257 0.521339
O O1 0.533271 0.072275 0.948559
O O2 0.223592 0.102376 0.758598
O O3 0.327125 0.003228 0.802597
O O4 0.664782 0.060229 0.906798
O O5 0.094327 0.902931 0.556112
O O6 0.067793 0.964315 0.621138
O O7 0.000000 0.000000 0.500000
O O8 0.500000 0.655011 0.250000
O O9 0.662233 0.595271 0.241126
O O10 0.860152 0.593322 0.410004
O O11 0.919544 0.675898 0.379822
O O12 0.500000 0.143480 0.250000
O O13 0.498034 0.074609 0.319029
O O14 0.720579 0.161364 0.434456
O O15 0.500000 0.646502 0.750000
O O16 0.704687 0.577581 0.885169
O O17 0.643031 0.663337 0.909395
O O18 0.000000 0.500000 0.500000
O O19 0.250000 0.750000 0.500000
#
# Coordination Sequence:
#
# PCOD9261733 Si02
#       8
#     8   8   8   8   8   8   8   8
#     4  11  21  31  51  79 115 157 180 219 268 334
#     4  11  22  33  49  75 114 156 190 219 265 326
#     4  10  20  34  56  85 113 141 186 233 278 339
#     4   9  20  39  53  79 110 147 192 230 273 338
#     4  10  20  31  50  75 112 153 186 212 268 335
#     4   9  22  37  53  83 117 139 184 229 285 342
#     4  10  19  31  51  79 115 152 176 211 273 341
#     4  10  22  42  64  80 105 148 197 247 287 328
#
# _framework density 17.184636000000001
#
# number of rings (size 3 to 8) (size 9 to 14) (size 15 to 20)
#    0.000    2.000    2.500    0.750    5.250    0.500 
#    0.000    1.250    0.000    0.000    0.000   10.500 
#    0.000    0.000    0.000    0.000    0.000    0.000 
#
# Total GULP energy -178407.442519 kJ/mol
# GULP energy per Si atom -5575.232579 kJ/mol
# Density = 1.714552 g / cm^3
# Si number density = 17.184636 Si / 1000 Ang^3
#
#
#
# Elastic Constant Matrix: (Units=GPa)
#
#
# Indices 1 2 3 4 5 6 
#
# 1 105.8228 45.4915 57.8907 0.0005 9.9383 0.0003
# 2 45.4915 89.1639 46.0985 0.0043 -5.7684 0.0011
# 3 57.8907 46.0985 85.1830 -0.0011 -3.0750 0.0023
# 4 0.0005 0.0043 -0.0011 12.0353 0.0002 -3.6556
# 5 9.9383 -5.7684 -3.0750 0.0002 43.7904 0.0008
# 6 0.0003 0.0011 0.0023 -3.6556 0.0008 12.7289
#
#
#
# Elastic Compliance Matrix: (Units=1/GPa)
#
#
# Indices 1 2 3 4 5 6 
#
# 1 0.016806 -0.004026 -0.009423 0.000001 -0.005006 0.000002
# 2 -0.004026 0.016631 -0.006167 -0.000007 0.002671 -0.000002
# 3 -0.009423 -0.006167 0.021584 0.000004 0.002842 -0.000002
# 4 0.000001 -0.000007 0.000004 0.091030 -0.000002 0.026143
# 5 -0.005006 0.002671 0.002842 -0.000002 0.024524 -0.000003
# 6 0.000002 -0.000002 -0.000002 0.026143 -0.000003 0.086069
#
#
# Mechanical properties :
#
#
# Convention : Reuss Voigt Hill
#
# Bulk Modulus (GPa) = 63.34458 64.34789 63.84623
# Shear Modulus (GPa) = 16.60366 22.42352 19.51359
#
# Velocity S-wave (km/s) = 3.11174 3.61620 3.37341
# Velocity P-wave (km/s) = 7.06058 7.41365 7.23926
#
# Compressibility (1/GPa) = 0.01578667
#
# Stress axis : x y z
#
# Youngs Moduli (GPa) = 59.50382 60.12863 46.33166
#
# Poissons Ratio (x) = 0.24210 0.43658
# Poissons Ratio (y) = 0.23959 0.28575
# Poissons Ratio (z) = 0.56070 0.37084
#
# Static dielectric constant tensor:
#      x y z
#    x 1.626430 0.000000 -0.005540 
#    y 0.000000 1.531780 0.000000 
#    z -0.005540 0.000000 1.618670 
# 
# From -- ./inp_files/293769.got.cif
#   From: 2010.05.17/outbox.cif.g08.bks.cpg/sg15_147_cif.got.tgz:293769.got - 2010.06.03 18:47:42.
