data_PCOD9261646
_publ_section_title
;
Structure prediction by ZEFSAII (Michael W. Deem and Ramdas Pophale) SiO2 
 PCOD9261646
Probable space group: C 2/C
;
_chemical_formula_sum "Si O2"
_cell_formula_units_Z 64
_cell_length_a 21.486948
_cell_length_b 24.080924
_cell_length_c 8.588529
_cell_angle_alpha 90.000000
_cell_angle_beta 66.446434
_cell_angle_gamma 90.000000
_cell_volume 4073.687241
_symmetry_space_group_name_H-M "C 2/C"
_symmetry_group_IT_number 15
_symmetry_cell_setting 'monoclinic'
loop_
_space_group_symop_operation_xyz
x,y,z
-x,y,1/2-z
-x,-y,-z
x,-y,1/2+z
1/2+x,1/2+y,z
1/2-x,1/2+y,1/2-z
1/2-x,1/2-y,-z
1/2+x,1/2-y,1/2+z
loop_
_atom_site_type_symbol
_atom_site_label
_atom_site_fract_x
_atom_site_fract_y
_atom_site_fract_z
Si Si1 0.141678 0.938655 0.295964
Si Si2 0.228142 0.166129 0.708532
Si Si3 0.728217 0.333934 0.835019
Si Si4 0.858297 0.938686 0.579230
Si Si5 0.000031 0.757886 0.937952
Si Si6 0.648207 0.227134 0.415047
Si Si7 0.499983 0.383475 0.438338
Si Si8 0.351703 0.772800 0.211741
O O1 0.197934 0.893218 0.286370
O O2 0.068057 0.915372 0.421094
O O3 0.153705 0.999978 0.346395
O O4 0.140787 0.940630 0.109271
O O5 0.224225 0.170831 0.525721
O O6 0.181187 0.214565 0.827573
O O7 0.304128 0.179782 0.687263
O O8 0.697998 0.393292 0.817752
O O9 0.804232 0.320306 0.704481
O O10 0.681301 0.285514 0.809588
O O11 0.931902 0.915370 0.557190
O O12 0.000000 0.760863 0.750000
O O13 0.069776 0.728040 0.916098
O O14 0.930335 0.727978 0.055590
O O15 0.000012 0.820661 0.000935
O O16 0.652274 0.224048 0.597634
O O17 0.500000 0.381403 0.250000
#
# Coordination Sequence:
#
# PCOD9261646 Si02
#       8
#     8   8   8   8   8   8   8   8
#     4  10  21  33  48  68  94 128 166 199 234 277
#     4  10  19  32  48  69  94 124 159 197 237 281
#     4  10  19  32  48  69  94 124 159 197 237 281
#     4  10  21  33  48  68  94 128 166 199 234 277
#     4  10  20  31  47  72  98 127 160 193 235 285
#     4  10  19  31  48  70  95 124 157 195 238 283
#     4  10  19  33  47  66  96 131 165 197 230 271
#     4  10  19  31  48  70  95 124 157 195 238 283
#
# _framework density 15.710583
#
# number of rings (size 3 to 8) (size 9 to 14) (size 15 to 20)
#    0.000    2.000    2.500    3.375    0.000    4.000 
#    0.000    0.000    0.000    0.000    0.000    0.875 
#    0.000    0.000    0.000    0.000    0.000    0.000 
#
# Total GULP energy -178529.248053 kJ/mol
# GULP energy per Si atom -5579.039002 kJ/mol
# Density = 1.567483 g / cm^3
# Si number density = 15.710583 Si / 1000 Ang^3
#
#
#
# Elastic Constant Matrix: (Units=GPa)
#
#
# Indices 1 2 3 4 5 6 
#
# 1 101.8323 67.3218 33.2405 0.0000 -32.0335 0.0000
# 2 67.3218 116.7486 33.9102 0.0000 -24.5153 0.0000
# 3 33.2405 33.9102 35.7092 0.0000 -16.5310 0.0000
# 4 0.0000 0.0000 0.0000 24.2779 0.0000 3.7398
# 5 -32.0335 -24.5153 -16.5310 0.0000 23.8378 0.0000
# 6 0.0000 0.0000 0.0000 3.7398 0.0000 19.1859
#
#
#
# Elastic Compliance Matrix: (Units=1/GPa)
#
#
# Indices 1 2 3 4 5 6 
#
# 1 0.022302 -0.007464 -0.004937 0.000000 0.018870 0.000000
# 2 -0.007464 0.015038 -0.007094 0.000000 0.000516 0.000000
# 3 -0.004937 -0.007094 0.048437 0.000000 0.019661 0.000000
# 4 0.000000 0.000000 0.000000 0.042465 0.000000 -0.008277
# 5 0.018870 0.000516 0.019661 0.000000 0.081473 0.000000
# 6 0.000000 0.000000 0.000000 -0.008277 0.000000 0.053735
#
#
# Mechanical properties :
#
#
# Convention : Reuss Voigt Hill
#
# Bulk Modulus (GPa) = 21.37256 58.13724 39.75490
# Shear Modulus (GPa) = 15.72151 21.44816 18.58484
#
# Velocity S-wave (km/s) = 3.16681 3.69888 3.44314
# Velocity P-wave (km/s) = 5.19664 7.43826 6.41610
#
# Compressibility (1/GPa) = 0.04678897
#
# Stress axis : x y z
#
# Youngs Moduli (GPa) = 44.83921 66.49744 20.64520
#
# Poissons Ratio (x) = 0.49633 0.10192
# Poissons Ratio (y) = 0.33467 0.14645
# Poissons Ratio (z) = 0.22136 0.47171
#
# Static dielectric constant tensor:
#      x y z
#    x 1.545390 0.000000 -0.004900 
#    y 0.000000 1.490430 0.000000 
#    z -0.004900 0.000000 1.538730 
# 
# From -- ./inp_files/58470.got.cif
#   From: 2010.05.17/outbox.cif.g08.bks.cpg/sg15_30_cif.got.tgz:58470.got - 2010.06.03 18:47:42.
