data_PCOD9261776
_publ_section_title
;
Structure prediction by ZEFSAII (Michael W. Deem and Ramdas Pophale) SiO2 
 PCOD9261776
Probable space group: C 2/C
;
_chemical_formula_sum "Si O2"
_cell_formula_units_Z 56
_cell_length_a 24.873929
_cell_length_b 5.376235
_cell_length_c 16.822110
_cell_angle_alpha 90.000000
_cell_angle_beta 102.985485
_cell_angle_gamma 90.000000
_cell_volume 2192.059920
_symmetry_space_group_name_H-M "C 2/C"
_symmetry_group_IT_number 15
_symmetry_cell_setting 'monoclinic'
loop_
_space_group_symop_operation_xyz
x,y,z
-x,y,1/2-z
-x,-y,-z
x,-y,1/2+z
1/2+x,1/2+y,z
1/2-x,1/2+y,1/2-z
1/2-x,1/2-y,-z
1/2+x,1/2-y,1/2+z
loop_
_atom_site_type_symbol
_atom_site_label
_atom_site_fract_x
_atom_site_fract_y
_atom_site_fract_z
Si Si1 0.879750 0.407729 0.087547
Si Si2 0.818000 0.953769 0.804183
Si Si3 0.053673 0.936975 0.602168
Si Si4 0.698872 0.359296 0.031941
Si Si5 0.593484 0.416340 0.440293
Si Si6 0.834630 0.453649 0.730399
Si Si7 0.965163 0.438818 0.818926
O O1 0.917543 0.644477 0.094005
O O2 0.835286 0.462326 0.139724
O O3 0.910951 0.152054 0.118523
O O4 0.849274 0.353123 0.993091
O O5 0.882762 0.941066 0.847681
O O6 0.789683 0.049841 0.875784
O O7 0.812776 0.176791 0.738864
O O8 0.806263 0.674404 0.771152
O O9 0.026565 0.173318 0.635518
O O10 0.060591 0.964424 0.509909
O O11 0.028480 0.674282 0.620207
O O12 0.750000 0.250000 0.000000
O O13 0.660919 0.575589 0.978989
O O14 0.899759 0.445561 0.774107
O O15 0.000000 0.463093 0.750000
#
# Coordination Sequence:
#
# PCOD9261776 Si02
#       7
#     8   8   8   8   8   8   8
#     4  10  20  34  56  78 107 139 182 218 266 314
#     4   9  19  33  55  77 102 142 181 212 257 324
#     4   9  17  31  52  77 101 135 181 215 248 318
#     4   9  21  36  56  83 106 140 181 226 263 313
#     4   9  19  33  56  76 102 141 180 212 261 314
#     4  10  20  36  54  80 105 140 180 217 263 320
#     4  10  19  31  53  79 107 136 174 224 265 310
#
# _framework density 25.546748000000001
#
# number of rings (size 3 to 8) (size 9 to 14) (size 15 to 20)
#    0.857    1.714    0.000    2.143    6.000    0.571 
#    0.000    1.429    0.000    5.143    0.000    0.000 
#    0.000    0.000    0.000    0.000    0.000    0.000 
#
# Total GULP energy -156475.406936 kJ/mol
# GULP energy per Si atom -5588.407391 kJ/mol
# Density = 2.548860 g / cm^3
# Si number density = 25.546748 Si / 1000 Ang^3
#
#
#
# Elastic Constant Matrix: (Units=GPa)
#
#
# Indices 1 2 3 4 5 6 
#
# 1 97.7095 8.1816 0.1646 0.0000 -15.9914 0.0000
# 2 8.1816 183.0169 36.1087 0.0000 -17.8049 0.0000
# 3 0.1646 36.1087 84.5477 0.0000 -16.2523 0.0000
# 4 0.0000 0.0000 0.0000 41.7887 0.0000 -2.5313
# 5 -15.9914 -17.8049 -16.2523 0.0000 40.3900 0.0000
# 6 0.0000 0.0000 0.0000 -2.5313 0.0000 -19.6192
#
#
#
# Elastic Compliance Matrix: (Units=1/GPa)
#
#
# Indices 1 2 3 4 5 6 
#
# 1 0.011013 -0.000232 0.000971 0.000000 0.004649 0.000000
# 2 -0.000232 0.006087 -0.002277 0.000000 0.001675 0.000000
# 3 0.000971 -0.002277 0.013742 0.000000 0.004910 0.000000
# 4 0.000000 0.000000 0.000000 0.023744 0.000000 -0.003063
# 5 0.004649 0.001675 0.004910 0.000000 0.029314 0.000000
# 6 0.000000 0.000000 0.000000 -0.003063 0.000000 -0.050575
#
#
# Mechanical properties :
#
#
# Convention : Reuss Voigt Hill
#
# Bulk Modulus (GPa) = 36.01434 50.46487 43.23961
# Shear Modulus (GPa) = 109.51695 33.89983 71.70839
#
# Velocity S-wave (km/s) = 6.55456 3.64672 5.30381
# Velocity P-wave (km/s) = 8.45051 6.12603 7.38036
#
# Compressibility (1/GPa) = 0.02776671
#
# Stress axis : x y z
#
# Youngs Moduli (GPa) = 90.80139 164.29684 72.76907
#
# Poissons Ratio (x) = 0.03806 -0.07067
# Poissons Ratio (y) = 0.02103 0.16569
# Poissons Ratio (z) = -0.08818 0.37410
#
# Static dielectric constant tensor:
#      x y z
#    x 2.146460 0.000000 0.057760 
#    y 0.000000 2.022720 0.000000 
#    z 0.057760 0.000000 1.967320 
# 
# From -- ./inp_files/223595.got.cif
#   From: 2010.05.17/outbox.cif.g08.bks.cpg/sg15_112_cif.got.tgz:223595.got - 2010.06.03 18:47:42.
