data_PCOD9261806
_publ_section_title
;
Structure prediction by ZEFSAII (Michael W. Deem and Ramdas Pophale) SiO2 
 PCOD9261806
Probable space group: C 2/C
;
_chemical_formula_sum "Si O2"
_cell_formula_units_Z 64
_cell_length_a 16.908995
_cell_length_b 13.278336
_cell_length_c 18.657500
_cell_angle_alpha 90.000000
_cell_angle_beta 122.445133
_cell_angle_gamma 90.000000
_cell_volume 3535.157437
_symmetry_space_group_name_H-M "C 2/C"
_symmetry_group_IT_number 15
_symmetry_cell_setting 'monoclinic'
loop_
_space_group_symop_operation_xyz
x,y,z
-x,y,1/2-z
-x,-y,-z
x,-y,1/2+z
1/2+x,1/2+y,z
1/2-x,1/2+y,1/2-z
1/2-x,1/2-y,-z
1/2+x,1/2-y,1/2+z
loop_
_atom_site_type_symbol
_atom_site_label
_atom_site_fract_x
_atom_site_fract_y
_atom_site_fract_z
Si Si1 0.756875 0.729481 0.233832
Si Si2 0.229970 0.918362 0.357079
Si Si3 0.942300 0.591863 0.004070
Si Si4 0.074622 0.185583 0.054122
Si Si5 0.569716 0.376573 0.388858
Si Si6 0.843966 0.856854 0.690807
Si Si7 0.529776 0.608952 0.368773
Si Si8 0.465750 0.827336 0.810356
O O1 0.765722 0.843423 0.208683
O O2 0.672597 0.683038 0.144961
O O3 0.727117 0.716715 0.302485
O O4 0.854475 0.672622 0.267514
O O5 0.331858 0.927815 0.442610
O O6 0.160029 0.869200 0.381499
O O7 0.194683 0.029475 0.320202
O O8 0.979402 0.612785 0.101670
O O9 0.955469 0.697967 0.969368
O O10 0.000000 0.500000 0.000000
O O11 0.993255 0.132227 0.060213
O O12 0.089946 0.140777 0.982624
O O13 0.532076 0.488881 0.359321
O O14 0.497562 0.289462 0.332828
O O15 0.877027 0.846951 0.624112
O O16 0.940549 0.849580 0.782136
O O17 0.500000 0.863601 0.750000
#
# Coordination Sequence:
#
# PCOD9261806 Si02
#       8
#     8   8   8   8   8   8   8   8
#     4  10  19  32  51  76 109 130 176 220 263 318
#     4  10  19  33  55  78 107 139 184 216 273 326
#     4  10  22  37  55  72 108 154 184 214 266 322
#     4   9  20  33  55  78 105 140 174 220 264 324
#     4  10  19  31  54  82 106 132 167 228 283 319
#     4   9  18  31  53  77 103 143 174 218 265 317
#     4   9  17  32  54  79 107 135 176 215 273 324
#     4  11  21  32  54  81 109 135 178 231 277 316
#
# _framework density 18.103860999999998
#
# number of rings (size 3 to 8) (size 9 to 14) (size 15 to 20)
#    0.000    2.250    1.250    1.875    3.500    1.500 
#    0.000    0.000   11.000   13.500    0.000    0.000 
#    0.000    0.000    0.000    0.000    0.000    0.000 
#
# Total GULP energy -178349.959936 kJ/mol
# GULP energy per Si atom -5573.436248 kJ/mol
# Density = 1.806266 g / cm^3
# Si number density = 18.103861 Si / 1000 Ang^3
#
#
#
# Elastic Constant Matrix: (Units=GPa)
#
#
# Indices 1 2 3 4 5 6 
#
# 1 146.9262 51.4957 41.9880 0.0000 -14.8072 0.0000
# 2 51.4957 40.1647 12.7268 0.0000 -12.0683 0.0000
# 3 41.9880 12.7268 63.1741 0.0000 -8.0808 0.0000
# 4 0.0000 0.0000 0.0000 10.4011 0.0000 -3.6330
# 5 -14.8072 -12.0683 -8.0808 0.0000 28.3316 0.0000
# 6 0.0000 0.0000 0.0000 -3.6330 0.0000 28.8282
#
#
#
# Elastic Compliance Matrix: (Units=1/GPa)
#
#
# Indices 1 2 3 4 5 6 
#
# 1 0.014388 -0.016880 -0.006352 0.000000 -0.001482 0.000000
# 2 -0.016880 0.049558 0.002913 0.000000 0.013119 0.000000
# 3 -0.006352 0.002913 0.019925 0.000000 0.003604 0.000000
# 4 0.000000 0.000000 0.000000 0.100571 0.000000 0.012674
# 5 -0.001482 0.013119 0.003604 0.000000 0.041138 0.000000
# 6 0.000000 0.000000 0.000000 0.012674 0.000000 0.036285
#
#
# Mechanical properties :
#
#
# Convention : Reuss Voigt Hill
#
# Bulk Modulus (GPa) = 23.12968 51.40955 37.26962
# Shear Modulus (GPa) = 15.77711 23.11580 19.44645
#
# Velocity S-wave (km/s) = 2.95528 3.57717 3.28099
# Velocity P-wave (km/s) = 4.94457 6.74687 5.91477
#
# Compressibility (1/GPa) = 0.04323449
#
# Stress axis : x y z
#
# Youngs Moduli (GPa) = 69.50134 20.17829 50.18768
#
# Poissons Ratio (x) = 0.34061 0.31879
# Poissons Ratio (y) = 1.17318 -0.14622
# Poissons Ratio (z) = 0.44147 -0.05879
#
# Static dielectric constant tensor:
#      x y z
#    x 1.652890 0.000000 -0.016980 
#    y 0.000000 1.604830 0.000000 
#    z -0.016980 0.000000 1.639390 
# 
# From -- ./inp_files/205412.got.cif
#   From: 2010.05.17/outbox.cif.g08.bks.cpg/sg15_103_cif.got.tgz:205412.got - 2010.06.03 18:47:42.
