data_PCOD9261499
_publ_section_title
;
Structure prediction by ZEFSAII (Michael W. Deem and Ramdas Pophale) SiO2 
 PCOD9261499
Probable space group: C 2/C
;
_chemical_formula_sum "Si O2"
_cell_formula_units_Z 56
_cell_length_a 19.884767
_cell_length_b 7.315197
_cell_length_c 22.520166
_cell_angle_alpha 90.000000
_cell_angle_beta 111.300459
_cell_angle_gamma 90.000000
_cell_volume 3052.029803
_symmetry_space_group_name_H-M "C 2/C"
_symmetry_group_IT_number 15
_symmetry_cell_setting 'monoclinic'
loop_
_space_group_symop_operation_xyz
x,y,z
-x,y,1/2-z
-x,-y,-z
x,-y,1/2+z
1/2+x,1/2+y,z
1/2-x,1/2+y,1/2-z
1/2-x,1/2-y,-z
1/2+x,1/2-y,1/2+z
loop_
_atom_site_type_symbol
_atom_site_label
_atom_site_fract_x
_atom_site_fract_y
_atom_site_fract_z
Si Si1 0.692662 0.882066 0.553663
Si Si2 0.581330 0.169359 0.777645
Si Si3 0.299982 0.813904 0.272558
Si Si4 0.577680 0.729736 0.752883
Si Si5 0.678550 0.094506 0.916949
Si Si6 0.842141 0.284323 0.832888
Si Si7 0.722294 0.275051 0.365351
O O1 0.655620 0.914256 0.478390
O O2 0.752695 0.726157 0.564960
O O3 0.644514 0.812404 0.593388
O O4 0.735269 0.065333 0.587155
O O5 0.500000 0.237854 0.750000
O O6 0.632897 0.258241 0.744218
O O7 0.618447 0.176521 0.853769
O O8 0.578750 0.950471 0.763354
O O9 0.232406 0.819877 0.205861
O O10 0.271082 0.721571 0.323629
O O11 0.322627 0.014113 0.301863
O O12 0.500000 0.664659 0.750000
O O13 0.595680 0.704298 0.689104
O O14 0.646211 0.658063 0.812493
O O15 0.702951 0.896813 0.900128
#
# Coordination Sequence:
#
# PCOD9261499 Si02
#       7
#     8   8   8   8   8   8   8
#     4  10  19  30  49  73  99 125 167 197 233 296
#     4   9  16  29  49  71  99 126 158 202 246 292
#     4   9  16  27  47  71  92 119 162 204 247 275
#     4   8  15  28  49  73  97 128 160 201 253 281
#     4  10  19  32  49  71  98 132 157 198 246 282
#     4   9  16  27  46  70  97 122 159 211 232 285
#     4   9  18  31  50  71  96 126 162 208 238 281
#
# _framework density 18.348445000000002
#
# number of rings (size 3 to 8) (size 9 to 14) (size 15 to 20)
#    0.000    2.857    1.429    1.286    0.000    0.000 
#    0.000    0.714    0.000   23.143    0.000    4.000 
#    0.000    0.000    0.000    0.000    0.000    0.000 
#
# Total GULP energy -155974.540356 kJ/mol
# GULP energy per Si atom -5570.519298 kJ/mol
# Density = 1.830668 g / cm^3
# Si number density = 18.348445 Si / 1000 Ang^3
#
#
#
# Elastic Constant Matrix: (Units=GPa)
#
#
# Indices 1 2 3 4 5 6 
#
# 1 120.7822 -5.2404 52.7883 0.0000 -20.2952 0.0000
# 2 -5.2404 44.7517 12.5028 0.0000 -6.2171 0.0000
# 3 52.7883 12.5028 133.2319 0.0000 -30.4572 0.0000
# 4 0.0000 0.0000 0.0000 20.4157 0.0000 -0.9544
# 5 -20.2952 -6.2171 -30.4572 0.0000 22.4024 0.0000
# 6 0.0000 0.0000 0.0000 -0.9544 0.0000 10.6473
#
#
#
# Elastic Compliance Matrix: (Units=1/GPa)
#
#
# Indices 1 2 3 4 5 6 
#
# 1 0.010854 0.003036 -0.003112 0.000000 0.006444 0.000000
# 2 0.003036 0.024188 -0.001900 0.000000 0.006880 0.000000
# 3 -0.003112 -0.001900 0.011828 0.000000 0.012734 0.000000
# 4 0.000000 0.000000 0.000000 0.049188 0.000000 0.004409
# 5 0.006444 0.006880 0.012734 0.000000 0.069698 0.000000
# 6 0.000000 0.000000 0.000000 0.004409 0.000000 0.094315
#
#
# Mechanical properties :
#
#
# Convention : Reuss Voigt Hill
#
# Bulk Modulus (GPa) = 23.30070 46.54081 34.92076
# Shear Modulus (GPa) = 17.96428 26.60743 22.28585
#
# Velocity S-wave (km/s) = 3.13239 3.81217 3.48888
# Velocity P-wave (km/s) = 5.08026 6.69305 5.94163
#
# Compressibility (1/GPa) = 0.04291717
#
# Stress axis : x y z
#
# Youngs Moduli (GPa) = 92.13060 41.34353 84.54368
#
# Poissons Ratio (x) = -0.12551 0.26312
# Poissons Ratio (y) = -0.27969 0.16063
# Poissons Ratio (z) = 0.28673 0.07855
#
# Static dielectric constant tensor:
#      x y z
#    x 1.644250 0.000000 -0.039920 
#    y 0.000000 1.694240 0.000000 
#    z -0.039920 0.000000 1.654580 
# 
# From -- ./inp_files/247022.got.cif
#   From: 2010.05.17/outbox.cif.g08.bks.cpg/sg15_124_cif.got.tgz:247022.got - 2010.06.03 18:47:42.
