data_PCOD9261208
_publ_section_title
;
Structure prediction by ZEFSAII (Michael W. Deem and Ramdas Pophale) SiO2 
 PCOD9261208
Probable space group: C 2/C
;
_chemical_formula_sum "Si O2"
_cell_formula_units_Z 44
_cell_length_a 18.969474
_cell_length_b 8.749830
_cell_length_c 12.551252
_cell_angle_alpha 90.000000
_cell_angle_beta 120.963598
_cell_angle_gamma 90.000000
_cell_volume 1786.377417
_symmetry_space_group_name_H-M "C 2/C"
_symmetry_group_IT_number 15
_symmetry_cell_setting 'monoclinic'
loop_
_space_group_symop_operation_xyz
x,y,z
-x,y,1/2-z
-x,-y,-z
x,-y,1/2+z
1/2+x,1/2+y,z
1/2-x,1/2+y,1/2-z
1/2-x,1/2-y,-z
1/2+x,1/2-y,1/2+z
loop_
_atom_site_type_symbol
_atom_site_label
_atom_site_fract_x
_atom_site_fract_y
_atom_site_fract_z
Si Si1 0.407644 0.461799 0.130678
Si Si2 0.501858 0.718948 0.943270
Si Si3 0.917222 0.310160 0.066188
Si Si4 0.745762 0.759279 0.627709
Si Si5 0.500000 0.948154 0.750000
Si Si6 0.837267 0.968758 0.286195
O O1 0.500000 0.443139 0.250000
O O2 0.413753 0.357627 0.031072
O O3 0.403972 0.640792 0.102551
O O4 0.340460 0.410489 0.164227
O O5 0.482337 0.844700 0.838461
O O6 0.428828 0.590619 0.890596
O O7 0.497799 0.795829 0.055239
O O8 0.926953 0.437365 0.162159
O O9 0.841230 0.349600 0.930918
O O10 0.750000 0.750000 0.500000
O O11 0.725074 0.605395 0.677488
O O12 0.814530 0.856513 0.741831
#
# Coordination Sequence:
#
# PCOD9261208 Si02
#       6
#     8   8   8   8   4   8
#     4  10  18  41  66  92 126 170 211 265 325 386
#     4  10  22  42  67  93 129 171 217 268 334 390
#     4  11  23  38  66  98 130 168 215 271 329 386
#     4  11  24  44  66  94 132 178 223 262 324 395
#     4  12  22  40  62 100 136 158 212 278 330 376
#     4  10  22  44  66  91 130 175 219 274 317 388
#
# _framework density 24.630853999999999
#
# number of rings (size 3 to 8) (size 9 to 14) (size 15 to 20)
#    0.000    1.455    5.455    1.091    0.000    2.909 
#    0.000    9.091    0.000    0.000    0.000    0.000 
#    0.000    0.000    0.000    0.000    0.000    0.000 
#
# Total GULP energy -122510.305177 kJ/mol
# GULP energy per Si atom -5568.650235 kJ/mol
# Density = 2.457479 g / cm^3
# Si number density = 24.630854 Si / 1000 Ang^3
#
#
#
# Elastic Constant Matrix: (Units=GPa)
#
#
# Indices 1 2 3 4 5 6 
#
# 1 89.1986 29.9195 30.9181 0.0000 -45.8853 0.0000
# 2 29.9195 109.3271 52.2267 0.0000 -20.6427 0.0000
# 3 30.9181 52.2267 98.2477 0.0000 -27.9885 0.0000
# 4 0.0000 0.0000 0.0000 51.2602 0.0000 -12.4539
# 5 -45.8853 -20.6427 -27.9885 0.0000 59.4357 0.0000
# 6 0.0000 0.0000 0.0000 -12.4539 0.0000 27.7602
#
#
#
# Elastic Compliance Matrix: (Units=1/GPa)
#
#
# Indices 1 2 3 4 5 6 
#
# 1 0.019350 -0.002231 -0.001003 0.000000 0.013691 0.000000
# 2 -0.002231 0.012615 -0.006059 0.000000 -0.000194 0.000000
# 3 -0.001003 -0.006059 0.014893 0.000000 0.004134 0.000000
# 4 0.000000 0.000000 0.000000 0.021895 0.000000 0.009823
# 5 0.013691 -0.000194 0.004134 0.000000 0.029274 0.000000
# 6 0.000000 0.000000 0.000000 0.009823 0.000000 0.040429
#
#
# Mechanical properties :
#
#
# Convention : Reuss Voigt Hill
#
# Bulk Modulus (GPa) = 35.37183 58.10022 46.73603
# Shear Modulus (GPa) = 30.03595 39.93850 34.98722
#
# Velocity S-wave (km/s) = 3.49584 4.03113 3.77299
# Velocity P-wave (km/s) = 5.53954 6.73100 6.16412
#
# Compressibility (1/GPa) = 0.02827109
#
# Stress axis : x y z
#
# Youngs Moduli (GPa) = 51.67953 79.26837 67.14664
#
# Poissons Ratio (x) = 0.17687 0.06734
# Poissons Ratio (y) = 0.11531 0.40686
# Poissons Ratio (z) = 0.05183 0.48031
#
# Static dielectric constant tensor:
#      x y z
#    x 2.106590 0.000000 -0.040170 
#    y 0.000000 1.995520 0.000000 
#    z -0.040170 0.000000 2.091470 
# 
# From -- ./inp_files/165794.got.cif
#   From: 2010.05.17/outbox.cif.g08.bks.cpg/sg15_83_cif.got.tgz:165794.got - 2010.06.03 18:47:42.
