data_PCOD9261647
_publ_section_title
;
Structure prediction by ZEFSAII (Michael W. Deem and Ramdas Pophale) SiO2 
 PCOD9261647
Probable space group: C 2/C
;
_chemical_formula_sum "Si O2"
_cell_formula_units_Z 48
_cell_length_a 19.241859
_cell_length_b 28.470016
_cell_length_c 5.129219
_cell_angle_alpha 90.000000
_cell_angle_beta 73.982380
_cell_angle_gamma 90.000000
_cell_volume 2700.780562
_symmetry_space_group_name_H-M "C 2/C"
_symmetry_group_IT_number 15
_symmetry_cell_setting 'monoclinic'
loop_
_space_group_symop_operation_xyz
x,y,z
-x,y,1/2-z
-x,-y,-z
x,-y,1/2+z
1/2+x,1/2+y,z
1/2-x,1/2+y,1/2-z
1/2-x,1/2-y,-z
1/2+x,1/2-y,1/2+z
loop_
_atom_site_type_symbol
_atom_site_label
_atom_site_fract_x
_atom_site_fract_y
_atom_site_fract_z
Si Si1 0.632446 0.743863 0.541255
Si Si2 0.265328 0.967802 0.528936
Si Si3 0.282990 0.370920 0.050471
Si Si4 0.728402 0.825047 0.604852
Si Si5 0.924482 0.468461 0.266149
Si Si6 0.421022 0.303203 0.904739
O O1 0.658199 0.795734 0.593552
O O2 0.704764 0.711668 0.475464
O O3 0.600868 0.735783 0.288088
O O4 0.581368 0.721443 0.812685
O O5 0.211535 0.925108 0.532760
O O6 0.258608 0.991910 0.816402
O O7 0.346640 0.946661 0.406340
O O8 0.248223 0.364166 0.370775
O O9 0.231650 0.345676 0.890360
O O10 0.359283 0.343321 0.962851
O O11 0.925612 0.512421 0.469805
O O12 0.000000 0.442615 0.250000
O O13 0.500000 0.321518 0.750000
#
# Coordination Sequence:
#
# PCOD9261647 Si02
#       6
#     8   8   8   8   8   8
#     4   9  17  30  49  72  95 120 155 198 242 293
#     4  10  19  31  48  70  95 124 162 206 248 286
#     4  10  19  31  49  72  98 128 165 208 247 286
#     4   9  17  30  49  72  94 119 154 197 246 295
#     4   8  14  25  42  62  81 104 137 178 225 279
#     4  10  19  31  49  72  98 131 169 203 237 285
#
# _framework density 17.772639000000002
#
# number of rings (size 3 to 8) (size 9 to 14) (size 15 to 20)
#    0.000    2.667    0.000    2.500    0.000    4.000 
#    0.000    0.000    0.000    7.000    0.000    0.000 
#    0.000    0.000    0.000    0.000    0.000    0.000 
#
# Total GULP energy -133662.578668 kJ/mol
# GULP energy per Si atom -5569.274111 kJ/mol
# Density = 1.773219 g / cm^3
# Si number density = 17.772639 Si / 1000 Ang^3
#
#
#
# Elastic Constant Matrix: (Units=GPa)
#
#
# Indices 1 2 3 4 5 6 
#
# 1 48.8897 13.4972 4.6598 0.0000 -2.2044 0.0000
# 2 13.4972 33.6234 -12.8244 0.0000 -4.7366 0.0000
# 3 4.6598 -12.8244 50.5880 0.0000 7.4579 0.0000
# 4 0.0000 0.0000 0.0000 10.4659 0.0000 2.7187
# 5 -2.2044 -4.7366 7.4579 0.0000 25.5056 0.0000
# 6 0.0000 0.0000 0.0000 2.7187 0.0000 14.7309
#
#
#
# Elastic Compliance Matrix: (Units=1/GPa)
#
#
# Indices 1 2 3 4 5 6 
#
# 1 0.024230 -0.011567 -0.005389 0.000000 0.001522 0.000000
# 2 -0.011567 0.038811 0.010439 0.000000 0.003155 0.000000
# 3 -0.005389 0.010439 0.023715 0.000000 -0.005462 0.000000
# 4 0.000000 0.000000 0.000000 0.100360 0.000000 -0.018522
# 5 0.001522 0.003155 -0.005462 0.000000 0.041522 0.000000
# 6 0.000000 0.000000 0.000000 -0.018522 0.000000 0.071303
#
#
# Mechanical properties :
#
#
# Convention : Reuss Voigt Hill
#
# Bulk Modulus (GPa) = 13.56441 15.97404 14.76923
# Shear Modulus (GPa) = 14.81268 18.65837 16.73553
#
# Velocity S-wave (km/s) = 2.89009 3.24363 3.07195
# Velocity P-wave (km/s) = 4.33424 4.79955 4.57282
#
# Compressibility (1/GPa) = 0.07372232
#
# Stress axis : x y z
#
# Youngs Moduli (GPa) = 41.27138 25.76605 42.16661
#
# Poissons Ratio (x) = 0.29805 0.22722
# Poissons Ratio (y) = 0.47740 -0.44018
# Poissons Ratio (z) = 0.22240 -0.26898
#
# Static dielectric constant tensor:
#      x y z
#    x 1.647660 0.000000 -0.006880 
#    y 0.000000 1.587500 0.000000 
#    z -0.006880 0.000000 1.613700 
# 
# From -- ./inp_files/10655.got.cif
#   From: 2010.05.17/outbox.cif.g08.bks.cpg/sg15_6_cif.got.tgz:10655.got - 2010.06.03 18:47:42.
