data_PCOD9261555
_publ_section_title
;
Structure prediction by ZEFSAII (Michael W. Deem and Ramdas Pophale) SiO2 
 PCOD9261555
Probable space group: C 2/C
;
_chemical_formula_sum "Si O2"
_cell_formula_units_Z 40
_cell_length_a 18.961656
_cell_length_b 19.683186
_cell_length_c 7.502582
_cell_angle_alpha 90.000000
_cell_angle_beta 146.404352
_cell_angle_gamma 90.000000
_cell_volume 1549.406163
_symmetry_space_group_name_H-M "C 2/C"
_symmetry_group_IT_number 15
_symmetry_cell_setting 'monoclinic'
loop_
_space_group_symop_operation_xyz
x,y,z
-x,y,1/2-z
-x,-y,-z
x,-y,1/2+z
1/2+x,1/2+y,z
1/2-x,1/2+y,1/2-z
1/2-x,1/2-y,-z
1/2+x,1/2-y,1/2+z
loop_
_atom_site_type_symbol
_atom_site_label
_atom_site_fract_x
_atom_site_fract_y
_atom_site_fract_z
Si Si1 0.343269 0.663592 0.211635
Si Si2 0.343421 0.087927 0.108192
Si Si3 0.791574 0.727744 0.889089
Si Si4 0.420842 0.567480 0.810615
Si Si5 0.685007 0.938576 0.566152
O O1 0.348731 0.709498 0.400509
O O2 0.475485 0.625356 0.474826
O O3 0.219847 0.612545 0.979421
O O4 0.319274 0.707020 0.984056
O O5 0.375959 0.159625 0.091045
O O6 0.188039 0.085732 0.776095
O O7 0.373046 0.011750 0.104416
O O8 0.381270 0.090996 0.396583
O O9 0.750000 0.750000 0.000000
O O10 0.670383 0.553723 0.050943
O O11 0.500000 0.500000 0.000000
#
# Coordination Sequence:
#
# PCOD9261555 Si02
#       5
#     8   8   8   8   8
#     4  11  21  34  52  71 107 152 187 221 273 323
#     4  10  20  31  53  78 116 144 184 219 277 329
#     4  11  22  37  47  67 105 159 189 221 260 332
#     4  10  19  30  52  82 115 141 178 228 273 326
#     4  10  19  31  51  81 110 139 184 227 268 327
#
# _framework density 25.816341000000001
#
# number of rings (size 3 to 8) (size 9 to 14) (size 15 to 20)
#    1.200    0.400    4.000    3.000    0.000    2.400 
#    0.000    0.000    0.000    0.000    0.000    0.000 
#    0.000    1.600   23.600    9.800    9.600    2.000 
#
# Total GULP energy -111692.139669 kJ/mol
# GULP energy per Si atom -5584.606983 kJ/mol
# Density = 2.575758 g / cm^3
# Si number density = 25.816341 Si / 1000 Ang^3
#
#
#
# Elastic Constant Matrix: (Units=GPa)
#
#
# Indices 1 2 3 4 5 6 
#
# 1 121.1147 58.2362 37.8177 0.0000 -16.3218 0.0000
# 2 58.2362 159.9968 42.4525 0.0000 1.5450 0.0000
# 3 37.8177 42.4525 95.3702 0.0000 -19.6884 0.0000
# 4 0.0000 0.0000 0.0000 32.1339 0.0000 -10.7897
# 5 -16.3218 1.5450 -19.6884 0.0000 34.0580 0.0000
# 6 0.0000 0.0000 0.0000 -10.7897 0.0000 51.4946
#
#
#
# Elastic Compliance Matrix: (Units=1/GPa)
#
#
# Indices 1 2 3 4 5 6 
#
# 1 0.011184 -0.003604 -0.001919 0.000000 0.004414 0.000000
# 2 -0.003604 0.008431 -0.003133 0.000000 -0.003921 0.000000
# 3 -0.001919 -0.003133 0.014172 0.000000 0.007415 0.000000
# 4 0.000000 0.000000 0.000000 0.033475 0.000000 0.007014
# 5 0.004414 -0.003921 0.007415 0.000000 0.035941 0.000000
# 6 0.000000 0.000000 0.000000 0.007014 0.000000 0.020889
#
#
# Mechanical properties :
#
#
# Convention : Reuss Voigt Hill
#
# Bulk Modulus (GPa) = 60.70336 72.61051 66.65694
# Shear Modulus (GPa) = 34.03754 39.40232 36.71993
#
# Velocity S-wave (km/s) = 3.63499 3.91097 3.77550
# Velocity P-wave (km/s) = 6.41733 6.97001 6.69937
#
# Compressibility (1/GPa) = 0.01647355
#
# Stress axis : x y z
#
# Youngs Moduli (GPa) = 89.41614 118.60739 70.56148
#
# Poissons Ratio (x) = 0.42747 0.13543
# Poissons Ratio (y) = 0.32226 0.22109
# Poissons Ratio (z) = 0.17162 0.37164
#
# Static dielectric constant tensor:
#      x y z
#    x 2.178300 0.000000 -0.005410 
#    y 0.000000 2.082770 0.000000 
#    z -0.005410 0.000000 2.032790 
# 
# From -- ./inp_files/57642.got.cif
#   From: 2010.05.17/outbox.cif.g08.bks.cpg/sg15_29_cif.got.tgz:57642.got - 2010.06.03 18:47:42.
