data_PCOD9261701
_publ_section_title
;
Structure prediction by ZEFSAII (Michael W. Deem and Ramdas Pophale) SiO2 
 PCOD9261701
Probable space group: C 2/C
;
_chemical_formula_sum "Si O2"
_cell_formula_units_Z 44
_cell_length_a 11.756926
_cell_length_b 23.229430
_cell_length_c 10.705372
_cell_angle_alpha 90.000000
_cell_angle_beta 45.449837
_cell_angle_gamma 90.000000
_cell_volume 2083.541608
_symmetry_space_group_name_H-M "C 2/C"
_symmetry_group_IT_number 15
_symmetry_cell_setting 'monoclinic'
loop_
_space_group_symop_operation_xyz
x,y,z
-x,y,1/2-z
-x,-y,-z
x,-y,1/2+z
1/2+x,1/2+y,z
1/2-x,1/2+y,1/2-z
1/2-x,1/2-y,-z
1/2+x,1/2-y,1/2+z
loop_
_atom_site_type_symbol
_atom_site_label
_atom_site_fract_x
_atom_site_fract_y
_atom_site_fract_z
Si Si1 0.195025 0.065954 0.603724
Si Si2 0.668684 0.364519 0.369574
Si Si3 0.311824 0.772298 0.622626
Si Si4 0.000000 0.252668 0.250000
Si Si5 0.281351 0.372049 0.665341
Si Si6 0.694430 0.432644 0.597881
O O1 0.234016 0.101208 0.699137
O O2 0.260378 0.097427 0.430900
O O3 0.000000 0.065964 0.750000
O O4 0.244265 0.999393 0.558789
O O5 0.695801 0.295902 0.347541
O O6 0.474837 0.368187 0.516252
O O7 0.733772 0.396168 0.443480
O O8 0.148774 0.786124 0.673661
O O9 0.448601 0.784637 0.415809
O O10 0.303043 0.810462 0.751715
O O11 0.241473 0.406022 0.822927
O O12 0.500000 0.432488 0.750000
#
# Coordination Sequence:
#
# PCOD9261701 Si02
#       6
#     8   8   8   4   8   8
#     4   9  18  31  47  74 110 142 169 213 272 312
#     4  10  19  31  50  77 109 137 174 218 258 314
#     4  11  20  33  52  80 106 144 168 220 260 314
#     4  10  20  32  52  76 108 130 180 214 260 300
#     4  10  19  31  50  77 109 137 174 218 258 314
#     4   9  16  28  49  74 102 138 175 218 266 308
#
# _framework density 21.117889000000002
#
# number of rings (size 3 to 8) (size 9 to 14) (size 15 to 20)
#    0.000    2.182    1.818    3.273    2.545    5.091 
#    0.000    0.000    0.000    0.000    0.000   20.364 
#    0.000    0.000    0.000    0.000    0.000    0.000 
#
# Total GULP energy -122725.911847 kJ/mol
# GULP energy per Si atom -5578.450538 kJ/mol
# Density = 2.106982 g / cm^3
# Si number density = 21.117889 Si / 1000 Ang^3
#
#
#
# Elastic Constant Matrix: (Units=GPa)
#
#
# Indices 1 2 3 4 5 6 
#
# 1 37.4000 40.3271 44.5193 0.0000 33.3924 0.0000
# 2 40.3271 199.1924 84.2984 0.0000 61.0791 0.0000
# 3 44.5193 84.2984 109.0688 0.0000 48.6417 0.0000
# 4 0.0000 0.0000 0.0000 37.2585 0.0000 6.2734
# 5 33.3924 61.0791 48.6417 0.0000 49.6993 0.0000
# 6 0.0000 0.0000 0.0000 6.2734 0.0000 -4.3469
#
#
#
# Elastic Compliance Matrix: (Units=1/GPa)
#
#
# Indices 1 2 3 4 5 6 
#
# 1 0.080477 0.003824 -0.017025 0.000000 -0.042108 0.000000
# 2 0.003824 0.008927 -0.004298 0.000000 -0.009334 0.000000
# 3 -0.017025 -0.004298 0.021264 0.000000 -0.004090 0.000000
# 4 0.000000 0.000000 0.000000 0.021593 0.000000 0.031162
# 5 -0.042108 -0.009334 -0.004090 0.000000 0.063888 0.000000
# 6 0.000000 0.000000 0.000000 0.031162 0.000000 -0.185075
#
#
# Mechanical properties :
#
#
# Convention : Reuss Voigt Hill
#
# Bulk Modulus (GPa) = 13.21527 75.99451 44.60489
# Shear Modulus (GPa) = 70.13248 28.28996 49.21122
#
# Velocity S-wave (km/s) = 5.76906 3.66405 4.83256
# Velocity P-wave (km/s) = 7.11671 7.34604 7.23229
#
# Compressibility (1/GPa) = 0.07567005
#
# Stress axis : x y z
#
# Youngs Moduli (GPa) = 12.42593 112.01884 47.02858
#
# Poissons Ratio (x) = -0.42838 0.80067
# Poissons Ratio (y) = -0.04752 0.20212
# Poissons Ratio (z) = 0.21155 0.48143
#
# Static dielectric constant tensor:
#      x y z
#    x 1.759440 0.000000 -0.003070 
#    y 0.000000 1.787830 0.000000 
#    z -0.003070 0.000000 1.786660 
# 
# From -- ./inp_files/42372.got.cif
#   From: 2010.05.17/outbox.cif.g08.bks.cpg/sg15_22_cif.got.tgz:42372.got - 2010.06.03 18:47:42.
