data_PCOD9261742
_publ_section_title
;
Structure prediction by ZEFSAII (Michael W. Deem and Ramdas Pophale) SiO2 
 PCOD9261742
Probable space group: C 2/C
;
_chemical_formula_sum "Si O2"
_cell_formula_units_Z 48
_cell_length_a 7.112138
_cell_length_b 29.390869
_cell_length_c 14.293290
_cell_angle_alpha 90.000000
_cell_angle_beta 45.475036
_cell_angle_gamma 90.000000
_cell_volume 2130.104109
_symmetry_space_group_name_H-M "C 2/C"
_symmetry_group_IT_number 15
_symmetry_cell_setting 'monoclinic'
loop_
_space_group_symop_operation_xyz
x,y,z
-x,y,1/2-z
-x,-y,-z
x,-y,1/2+z
1/2+x,1/2+y,z
1/2-x,1/2+y,1/2-z
1/2-x,1/2-y,-z
1/2+x,1/2-y,1/2+z
loop_
_atom_site_type_symbol
_atom_site_label
_atom_site_fract_x
_atom_site_fract_y
_atom_site_fract_z
Si Si1 0.313696 0.448412 0.162242
Si Si2 0.180702 0.951405 0.847838
Si Si3 0.015057 0.693317 0.471332
Si Si4 0.239416 0.850927 0.230410
Si Si5 0.224894 0.854383 0.785526
Si Si6 0.518899 0.298056 0.469460
O O1 0.386965 0.499237 0.171651
O O2 0.322567 0.403585 0.223503
O O3 0.000000 0.449983 0.250000
O O4 0.508852 0.444198 0.003736
O O5 0.500000 0.952874 0.750000
O O6 0.127756 0.905849 0.809599
O O7 0.971971 0.663316 0.579558
O O8 0.749429 0.697711 0.499396
O O9 0.085116 0.745710 0.464272
O O10 0.213302 0.668274 0.333791
O O11 0.000000 0.833744 0.250000
O O12 0.225492 0.824292 0.332374
O O13 0.500000 0.856677 0.750000
O O14 0.040618 0.823555 0.913927
#
# Coordination Sequence:
#
# PCOD9261742 Si02
#       6
#     8   8   8   8   8   8
#     4  10  20  36  57  82 108 145 189 225 270 337
#     4   9  18  33  59  78 100 142 200 221 255 328
#     4   9  17  25  44  75 112 135 173 232 278 309
#     4  10  19  31  51  82 112 140 179 234 281 317
#     4   9  15  26  46  71 100 138 177 216 264 320
#     4   9  15  27  44  74 106 143 177 222 268 326
#
# _framework density 22.534109000000001
#
# number of rings (size 3 to 8) (size 9 to 14) (size 15 to 20)
#    0.000    2.667    1.667    1.000    2.333    4.000 
#    0.000    0.833    0.000    1.000    0.000    0.000 
#    0.000    0.000    0.000    0.000    0.000    0.000 
#
# Total GULP energy -133840.105749 kJ/mol
# GULP energy per Si atom -5576.671073 kJ/mol
# Density = 2.248282 g / cm^3
# Si number density = 22.534109 Si / 1000 Ang^3
#
#
#
# Elastic Constant Matrix: (Units=GPa)
#
#
# Indices 1 2 3 4 5 6 
#
# 1 52.7623 18.0531 53.5939 0.0000 -0.8498 0.0000
# 2 18.0531 163.1768 124.0372 0.0000 17.9899 0.0000
# 3 53.5939 124.0372 221.4535 0.0000 23.5972 0.0000
# 4 0.0000 0.0000 0.0000 100.3718 0.0000 23.5385
# 5 -0.8498 17.9899 23.5972 0.0000 36.5552 0.0000
# 6 0.0000 0.0000 0.0000 23.5385 0.0000 25.3102
#
#
#
# Elastic Compliance Matrix: (Units=1/GPa)
#
#
# Indices 1 2 3 4 5 6 
#
# 1 0.026870 0.003190 -0.008794 0.000000 0.004731 0.000000
# 2 0.003190 0.011128 -0.006904 0.000000 -0.000945 0.000000
# 3 -0.008794 -0.006904 0.010922 0.000000 -0.003857 0.000000
# 4 0.000000 0.000000 0.000000 0.012742 0.000000 -0.011850
# 5 0.004731 -0.000945 -0.003857 0.000000 0.030421 0.000000
# 6 0.000000 0.000000 0.000000 -0.011850 0.000000 0.050530
#
#
# Mechanical properties :
#
#
# Convention : Reuss Voigt Hill
#
# Bulk Modulus (GPa) = 41.83381 92.08453 66.95917
# Shear Modulus (GPa) = 28.47455 48.56132 38.51794
#
# Velocity S-wave (km/s) = 3.55860 4.64725 4.13887
# Velocity P-wave (km/s) = 5.95733 8.35159 7.25393
#
# Compressibility (1/GPa) = 0.02390411
#
# Stress axis : x y z
#
# Youngs Moduli (GPa) = 37.21635 89.86719 91.56117
#
# Poissons Ratio (x) = -0.28668 0.80516
# Poissons Ratio (y) = -0.11872 0.63213
# Poissons Ratio (z) = 0.32727 0.62043
#
# Static dielectric constant tensor:
#      x y z
#    x 1.918270 0.000000 -0.061740 
#    y 0.000000 1.826680 0.000000 
#    z -0.061740 0.000000 1.828200 
# 
# From -- ./inp_files/115131.got.cif
#   From: 2010.05.17/outbox.cif.g08.bks.cpg/sg15_58_cif.got.tgz:115131.got - 2010.06.03 18:47:42.
