data_PCOD9261371
_publ_section_title
;
Structure prediction by ZEFSAII (Michael W. Deem and Ramdas Pophale) SiO2 
 PCOD9261371
Probable space group: C 2/C
;
_chemical_formula_sum "Si O2"
_cell_formula_units_Z 60
_cell_length_a 23.511297
_cell_length_b 16.526787
_cell_length_c 25.692094
_cell_angle_alpha 90.000000
_cell_angle_beta 158.940926
_cell_angle_gamma 90.000000
_cell_volume 3587.223008
_symmetry_space_group_name_H-M "C 2/C"
_symmetry_group_IT_number 15
_symmetry_cell_setting 'monoclinic'
loop_
_space_group_symop_operation_xyz
x,y,z
-x,y,1/2-z
-x,-y,-z
x,-y,1/2+z
1/2+x,1/2+y,z
1/2-x,1/2+y,1/2-z
1/2-x,1/2-y,-z
1/2+x,1/2-y,1/2+z
loop_
_atom_site_type_symbol
_atom_site_label
_atom_site_fract_x
_atom_site_fract_y
_atom_site_fract_z
Si Si1 0.047167 0.969088 0.948427
Si Si2 0.780030 0.595879 0.289386
Si Si3 0.211527 0.438852 0.257481
Si Si4 0.462945 0.189693 0.533032
Si Si5 0.500000 0.234426 0.750000
Si Si6 0.185211 0.231391 0.134512
Si Si7 0.072191 0.139065 0.646843
Si Si8 0.843869 0.183499 0.017218
O O1 0.098055 0.904723 0.949265
O O2 0.901289 0.929381 0.855437
O O3 0.191761 0.976541 0.112342
O O4 0.987766 0.056304 0.878611
O O5 0.858184 0.512553 0.336306
O O6 0.844085 0.636192 0.396699
O O7 0.787783 0.662345 0.250701
O O8 0.336580 0.391251 0.327629
O O9 0.080310 0.373609 0.161496
O O10 0.568683 0.236633 0.580662
O O11 0.384048 0.252873 0.504964
O O12 0.344056 0.185298 0.633548
O O13 0.561964 0.287075 0.851494
O O14 0.298809 0.304794 0.214921
O O15 0.076862 0.192271 0.998008
#
# Coordination Sequence:
#
# PCOD9261371 Si02
#       8
#     8   8   8   8   4   8   8   8
#     4  11  19  32  50  68  94 133 174 198 245 298
#     4  11  18  29  42  68 105 135 171 206 223 266
#     4  10  19  29  44  69 100 136 177 202 226 266
#     4  11  21  29  49  70  96 142 174 196 235 298
#     4  10  24  38  54  74  94 124 158 228 272 298
#     4  11  18  29  45  68 102 139 170 190 230 267
#     4  10  19  30  44  67  98 137 167 201 225 274
#     4  11  21  37  54  72  97 126 169 210 261 309
#
# _framework density 16.726030000000002
#
# number of rings (size 3 to 8) (size 9 to 14) (size 15 to 20)
#    0.000    1.333    5.333    2.800    1.867    0.000 
#    0.000    0.000    0.000    0.000    0.000    0.000 
#    0.000    3.200    0.000    0.000    0.000    0.000 
#
# Total GULP energy -167357.819133 kJ/mol
# GULP energy per Si atom -5578.593971 kJ/mol
# Density = 1.668796 g / cm^3
# Si number density = 16.726030 Si / 1000 Ang^3
#
#
#
# Elastic Constant Matrix: (Units=GPa)
#
#
# Indices 1 2 3 4 5 6 
#
# 1 35.4702 29.6826 11.9001 0.0099 6.9570 0.0120
# 2 29.6826 121.7377 40.7466 0.0427 10.6565 0.0434
# 3 11.9001 40.7466 56.4648 -0.0050 5.7186 -0.0041
# 4 0.0099 0.0427 -0.0050 91.8033 0.0161 73.4553
# 5 6.9570 10.6565 5.7186 0.0161 18.3901 0.0180
# 6 0.0120 0.0434 -0.0041 73.4553 0.0180 94.0158
#
#
#
# Elastic Compliance Matrix: (Units=1/GPa)
#
#
# Indices 1 2 3 4 5 6 
#
# 1 0.036905 -0.007791 -0.001238 0.000002 -0.009062 -0.000001
# 2 -0.007791 0.012763 -0.007349 -0.000003 -0.002163 -0.000002
# 3 -0.001238 -0.007349 0.023537 0.000003 -0.002592 0.000002
# 4 0.000002 -0.000003 0.000003 0.029060 -0.000003 -0.022704
# 5 -0.009062 -0.002163 -0.002592 -0.000003 0.059865 -0.000007
# 6 -0.000001 -0.000002 0.000002 -0.022704 -0.000007 0.028376
#
#
# Mechanical properties :
#
#
# Convention : Reuss Voigt Hill
#
# Bulk Modulus (GPa) = 24.72242 42.03681 33.37961
# Shear Modulus (GPa) = 21.11985 49.59808 35.35897
#
# Velocity S-wave (km/s) = 3.55730 5.45139 4.60282
# Velocity P-wave (km/s) = 5.62897 8.05050 6.94608
#
# Compressibility (1/GPa) = 0.04044912
#
# Stress axis : x y z
#
# Youngs Moduli (GPa) = 27.09663 78.35041 42.48624
#
# Poissons Ratio (x) = 0.61041 0.05260
# Poissons Ratio (y) = 0.21110 0.31224
# Poissons Ratio (z) = 0.03355 0.57582
#
# Static dielectric constant tensor:
#      x y z
#    x 1.529800 0.000000 -0.003520 
#    y 0.000000 1.601500 -0.000010 
#    z -0.003520 -0.000010 1.610520 
# 
# From -- ./inp_files/56590.got.cif
#   From: 2010.05.17/outbox.cif.g08.bks.cpg/sg15_29_cif.got.tgz:56590.got - 2010.06.03 18:47:42.
