data_PCOD9261269
_publ_section_title
;
Structure prediction by ZEFSAII (Michael W. Deem and Ramdas Pophale) SiO2 
 PCOD9261269
Probable space group: C 2/C
;
_chemical_formula_sum "Si O2"
_cell_formula_units_Z 44
_cell_length_a 12.380800
_cell_length_b 15.338752
_cell_length_c 17.941707
_cell_angle_alpha 90.000000
_cell_angle_beta 40.468567
_cell_angle_gamma 90.000000
_cell_volume 2211.402471
_symmetry_space_group_name_H-M "C 2/C"
_symmetry_group_IT_number 15
_symmetry_cell_setting 'monoclinic'
loop_
_space_group_symop_operation_xyz
x,y,z
-x,y,1/2-z
-x,-y,-z
x,-y,1/2+z
1/2+x,1/2+y,z
1/2-x,1/2+y,1/2-z
1/2-x,1/2-y,-z
1/2+x,1/2-y,1/2+z
loop_
_atom_site_type_symbol
_atom_site_label
_atom_site_fract_x
_atom_site_fract_y
_atom_site_fract_z
Si Si1 0.742453 0.639117 0.809319
Si Si2 0.156303 0.647443 0.093868
Si Si3 0.024908 0.077036 0.047860
Si Si4 0.952620 0.065638 0.859944
Si Si5 0.000000 0.517970 0.750000
Si Si6 0.714430 0.195714 0.225966
O O1 0.617829 0.591808 0.817924
O O2 0.776332 0.728513 0.748089
O O3 0.900222 0.579400 0.745843
O O4 0.642294 0.644332 0.941031
O O5 0.202364 0.706616 0.141760
O O6 0.122402 0.550700 0.145796
O O7 0.978794 0.675210 0.153266
O O8 0.309453 0.633971 0.958486
O O9 0.848390 0.118667 0.161123
O O10 0.095963 0.029907 0.083532
O O11 0.000000 0.000000 0.000000
O O12 0.000000 0.066550 0.750000
#
# Coordination Sequence:
#
# PCOD9261269 Si02
#       6
#     8   8   8   8   4   8
#     4  11  22  38  64  95 130 168 211 271 339 373
#     4  10  19  40  67  95 126 169 221 267 322 392
#     4  10  18  43  62  85 131 179 212 253 323 399
#     4  11  22  38  68  96 126 172 223 267 317 395
#     4  10  20  42  70  88 122 186 222 254 318 402
#     4  10  21  35  66  98 128 161 213 275 333 381
#
# _framework density 19.896875000000001
#
# number of rings (size 3 to 8) (size 9 to 14) (size 15 to 20)
#    0.000    1.818    5.455    3.273    2.545    2.182 
#    1.636    6.364    0.000    0.000    0.000    0.000 
#    0.000    0.000    0.000    0.000    0.000    0.000 
#
# Total GULP energy -122582.934367 kJ/mol
# GULP energy per Si atom -5571.951562 kJ/mol
# Density = 1.985159 g / cm^3
# Si number density = 19.896875 Si / 1000 Ang^3
#
#
#
# Elastic Constant Matrix: (Units=GPa)
#
#
# Indices 1 2 3 4 5 6 
#
# 1 63.3701 33.0563 52.6545 -0.0002 7.8411 0.0000
# 2 33.0563 95.1497 42.0074 -0.0003 2.7939 0.0000
# 3 52.6545 42.0074 113.2928 -0.0006 22.1834 0.0001
# 4 -0.0002 -0.0003 -0.0006 11.9089 0.0003 1.0589
# 5 7.8411 2.7939 22.1834 0.0003 26.1202 0.0000
# 6 0.0000 0.0000 0.0001 1.0589 0.0000 37.9466
#
#
#
# Elastic Compliance Matrix: (Units=1/GPa)
#
#
# Indices 1 2 3 4 5 6 
#
# 1 0.027408 -0.004526 -0.011448 0.000000 0.001979 0.000000
# 2 -0.004526 0.013532 -0.003474 0.000000 0.002862 0.000000
# 3 -0.011448 -0.003474 0.017620 0.000001 -0.011156 0.000000
# 4 0.000000 0.000000 0.000001 0.084180 -0.000001 -0.002349
# 5 0.001979 0.002862 -0.011156 -0.000001 0.046859 0.000000
# 6 0.000000 0.000000 0.000000 -0.002349 0.000000 0.026418
#
#
# Mechanical properties :
#
#
# Convention : Reuss Voigt Hill
#
# Bulk Modulus (GPa) = 50.85420 58.58321 54.71871
# Shear Modulus (GPa) = 19.12278 24.80143 21.96211
#
# Velocity S-wave (km/s) = 3.10352 3.53441 3.32595
# Velocity P-wave (km/s) = 6.20135 6.79437 6.50462
#
# Compressibility (1/GPa) = 0.01966406
#
# Stress axis : x y z
#
# Youngs Moduli (GPa) = 36.48517 73.89887 56.75438
#
# Poissons Ratio (x) = 0.33448 0.64970
# Poissons Ratio (y) = 0.16514 0.19718
# Poissons Ratio (z) = 0.41767 0.25674
#
# Static dielectric constant tensor:
#      x y z
#    x 1.707670 0.000000 -0.010550 
#    y 0.000000 1.827910 0.000000 
#    z -0.010550 0.000000 1.790700 
# 
# From -- ./inp_files/199409.got.cif
#   From: 2010.05.17/outbox.cif.g08.bks.cpg/sg15_100_cif.got.tgz:199409.got - 2010.06.03 18:47:42.
