data_PCOD9261735
_publ_section_title
;
Structure prediction by ZEFSAII (Michael W. Deem and Ramdas Pophale) SiO2 
 PCOD9261735
Probable space group: C 2/C
;
_chemical_formula_sum "Si O2"
_cell_formula_units_Z 52
_cell_length_a 21.485154
_cell_length_b 28.150529
_cell_length_c 14.873312
_cell_angle_alpha 90.000000
_cell_angle_beta 163.107176
_cell_angle_gamma 90.000000
_cell_volume 2613.978188
_symmetry_space_group_name_H-M "C 2/C"
_symmetry_group_IT_number 15
_symmetry_cell_setting 'monoclinic'
loop_
_space_group_symop_operation_xyz
x,y,z
-x,y,1/2-z
-x,-y,-z
x,-y,1/2+z
1/2+x,1/2+y,z
1/2-x,1/2+y,1/2-z
1/2-x,1/2-y,-z
1/2+x,1/2-y,1/2+z
loop_
_atom_site_type_symbol
_atom_site_label
_atom_site_fract_x
_atom_site_fract_y
_atom_site_fract_z
Si Si1 0.183003 0.539334 0.246706
Si Si2 0.689648 0.290814 0.344850
Si Si3 0.000000 0.970537 0.750000
Si Si4 0.919804 0.681291 0.832386
Si Si5 0.404941 0.914599 0.218550
Si Si6 0.257865 0.745209 0.776330
Si Si7 0.750901 0.133729 0.432669
O O1 0.392654 0.507207 0.531418
O O2 0.196079 0.577915 0.345482
O O3 0.000000 0.500000 0.000000
O O4 0.109850 0.569910 0.061403
O O5 0.750000 0.250000 0.500000
O O6 0.784662 0.279076 0.379267
O O7 0.757543 0.340557 0.482553
O O8 0.435731 0.282814 0.978852
O O9 0.809031 0.942156 0.538560
O O10 0.858627 0.639760 0.680790
O O11 0.741385 0.704494 0.648490
O O12 0.028674 0.724598 0.931447
O O13 0.096772 0.661666 0.149805
O O14 0.500000 0.920751 0.250000
O O15 0.000000 0.139272 0.750000
#
# Coordination Sequence:
#
# PCOD9261735 Si02
#       7
#     8   8   4   8   8   8   8
#     4   9  20  38  66  93 123 158 203 267 325 386
#     4  11  17  27  49  82 123 163 198 240 314 382
#     4  10  20  44  74  92 124 160 196 280 340 380
#     4  10  21  35  54  85 120 165 208 252 308 369
#     4  10  23  44  67  92 126 164 219 264 314 385
#     4  10  19  31  51  79 127 164 197 254 307 366
#     4  11  17  28  54  86 122 159 194 246 320 381
#
# _framework density 19.893049999999999
#
# number of rings (size 3 to 8) (size 9 to 14) (size 15 to 20)
#    0.000    1.846    5.385    0.462    0.000    0.615 
#    5.538    0.769   33.846    0.000    0.000    0.000 
#    0.000    0.000    0.000    0.000    0.000    0.000 
#
# Total GULP energy -144763.092706 kJ/mol
# GULP energy per Si atom -5567.811258 kJ/mol
# Density = 1.984777 g / cm^3
# Si number density = 19.893050 Si / 1000 Ang^3
#
#
#
# Elastic Constant Matrix: (Units=GPa)
#
#
# Indices 1 2 3 4 5 6 
#
# 1 100.6125 56.6241 30.7113 -0.0002 14.0870 0.0000
# 2 56.6241 128.5576 29.7431 -0.0001 4.7427 -0.0001
# 3 30.7113 29.7431 51.2912 -0.0009 7.9586 0.0000
# 4 -0.0002 -0.0001 -0.0009 28.4859 -0.0003 1.5037
# 5 14.0870 4.7427 7.9586 -0.0003 19.2496 0.0000
# 6 0.0000 -0.0001 0.0000 1.5037 0.0000 12.3451
#
#
#
# Elastic Compliance Matrix: (Units=1/GPa)
#
#
# Indices 1 2 3 4 5 6 
#
# 1 0.015647 -0.005447 -0.004960 0.000000 -0.008058 0.000000
# 2 -0.005447 0.010880 -0.003473 0.000000 0.002741 0.000000
# 3 -0.004960 -0.003473 0.025415 0.000001 -0.006022 0.000000
# 4 0.000000 0.000000 0.000001 0.035332 0.000000 -0.004304
# 5 -0.008058 0.002741 -0.006022 0.000000 0.059660 0.000000
# 6 0.000000 0.000000 0.000000 -0.004304 0.000000 0.081528
#
#
# Mechanical properties :
#
#
# Convention : Reuss Voigt Hill
#
# Bulk Modulus (GPa) = 41.35340 57.17981 49.26661
# Shear Modulus (GPa) = 18.91911 22.90831 20.91371
#
# Velocity S-wave (km/s) = 3.08724 3.39717 3.24590
# Velocity P-wave (km/s) = 5.79147 6.64783 6.23437
#
# Compressibility (1/GPa) = 0.02418181
#
# Stress axis : x y z
#
# Youngs Moduli (GPa) = 63.91084 91.91006 39.34715
#
# Poissons Ratio (x) = 0.50063 0.19515
# Poissons Ratio (y) = 0.34812 0.13666
# Poissons Ratio (z) = 0.31698 0.31923
#
# Static dielectric constant tensor:
#      x y z
#    x 1.722300 0.000000 -0.004890 
#    y 0.000000 1.741700 0.000000 
#    z -0.004890 0.000000 1.784390 
# 
# From -- ./inp_files/169886.got.cif
#   From: 2010.05.17/outbox.cif.g08.bks.cpg/sg15_85_cif.got.tgz:169886.got - 2010.06.03 18:47:42.
