data_PCOD9261429
_publ_section_title
;
Structure prediction by ZEFSAII (Michael W. Deem and Ramdas Pophale) SiO2 
 PCOD9261429
Probable space group: C 2/C
;
_chemical_formula_sum "Si O2"
_cell_formula_units_Z 64
_cell_length_a 9.625605
_cell_length_b 12.324350
_cell_length_c 22.415237
_cell_angle_alpha 90.000000
_cell_angle_beta 113.003923
_cell_angle_gamma 90.000000
_cell_volume 2447.647393
_symmetry_space_group_name_H-M "C 2/C"
_symmetry_group_IT_number 15
_symmetry_cell_setting 'monoclinic'
loop_
_space_group_symop_operation_xyz
x,y,z
-x,y,1/2-z
-x,-y,-z
x,-y,1/2+z
1/2+x,1/2+y,z
1/2-x,1/2+y,1/2-z
1/2-x,1/2-y,-z
1/2+x,1/2-y,1/2+z
loop_
_atom_site_type_symbol
_atom_site_label
_atom_site_fract_x
_atom_site_fract_y
_atom_site_fract_z
Si Si1 0.378366 0.240428 0.660975
Si Si2 0.669008 0.831637 0.938704
Si Si3 0.891699 0.771708 0.891048
Si Si4 0.166695 0.453677 0.262941
Si Si5 0.713690 0.415355 0.038735
Si Si6 0.058413 0.621986 0.013427
Si Si7 0.537182 0.509035 0.608531
Si Si8 0.850468 0.010580 0.184294
O O1 0.550336 0.248093 0.665174
O O2 0.330434 0.362309 0.667424
O O3 0.345628 0.166361 0.712089
O O4 0.301083 0.170368 0.595764
O O5 0.719082 0.788608 0.882126
O O6 0.726716 0.958174 0.949381
O O7 0.750000 0.750000 0.000000
O O8 0.495595 0.835518 0.931194
O O9 0.961608 0.686931 0.948569
O O10 0.974259 0.886621 0.916584
O O11 0.309377 0.497213 0.325689
O O12 0.213769 0.466944 0.201657
O O13 0.000000 0.502055 0.250000
O O14 0.561338 0.420585 0.053469
O O15 0.772734 0.378213 0.983463
O O16 0.000000 0.500000 0.000000
O O17 0.399830 0.540507 0.628914
O O18 0.000000 0.998233 0.250000
#
# Coordination Sequence:
#
# PCOD9261429 Si02
#       8
#     8   8   8   8   8   8   8   8
#     4   9  16  27  43  59  80 115 147 176 218 269
#     4   8  12  18  30  53  86 120 142 170 214 261
#     4   8  13  22  37  55  79 119 151 169 206 273
#     4  10  19  30  44  63  83 105 141 191 232 262
#     4   8  13  21  34  55  81 116 147 172 210 262
#     4   8  12  17  29  54  88 119 140 171 217 259
#     4   8  15  27  42  57  79 114 147 174 213 268
#     4   9  17  30  45  60  79 108 146 179 218 274
#
# _framework density 26.147556000000002
#
# number of rings (size 3 to 8) (size 9 to 14) (size 15 to 20)
#    0.000    3.500    0.000    0.375    0.000    0.000 
#    0.000    3.125    0.000    0.000    0.000    0.000 
#    0.000    0.000    0.000 1930.500    0.000    1.250 
#
# Total GULP energy -178345.160255 kJ/mol
# GULP energy per Si atom -5573.286258 kJ/mol
# Density = 2.608804 g / cm^3
# Si number density = 26.147556 Si / 1000 Ang^3
#
#
#
# Elastic Constant Matrix: (Units=GPa)
#
#
# Indices 1 2 3 4 5 6 
#
# 1 196.1901 61.0611 102.9267 0.0000 -75.9147 0.0000
# 2 61.0611 120.5699 23.6152 0.0000 -35.6894 0.0000
# 3 102.9267 23.6152 104.6160 0.0000 -57.0078 0.0000
# 4 0.0000 0.0000 0.0000 34.0119 0.0000 -16.7377
# 5 -75.9147 -35.6894 -57.0078 0.0000 73.4510 0.0000
# 6 0.0000 0.0000 0.0000 -16.7377 0.0000 32.5227
#
#
#
# Elastic Compliance Matrix: (Units=1/GPa)
#
#
# Indices 1 2 3 4 5 6 
#
# 1 0.012741 -0.003360 -0.009515 0.000000 0.004151 0.000000
# 2 -0.003360 0.010599 0.003166 0.000000 0.004135 0.000000
# 3 -0.009515 0.003166 0.023714 0.000000 0.010110 0.000000
# 4 0.000000 0.000000 0.000000 0.039373 0.000000 0.020263
# 5 0.004151 0.004135 0.010110 0.000000 0.027761 0.000000
# 6 0.000000 0.000000 0.000000 0.020263 0.000000 0.041176
#
#
# Mechanical properties :
#
#
# Convention : Reuss Voigt Hill
#
# Bulk Modulus (GPa) = 36.18222 88.50912 62.34567
# Shear Modulus (GPa) = 27.17492 43.58199 35.37846
#
# Velocity S-wave (km/s) = 3.22730 4.08704 3.68235
# Velocity P-wave (km/s) = 5.26831 7.49635 6.47882
#
# Compressibility (1/GPa) = 0.02763788
#
# Stress axis : x y z
#
# Youngs Moduli (GPa) = 78.48957 94.34485 42.16878
#
# Poissons Ratio (x) = 0.31701 0.40122
# Poissons Ratio (y) = 0.26373 -0.13353
# Poissons Ratio (z) = 0.74679 -0.29874
#
# Static dielectric constant tensor:
#      x y z
#    x 2.188420 0.000000 0.090230 
#    y 0.000000 2.093830 0.000000 
#    z 0.090230 0.000000 2.176600 
# 
# From -- ./inp_files/307787.got.cif
#   From: 2010.05.17/outbox.cif.g08.bks.cpg/sg15_154_cif.got.tgz:307787.got - 2010.06.03 18:47:42.
