data_PCOD9261157
_publ_section_title
;
Structure prediction by ZEFSAII (Michael W. Deem and Ramdas Pophale) SiO2 
 PCOD9261157
Probable space group: C 2/C
;
_chemical_formula_sum "Si O2"
_cell_formula_units_Z 44
_cell_length_a 22.667214
_cell_length_b 21.003127
_cell_length_c 11.268960
_cell_angle_alpha 90.000000
_cell_angle_beta 20.231346
_cell_angle_gamma 90.000000
_cell_volume 1855.262999
_symmetry_space_group_name_H-M "C 2/C"
_symmetry_group_IT_number 15
_symmetry_cell_setting 'monoclinic'
loop_
_space_group_symop_operation_xyz
x,y,z
-x,y,1/2-z
-x,-y,-z
x,-y,1/2+z
1/2+x,1/2+y,z
1/2-x,1/2+y,1/2-z
1/2-x,1/2-y,-z
1/2+x,1/2-y,1/2+z
loop_
_atom_site_type_symbol
_atom_site_label
_atom_site_fract_x
_atom_site_fract_y
_atom_site_fract_z
Si Si1 0.744961 0.258933 0.842813
Si Si2 0.000000 0.869093 0.250000
Si Si3 0.649151 0.480770 0.807546
Si Si4 0.000000 0.356920 0.750000
Si Si5 0.102032 0.717844 0.706703
Si Si6 0.312412 0.904993 0.321933
Si Si7 0.500000 0.582201 0.250000
O O1 0.834417 0.271994 0.546622
O O2 0.915905 0.257093 0.597653
O O3 0.623120 0.320048 0.087924
O O4 0.645778 0.192669 0.018944
O O5 0.898688 0.916250 0.530115
O O6 0.795799 0.467249 0.434982
O O7 0.500000 0.500000 0.000000
O O8 0.639168 0.537093 0.921741
O O9 0.061912 0.399600 0.525211
O O10 0.250000 0.750000 0.500000
O O11 0.115324 0.645441 0.720830
O O12 0.123276 0.886780 0.619082
#
# Coordination Sequence:
#
# PCOD9261157 Si02
#       7
#     8   4   8   4   8   8   4
#     4  10  23  40  60  97 131 169 215 258 318 402
#     4  10  18  40  68  90 122 166 216 264 322 392
#     4   9  19  40  68  93 120 165 219 268 328 383
#     4  11  24  39  60  98 138 167 214 263 314 400
#     4  11  22  40  64  89 131 174 210 260 319 386
#     4  11  22  41  63  95 125 170 215 261 329 375
#     4   9  22  41  74  92 124 167 220 275 320 396
#
# _framework density 23.716314000000001
#
# number of rings (size 3 to 8) (size 9 to 14) (size 15 to 20)
#    0.000    1.818    3.636    0.000    2.545    0.727 
#    6.545    0.909    8.000    0.000    0.000    0.000 
#    0.000    0.000    0.000    0.000    0.000    0.000 
#
# Total GULP energy -122648.899085 kJ/mol
# GULP energy per Si atom -5574.949958 kJ/mol
# Density = 2.366233 g / cm^3
# Si number density = 23.716314 Si / 1000 Ang^3
#
#
#
# Elastic Constant Matrix: (Units=GPa)
#
#
# Indices 1 2 3 4 5 6 
#
# 1 60.3554 21.5690 30.2685 0.0025 9.8463 0.0014
# 2 21.5690 62.0511 38.1019 -0.0065 8.8539 0.0006
# 3 30.2685 38.1019 113.8697 -0.0137 4.4590 -0.0048
# 4 0.0025 -0.0065 -0.0137 13.4192 -0.0011 21.5628
# 5 9.8463 8.8539 4.4590 -0.0011 57.9942 0.0021
# 6 0.0014 0.0006 -0.0048 21.5628 0.0021 5.5025
#
#
#
# Elastic Compliance Matrix: (Units=1/GPa)
#
#
# Indices 1 2 3 4 5 6 
#
# 1 0.020491 -0.004380 -0.003883 0.000000 -0.002512 -0.000006
# 2 -0.004380 0.021613 -0.005985 -0.000003 -0.002096 0.000005
# 3 -0.003883 -0.005985 0.011791 0.000002 0.000666 0.000005
# 4 0.000000 -0.000003 0.000002 -0.014069 -0.000002 0.055131
# 5 -0.002512 -0.002096 0.000666 -0.000002 0.017938 0.000002
# 6 -0.000006 0.000005 0.000005 0.055131 0.000002 -0.034310
#
#
# Mechanical properties :
#
#
# Convention : Reuss Voigt Hill
#
# Bulk Modulus (GPa) = 39.37381 46.23945 42.80663
# Shear Modulus (GPa) = 82.75911 25.13896 53.94904
#
# Velocity S-wave (km/s) = 5.91364 3.25927 4.77462
# Velocity P-wave (km/s) = 7.95401 5.80543 6.96309
#
# Compressibility (1/GPa) = 0.02539759
#
# Stress axis : x y z
#
# Youngs Moduli (GPa) = 48.80233 46.26940 84.81195
#
# Poissons Ratio (x) = 0.20266 0.32931
# Poissons Ratio (y) = 0.21375 0.50764
# Poissons Ratio (z) = 0.18949 0.27694
#
# Static dielectric constant tensor:
#      x y z
#    x 2.225110 -0.006090 0.066270 
#    y -0.006090 -2.284870 -0.002300 
#    z 0.066270 -0.002300 1.914610 
# 
# From -- ./inp_files/120203.got.cif
#   From: 2010.05.17/outbox.cif.g08.bks.cpg/sg15_61_cif.got.tgz:120203.got - 2010.06.03 18:47:42.
