data_PCOD9261372
_publ_section_title
;
Structure prediction by ZEFSAII (Michael W. Deem and Ramdas Pophale) SiO2 
 PCOD9261372
Probable space group: C 2/C
;
_chemical_formula_sum "Si O2"
_cell_formula_units_Z 48
_cell_length_a 9.733093
_cell_length_b 16.922068
_cell_length_c 10.599860
_cell_angle_alpha 90.000000
_cell_angle_beta 95.249419
_cell_angle_gamma 90.000000
_cell_volume 1738.517689
_symmetry_space_group_name_H-M "C 2/C"
_symmetry_group_IT_number 15
_symmetry_cell_setting 'monoclinic'
loop_
_space_group_symop_operation_xyz
x,y,z
-x,y,1/2-z
-x,-y,-z
x,-y,1/2+z
1/2+x,1/2+y,z
1/2-x,1/2+y,1/2-z
1/2-x,1/2-y,-z
1/2+x,1/2-y,1/2+z
loop_
_atom_site_type_symbol
_atom_site_label
_atom_site_fract_x
_atom_site_fract_y
_atom_site_fract_z
Si Si1 0.859798 0.096061 0.362478
Si Si2 0.329949 0.932883 0.406568
Si Si3 0.690086 0.100831 0.086744
Si Si4 0.388063 0.743166 0.831641
Si Si5 0.148436 0.264375 0.112581
Si Si6 0.868483 0.071897 0.854586
O O1 0.751987 0.082789 0.468861
O O2 0.778733 0.102182 0.223483
O O3 0.932089 0.181434 0.383086
O O4 0.942333 0.013354 0.369537
O O5 0.415735 0.851894 0.397591
O O6 0.219997 0.932253 0.281625
O O7 0.398018 0.019833 0.403522
O O8 0.636799 0.190260 0.068006
O O9 0.773567 0.081574 0.968437
O O10 0.500000 0.783047 0.750000
O O11 0.248717 0.731992 0.741822
O O12 0.445887 0.655882 0.864772
O O13 0.250000 0.250000 0.000000
#
# Coordination Sequence:
#
# PCOD9261372 Si02
#       6
#     8   8   8   8   8   8
#     4   8  14  25  45  69  88 113 155 193 220 259
#     4   8  14  25  45  69  88 113 155 193 220 259
#     4   9  16  27  45  69  92 119 157 193 222 269
#     4  10  19  29  44  71 101 122 145 192 250 281
#     4   8  14  27  48  67  84 118 161 188 211 269
#     4   9  16  27  45  69  92 119 157 193 222 269
#
# _framework density 27.609728
#
# number of rings (size 3 to 8) (size 9 to 14) (size 15 to 20)
#    0.000    3.333    0.000    0.500    0.000    0.000 
#    0.000    0.000    0.000   72.000    0.000   54.833 
#    0.000    0.000    0.000    0.000    0.000    0.000 
#
# Total GULP energy -133895.936809 kJ/mol
# GULP energy per Si atom -5578.997367 kJ/mol
# Density = 2.754689 g / cm^3
# Si number density = 27.609728 Si / 1000 Ang^3
#
#
#
# Elastic Constant Matrix: (Units=GPa)
#
#
# Indices 1 2 3 4 5 6 
#
# 1 32.1021 3.8568 22.4743 0.0000 26.8383 0.0000
# 2 3.8568 347.7839 -2.3676 0.0000 -27.6015 0.0000
# 3 22.4743 -2.3676 130.0703 0.0000 12.2939 0.0000
# 4 0.0000 0.0000 0.0000 34.4937 0.0000 -9.1652
# 5 26.8383 -27.6015 12.2939 0.0000 38.1209 0.0000
# 6 0.0000 0.0000 0.0000 -9.1652 0.0000 -35.3161
#
#
#
# Elastic Compliance Matrix: (Units=1/GPa)
#
#
# Indices 1 2 3 4 5 6 
#
# 1 0.098651 -0.006800 -0.010458 0.000000 -0.071004 0.000000
# 2 -0.006800 0.003523 0.000563 0.000000 0.007157 0.000000
# 3 -0.010458 0.000563 0.009047 0.000000 0.004853 0.000000
# 4 0.000000 0.000000 0.000000 0.027121 0.000000 -0.007038
# 5 -0.071004 0.007157 0.004853 0.000000 0.079838 0.000000
# 6 0.000000 0.000000 0.000000 -0.007038 0.000000 -0.026489
#
#
# Mechanical properties :
#
#
# Convention : Reuss Voigt Hill
#
# Bulk Modulus (GPa) = 12.84874 61.98704 37.41789
# Shear Modulus (GPa) = 19.91834 39.85921 29.88878
#
# Velocity S-wave (km/s) = 2.68885 3.80368 3.29377
# Velocity P-wave (km/s) = 3.78202 6.46456 5.29595
#
# Compressibility (1/GPa) = 0.07782867
#
# Stress axis : x y z
#
# Youngs Moduli (GPa) = 10.13674 283.88270 110.53696
#
# Poissons Ratio (x) = 1.93052 1.15601
# Poissons Ratio (y) = 0.06893 -0.06220
# Poissons Ratio (z) = 0.10601 -0.15974
#
# Static dielectric constant tensor:
#      x y z
#    x 2.038210 0.000000 -0.002210 
#    y 0.000000 2.245900 0.000000 
#    z -0.002210 0.000000 2.138460 
# 
# From -- ./inp_files/97752.got.cif
#   From: 2010.05.17/outbox.cif.g08.bks.cpg/sg15_49_cif.got.tgz:97752.got - 2010.06.03 18:47:42.
