data_PCOD9261611
_publ_section_title
;
Structure prediction by ZEFSAII (Michael W. Deem and Ramdas Pophale) SiO2 
 PCOD9261611
Probable space group: C 2/C
;
_chemical_formula_sum "Si O2"
_cell_formula_units_Z 60
_cell_length_a 24.309946
_cell_length_b 5.436943
_cell_length_c 22.019065
_cell_angle_alpha 90.000000
_cell_angle_beta 128.101042
_cell_angle_gamma 90.000000
_cell_volume 2290.183747
_symmetry_space_group_name_H-M "C 2/C"
_symmetry_group_IT_number 15
_symmetry_cell_setting 'monoclinic'
loop_
_space_group_symop_operation_xyz
x,y,z
-x,y,1/2-z
-x,-y,-z
x,-y,1/2+z
1/2+x,1/2+y,z
1/2-x,1/2+y,1/2-z
1/2-x,1/2-y,-z
1/2+x,1/2-y,1/2+z
loop_
_atom_site_type_symbol
_atom_site_label
_atom_site_fract_x
_atom_site_fract_y
_atom_site_fract_z
Si Si1 0.784200 0.390913 0.797815
Si Si2 0.308753 0.666706 0.156977
Si Si3 0.373809 0.853142 0.095134
Si Si4 0.500000 0.354751 0.750000
Si Si5 0.971866 0.253138 0.631194
Si Si6 0.936630 0.238048 0.467061
Si Si7 0.122571 0.339177 0.746016
Si Si8 0.912412 0.249702 0.983965
O O1 0.765750 0.673304 0.765938
O O2 0.762927 0.369577 0.854644
O O3 0.853465 0.320811 0.807133
O O4 0.309293 0.721168 0.084920
O O5 0.353879 0.419244 0.205237
O O6 0.335017 0.932400 0.198498
O O7 0.432389 0.795332 0.185995
O O8 0.389218 0.747464 0.038342
O O9 0.396239 0.139663 0.099839
O O10 0.496773 0.528096 0.688745
O O11 0.040832 0.416452 0.689263
O O12 0.967290 0.217690 0.556518
O O13 0.895560 0.490199 0.441789
O O14 0.001881 0.248203 0.465904
O O15 0.890501 0.994364 0.433185
#
# Coordination Sequence:
#
# PCOD9261611 Si02
#       8
#     8   8   8   4   8   8   8   8
#     4   8  16  30  46  60  83 118 157 190 212 258
#     4  10  19  31  45  65  91 122 154 184 224 271
#     4  11  21  29  43  66  97 125 147 184 225 282
#     4  12  18  28  38  66  96 120 142 166 228 280
#     4  11  21  29  43  66  97 125 147 184 225 282
#     4   9  18  32  46  60  83 119 158 189 216 258
#     4  10  19  31  45  65  91 122 154 184 224 271
#     4   9  18  32  46  60  83 119 158 189 216 258
#
# _framework density 26.19877
#
# number of rings (size 3 to 8) (size 9 to 14) (size 15 to 20)
#    0.000    2.133    2.667    2.000    0.000    0.000 
#    0.000    0.000    0.000    0.000    0.000    0.933 
#    0.000    0.000    0.000   43.467    0.000    0.000 
#
# Total GULP energy -167047.304698 kJ/mol
# GULP energy per Si atom -5568.243490 kJ/mol
# Density = 2.613914 g / cm^3
# Si number density = 26.198770 Si / 1000 Ang^3
#
#
#
# Elastic Constant Matrix: (Units=GPa)
#
#
# Indices 1 2 3 4 5 6 
#
# 1 124.5386 27.3624 35.1382 0.0004 -52.3290 0.0000
# 2 27.3624 172.2539 40.6688 0.0034 -13.5132 0.0080
# 3 35.1382 40.6688 130.9149 0.0019 -39.9442 0.0000
# 4 0.0004 0.0034 0.0019 30.7502 -0.0005 -13.4462
# 5 -52.3290 -13.5132 -39.9442 -0.0005 52.2624 0.0009
# 6 0.0000 0.0080 0.0000 -13.4462 0.0009 29.6399
#
#
#
# Elastic Compliance Matrix: (Units=1/GPa)
#
#
# Indices 1 2 3 4 5 6 
#
# 1 0.014196 -0.001361 0.001098 0.000000 0.014702 0.000000
# 2 -0.001361 0.006397 -0.001999 -0.000002 -0.001237 -0.000002
# 3 0.001098 -0.001999 0.010619 0.000000 0.008699 0.000000
# 4 0.000000 -0.000002 0.000000 0.040567 0.000000 0.018403
# 5 0.014702 -0.001237 0.008699 0.000000 0.040183 -0.000001
# 6 0.000000 -0.000002 0.000000 0.018403 -0.000001 0.042087
#
#
# Mechanical properties :
#
#
# Convention : Reuss Voigt Hill
#
# Bulk Modulus (GPa) = 37.47024 70.44959 53.95992
# Shear Modulus (GPa) = 29.85618 44.16636 37.01127
#
# Velocity S-wave (km/s) = 3.37946 4.11033 3.76268
# Velocity P-wave (km/s) = 5.43701 7.03386 6.28634
#
# Compressibility (1/GPa) = 0.02668784
#
# Stress axis : x y z
#
# Youngs Moduli (GPa) = 70.44125 156.33427 94.17117
#
# Poissons Ratio (x) = 0.21277 -0.10342
# Poissons Ratio (y) = 0.09587 0.18826
# Poissons Ratio (z) = -0.07736 0.31254
#
# Static dielectric constant tensor:
#      x y z
#    x 2.551420 0.000000 -0.016000 
#    y 0.000000 2.260410 0.000000 
#    z -0.016000 0.000000 2.164980 
# 
# From -- ./inp_files/256585.got.cif
#   From: 2010.05.17/outbox.cif.g08.bks.cpg/sg15_129_cif.got.tgz:256585.got - 2010.06.03 18:47:42.
