data_PCOD9261503
_publ_section_title
;
Structure prediction by ZEFSAII (Michael W. Deem and Ramdas Pophale) SiO2 
 PCOD9261503
Probable space group: C 2/C
;
_chemical_formula_sum "Si O2"
_cell_formula_units_Z 44
_cell_length_a 11.001585
_cell_length_b 23.367016
_cell_length_c 10.244173
_cell_angle_alpha 90.000000
_cell_angle_beta 44.544124
_cell_angle_gamma 90.000000
_cell_volume 1847.299445
_symmetry_space_group_name_H-M "C 2/C"
_symmetry_group_IT_number 15
_symmetry_cell_setting 'monoclinic'
loop_
_space_group_symop_operation_xyz
x,y,z
-x,y,1/2-z
-x,-y,-z
x,-y,1/2+z
1/2+x,1/2+y,z
1/2-x,1/2+y,1/2-z
1/2-x,1/2-y,-z
1/2+x,1/2-y,1/2+z
loop_
_atom_site_type_symbol
_atom_site_label
_atom_site_fract_x
_atom_site_fract_y
_atom_site_fract_z
Si Si1 0.991123 0.615150 0.477250
Si Si2 0.000000 0.445988 0.250000
Si Si3 0.256394 0.708190 0.313042
Si Si4 0.759750 0.036006 0.123800
Si Si5 0.862906 0.069812 0.703486
Si Si6 0.369954 0.325131 0.021075
O O1 0.002056 0.591367 0.617548
O O2 0.078125 0.677593 0.410292
O O3 0.120801 0.579883 0.286370
O O4 0.790964 0.600917 0.596476
O O5 0.839128 0.489542 0.387568
O O6 0.429091 0.689456 0.107812
O O7 0.306196 0.686531 0.422133
O O8 0.237396 0.776408 0.321739
O O9 0.812898 0.995089 0.205453
O O10 0.931321 0.063503 0.930084
O O11 0.853603 0.110453 0.580975
#
# Coordination Sequence:
#
# PCOD9261503 Si02
#       6
#     8   4   8   8   8   8
#     4  11  20  36  53  77 111 141 175 219 265 315
#     4  10  20  34  56  76 106 146 176 222 268 306
#     4  10  19  30  49  74 109 143 173 211 261 317
#     4  10  21  36  52  77 107 141 180 220 263 316
#     4  10  19  34  51  73 106 139 177 217 256 312
#     4  10  19  31  47  76 108 142 177 210 256 322
#
# _framework density 23.818553000000001
#
# number of rings (size 3 to 8) (size 9 to 14) (size 15 to 20)
#    0.000    1.818    1.818    5.455    0.000    2.909 
#    0.000    6.364    0.000    0.000    0.000    1.273 
#    0.000    0.000    0.000    0.000    0.000    0.000 
#
# Total GULP energy -122731.447050 kJ/mol
# GULP energy per Si atom -5578.702139 kJ/mol
# Density = 2.376434 g / cm^3
# Si number density = 23.818553 Si / 1000 Ang^3
#
#
#
# Elastic Constant Matrix: (Units=GPa)
#
#
# Indices 1 2 3 4 5 6 
#
# 1 59.6405 4.9336 15.3176 0.0000 -27.8450 0.0000
# 2 4.9336 75.4002 16.2910 0.0000 -9.2103 0.0000
# 3 15.3176 16.2910 146.0994 0.0000 -31.0065 0.0000
# 4 0.0000 0.0000 0.0000 41.6094 0.0000 -6.9472
# 5 -27.8450 -9.2103 -31.0065 0.0000 44.1604 0.0000
# 6 0.0000 0.0000 0.0000 -6.9472 0.0000 19.8338
#
#
#
# Elastic Compliance Matrix: (Units=1/GPa)
#
#
# Indices 1 2 3 4 5 6 
#
# 1 0.023846 0.000177 0.000798 0.000000 0.015633 0.000000
# 2 0.000177 0.013756 -0.001081 0.000000 0.002222 0.000000
# 3 0.000798 -0.001081 0.008156 0.000000 0.006004 0.000000
# 4 0.000000 0.000000 0.000000 0.025526 0.000000 0.008941
# 5 0.015633 0.002222 0.006004 0.000000 0.037181 0.000000
# 6 0.000000 0.000000 0.000000 0.008941 0.000000 0.053551
#
#
# Mechanical properties :
#
#
# Convention : Reuss Voigt Hill
#
# Bulk Modulus (GPa) = 21.95580 39.35828 30.65704
# Shear Modulus (GPa) = 28.18326 37.42723 32.80524
#
# Velocity S-wave (km/s) = 3.44357 3.96832 3.71522
# Velocity P-wave (km/s) = 5.00488 6.12837 5.59490
#
# Compressibility (1/GPa) = 0.04554606
#
# Stress axis : x y z
#
# Youngs Moduli (GPa) = 41.93497 72.69606 122.61243
#
# Poissons Ratio (x) = -0.01286 -0.09784
# Poissons Ratio (y) = -0.00742 0.13254
# Poissons Ratio (z) = -0.03346 0.07858
#
# Static dielectric constant tensor:
#      x y z
#    x 2.061310 0.000000 -0.020900 
#    y 0.000000 1.856990 0.000000 
#    z -0.020900 0.000000 1.934780 
# 
# From -- ./inp_files/63890.got.cif
#   From: 2010.05.17/outbox.cif.g08.bks.cpg/sg15_32_cif.got.tgz:63890.got - 2010.06.03 18:47:42.
