data_PCOD9261262
_publ_section_title
;
Structure prediction by ZEFSAII (Michael W. Deem and Ramdas Pophale) SiO2 
 PCOD9261262
Probable space group: C 2/C
;
_chemical_formula_sum "Si O2"
_cell_formula_units_Z 60
_cell_length_a 25.549074
_cell_length_b 7.562688
_cell_length_c 25.061380
_cell_angle_alpha 90.000000
_cell_angle_beta 31.262794
_cell_angle_gamma 90.000000
_cell_volume 2513.006913
_symmetry_space_group_name_H-M "C 2/C"
_symmetry_group_IT_number 15
_symmetry_cell_setting 'monoclinic'
loop_
_space_group_symop_operation_xyz
x,y,z
-x,y,1/2-z
-x,-y,-z
x,-y,1/2+z
1/2+x,1/2+y,z
1/2-x,1/2+y,1/2-z
1/2-x,1/2-y,-z
1/2+x,1/2-y,1/2+z
loop_
_atom_site_type_symbol
_atom_site_label
_atom_site_fract_x
_atom_site_fract_y
_atom_site_fract_z
Si Si1 0.011402 0.168033 0.620692
Si Si2 0.786690 0.601284 0.267187
Si Si3 0.226426 0.949015 0.540117
Si Si4 0.500000 0.585908 0.750000
Si Si5 0.987032 0.526540 0.574037
Si Si6 0.238405 0.959639 0.919014
Si Si7 0.340287 0.483610 0.205081
Si Si8 0.803877 0.353928 0.580955
O O1 0.005882 0.349711 0.592488
O O2 0.939669 0.023044 0.654300
O O3 0.988400 0.187419 0.703840
O O4 0.123371 0.096286 0.519540
O O5 0.867288 0.444229 0.186976
O O6 0.790433 0.645083 0.326355
O O7 0.676563 0.567418 0.338533
O O8 0.823838 0.777612 0.206832
O O9 0.250000 0.750000 0.500000
O O10 0.105776 0.977622 0.651323
O O11 0.271815 0.060315 0.450967
O O12 0.279509 0.974068 0.550369
O O13 0.000000 0.500000 0.500000
O O14 0.076179 0.656022 0.514485
O O15 0.240695 0.162232 0.895517
O O16 0.251502 0.560092 0.320069
#
# Coordination Sequence:
#
# PCOD9261262 Si02
#       8
#     8   8   8   4   8   8   8   8
#     4  10  23  42  66  98 128 171 218 260 334 386
#     4  11  24  40  61  91 127 163 215 264 322 386
#     4   9  20  40  64  95 128 166 215 262 321 384
#     4  10  18  42  70  94 136 174 216 276 312 400
#     4  11  24  43  62  90 131 168 214 270 324 390
#     4  10  23  40  63  96 124 162 214 265 323 389
#     4  11  22  40  65  89 126 169 211 265 320 389
#     4  11  21  42  64  90 124 167 209 264 324 376
#
# _framework density 23.875782000000001
#
# number of rings (size 3 to 8) (size 9 to 14) (size 15 to 20)
#    0.000    1.600    2.667    1.600    1.867    2.667 
#   12.000    2.000    0.000    0.000    0.000    0.000 
#    0.000    0.000    0.000    0.000    0.000    0.000 
#
# Total GULP energy -167453.911711 kJ/mol
# GULP energy per Si atom -5581.797057 kJ/mol
# Density = 2.382144 g / cm^3
# Si number density = 23.875782 Si / 1000 Ang^3
#
#
#
# Elastic Constant Matrix: (Units=GPa)
#
#
# Indices 1 2 3 4 5 6 
#
# 1 149.5974 13.1396 34.5961 0.0179 22.9203 -0.0394
# 2 13.1396 42.2997 5.8577 -0.0010 4.4937 -0.0500
# 3 34.5961 5.8577 88.4014 0.0029 25.9065 -0.0184
# 4 0.0179 -0.0010 0.0029 25.4545 -0.0128 -1.1505
# 5 22.9203 4.4937 25.9065 -0.0128 40.5715 0.0086
# 6 -0.0394 -0.0500 -0.0184 -1.1505 0.0086 32.3625
#
#
#
# Elastic Compliance Matrix: (Units=1/GPa)
#
#
# Indices 1 2 3 4 5 6 
#
# 1 0.007763 -0.001820 -0.002081 -0.000006 -0.002855 0.000006
# 2 -0.001820 0.024420 -0.000510 0.000003 -0.001351 0.000036
# 3 -0.002081 -0.000510 0.014515 -0.000004 -0.008037 0.000007
# 4 -0.000006 0.000003 -0.000004 0.039349 0.000018 0.001399
# 5 -0.002855 -0.001351 -0.008037 0.000018 0.031542 -0.000018
# 6 0.000006 0.000036 0.000007 0.001399 -0.000018 0.030950
#
#
# Mechanical properties :
#
#
# Convention : Reuss Voigt Hill
#
# Bulk Modulus (GPa) = 26.40088 43.05391 34.72739
# Shear Modulus (GPa) = 29.41397 34.79136 32.10266
#
# Velocity S-wave (km/s) = 3.51373 3.82145 3.67082
# Velocity P-wave (km/s) = 5.24818 6.12722 5.70466
#
# Compressibility (1/GPa) = 0.03787752
#
# Stress axis : x y z
#
# Youngs Moduli (GPa) = 128.81369 40.94944 68.89274
#
# Poissons Ratio (x) = 0.07453 0.14335
# Poissons Ratio (y) = 0.23444 0.03513
# Poissons Ratio (z) = 0.26802 0.02088
#
# Static dielectric constant tensor:
#      x y z
#    x 1.944680 0.000010 0.009050 
#    y 0.000010 1.954130 0.000030 
#    z 0.009050 0.000030 1.930360 
# 
# From -- ./inp_files/281645.got.cif
#   From: 2010.05.17/outbox.cif.g08.bks.cpg/sg15_141_cif.got.tgz:281645.got - 2010.06.03 18:47:42.
