data_PCOD9261849
_publ_section_title
;
Structure prediction by ZEFSAII (Michael W. Deem and Ramdas Pophale) SiO2 
 PCOD9261849
Probable space group: C 2/C
;
_chemical_formula_sum "Si O2"
_cell_formula_units_Z 64
_cell_length_a 11.638492
_cell_length_b 19.544033
_cell_length_c 16.493577
_cell_angle_alpha 90.000000
_cell_angle_beta 127.881583
_cell_angle_gamma 90.000000
_cell_volume 2961.131365
_symmetry_space_group_name_H-M "C 2/C"
_symmetry_group_IT_number 15
_symmetry_cell_setting 'monoclinic'
loop_
_space_group_symop_operation_xyz
x,y,z
-x,y,1/2-z
-x,-y,-z
x,-y,1/2+z
1/2+x,1/2+y,z
1/2-x,1/2+y,1/2-z
1/2-x,1/2-y,-z
1/2+x,1/2-y,1/2+z
loop_
_atom_site_type_symbol
_atom_site_label
_atom_site_fract_x
_atom_site_fract_y
_atom_site_fract_z
Si Si1 0.884764 0.142520 0.393098
Si Si2 0.266804 0.665362 0.162794
Si Si3 0.895375 0.639204 0.131363
Si Si4 0.128552 0.370620 0.193696
Si Si5 0.325431 0.812617 0.129413
Si Si6 0.934607 0.707656 0.987669
Si Si7 0.461161 0.001850 0.578460
Si Si8 0.831595 0.910915 0.545533
O O1 0.805128 0.159847 0.273434
O O2 0.759348 0.117965 0.398970
O O3 0.938004 0.214941 0.455798
O O4 0.009699 0.086874 0.426118
O O5 0.333811 0.735226 0.158795
O O6 0.332501 0.601869 0.142024
O O7 0.096866 0.675510 0.066429
O O8 0.963224 0.572236 0.118827
O O9 0.000000 0.662558 0.250000
O O10 0.876617 0.695903 0.053363
O O11 0.229131 0.353153 0.313340
O O12 0.154831 0.337247 0.117512
O O13 0.980425 0.334661 0.160779
O O14 0.085069 0.449343 0.169404
O O15 0.221028 0.837739 0.013575
O O16 0.301660 0.036280 0.525855
O O17 0.500000 0.000000 0.500000
#
# Coordination Sequence:
#
# PCOD9261849 Si02
#       8
#     8   8   8   8   8   8   8   8
#     4  12  26  40  66  98 138 173 217 284 334 409
#     4  12  20  37  63  99 135 169 211 273 343 400
#     4  12  27  44  66  95 130 186 231 267 330 407
#     4  10  20  34  61  97 120 164 216 272 323 381
#     4  10  19  31  58  97 131 158 209 271 334 386
#     4  12  21  43  64  95 132 169 222 270 340 398
#     4  11  23  44  69  89 129 174 226 277 320 394
#     4  11  23  38  62 100 132 171 216 276 343 382
#
# _framework density 21.61336
#
# number of rings (size 3 to 8) (size 9 to 14) (size 15 to 20)
#    0.000    0.750    7.500    1.875    5.250    0.500 
#    0.000    0.000    0.000    0.000    0.000    0.000 
#    0.000    0.000    0.000    0.000    0.000    0.000 
#
# Total GULP energy -178525.569763 kJ/mol
# GULP energy per Si atom -5578.924055 kJ/mol
# Density = 2.156417 g / cm^3
# Si number density = 21.613360 Si / 1000 Ang^3
#
#
#
# Elastic Constant Matrix: (Units=GPa)
#
#
# Indices 1 2 3 4 5 6 
#
# 1 93.4216 -0.3374 30.1213 0.0000 -12.8743 0.0000
# 2 -0.3374 63.6672 17.6977 0.0000 -13.6794 0.0000
# 3 30.1213 17.6977 94.2762 0.0000 -33.8251 0.0000
# 4 0.0000 0.0000 0.0000 22.3444 0.0000 -2.9797
# 5 -12.8743 -13.6794 -33.8251 0.0000 37.4811 0.0000
# 6 0.0000 0.0000 0.0000 -2.9797 0.0000 24.7644
#
#
#
# Elastic Compliance Matrix: (Units=1/GPa)
#
#
# Indices 1 2 3 4 5 6 
#
# 1 0.012065 0.001365 -0.003616 0.000000 0.001379 0.000000
# 2 0.001365 0.017329 -0.001851 0.000000 0.005123 0.000000
# 3 -0.003616 -0.001851 0.016891 0.000000 0.013326 0.000000
# 4 0.000000 0.000000 0.000000 0.045484 0.000000 0.005473
# 5 0.001379 0.005123 0.013326 0.000000 0.041049 0.000000
# 6 0.000000 0.000000 0.000000 0.005473 0.000000 0.041039
#
#
# Mechanical properties :
#
#
# Convention : Reuss Voigt Hill
#
# Bulk Modulus (GPa) = 26.25974 38.48090 32.37032
# Shear Modulus (GPa) = 25.67314 30.51020 28.09167
#
# Velocity S-wave (km/s) = 3.45024 3.76125 3.60910
# Velocity P-wave (km/s) = 5.29607 6.05851 5.69007
#
# Compressibility (1/GPa) = 0.03808111
#
# Stress axis : x y z
#
# Youngs Moduli (GPa) = 82.88347 57.70603 59.20234
#
# Poissons Ratio (x) = -0.07880 0.21410
# Poissons Ratio (y) = -0.11318 0.10960
# Poissons Ratio (z) = 0.29974 0.10683
#
# Static dielectric constant tensor:
#      x y z
#    x 1.867720 0.000000 0.001780 
#    y 0.000000 1.779400 0.000000 
#    z 0.001780 0.000000 1.907400 
# 
# From -- ./inp_files/200397.got.cif
#   From: 2010.05.17/outbox.cif.g08.bks.cpg/sg15_101_cif.got.tgz:200397.got - 2010.06.03 18:47:42.
