data_PCOD9261966
_publ_section_title
;
Structure prediction by ZEFSAII (Michael W. Deem and Ramdas Pophale) SiO2 
 PCOD9261966
Probable space group: C 2/C
;
_chemical_formula_sum "Si O2"
_cell_formula_units_Z 64
_cell_length_a 16.390976
_cell_length_b 8.239181
_cell_length_c 20.501053
_cell_angle_alpha 90.000000
_cell_angle_beta 72.488153
_cell_angle_gamma 90.000000
_cell_volume 2640.317805
_symmetry_space_group_name_H-M "C 2/C"
_symmetry_group_IT_number 15
_symmetry_cell_setting 'monoclinic'
loop_
_space_group_symop_operation_xyz
x,y,z
-x,y,1/2-z
-x,-y,-z
x,-y,1/2+z
1/2+x,1/2+y,z
1/2-x,1/2+y,1/2-z
1/2-x,1/2-y,-z
1/2+x,1/2-y,1/2+z
loop_
_atom_site_type_symbol
_atom_site_label
_atom_site_fract_x
_atom_site_fract_y
_atom_site_fract_z
Si Si1 0.203261 0.802165 0.165400
Si Si2 0.563345 0.304462 0.792070
Si Si3 0.605764 0.807076 0.915777
Si Si4 0.652827 0.306397 0.039004
Si Si5 0.105764 0.692924 0.915777
Si Si6 0.796739 0.197835 0.334600
Si Si7 0.563345 0.304462 0.292070
Si Si8 0.347173 0.306397 0.960996
O O1 0.298926 0.743839 0.127648
O O2 0.155801 0.747355 0.242107
O O3 0.206668 1.000000 0.165974
O O4 0.144959 0.757282 0.116531
O O5 0.500000 0.250136 0.750000
O O6 0.548213 0.251091 0.869624
O O7 0.655801 0.247355 0.742107
O O8 0.561194 0.500000 0.793161
O O9 0.701074 0.743839 0.872352
O O10 0.548213 0.748909 0.869624
O O11 0.606091 1.000000 0.914887
O O12 0.595176 0.757216 0.993587
O O13 0.595176 0.242783 0.993587
O O14 0.750000 0.250000 0.000000
O O15 0.648254 0.500000 0.038032
O O16 0.855041 0.242718 0.383469
O O17 0.500000 0.250136 0.250000
O O18 0.250000 0.250000 0.000000
#
# Coordination Sequence:
#
# PCOD9261966 Si02
#       8
#     8   8   8   8   8   8   8   8
#     4   8  16  31  51  75  98 123 159 200 241 285
#     4  10  20  34  51  71  97 129 164 201 242 288
#     4  10  19  32  51  74 100 128 161 200 240 287
#     4   9  16  29  50  75 101 125 156 200 244 286
#     4  10  19  32  51  74 100 128 161 200 240 287
#     4   8  16  31  51  75  98 123 159 200 241 285
#     4  10  20  34  51  71  97 129 164 201 242 288
#     4   9  16  29  50  75 101 125 156 200 244 286
#
# _framework density 24.239505999999999
#
# number of rings (size 3 to 8) (size 9 to 14) (size 15 to 20)
#    0.000    2.750    0.000    3.750    0.000    0.500 
#    0.000    7.500    0.000    7.500    0.000    0.000 
#    0.000    0.000    0.000    0.000    0.000    0.000 
#
# Total GULP energy -178669.340969 kJ/mol
# GULP energy per Si atom -5583.416905 kJ/mol
# Density = 2.418434 g / cm^3
# Si number density = 24.239506 Si / 1000 Ang^3
#
#
#
# Elastic Constant Matrix: (Units=GPa)
#
#
# Indices 1 2 3 4 5 6 
#
# 1 83.8987 1.9540 34.7882 0.0000 28.0196 0.0000
# 2 1.9540 23.9443 9.7683 0.0000 10.7526 0.0000
# 3 34.7882 9.7683 188.7166 0.0000 31.2894 0.0000
# 4 0.0000 0.0000 0.0000 28.3046 0.0000 16.7215
# 5 28.0196 10.7526 31.2894 0.0000 49.7677 0.0000
# 6 0.0000 0.0000 0.0000 16.7215 0.0000 9.8747
#
#
#
# Elastic Compliance Matrix: (Units=1/GPa)
#
#
# Indices 1 2 3 4 5 6 
#
# 1 0.015272 0.003119 -0.001607 -0.000002 -0.008262 0.000003
# 2 0.003119 0.047003 -0.001153 -0.000075 -0.011186 0.000128
# 3 -0.001607 -0.001153 0.006099 0.000000 -0.002681 -0.000001
# 4 -0.000002 -0.000075 0.000000-89.188413 0.000011151.029640
# 5 -0.008262 -0.011186 -0.002681 0.000011 0.028847 -0.000018
# 6 0.000003 0.000128 -0.000001151.029640 -0.000018**********
#
#
# Mechanical properties :
#
#
# Convention : Reuss Voigt Hill
#
# Bulk Modulus (GPa) = 14.47331 43.28675 28.88003
# Shear Modulus (GPa) = -0.01450 34.25933 17.12241
#
# Velocity S-wave (km/s) = -0.07744 3.76356 2.66067
# Velocity P-wave (km/s) = 2.44457 6.06486 4.62377
#
# Compressibility (1/GPa) = 0.06909271
#
# Stress axis : x y z
#
# Youngs Moduli (GPa) = 65.47930 21.27528 163.95190
#
# Poissons Ratio (x) = -0.06637 0.26345
# Poissons Ratio (y) = -0.20425 0.18908
# Poissons Ratio (z) = 0.10522 0.02454
#
# Static dielectric constant tensor:
#      x y z
#    x 2.040280 0.000000 -0.003980 
#    y 0.000000 1.822750 0.000000 
#    z -0.003980 0.000000 1.933190 
# 
# From -- ./inp_files/251565.got.cif
#   From: 2010.05.17/outbox.cif.g08.bks.cpg/sg15_126_cif.got.tgz:251565.got - 2010.06.03 18:47:42.
