data_PCOD9261927
_publ_section_title
;
Structure prediction by ZEFSAII (Michael W. Deem and Ramdas Pophale) SiO2 
 PCOD9261927
Probable space group: C 2/C
;
_chemical_formula_sum "Si O2"
_cell_formula_units_Z 56
_cell_length_a 13.128539
_cell_length_b 25.582945
_cell_length_c 9.490665
_cell_angle_alpha 90.000000
_cell_angle_beta 102.665351
_cell_angle_gamma 90.000000
_cell_volume 3110.035427
_symmetry_space_group_name_H-M "C 2/C"
_symmetry_group_IT_number 15
_symmetry_cell_setting 'monoclinic'
loop_
_space_group_symop_operation_xyz
x,y,z
-x,y,1/2-z
-x,-y,-z
x,-y,1/2+z
1/2+x,1/2+y,z
1/2-x,1/2+y,1/2-z
1/2-x,1/2-y,-z
1/2+x,1/2-y,1/2+z
loop_
_atom_site_type_symbol
_atom_site_label
_atom_site_fract_x
_atom_site_fract_y
_atom_site_fract_z
Si Si1 0.196453 0.704339 0.187553
Si Si2 0.386215 0.313253 0.275249
Si Si3 0.892600 0.726741 0.779297
Si Si4 0.445695 0.075499 0.091691
Si Si5 0.690324 0.172569 0.506534
Si Si6 0.592923 0.959551 0.389884
Si Si7 0.781648 0.638800 0.584107
O O1 0.114763 0.752538 0.173109
O O2 0.303961 0.735264 0.196952
O O3 0.202204 0.680537 0.344568
O O4 0.192145 0.662230 0.062287
O O5 0.500000 0.327373 0.250000
O O6 0.299588 0.321256 0.123872
O O7 0.331940 0.345726 0.387411
O O8 0.881073 0.717505 0.942312
O O9 0.863939 0.670225 0.706522
O O10 0.000000 0.744657 0.750000
O O11 0.500000 0.096826 0.250000
O O12 0.385265 0.021369 0.105431
O O13 0.370342 0.117798 0.998895
O O14 0.539964 0.057795 0.019891
O O15 0.500000 0.950902 0.250000
O O16 0.690616 0.921886 0.396077
#
# Coordination Sequence:
#
# PCOD9261927 Si02
#       7
#     8   8   8   8   8   8   8
#     4  10  21  32  47  75 102 128 167 213 255 298
#     4  10  21  36  52  70  99 141 180 209 242 295
#     4  10  19  32  50  69  98 136 168 202 248 307
#     4  10  20  32  52  81 107 130 160 205 262 315
#     4  10  20  34  50  75 105 132 167 209 255 303
#     4  10  19  33  52  77 105 132 163 201 257 321
#     4  10  19  33  51  73 101 132 169 206 252 305
#
# _framework density 18.006226999999999
#
# number of rings (size 3 to 8) (size 9 to 14) (size 15 to 20)
#    0.000    2.286    0.000    7.286    0.000    6.286 
#    0.000    0.000    0.000    0.857    0.000    2.000 
#    0.000    0.000    0.000    0.000    0.000    0.000 
#
# Total GULP energy -156059.714084 kJ/mol
# GULP energy per Si atom -5573.561217 kJ/mol
# Density = 1.796524 g / cm^3
# Si number density = 18.006227 Si / 1000 Ang^3
#
#
#
# Elastic Constant Matrix: (Units=GPa)
#
#
# Indices 1 2 3 4 5 6 
#
# 1 78.9498 16.8810 16.0996 0.0000 -1.1640 0.0000
# 2 16.8810 74.5102 7.8825 0.0000 13.8125 0.0000
# 3 16.0996 7.8825 94.4749 0.0000 -10.1792 0.0000
# 4 0.0000 0.0000 0.0000 22.9964 0.0000 0.8613
# 5 -1.1640 13.8125 -10.1792 0.0000 16.5404 0.0000
# 6 0.0000 0.0000 0.0000 0.8613 0.0000 11.7505
#
#
#
# Elastic Compliance Matrix: (Units=1/GPa)
#
#
# Indices 1 2 3 4 5 6 
#
# 1 0.013806 -0.003454 -0.001766 0.000000 0.002769 0.000000
# 2 -0.003454 0.017550 -0.002657 0.000000 -0.016534 0.000000
# 3 -0.001766 -0.002657 0.012138 0.000000 0.009564 0.000000
# 4 0.000000 0.000000 0.000000 0.043605 0.000000 -0.003196
# 5 0.002769 -0.016534 0.009564 0.000000 0.080346 0.000000
# 6 0.000000 0.000000 0.000000 -0.003196 0.000000 0.085337
#
#
# Mechanical properties :
#
#
# Convention : Reuss Voigt Hill
#
# Bulk Modulus (GPa) = 36.05088 36.62901 36.33995
# Shear Modulus (GPa) = 17.99969 24.06223 21.03096
#
# Velocity S-wave (km/s) = 3.16513 3.65955 3.42128
# Velocity P-wave (km/s) = 5.78120 6.18409 5.98603
#
# Compressibility (1/GPa) = 0.02773857
#
# Stress axis : x y z
#
# Youngs Moduli (GPa) = 72.43298 56.98121 82.38597
#
# Poissons Ratio (x) = 0.19683 0.14550
# Poissons Ratio (y) = 0.25021 0.21890
# Poissons Ratio (z) = 0.12792 0.15140
#
# Static dielectric constant tensor:
#      x y z
#    x 1.641400 0.000000 -0.043870 
#    y 0.000000 1.648330 0.000000 
#    z -0.043870 0.000000 1.687040 
# 
# From -- ./inp_files/43204.got.cif
#   From: 2010.05.17/outbox.cif.g08.bks.cpg/sg15_22_cif.got.tgz:43204.got - 2010.06.03 18:47:42.
