data_PCOD9261809
_publ_section_title
;
Structure prediction by ZEFSAII (Michael W. Deem and Ramdas Pophale) SiO2 
 PCOD9261809
Probable space group: C 2/C
;
_chemical_formula_sum "Si O2"
_cell_formula_units_Z 48
_cell_length_a 7.885614
_cell_length_b 19.353451
_cell_length_c 15.261356
_cell_angle_alpha 90.000000
_cell_angle_beta 59.304780
_cell_angle_gamma 90.000000
_cell_volume 2002.776140
_symmetry_space_group_name_H-M "C 2/C"
_symmetry_group_IT_number 15
_symmetry_cell_setting 'monoclinic'
loop_
_space_group_symop_operation_xyz
x,y,z
-x,y,1/2-z
-x,-y,-z
x,-y,1/2+z
1/2+x,1/2+y,z
1/2-x,1/2+y,1/2-z
1/2-x,1/2-y,-z
1/2+x,1/2-y,1/2+z
loop_
_atom_site_type_symbol
_atom_site_label
_atom_site_fract_x
_atom_site_fract_y
_atom_site_fract_z
Si Si1 0.263214 0.520420 0.662076
Si Si2 0.727795 0.801876 0.719644
Si Si3 0.764616 0.926796 0.813406
Si Si4 0.164360 0.825489 0.998672
Si Si5 0.244197 0.023502 0.525874
Si Si6 0.831258 0.844014 0.220814
O O1 0.195260 0.457579 0.739592
O O2 0.503578 0.521410 0.595119
O O3 0.199025 0.512419 0.579933
O O4 0.210545 0.588312 0.730699
O O5 0.500000 0.798257 0.750000
O O6 0.732457 0.845545 0.807888
O O7 0.841806 0.832081 0.605138
O O8 0.788410 0.722720 0.718282
O O9 0.000000 0.935143 0.750000
O O10 0.687458 0.974388 0.912481
O O11 0.250000 0.750000 0.000000
O O12 0.280069 0.893365 0.006678
O O13 0.952514 0.826881 0.100753
O O14 0.000000 0.859210 0.250000
#
# Coordination Sequence:
#
# PCOD9261809 Si02
#       6
#     8   8   8   8   8   8
#     4   9  16  31  52  80 106 134 182 234 269 315
#     4  11  22  36  55  84 113 145 184 234 278 327
#     4  10  20  35  57  81 111 142 184 232 280 328
#     4  11  18  33  56  80 110 143 183 234 276 319
#     4   9  18  30  54  82 102 140 183 226 276 324
#     4  10  19  31  54  83 106 144 193 231 267 326
#
# _framework density 23.966733000000001
#
# number of rings (size 3 to 8) (size 9 to 14) (size 15 to 20)
#    0.000    2.000    5.000    2.500    2.333    0.000 
#    0.000    1.667    0.000    1.000    0.000    0.000 
#    0.000    0.000    0.000    0.000    0.000    0.000 
#
# Total GULP energy -134037.694195 kJ/mol
# GULP energy per Si atom -5584.903925 kJ/mol
# Density = 2.391218 g / cm^3
# Si number density = 23.966733 Si / 1000 Ang^3
#
#
#
# Elastic Constant Matrix: (Units=GPa)
#
#
# Indices 1 2 3 4 5 6 
#
# 1 50.0476 10.0340 13.9530 0.0000 7.4466 0.0000
# 2 10.0340 166.1298 44.8701 0.0000 34.7944 0.0000
# 3 13.9530 44.8701 119.8156 0.0000 27.5619 0.0000
# 4 0.0000 0.0000 0.0000 47.7913 0.0000 9.2985
# 5 7.4466 34.7944 27.5619 0.0000 35.0857 0.0000
# 6 0.0000 0.0000 0.0000 9.2985 0.0000 7.0057
#
#
#
# Elastic Compliance Matrix: (Units=1/GPa)
#
#
# Indices 1 2 3 4 5 6 
#
# 1 0.020926 -0.000196 -0.001692 0.000000 -0.002918 0.000000
# 2 -0.000196 0.007784 -0.001375 0.000000 -0.006599 0.000000
# 3 -0.001692 -0.001375 0.010572 0.000000 -0.006583 0.000000
# 4 0.000000 0.000000 0.000000 0.028209 0.000000 -0.037441
# 5 -0.002918 -0.006599 -0.006583 0.000000 0.040836 0.000000
# 6 0.000000 0.000000 0.000000 -0.037441 0.000000 0.192436
#
#
# Mechanical properties :
#
#
# Convention : Reuss Voigt Hill
#
# Bulk Modulus (GPa) = 30.52728 52.63414 41.58071
# Shear Modulus (GPa) = 15.71299 35.78559 25.74929
#
# Velocity S-wave (km/s) = 2.56328 3.86830 3.28132
# Velocity P-wave (km/s) = 4.63956 6.47771 5.63410
#
# Compressibility (1/GPa) = 0.03275759
#
# Stress axis : x y z
#
# Youngs Moduli (GPa) = 47.78701 128.46098 94.58696
#
# Poissons Ratio (x) = 0.02514 0.16008
# Poissons Ratio (y) = 0.00935 0.13001
# Poissons Ratio (z) = 0.08088 0.17657
#
# Static dielectric constant tensor:
#      x y z
#    x 1.972080 0.000000 -0.039130 
#    y 0.000000 2.004520 0.000000 
#    z -0.039130 0.000000 1.927120 
# 
# From -- ./inp_files/144996.got.cif
#   From: 2010.05.17/outbox.cif.g08.bks.cpg/sg15_73_cif.got.tgz:144996.got - 2010.06.03 18:47:42.
