data_PCOD9261706
_publ_section_title
;
Structure prediction by ZEFSAII (Michael W. Deem and Ramdas Pophale) SiO2 
 PCOD9261706
Probable space group: C 2/C
;
_chemical_formula_sum "Si O2"
_cell_formula_units_Z 56
_cell_length_a 23.643846
_cell_length_b 19.309865
_cell_length_c 5.263228
_cell_angle_alpha 90.000000
_cell_angle_beta 106.954915
_cell_angle_gamma 90.000000
_cell_volume 2298.530082
_symmetry_space_group_name_H-M "C 2/C"
_symmetry_group_IT_number 15
_symmetry_cell_setting 'monoclinic'
loop_
_space_group_symop_operation_xyz
x,y,z
-x,y,1/2-z
-x,-y,-z
x,-y,1/2+z
1/2+x,1/2+y,z
1/2-x,1/2+y,1/2-z
1/2-x,1/2-y,-z
1/2+x,1/2-y,1/2+z
loop_
_atom_site_type_symbol
_atom_site_label
_atom_site_fract_x
_atom_site_fract_y
_atom_site_fract_z
Si Si1 0.941155 0.132570 0.788878
Si Si2 0.732771 0.793121 0.222676
Si Si3 0.500000 0.740548 0.250000
Si Si4 0.662756 0.374365 0.026176
Si Si5 0.130578 0.453213 0.414922
Si Si6 0.755665 0.046303 0.183529
Si Si7 0.388093 0.745771 0.339723
Si Si8 0.500000 0.952034 0.250000
O O1 0.890432 0.092295 0.882227
O O2 0.906110 0.182516 0.548752
O O3 0.000000 0.095303 0.750000
O O4 0.971679 0.188228 0.012562
O O5 0.750000 0.750000 0.500000
O O6 0.774114 0.860405 0.259014
O O7 0.661701 0.797244 0.126692
O O8 0.750000 0.750000 0.000000
O O9 0.448947 0.779652 0.331646
O O10 0.685115 0.410795 0.798675
O O11 0.639072 0.297703 0.930063
O O12 0.132966 0.513642 0.635624
O O13 0.192529 0.414230 0.559628
O O14 0.065870 0.419011 0.354242
O O15 0.756544 0.009405 0.454718
O O16 0.500000 0.000000 0.500000
#
# Coordination Sequence:
#
# PCOD9261706 Si02
#       8
#     8   8   4   8   8   8   8   4
#     4   9  16  29  50  75 103 131 174 212 257 312
#     4  10  19  31  50  79 108 133 163 208 258 316
#     4   8  16  28  46  77 104 142 164 212 250 315
#     4  10  20  32  52  75 106 138 177 218 266 308
#     4   8  14  26  41  64  88 113 152 200 248 293
#     4  10  22  35  51  72 102 139 181 223 268 311
#     4   9  17  30  50  77 107 136 176 208 261 315
#     4   8  12  20  40  61  84 108 142 194 244 281
#
# _framework density 24.363396000000002
#
# number of rings (size 3 to 8) (size 9 to 14) (size 15 to 20)
#    0.000    2.857    1.429    0.000    2.000    0.000 
#    0.000    0.000    0.000    1.714    0.000    0.000 
#   21.429    0.000    0.000    0.000    0.000    0.000 
#
# Total GULP energy -155903.023921 kJ/mol
# GULP energy per Si atom -5567.965140 kJ/mol
# Density = 2.430794 g / cm^3
# Si number density = 24.363396 Si / 1000 Ang^3
#
#
#
# Elastic Constant Matrix: (Units=GPa)
#
#
# Indices 1 2 3 4 5 6 
#
# 1 245.2298 16.0374 24.9851 0.0000 9.0739 0.0000
# 2 16.0374 31.2518 14.0494 0.0000 5.0459 0.0000
# 3 24.9851 14.0494 92.6729 0.0000 -7.6821 0.0000
# 4 0.0000 0.0000 0.0000 11.9580 0.0000 -2.1750
# 5 9.0739 5.0459 -7.6821 0.0000 38.0759 0.0000
# 6 0.0000 0.0000 0.0000 -2.1750 0.0000 7.7698
#
#
#
# Elastic Compliance Matrix: (Units=1/GPa)
#
#
# Indices 1 2 3 4 5 6 
#
# 1 0.004323 -0.001601 -0.001008 0.000000 -0.001021 0.000000
# 2 -0.001601 0.036190 -0.005513 0.000000 -0.005527 0.000000
# 3 -0.001008 -0.005513 0.012182 0.000000 0.003429 0.000000
# 4 0.000000 0.000000 0.000000 0.088112 0.000000 0.024666
# 5 -0.001021 -0.005527 0.003429 0.000000 0.027931 0.000000
# 6 0.000000 0.000000 0.000000 0.024666 0.000000 0.135608
#
#
# Mechanical properties :
#
#
# Convention : Reuss Voigt Hill
#
# Bulk Modulus (GPa) = 27.43251 53.25538 40.34395
# Shear Modulus (GPa) = 15.02672 32.49958 23.76315
#
# Velocity S-wave (km/s) = 2.48619 3.65629 3.12647
# Velocity P-wave (km/s) = 4.41879 6.30324 5.44318
#
# Compressibility (1/GPa) = 0.03645310
#
# Stress axis : x y z
#
# Youngs Moduli (GPa) = 231.32518 27.63169 82.08640
#
# Poissons Ratio (x) = 0.04423 0.08270
# Poissons Ratio (y) = 0.37024 0.45256
# Poissons Ratio (z) = 0.23306 0.15234
#
# Static dielectric constant tensor:
#      x y z
#    x 2.185820 0.000000 0.112950 
#    y 0.000000 1.925330 0.000000 
#    z 0.112950 0.000000 2.183250 
# 
# From -- ./inp_files/14586.got.cif
#   From: 2010.05.17/outbox.cif.g08.bks.cpg/sg15_8_cif.got.tgz:14586.got - 2010.06.03 18:47:42.
