data_PCOD9261767
_publ_section_title
;
Structure prediction by ZEFSAII (Michael W. Deem and Ramdas Pophale) SiO2 
 PCOD9261767
Probable space group: C 2/C
;
_chemical_formula_sum "Si O2"
_cell_formula_units_Z 36
_cell_length_a 18.520452
_cell_length_b 12.909741
_cell_length_c 8.833523
_cell_angle_alpha 90.000000
_cell_angle_beta 41.254547
_cell_angle_gamma 90.000000
_cell_volume 1392.693686
_symmetry_space_group_name_H-M "C 2/C"
_symmetry_group_IT_number 15
_symmetry_cell_setting 'monoclinic'
loop_
_space_group_symop_operation_xyz
x,y,z
-x,y,1/2-z
-x,-y,-z
x,-y,1/2+z
1/2+x,1/2+y,z
1/2-x,1/2+y,1/2-z
1/2-x,1/2-y,-z
1/2+x,1/2-y,1/2+z
loop_
_atom_site_type_symbol
_atom_site_label
_atom_site_fract_x
_atom_site_fract_y
_atom_site_fract_z
Si Si1 0.862176 0.865602 0.161774
Si Si2 0.665787 0.828333 0.983139
Si Si3 0.666320 0.441428 0.973892
Si Si4 0.843701 0.391628 0.190273
Si Si5 0.000000 0.484018 0.750000
O O1 0.884672 0.883023 0.302397
O O2 0.729449 0.863968 0.341468
O O3 0.898978 0.969232 0.013799
O O4 0.891429 0.760427 0.027678
O O5 0.663120 0.808092 0.166854
O O6 0.598750 0.935695 0.090387
O O7 0.780339 0.861305 0.726711
O O8 0.770734 0.511001 0.866723
O O9 0.966747 0.413431 0.944305
#
# Coordination Sequence:
#
# PCOD9261767 Si02
#       5
#     8   8   8   8   4
#     4  10  19  31  53  77 108 140 180 217 258 314
#     4  11  19  32  53  79 108 141 177 212 268 320
#     4   9  17  32  48  75 107 137 173 222 258 300
#     4   9  18  33  51  76 108 143 165 220 270 306
#     4  10  20  32  54  78 118 134 168 220 280 306
#
# _framework density 25.849186
#
# number of rings (size 3 to 8) (size 9 to 14) (size 15 to 20)
#    1.333    0.889    2.222    2.000    0.000    1.778 
#    0.000    0.000    0.000    1.333    0.000    1.556 
#    0.000    0.000    0.000    0.000    0.000    0.000 
#
# Total GULP energy -100257.373956 kJ/mol
# GULP energy per Si atom -5569.854109 kJ/mol
# Density = 2.579035 g / cm^3
# Si number density = 25.849186 Si / 1000 Ang^3
#
#
#
# Elastic Constant Matrix: (Units=GPa)
#
#
# Indices 1 2 3 4 5 6 
#
# 1 28.3113 13.5195 27.8548 0.0000 20.9953 0.0000
# 2 13.5195 121.2203 73.3084 0.0000 17.5228 0.0000
# 3 27.8548 73.3084 167.1195 0.0000 27.6931 0.0000
# 4 0.0000 0.0000 0.0000 41.2327 0.0000 14.5441
# 5 20.9953 17.5228 27.6931 0.0000 37.4311 0.0000
# 6 0.0000 0.0000 0.0000 14.5441 0.0000 21.8268
#
#
#
# Elastic Compliance Matrix: (Units=1/GPa)
#
#
# Indices 1 2 3 4 5 6 
#
# 1 0.064608 0.001011 -0.005845 0.000000 -0.032388 0.000000
# 2 0.001011 0.011356 -0.004758 0.000000 -0.002363 0.000000
# 3 -0.005845 -0.004758 0.009269 0.000000 -0.001352 0.000000
# 4 0.000000 0.000000 0.000000 0.031704 0.000000 -0.021126
# 5 -0.032388 -0.002363 -0.001352 0.000000 0.046988 0.000000
# 6 0.000000 0.000000 0.000000 -0.021126 0.000000 0.059892
#
#
# Mechanical properties :
#
#
# Convention : Reuss Voigt Hill
#
# Bulk Modulus (GPa) = 15.14050 60.66850 37.90450
# Shear Modulus (GPa) = 18.86659 33.56269 26.21464
#
# Velocity S-wave (km/s) = 2.70455 3.60725 3.18801
# Velocity P-wave (km/s) = 3.95256 6.39302 5.31477
#
# Compressibility (1/GPa) = 0.06604802
#
# Stress axis : x y z
#
# Youngs Moduli (GPa) = 15.47799 88.06038 107.88358
#
# Poissons Ratio (x) = -0.08903 0.63060
# Poissons Ratio (y) = -0.01565 0.51334
# Poissons Ratio (z) = 0.09047 0.41902
#
# Static dielectric constant tensor:
#      x y z
#    x 2.129950 0.000000 0.026740 
#    y 0.000000 2.129990 0.000000 
#    z 0.026740 0.000000 2.085160 
# 
# From -- ./inp_files/55077.got.cif
#   From: 2010.05.17/outbox.cif.g08.bks.cpg/sg15_28_cif.got.tgz:55077.got - 2010.06.03 18:47:42.
