data_PCOD9261732
_publ_section_title
;
Structure prediction by ZEFSAII (Michael W. Deem and Ramdas Pophale) SiO2 
 PCOD9261732
Probable space group: C 2/C
;
_chemical_formula_sum "Si O2"
_cell_formula_units_Z 60
_cell_length_a 15.134646
_cell_length_b 29.421239
_cell_length_c 7.849503
_cell_angle_alpha 90.000000
_cell_angle_beta 82.902635
_cell_angle_gamma 90.000000
_cell_volume 3468.445234
_symmetry_space_group_name_H-M "C 2/C"
_symmetry_group_IT_number 15
_symmetry_cell_setting 'monoclinic'
loop_
_space_group_symop_operation_xyz
x,y,z
-x,y,1/2-z
-x,-y,-z
x,-y,1/2+z
1/2+x,1/2+y,z
1/2-x,1/2+y,1/2-z
1/2-x,1/2-y,-z
1/2+x,1/2-y,1/2+z
loop_
_atom_site_type_symbol
_atom_site_label
_atom_site_fract_x
_atom_site_fract_y
_atom_site_fract_z
Si Si1 0.603761 0.038996 0.734947
Si Si2 0.399639 0.227886 0.999856
Si Si3 0.124393 0.437491 0.854967
Si Si4 0.500000 0.289071 0.250000
Si Si5 0.813653 0.397533 0.002938
Si Si6 0.187309 0.180021 0.591652
Si Si7 0.222833 0.236979 0.245281
Si Si8 0.996351 0.352817 0.939672
O O1 0.500000 0.054798 0.750000
O O2 0.650452 0.050160 0.543033
O O3 0.598444 0.985494 0.777231
O O4 0.657121 0.062849 0.875034
O O5 0.462838 0.258330 0.103809
O O6 0.307311 0.217069 0.122171
O O7 0.450234 0.180895 0.952262
O O8 0.364403 0.255403 0.846752
O O9 0.185206 0.414148 0.694430
O O10 0.045513 0.401071 0.904083
O O11 0.415269 0.317366 0.332317
O O12 0.894389 0.361382 0.004417
O O13 0.726130 0.370378 0.074523
O O14 0.201904 0.204779 0.407563
O O15 0.242657 0.213272 0.704316
O O16 0.000000 0.331336 0.750000
#
# Coordination Sequence:
#
# PCOD9261732 Si02
#       8
#     8   8   8   4   8   8   8   8
#     4  12  21  35  54  82 118 159 185 221 280 347
#     4  10  19  35  56  81 109 149 189 229 277 339
#     4  11  22  35  54  79 120 154 184 222 278 342
#     4  10  22  40  56  76 110 148 190 240 290 342
#     4  11  23  36  53  81 113 149 191 239 274 333
#     4  10  22  39  54  78 109 147 189 245 288 328
#     4   9  20  35  56  78 108 144 188 238 282 327
#     4  10  19  31  51  79 111 151 185 227 267 329
#
# _framework density 17.298815999999999
#
# number of rings (size 3 to 8) (size 9 to 14) (size 15 to 20)
#    0.000    1.600    3.333    3.200    5.600    0.533 
#    2.400    0.000    0.000    0.000    0.000    0.933 
#    0.000    0.000    0.000    0.000    0.000    0.000 
#
# Total GULP energy -167313.143615 kJ/mol
# GULP energy per Si atom -5577.104787 kJ/mol
# Density = 1.725944 g / cm^3
# Si number density = 17.298816 Si / 1000 Ang^3
#
#
#
# Elastic Constant Matrix: (Units=GPa)
#
#
# Indices 1 2 3 4 5 6 
#
# 1 70.6575 48.7415 19.8496 0.0000 6.4223 0.0000
# 2 48.7415 74.4405 23.1727 0.0000 -4.6937 0.0000
# 3 19.8496 23.1727 72.9099 0.0000 6.7290 0.0000
# 4 0.0000 0.0000 0.0000 6.6307 0.0000 -4.0249
# 5 6.4223 -4.6937 6.7290 0.0000 23.6941 0.0000
# 6 0.0000 0.0000 0.0000 -4.0249 0.0000 12.5043
#
#
#
# Elastic Compliance Matrix: (Units=1/GPa)
#
#
# Indices 1 2 3 4 5 6 
#
# 1 0.028686 -0.019311 -0.000618 0.000000 -0.011425 0.000000
# 2 -0.019311 0.028372 -0.004890 0.000000 0.012243 0.000000
# 3 -0.000618 -0.004890 0.015929 0.000000 -0.005325 0.000000
# 4 0.000000 0.000000 0.000000 0.187437 0.000000 0.060333
# 5 -0.011425 0.012243 -0.005325 0.000000 0.049239 0.000000
# 6 0.000000 0.000000 0.000000 0.060333 0.000000 0.099393
#
#
# Mechanical properties :
#
#
# Convention : Reuss Voigt Hill
#
# Bulk Modulus (GPa) = 42.82628 44.61506 43.72067
# Shear Modulus (GPa) = 10.71865 16.98209 13.85037
#
# Velocity S-wave (km/s) = 2.49191 3.13659 2.83265
# Velocity P-wave (km/s) = 5.75239 6.24215 6.00227
#
# Compressibility (1/GPa) = 0.02335015
#
# Stress axis : x y z
#
# Youngs Moduli (GPa) = 34.86024 35.24609 62.77711
#
# Poissons Ratio (x) = 0.68063 0.03878
# Poissons Ratio (y) = 0.67318 0.30698
# Poissons Ratio (z) = 0.02153 0.17235
#
# Static dielectric constant tensor:
#      x y z
#    x 1.566110 0.000000 0.002150 
#    y 0.000000 1.596120 0.000000 
#    z 0.002150 0.000000 1.662560 
# 
# From -- ./inp_files/43185.got.cif
#   From: 2010.05.17/outbox.cif.g08.bks.cpg/sg15_22_cif.got.tgz:43185.got - 2010.06.03 18:47:42.
