data_PCOD9261409
_publ_section_title
;
Structure prediction by ZEFSAII (Michael W. Deem and Ramdas Pophale) SiO2 
 PCOD9261409
Probable space group: C 2/C
;
_chemical_formula_sum "Si O2"
_cell_formula_units_Z 56
_cell_length_a 10.313269
_cell_length_b 21.255872
_cell_length_c 17.912789
_cell_angle_alpha 90.000000
_cell_angle_beta 146.583004
_cell_angle_gamma 90.000000
_cell_volume 2162.598636
_symmetry_space_group_name_H-M "C 2/C"
_symmetry_group_IT_number 15
_symmetry_cell_setting 'monoclinic'
loop_
_space_group_symop_operation_xyz
x,y,z
-x,y,1/2-z
-x,-y,-z
x,-y,1/2+z
1/2+x,1/2+y,z
1/2-x,1/2+y,1/2-z
1/2-x,1/2-y,-z
1/2+x,1/2-y,1/2+z
loop_
_atom_site_type_symbol
_atom_site_label
_atom_site_fract_x
_atom_site_fract_y
_atom_site_fract_z
Si Si1 0.630015 0.039924 0.971115
Si Si2 0.000000 0.310113 0.250000
Si Si3 0.991396 0.068629 0.032239
Si Si4 0.213063 0.360804 0.198350
Si Si5 0.000000 0.888107 0.750000
Si Si6 0.035193 0.417619 0.678623
Si Si7 0.613147 0.784372 0.569891
Si Si8 0.641558 0.329483 0.480158
O O1 0.738274 0.071402 0.948065
O O2 0.814130 0.065237 0.119775
O O3 0.372609 0.068921 0.859570
O O4 0.599291 0.966848 0.938527
O O5 0.878332 0.342850 0.262246
O O6 0.789593 0.266240 0.116991
O O7 0.186050 0.074433 0.190875
O O8 0.054803 0.122413 0.004121
O O9 0.000000 0.000000 0.000000
O O10 0.490710 0.349484 0.335606
O O11 0.064863 0.317576 0.071916
O O12 0.804633 0.836892 0.689040
O O13 0.913972 0.350270 0.607710
O O14 0.000000 0.434738 0.750000
O O15 0.444326 0.739858 0.539464
#
# Coordination Sequence:
#
# PCOD9261409 Si02
#       8
#     8   4   8   8   4   8   8   8
#     4  11  20  35  60  84 129 151 202 255 310 365
#     4   9  16  26  46  78 112 142 196 245 310 335
#     4  11  20  34  57  90 119 152 195 253 310 351
#     4  10  19  29  53  85 115 157 190 252 305 356
#     4   9  22  38  56  92 122 168 196 253 304 363
#     4  10  21  35  58  89 123 150 201 256 307 359
#     4   9  18  33  51  78 120 153 202 240 298 363
#     4  10  20  33  56  85 120 153 196 249 306 359
#
# _framework density 25.894772
#
# number of rings (size 3 to 8) (size 9 to 14) (size 15 to 20)
#    0.000    2.000    2.857    3.000    1.000    4.571 
#    0.000    0.714    0.000   13.714    0.000    0.000 
#    0.000    0.000    0.000    0.000    0.000    0.000 
#
# Total GULP energy -156311.115038 kJ/mol
# GULP energy per Si atom -5582.539823 kJ/mol
# Density = 2.583583 g / cm^3
# Si number density = 25.894772 Si / 1000 Ang^3
#
#
#
# Elastic Constant Matrix: (Units=GPa)
#
#
# Indices 1 2 3 4 5 6 
#
# 1 54.9906 26.5344 30.1089 0.0010 11.5910 0.0004
# 2 26.5344 156.6301 67.5154 0.0014 -14.4828 0.0005
# 3 30.1089 67.5154 150.8410 0.0020 15.9890 0.0001
# 4 0.0010 0.0014 0.0020 26.7960 0.0012 -3.1626
# 5 11.5910 -14.4828 15.9890 0.0012 34.5804 0.0003
# 6 0.0004 0.0005 0.0001 -3.1626 0.0003 16.0871
#
#
#
# Elastic Compliance Matrix: (Units=1/GPa)
#
#
# Indices 1 2 3 4 5 6 
#
# 1 0.022854 -0.003787 -0.001984 0.000000 -0.008329 0.000000
# 2 -0.003787 0.009542 -0.004283 0.000000 0.007246 0.000000
# 3 -0.001984 -0.004283 0.009529 0.000000 -0.005535 0.000000
# 4 0.000000 0.000000 0.000000 0.038205 -0.000001 0.007511
# 5 -0.008329 0.007246 -0.005535 -0.000001 0.037304 -0.000001
# 6 0.000000 0.000000 0.000000 0.007511 -0.000001 0.063638
#
#
# Mechanical properties :
#
#
# Convention : Reuss Voigt Hill
#
# Bulk Modulus (GPa) = 45.83434 67.86435 56.84935
# Shear Modulus (GPa) = 23.98616 31.37958 27.68287
#
# Velocity S-wave (km/s) = 3.04681 3.48488 3.27318
# Velocity P-wave (km/s) = 5.48781 6.51592 6.02384
#
# Compressibility (1/GPa) = 0.02181770
#
# Stress axis : x y z
#
# Youngs Moduli (GPa) = 43.75614 104.79682 104.93800
#
# Poissons Ratio (x) = 0.39681 0.20821
# Poissons Ratio (y) = 0.16568 0.44948
# Poissons Ratio (z) = 0.08682 0.44888
#
# Static dielectric constant tensor:
#      x y z
#    x 2.272020 0.000000 -0.017600 
#    y 0.000000 2.019660 0.000000 
#    z -0.017600 0.000000 2.064350 
# 
# From -- ./inp_files/299377.got.cif
#   From: 2010.05.17/outbox.cif.g08.bks.cpg/sg15_150_cif.got.tgz:299377.got - 2010.06.03 18:47:42.
