data_PCOD9261304
_publ_section_title
;
Structure prediction by ZEFSAII (Michael W. Deem and Ramdas Pophale) SiO2 
 PCOD9261304
Probable space group: C 2/C
;
_chemical_formula_sum "Si O2"
_cell_formula_units_Z 56
_cell_length_a 33.232372
_cell_length_b 14.842577
_cell_length_c 9.662831
_cell_angle_alpha 90.000000
_cell_angle_beta 45.817616
_cell_angle_gamma 90.000000
_cell_volume 3417.982627
_symmetry_space_group_name_H-M "C 2/C"
_symmetry_group_IT_number 15
_symmetry_cell_setting 'monoclinic'
loop_
_space_group_symop_operation_xyz
x,y,z
-x,y,1/2-z
-x,-y,-z
x,-y,1/2+z
1/2+x,1/2+y,z
1/2-x,1/2+y,1/2-z
1/2-x,1/2-y,-z
1/2+x,1/2-y,1/2+z
loop_
_atom_site_type_symbol
_atom_site_label
_atom_site_fract_x
_atom_site_fract_y
_atom_site_fract_z
Si Si1 0.127753 0.162075 0.993734
Si Si2 0.661357 0.221131 0.662514
Si Si3 0.025379 0.100070 0.421585
Si Si4 0.730555 0.607475 0.112261
Si Si5 0.316126 0.491217 0.519588
Si Si6 0.902363 0.156310 0.733544
Si Si7 0.563315 0.269908 0.064588
O O1 0.146619 0.243870 0.045085
O O2 0.068511 0.122557 0.195412
O O3 0.126940 0.188513 0.835909
O O4 0.168634 0.078478 0.925899
O O5 0.690992 0.307410 0.666336
O O6 0.706027 0.141672 0.555785
O O7 0.602444 0.205580 0.880307
O O8 0.054442 0.138540 0.492827
O O9 0.967975 0.153921 0.539544
O O10 0.000000 0.000000 0.500000
O O11 0.717152 0.575456 0.299538
O O12 0.715393 0.529106 0.039314
O O13 0.373089 0.440044 0.335990
O O14 0.903147 0.209357 0.875447
O O15 0.500000 0.239194 0.250000
#
# Coordination Sequence:
#
# PCOD9261304 Si02
#       7
#     8   8   8   8   8   8   8
#     4  10  20  30  44  67  96 133 165 201 240 278
#     4   9  19  36  49  66  99 136 162 195 252 300
#     4  10  19  27  41  64 100 137 165 188 227 280
#     4  10  20  34  51  68  96 132 166 206 246 286
#     4  11  19  30  47  69  91 125 170 207 239 274
#     4  11  19  27  43  67  98 124 166 205 223 273
#     4   9  19  31  47  70  97 132 164 195 235 292
#
# _framework density 16.383934
#
# number of rings (size 3 to 8) (size 9 to 14) (size 15 to 20)
#    0.000    2.000    4.286    0.429    2.000    1.143 
#    0.000    2.143    0.000    0.000    0.000    1.000 
#    0.000    0.000    0.000    0.000    0.000    0.000 
#
# Total GULP energy -155890.775019 kJ/mol
# GULP energy per Si atom -5567.527679 kJ/mol
# Density = 1.634664 g / cm^3
# Si number density = 16.383934 Si / 1000 Ang^3
#
#
#
# Elastic Constant Matrix: (Units=GPa)
#
#
# Indices 1 2 3 4 5 6 
#
# 1 81.3471 18.9196 43.8189 0.0000 10.9823 0.0000
# 2 18.9196 22.0078 21.3085 0.0000 -3.0991 0.0000
# 3 43.8189 21.3085 78.6840 0.0000 -0.2222 0.0000
# 4 0.0000 0.0000 0.0000 15.8851 0.0000 -8.0198
# 5 10.9823 -3.0991 -0.2222 0.0000 29.9064 0.0000
# 6 0.0000 0.0000 0.0000 -8.0198 0.0000 18.9155
#
#
#
# Elastic Compliance Matrix: (Units=1/GPa)
#
#
# Indices 1 2 3 4 5 6 
#
# 1 0.020569 -0.010565 -0.008618 0.000000 -0.008712 0.000000
# 2 -0.010565 0.068208 -0.012557 0.000000 0.010855 0.000000
# 3 -0.008618 -0.012557 0.020915 0.000000 0.002019 0.000000
# 4 0.000000 0.000000 0.000000 0.080097 0.000000 0.033959
# 5 -0.008712 0.010855 0.002019 0.000000 0.037777 0.000000
# 6 0.000000 0.000000 0.000000 0.033959 0.000000 0.067265
#
#
# Mechanical properties :
#
#
# Convention : Reuss Voigt Hill
#
# Bulk Modulus (GPa) = 21.64003 38.90365 30.27184
# Shear Modulus (GPa) = 13.37922 19.47418 16.42670
#
# Velocity S-wave (km/s) = 2.86073 3.45137 3.16984
# Velocity P-wave (km/s) = 4.91411 6.29914 5.64923
#
# Compressibility (1/GPa) = 0.04621066
#
# Stress axis : x y z
#
# Youngs Moduli (GPa) = 48.61761 14.66109 47.81301
#
# Poissons Ratio (x) = 0.15489 0.41206
# Poissons Ratio (y) = 0.51365 0.60040
# Poissons Ratio (z) = 0.41899 0.18410
#
# Static dielectric constant tensor:
#      x y z
#    x 1.578110 0.000000 0.006620 
#    y 0.000000 1.530690 0.000000 
#    z 0.006620 0.000000 1.582230 
# 
# From -- ./inp_files/62262.got.cif
#   From: 2010.05.17/outbox.cif.g08.bks.cpg/sg15_32_cif.got.tgz:62262.got - 2010.06.03 18:47:42.
