data_PCOD9261850
_publ_section_title
;
Structure prediction by ZEFSAII (Michael W. Deem and Ramdas Pophale) SiO2 
 PCOD9261850
Probable space group: C 2/C
;
_chemical_formula_sum "Si O2"
_cell_formula_units_Z 52
_cell_length_a 25.818868
_cell_length_b 9.655484
_cell_length_c 17.790317
_cell_angle_alpha 90.000000
_cell_angle_beta 40.442079
_cell_angle_gamma 90.000000
_cell_volume 2876.900089
_symmetry_space_group_name_H-M "C 2/C"
_symmetry_group_IT_number 15
_symmetry_cell_setting 'monoclinic'
loop_
_space_group_symop_operation_xyz
x,y,z
-x,y,1/2-z
-x,-y,-z
x,-y,1/2+z
1/2+x,1/2+y,z
1/2-x,1/2+y,1/2-z
1/2-x,1/2-y,-z
1/2+x,1/2-y,1/2+z
loop_
_atom_site_type_symbol
_atom_site_label
_atom_site_fract_x
_atom_site_fract_y
_atom_site_fract_z
Si Si1 0.130823 0.251926 0.080777
Si Si2 0.892344 0.583426 0.182067
Si Si3 0.000000 0.982795 0.750000
Si Si4 0.460305 0.632635 0.641431
Si Si5 0.201185 0.663857 0.664590
Si Si6 0.575351 0.341091 0.884770
Si Si7 0.961574 0.617543 0.944426
O O1 0.159409 0.308746 0.129717
O O2 0.082863 0.364622 0.084890
O O3 0.074726 0.119665 0.155692
O O4 0.207578 0.204178 0.948240
O O5 0.816927 0.492752 0.289977
O O6 0.901229 0.737374 0.203837
O O7 0.969391 0.497347 0.127319
O O8 0.903677 0.590685 0.079309
O O9 0.982752 0.078460 0.697909
O O10 0.422763 0.501349 0.639178
O O11 0.540515 0.673755 0.506835
O O12 0.156083 0.762099 0.774535
O O13 0.507210 0.262754 0.910703
#
# Coordination Sequence:
#
# PCOD9261850 Si02
#       7
#     8   8   4   8   8   8   8
#     4  11  21  36  60  81 108 159 200 232 276 351
#     4   9  19  35  56  85 113 139 184 245 287 326
#     4  12  20  36  56  88 110 148 202 232 272 354
#     4  10  19  31  59  82 112 143 182 235 288 332
#     4  10  21  38  58  80 116 151 192 239 287 336
#     4   9  17  35  57  81 106 148 190 228 279 345
#     4   9  17  35  59  79 107 147 194 232 274 338
#
# _framework density 18.075009999999999
#
# number of rings (size 3 to 8) (size 9 to 14) (size 15 to 20)
#    0.000    2.154    3.077    1.846    0.000    1.231 
#    2.769    0.769    3.385    0.000    0.000    0.000 
#    0.000    0.000    0.000    0.000    0.000    0.000 
#
# Total GULP energy -145033.717266 kJ/mol
# GULP energy per Si atom -5578.219895 kJ/mol
# Density = 1.803387 g / cm^3
# Si number density = 18.075010 Si / 1000 Ang^3
#
#
#
# Elastic Constant Matrix: (Units=GPa)
#
#
# Indices 1 2 3 4 5 6 
#
# 1 27.8972 -2.3672 5.6000 -0.0003 7.1361 0.0004
# 2 -2.3672 94.8397 19.4715 -0.0004 -1.0428 0.0008
# 3 5.6000 19.4715 96.5775 0.0001 -6.5324 0.0001
# 4 -0.0003 -0.0004 0.0001 29.7383 0.0001 8.8933
# 5 7.1361 -1.0428 -6.5324 0.0001 18.0037 -0.0002
# 6 0.0004 0.0008 0.0001 8.8933 -0.0002 16.7887
#
#
#
# Elastic Compliance Matrix: (Units=1/GPa)
#
#
# Indices 1 2 3 4 5 6 
#
# 1 0.041300 0.001642 -0.003923 0.000001 -0.017698 -0.000002
# 2 0.001642 0.011065 -0.002385 0.000000 -0.000875 -0.000001
# 3 -0.003923 -0.002385 0.011439 0.000000 0.005567 0.000000
# 4 0.000001 0.000000 0.000000 0.039956 -0.000001 -0.021166
# 5 -0.017698 -0.000875 0.005567 -0.000001 0.064529 0.000002
# 6 -0.000002 -0.000001 0.000000 -0.021166 0.000002 0.070776
#
#
# Mechanical properties :
#
#
# Convention : Reuss Voigt Hill
#
# Bulk Modulus (GPa) = 18.35828 29.41369 23.88599
# Shear Modulus (GPa) = 18.75786 26.01347 22.38567
#
# Velocity S-wave (km/s) = 3.22495 3.79779 3.52303
# Velocity P-wave (km/s) = 4.90366 5.96149 5.45826
#
# Compressibility (1/GPa) = 0.05447132
#
# Stress axis : x y z
#
# Youngs Moduli (GPa) = 24.21320 90.37356 87.41773
#
# Poissons Ratio (x) = -0.14836 0.34292
# Poissons Ratio (y) = -0.03975 0.20852
# Poissons Ratio (z) = 0.09498 0.21557
#
# Static dielectric constant tensor:
#      x y z
#    x 1.611800 0.000000 0.007750 
#    y 0.000000 1.623550 0.000000 
#    z 0.007750 0.000000 1.644900 
# 
# From -- ./inp_files/224220.got.cif
#   From: 2010.05.17/outbox.cif.g08.bks.cpg/sg15_113_cif.got.tgz:224220.got - 2010.06.03 18:47:42.
