data_PCOD9261512
_publ_section_title
;
Structure prediction by ZEFSAII (Michael W. Deem and Ramdas Pophale) SiO2 
 PCOD9261512
Probable space group: C 2/C
;
_chemical_formula_sum "Si O2"
_cell_formula_units_Z 40
_cell_length_a 9.388791
_cell_length_b 14.446147
_cell_length_c 14.916741
_cell_angle_alpha 90.000000
_cell_angle_beta 136.963864
_cell_angle_gamma 90.000000
_cell_volume 1380.741962
_symmetry_space_group_name_H-M "C 2/C"
_symmetry_group_IT_number 15
_symmetry_cell_setting 'monoclinic'
loop_
_space_group_symop_operation_xyz
x,y,z
-x,y,1/2-z
-x,-y,-z
x,-y,1/2+z
1/2+x,1/2+y,z
1/2-x,1/2+y,1/2-z
1/2-x,1/2-y,-z
1/2+x,1/2-y,1/2+z
loop_
_atom_site_type_symbol
_atom_site_label
_atom_site_fract_x
_atom_site_fract_y
_atom_site_fract_z
Si Si1 0.512406 0.040037 0.906573
Si Si2 0.998141 0.657350 0.146218
Si Si3 0.998896 0.055347 0.138574
Si Si4 0.507966 0.757905 0.360825
Si Si5 0.014217 0.853926 0.364371
O O1 0.755584 0.054245 0.996590
O O2 0.424889 0.144339 0.860967
O O3 0.500000 0.000000 0.000000
O O4 0.420573 0.948574 0.817771
O O5 0.071406 0.755795 0.136164
O O6 0.000000 0.682099 0.250000
O O7 0.760641 0.647980 0.001465
O O8 0.082468 0.157578 0.150384
O O9 0.000000 0.057341 0.250000
O O10 0.068208 0.953051 0.138889
O O11 0.500000 0.764677 0.250000
O O12 0.750000 0.750000 0.500000
O O13 0.000000 0.861670 0.250000
#
# Coordination Sequence:
#
# PCOD9261512 Si02
#       5
#     8   8   8   8   8
#     4  10  19  30  49  79 110 130 167 227 273 290
#     4   9  16  27  47  73  96 127 172 208 243 311
#     4   8  15  30  54  70  93 137 178 198 245 323
#     4   9  17  31  55  79  98 140 183 211 251 327
#     4   8  14  26  48  72  89 122 173 201 238 295
#
# _framework density 28.969930999999999
#
# number of rings (size 3 to 8) (size 9 to 14) (size 15 to 20)
#    0.000    3.200    0.000    0.600    0.000    0.000 
#    0.000    0.000   79.200    1.200    0.000    0.000 
#    0.000    0.000    0.000    0.000    0.000    0.000 
#
# Total GULP energy -111766.701502 kJ/mol
# GULP energy per Si atom -5588.335075 kJ/mol
# Density = 2.890399 g / cm^3
# Si number density = 28.969931 Si / 1000 Ang^3
#
#
#
# Elastic Constant Matrix: (Units=GPa)
#
#
# Indices 1 2 3 4 5 6 
#
# 1 65.6831 67.7734 16.8575 0.0000 -1.6659 0.0000
# 2 67.7734 463.7767 39.5521 0.0000 40.2142 0.0000
# 3 16.8575 39.5521 133.4314 0.0000 1.5036 0.0000
# 4 0.0000 0.0000 0.0000 57.2106 0.0000 33.2713
# 5 -1.6659 40.2142 1.5036 0.0000 35.0911 0.0000
# 6 0.0000 0.0000 0.0000 33.2713 0.0000 68.7433
#
#
#
# Elastic Compliance Matrix: (Units=1/GPa)
#
#
# Indices 1 2 3 4 5 6 
#
# 1 0.018828 -0.003002 -0.001539 0.000000 0.004400 0.000000
# 2 -0.003002 0.002936 -0.000452 0.000000 -0.003488 0.000000
# 3 -0.001539 -0.000452 0.007822 0.000000 0.000109 0.000000
# 4 0.000000 0.000000 0.000000 0.024326 0.000000 -0.011774
# 5 0.004400 -0.003488 0.000109 0.000000 0.032698 0.000000
# 6 0.000000 0.000000 0.000000 -0.011774 0.000000 0.020245
#
#
# Mechanical properties :
#
#
# Convention : Reuss Voigt Hill
#
# Bulk Modulus (GPa) = 51.01599 101.25079 76.13339
# Shear Modulus (GPa) = 40.52736 68.12289 54.32513
#
# Velocity S-wave (km/s) = 3.74431 4.85449 4.33508
# Velocity P-wave (km/s) = 6.02838 8.15154 7.16899
#
# Compressibility (1/GPa) = 0.01960170
#
# Stress axis : x y z
#
# Youngs Moduli (GPa) = 53.11144 340.62322 127.85232
#
# Poissons Ratio (x) = 1.02247 0.19670
# Poissons Ratio (y) = 0.15943 0.05775
# Poissons Ratio (z) = 0.08171 0.15386
#
# Static dielectric constant tensor:
#      x y z
#    x 2.108860 0.000000 0.216480 
#    y 0.000000 2.868090 0.000000 
#    z 0.216480 0.000000 2.265060 
# 
# From -- ./inp_files/85708.got.cif
#   From: 2010.05.17/outbox.cif.g08.bks.cpg/sg15_43_cif.got.tgz:85708.got - 2010.06.03 18:47:42.
