data_PCOD9261645
_publ_section_title
;
Structure prediction by ZEFSAII (Michael W. Deem and Ramdas Pophale) SiO2 
 PCOD9261645
Probable space group: C 2/C
;
_chemical_formula_sum "Si O2"
_cell_formula_units_Z 56
_cell_length_a 20.971450
_cell_length_b 27.314968
_cell_length_c 5.098467
_cell_angle_alpha 90.000000
_cell_angle_beta 75.470432
_cell_angle_gamma 90.000000
_cell_volume 2827.172683
_symmetry_space_group_name_H-M "C 2/C"
_symmetry_group_IT_number 15
_symmetry_cell_setting 'monoclinic'
loop_
_space_group_symop_operation_xyz
x,y,z
-x,y,1/2-z
-x,-y,-z
x,-y,1/2+z
1/2+x,1/2+y,z
1/2-x,1/2+y,1/2-z
1/2-x,1/2-y,-z
1/2+x,1/2-y,1/2+z
loop_
_atom_site_type_symbol
_atom_site_label
_atom_site_fract_x
_atom_site_fract_y
_atom_site_fract_z
Si Si1 0.856855 0.771687 0.891039
Si Si2 0.793110 0.472418 0.471211
Si Si3 0.231031 0.372915 0.769992
Si Si4 0.876368 0.121233 0.122333
Si Si5 0.263302 0.805571 0.220572
Si Si6 0.500000 0.653909 0.750000
Si Si7 0.500000 0.724244 0.250000
Si Si8 0.633748 0.528780 0.053926
O O1 0.869947 0.824459 0.747480
O O2 0.811355 0.738040 0.756130
O O3 0.929657 0.748335 0.834778
O O4 0.811556 0.783577 0.193916
O O5 0.815379 0.485846 0.154847
O O6 0.808396 0.421244 0.602441
O O7 0.713622 0.470383 0.504218
O O8 0.303282 0.390745 0.594101
O O9 0.213083 0.334279 0.561610
O O10 0.236902 0.343285 0.035485
O O11 0.934277 0.122914 0.855087
O O12 0.891217 0.081285 0.327537
O O13 0.494542 0.689100 0.506553
O O14 0.613140 0.488615 0.290392
#
# Coordination Sequence:
#
# PCOD9261645 Si02
#       8
#     8   8   8   8   8   4   4   8
#     4   9  20  34  51  71  94 126 161 195 234 284
#     4   9  16  27  44  65  89 120 156 185 223 277
#     4  10  19  31  48  69  96 126 152 192 238 277
#     4   9  19  33  49  66  89 120 159 198 237 280
#     4  10  20  32  48  72  99 124 157 195 237 280
#     4  10  20  32  48  67  86 114 158 203 236 276
#     4  10  20  34  50  69  92 122 160 197 232 274
#     4   9  18  30  44  62  84 113 151 196 241 281
#
# _framework density 19.807774999999999
#
# number of rings (size 3 to 8) (size 9 to 14) (size 15 to 20)
#    0.000    2.571    0.000    1.714    0.000   16.571 
#    0.000    0.714    0.000    0.000    0.000    0.000 
#    0.000    0.000    0.000   12.857    0.000   11.714 
#
# Total GULP energy -156053.849173 kJ/mol
# GULP energy per Si atom -5573.351756 kJ/mol
# Density = 1.976269 g / cm^3
# Si number density = 19.807775 Si / 1000 Ang^3
#
#
#
# Elastic Constant Matrix: (Units=GPa)
#
#
# Indices 1 2 3 4 5 6 
#
# 1 46.4751 9.8583 6.7629 0.0000 -12.6711 0.0000
# 2 9.8583 64.7186 6.1577 0.0000 -3.0930 0.0000
# 3 6.7629 6.1577 62.5681 0.0000 22.8764 0.0000
# 4 0.0000 0.0000 0.0000 25.7224 0.0000 7.0836
# 5 -12.6711 -3.0930 22.8764 0.0000 20.2659 0.0000
# 6 0.0000 0.0000 0.0000 7.0836 0.0000 11.0528
#
#
#
# Elastic Compliance Matrix: (Units=1/GPa)
#
#
# Indices 1 2 3 4 5 6 
#
# 1 0.037904 -0.001469 -0.021345 0.000000 0.047569 0.000000
# 2 -0.001469 0.016261 -0.003428 0.000000 0.005432 0.000000
# 3 -0.021345 -0.003428 0.040352 0.000000 -0.059418 0.000000
# 4 0.000000 0.000000 0.000000 0.047208 0.000000 -0.030255
# 5 0.047569 0.005432 -0.059418 0.000000 0.146987 0.000000
# 6 0.000000 0.000000 0.000000 -0.030255 0.000000 0.109865
#
#
# Mechanical properties :
#
#
# Convention : Reuss Voigt Hill
#
# Bulk Modulus (GPa) = 23.79078 24.36885 24.07981
# Shear Modulus (GPa) = 10.75102 21.47377 16.11239
#
# Velocity S-wave (km/s) = 2.33227 3.29615 2.85518
# Velocity P-wave (km/s) = 4.39198 5.17837 4.80130
#
# Compressibility (1/GPa) = 0.04203309
#
# Stress axis : x y z
#
# Youngs Moduli (GPa) = 26.38244 61.49656 24.78203
#
# Poissons Ratio (x) = 0.09037 0.52897
# Poissons Ratio (y) = 0.03877 0.08494
# Poissons Ratio (z) = 0.56313 0.21079
#
# Static dielectric constant tensor:
#      x y z
#    x 1.770700 0.000000 0.011620 
#    y 0.000000 1.748720 0.000000 
#    z 0.011620 0.000000 1.737370 
# 
# From -- ./inp_files/13703.got.cif
#   From: 2010.05.17/outbox.cif.g08.bks.cpg/sg15_7_cif.got.tgz:13703.got - 2010.06.03 18:47:42.
