data_PCOD9261520
_publ_section_title
;
Structure prediction by ZEFSAII (Michael W. Deem and Ramdas Pophale) SiO2 
 PCOD9261520
Probable space group: C 2/C
;
_chemical_formula_sum "Si O2"
_cell_formula_units_Z 52
_cell_length_a 15.208404
_cell_length_b 22.920148
_cell_length_c 9.505204
_cell_angle_alpha 90.000000
_cell_angle_beta 121.537019
_cell_angle_gamma 90.000000
_cell_volume 2823.944850
_symmetry_space_group_name_H-M "C 2/C"
_symmetry_group_IT_number 15
_symmetry_cell_setting 'monoclinic'
loop_
_space_group_symop_operation_xyz
x,y,z
-x,y,1/2-z
-x,-y,-z
x,-y,1/2+z
1/2+x,1/2+y,z
1/2-x,1/2+y,1/2-z
1/2-x,1/2-y,-z
1/2+x,1/2-y,1/2+z
loop_
_atom_site_type_symbol
_atom_site_label
_atom_site_fract_x
_atom_site_fract_y
_atom_site_fract_z
Si Si1 0.014335 0.562032 0.087259
Si Si2 0.630810 0.155820 0.693783
Si Si3 0.298561 0.685083 0.036996
Si Si4 0.727699 0.682888 0.945173
Si Si5 0.460965 0.245353 0.511204
Si Si6 0.000000 0.801149 0.250000
Si Si7 0.699267 0.857225 0.703840
O O1 0.127246 0.586133 0.136802
O O2 0.000000 0.562614 0.250000
O O3 0.000000 0.500000 0.000000
O O4 0.935344 0.605680 0.938635
O O5 0.707653 0.145645 0.888643
O O6 0.713057 0.174657 0.647941
O O7 0.553269 0.209438 0.662240
O O8 0.405097 0.700489 0.044304
O O9 0.250000 0.750000 0.000000
O O10 0.300024 0.655634 0.192084
O O11 0.608414 0.667247 0.828329
O O12 0.750000 0.750000 0.000000
O O13 0.772290 0.646986 0.110316
O O14 0.506574 0.264356 0.398818
O O15 0.375106 0.197169 0.398593
#
# Coordination Sequence:
#
# PCOD9261520 Si02
#       7
#     8   8   8   8   8   4   8
#     4  11  25  41  64  90 114 151 206 255 311 357
#     4  11  21  37  57  77 125 160 193 242 294 348
#     4  10  21  35  47  81 116 162 193 228 289 353
#     4  12  19  33  54  82 114 162 197 236 280 361
#     4  10  19  30  50  78 110 161 192 227 273 355
#     4  12  20  28  52  80 112 156 204 222 268 340
#     4  10  21  37  54  78 118 151 194 241 300 343
#
# _framework density 18.413957
#
# number of rings (size 3 to 8) (size 9 to 14) (size 15 to 20)
#    0.000    1.231    6.154    0.923    4.308    4.923 
#    0.000    0.000    0.000    0.000    0.000    1.077 
#    0.000    0.000    0.000    0.000    0.000    0.000 
#
# Total GULP energy -144737.387870 kJ/mol
# GULP energy per Si atom -5566.822610 kJ/mol
# Density = 1.837205 g / cm^3
# Si number density = 18.413957 Si / 1000 Ang^3
#
#
#
# Elastic Constant Matrix: (Units=GPa)
#
#
# Indices 1 2 3 4 5 6 
#
# 1 121.8667 21.1436 13.4624 0.0000 -7.8748 0.0000
# 2 21.1436 57.6903 7.5456 0.0000 1.1481 0.0000
# 3 13.4624 7.5456 40.8868 0.0000 1.9346 0.0000
# 4 0.0000 0.0000 0.0000 20.9457 0.0000 -0.5344
# 5 -7.8748 1.1481 1.9346 0.0000 41.6872 0.0000
# 6 0.0000 0.0000 0.0000 -0.5344 0.0000 13.4028
#
#
#
# Elastic Compliance Matrix: (Units=1/GPa)
#
#
# Indices 1 2 3 4 5 6 
#
# 1 0.009141 -0.003057 -0.002537 0.000000 0.001929 0.000000
# 2 -0.003057 0.018790 -0.002415 0.000000 -0.000983 0.000000
# 3 -0.002537 -0.002415 0.025815 0.000000 -0.001611 0.000000
# 4 0.000000 0.000000 0.000000 0.047791 0.000000 0.001906
# 5 0.001929 -0.000983 -0.001611 0.000000 0.024454 0.000000
# 6 0.000000 0.000000 0.000000 0.001906 0.000000 0.074687
#
#
# Mechanical properties :
#
#
# Convention : Reuss Voigt Hill
#
# Bulk Modulus (GPa) = 26.50487 33.86079 30.18283
# Shear Modulus (GPa) = 21.80824 27.09327 24.45076
#
# Velocity S-wave (km/s) = 3.44515 3.83997 3.64790
# Velocity P-wave (km/s) = 5.50005 6.17164 5.84549
#
# Compressibility (1/GPa) = 0.03772891
#
# Stress axis : x y z
#
# Youngs Moduli (GPa) = 109.39849 53.22091 38.73734
#
# Poissons Ratio (x) = 0.16268 0.09827
# Poissons Ratio (y) = 0.33440 0.09354
# Poissons Ratio (z) = 0.27753 0.12851
#
# Static dielectric constant tensor:
#      x y z
#    x 1.630520 0.000000 0.036400 
#    y 0.000000 1.611510 0.000000 
#    z 0.036400 0.000000 1.691060 
# 
# From -- ./inp_files/42344.got.cif
#   From: 2010.05.17/outbox.cif.g08.bks.cpg/sg15_22_cif.got.tgz:42344.got - 2010.06.03 18:47:42.
