data_PCOD9261117
_publ_section_title
;
Structure prediction by ZEFSAII (Michael W. Deem and Ramdas Pophale) SiO2 
 PCOD9261117
Probable space group: C 2/C
;
_chemical_formula_sum "Si O2"
_cell_formula_units_Z 48
_cell_length_a 15.461001
_cell_length_b 9.070431
_cell_length_c 15.589598
_cell_angle_alpha 90.000000
_cell_angle_beta 68.360919
_cell_angle_gamma 90.000000
_cell_volume 2032.177343
_symmetry_space_group_name_H-M "C 2/C"
_symmetry_group_IT_number 15
_symmetry_cell_setting 'monoclinic'
loop_
_space_group_symop_operation_xyz
x,y,z
-x,y,1/2-z
-x,-y,-z
x,-y,1/2+z
1/2+x,1/2+y,z
1/2-x,1/2+y,1/2-z
1/2-x,1/2-y,-z
1/2+x,1/2-y,1/2+z
loop_
_atom_site_type_symbol
_atom_site_label
_atom_site_fract_x
_atom_site_fract_y
_atom_site_fract_z
Si Si1 0.692590 0.175533 0.855293
Si Si2 0.662651 0.346746 0.503042
Si Si3 0.509010 0.158433 0.651912
Si Si4 0.564428 0.902565 0.543006
Si Si5 0.526774 0.434880 0.084182
Si Si6 0.670817 0.511436 0.816415
O O1 0.596041 0.145745 0.840806
O O2 0.705100 0.350997 0.836266
O O3 0.770189 0.078697 0.781814
O O4 0.663433 0.125033 0.961407
O O5 0.750000 0.250000 0.500000
O O6 0.572331 0.252792 0.564635
O O7 0.630033 0.500012 0.560322
O O8 0.676478 0.381291 0.397537
O O9 0.500000 0.218520 0.750000
O O10 0.560700 0.000550 0.629520
O O11 0.527506 0.740626 0.577814
O O12 0.500000 0.000000 0.500000
O O13 0.438296 0.490096 0.170260
O O14 0.500000 0.500000 0.000000
#
# Coordination Sequence:
#
# PCOD9261117 Si02
#       6
#     8   8   8   8   8   8
#     4  11  22  38  67 101 129 170 233 285 336 413
#     4  11  22  42  67  90 134 181 222 283 357 418
#     4  11  24  43  64  95 138 178 222 279 359 423
#     4  10  20  38  67  94 127 175 226 285 338 405
#     4  10  18  40  65  92 127 172 229 286 335 410
#     4  11  22  37  67 101 128 168 232 291 339 417
#
# _framework density 23.619986000000001
#
# number of rings (size 3 to 8) (size 9 to 14) (size 15 to 20)
#    0.000    1.333    5.000    4.000    7.000    0.000 
#    0.000    1.667    0.000    0.000    0.000    0.000 
#    0.000    0.000    0.000    0.000    0.000    0.000 
#
# Total GULP energy -133907.275017 kJ/mol
# GULP energy per Si atom -5579.469792 kJ/mol
# Density = 2.356623 g / cm^3
# Si number density = 23.619986 Si / 1000 Ang^3
#
#
#
# Elastic Constant Matrix: (Units=GPa)
#
#
# Indices 1 2 3 4 5 6 
#
# 1 76.2944 16.2994 32.1301 0.0000 -25.1404 0.0000
# 2 16.2994 156.8654 43.3625 0.0000 -13.2588 0.0000
# 3 32.1301 43.3625 121.2444 0.0000 -35.7828 0.0000
# 4 0.0000 0.0000 0.0000 45.7265 0.0000 -16.0086
# 5 -25.1404 -13.2588 -35.7828 0.0000 38.5124 0.0000
# 6 0.0000 0.0000 0.0000 -16.0086 0.0000 26.3828
#
#
#
# Elastic Compliance Matrix: (Units=1/GPa)
#
#
# Indices 1 2 3 4 5 6 
#
# 1 0.016989 -0.000547 -0.001501 0.000000 0.009508 0.000000
# 2 -0.000547 0.007092 -0.002447 0.000000 -0.000189 0.000000
# 3 -0.001501 -0.002447 0.012377 0.000000 0.009678 0.000000
# 4 0.000000 0.000000 0.000000 0.027768 0.000000 0.016849
# 5 0.009508 -0.000189 0.009678 0.000000 0.041099 0.000000
# 6 0.000000 0.000000 0.000000 0.016849 0.000000 0.048127
#
#
# Mechanical properties :
#
#
# Convention : Reuss Voigt Hill
#
# Bulk Modulus (GPa) = 36.40558 59.77648 48.09103
# Shear Modulus (GPa) = 29.13792 39.63181 34.38487
#
# Velocity S-wave (km/s) = 3.51609 4.10065 3.81957
# Velocity P-wave (km/s) = 5.65070 6.91252 6.31322
#
# Compressibility (1/GPa) = 0.02746831
#
# Stress axis : x y z
#
# Youngs Moduli (GPa) = 58.86225 140.99852 80.79561
#
# Poissons Ratio (x) = 0.07710 0.12124
# Poissons Ratio (y) = 0.03219 0.19774
# Poissons Ratio (z) = 0.08832 0.34509
#
# Static dielectric constant tensor:
#      x y z
#    x 1.975910 0.000000 0.032560 
#    y 0.000000 2.023000 0.000000 
#    z 0.032560 0.000000 1.942070 
# 
# From -- ./inp_files/208940.got.cif
#   From: 2010.05.17/outbox.cif.g08.bks.cpg/sg15_105_cif.got.tgz:208940.got - 2010.06.03 18:47:42.
