data_PCOD9261680
_publ_section_title
;
Structure prediction by ZEFSAII (Michael W. Deem and Ramdas Pophale) SiO2 
 PCOD9261680
Probable space group: C 2/C
;
_chemical_formula_sum "Si O2"
_cell_formula_units_Z 32
_cell_length_a 7.175618
_cell_length_b 18.511336
_cell_length_c 8.976556
_cell_angle_alpha 90.000000
_cell_angle_beta 106.887642
_cell_angle_gamma 90.000000
_cell_volume 1140.939458
_symmetry_space_group_name_H-M "C 2/C"
_symmetry_group_IT_number 15
_symmetry_cell_setting 'monoclinic'
loop_
_space_group_symop_operation_xyz
x,y,z
-x,y,1/2-z
-x,-y,-z
x,-y,1/2+z
1/2+x,1/2+y,z
1/2-x,1/2+y,1/2-z
1/2-x,1/2-y,-z
1/2+x,1/2-y,1/2+z
loop_
_atom_site_type_symbol
_atom_site_label
_atom_site_fract_x
_atom_site_fract_y
_atom_site_fract_z
Si Si1 0.223868 0.526189 0.819019
Si Si2 0.660163 0.161879 0.649758
Si Si3 0.493598 0.391102 0.587233
Si Si4 0.082450 0.246025 0.588911
O O1 0.256164 0.582746 0.689627
O O2 0.355417 0.455845 0.856368
O O3 0.000000 0.505045 0.750000
O O4 0.294497 0.571873 0.980712
O O5 0.500000 0.158473 0.750000
O O6 0.544075 0.183616 0.475295
O O7 0.803575 0.226441 0.734771
O O8 0.500000 0.355034 0.750000
O O9 0.532867 0.327396 0.480915
O O10 0.250000 0.250000 0.500000
#
# Coordination Sequence:
#
# PCOD9261680 Si02
#       4
#     8   8   8   8
#     4   9  19  33  47  68 100 129 154 192 240 283
#     4   8  14  25  42  63  89 118 148 188 231 269
#     4  10  19  31  49  73  96 123 161 198 232 278
#     4   9  15  25  44  69  91 113 150 196 233 267
#
# _framework density 28.047062
#
# number of rings (size 3 to 8) (size 9 to 14) (size 15 to 20)
#    0.000    3.000    0.000    3.750    0.000    1.000 
#    0.000    0.000    0.000    1.500    0.000   15.750 
#    0.000    0.000    0.000    0.000    0.000    0.000 
#
# Total GULP energy -89554.958115 kJ/mol
# GULP energy per Si atom -5597.184882 kJ/mol
# Density = 2.798323 g / cm^3
# Si number density = 28.047062 Si / 1000 Ang^3
#
#
#
# Elastic Constant Matrix: (Units=GPa)
#
#
# Indices 1 2 3 4 5 6 
#
# 1 75.9849 31.4632 46.5232 0.0000 29.8338 0.0000
# 2 31.4632 153.5302 67.3269 0.0000 17.2875 0.0000
# 3 46.5232 67.3269 173.8643 0.0000 15.6304 0.0000
# 4 0.0000 0.0000 0.0000 79.4307 0.0000 14.3664
# 5 29.8338 17.2875 15.6304 0.0000 65.0193 0.0000
# 6 0.0000 0.0000 0.0000 14.3664 0.0000 38.1242
#
#
#
# Elastic Compliance Matrix: (Units=1/GPa)
#
#
# Indices 1 2 3 4 5 6 
#
# 1 0.019026 -0.001352 -0.003899 0.000000 -0.007433 0.000000
# 2 -0.001352 0.008066 -0.002683 0.000000 -0.000879 0.000000
# 3 -0.003899 -0.002683 0.007777 0.000000 0.000633 0.000000
# 4 0.000000 0.000000 0.000000 0.013510 0.000000 -0.005091
# 5 -0.007433 -0.000879 0.000633 0.000000 0.018872 0.000000
# 6 0.000000 0.000000 0.000000 -0.005091 0.000000 0.028149
#
#
# Mechanical properties :
#
#
# Convention : Reuss Voigt Hill
#
# Bulk Modulus (GPa) = 52.62862 77.11178 64.87020
# Shear Modulus (GPa) = 42.51629 53.71926 48.11777
#
# Velocity S-wave (km/s) = 3.89767 4.38119 4.14648
# Velocity P-wave (km/s) = 6.24987 7.29017 6.78997
#
# Compressibility (1/GPa) = 0.01900107
#
# Stress axis : x y z
#
# Youngs Moduli (GPa) = 52.55883 123.97956 128.58628
#
# Poissons Ratio (x) = 0.16764 0.50139
# Poissons Ratio (y) = 0.07107 0.34494
# Poissons Ratio (z) = 0.20494 0.33258
#
# Static dielectric constant tensor:
#      x y z
#    x 2.532470 0.000000 -0.074120 
#    y 0.000000 2.144400 0.000000 
#    z -0.074120 0.000000 2.105420 
# 
# From -- ./inp_files/22112.got.cif
#   From: 2010.05.17/outbox.cif.g08.bks.cpg/sg15_12_cif.got.tgz:22112.got - 2010.06.03 18:47:42.
