data_PCOD9261521
_publ_section_title
;
Structure prediction by ZEFSAII (Michael W. Deem and Ramdas Pophale) SiO2 
 PCOD9261521
Probable space group: C 2/C
;
_chemical_formula_sum "Si O2"
_cell_formula_units_Z 48
_cell_length_a 19.047559
_cell_length_b 14.352866
_cell_length_c 8.976479
_cell_angle_alpha 90.000000
_cell_angle_beta 70.575218
_cell_angle_gamma 90.000000
_cell_volume 2314.365814
_symmetry_space_group_name_H-M "C 2/C"
_symmetry_group_IT_number 15
_symmetry_cell_setting 'monoclinic'
loop_
_space_group_symop_operation_xyz
x,y,z
-x,y,1/2-z
-x,-y,-z
x,-y,1/2+z
1/2+x,1/2+y,z
1/2-x,1/2+y,1/2-z
1/2-x,1/2-y,-z
1/2+x,1/2-y,1/2+z
loop_
_atom_site_type_symbol
_atom_site_label
_atom_site_fract_x
_atom_site_fract_y
_atom_site_fract_z
Si Si1 0.569549 0.399217 0.294879
Si Si2 0.774082 0.606484 0.895123
Si Si3 0.848272 0.785570 0.701112
Si Si4 0.399431 0.408704 0.897927
Si Si5 0.708241 0.916457 0.781117
Si Si6 0.163384 0.259855 0.606111
O O1 0.500000 0.361972 0.250000
O O2 0.555015 0.408691 0.480858
O O3 0.636742 0.327760 0.220392
O O4 0.588488 0.497260 0.203493
O O5 0.798573 0.705159 0.811638
O O6 0.686157 0.598837 0.987972
O O7 0.793457 0.522130 0.771645
O O8 0.810796 0.593084 0.031846
O O9 0.792318 0.872877 0.707257
O O10 0.877335 0.746222 0.524440
O O11 0.907742 0.823744 0.776746
O O12 0.658541 0.852148 0.708451
O O13 0.250000 0.250000 0.500000
#
# Coordination Sequence:
#
# PCOD9261521 Si02
#       6
#     8   8   8   8   8   8
#     4  12  24  37  55  82 115 155 192 230 282 344
#     4  11  19  32  52  84 113 145 187 235 283 332
#     4  10  20  32  53  81 109 148 192 236 280 327
#     4  11  20  35  52  75 114 154 188 227 276 337
#     4  10  19  30  50  78 112 144 179 232 285 329
#     4  10  19  36  55  78 107 144 187 234 281 329
#
# _framework density 20.740022
#
# number of rings (size 3 to 8) (size 9 to 14) (size 15 to 20)
#    0.000    1.333    0.000   11.500    0.000    0.000 
#    0.000    0.000    0.000    0.000    0.000   11.667 
#    0.000    0.000    0.000    0.000    0.000    0.000 
#
# Total GULP energy -134108.628402 kJ/mol
# GULP energy per Si atom -5587.859517 kJ/mol
# Density = 2.069282 g / cm^3
# Si number density = 20.740022 Si / 1000 Ang^3
#
#
#
# Elastic Constant Matrix: (Units=GPa)
#
#
# Indices 1 2 3 4 5 6 
#
# 1 53.5641 29.5152 33.7117 0.0000 17.6006 0.0000
# 2 29.5152 74.2441 18.7939 0.0000 -1.9052 0.0000
# 3 33.7117 18.7939 101.4773 0.0000 32.4379 0.0000
# 4 0.0000 0.0000 0.0000 48.2286 0.0000 11.3091
# 5 17.6006 -1.9052 32.4379 0.0000 38.8065 0.0000
# 6 0.0000 0.0000 0.0000 11.3091 0.0000 18.1396
#
#
#
# Elastic Compliance Matrix: (Units=1/GPa)
#
#
# Indices 1 2 3 4 5 6 
#
# 1 0.031760 -0.011660 -0.004918 0.000000 -0.010866 0.000000
# 2 -0.011660 0.018866 -0.002193 0.000000 0.008048 0.000000
# 3 -0.004918 -0.002193 0.015305 0.000000 -0.010671 0.000000
# 4 0.000000 0.000000 0.000000 0.024285 0.000000 -0.015140
# 5 -0.010866 0.008048 -0.010671 0.000000 0.040012 0.000000
# 6 0.000000 0.000000 0.000000 -0.015140 0.000000 0.064567
#
#
# Mechanical properties :
#
#
# Convention : Reuss Voigt Hill
#
# Bulk Modulus (GPa) = 35.22438 43.70303 39.46371
# Shear Modulus (GPa) = 20.67822 30.85258 25.76540
#
# Velocity S-wave (km/s) = 3.16099 3.86111 3.52846
# Velocity P-wave (km/s) = 5.50846 6.40274 5.97236
#
# Compressibility (1/GPa) = 0.02838942
#
# Stress axis : x y z
#
# Youngs Moduli (GPa) = 31.48625 53.00539 65.33667
#
# Poissons Ratio (x) = 0.61803 0.32133
# Poissons Ratio (y) = 0.36712 0.14328
# Poissons Ratio (z) = 0.15485 0.11624
#
# Static dielectric constant tensor:
#      x y z
#    x 1.813740 0.000000 0.058920 
#    y 0.000000 1.710540 0.000000 
#    z 0.058920 0.000000 1.796770 
# 
# From -- ./inp_files/55241.got.cif
#   From: 2010.05.17/outbox.cif.g08.bks.cpg/sg15_28_cif.got.tgz:55241.got - 2010.06.03 18:47:42.
