data_PCOD9261354
_publ_section_title
;
Structure prediction by ZEFSAII (Michael W. Deem and Ramdas Pophale) SiO2 
 PCOD9261354
Probable space group: C 2/C
;
_chemical_formula_sum "Si O2"
_cell_formula_units_Z 64
_cell_length_a 27.061015
_cell_length_b 16.669093
_cell_length_c 8.833734
_cell_angle_alpha 90.000000
_cell_angle_beta 81.311843
_cell_angle_gamma 90.000000
_cell_volume 3939.019077
_symmetry_space_group_name_H-M "C 2/C"
_symmetry_group_IT_number 15
_symmetry_cell_setting 'monoclinic'
loop_
_space_group_symop_operation_xyz
x,y,z
-x,y,1/2-z
-x,-y,-z
x,-y,1/2+z
1/2+x,1/2+y,z
1/2-x,1/2+y,1/2-z
1/2-x,1/2-y,-z
1/2+x,1/2-y,1/2+z
loop_
_atom_site_type_symbol
_atom_site_label
_atom_site_fract_x
_atom_site_fract_y
_atom_site_fract_z
Si Si1 0.795165 0.312609 0.722897
Si Si2 0.535609 0.958281 0.859210
Si Si3 0.309168 0.055219 0.435184
Si Si4 0.814702 0.116797 0.290602
Si Si5 0.747808 0.654394 0.704987
Si Si6 0.398968 0.933615 0.397829
Si Si7 0.666698 0.786163 0.120772
Si Si8 0.796926 0.979051 0.095394
O O1 0.824106 0.382515 0.796796
O O2 0.743287 0.355255 0.697337
O O3 0.779825 0.235900 0.831479
O O4 0.823008 0.279768 0.562878
O O5 0.500000 0.915692 0.750000
O O6 0.566091 0.022647 0.742834
O O7 0.573245 0.914037 0.956762
O O8 0.500000 0.000000 0.000000
O O9 0.286529 0.112176 0.575087
O O10 0.354069 0.996358 0.454750
O O11 0.261057 0.003114 0.408251
O O12 0.843728 0.200002 0.299582
O O13 0.818883 0.062214 0.437410
O O14 0.823552 0.059114 0.143545
O O15 0.781436 0.681858 0.831578
O O16 0.707724 0.588152 0.772717
O O17 0.374771 0.853926 0.339400
#
# Coordination Sequence:
#
# PCOD9261354 Si02
#       8
#     8   8   8   8   8   8   8   8
#     4  10  19  29  41  58  88 124 161 212 236 254
#     4   9  20  36  52  70  91 119 144 170 231 304
#     4  11  21  27  43  67  88 120 171 202 226 256
#     4  10  19  30  42  58  82 124 164 202 236 263
#     4  11  18  29  39  57  91 123 166 208 234 257
#     4  11  19  31  51  70  92 118 152 194 227 270
#     4  11  19  30  44  65  88 115 159 208 235 260
#     4  11  18  29  43  57  86 129 171 199 226 265
#
# _framework density 16.247700999999999
#
# number of rings (size 3 to 8) (size 9 to 14) (size 15 to 20)
#    0.000    1.500    5.000    2.625    1.750    0.000 
#    0.000    0.000    0.000    0.000    0.000    0.000 
#    0.000    0.000    0.000   14.625    3.750    0.750 
#
# Total GULP energy -178294.000025 kJ/mol
# GULP energy per Si atom -5571.687501 kJ/mol
# Density = 1.621072 g / cm^3
# Si number density = 16.247701 Si / 1000 Ang^3
#
#
#
# Elastic Constant Matrix: (Units=GPa)
#
#
# Indices 1 2 3 4 5 6 
#
# 1 32.0965 18.4603 -1.9471 0.0000 6.9572 0.0000
# 2 18.4603 101.5438 16.3269 0.0000 8.4629 0.0000
# 3 -1.9471 16.3269 28.1632 0.0000 -1.4479 0.0000
# 4 0.0000 0.0000 0.0000 26.4997 0.0000 4.5122
# 5 6.9572 8.4629 -1.4479 0.0000 23.5300 0.0000
# 6 0.0000 0.0000 0.0000 4.5122 0.0000 6.1836
#
#
#
# Elastic Compliance Matrix: (Units=1/GPa)
#
#
# Indices 1 2 3 4 5 6 
#
# 1 0.037401 -0.007138 0.006307 0.000000 -0.008103 0.000000
# 2 -0.007138 0.012676 -0.007993 0.000000 -0.002940 0.000000
# 3 0.006307 -0.007993 0.040758 0.000000 0.003518 0.000000
# 4 0.000000 0.000000 0.000000 0.043090 0.000000 -0.031443
# 5 -0.008103 -0.002940 0.003518 0.000000 0.046169 0.000000
# 6 0.000000 0.000000 0.000000 -0.031443 0.000000 0.184662
#
#
# Mechanical properties :
#
#
# Convention : Reuss Voigt Hill
#
# Bulk Modulus (GPa) = 13.66371 25.27595 19.46983
# Shear Modulus (GPa) = 12.29108 19.84021 16.06564
#
# Velocity S-wave (km/s) = 2.75340 3.49823 3.14792
# Velocity P-wave (km/s) = 4.30537 5.64865 5.02212
#
# Compressibility (1/GPa) = 0.07318658
#
# Stress axis : x y z
#
# Youngs Moduli (GPa) = 26.73757 78.88985 24.53500
#
# Poissons Ratio (x) = 0.56312 -0.15475
# Poissons Ratio (y) = 0.19086 0.19611
# Poissons Ratio (z) = -0.16864 0.63058
#
# Static dielectric constant tensor:
#      x y z
#    x 1.543320 0.000000 0.028750 
#    y 0.000000 1.584960 0.000000 
#    z 0.028750 0.000000 1.621530 
# 
# From -- ./inp_files/69734.got.cif
#   From: 2010.05.17/outbox.cif.g08.bks.cpg/sg15_35_cif.got.tgz:69734.got - 2010.06.03 18:47:42.
