data_PCOD9261120
_publ_section_title
;
Structure prediction by ZEFSAII (Michael W. Deem and Ramdas Pophale) SiO2 
 PCOD9261120
Probable space group: C 2/C
;
_chemical_formula_sum "Si O2"
_cell_formula_units_Z 60
_cell_length_a 24.865785
_cell_length_b 9.309178
_cell_length_c 27.155700
_cell_angle_alpha 90.000000
_cell_angle_beta 25.037043
_cell_angle_gamma 90.000000
_cell_volume 2660.261931
_symmetry_space_group_name_H-M "C 2/C"
_symmetry_group_IT_number 15
_symmetry_cell_setting 'monoclinic'
loop_
_space_group_symop_operation_xyz
x,y,z
-x,y,1/2-z
-x,-y,-z
x,-y,1/2+z
1/2+x,1/2+y,z
1/2-x,1/2+y,1/2-z
1/2-x,1/2-y,-z
1/2+x,1/2-y,1/2+z
loop_
_atom_site_type_symbol
_atom_site_label
_atom_site_fract_x
_atom_site_fract_y
_atom_site_fract_z
Si Si1 0.638300 0.354141 0.478424
Si Si2 0.912789 0.569448 0.457173
Si Si3 0.695992 0.687570 0.775609
Si Si4 0.500000 0.559333 0.750000
Si Si5 0.525163 0.374817 0.118702
Si Si6 0.412734 0.886047 0.545062
Si Si7 0.755867 0.857810 0.950216
Si Si8 0.715807 0.036352 0.222882
O O1 0.578982 0.464505 0.566420
O O2 0.543658 0.241567 0.529381
O O3 0.743208 0.250003 0.414751
O O4 0.707475 0.454585 0.382110
O O5 0.888017 0.737345 0.468286
O O6 0.848078 0.498517 0.559562
O O7 0.862039 0.468265 0.455813
O O8 0.065986 0.552834 0.335553
O O9 0.588382 0.634515 0.827217
O O10 0.644997 0.786531 0.863596
O O11 0.764453 0.556468 0.744318
O O12 0.775584 0.805826 0.680035
O O13 0.503975 0.643229 0.798981
O O14 0.377981 0.456865 0.849942
O O15 0.500000 0.000000 0.500000
O O16 0.750000 0.750000 0.000000
#
# Coordination Sequence:
#
# PCOD9261120 Si02
#       8
#     8   8   8   4   8   8   8   8
#     4  10  24  39  70  99 133 178 236 282 344 415
#     4  10  24  43  71  98 145 177 230 285 355 413
#     4  10  23  39  64 102 142 184 228 272 347 412
#     4  12  28  48  74  96 138 174 240 298 352 400
#     4  11  24  47  66 104 137 184 234 293 346 411
#     4  10  18  40  65  96 135 179 220 271 341 404
#     4  11  25  49  71  99 127 186 233 296 347 411
#     4  10  22  39  63 104 136 181 218 278 344 418
#
# _framework density 22.554169999999999
#
# number of rings (size 3 to 8) (size 9 to 14) (size 15 to 20)
#    0.000    1.600    4.000    0.000    1.867   12.267 
#    4.800    0.000    0.000    0.000    0.000    0.000 
#    0.000    0.000    0.000    0.000    0.000    0.000 
#
# Total GULP energy -167198.085472 kJ/mol
# GULP energy per Si atom -5573.269516 kJ/mol
# Density = 2.250284 g / cm^3
# Si number density = 22.554170 Si / 1000 Ang^3
#
#
#
# Elastic Constant Matrix: (Units=GPa)
#
#
# Indices 1 2 3 4 5 6 
#
# 1 107.1604 46.4584 21.4368 0.0018 9.8491 -0.0010
# 2 46.4584 133.3516 10.9702 0.0066 -2.8370 -0.0089
# 3 21.4368 10.9702 27.0296 0.0008 7.2892 -0.0015
# 4 0.0018 0.0066 0.0008 30.2712 -0.0010 2.2482
# 5 9.8491 -2.8370 7.2892 -0.0010 33.1969 0.0011
# 6 -0.0010 -0.0089 -0.0015 2.2482 0.0011 49.5520
#
#
#
# Elastic Compliance Matrix: (Units=1/GPa)
#
#
# Indices 1 2 3 4 5 6 
#
# 1 0.012816 -0.003862 -0.007954 0.000000 -0.002386 -0.000001
# 2 -0.003862 0.008987 -0.001170 -0.000002 0.002171 0.000002
# 3 -0.007954 -0.001170 0.045887 -0.000001 -0.007816 0.000001
# 4 0.000000 -0.000002 -0.000001 0.033146 0.000001 -0.001504
# 5 -0.002386 0.002171 -0.007816 0.000001 0.032733 -0.000001
# 6 -0.000001 0.000002 0.000001 -0.001504 -0.000001 0.020249
#
#
# Mechanical properties :
#
#
# Convention : Reuss Voigt Hill
#
# Bulk Modulus (GPa) = 23.96970 47.25248 35.61109
# Shear Modulus (GPa) = 25.81364 35.18245 30.49804
#
# Velocity S-wave (km/s) = 3.38674 3.95385 3.68123
# Velocity P-wave (km/s) = 5.09353 6.46839 5.82169
#
# Compressibility (1/GPa) = 0.04171934
#
# Stress axis : x y z
#
# Youngs Moduli (GPa) = 78.02533 111.27512 21.79254
#
# Poissons Ratio (x) = 0.42969 0.17333
# Poissons Ratio (y) = 0.30130 0.02550
# Poissons Ratio (z) = 0.62060 0.13021
#
# Static dielectric constant tensor:
#      x y z
#    x 1.953170 0.000000 0.021250 
#    y 0.000000 1.852580 0.000000 
#    z 0.021250 0.000000 1.899590 
# 
# From -- ./inp_files/302054.got.cif
#   From: 2010.05.17/outbox.cif.g08.bks.cpg/sg15_152_cif.got.tgz:302054.got - 2010.06.03 18:47:42.
