data_PCOD9261090
_publ_section_title
;
Structure prediction by ZEFSAII (Michael W. Deem and Ramdas Pophale) SiO2 
 PCOD9261090
Probable space group: C 2/C
;
_chemical_formula_sum "Si O2"
_cell_formula_units_Z 48
_cell_length_a 27.469551
_cell_length_b 5.825660
_cell_length_c 26.872797
_cell_angle_alpha 90.000000
_cell_angle_beta 151.291406
_cell_angle_gamma 90.000000
_cell_volume 2065.722287
_symmetry_space_group_name_H-M "C 2/C"
_symmetry_group_IT_number 15
_symmetry_cell_setting 'monoclinic'
loop_
_space_group_symop_operation_xyz
x,y,z
-x,y,1/2-z
-x,-y,-z
x,-y,1/2+z
1/2+x,1/2+y,z
1/2-x,1/2+y,1/2-z
1/2-x,1/2-y,-z
1/2+x,1/2-y,1/2+z
loop_
_atom_site_type_symbol
_atom_site_label
_atom_site_fract_x
_atom_site_fract_y
_atom_site_fract_z
Si Si1 0.264899 0.178232 0.289509
Si Si2 0.756061 0.778448 0.108990
Si Si3 0.370988 0.650320 0.164905
Si Si4 0.653329 0.391000 0.965629
Si Si5 0.379738 0.903334 0.269715
Si Si6 0.413656 0.880732 0.003050
O O1 0.247105 0.423111 0.245000
O O2 0.179883 0.197968 0.256861
O O3 0.375182 0.193583 0.414649
O O4 0.797667 0.600042 0.186748
O O5 0.855260 0.904706 0.176302
O O6 0.668577 0.931746 0.054172
O O7 0.700498 0.641649 0.014753
O O8 0.405885 0.635876 0.139188
O O9 0.412116 0.825151 0.243153
O O10 0.252075 0.727683 0.053486
O O11 0.595747 0.324049 0.964591
O O12 0.473650 0.971792 0.387915
#
# Coordination Sequence:
#
# PCOD9261090 Si02
#       6
#     8   8   8   8   8   8
#     4  12  27  50  74 100 139 181 238 303 358 420
#     4  10  18  40  63  98 138 183 224 279 333 416
#     4   9  18  35  63  96 135 179 220 271 336 409
#     4   9  18  35  63  96 135 179 220 271 336 409
#     4  11  24  43  68  99 137 178 226 287 352 418
#     4  11  24  43  68  99 137 178 226 287 352 418
#
# _framework density 23.236424
#
# number of rings (size 3 to 8) (size 9 to 14) (size 15 to 20)
#    0.000    1.667    5.000    1.500    0.000    4.667 
#    0.000    0.000    0.000    0.000    0.000    0.000 
#    0.000    0.000    0.000    0.000    0.000    0.000 
#
# Total GULP energy -133850.987013 kJ/mol
# GULP energy per Si atom -5577.124459 kJ/mol
# Density = 2.318354 g / cm^3
# Si number density = 23.236424 Si / 1000 Ang^3
#
#
#
# Elastic Constant Matrix: (Units=GPa)
#
#
# Indices 1 2 3 4 5 6 
#
# 1 53.1294 20.9949 17.8939 0.0009 -15.6011 0.0015
# 2 20.9949 89.8555 31.3913 0.0010 -15.9840 0.0160
# 3 17.8939 31.3913 175.7311 -0.0001 -24.3900 0.0007
# 4 0.0009 0.0010 -0.0001 10.4809 -0.0004 -0.8682
# 5 -15.6011 -15.9840 -24.3900 -0.0004 32.9620 0.0007
# 6 0.0015 0.0160 0.0007 -0.8682 0.0007 18.8678
#
#
#
# Elastic Compliance Matrix: (Units=1/GPa)
#
#
# Indices 1 2 3 4 5 6 
#
# 1 0.022997 -0.003649 -0.000473 -0.000001 0.008765 0.000001
# 2 -0.003649 0.013130 -0.001482 -0.000002 0.003543 -0.000011
# 3 -0.000473 -0.001482 0.006545 0.000000 0.003900 0.000001
# 4 -0.000001 -0.000002 0.000000 0.095776 0.000000 0.004407
# 5 0.008765 0.003543 0.003900 0.000000 0.039090 -0.000005
# 6 0.000001 -0.000011 0.000001 0.004407 -0.000005 0.053203
#
#
# Mechanical properties :
#
#
# Convention : Reuss Voigt Hill
#
# Bulk Modulus (GPa) = 31.78342 51.03068 41.40705
# Shear Modulus (GPa) = 19.80690 29.02454 24.41572
#
# Velocity S-wave (km/s) = 2.92277 3.53809 3.24505
# Velocity P-wave (km/s) = 5.00980 6.22093 5.64792
#
# Compressibility (1/GPa) = 0.03146295
#
# Stress axis : x y z
#
# Youngs Moduli (GPa) = 43.48383 76.16398 152.79433
#
# Poissons Ratio (x) = 0.27790 0.07233
# Poissons Ratio (y) = 0.15866 0.22645
# Poissons Ratio (z) = 0.02058 0.11288
#
# Static dielectric constant tensor:
#      x y z
#    x 1.974750 0.000000 -0.018270 
#    y 0.000000 1.920180 0.000000 
#    z -0.018270 0.000000 1.901110 
# 
# From -- ./inp_files/304116.got.cif
#   From: 2010.05.17/outbox.cif.g08.bks.cpg/sg15_153_cif.got.tgz:304116.got - 2010.06.03 18:47:42.
