data_PCOD9261236
_publ_section_title
;
Structure prediction by ZEFSAII (Michael W. Deem and Ramdas Pophale) SiO2 
 PCOD9261236
Probable space group: C 2/C
;
_chemical_formula_sum "Si O2"
_cell_formula_units_Z 44
_cell_length_a 11.655363
_cell_length_b 7.484960
_cell_length_c 18.752610
_cell_angle_alpha 90.000000
_cell_angle_beta 73.187499
_cell_angle_gamma 90.000000
_cell_volume 1566.048810
_symmetry_space_group_name_H-M "C 2/C"
_symmetry_group_IT_number 15
_symmetry_cell_setting 'monoclinic'
loop_
_space_group_symop_operation_xyz
x,y,z
-x,y,1/2-z
-x,-y,-z
x,-y,1/2+z
1/2+x,1/2+y,z
1/2-x,1/2+y,1/2-z
1/2-x,1/2-y,-z
1/2+x,1/2-y,1/2+z
loop_
_atom_site_type_symbol
_atom_site_label
_atom_site_fract_x
_atom_site_fract_y
_atom_site_fract_z
Si Si1 0.164967 0.228126 0.710242
Si Si2 0.092974 0.678502 0.062074
Si Si3 0.332184 0.489291 0.012261
Si Si4 0.686037 0.260880 0.616110
Si Si5 0.627286 0.007440 0.836756
Si Si6 0.500000 0.596419 0.250000
O O1 0.124912 0.246689 0.635298
O O2 0.124648 0.397221 0.763521
O O3 0.308303 0.196656 0.687168
O O4 0.099552 0.052649 0.755580
O O5 0.991098 0.533430 0.096350
O O6 0.070918 0.853364 0.016782
O O7 0.207734 0.582449 0.008336
O O8 0.354182 0.327961 0.954424
O O9 0.276003 0.408045 0.094650
O O10 0.771037 0.406956 0.635780
O O11 0.565826 0.271488 0.683382
#
# Coordination Sequence:
#
# PCOD9261236 Si02
#       6
#     8   8   8   8   8   4
#     4  11  22  41  63  97 129 171 221 270 332 390
#     4  11  22  42  64  89 132 174 207 279 328 384
#     4  10  22  42  63  90 134 168 215 265 337 389
#     4  10  22  40  65  96 123 172 217 266 323 398
#     4  11  23  39  66  95 128 171 222 268 329 396
#     4  10  18  42  64  86 136 164 208 278 328 368
#
# _framework density 28.096188000000001
#
# number of rings (size 3 to 8) (size 9 to 14) (size 15 to 20)
#    0.000    1.455    5.455    0.000    2.545    4.364 
#    0.000    0.000    0.000    0.000    0.000    0.000 
#    0.000    0.000    0.000    0.000    0.000    0.000 
#
# Total GULP energy -122996.561134 kJ/mol
# GULP energy per Si atom -5590.752779 kJ/mol
# Density = 2.803224 g / cm^3
# Si number density = 28.096188 Si / 1000 Ang^3
#
#
#
# Elastic Constant Matrix: (Units=GPa)
#
#
# Indices 1 2 3 4 5 6 
#
# 1 83.3320 10.1397 40.1435 0.0000 -10.4986 0.0000
# 2 10.1397 107.8141 39.6021 0.0000 -5.6773 0.0000
# 3 40.1435 39.6021 168.3129 0.0000 -34.0046 0.0000
# 4 0.0000 0.0000 0.0000 51.0888 0.0000 -8.2765
# 5 -10.4986 -5.6773 -34.0046 0.0000 51.0723 0.0000
# 6 0.0000 0.0000 0.0000 -8.2765 0.0000 34.3901
#
#
#
# Elastic Compliance Matrix: (Units=1/GPa)
#
#
# Indices 1 2 3 4 5 6 
#
# 1 0.013583 -0.000113 -0.003063 0.000000 0.000740 0.000000
# 2 -0.000113 0.010166 -0.002474 0.000000 -0.000541 0.000000
# 3 -0.003063 -0.002474 0.008170 0.000000 0.004535 0.000000
# 4 0.000000 0.000000 0.000000 0.020368 0.000000 0.004902
# 5 0.000740 -0.000541 0.004535 0.000000 0.022692 0.000000
# 6 0.000000 0.000000 0.000000 0.004902 0.000000 0.030258
#
#
# Mechanical properties :
#
#
# Convention : Reuss Voigt Hill
#
# Bulk Modulus (GPa) = 48.50189 59.91439 54.20814
# Shear Modulus (GPa) = 40.51490 45.28180 42.89835
#
# Velocity S-wave (km/s) = 3.80150 4.01892 3.91172
# Velocity P-wave (km/s) = 6.04721 6.55032 6.30378
#
# Compressibility (1/GPa) = 0.02061775
#
# Stress axis : x y z
#
# Youngs Moduli (GPa) = 73.62166 98.36487 122.39341
#
# Poissons Ratio (x) = 0.01114 0.37495
# Poissons Ratio (y) = 0.00833 0.30283
# Poissons Ratio (z) = 0.22554 0.24337
#
# Static dielectric constant tensor:
#      x y z
#    x 2.280000 0.000000 -0.065060 
#    y 0.000000 2.388290 0.000000 
#    z -0.065060 0.000000 2.199500 
# 
# From -- ./inp_files/267972.got.cif
#   From: 2010.05.17/outbox.cif.g08.bks.cpg/sg15_134_cif.got.tgz:267972.got - 2010.06.03 18:47:42.
