data_PCOD9261476
_publ_section_title
;
Structure prediction by ZEFSAII (Michael W. Deem and Ramdas Pophale) SiO2 
 PCOD9261476
Probable space group: C 2/C
;
_chemical_formula_sum "Si O2"
_cell_formula_units_Z 44
_cell_length_a 14.735664
_cell_length_b 34.211302
_cell_length_c 5.228388
_cell_angle_alpha 90.000000
_cell_angle_beta 110.392462
_cell_angle_gamma 90.000000
_cell_volume 2470.578393
_symmetry_space_group_name_H-M "C 2/C"
_symmetry_group_IT_number 15
_symmetry_cell_setting 'monoclinic'
loop_
_space_group_symop_operation_xyz
x,y,z
-x,y,1/2-z
-x,-y,-z
x,-y,1/2+z
1/2+x,1/2+y,z
1/2-x,1/2+y,1/2-z
1/2-x,1/2-y,-z
1/2+x,1/2-y,1/2+z
loop_
_atom_site_type_symbol
_atom_site_label
_atom_site_fract_x
_atom_site_fract_y
_atom_site_fract_z
Si Si1 0.144474 0.212058 0.020840
Si Si2 0.000000 0.846616 0.250000
Si Si3 0.895664 0.892855 0.516120
Si Si4 0.437734 0.202705 0.947093
Si Si5 0.736334 0.321826 0.088334
Si Si6 0.111296 0.983809 0.076283
O O1 0.108725 0.256159 0.005697
O O2 0.222599 0.203600 0.317873
O O3 0.180574 0.199225 0.773219
O O4 0.052553 0.183911 0.989971
O O5 0.083318 0.876112 0.245148
O O6 0.811156 0.864024 0.521220
O O7 0.882355 0.939006 0.500849
O O8 0.000000 0.885832 0.750000
O O9 0.500000 0.208966 0.750000
O O10 0.347037 0.175843 0.781926
O O11 0.500000 0.188165 0.250000
O O12 0.155925 0.990127 0.397283
O O13 0.000000 0.000000 0.000000
#
# Coordination Sequence:
#
# PCOD9261476 Si02
#       6
#     8   4   8   8   8   8
#     4  11  21  36  54  76 106 134 182 229 275 318
#     4  10  20  30  50  74 106 144 178 202 268 312
#     4  11  20  32  52  75 112 143 168 213 259 316
#     4  12  24  39  58  73 104 143 187 236 280 308
#     4  11  24  37  54  82 105 138 188 224 271 326
#     4  10  19  30  48  72 106 141 169 188 247 320
#
# _framework density 17.809594000000001
#
# number of rings (size 3 to 8) (size 9 to 14) (size 15 to 20)
#    0.000    1.091    4.545    4.364    2.545    0.000 
#    0.000    0.000    0.000    0.000    0.000    0.000 
#    0.000    4.364    0.000    0.000    0.000    0.000 
#
# Total GULP energy -122573.608917 kJ/mol
# GULP energy per Si atom -5571.527678 kJ/mol
# Density = 1.776906 g / cm^3
# Si number density = 17.809594 Si / 1000 Ang^3
#
#
#
# Elastic Constant Matrix: (Units=GPa)
#
#
# Indices 1 2 3 4 5 6 
#
# 1 42.2094 23.5205 22.4361 0.0000 6.6540 0.0000
# 2 23.5205 89.8951 16.9895 0.0000 14.5934 0.0000
# 3 22.4361 16.9895 109.5991 0.0000 7.8485 0.0000
# 4 0.0000 0.0000 0.0000 20.9535 0.0000 0.2446
# 5 6.6540 14.5934 7.8485 0.0000 35.1659 0.0000
# 6 0.0000 0.0000 0.0000 0.2446 0.0000 11.2214
#
#
#
# Elastic Compliance Matrix: (Units=1/GPa)
#
#
# Indices 1 2 3 4 5 6 
#
# 1 0.030401 -0.006700 -0.005053 0.000000 -0.001844 0.000000
# 2 -0.006700 0.013658 -0.000438 0.000000 -0.004303 0.000000
# 3 -0.005053 -0.000438 0.010310 0.000000 -0.001163 0.000000
# 4 0.000000 0.000000 0.000000 0.047737 0.000000 -0.001041
# 5 -0.001844 -0.004303 -0.001163 0.000000 0.030831 0.000000
# 6 0.000000 0.000000 0.000000 -0.001041 0.000000 0.089138
#
#
# Mechanical properties :
#
#
# Convention : Reuss Voigt Hill
#
# Bulk Modulus (GPa) = 33.34600 40.84396 37.09498
# Shear Modulus (GPa) = 19.49680 25.38532 22.44106
#
# Velocity S-wave (km/s) = 3.31227 3.77951 3.55358
# Velocity P-wave (km/s) = 5.77862 6.48303 6.14093
#
# Compressibility (1/GPa) = 0.02998860
#
# Stress axis : x y z
#
# Youngs Moduli (GPa) = 32.89326 73.21580 96.99645
#
# Poissons Ratio (x) = 0.49054 0.49010
# Poissons Ratio (y) = 0.22038 0.04244
# Poissons Ratio (z) = 0.16620 0.03204
#
# Static dielectric constant tensor:
#      x y z
#    x 1.705290 0.000000 -0.064600 
#    y 0.000000 1.599720 0.000000 
#    z -0.064600 0.000000 1.425480 
# 
# From -- ./inp_files/8888.got.cif
#   From: 2010.05.17/outbox.cif.g08.bks.cpg/sg15_5_cif.got.tgz:8888.got - 2010.06.03 18:47:42.
