data_PCOD9261536
_publ_section_title
;
Structure prediction by ZEFSAII (Michael W. Deem and Ramdas Pophale) SiO2 
 PCOD9261536
Probable space group: C 2/C
;
_chemical_formula_sum "Si O2"
_cell_formula_units_Z 64
_cell_length_a 15.156912
_cell_length_b 12.147268
_cell_length_c 14.026414
_cell_angle_alpha 90.000000
_cell_angle_beta 102.632790
_cell_angle_gamma 90.000000
_cell_volume 2519.957070
_symmetry_space_group_name_H-M "C 2/C"
_symmetry_group_IT_number 15
_symmetry_cell_setting 'monoclinic'
loop_
_space_group_symop_operation_xyz
x,y,z
-x,y,1/2-z
-x,-y,-z
x,-y,1/2+z
1/2+x,1/2+y,z
1/2-x,1/2+y,1/2-z
1/2-x,1/2-y,-z
1/2+x,1/2-y,1/2+z
loop_
_atom_site_type_symbol
_atom_site_label
_atom_site_fract_x
_atom_site_fract_y
_atom_site_fract_z
Si Si1 0.010164 0.002540 0.645265
Si Si2 0.473378 0.877632 0.402642
Si Si3 0.177362 0.339188 0.516823
Si Si4 0.961831 0.406996 0.622370
Si Si5 0.874014 0.826391 0.904105
Si Si6 0.118050 0.807376 0.383734
Si Si7 0.829373 0.186078 0.810445
Si Si8 0.724521 0.997397 0.379840
O O1 0.087223 0.098329 0.658041
O O2 0.000000 0.954932 0.750000
O O3 0.917807 0.068967 0.614142
O O4 0.036582 0.905799 0.579582
O O5 0.579020 0.839308 0.440443
O O6 0.448065 0.906105 0.505369
O O7 0.408000 0.779916 0.354695
O O8 0.469174 0.993061 0.346947
O O9 0.250000 0.250000 0.500000
O O10 0.160531 0.296002 0.621602
O O11 0.223126 0.453662 0.490896
O O12 0.965451 0.278854 0.648078
O O13 0.871023 0.445897 0.651147
O O14 0.796488 0.912600 0.861146
O O15 0.846321 0.785413 0.002517
O O16 0.177229 0.794524 0.303987
O O17 0.745006 0.113645 0.827058
#
# Coordination Sequence:
#
# PCOD9261536 Si02
#       8
#     8   8   8   8   8   8   8   8
#     4   9  18  32  53  77 108 139 178 229 281 328
#     4   9  18  32  56  81 102 140 189 221 268 334
#     4   9  17  32  53  76 106 141 182 224 271 327
#     4   9  18  34  53  75 106 145 183 222 269 331
#     4  10  19  33  56  81 109 140 183 231 279 333
#     4  10  19  30  51  82 105 139 182 224 272 328
#     4   9  17  32  50  75 106 141 179 227 277 324
#     4   9  19  34  53  75 109 149 182 227 283 327
#
# _framework density 25.397257
#
# number of rings (size 3 to 8) (size 9 to 14) (size 15 to 20)
#    0.000    2.750    0.000    1.875    0.000    4.000 
#    2.250    0.000   13.750    9.750    0.000    0.000 
#    0.000    0.000    0.000    0.000    0.000    0.000 
#
# Total GULP energy -178218.059306 kJ/mol
# GULP energy per Si atom -5569.314353 kJ/mol
# Density = 2.533945 g / cm^3
# Si number density = 25.397257 Si / 1000 Ang^3
#
#
#
# Elastic Constant Matrix: (Units=GPa)
#
#
# Indices 1 2 3 4 5 6 
#
# 1 85.5054 43.5259 18.9094 0.0000 -25.3107 0.0000
# 2 43.5259 142.2745 24.3558 0.0000 -10.5299 0.0000
# 3 18.9094 24.3558 89.6468 0.0000 -23.7198 0.0000
# 4 0.0000 0.0000 0.0000 -6.5458 0.0000 -3.7201
# 5 -25.3107 -10.5299 -23.7198 0.0000 33.3181 0.0000
# 6 0.0000 0.0000 0.0000 -3.7201 0.0000 40.1632
#
#
#
# Elastic Compliance Matrix: (Units=1/GPa)
#
#
# Indices 1 2 3 4 5 6 
#
# 1 0.017535 -0.004586 0.000848 0.000000 0.012475 0.000000
# 2 -0.004586 0.008605 -0.001938 0.000000 -0.002144 0.000000
# 3 0.000848 -0.001938 0.014182 0.000000 0.010129 0.000000
# 4 0.000000 0.000000 0.000000 -0.145129 0.000000 -0.013443
# 5 0.012475 -0.002144 0.010129 0.000000 0.046024 0.000000
# 6 0.000000 0.000000 0.000000 -0.013443 0.000000 0.023653
#
#
# Mechanical properties :
#
#
# Convention : Reuss Voigt Hill
#
# Bulk Modulus (GPa) = 34.51796 54.55654 44.53725
# Shear Modulus (GPa) = -354.08724 28.76278 -162.66223
#
# Velocity S-wave (km/s) = -11.82041 3.36894 -8.01163
# Velocity P-wave (km/s) = 13.14060 6.05482 8.24665
#
# Compressibility (1/GPa) = 0.02897043
#
# Stress axis : x y z
#
# Youngs Moduli (GPa) = 57.02858 116.21422 70.50989
#
# Poissons Ratio (x) = 0.53300 -0.05980
# Poissons Ratio (y) = 0.26155 0.13663
# Poissons Ratio (z) = -0.04837 0.22519
#
# Static dielectric constant tensor:
#      x y z
#    x 2.046670 0.000000 0.011940 
#    y 0.000000 2.047990 0.000000 
#    z 0.011940 0.000000 2.077850 
# 
# From -- ./inp_files/210300.got.cif
#   From: 2010.05.17/outbox.cif.g08.bks.cpg/sg15_106_cif.got.tgz:210300.got - 2010.06.03 18:47:42.
