data_PCOD9261628
_publ_section_title
;
Structure prediction by ZEFSAII (Michael W. Deem and Ramdas Pophale) SiO2 
 PCOD9261628
Probable space group: C 2/C
;
_chemical_formula_sum "Si O2"
_cell_formula_units_Z 60
_cell_length_a 29.235652
_cell_length_b 5.185155
_cell_length_c 20.127032
_cell_angle_alpha 90.000000
_cell_angle_beta 121.960282
_cell_angle_gamma 90.000000
_cell_volume 2588.586751
_symmetry_space_group_name_H-M "C 2/C"
_symmetry_group_IT_number 15
_symmetry_cell_setting 'monoclinic'
loop_
_space_group_symop_operation_xyz
x,y,z
-x,y,1/2-z
-x,-y,-z
x,-y,1/2+z
1/2+x,1/2+y,z
1/2-x,1/2+y,1/2-z
1/2-x,1/2-y,-z
1/2+x,1/2-y,1/2+z
loop_
_atom_site_type_symbol
_atom_site_label
_atom_site_fract_x
_atom_site_fract_y
_atom_site_fract_z
Si Si1 0.000000 0.126200 0.750000
Si Si2 0.389761 0.222074 0.098117
Si Si3 0.095192 0.776818 0.971649
Si Si4 0.768486 0.354875 0.303286
Si Si5 0.534978 0.243926 0.046691
Si Si6 0.028624 0.103323 0.148070
Si Si7 0.325262 0.269550 0.184504
Si Si8 0.862089 0.272436 0.294267
O O1 0.952491 0.274166 0.673650
O O2 0.964978 0.936951 0.769291
O O3 0.383375 0.458444 0.041969
O O4 0.349568 0.259712 0.129489
O O5 0.380888 0.961785 0.049818
O O6 0.090669 0.752243 0.048162
O O7 0.031053 0.789838 0.906271
O O8 0.757894 0.645720 0.268850
O O9 0.761026 0.804911 0.149610
O O10 0.830944 0.291843 0.339923
O O11 0.537740 0.315108 0.125866
O O12 0.500000 0.500000 0.000000
O O13 0.500000 0.000000 0.000000
O O14 0.074212 0.275136 0.150216
O O15 0.348781 0.508347 0.245196
O O16 0.342406 0.005226 0.233281
#
# Coordination Sequence:
#
# PCOD9261628 Si02
#       8
#     4   8   8   8   8   8   8   8
#     4  10  20  30  44  74 102 126 152 192 248 298
#     4  11  21  32  49  70 101 132 162 198 243 295
#     4  10  22  34  48  69  96 134 173 199 232 285
#     4   8  16  30  46  64  95 128 159 195 234 296
#     4  10  20  37  52  67  94 136 178 209 238 278
#     4  10  21  33  51  73 101 133 159 206 246 291
#     4  10  19  31  47  70 100 131 159 194 247 301
#     4  10  19  31  47  73  98 127 162 197 246 301
#
# _framework density 23.178671999999999
#
# number of rings (size 3 to 8) (size 9 to 14) (size 15 to 20)
#    0.000    2.133    1.333    3.200    3.733    2.667 
#    0.000    0.000    0.000    0.000    0.000    1.867 
#    0.000    0.000    0.000    0.400    0.000    0.000 
#
# Total GULP energy -167409.010346 kJ/mol
# GULP energy per Si atom -5580.300345 kJ/mol
# Density = 2.312592 g / cm^3
# Si number density = 23.178672 Si / 1000 Ang^3
#
#
#
# Elastic Constant Matrix: (Units=GPa)
#
#
# Indices 1 2 3 4 5 6 
#
# 1 134.1746 22.0558 39.4272 -0.0004 -55.1526 0.0003
# 2 22.0558 139.7266 13.2718 0.0100 -10.1633 -0.0032
# 3 39.4272 13.2718 46.1227 -0.0001 -36.4318 -0.0001
# 4 -0.0004 0.0100 -0.0001 11.0254 -0.0001 -11.9450
# 5 -55.1526 -10.1633 -36.4318 -0.0001 40.8137 0.0000
# 6 0.0003 -0.0032 -0.0001 -11.9450 0.0000 27.0384
#
#
#
# Elastic Compliance Matrix: (Units=1/GPa)
#
#
# Indices 1 2 3 4 5 6 
#
# 1 0.019368 -0.001617 0.014459 0.000004 0.038676 0.000002
# 2 -0.001617 0.007493 -0.003479 -0.000011 -0.003425 -0.000004
# 3 0.014459 -0.003479 0.085012 0.000010 0.094558 0.000004
# 4 0.000004 -0.000011 0.000010 0.173962 0.000012 0.076852
# 5 0.038676 -0.003425 0.094558 0.000012 0.160318 0.000005
# 6 0.000002 -0.000004 0.000004 0.076852 0.000005 0.070936
#
#
# Mechanical properties :
#
#
# Convention : Reuss Voigt Hill
#
# Bulk Modulus (GPa) = 7.65706 52.17039 29.91372
# Shear Modulus (GPa) = 9.22682 32.12678 20.67680
#
# Velocity S-wave (km/s) = 1.99734 3.72701 2.98998
# Velocity P-wave (km/s) = 2.93766 6.40918 4.98535
#
# Compressibility (1/GPa) = 0.13059846
#
# Stress axis : x y z
#
# Youngs Moduli (GPa) = 51.63158 133.44955 11.76298
#
# Poissons Ratio (x) = 0.21584 -0.17008
# Poissons Ratio (y) = 0.08351 0.04093
# Poissons Ratio (z) = -0.74654 0.46431
#
# Static dielectric constant tensor:
#      x y z
#    x 1.942040 0.000000 0.007420 
#    y 0.000000 1.905340 0.000000 
#    z 0.007420 0.000000 2.048870 
# 
# From -- ./inp_files/258303.got.cif
#   From: 2010.05.17/outbox.cif.g08.bks.cpg/sg15_130_cif.got.tgz:258303.got - 2010.06.03 18:47:42.
