data_PCOD9261317
_publ_section_title
;
Structure prediction by ZEFSAII (Michael W. Deem and Ramdas Pophale) SiO2 
 PCOD9261317
Probable space group: C 2/C
;
_chemical_formula_sum "Si O2"
_cell_formula_units_Z 52
_cell_length_a 25.341295
_cell_length_b 35.415998
_cell_length_c 5.255988
_cell_angle_alpha 90.000000
_cell_angle_beta 125.763429
_cell_angle_gamma 90.000000
_cell_volume 3827.696308
_symmetry_space_group_name_H-M "C 2/C"
_symmetry_group_IT_number 15
_symmetry_cell_setting 'monoclinic'
loop_
_space_group_symop_operation_xyz
x,y,z
-x,y,1/2-z
-x,-y,-z
x,-y,1/2+z
1/2+x,1/2+y,z
1/2-x,1/2+y,1/2-z
1/2-x,1/2-y,-z
1/2+x,1/2-y,1/2+z
loop_
_atom_site_type_symbol
_atom_site_label
_atom_site_fract_x
_atom_site_fract_y
_atom_site_fract_z
Si Si1 0.831312 0.233042 0.998717
Si Si2 0.127535 0.606984 0.561084
Si Si3 0.170554 0.648586 0.202054
Si Si4 0.077288 0.475334 0.974478
Si Si5 0.000000 0.648088 0.250000
Si Si6 0.281632 0.703411 0.357288
Si Si7 0.434662 0.792036 0.196448
O O1 0.771348 0.262720 0.815948
O O2 0.830583 0.213482 0.722282
O O3 0.817027 0.204174 0.185897
O O4 0.894811 0.258683 0.216921
O O5 0.171727 0.623127 0.457874
O O6 0.119875 0.562233 0.562721
O O7 0.055313 0.622176 0.285020
O O8 0.146836 0.624843 0.888689
O O9 0.238617 0.667575 0.315369
O O10 0.120066 0.683815 0.113180
O O11 0.089248 0.503822 0.774966
O O12 0.000000 0.465419 0.750000
O O13 0.036513 0.675903 0.541710
O O14 0.500000 0.776845 0.250000
#
# Coordination Sequence:
#
# PCOD9261317 Si02
#       7
#     8   8   8   8   4   8   8
#     4   9  18  27  44  52  76 100 127 156 201 251
#     4  11  19  31  44  62  76 105 126 168 210 242
#     4  10  20  29  46  59  79  97 129 171 212 242
#     4  10  20  32  44  58  80 107 132 156 193 253
#     4  10  20  28  40  56  86  96 132 170 206 260
#     4   9  17  31  40  58  71  98 129 159 198 251
#     4  10  19  28  39  59  80 103 128 167 213 252
#
# _framework density 13.585195000000001
#
# number of rings (size 3 to 8) (size 9 to 14) (size 15 to 20)
#    0.000    2.154    2.308    1.846    2.154    3.692 
#    0.000    0.000    0.000    0.000    0.000    0.000 
#    0.000    0.000    0.000    0.000    0.000    0.000 
#
# Total GULP energy -144752.131791 kJ/mol
# GULP energy per Si atom -5567.389684 kJ/mol
# Density = 1.355427 g / cm^3
# Si number density = 13.585195 Si / 1000 Ang^3
#
#
#
# Elastic Constant Matrix: (Units=GPa)
#
#
# Indices 1 2 3 4 5 6 
#
# 1 57.4393 27.4464 13.8222 0.0000 -17.4352 0.0000
# 2 27.4464 54.1958 8.3005 0.0000 -4.7654 0.0000
# 3 13.8222 8.3005 24.9579 0.0000 -13.8323 0.0000
# 4 0.0000 0.0000 0.0000 11.6550 0.0000 -1.1110
# 5 -17.4352 -4.7654 -13.8323 0.0000 19.5797 0.0000
# 6 0.0000 0.0000 0.0000 -1.1110 0.0000 22.9987
#
#
#
# Elastic Compliance Matrix: (Units=1/GPa)
#
#
# Indices 1 2 3 4 5 6 
#
# 1 0.031512 -0.013916 0.001399 0.000000 0.025662 0.000000
# 2 -0.013916 0.025589 -0.006935 0.000000 -0.011063 0.000000
# 3 0.001399 -0.006935 0.067965 0.000000 0.047573 0.000000
# 4 0.000000 0.000000 0.000000 0.086197 0.000000 0.004164
# 5 0.025662 -0.011063 0.047573 0.000000 0.104840 0.000000
# 6 0.000000 0.000000 0.000000 0.004164 0.000000 0.043682
#
#
# Mechanical properties :
#
#
# Convention : Reuss Voigt Hill
#
# Bulk Modulus (GPa) = 11.60614 26.19234 18.89924
# Shear Modulus (GPa) = 11.69835 16.64827 14.17331
#
# Velocity S-wave (km/s) = 2.93765 3.50447 3.23351
# Velocity P-wave (km/s) = 4.47975 5.97470 5.28040
#
# Compressibility (1/GPa) = 0.08616129
#
# Stress axis : x y z
#
# Youngs Moduli (GPa) = 31.73367 39.07990 14.71339
#
# Poissons Ratio (x) = 0.54386 -0.02058
# Poissons Ratio (y) = 0.44162 0.10203
# Poissons Ratio (z) = -0.04438 0.27100
#
# Static dielectric constant tensor:
#      x y z
#    x 1.469830 0.000000 -0.016160 
#    y 0.000000 1.437440 0.000000 
#    z -0.016160 0.000000 1.463390 
# 
# From -- ./inp_files/11816.got.cif
#   From: 2010.05.17/outbox.cif.g08.bks.cpg/sg15_6_cif.got.tgz:11816.got - 2010.06.03 18:47:42.
