data_PCOD9261391
_publ_section_title
;
Structure prediction by ZEFSAII (Michael W. Deem and Ramdas Pophale) SiO2 
 PCOD9261391
Probable space group: C 2/C
;
_chemical_formula_sum "Si O2"
_cell_formula_units_Z 56
_cell_length_a 32.093297
_cell_length_b 5.597209
_cell_length_c 19.134716
_cell_angle_alpha 90.000000
_cell_angle_beta 37.346762
_cell_angle_gamma 90.000000
_cell_volume 2085.148928
_symmetry_space_group_name_H-M "C 2/C"
_symmetry_group_IT_number 15
_symmetry_cell_setting 'monoclinic'
loop_
_space_group_symop_operation_xyz
x,y,z
-x,y,1/2-z
-x,-y,-z
x,-y,1/2+z
1/2+x,1/2+y,z
1/2-x,1/2+y,1/2-z
1/2-x,1/2-y,-z
1/2+x,1/2-y,1/2+z
loop_
_atom_site_type_symbol
_atom_site_label
_atom_site_fract_x
_atom_site_fract_y
_atom_site_fract_z
Si Si1 0.446539 0.476802 0.174813
Si Si2 0.232923 0.997860 0.122718
Si Si3 0.847038 0.549950 0.572200
Si Si4 0.623448 0.589697 0.593785
Si Si5 0.780468 0.494247 0.404352
Si Si6 0.530569 0.799266 0.147443
Si Si7 0.054890 0.291812 0.453487
O O1 0.399321 0.352552 0.296349
O O2 0.469784 0.726105 0.178117
O O3 0.512898 0.310309 0.075893
O O4 0.431695 0.567381 0.116307
O O5 0.191463 0.237347 0.156967
O O6 0.199355 0.732867 0.165211
O O7 0.272093 0.026462 0.144512
O O8 0.282575 0.973846 0.986025
O O9 0.867352 0.724493 0.480983
O O10 0.904889 0.352118 0.486729
O O11 0.869103 0.641599 0.618590
O O12 0.698594 0.469329 0.498215
O O13 0.565068 0.411367 0.646216
O O14 0.500000 0.967098 0.250000
O O15 0.000000 0.500000 0.500000
#
# Coordination Sequence:
#
# PCOD9261391 Si02
#       7
#     8   8   8   8   8   8   8
#     4  10  22  36  49  73 107 146 179 222 265 323
#     4   9  18  31  53  79 113 133 177 218 283 318
#     4  11  20  31  52  78 102 144 176 225 267 327
#     4  10  20  33  52  78 105 133 180 226 274 312
#     4   9  17  33  51  82 108 138 167 232 274 325
#     4  10  19  29  48  75 104 132 175 219 266 311
#     4  11  22  35  49  71 108 147 180 213 263 326
#
# _framework density 26.856596
#
# number of rings (size 3 to 8) (size 9 to 14) (size 15 to 20)
#    0.000    2.000    4.286    0.000    2.000    0.000 
#    0.000    0.000    0.000    0.000    3.714    0.000 
#    0.000    0.000    0.000    0.000    0.000    0.000 
#
# Total GULP energy -155907.700965 kJ/mol
# GULP energy per Si atom -5568.132177 kJ/mol
# Density = 2.679547 g / cm^3
# Si number density = 26.856596 Si / 1000 Ang^3
#
#
#
# Elastic Constant Matrix: (Units=GPa)
#
#
# Indices 1 2 3 4 5 6 
#
# 1 151.1158 6.7668 -8.8270 0.0299 15.9484 -0.0486
# 2 6.7668 89.4098 5.3188 -0.0836 10.9823 -0.0995
# 3 -8.8270 5.3188 76.1009 -0.0503 4.7834 -0.0420
# 4 0.0299 -0.0836 -0.0503 19.0513 -0.0314 2.2388
# 5 15.9484 10.9823 4.7834 -0.0314 30.4455 0.0122
# 6 -0.0486 -0.0995 -0.0420 2.2388 0.0122 23.5247
#
#
#
# Elastic Compliance Matrix: (Units=1/GPa)
#
#
# Indices 1 2 3 4 5 6 
#
# 1 0.007091 -0.000129 0.001073 -0.000018 -0.003836 0.000020
# 2 -0.000129 0.011729 -0.000579 0.000038 -0.004072 0.000047
# 3 0.001073 -0.000579 0.013460 0.000025 -0.002468 0.000023
# 4 -0.000018 0.000038 0.000025 0.053084 0.000048 -0.005052
# 5 -0.003836 -0.004072 -0.002468 0.000048 0.036712 -0.000053
# 6 0.000020 0.000047 0.000023 -0.005052 -0.000053 0.042990
#
#
# Mechanical properties :
#
#
# Convention : Reuss Voigt Hill
#
# Bulk Modulus (GPa) = 30.29434 35.90488 33.09961
# Shear Modulus (GPa) = 28.51614 35.49549 32.00581
#
# Velocity S-wave (km/s) = 3.26205 3.63942 3.45589
# Velocity P-wave (km/s) = 5.04901 5.57303 5.31748
#
# Compressibility (1/GPa) = 0.03300947
#
# Stress axis : x y z
#
# Youngs Moduli (GPa) = 141.02848 85.25921 74.29166
#
# Poissons Ratio (x) = 0.01102 -0.07969
# Poissons Ratio (y) = 0.01823 0.04300
# Poissons Ratio (z) = -0.15127 0.04934
#
# Static dielectric constant tensor:
#      x y z
#    x 2.367400 -0.000390 0.040130 
#    y -0.000390 2.323770 0.000030 
#    z 0.040130 0.000030 2.227470 
# 
# From -- ./inp_files/223816.got.cif
#   From: 2010.05.17/outbox.cif.g08.bks.cpg/sg15_112_cif.got.tgz:223816.got - 2010.06.03 18:47:42.
