data_PCOD9261006
_publ_section_title
;
Structure prediction by ZEFSAII (Michael W. Deem and Ramdas Pophale) SiO2 
 PCOD9261006
Probable space group: C 2/C
;
_chemical_formula_sum "Si O2"
_cell_formula_units_Z 56
_cell_length_a 10.377933
_cell_length_b 30.849828
_cell_length_c 12.839724
_cell_angle_alpha 90.000000
_cell_angle_beta 45.183218
_cell_angle_gamma 90.000000
_cell_volume 2916.007502
_symmetry_space_group_name_H-M "C 2/C"
_symmetry_group_IT_number 15
_symmetry_cell_setting 'monoclinic'
loop_
_space_group_symop_operation_xyz
x,y,z
-x,y,1/2-z
-x,-y,-z
x,-y,1/2+z
1/2+x,1/2+y,z
1/2-x,1/2+y,1/2-z
1/2-x,1/2-y,-z
1/2+x,1/2-y,1/2+z
loop_
_atom_site_type_symbol
_atom_site_label
_atom_site_fract_x
_atom_site_fract_y
_atom_site_fract_z
Si Si1 0.689452 0.828832 0.277150
Si Si2 0.210152 0.077087 0.262982
Si Si3 0.083336 0.578515 0.935649
Si Si4 0.786201 0.699133 0.972732
Si Si5 0.000000 0.833172 0.250000
Si Si6 0.500000 0.641694 0.250000
Si Si7 0.830125 0.093987 0.991617
Si Si8 0.611831 0.480601 0.293922
O O1 0.642396 0.878697 0.336955
O O2 0.749496 0.820611 0.123143
O O3 0.494239 0.806400 0.387973
O O4 0.833382 0.811580 0.281551
O O5 0.371634 0.075965 0.085054
O O6 0.058217 0.109541 0.308225
O O7 0.264731 0.096673 0.343219
O O8 0.133851 0.028812 0.323572
O O9 0.185695 0.579693 0.988085
O O10 0.181972 0.537507 0.827781
O O11 0.750000 0.750000 0.000000
O O12 0.662859 0.672208 0.121765
O O13 0.916967 0.863552 0.389052
O O14 0.992622 0.058732 0.908729
O O15 0.500000 0.486844 0.250000
#
# Coordination Sequence:
#
# PCOD9261006 Si02
#       8
#     8   8   8   8   4   4   8   8
#     4  10  20  41  69  89 122 164 206 244 313 386
#     4  12  22  34  53  89 123 156 205 262 301 358
#     4  10  20  38  57  83 117 159 209 249 300 370
#     4  11  24  44  67  93 125 164 201 258 333 391
#     4  10  18  39  68  90 116 162 206 252 289 382
#     4  12  24  35  60  94 122 150 210 264 301 372
#     4  10  19  35  59  77 117 164 204 241 311 351
#     4  10  19  36  54  79 121 165 205 256 307 359
#
# _framework density 19.204339999999998
#
# number of rings (size 3 to 8) (size 9 to 14) (size 15 to 20)
#    0.000    1.429    5.714    3.000    0.000    0.000 
#    0.000    0.714    3.143    1.714    0.000    0.000 
#    0.000    0.000    0.000    0.000    0.000    0.000 
#
# Total GULP energy -155906.596293 kJ/mol
# GULP energy per Si atom -5568.092725 kJ/mol
# Density = 1.916063 g / cm^3
# Si number density = 19.204340 Si / 1000 Ang^3
#
#
#
# Elastic Constant Matrix: (Units=GPa)
#
#
# Indices 1 2 3 4 5 6 
#
# 1 90.0895 33.6843 19.8300 0.0000 2.2888 0.0000
# 2 33.6843 77.9070 6.5153 0.0000 10.4252 0.0000
# 3 19.8300 6.5153 44.2272 0.0000 6.4382 0.0000
# 4 0.0000 0.0000 0.0000 -33.5069 0.0000 0.6596
# 5 2.2888 10.4252 6.4382 0.0000 30.9888 0.0000
# 6 0.0000 0.0000 0.0000 0.6596 0.0000 20.3821
#
#
#
# Elastic Compliance Matrix: (Units=1/GPa)
#
#
# Indices 1 2 3 4 5 6 
#
# 1 0.014656 -0.006133 -0.005992 0.000000 0.002226 0.000000
# 2 -0.006133 0.016088 0.001136 0.000000 -0.005195 0.000000
# 3 -0.005992 0.001136 0.025904 0.000000 -0.005322 0.000000
# 4 0.000000 0.000000 0.000000 -0.029826 0.000000 0.000965
# 5 0.002226 -0.005195 -0.005322 0.000000 0.034959 0.000000
# 6 0.000000 0.000000 0.000000 0.000965 0.000000 0.049031
#
#
# Mechanical properties :
#
#
# Convention : Reuss Voigt Hill
#
# Bulk Modulus (GPa) = 28.84298 36.92034 32.88166
# Shear Modulus (GPa) = 34.63893 13.71908 24.17901
#
# Velocity S-wave (km/s) = 4.25161 2.67568 3.55214
# Velocity P-wave (km/s) = 6.25725 5.36772 5.82948
#
# Compressibility (1/GPa) = 0.03467048
#
# Stress axis : x y z
#
# Youngs Moduli (GPa) = 68.23331 62.15872 38.60378
#
# Poissons Ratio (x) = 0.38124 0.23130
# Poissons Ratio (y) = 0.41850 -0.04387
# Poissons Ratio (z) = 0.40882 -0.07063
#
# Static dielectric constant tensor:
#      x y z
#    x 1.688560 0.000000 0.007170 
#    y 0.000000 1.649830 0.000000 
#    z 0.007170 0.000000 1.757260 
# 
# From -- ./inp_files/148544.got.cif
#   From: 2010.05.17/outbox.cif.g08.bks.cpg/sg15_75_cif.got.tgz:148544.got - 2010.06.03 18:47:42.
