data_PCOD9261434
_publ_section_title
;
Structure prediction by ZEFSAII (Michael W. Deem and Ramdas Pophale) SiO2 
 PCOD9261434
Probable space group: C 2/C
;
_chemical_formula_sum "Si O2"
_cell_formula_units_Z 56
_cell_length_a 5.775802
_cell_length_b 17.710223
_cell_length_c 22.640601
_cell_angle_alpha 90.000000
_cell_angle_beta 92.659588
_cell_angle_gamma 90.000000
_cell_volume 2313.429269
_symmetry_space_group_name_H-M "C 2/C"
_symmetry_group_IT_number 15
_symmetry_cell_setting 'monoclinic'
loop_
_space_group_symop_operation_xyz
x,y,z
-x,y,1/2-z
-x,-y,-z
x,-y,1/2+z
1/2+x,1/2+y,z
1/2-x,1/2+y,1/2-z
1/2-x,1/2-y,-z
1/2+x,1/2-y,1/2+z
loop_
_atom_site_type_symbol
_atom_site_label
_atom_site_fract_x
_atom_site_fract_y
_atom_site_fract_z
Si Si1 0.024190 0.566804 0.379820
Si Si2 0.761052 0.332770 0.266241
Si Si3 0.803830 0.076777 0.617084
Si Si4 0.394533 0.417533 0.987213
Si Si5 0.825737 0.989997 0.298065
Si Si6 0.022375 0.723639 0.079419
Si Si7 0.002775 0.758165 0.943409
O O1 0.189913 0.569648 0.438763
O O2 0.149620 0.551306 0.319332
O O3 0.866979 0.493952 0.386212
O O4 0.919343 0.649699 0.381602
O O5 0.500000 0.300514 0.250000
O O6 0.763361 0.363686 0.333294
O O7 0.766188 0.411806 0.229613
O O8 0.000000 0.291830 0.250000
O O9 0.825090 0.108587 0.552008
O O10 0.040090 0.038652 0.642363
O O11 0.500000 0.500000 0.000000
O O12 0.536772 0.347779 0.960889
O O13 0.000000 0.019653 0.250000
O O14 0.265453 0.770205 0.087778
O O15 0.750975 0.741655 0.089903
O O16 0.000953 0.717398 0.007379
#
# Coordination Sequence:
#
# PCOD9261434 Si02
#       7
#     8   8   8   8   8   8   8
#     4  11  19  30  50  73 102 136 167 208 259 308
#     4   9  17  31  46  62  93 129 163 199 240 298
#     4  10  19  30  44  71 104 131 159 205 254 309
#     4  11  20  30  47  75 107 136 161 207 256 307
#     4   9  19  31  46  68 101 130 168 210 254 305
#     4   9  19  33  53  66  97 136 171 203 236 295
#     4   9  19  36  47  70  99 137 170 197 239 298
#
# _framework density 24.206489999999999
#
# number of rings (size 3 to 8) (size 9 to 14) (size 15 to 20)
#    0.000    2.571    2.857    1.286    2.000    1.143 
#    0.000    0.000    0.000    0.000    0.000    1.000 
#   34.286    0.000    0.000    0.000    0.000    0.000 
#
# Total GULP energy -156077.778725 kJ/mol
# GULP energy per Si atom -5574.206383 kJ/mol
# Density = 2.415139 g / cm^3
# Si number density = 24.206490 Si / 1000 Ang^3
#
#
#
# Elastic Constant Matrix: (Units=GPa)
#
#
# Indices 1 2 3 4 5 6 
#
# 1 149.4573 12.9026 22.7972 0.0000 -7.4322 0.0000
# 2 12.9026 77.4774 10.1121 0.0000 2.0298 0.0000
# 3 22.7972 10.1121 76.7145 0.0000 4.5751 0.0000
# 4 0.0000 0.0000 0.0000 -46.7777 0.0000 0.3331
# 5 -7.4322 2.0298 4.5751 0.0000 26.5210 0.0000
# 6 0.0000 0.0000 0.0000 0.3331 0.0000 -1.8579
#
#
#
# Elastic Compliance Matrix: (Units=1/GPa)
#
#
# Indices 1 2 3 4 5 6 
#
# 1 0.007229 -0.000986 -0.002166 0.000000 0.002475 0.000000
# 2 -0.000986 0.013281 -0.001395 0.000000 -0.001052 0.000000
# 3 -0.002166 -0.001395 0.014037 0.000000 -0.002922 0.000000
# 4 0.000000 0.000000 0.000000 -0.021405 0.000000 -0.003838
# 5 0.002475 -0.001052 -0.002922 0.000000 0.038984 0.000000
# 6 0.000000 0.000000 0.000000 -0.003838 0.000000 -0.538930
#
#
# Mechanical properties :
#
#
# Convention : Reuss Voigt Hill
#
# Bulk Modulus (GPa) = 39.28721 43.91923 41.60322
# Shear Modulus (GPa) = -10.65586 12.76623 1.05518
#
# Velocity S-wave (km/s) = -2.10039 2.29899 0.66095
# Velocity P-wave (km/s) = 3.22228 5.02296 4.21979
#
# Compressibility (1/GPa) = 0.02545357
#
# Stress axis : x y z
#
# Youngs Moduli (GPa) = 138.32256 75.29655 71.23965
#
# Poissons Ratio (x) = 0.07425 0.15431
# Poissons Ratio (y) = 0.13640 0.09937
# Poissons Ratio (z) = 0.29961 0.10502
#
# Static dielectric constant tensor:
#      x y z
#    x 2.257770 0.000000 -0.078210 
#    y 0.000000 1.979860 0.000000 
#    z -0.078210 0.000000 1.980890 
# 
# From -- ./inp_files/261569.got.cif
#   From: 2010.05.17/outbox.cif.g08.bks.cpg/sg15_131_cif.got.tgz:261569.got - 2010.06.03 18:47:42.
