data_PCOD9261226
_publ_section_title
;
Structure prediction by ZEFSAII (Michael W. Deem and Ramdas Pophale) SiO2 
 PCOD9261226
Probable space group: C 2/C
;
_chemical_formula_sum "Si O2"
_cell_formula_units_Z 44
_cell_length_a 21.200126
_cell_length_b 12.945778
_cell_length_c 8.556952
_cell_angle_alpha 90.000000
_cell_angle_beta 64.186240
_cell_angle_gamma 90.000000
_cell_volume 2114.129386
_symmetry_space_group_name_H-M "C 2/C"
_symmetry_group_IT_number 15
_symmetry_cell_setting 'monoclinic'
loop_
_space_group_symop_operation_xyz
x,y,z
-x,y,1/2-z
-x,-y,-z
x,-y,1/2+z
1/2+x,1/2+y,z
1/2-x,1/2+y,1/2-z
1/2-x,1/2-y,-z
1/2+x,1/2-y,1/2+z
loop_
_atom_site_type_symbol
_atom_site_label
_atom_site_fract_x
_atom_site_fract_y
_atom_site_fract_z
Si Si1 0.263201 0.393231 0.331115
Si Si2 0.550848 0.056378 0.324017
Si Si3 0.814224 0.445480 0.397520
Si Si4 0.160025 0.291751 0.868728
Si Si5 0.591384 0.408000 0.439205
Si Si6 0.000000 0.942354 0.250000
O O1 0.209818 0.406613 0.244758
O O2 0.228285 0.450548 0.513481
O O3 0.289278 0.274422 0.300003
O O4 0.335584 0.451829 0.207711
O O5 0.500000 0.104675 0.250000
O O6 0.604033 0.137202 0.342330
O O7 0.500000 0.000000 0.500000
O O8 0.603618 0.972479 0.191555
O O9 0.801012 0.361016 0.545877
O O10 0.115699 0.198083 0.994485
O O11 0.542500 0.384670 0.341093
O O12 0.553435 0.484622 0.596964
#
# Coordination Sequence:
#
# PCOD9261226 Si02
#       6
#     8   8   8   8   8   4
#     4  10  23  40  66  94 130 163 218 260 325 375
#     4  12  24  43  66  91 132 171 215 265 324 381
#     4  12  21  45  65  93 134 168 209 277 318 379
#     4  10  24  39  64  97 118 169 213 259 318 384
#     4   9  22  36  63  87 127 160 218 257 309 393
#     4  10  18  42  58  88 126 176 200 262 322 360
#
# _framework density 20.812349999999999
#
# number of rings (size 3 to 8) (size 9 to 14) (size 15 to 20)
#    1.091    0.364    3.636    1.636    1.273    2.182 
#    0.000    0.000    0.000    0.000    0.000    0.000 
#    0.000    0.000    0.000    0.000    0.000    0.000 
#
# Total GULP energy -122624.530096 kJ/mol
# GULP energy per Si atom -5573.842277 kJ/mol
# Density = 2.076498 g / cm^3
# Si number density = 20.812350 Si / 1000 Ang^3
#
#
#
# Elastic Constant Matrix: (Units=GPa)
#
#
# Indices 1 2 3 4 5 6 
#
# 1 74.6463 5.9292 3.9318 0.0000 -0.5857 0.0000
# 2 5.9292 78.1731 14.4735 0.0000 -7.5590 0.0000
# 3 3.9318 14.4735 58.0583 0.0000 -26.1928 0.0000
# 4 0.0000 0.0000 0.0000 7.8677 0.0000 -3.5976
# 5 -0.5857 -7.5590 -26.1928 0.0000 42.0343 0.0000
# 6 0.0000 0.0000 0.0000 -3.5976 0.0000 35.4626
#
#
#
# Elastic Compliance Matrix: (Units=1/GPa)
#
#
# Indices 1 2 3 4 5 6 
#
# 1 0.013514 -0.000905 -0.000943 0.000000 -0.000562 0.000000
# 2 -0.000905 0.013478 -0.003076 0.000000 0.000495 0.000000
# 3 -0.000943 -0.003076 0.024760 0.000000 0.014862 0.000000
# 4 0.000000 0.000000 0.000000 0.133285 0.000000 0.013521
# 5 -0.000562 0.000495 0.014862 0.000000 0.033132 0.000000
# 6 0.000000 0.000000 0.000000 0.013521 0.000000 0.029570
#
#
# Mechanical properties :
#
#
# Convention : Reuss Voigt Hill
#
# Bulk Modulus (GPa) = 23.86385 28.83854 26.35119
# Shear Modulus (GPa) = 18.41255 29.50912 23.96084
#
# Velocity S-wave (km/s) = 2.97761 3.76954 3.39673
# Velocity P-wave (km/s) = 4.82831 5.72996 5.29835
#
# Compressibility (1/GPa) = 0.04190440
#
# Stress axis : x y z
#
# Youngs Moduli (GPa) = 73.99924 74.19493 40.38819
#
# Poissons Ratio (x) = 0.06712 0.03810
# Poissons Ratio (y) = 0.06695 0.12422
# Poissons Ratio (z) = 0.06980 0.22819
#
# Static dielectric constant tensor:
#      x y z
#    x 1.752080 0.000000 0.018240 
#    y 0.000000 1.781570 0.000000 
#    z 0.018240 0.000000 1.774660 
# 
# From -- ./inp_files/54913.got.cif
#   From: 2010.05.17/outbox.cif.g08.bks.cpg/sg15_28_cif.got.tgz:54913.got - 2010.06.03 18:47:42.
