data_PCOD9261380
_publ_section_title
;
Structure prediction by ZEFSAII (Michael W. Deem and Ramdas Pophale) SiO2 
 PCOD9261380
Probable space group: C 2/C
;
_chemical_formula_sum "Si O2"
_cell_formula_units_Z 52
_cell_length_a 19.679219
_cell_length_b 24.906140
_cell_length_c 5.339911
_cell_angle_alpha 90.000000
_cell_angle_beta 54.812504
_cell_angle_gamma 90.000000
_cell_volume 2139.016919
_symmetry_space_group_name_H-M "C 2/C"
_symmetry_group_IT_number 15
_symmetry_cell_setting 'monoclinic'
loop_
_space_group_symop_operation_xyz
x,y,z
-x,y,1/2-z
-x,-y,-z
x,-y,1/2+z
1/2+x,1/2+y,z
1/2-x,1/2+y,1/2-z
1/2-x,1/2-y,-z
1/2+x,1/2-y,1/2+z
loop_
_atom_site_type_symbol
_atom_site_label
_atom_site_fract_x
_atom_site_fract_y
_atom_site_fract_z
Si Si1 0.205839 0.136617 0.037345
Si Si2 0.875604 0.703842 0.154567
Si Si3 0.815929 0.966579 0.646717
Si Si4 0.406890 0.975276 0.173020
Si Si5 0.176142 0.819940 0.096408
Si Si6 0.104999 0.348136 0.389640
Si Si7 0.000000 0.965007 0.250000
O O1 0.232880 0.082042 0.123136
O O2 0.153127 0.167721 0.358129
O O3 0.165852 0.136692 0.844889
O O4 0.295362 0.162547 0.802989
O O5 0.871442 0.766936 0.215206
O O6 0.776387 0.688737 0.357366
O O7 0.920823 0.671121 0.280828
O O8 0.915346 0.686754 0.808780
O O9 0.909168 0.940378 0.455427
O O10 0.807837 0.987661 0.380254
O O11 0.412018 0.911501 0.119762
O O12 0.366519 0.994835 0.519740
O O13 0.500000 0.000000 0.000000
O O14 0.000000 0.000000 0.500000
#
# Coordination Sequence:
#
# PCOD9261380 Si02
#       7
#     8   8   8   8   8   8   4
#     4  10  19  29  46  73 102 131 160 199 251 303
#     4   9  17  30  49  71  98 129 159 201 249 305
#     4  10  19  31  46  67  96 130 163 193 228 272
#     4  10  21  36  52  71  97 130 170 213 256 306
#     4   9  17  30  46  70 102 129 158 197 252 308
#     4  10  19  31  49  74  98 125 165 203 249 304
#     4   8  16  30  46  62  82 114 158 188 206 252
#
# _framework density 24.310231999999999
#
# number of rings (size 3 to 8) (size 9 to 14) (size 15 to 20)
#    0.000    2.462    0.000    2.769    0.000    4.923 
#    0.000    0.000    0.000    0.000    0.000   21.538 
#    0.000    0.000    0.000    0.000    0.000    0.000 
#
# Total GULP energy -144906.217853 kJ/mol
# GULP energy per Si atom -5573.316071 kJ/mol
# Density = 2.425490 g / cm^3
# Si number density = 24.310232 Si / 1000 Ang^3
#
#
#
# Elastic Constant Matrix: (Units=GPa)
#
#
# Indices 1 2 3 4 5 6 
#
# 1 47.4781 -2.4839 27.9146 0.0000 11.0799 0.0000
# 2 -2.4839 90.8387 37.2664 0.0000 12.8638 0.0000
# 3 27.9146 37.2664 147.5923 0.0000 25.7759 0.0000
# 4 0.0000 0.0000 0.0000 39.0044 0.0000 6.9115
# 5 11.0799 12.8638 25.7759 0.0000 36.9807 0.0000
# 6 0.0000 0.0000 0.0000 6.9115 0.0000 21.2238
#
#
#
# Elastic Compliance Matrix: (Units=1/GPa)
#
#
# Indices 1 2 3 4 5 6 
#
# 1 0.025270 0.003387 -0.004676 0.000000 -0.005490 0.000000
# 2 0.003387 0.012925 -0.003349 0.000000 -0.003176 0.000000
# 3 -0.004676 -0.003349 0.009174 0.000000 -0.003828 0.000000
# 4 0.000000 0.000000 0.000000 0.027208 0.000000 -0.008860
# 5 -0.005490 -0.003176 -0.003828 0.000000 0.032459 0.000000
# 6 0.000000 0.000000 0.000000 -0.008860 0.000000 0.050002
#
#
# Mechanical properties :
#
#
# Convention : Reuss Voigt Hill
#
# Bulk Modulus (GPa) = 26.25214 45.70038 35.97626
# Shear Modulus (GPa) = 27.93100 34.32259 31.12679
#
# Velocity S-wave (km/s) = 3.39328 3.76155 3.58215
# Velocity P-wave (km/s) = 5.11612 6.14046 5.65155
#
# Compressibility (1/GPa) = 0.03809214
#
# Stress axis : x y z
#
# Youngs Moduli (GPa) = 39.57289 77.36970 109.00325
#
# Poissons Ratio (x) = -0.26202 0.50966
# Poissons Ratio (y) = -0.13402 0.36509
# Poissons Ratio (z) = 0.18503 0.25914
#
# Static dielectric constant tensor:
#      x y z
#    x 2.113810 0.000000 -0.109800 
#    y 0.000000 1.967070 0.000000 
#    z -0.109800 0.000000 2.113090 
# 
# From -- ./inp_files/13330.got.cif
#   From: 2010.05.17/outbox.cif.g08.bks.cpg/sg15_7_cif.got.tgz:13330.got - 2010.06.03 18:47:42.
