data_PCOD9261946
_publ_section_title
;
Structure prediction by ZEFSAII (Michael W. Deem and Ramdas Pophale) SiO2 
 PCOD9261946
Probable space group: C 2/C
;
_chemical_formula_sum "Si O2"
_cell_formula_units_Z 48
_cell_length_a 16.592274
_cell_length_b 12.528236
_cell_length_c 7.964153
_cell_angle_alpha 90.000000
_cell_angle_beta 81.918771
_cell_angle_gamma 90.000000
_cell_volume 1639.084072
_symmetry_space_group_name_H-M "C 2/C"
_symmetry_group_IT_number 15
_symmetry_cell_setting 'monoclinic'
loop_
_space_group_symop_operation_xyz
x,y,z
-x,y,1/2-z
-x,-y,-z
x,-y,1/2+z
1/2+x,1/2+y,z
1/2-x,1/2+y,1/2-z
1/2-x,1/2-y,-z
1/2+x,1/2-y,1/2+z
loop_
_atom_site_type_symbol
_atom_site_label
_atom_site_fract_x
_atom_site_fract_y
_atom_site_fract_z
Si Si1 0.867202 0.144612 0.352658
Si Si2 0.661456 0.333534 0.179529
Si Si3 0.483275 0.653074 0.986658
Si Si4 0.222017 0.394270 0.664256
Si Si5 0.532664 0.113536 0.930408
Si Si6 0.316175 0.122064 0.810577
O O1 0.925632 0.141087 0.169481
O O2 0.781637 0.094056 0.312423
O O3 0.843573 0.269350 0.390694
O O4 0.929137 0.107215 0.482011
O O5 0.663605 0.206536 0.205909
O O6 0.719591 0.373511 0.310385
O O7 0.573813 0.377799 0.154082
O O8 0.715706 0.361549 0.999950
O O9 0.495533 0.781192 0.964653
O O10 0.172567 0.500910 0.638687
O O11 0.500000 0.124882 0.750000
O O12 0.629454 0.125503 0.874346
O O13 0.500000 0.000000 0.000000
#
# Coordination Sequence:
#
# PCOD9261946 Si02
#       6
#     8   8   8   8   8   8
#     4   8  15  29  49  77 103 136 176 224 273 319
#     4   9  19  30  53  79  98 145 189 225 270 332
#     4   9  15  31  51  76 102 135 184 227 264 327
#     4   9  17  31  52  75 107 137 181 226 271 330
#     4  11  22  32  52  85 116 145 182 229 290 345
#     4  10  19  32  50  79 111 140 182 228 276 326
#
# _framework density 29.284645999999999
#
# number of rings (size 3 to 8) (size 9 to 14) (size 15 to 20)
#    0.000    2.667    3.333    3.000    4.667    0.000 
#    0.000    0.833    0.000    9.000    0.000    0.000 
#    0.000    0.000    0.000    0.000    0.000    0.000 
#
# Total GULP energy -134317.545651 kJ/mol
# GULP energy per Si atom -5596.564402 kJ/mol
# Density = 2.921799 g / cm^3
# Si number density = 29.284646 Si / 1000 Ang^3
#
#
#
# Elastic Constant Matrix: (Units=GPa)
#
#
# Indices 1 2 3 4 5 6 
#
# 1 214.1074 -2.6689 40.2648 0.0000 24.7708 0.0000
# 2 -2.6689 151.7969 -1.9143 0.0000 -1.5003 0.0000
# 3 40.2648 -1.9143 119.5501 0.0000 36.6975 0.0000
# 4 0.0000 0.0000 0.0000 27.9854 0.0000 -11.1376
# 5 24.7708 -1.5003 36.6975 0.0000 67.3689 0.0000
# 6 0.0000 0.0000 0.0000 -11.1376 0.0000 10.8930
#
#
#
# Elastic Compliance Matrix: (Units=1/GPa)
#
#
# Indices 1 2 3 4 5 6 
#
# 1 0.005056 0.000061 -0.001359 0.000000 -0.001118 0.000000
# 2 0.000061 0.006590 0.000056 0.000000 0.000094 0.000000
# 3 -0.001359 0.000056 0.010410 0.000000 -0.005170 0.000000
# 4 0.000000 0.000000 0.000000 0.060250 0.000000 0.061603
# 5 -0.001118 0.000094 -0.005170 0.000000 0.018073 0.000000
# 6 0.000000 0.000000 0.000000 0.061603 0.000000 0.154789
#
#
# Mechanical properties :
#
#
# Convention : Reuss Voigt Hill
#
# Bulk Modulus (GPa) = 51.09078 61.86861 56.47970
# Shear Modulus (GPa) = 18.92675 51.23431 35.08053
#
# Velocity S-wave (km/s) = 2.54501 4.18727 3.46485
# Velocity P-wave (km/s) = 5.11079 6.67459 5.94434
#
# Compressibility (1/GPa) = 0.01957300
#
# Stress axis : x y z
#
# Youngs Moduli (GPa) = 197.77872 151.73459 96.05946
#
# Poissons Ratio (x) = -0.00921 0.13054
# Poissons Ratio (y) = -0.01201 -0.00541
# Poissons Ratio (z) = 0.26877 -0.00854
#
# Static dielectric constant tensor:
#      x y z
#    x 2.339760 0.000000 0.024420 
#    y 0.000000 2.189120 0.000000 
#    z 0.024420 0.000000 2.391970 
# 
# From -- ./inp_files/103816.got.cif
#   From: 2010.05.17/outbox.cif.g08.bks.cpg/sg15_52_cif.got.tgz:103816.got - 2010.06.03 18:47:42.
