data_PCOD9261295
_publ_section_title
;
Structure prediction by ZEFSAII (Michael W. Deem and Ramdas Pophale) SiO2 
 PCOD9261295
Probable space group: C 2/C
;
_chemical_formula_sum "Si O2"
_cell_formula_units_Z 48
_cell_length_a 13.008096
_cell_length_b 9.740339
_cell_length_c 16.674076
_cell_angle_alpha 90.000000
_cell_angle_beta 54.432780
_cell_angle_gamma 90.000000
_cell_volume 1718.508672
_symmetry_space_group_name_H-M "C 2/C"
_symmetry_group_IT_number 15
_symmetry_cell_setting 'monoclinic'
loop_
_space_group_symop_operation_xyz
x,y,z
-x,y,1/2-z
-x,-y,-z
x,-y,1/2+z
1/2+x,1/2+y,z
1/2-x,1/2+y,1/2-z
1/2-x,1/2-y,-z
1/2+x,1/2-y,1/2+z
loop_
_atom_site_type_symbol
_atom_site_label
_atom_site_fract_x
_atom_site_fract_y
_atom_site_fract_z
Si Si1 0.976605 0.752987 0.152312
Si Si2 0.664924 0.096535 0.979942
Si Si3 0.606135 0.614216 0.967661
Si Si4 0.620141 0.522914 0.222389
Si Si5 0.485121 0.839304 0.105820
Si Si6 0.810940 0.515814 0.282963
O O1 0.904753 0.773826 0.099435
O O2 0.953905 0.897648 0.201771
O O3 0.902363 0.644655 0.239886
O O4 0.119732 0.707053 0.067591
O O5 0.792626 0.024803 0.891687
O O6 0.617228 0.171080 0.919928
O O7 0.571456 0.970608 0.044928
O O8 0.735397 0.530962 0.896038
O O9 0.500000 0.500000 0.000000
O O10 0.571951 0.704933 0.059899
O O11 0.500000 0.613984 0.250000
O O12 0.713817 0.555915 0.254446
O O13 0.397912 0.886681 0.218473
#
# Coordination Sequence:
#
# PCOD9261295 Si02
#       6
#     8   8   8   8   8   8
#     4   9  19  33  49  73 105 140 174 213 262 308
#     4   8  15  30  49  64 102 137 167 200 264 316
#     4  10  19  25  47  77 103 123 171 226 253 285
#     4  10  19  30  50  81 108 130 172 222 265 305
#     4   8  15  31  46  70  99 134 169 212 257 300
#     4   9  19  33  51  71 108 141 171 210 265 318
#
# _framework density 27.931193
#
# number of rings (size 3 to 8) (size 9 to 14) (size 15 to 20)
#    0.000    3.000    0.000    3.000    9.333    0.667 
#    0.000    0.000    0.000    0.000    0.000   29.167 
#    0.000    0.000    0.000    0.000    0.000    0.000 
#
# Total GULP energy -134136.597997 kJ/mol
# GULP energy per Si atom -5589.024917 kJ/mol
# Density = 2.786762 g / cm^3
# Si number density = 27.931193 Si / 1000 Ang^3
#
#
#
# Elastic Constant Matrix: (Units=GPa)
#
#
# Indices 1 2 3 4 5 6 
#
# 1 104.8005 5.5554 27.3422 0.0000 -14.7992 0.0000
# 2 5.5554 87.7335 23.0918 0.0000 -0.6164 0.0000
# 3 27.3422 23.0918 172.8427 0.0000 -26.9853 0.0000
# 4 0.0000 0.0000 0.0000 48.1171 0.0000 -5.8184
# 5 -14.7992 -0.6164 -26.9853 0.0000 46.3840 0.0000
# 6 0.0000 0.0000 0.0000 -5.8184 0.0000 7.6319
#
#
#
# Elastic Compliance Matrix: (Units=1/GPa)
#
#
# Indices 1 2 3 4 5 6 
#
# 1 0.010229 -0.000321 -0.001173 0.000000 0.002577 0.000000
# 2 -0.000321 0.011853 -0.001677 0.000000 -0.000920 0.000000
# 3 -0.001173 -0.001677 0.006746 0.000000 0.003528 0.000000
# 4 0.000000 0.000000 0.000000 0.022893 0.000000 0.017453
# 5 0.002577 -0.000920 0.003528 0.000000 0.024422 0.000000
# 6 0.000000 0.000000 0.000000 0.017453 0.000000 0.144335
#
#
# Mechanical properties :
#
#
# Convention : Reuss Voigt Hill
#
# Bulk Modulus (GPa) = 44.46913 53.03947 48.75430
# Shear Modulus (GPa) = 21.33880 41.05241 31.19560
#
# Velocity S-wave (km/s) = 2.76701 3.83792 3.34559
# Velocity P-wave (km/s) = 5.11508 6.21852 5.69359
#
# Compressibility (1/GPa) = 0.02248751
#
# Stress axis : x y z
#
# Youngs Moduli (GPa) = 97.76258 84.36487 148.23649
#
# Poissons Ratio (x) = 0.02707 0.17387
# Poissons Ratio (y) = 0.03137 0.24852
# Poissons Ratio (z) = 0.11467 0.14144
#
# Static dielectric constant tensor:
#      x y z
#    x 2.421960 0.000000 0.067570 
#    y 0.000000 2.162260 0.000000 
#    z 0.067570 0.000000 2.165950 
# 
# From -- ./inp_files/276870.got.cif
#   From: 2010.05.17/outbox.cif.g08.bks.cpg/sg15_139_cif.got.tgz:276870.got - 2010.06.03 18:47:42.
