data_PCOD9261472
_publ_section_title
;
Structure prediction by ZEFSAII (Michael W. Deem and Ramdas Pophale) SiO2 
 PCOD9261472
Probable space group: C 2/C
;
_chemical_formula_sum "Si O2"
_cell_formula_units_Z 48
_cell_length_a 17.155626
_cell_length_b 21.813776
_cell_length_c 13.550806
_cell_angle_alpha 90.000000
_cell_angle_beta 25.420686
_cell_angle_gamma 90.000000
_cell_volume 2176.828562
_symmetry_space_group_name_H-M "C 2/C"
_symmetry_group_IT_number 15
_symmetry_cell_setting 'monoclinic'
loop_
_space_group_symop_operation_xyz
x,y,z
-x,y,1/2-z
-x,-y,-z
x,-y,1/2+z
1/2+x,1/2+y,z
1/2-x,1/2+y,1/2-z
1/2-x,1/2-y,-z
1/2+x,1/2-y,1/2+z
loop_
_atom_site_type_symbol
_atom_site_label
_atom_site_fract_x
_atom_site_fract_y
_atom_site_fract_z
Si Si1 0.009581 0.448003 0.573337
Si Si2 0.282243 0.140313 0.977501
Si Si3 0.804008 0.985672 0.842851
Si Si4 0.619853 0.576198 0.459511
Si Si5 0.704752 0.693730 0.270238
Si Si6 0.625204 0.829076 0.339607
O O1 0.800026 0.428144 0.821020
O O2 0.000000 0.500000 0.500000
O O3 0.118489 0.478432 0.536672
O O4 0.130405 0.390717 0.397271
O O5 0.500000 0.139893 0.750000
O O6 0.261018 0.164214 0.891265
O O7 0.186094 0.179648 0.173983
O O8 0.215903 0.070265 0.059497
O O9 0.960492 0.034522 0.682779
O O10 0.839837 0.952505 0.695593
O O11 0.584639 0.647125 0.472337
O O12 0.676855 0.764374 0.326910
O O13 0.912717 0.676024 0.054376
#
# Coordination Sequence:
#
# PCOD9261472 Si02
#       6
#     8   8   8   8   8   8
#     4   9  17  30  48  68  89 129 169 216 247 286
#     4   9  17  31  47  66 100 140 165 201 250 301
#     4   9  16  29  52  63  88 131 172 210 251 286
#     4   8  16  29  45  68  89 120 172 215 243 276
#     4   9  18  29  45  66 100 138 164 200 244 304
#     4  10  19  30  48  70 105 138 168 203 250 310
#
# _framework density 22.050428
#
# number of rings (size 3 to 8) (size 9 to 14) (size 15 to 20)
#    0.000    3.000    0.000    3.500    2.333    0.000 
#    0.000    0.000    7.333    0.000    0.000    0.000 
#    0.000    5.333    2.667    0.000    0.000    2.000 
#
# Total GULP energy -134026.117692 kJ/mol
# GULP energy per Si atom -5584.421570 kJ/mol
# Density = 2.200024 g / cm^3
# Si number density = 22.050428 Si / 1000 Ang^3
#
#
#
# Elastic Constant Matrix: (Units=GPa)
#
#
# Indices 1 2 3 4 5 6 
#
# 1 28.4461 18.5135 13.6491 -0.0623 -5.6519 0.1104
# 2 18.5135 164.3627 20.8555 -0.0900 8.9614 0.1450
# 3 13.6491 20.8555 32.8879 -0.0840 -1.4189 0.1642
# 4 -0.0623 -0.0900 -0.0840 38.7694 0.0724 -1.4576
# 5 -5.6519 8.9614 -1.4189 0.0724 12.5564 -0.1208
# 6 0.1104 0.1450 0.1642 -1.4576 -0.1208 -10.7253
#
#
#
# Elastic Compliance Matrix: (Units=1/GPa)
#
#
# Indices 1 2 3 4 5 6 
#
# 1 0.051570 -0.004984 -0.017171 -0.000015 0.024828 -0.000077
# 2 -0.004984 0.007457 -0.003002 0.000021 -0.007904 0.000090
# 3 -0.017171 -0.003002 0.039385 0.000067 -0.001132 0.000389
# 4 -0.000015 0.000021 0.000067 0.025663 -0.000196 -0.003484
# 5 0.024828 -0.007904 -0.001132 -0.000196 0.096322 -0.000927
# 6 -0.000077 0.000090 0.000389 -0.003484 -0.000927 -0.092747
#
#
# Mechanical properties :
#
#
# Convention : Reuss Voigt Hill
#
# Bulk Modulus (GPa) = 20.78996 36.85919 28.82457
# Shear Modulus (GPa) = 25.77374 19.63203 22.70289
#
# Velocity S-wave (km/s) = 3.42256 2.98707 3.21220
# Velocity P-wave (km/s) = 5.00674 5.35247 5.18249
#
# Compressibility (1/GPa) = 0.04810014
#
# Stress axis : x y z
#
# Youngs Moduli (GPa) = 19.39114 134.09783 25.39007
#
# Poissons Ratio (x) = 0.66830 0.43596
# Poissons Ratio (y) = 0.09664 0.07622
# Poissons Ratio (z) = 0.33296 0.40256
#
# Static dielectric constant tensor:
#      x y z
#    x 1.816630 0.000030 -0.021180 
#    y 0.000030 1.881620 0.000060 
#    z -0.021180 0.000060 1.839910 
# 
# From -- ./inp_files/47971.got.cif
#   From: 2010.05.17/outbox.cif.g08.bks.cpg/sg15_24_cif.got.tgz:47971.got - 2010.06.03 18:47:42.
