data_PCOD9261073
_publ_section_title
;
Structure prediction by ZEFSAII (Michael W. Deem and Ramdas Pophale) SiO2 
 PCOD9261073
Probable space group: C 2/C
;
_chemical_formula_sum "Si O2"
_cell_formula_units_Z 52
_cell_length_a 15.695495
_cell_length_b 23.180202
_cell_length_c 9.564032
_cell_angle_alpha 90.000000
_cell_angle_beta 124.291657
_cell_angle_gamma 90.000000
_cell_volume 2874.803144
_symmetry_space_group_name_H-M "C 2/C"
_symmetry_group_IT_number 15
_symmetry_cell_setting 'monoclinic'
loop_
_space_group_symop_operation_xyz
x,y,z
-x,y,1/2-z
-x,-y,-z
x,-y,1/2+z
1/2+x,1/2+y,z
1/2-x,1/2+y,1/2-z
1/2-x,1/2-y,-z
1/2+x,1/2-y,1/2+z
loop_
_atom_site_type_symbol
_atom_site_label
_atom_site_fract_x
_atom_site_fract_y
_atom_site_fract_z
Si Si1 0.662290 0.130920 0.242407
Si Si2 0.750855 0.976723 0.997991
Si Si3 0.407261 0.393680 0.270164
Si Si4 0.668321 0.706791 0.989643
Si Si5 0.500000 0.213397 0.250000
Si Si6 0.562185 0.956579 0.451639
Si Si7 0.439966 0.543331 0.049434
O O1 0.695809 0.073023 0.356468
O O2 0.769757 0.168520 0.337443
O O3 0.582034 0.171822 0.250133
O O4 0.598967 0.103610 0.054931
O O5 0.823002 0.942843 0.172043
O O6 0.827891 0.017117 0.981198
O O7 0.666361 0.011813 0.002424
O O8 0.500000 0.408193 0.250000
O O9 0.361490 0.336070 0.164027
O O10 0.438014 0.397314 0.459366
O O11 0.564781 0.744735 0.915673
O O12 0.750000 0.750000 0.000000
O O13 0.500000 0.948062 0.250000
O O14 0.500000 0.000000 0.500000
O O15 0.500000 0.549177 0.250000
O O16 0.500000 0.500000 0.000000
#
# Coordination Sequence:
#
# PCOD9261073 Si02
#       7
#     8   8   8   8   4   8   8
#     4  10  21  35  60  89 117 154 201 244 304 349
#     4  11  21  37  57  85 131 160 195 236 292 367
#     4  11  20  35  60  88 119 156 201 245 303 353
#     4   9  20  36  60  86 111 147 204 265 297 340
#     4  10  18  40  62  88 110 152 208 268 298 346
#     4  12  24  39  58  88 130 168 199 237 289 366
#     4  12  22  35  55  87 132 168 192 234 292 367
#
# _framework density 18.088194999999999
#
# number of rings (size 3 to 8) (size 9 to 14) (size 15 to 20)
#    0.000    1.231    5.385    1.846    0.000    0.000 
#    0.000    0.000    0.000    4.615    0.000    0.000 
#    0.000    0.000    0.000    0.000    0.000    0.000 
#
# Total GULP energy -144785.535749 kJ/mol
# GULP energy per Si atom -5568.674452 kJ/mol
# Density = 1.804703 g / cm^3
# Si number density = 18.088195 Si / 1000 Ang^3
#
#
#
# Elastic Constant Matrix: (Units=GPa)
#
#
# Indices 1 2 3 4 5 6 
#
# 1 117.1348 44.3615 44.7643 0.0000 13.9829 0.0000
# 2 44.3615 86.7907 55.1023 0.0000 7.7720 0.0000
# 3 44.7643 55.1023 139.5118 0.0000 0.1849 0.0000
# 4 0.0000 0.0000 0.0000 19.5529 0.0000 9.6679
# 5 13.9829 7.7720 0.1849 0.0000 27.1116 0.0000
# 6 0.0000 0.0000 0.0000 9.6679 0.0000 13.6174
#
#
#
# Elastic Compliance Matrix: (Units=1/GPa)
#
#
# Indices 1 2 3 4 5 6 
#
# 1 0.011441 -0.004138 -0.002031 0.000000 -0.004701 0.000000
# 2 -0.004138 0.017410 -0.005545 0.000000 -0.002819 0.000000
# 3 -0.002031 -0.005545 0.010006 0.000000 0.002569 0.000000
# 4 0.000000 0.000000 0.000000 0.078808 0.000000 -0.055951
# 5 -0.004701 -0.002819 0.002569 0.000000 0.040100 0.000000
# 6 0.000000 0.000000 0.000000 -0.055951 0.000000 0.113159
#
#
# Mechanical properties :
#
#
# Convention : Reuss Voigt Hill
#
# Bulk Modulus (GPa) = 64.80645 70.21039 67.50842
# Shear Modulus (GPa) = 16.69482 25.33701 21.01591
#
# Velocity S-wave (km/s) = 3.04133 3.74672 3.41230
# Velocity P-wave (km/s) = 6.94541 7.59059 7.27516
#
# Compressibility (1/GPa) = 0.01543056
#
# Stress axis : x y z
#
# Youngs Moduli (GPa) = 87.40133 57.43911 99.94012
#
# Poissons Ratio (x) = 0.23768 0.20294
# Poissons Ratio (y) = 0.36166 0.55415
# Poissons Ratio (z) = 0.17748 0.31849
#
# Static dielectric constant tensor:
#      x y z
#    x 1.565090 0.000000 0.021940 
#    y 0.000000 1.621140 0.000000 
#    z 0.021940 0.000000 1.701120 
# 
# From -- ./inp_files/42332.got.cif
#   From: 2010.05.17/outbox.cif.g08.bks.cpg/sg15_22_cif.got.tgz:42332.got - 2010.06.03 18:47:42.
