data_PCOD9261896
_publ_section_title
;
Structure prediction by ZEFSAII (Michael W. Deem and Ramdas Pophale) SiO2 
 PCOD9261896
Probable space group: C 2/C
;
_chemical_formula_sum "Si O2"
_cell_formula_units_Z 40
_cell_length_a 16.401280
_cell_length_b 22.157410
_cell_length_c 5.310518
_cell_angle_alpha 90.000000
_cell_angle_beta 94.110166
_cell_angle_gamma 90.000000
_cell_volume 1924.931206
_symmetry_space_group_name_H-M "C 2/C"
_symmetry_group_IT_number 15
_symmetry_cell_setting 'monoclinic'
loop_
_space_group_symop_operation_xyz
x,y,z
-x,y,1/2-z
-x,-y,-z
x,-y,1/2+z
1/2+x,1/2+y,z
1/2-x,1/2+y,1/2-z
1/2-x,1/2-y,-z
1/2+x,1/2-y,1/2+z
loop_
_atom_site_type_symbol
_atom_site_label
_atom_site_fract_x
_atom_site_fract_y
_atom_site_fract_z
Si Si1 0.955560 0.782022 0.490812
Si Si2 0.902359 0.035243 0.224805
Si Si3 0.974506 0.649951 0.995550
Si Si4 0.786328 0.681859 0.019027
Si Si5 0.297327 0.353131 0.496579
O O1 0.861482 0.798158 0.485734
O O2 0.000000 0.806501 0.250000
O O3 0.969105 0.710350 0.491683
O O4 0.000000 0.805527 0.750000
O O5 0.852290 0.091645 0.106981
O O6 0.000000 0.046387 0.250000
O O7 0.884097 0.016039 0.508571
O O8 0.882434 0.674862 0.986029
O O9 0.000000 0.616268 0.750000
O O10 0.000000 0.615058 0.250000
O O11 0.742594 0.643442 0.787638
O O12 0.750000 0.750000 0.000000
O O13 0.766409 0.659152 0.294851
#
# Coordination Sequence:
#
# PCOD9261896 Si02
#       5
#     8   8   8   8   8
#     4  10  19  32  49  70 100 147 190 217 261 325
#     4  10  22  40  61  85 114 151 197 247 292 342
#     4  10  19  34  50  70 106 150 187 220 266 323
#     4  12  23  35  53  83 118 153 194 237 278 340
#     4  12  23  37  57  83 116 152 196 240 289 339
#
# _framework density 20.779965000000001
#
# number of rings (size 3 to 8) (size 9 to 14) (size 15 to 20)
#    0.000    1.200    0.000    9.600    0.000    2.400 
#    0.000    0.000    0.000    0.000    0.000    0.000 
#    0.000   56.000    0.000    0.000    0.000    0.000 
#
# Total GULP energy -111693.593509 kJ/mol
# GULP energy per Si atom -5584.679675 kJ/mol
# Density = 2.073267 g / cm^3
# Si number density = 20.779965 Si / 1000 Ang^3
#
#
#
# Elastic Constant Matrix: (Units=GPa)
#
#
# Indices 1 2 3 4 5 6 
#
# 1 92.2802 6.5846 41.3905 0.0000 0.8954 0.0000
# 2 6.5846 36.3974 4.3759 0.0000 8.6210 0.0000
# 3 41.3905 4.3759 178.6599 0.0000 -6.3972 0.0000
# 4 0.0000 0.0000 0.0000 -18.7837 0.0000 -1.7628
# 5 0.8954 8.6210 -6.3972 0.0000 42.3325 0.0000
# 6 0.0000 0.0000 0.0000 -1.7628 0.0000 16.5802
#
#
#
# Elastic Compliance Matrix: (Units=1/GPa)
#
#
# Indices 1 2 3 4 5 6 
#
# 1 0.012224 -0.001800 -0.002799 0.000000 -0.000315 0.000000
# 2 -0.001800 0.029284 -0.000515 0.000000 -0.006003 0.000000
# 3 -0.002799 -0.000515 0.006298 0.000000 0.001116 0.000000
# 4 0.000000 0.000000 0.000000 -0.052712 0.000000 -0.005604
# 5 -0.000315 -0.006003 0.001116 0.000000 0.025020 0.000000
# 6 0.000000 0.000000 0.000000 -0.005604 0.000000 0.059717
#
#
# Mechanical properties :
#
#
# Convention : Reuss Voigt Hill
#
# Bulk Modulus (GPa) = 26.61200 45.78215 36.19708
# Shear Modulus (GPa) = 48.73964 25.02491 36.88227
#
# Velocity S-wave (km/s) = 4.84830 3.47404 4.21752
# Velocity P-wave (km/s) = 6.64648 6.17832 6.41667
#
# Compressibility (1/GPa) = 0.03757703
#
# Stress axis : x y z
#
# Youngs Moduli (GPa) = 81.80948 34.14824 158.77410
#
# Poissons Ratio (x) = 0.06148 0.44441
# Poissons Ratio (y) = 0.14728 0.08179
# Poissons Ratio (z) = 0.22899 0.01759
#
# Static dielectric constant tensor:
#      x y z
#    x 1.739160 0.000000 -0.001280 
#    y 0.000000 1.735430 0.000000 
#    z -0.001280 0.000000 1.931420 
# 
# From -- ./inp_files/7340.got.cif
#   From: 2010.05.17/outbox.cif.g08.bks.cpg/sg15_4_cif.got.tgz:7340.got - 2010.06.03 18:47:42.
