data_PCOD9261272
_publ_section_title
;
Structure prediction by ZEFSAII (Michael W. Deem and Ramdas Pophale) SiO2 
 PCOD9261272
Probable space group: C 2/C
;
_chemical_formula_sum "Si O2"
_cell_formula_units_Z 48
_cell_length_a 19.398887
_cell_length_b 17.950483
_cell_length_c 8.790610
_cell_angle_alpha 90.000000
_cell_angle_beta 49.981114
_cell_angle_gamma 90.000000
_cell_volume 2344.259967
_symmetry_space_group_name_H-M "C 2/C"
_symmetry_group_IT_number 15
_symmetry_cell_setting 'monoclinic'
loop_
_space_group_symop_operation_xyz
x,y,z
-x,y,1/2-z
-x,-y,-z
x,-y,1/2+z
1/2+x,1/2+y,z
1/2-x,1/2+y,1/2-z
1/2-x,1/2-y,-z
1/2+x,1/2-y,1/2+z
loop_
_atom_site_type_symbol
_atom_site_label
_atom_site_fract_x
_atom_site_fract_y
_atom_site_fract_z
Si Si1 0.670290 0.294588 0.200340
Si Si2 0.753954 0.913108 0.863943
Si Si3 0.104465 0.685057 0.560220
Si Si4 0.000000 0.886521 0.750000
Si Si5 0.186185 0.936146 0.377624
Si Si6 0.000000 0.217676 0.750000
Si Si7 0.612965 0.717988 0.317078
O O1 0.627621 0.239174 0.387422
O O2 0.706765 0.366824 0.237050
O O3 0.584759 0.319937 0.217381
O O4 0.750000 0.250000 0.000000
O O5 0.811607 0.839801 0.735040
O O6 0.787634 0.986003 0.731943
O O7 0.651945 0.893347 0.968163
O O8 0.768262 0.924451 0.023362
O O9 0.148505 0.721629 0.648816
O O10 0.000000 0.679799 0.750000
O O11 0.952772 0.834198 0.691625
O O12 0.079026 0.933182 0.561611
O O13 0.056409 0.255090 0.533333
#
# Coordination Sequence:
#
# PCOD9261272 Si02
#       7
#     8   8   8   4   8   4   8
#     4  12  26  42  72 103 141 173 234 289 334 412
#     4  11  27  40  69  94 139 182 219 278 345 414
#     4  12  22  48  70  96 132 183 228 279 343 400
#     4  10  18  43  64  94 133 174 204 280 332 417
#     4  11  25  45  62 102 137 176 227 269 350 408
#     4  12  22  37  68 108 131 168 230 284 340 395
#     4  11  20  39  66 100 133 169 217 269 347 398
#
# _framework density 20.475545
#
# number of rings (size 3 to 8) (size 9 to 14) (size 15 to 20)
#    0.000    0.667    7.500    1.500    7.000    3.333 
#    0.000    0.833    1.833    0.000    0.000    0.000 
#    0.000    0.000    0.000    0.000    0.000    0.000 
#
# Total GULP energy -133960.521612 kJ/mol
# GULP energy per Si atom -5581.688401 kJ/mol
# Density = 2.042894 g / cm^3
# Si number density = 20.475545 Si / 1000 Ang^3
#
#
#
# Elastic Constant Matrix: (Units=GPa)
#
#
# Indices 1 2 3 4 5 6 
#
# 1 61.3757 23.4116 24.2729 0.0000 -10.5787 0.0000
# 2 23.4116 97.9545 57.8298 0.0000 -18.2882 0.0000
# 3 24.2729 57.8298 152.9958 0.0000 -11.3778 0.0000
# 4 0.0000 0.0000 0.0000 43.0471 0.0000 -5.2082
# 5 -10.5787 -18.2882 -11.3778 0.0000 37.2440 0.0000
# 6 0.0000 0.0000 0.0000 -5.2082 0.0000 20.1002
#
#
#
# Elastic Compliance Matrix: (Units=1/GPa)
#
#
# Indices 1 2 3 4 5 6 
#
# 1 0.018608 -0.002859 -0.001620 0.000000 0.003387 0.000000
# 2 -0.002859 0.014579 -0.004692 0.000000 0.004914 0.000000
# 3 -0.001620 -0.004692 0.008555 0.000000 -0.000150 0.000000
# 4 0.000000 0.000000 0.000000 0.023982 0.000000 0.006214
# 5 0.003387 0.004914 -0.000150 0.000000 0.030179 0.000000
# 6 0.000000 0.000000 0.000000 0.006214 0.000000 0.051361
#
#
# Mechanical properties :
#
#
# Convention : Reuss Voigt Hill
#
# Bulk Modulus (GPa) = 42.73146 58.15050 50.44098
# Shear Modulus (GPa) = 28.83410 33.86571 31.34990
#
# Velocity S-wave (km/s) = 3.75670 4.07130 3.91716
# Velocity P-wave (km/s) = 6.30332 7.11072 6.71916
#
# Compressibility (1/GPa) = 0.02340196
#
# Stress axis : x y z
#
# Youngs Moduli (GPa) = 53.74063 68.58988 116.88611
#
# Poissons Ratio (x) = 0.19609 0.18932
# Poissons Ratio (y) = 0.15364 0.54841
# Poissons Ratio (z) = 0.08704 0.32181
#
# Static dielectric constant tensor:
#      x y z
#    x 1.815700 0.000000 0.002030 
#    y 0.000000 1.691130 0.000000 
#    z 0.002030 0.000000 1.763120 
# 
# From -- ./inp_files/56455.got.cif
#   From: 2010.05.17/outbox.cif.g08.bks.cpg/sg15_29_cif.got.tgz:56455.got - 2010.06.03 18:47:42.
