data_PCOD9261076
_publ_section_title
;
Structure prediction by ZEFSAII (Michael W. Deem and Ramdas Pophale) SiO2 
 PCOD9261076
Probable space group: C 2/C
;
_chemical_formula_sum "Si O2"
_cell_formula_units_Z 44
_cell_length_a 28.428136
_cell_length_b 11.499360
_cell_length_c 16.163976
_cell_angle_alpha 90.000000
_cell_angle_beta 157.076855
_cell_angle_gamma 90.000000
_cell_volume 2058.132331
_symmetry_space_group_name_H-M "C 2/C"
_symmetry_group_IT_number 15
_symmetry_cell_setting 'monoclinic'
loop_
_space_group_symop_operation_xyz
x,y,z
-x,y,1/2-z
-x,-y,-z
x,-y,1/2+z
1/2+x,1/2+y,z
1/2-x,1/2+y,1/2-z
1/2-x,1/2-y,-z
1/2+x,1/2-y,1/2+z
loop_
_atom_site_type_symbol
_atom_site_label
_atom_site_fract_x
_atom_site_fract_y
_atom_site_fract_z
Si Si1 0.104742 0.770555 0.168395
Si Si2 0.708042 0.014178 0.314159
Si Si3 0.162916 0.076146 0.622257
Si Si4 0.121666 0.311290 0.285931
Si Si5 0.000000 0.253066 0.250000
Si Si6 0.041575 0.891062 0.229271
O O1 0.155786 0.642998 0.234331
O O2 0.182447 0.863218 0.241999
O O3 0.089562 0.802420 0.239051
O O4 0.971355 0.772098 0.912671
O O5 0.846481 0.023599 0.570048
O O6 0.721896 0.966793 0.243182
O O7 0.635750 0.927459 0.255480
O O8 0.094759 0.171140 0.453151
O O9 0.070894 0.968180 0.483983
O O10 0.250000 0.250000 0.500000
O O11 0.068736 0.326387 0.291851
O O12 0.000000 0.839119 0.250000
#
# Coordination Sequence:
#
# PCOD9261076 Si02
#       6
#     8   8   8   8   4   8
#     4  11  24  38  62  98 126 162 219 261 326 386
#     4  11  21  40  61  92 132 161 203 279 318 368
#     4  10  19  39  64  86 121 169 220 251 309 394
#     4  11  22  41  66  88 130 167 211 265 320 378
#     4  10  18  40  62  90 114 168 224 248 300 394
#     4  10  21  42  64  87 127 172 213 256 313 399
#
# _framework density 21.378608
#
# number of rings (size 3 to 8) (size 9 to 14) (size 15 to 20)
#    0.000    1.455    4.545    2.727    0.000    2.909 
#    8.182    0.000    0.000    0.000    0.000    0.000 
#    0.000    0.000    0.000    0.000    0.000    0.000 
#
# Total GULP energy -122953.938159 kJ/mol
# GULP energy per Si atom -5588.815371 kJ/mol
# Density = 2.132995 g / cm^3
# Si number density = 21.378608 Si / 1000 Ang^3
#
#
#
# Elastic Constant Matrix: (Units=GPa)
#
#
# Indices 1 2 3 4 5 6 
#
# 1 216.3664 86.3899 19.9582 0.0000 29.0404 0.0000
# 2 86.3899 93.6525 3.2445 0.0000 18.7367 0.0000
# 3 19.9582 3.2445 24.4101 0.0000 10.7214 0.0000
# 4 0.0000 0.0000 0.0000 14.0770 0.0000 10.2590
# 5 29.0404 18.7367 10.7214 0.0000 26.1113 0.0000
# 6 0.0000 0.0000 0.0000 10.2590 0.0000 44.4354
#
#
#
# Elastic Compliance Matrix: (Units=1/GPa)
#
#
# Indices 1 2 3 4 5 6 
#
# 1 0.008090 -0.006877 -0.004778 0.000000 -0.002101 0.000000
# 2 -0.006877 0.018469 0.006868 0.000000 -0.008424 0.000000
# 3 -0.004778 0.006868 0.053426 0.000000 -0.021551 0.000000
# 4 0.000000 0.000000 0.000000 0.085408 0.000000 -0.019719
# 5 -0.002101 -0.008424 -0.021551 0.000000 0.055529 0.000000
# 6 0.000000 0.000000 0.000000 -0.019719 0.000000 0.027057
#
#
# Mechanical properties :
#
#
# Convention : Reuss Voigt Hill
#
# Bulk Modulus (GPa) = 14.20211 61.51266 37.85739
# Shear Modulus (GPa) = 17.79207 31.91385 24.85296
#
# Velocity S-wave (km/s) = 2.88798 3.86786 3.41327
# Velocity P-wave (km/s) = 4.21641 6.98445 5.76891
#
# Compressibility (1/GPa) = 0.07041208
#
# Stress axis : x y z
#
# Youngs Moduli (GPa) = 123.60342 54.14469 18.71744
#
# Poissons Ratio (x) = 0.37236 0.08943
# Poissons Ratio (y) = 0.85003 -0.12855
# Poissons Ratio (z) = 0.59056 -0.37187
#
# Static dielectric constant tensor:
#      x y z
#    x 1.807110 0.000000 -0.017120 
#    y 0.000000 1.748620 0.000000 
#    z -0.017120 0.000000 1.818510 
# 
# From -- ./inp_files/225233.got.cif
#   From: 2010.05.17/outbox.cif.g08.bks.cpg/sg15_113_cif.got.tgz:225233.got - 2010.06.03 18:47:42.
