data_PCOD9261020
_publ_section_title
;
Structure prediction by ZEFSAII (Michael W. Deem and Ramdas Pophale) SiO2 
 PCOD9261020
Probable space group: C 2/C
;
_chemical_formula_sum "Si O2"
_cell_formula_units_Z 56
_cell_length_a 16.641952
_cell_length_b 9.375199
_cell_length_c 18.048878
_cell_angle_alpha 90.000000
_cell_angle_beta 60.292389
_cell_angle_gamma 90.000000
_cell_volume 2445.894047
_symmetry_space_group_name_H-M "C 2/C"
_symmetry_group_IT_number 15
_symmetry_cell_setting 'monoclinic'
loop_
_space_group_symop_operation_xyz
x,y,z
-x,y,1/2-z
-x,-y,-z
x,-y,1/2+z
1/2+x,1/2+y,z
1/2-x,1/2+y,1/2-z
1/2-x,1/2-y,-z
1/2+x,1/2-y,1/2+z
loop_
_atom_site_type_symbol
_atom_site_label
_atom_site_fract_x
_atom_site_fract_y
_atom_site_fract_z
Si Si1 0.226349 0.162966 0.834291
Si Si2 0.611030 0.690589 0.565772
Si Si3 0.703308 0.050352 0.079711
Si Si4 0.270127 0.477997 0.806743
Si Si5 0.645482 0.795571 0.014326
Si Si6 0.577571 0.939945 0.471432
Si Si7 0.068346 0.932108 0.655135
O O1 0.270778 0.310577 0.785331
O O2 0.196710 0.073677 0.776486
O O3 0.155013 0.226396 0.927702
O O4 0.290671 0.053561 0.852762
O O5 0.646688 0.802078 0.612298
O O6 0.695700 0.600980 0.491999
O O7 0.538339 0.576112 0.627068
O O8 0.581232 0.796389 0.515184
O O9 0.659525 0.964772 0.029793
O O10 0.166735 0.528414 0.879894
O O11 0.337450 0.481848 0.846534
O O12 0.582587 0.698042 0.094441
O O13 0.750000 0.750000 0.000000
O O14 0.520884 0.920209 0.030252
O O15 0.000000 0.888720 0.750000
#
# Coordination Sequence:
#
# PCOD9261020 Si02
#       7
#     8   8   8   8   8   8   8
#     4  11  22  38  66  95 133 169 217 271 337 387
#     4  10  21  37  69  94 122 173 223 270 323 398
#     4  10  18  39  71  94 121 174 226 264 327 405
#     4  11  26  40  64  99 131 171 219 277 330 396
#     4  10  21  43  68  92 130 181 218 268 338 398
#     4  10  24  45  67  95 136 172 223 268 336 404
#     4  12  25  43  64  99 136 168 228 276 326 398
#
# _framework density 22.895512
#
# number of rings (size 3 to 8) (size 9 to 14) (size 15 to 20)
#    0.000    1.429    2.857    3.857    4.000    3.429 
#    0.000    2.857    0.000    0.000    0.000    0.000 
#    0.000    0.000    0.000    0.000    0.000    0.000 
#
# Total GULP energy -155881.420983 kJ/mol
# GULP energy per Si atom -5567.193607 kJ/mol
# Density = 2.284340 g / cm^3
# Si number density = 22.895512 Si / 1000 Ang^3
#
#
#
# Elastic Constant Matrix: (Units=GPa)
#
#
# Indices 1 2 3 4 5 6 
#
# 1 41.4570 17.4002 33.1936 0.0000 3.9368 0.0000
# 2 17.4002 179.6212 64.7834 0.0000 21.6998 0.0000
# 3 33.1936 64.7834 107.6858 0.0000 10.0620 0.0000
# 4 0.0000 0.0000 0.0000 43.0834 0.0000 24.6199
# 5 3.9368 21.6998 10.0620 0.0000 29.0989 0.0000
# 6 0.0000 0.0000 0.0000 24.6199 0.0000 12.9351
#
#
#
# Elastic Compliance Matrix: (Units=1/GPa)
#
#
# Indices 1 2 3 4 5 6 
#
# 1 0.032123 0.000738 -0.010218 0.000000 -0.001363 0.000000
# 2 0.000738 0.007595 -0.004401 0.000000 -0.004242 0.000000
# 3 -0.010218 -0.004401 0.015137 0.000000 -0.000570 0.000000
# 4 0.000000 0.000000 0.000000 -0.264773 0.000000 0.503956
# 5 -0.001363 -0.004242 -0.000570 0.000000 0.037911 0.000000
# 6 0.000000 0.000000 0.000000 0.503956 0.000000 -0.881894
#
#
# Mechanical properties :
#
#
# Convention : Reuss Voigt Hill
#
# Bulk Modulus (GPa) = 36.90945 62.16870 49.53907
# Shear Modulus (GPa) = -4.91589 31.24926 13.16669
#
# Velocity S-wave (km/s) = -1.46689 3.69841 2.40068
# Velocity P-wave (km/s) = 3.64511 6.74165 5.41926
#
# Compressibility (1/GPa) = 0.02709333
#
# Stress axis : x y z
#
# Youngs Moduli (GPa) = 31.13079 131.65875 66.06472
#
# Poissons Ratio (x) = -0.09721 0.67508
# Poissons Ratio (y) = -0.02299 0.29072
# Poissons Ratio (z) = 0.31811 0.57937
#
# Static dielectric constant tensor:
#      x y z
#    x 2.465630 0.000000 0.317900 
#    y 0.000000 2.044530 0.000000 
#    z 0.317900 0.000000 1.938950 
# 
# From -- ./inp_files/254812.got.cif
#   From: 2010.05.17/outbox.cif.g08.bks.cpg/sg15_128_cif.got.tgz:254812.got - 2010.06.03 18:47:42.
