data_PCOD9261422
_publ_section_title
;
Structure prediction by ZEFSAII (Michael W. Deem and Ramdas Pophale) SiO2 
 PCOD9261422
Probable space group: C 2/C
;
_chemical_formula_sum "Si O2"
_cell_formula_units_Z 56
_cell_length_a 21.121461
_cell_length_b 23.381125
_cell_length_c 5.354678
_cell_angle_alpha 90.000000
_cell_angle_beta 112.700576
_cell_angle_gamma 90.000000
_cell_volume 2439.524585
_symmetry_space_group_name_H-M "C 2/C"
_symmetry_group_IT_number 15
_symmetry_cell_setting 'monoclinic'
loop_
_space_group_symop_operation_xyz
x,y,z
-x,y,1/2-z
-x,-y,-z
x,-y,1/2+z
1/2+x,1/2+y,z
1/2-x,1/2+y,1/2-z
1/2-x,1/2-y,-z
1/2+x,1/2-y,1/2+z
loop_
_atom_site_type_symbol
_atom_site_label
_atom_site_fract_x
_atom_site_fract_y
_atom_site_fract_z
Si Si1 0.196233 0.416244 0.566107
Si Si2 0.843487 0.881375 0.800235
Si Si3 0.838500 0.719473 0.489686
Si Si4 0.578681 0.789404 0.888181
Si Si5 0.920867 0.021605 0.205986
Si Si6 0.292246 0.326648 0.218014
Si Si7 0.152057 0.401205 0.998656
O O1 0.277449 0.424300 0.715294
O O2 0.185821 0.346229 0.529702
O O3 0.166588 0.437945 0.262720
O O4 0.153650 0.433148 0.741308
O O5 0.909760 0.919878 0.845027
O O6 0.831927 0.849277 0.521642
O O7 0.835309 0.842203 0.033930
O O8 0.889318 0.724587 0.331383
O O9 0.779474 0.761729 0.294818
O O10 0.879545 0.733242 0.806585
O O11 0.500000 0.772408 0.750000
O O12 0.588762 0.858259 0.929251
O O13 0.000000 0.011419 0.250000
O O14 0.890997 0.978164 0.374784
O O15 0.220619 0.360210 0.082955
#
# Coordination Sequence:
#
# PCOD9261422 Si02
#       7
#     8   8   8   8   8   8   8
#     4   8  16  27  44  67  91 117 151 191 232 273
#     4  10  19  32  50  73  94 114 151 199 244 284
#     4  10  19  31  46  65  92 128 165 195 235 286
#     4  10  19  30  42  57  84 123 167 200 225 266
#     4  10  21  38  58  75  94 124 161 199 248 315
#     4  10  19  31  49  71  94 120 156 201 242 286
#     4   8  16  27  42  62  83 112 151 191 235 269
#
# _framework density 22.955292
#
# number of rings (size 3 to 8) (size 9 to 14) (size 15 to 20)
#    0.000    2.571    0.000    2.143    0.000   10.286 
#    0.000    2.857    0.000    0.857    0.000    0.000 
#    0.000    0.000    0.000    0.000    0.000 1157.143 
#
# Total GULP energy -155915.791478 kJ/mol
# GULP energy per Si atom -5568.421124 kJ/mol
# Density = 2.290304 g / cm^3
# Si number density = 22.955292 Si / 1000 Ang^3
#
#
#
# Elastic Constant Matrix: (Units=GPa)
#
#
# Indices 1 2 3 4 5 6 
#
# 1 65.6894 16.0579 49.5967 0.0000 -13.9159 0.0000
# 2 16.0579 59.9865 13.2523 0.0000 -2.1539 0.0000
# 3 49.5967 13.2523 197.4231 0.0000 -45.9726 0.0000
# 4 0.0000 0.0000 0.0000 -0.2390 0.0000 -2.9936
# 5 -13.9159 -2.1539 -45.9726 0.0000 41.1875 0.0000
# 6 0.0000 0.0000 0.0000 -2.9936 0.0000 15.8586
#
#
#
# Elastic Compliance Matrix: (Units=1/GPa)
#
#
# Indices 1 2 3 4 5 6 
#
# 1 0.019892 -0.004311 -0.004318 0.000000 0.001676 0.000000
# 2 -0.004311 0.017864 -0.000321 0.000000 -0.000881 0.000000
# 3 -0.004318 -0.000321 0.007875 0.000000 0.007314 0.000000
# 4 0.000000 0.000000 0.000000 -1.243560 0.000000 -0.234745
# 5 0.001676 -0.000881 0.007314 0.000000 0.032963 0.000000
# 6 0.000000 0.000000 0.000000 -0.234745 0.000000 0.018745
#
#
# Mechanical properties :
#
#
# Convention : Reuss Voigt Hill
#
# Bulk Modulus (GPa) = 36.06085 53.43472 44.74779
# Shear Modulus (GPa) = -4.46796 27.64088 11.58646
#
# Velocity S-wave (km/s) = -1.39664 3.47380 2.24908
# Velocity P-wave (km/s) = 3.62525 6.27838 5.12643
#
# Compressibility (1/GPa) = 0.02773090
#
# Stress axis : x y z
#
# Youngs Moduli (GPa) = 50.27177 55.97930 126.98998
#
# Poissons Ratio (x) = 0.24132 0.54828
# Poissons Ratio (y) = 0.21671 0.04080
# Poissons Ratio (z) = 0.21705 0.01799
#
# Static dielectric constant tensor:
#      x y z
#    x 1.863660 0.000000 -0.034010 
#    y 0.000000 2.045920 0.000000 
#    z -0.034010 0.000000 1.997920 
# 
# From -- ./inp_files/13743.got.cif
#   From: 2010.05.17/outbox.cif.g08.bks.cpg/sg15_7_cif.got.tgz:13743.got - 2010.06.03 18:47:42.
