data_PCOD9261437
_publ_section_title
;
Structure prediction by ZEFSAII (Michael W. Deem and Ramdas Pophale) SiO2 
 PCOD9261437
Probable space group: C 2/C
;
_chemical_formula_sum "Si O2"
_cell_formula_units_Z 64
_cell_length_a 30.726027
_cell_length_b 16.103561
_cell_length_c 5.661147
_cell_angle_alpha 90.000000
_cell_angle_beta 78.391642
_cell_angle_gamma 90.000000
_cell_volume 2743.832254
_symmetry_space_group_name_H-M "C 2/C"
_symmetry_group_IT_number 15
_symmetry_cell_setting 'monoclinic'
loop_
_space_group_symop_operation_xyz
x,y,z
-x,y,1/2-z
-x,-y,-z
x,-y,1/2+z
1/2+x,1/2+y,z
1/2-x,1/2+y,1/2-z
1/2-x,1/2-y,-z
1/2+x,1/2-y,1/2+z
loop_
_atom_site_type_symbol
_atom_site_label
_atom_site_fract_x
_atom_site_fract_y
_atom_site_fract_z
Si Si1 0.290977 0.807798 0.527062
Si Si2 0.156319 0.851754 0.481638
Si Si3 0.580956 0.826779 0.673481
Si Si4 0.893168 0.503053 0.845100
Si Si5 0.447950 0.826724 0.293170
Si Si6 0.339243 0.371661 0.521262
Si Si7 0.265670 0.483771 0.126603
Si Si8 0.186019 0.682713 0.994151
O O1 0.250000 0.750000 0.500000
O O2 0.333123 0.745806 0.510590
O O3 0.287606 0.841732 0.797513
O O4 0.299644 0.856265 0.273067
O O5 0.134766 0.873400 0.254669
O O6 0.204525 0.899122 0.413583
O O7 0.135770 0.874553 0.755917
O O8 0.562190 0.787258 0.453292
O O9 0.634081 0.831174 0.591340
O O10 0.571385 0.926588 0.691924
O O11 0.565919 0.787931 0.938382
O O12 0.868228 0.496891 0.622708
O O13 0.918671 0.589872 0.814425
O O14 0.500000 0.844002 0.250000
O O15 0.305161 0.447142 0.568900
O O16 0.312305 0.283821 0.537274
O O17 0.242471 0.497002 0.900318
#
# Coordination Sequence:
#
# PCOD9261437 Si02
#       8
#     8   8   8   8   8   8   8   8
#     4  10  19  31  46  64  85 114 154 196 228 267
#     4   8  14  23  37  57  78 100 132 170 216 262
#     4  10  19  30  45  67  92 122 149 186 240 283
#     4   8  16  27  42  64  87 116 151 189 231 270
#     4  10  19  31  48  71  95 121 160 201 230 268
#     4   8  14  23  37  56  77 103 131 162 202 255
#     4   8  12  20  34  54  74  97 125 156 203 259
#     4  10  19  31  45  65  90 115 150 186 228 282
#
# _framework density 23.325040999999999
#
# number of rings (size 3 to 8) (size 9 to 14) (size 15 to 20)
#    0.000    3.000    0.000    1.500    0.000    4.500 
#    0.000    0.000    0.000    0.000    0.000   78.750 
#    0.000    0.000    0.000    0.000    0.000  312.500 
#
# Total GULP energy -178371.411951 kJ/mol
# GULP energy per Si atom -5574.106623 kJ/mol
# Density = 2.327195 g / cm^3
# Si number density = 23.325041 Si / 1000 Ang^3
#
#
#
# Elastic Constant Matrix: (Units=GPa)
#
#
# Indices 1 2 3 4 5 6 
#
# 1 56.7279 1.0429 30.3317 0.0000 -1.1160 0.0000
# 2 1.0429 52.3250 6.5498 0.0000 -1.9960 0.0000
# 3 30.3317 6.5498 325.1436 0.0000 29.2952 0.0000
# 4 0.0000 0.0000 0.0000 23.1472 0.0000 -0.5118
# 5 -1.1160 -1.9960 29.2952 0.0000 23.6646 0.0000
# 6 0.0000 0.0000 0.0000 -0.5118 0.0000 6.2155
#
#
#
# Elastic Compliance Matrix: (Units=1/GPa)
#
#
# Indices 1 2 3 4 5 6 
#
# 1 0.018799 0.000015 -0.002064 0.000000 0.003443 0.000000
# 2 0.000015 0.019277 -0.000604 0.000000 0.002374 0.000000
# 3 -0.002064 -0.000604 0.003707 0.000000 -0.004737 0.000000
# 4 0.000000 0.000000 0.000000 0.043281 0.000000 0.003564
# 5 0.003443 0.002374 -0.004737 0.000000 0.048484 0.000000
# 6 0.000000 0.000000 0.000000 0.003564 0.000000 0.161180
#
#
# Mechanical properties :
#
#
# Convention : Reuss Voigt Hill
#
# Bulk Modulus (GPa) = 27.41389 56.67168 42.04279
# Shear Modulus (GPa) = 16.01570 37.02361 26.51966
#
# Velocity S-wave (km/s) = 2.62321 3.98840 3.37554
# Velocity P-wave (km/s) = 4.57749 6.74975 5.76682
#
# Compressibility (1/GPa) = 0.03647786
#
# Stress axis : x y z
#
# Youngs Moduli (GPa) = 53.19373 51.87490 269.75031
#
# Poissons Ratio (x) = -0.00078 0.55684
# Poissons Ratio (y) = -0.00080 0.16282
# Poissons Ratio (z) = 0.10981 0.03131
#
# Static dielectric constant tensor:
#      x y z
#    x 1.800400 0.000000 0.029000 
#    y 0.000000 1.983040 0.000000 
#    z 0.029000 0.000000 2.105550 
# 
# From -- ./inp_files/17443.got.cif
#   From: 2010.05.17/outbox.cif.g08.bks.cpg/sg15_9_cif.got.tgz:17443.got - 2010.06.03 18:47:42.
