data_PCOD9261588
_publ_section_title
;
Structure prediction by ZEFSAII (Michael W. Deem and Ramdas Pophale) SiO2 
 PCOD9261588
Probable space group: C 2/C
;
_chemical_formula_sum "Si O2"
_cell_formula_units_Z 48
_cell_length_a 11.265546
_cell_length_b 12.431556
_cell_length_c 17.061287
_cell_angle_alpha 90.000000
_cell_angle_beta 50.940316
_cell_angle_gamma 90.000000
_cell_volume 1855.348019
_symmetry_space_group_name_H-M "C 2/C"
_symmetry_group_IT_number 15
_symmetry_cell_setting 'monoclinic'
loop_
_space_group_symop_operation_xyz
x,y,z
-x,y,1/2-z
-x,-y,-z
x,-y,1/2+z
1/2+x,1/2+y,z
1/2-x,1/2+y,1/2-z
1/2-x,1/2-y,-z
1/2+x,1/2-y,1/2+z
loop_
_atom_site_type_symbol
_atom_site_label
_atom_site_fract_x
_atom_site_fract_y
_atom_site_fract_z
Si Si1 0.672693 0.888692 0.698869
Si Si2 0.806928 0.707092 0.136301
Si Si3 0.068117 0.004014 0.334239
Si Si4 0.414862 0.743182 0.383735
Si Si5 0.397886 0.779622 0.053544
Si Si6 0.770362 0.023755 0.896441
O O1 0.500000 0.919661 0.750000
O O2 0.672030 0.832641 0.784849
O O3 0.802514 0.981390 0.654213
O O4 0.750634 0.795837 0.614298
O O5 0.653527 0.768274 0.173716
O O6 0.791074 0.596293 0.091878
O O7 0.956324 0.771815 0.049167
O O8 0.000670 0.126165 0.346689
O O9 0.151700 0.957515 0.221975
O O10 0.901432 0.952503 0.405976
O O11 0.250000 0.750000 0.500000
O O12 0.537204 0.805402 0.386004
O O13 0.360994 0.893070 0.031243
#
# Coordination Sequence:
#
# PCOD9261588 Si02
#       6
#     8   8   8   8   8   8
#     4  10  21  34  53  74 108 152 189 227 275 324
#     4   9  18  35  54  77 111 148 178 221 283 339
#     4   8  16  30  49  74 102 142 172 216 276 326
#     4   8  15  30  53  82 107 136 178 227 271 330
#     4  10  19  30  55  88 107 132 186 237 273 330
#     4   9  16  29  55  81 107 134 177 228 281 332
#
# _framework density 25.871158000000001
#
# number of rings (size 3 to 8) (size 9 to 14) (size 15 to 20)
#    0.000    3.000    0.000    1.500    2.333    2.667 
#    0.000    0.000   14.667    1.000    0.000    0.000 
#    0.000    0.000    0.000    0.000    0.000    0.000 
#
# Total GULP energy -133624.622600 kJ/mol
# GULP energy per Si atom -5567.692608 kJ/mol
# Density = 2.581227 g / cm^3
# Si number density = 25.871158 Si / 1000 Ang^3
#
#
#
# Elastic Constant Matrix: (Units=GPa)
#
#
# Indices 1 2 3 4 5 6 
#
# 1 169.6809 25.6168 32.7648 0.0000 -48.0778 0.0000
# 2 25.6168 32.2940 11.1566 0.0000 -10.4618 0.0000
# 3 32.7648 11.1566 49.5661 0.0000 -21.9008 0.0000
# 4 0.0000 0.0000 0.0000 9.0842 0.0000 -2.9374
# 5 -48.0778 -10.4618 -21.9008 0.0000 51.7016 0.0000
# 6 0.0000 0.0000 0.0000 -2.9374 0.0000 31.9117
#
#
#
# Elastic Compliance Matrix: (Units=1/GPa)
#
#
# Indices 1 2 3 4 5 6 
#
# 1 0.008727 -0.004151 -0.001993 0.000000 0.006431 0.000000
# 2 -0.004151 0.036392 -0.004797 0.000000 0.001472 0.000000
# 3 -0.001993 -0.004797 0.026235 0.000000 0.008289 0.000000
# 4 0.000000 0.000000 0.000000 0.113458 0.000000 0.010444
# 5 0.006431 0.001472 0.008289 0.000000 0.029131 0.000000
# 6 0.000000 0.000000 0.000000 0.010444 0.000000 0.032298
#
#
# Mechanical properties :
#
#
# Convention : Reuss Voigt Hill
#
# Bulk Modulus (GPa) = 20.21327 43.40195 31.80761
# Shear Modulus (GPa) = 17.56766 30.67304 24.12035
#
# Velocity S-wave (km/s) = 2.60867 3.44700 3.05671
# Velocity P-wave (km/s) = 4.11140 5.71446 4.97788
#
# Compressibility (1/GPa) = 0.04947245
#
# Stress axis : x y z
#
# Youngs Moduli (GPa) = 114.58488 27.47848 38.11734
#
# Poissons Ratio (x) = 0.11406 0.07597
# Poissons Ratio (y) = 0.47561 0.18285
# Poissons Ratio (z) = 0.22837 0.13182
#
# Static dielectric constant tensor:
#      x y z
#    x 2.115420 0.000000 0.005790 
#    y 0.000000 2.112890 0.000000 
#    z 0.005790 0.000000 2.205140 
# 
# From -- ./inp_files/238256.got.cif
#   From: 2010.05.17/outbox.cif.g08.bks.cpg/sg15_120_cif.got.tgz:238256.got - 2010.06.03 18:47:42.
