data_PCOD9261974
_publ_section_title
;
Structure prediction by ZEFSAII (Michael W. Deem and Ramdas Pophale) SiO2 
 PCOD9261974
Probable space group: C 2/C
;
_chemical_formula_sum "Si O2"
_cell_formula_units_Z 48
_cell_length_a 16.228041
_cell_length_b 9.581480
_cell_length_c 18.791580
_cell_angle_alpha 90.000000
_cell_angle_beta 49.782276
_cell_angle_gamma 90.000000
_cell_volume 2231.134852
_symmetry_space_group_name_H-M "C 2/C"
_symmetry_group_IT_number 15
_symmetry_cell_setting 'monoclinic'
loop_
_space_group_symop_operation_xyz
x,y,z
-x,y,1/2-z
-x,-y,-z
x,-y,1/2+z
1/2+x,1/2+y,z
1/2-x,1/2+y,1/2-z
1/2-x,1/2-y,-z
1/2+x,1/2-y,1/2+z
loop_
_atom_site_type_symbol
_atom_site_label
_atom_site_fract_x
_atom_site_fract_y
_atom_site_fract_z
Si Si1 0.321591 0.359402 0.867780
Si Si2 0.088982 0.528720 0.369414
Si Si3 0.113013 0.381004 0.084665
Si Si4 0.670593 0.304423 0.354750
Si Si5 0.276404 0.949070 0.853410
Si Si6 0.272560 0.634537 0.837150
O O1 0.406452 0.266064 0.863778
O O2 0.280065 0.278184 0.819828
O O3 0.343283 0.520610 0.839774
O O4 0.213750 0.359160 0.976306
O O5 0.079802 0.684579 0.407074
O O6 0.160453 0.543743 0.257212
O O7 0.157889 0.437971 0.386144
O O8 0.984408 0.447683 0.403167
O O9 0.150875 0.486474 0.125249
O O10 0.675056 0.444840 0.399439
O O11 0.677803 0.347528 0.268916
O O12 0.256456 0.786737 0.878992
#
# Coordination Sequence:
#
# PCOD9261974 Si02
#       6
#     8   8   8   8   8   8
#     4   9  19  33  51  74 103 137 168 206 261 310
#     4   9  17  31  53  74  94 130 175 211 245 299
#     4  10  19  32  51  75 104 134 169 210 254 309
#     4   8  16  31  50  70  95 129 171 208 247 302
#     4   9  17  31  50  73 102 132 164 206 261 310
#     4   9  17  31  51  72  96 131 171 209 254 303
#
# _framework density 21.513714
#
# number of rings (size 3 to 8) (size 9 to 14) (size 15 to 20)
#    0.000    3.000    0.000    1.500    0.000    3.333 
#    0.000    1.667    0.000   30.000    0.000    0.000 
#    0.000    0.000    0.000    0.000    0.000    0.000 
#
# Total GULP energy -133754.886243 kJ/mol
# GULP energy per Si atom -5573.120260 kJ/mol
# Density = 2.146475 g / cm^3
# Si number density = 21.513714 Si / 1000 Ang^3
#
#
#
# Elastic Constant Matrix: (Units=GPa)
#
#
# Indices 1 2 3 4 5 6 
#
# 1 26.4712 47.3021 -6.2100 0.0000 6.6900 0.0000
# 2 47.3021 211.3131 8.9698 0.0000 9.2142 0.0000
# 3 -6.2100 8.9698 38.2740 0.0000 8.0638 0.0000
# 4 0.0000 0.0000 0.0000 8.8982 0.0000 11.6176
# 5 6.6900 9.2142 8.0638 0.0000 14.0953 0.0000
# 6 0.0000 0.0000 0.0000 11.6176 0.0000 30.6900
#
#
#
# Elastic Compliance Matrix: (Units=1/GPa)
#
#
# Indices 1 2 3 4 5 6 
#
# 1 0.092251 -0.019826 0.029687 0.000000 -0.047809 0.000000
# 2 -0.019826 0.009142 -0.006916 0.000000 0.007391 0.000000
# 3 0.029687 -0.006916 0.039321 0.000000 -0.032064 0.000000
# 4 0.000000 0.000000 0.000000 0.222200 0.000000 -0.084113
# 5 -0.047809 0.007391 -0.032064 0.000000 0.107150 0.000000
# 6 0.000000 0.000000 0.000000 -0.084113 0.000000 0.064424
#
#
# Mechanical properties :
#
#
# Convention : Reuss Voigt Hill
#
# Bulk Modulus (GPa) = 6.82113 41.79801 24.30957
# Shear Modulus (GPa) = 8.65852 25.80313 17.23083
#
# Velocity S-wave (km/s) = 2.00833 3.46696 2.83313
# Velocity P-wave (km/s) = 2.92495 5.95795 4.69321
#
# Compressibility (1/GPa) = 0.14660317
#
# Stress axis : x y z
#
# Youngs Moduli (GPa) = 10.83994 109.39000 25.43202
#
# Poissons Ratio (x) = 2.16875 -0.75500
# Poissons Ratio (y) = 0.21491 0.17590
# Poissons Ratio (z) = -0.32180 0.75658
#
# Static dielectric constant tensor:
#      x y z
#    x 1.768650 0.000000 -0.003430 
#    y 0.000000 1.860270 0.000000 
#    z -0.003430 0.000000 1.826900 
# 
# From -- ./inp_files/208539.got.cif
#   From: 2010.05.17/outbox.cif.g08.bks.cpg/sg15_105_cif.got.tgz:208539.got - 2010.06.03 18:47:42.
