data_PCOD9261938
_publ_section_title
;
Structure prediction by ZEFSAII (Michael W. Deem and Ramdas Pophale) SiO2 
 PCOD9261938
Probable space group: C 2/C
;
_chemical_formula_sum "Si O2"
_cell_formula_units_Z 56
_cell_length_a 16.405073
_cell_length_b 20.265817
_cell_length_c 8.618640
_cell_angle_alpha 90.000000
_cell_angle_beta 92.649747
_cell_angle_gamma 90.000000
_cell_volume 2862.308442
_symmetry_space_group_name_H-M "C 2/C"
_symmetry_group_IT_number 15
_symmetry_cell_setting 'monoclinic'
loop_
_space_group_symop_operation_xyz
x,y,z
-x,y,1/2-z
-x,-y,-z
x,-y,1/2+z
1/2+x,1/2+y,z
1/2-x,1/2+y,1/2-z
1/2-x,1/2-y,-z
1/2+x,1/2-y,1/2+z
loop_
_atom_site_type_symbol
_atom_site_label
_atom_site_fract_x
_atom_site_fract_y
_atom_site_fract_z
Si Si1 0.751761 0.330074 0.661260
Si Si2 0.199906 0.635547 0.688077
Si Si3 0.028168 0.732455 0.094237
Si Si4 0.413079 0.256007 0.820197
Si Si5 0.380695 0.094069 0.345905
Si Si6 0.193021 0.783479 0.123459
Si Si7 0.411075 0.967011 0.184643
O O1 0.775447 0.349811 0.487701
O O2 0.655907 0.312196 0.669523
O O3 0.790321 0.382247 0.786039
O O4 0.796752 0.262647 0.721902
O O5 0.134842 0.691060 0.744067
O O6 0.275370 0.646905 0.812125
O O7 0.156655 0.566435 0.711777
O O8 0.065859 0.660237 0.128497
O O9 0.103421 0.777141 0.045328
O O10 0.000000 0.764139 0.250000
O O11 0.948310 0.729892 0.985519
O O12 0.500000 0.273336 0.750000
O O13 0.391669 0.055530 0.508619
O O14 0.409013 0.045305 0.211686
O O15 0.250000 0.750000 0.000000
O O16 0.500000 0.943435 0.250000
#
# Coordination Sequence:
#
# PCOD9261938 Si02
#       7
#     8   8   8   8   8   8   8
#     4  10  21  37  54  77 112 153 192 233 281 338
#     4  11  20  35  53  78 114 153 187 228 280 344
#     4  11  20  33  53  79 109 144 184 235 279 322
#     4  11  20  33  55  83 111 144 186 236 284 330
#     4  11  23  39  55  80 116 153 189 229 275 336
#     4  10  19  32  50  75 108 146 186 228 282 338
#     4  12  24  37  57  84 114 151 190 227 271 334
#
# _framework density 19.564627000000002
#
# number of rings (size 3 to 8) (size 9 to 14) (size 15 to 20)
#    0.000    1.143    0.000   11.571    0.000    0.000 
#    0.000    0.000    0.000    0.000    0.000   10.000 
#    0.000    0.000    0.000    0.000    0.000    0.000 
#
# Total GULP energy -156156.132936 kJ/mol
# GULP energy per Si atom -5577.004748 kJ/mol
# Density = 1.952010 g / cm^3
# Si number density = 19.564627 Si / 1000 Ang^3
#
#
#
# Elastic Constant Matrix: (Units=GPa)
#
#
# Indices 1 2 3 4 5 6 
#
# 1 122.5803 34.9359 31.2734 0.0000 10.4239 0.0000
# 2 34.9359 46.7343 9.3112 0.0000 13.9563 0.0000
# 3 31.2734 9.3112 74.5529 0.0000 10.6178 0.0000
# 4 0.0000 0.0000 0.0000 24.8364 0.0000 0.5279
# 5 10.4239 13.9563 10.6178 0.0000 37.2492 0.0000
# 6 0.0000 0.0000 0.0000 0.5279 0.0000 30.7477
#
#
#
# Elastic Compliance Matrix: (Units=1/GPa)
#
#
# Indices 1 2 3 4 5 6 
#
# 1 0.011348 -0.007984 -0.003895 0.000000 0.000926 0.000000
# 2 -0.007984 0.029943 0.000927 0.000000 -0.009249 0.000000
# 3 -0.003895 0.000927 0.015453 0.000000 -0.003662 0.000000
# 4 0.000000 0.000000 0.000000 0.040278 0.000000 -0.000691
# 5 0.000926 -0.009249 -0.003662 0.000000 0.031096 0.000000
# 6 0.000000 0.000000 0.000000 -0.000691 0.000000 0.032535
#
#
# Mechanical properties :
#
#
# Convention : Reuss Voigt Hill
#
# Bulk Modulus (GPa) = 28.70280 43.87872 36.29076
# Shear Modulus (GPa) = 25.75039 29.78980 27.77009
#
# Velocity S-wave (km/s) = 3.63184 3.90633 3.77158
# Velocity P-wave (km/s) = 5.68240 6.54386 6.12829
#
# Compressibility (1/GPa) = 0.03483981
#
# Stress axis : x y z
#
# Youngs Moduli (GPa) = 88.11846 33.39652 64.71217
#
# Poissons Ratio (x) = 0.26663 0.25206
# Poissons Ratio (y) = 0.70352 -0.05996
# Poissons Ratio (z) = 0.34323 -0.03094
#
# Static dielectric constant tensor:
#      x y z
#    x 1.756820 0.000000 -0.004350 
#    y 0.000000 1.690700 0.000000 
#    z -0.004350 0.000000 1.825300 
# 
# From -- ./inp_files/41272.got.cif
#   From: 2010.05.17/outbox.cif.g08.bks.cpg/sg15_21_cif.got.tgz:41272.got - 2010.06.03 18:47:42.
