data_PCOD9261337
_publ_section_title
;
Structure prediction by ZEFSAII (Michael W. Deem and Ramdas Pophale) SiO2 
 PCOD9261337
Probable space group: C 2/C
;
_chemical_formula_sum "Si O2"
_cell_formula_units_Z 64
_cell_length_a 31.118571
_cell_length_b 27.218344
_cell_length_c 5.356119
_cell_angle_alpha 90.000000
_cell_angle_beta 82.142459
_cell_angle_gamma 90.000000
_cell_volume 4494.017168
_symmetry_space_group_name_H-M "C 2/C"
_symmetry_group_IT_number 15
_symmetry_cell_setting 'monoclinic'
loop_
_space_group_symop_operation_xyz
x,y,z
-x,y,1/2-z
-x,-y,-z
x,-y,1/2+z
1/2+x,1/2+y,z
1/2-x,1/2+y,1/2-z
1/2-x,1/2-y,-z
1/2+x,1/2-y,1/2+z
loop_
_atom_site_type_symbol
_atom_site_label
_atom_site_fract_x
_atom_site_fract_y
_atom_site_fract_z
Si Si1 0.863902 0.763294 0.411219
Si Si2 0.948698 0.877299 0.780941
Si Si3 0.567913 0.515231 0.110692
Si Si4 0.448804 0.683633 0.780623
Si Si5 0.835516 0.025806 0.980250
Si Si6 0.693520 0.363241 0.044920
Si Si7 0.179657 0.269031 0.054032
Si Si8 0.737279 0.669548 0.009981
O O1 0.915009 0.772773 0.349127
O O2 0.840642 0.817564 0.428283
O O3 0.849869 0.736823 0.677554
O O4 0.846349 0.734463 0.183799
O O5 0.923752 0.927587 0.849001
O O6 0.940513 0.853938 0.517122
O O7 0.000000 0.889470 0.750000
O O8 0.939748 0.840628 0.017692
O O9 0.544909 0.492440 0.367078
O O10 0.613073 0.485804 0.054018
O O11 0.500000 0.696273 0.750000
O O12 0.817952 0.996433 0.753190
O O13 0.828360 0.083613 0.956149
O O14 0.723837 0.356127 0.778343
O O15 0.720959 0.358833 0.278052
O O16 0.212544 0.314724 0.040259
O O17 0.209979 0.220412 0.030435
#
# Coordination Sequence:
#
# PCOD9261337 Si02
#       8
#     8   8   8   8   8   8   8   8
#     4  10  19  28  48  65  81 106 134 166 203 274
#     4  10  21  34  47  58  74 102 140 178 228 268
#     4  10  21  32  44  58  71 100 122 185 220 256
#     4  10  21  34  47  63  83 108 138 178 212 259
#     4  10  21  31  41  58  81 105 139 179 208 246
#     4  10  19  29  44  64  78 113 135 161 219 258
#     4   9  17  30  44  70  84 101 123 158 211 250
#     4   9  17  30  46  62  90 101 122 161 203 274
#
# _framework density 14.241156999999999
#
# number of rings (size 3 to 8) (size 9 to 14) (size 15 to 20)
#    0.000    2.250    0.000    3.000    7.000    3.500 
#    0.000    0.000    0.000    0.000    0.000    0.000 
#    0.000    0.000    0.000    0.000    0.000    0.000 
#
# Total GULP energy -178453.309255 kJ/mol
# GULP energy per Si atom -5576.665914 kJ/mol
# Density = 1.420874 g / cm^3
# Si number density = 14.241157 Si / 1000 Ang^3
#
#
#
# Elastic Constant Matrix: (Units=GPa)
#
#
# Indices 1 2 3 4 5 6 
#
# 1 55.8914 24.8482 30.5033 0.0000 -9.1915 0.0000
# 2 24.8482 27.1390 14.2526 0.0000 -3.1783 0.0000
# 3 30.5033 14.2526 119.5391 0.0000 3.4524 0.0000
# 4 0.0000 0.0000 0.0000 17.1195 0.0000 -3.9510
# 5 -9.1915 -3.1783 3.4524 0.0000 16.8436 0.0000
# 6 0.0000 0.0000 0.0000 -3.9510 0.0000 36.9030
#
#
#
# Elastic Compliance Matrix: (Units=1/GPa)
#
#
# Indices 1 2 3 4 5 6 
#
# 1 0.036582 -0.028251 -0.006427 0.000000 0.015949 0.000000
# 2 -0.028251 0.062352 -0.000121 0.000000 -0.003626 0.000000
# 3 -0.006427 -0.000121 0.010182 0.000000 -0.005617 0.000000
# 4 0.000000 0.000000 0.000000 0.059893 0.000000 0.006412
# 5 0.015949 -0.003626 -0.005617 0.000000 0.068540 0.000000
# 6 0.000000 0.000000 0.000000 0.006412 0.000000 0.027785
#
#
# Mechanical properties :
#
#
# Convention : Reuss Voigt Hill
#
# Bulk Modulus (GPa) = 25.30417 37.97527 31.63972
# Shear Modulus (GPa) = 14.36348 23.03759 18.70054
#
# Velocity S-wave (km/s) = 3.17928 4.02640 3.62765
# Velocity P-wave (km/s) = 5.59321 6.95267 6.30966
#
# Compressibility (1/GPa) = 0.03951917
#
# Stress axis : x y z
#
# Youngs Moduli (GPa) = 27.33568 16.03787 98.21165
#
# Poissons Ratio (x) = 0.45309 0.63122
# Poissons Ratio (y) = 0.77226 0.01184
# Poissons Ratio (z) = 0.17569 0.00193
#
# Static dielectric constant tensor:
#      x y z
#    x 1.457590 0.000000 0.046600 
#    y 0.000000 1.443590 0.000000 
#    z 0.046600 0.000000 1.482300 
# 
# From -- ./inp_files/16390.got.cif
#   From: 2010.05.17/outbox.cif.g08.bks.cpg/sg15_9_cif.got.tgz:16390.got - 2010.06.03 18:47:42.
