data_PCOD9261569
_publ_section_title
;
Structure prediction by ZEFSAII (Michael W. Deem and Ramdas Pophale) SiO2 
 PCOD9261569
Probable space group: C 2/C
;
_chemical_formula_sum "Si O2"
_cell_formula_units_Z 64
_cell_length_a 25.423139
_cell_length_b 20.636654
_cell_length_c 7.278922
_cell_angle_alpha 90.000000
_cell_angle_beta 71.433654
_cell_angle_gamma 90.000000
_cell_volume 3620.124564
_symmetry_space_group_name_H-M "C 2/C"
_symmetry_group_IT_number 15
_symmetry_cell_setting 'monoclinic'
loop_
_space_group_symop_operation_xyz
x,y,z
-x,y,1/2-z
-x,-y,-z
x,-y,1/2+z
1/2+x,1/2+y,z
1/2-x,1/2+y,1/2-z
1/2-x,1/2-y,-z
1/2+x,1/2-y,1/2+z
loop_
_atom_site_type_symbol
_atom_site_label
_atom_site_fract_x
_atom_site_fract_y
_atom_site_fract_z
Si Si1 0.931196 0.670047 0.158843
Si Si2 0.550743 0.140714 0.938191
Si Si3 0.673914 0.908480 0.715131
Si Si4 0.736309 0.843553 0.138529
Si Si5 0.170765 0.210196 0.229982
Si Si6 0.726578 0.323282 0.005373
Si Si7 0.153157 0.444247 0.316501
Si Si8 0.939774 0.763583 0.840926
O O1 0.933027 0.669621 0.378380
O O2 0.874468 0.637546 0.158181
O O3 0.934044 0.739574 0.057211
O O4 0.984912 0.628807 0.033166
O O5 0.590706 0.080592 0.844517
O O6 0.557471 0.196952 0.781421
O O7 0.731251 0.869752 0.652806
O O8 0.663108 0.918505 0.510277
O O9 0.665197 0.979947 0.802992
O O10 0.691023 0.785473 0.209693
O O11 0.771657 0.848659 0.288468
O O12 0.699343 0.906964 0.144978
O O13 0.780178 0.824467 0.936672
O O14 0.172650 0.184817 0.437576
O O15 0.113573 0.201974 0.185021
O O16 0.750000 0.250000 0.000000
O O17 0.000000 0.795899 0.750000
#
# Coordination Sequence:
#
# PCOD9261569 Si02
#       8
#     8   8   8   8   8   8   8   8
#     4   9  20  32  47  66  93 134 177 201 250 277
#     4   9  18  35  46  63  99 134 169 215 236 280
#     4  10  22  32  49  71  95 136 166 214 248 292
#     4   9  19  32  47  73  94 128 162 203 239 305
#     4  10  19  30  54  70  94 130 162 199 253 294
#     4   9  20  34  48  71  97 125 168 205 248 299
#     4  10  20  33  48  68 101 127 171 208 250 285
#     4  10  20  32  51  75  97 126 168 210 244 289
#
# _framework density 17.678948999999999
#
# number of rings (size 3 to 8) (size 9 to 14) (size 15 to 20)
#    0.000    2.500    1.250    0.000   10.500    0.500 
#    0.000    0.000    0.000    0.000    0.000    0.000 
#    0.000    1.000    0.000    0.000    0.000    0.000 
#
# Total GULP energy -178251.494420 kJ/mol
# GULP energy per Si atom -5570.359201 kJ/mol
# Density = 1.763871 g / cm^3
# Si number density = 17.678949 Si / 1000 Ang^3
#
#
#
# Elastic Constant Matrix: (Units=GPa)
#
#
# Indices 1 2 3 4 5 6 
#
# 1 80.5030 2.7864 5.6029 0.0000 8.7591 0.0000
# 2 2.7864 8.6305 1.6027 0.0000 3.4140 0.0000
# 3 5.6029 1.6027 35.9050 0.0000 9.3149 0.0000
# 4 0.0000 0.0000 0.0000 8.9965 0.0000 1.8843
# 5 8.7591 3.4140 9.3149 0.0000 12.7081 0.0000
# 6 0.0000 0.0000 0.0000 1.8843 0.0000 17.5300
#
#
#
# Elastic Compliance Matrix: (Units=1/GPa)
#
#
# Indices 1 2 3 4 5 6 
#
# 1 0.013437 -0.000713 0.000356 0.000000 -0.009331 0.000000
# 2 -0.000713 0.130154 0.004007 0.000000 -0.037411 0.000000
# 3 0.000356 0.004007 0.034525 0.000000 -0.026628 0.000000
# 4 0.000000 0.000000 0.000000 0.113714 0.000000 -0.012223
# 5 -0.009331 -0.037411 -0.026628 0.000000 0.114690 0.000000
# 6 0.000000 0.000000 0.000000 -0.012223 0.000000 0.058359
#
#
# Mechanical properties :
#
#
# Convention : Reuss Voigt Hill
#
# Bulk Modulus (GPa) = 5.39330 16.11360 10.75345
# Shear Modulus (GPa) = 9.62677 15.51668 12.57173
#
# Velocity S-wave (km/s) = 2.33605 2.96580 2.66956
# Velocity P-wave (km/s) = 3.21458 4.56753 3.94942
#
# Compressibility (1/GPa) = 0.18541524
#
# Stress axis : x y z
#
# Youngs Moduli (GPa) = 74.42119 7.68323 28.96433
#
# Poissons Ratio (x) = 0.00548 -0.01030
# Poissons Ratio (y) = 0.05309 -0.11607
# Poissons Ratio (z) = -0.02647 -0.03079
#
# Static dielectric constant tensor:
#      x y z
#    x 1.659320 0.000000 0.024000 
#    y 0.000000 1.623490 0.000000 
#    z 0.024000 0.000000 1.675160 
# 
# From -- ./inp_files/63261.got.cif
#   From: 2010.05.17/outbox.cif.g08.bks.cpg/sg15_32_cif.got.tgz:63261.got - 2010.06.03 18:47:42.
