data_PCOD9261448
_publ_section_title
;
Structure prediction by ZEFSAII (Michael W. Deem and Ramdas Pophale) SiO2 
 PCOD9261448
Probable space group: C 2/C
;
_chemical_formula_sum "Si O2"
_cell_formula_units_Z 48
_cell_length_a 5.092113
_cell_length_b 25.592801
_cell_length_c 25.005588
_cell_angle_alpha 90.000000
_cell_angle_beta 119.786372
_cell_angle_gamma 90.000000
_cell_volume 2828.228038
_symmetry_space_group_name_H-M "C 2/C"
_symmetry_group_IT_number 15
_symmetry_cell_setting 'monoclinic'
loop_
_space_group_symop_operation_xyz
x,y,z
-x,y,1/2-z
-x,-y,-z
x,-y,1/2+z
1/2+x,1/2+y,z
1/2-x,1/2+y,1/2-z
1/2-x,1/2-y,-z
1/2+x,1/2-y,1/2+z
loop_
_atom_site_type_symbol
_atom_site_label
_atom_site_fract_x
_atom_site_fract_y
_atom_site_fract_z
Si Si1 0.151044 0.687903 0.207741
Si Si2 0.071182 0.531586 0.425961
Si Si3 0.815180 0.218763 0.425517
Si Si4 0.968422 0.679864 0.490562
Si Si5 0.347605 0.064474 0.292168
Si Si6 0.235235 0.929767 0.991457
O O1 0.500000 0.703278 0.250000
O O2 0.138318 0.626219 0.191389
O O3 0.000000 0.692916 0.250000
O O4 0.949979 0.718508 0.144553
O O5 0.134423 0.474119 0.456003
O O6 0.375863 0.566135 0.463768
O O7 0.989601 0.533297 0.355699
O O8 0.808745 0.554307 0.437415
O O9 0.693106 0.184130 0.462973
O O10 0.906431 0.275658 0.456987
O O11 0.130470 0.195197 0.436163
O O12 0.907525 0.625166 0.513781
O O13 0.500000 0.057783 0.250000
O O14 0.000000 0.050094 0.250000
#
# Coordination Sequence:
#
# PCOD9261448 Si02
#       6
#     8   8   8   8   8   8
#     4  10  19  30  46  68  96 128 157 192 237 285
#     4  10  20  32  49  74  99 126 162 200 244 295
#     4  10  20  32  49  74  99 126 162 200 244 295
#     4  10  19  32  51  73  98 127 158 201 249 291
#     4  10  19  30  46  68  96 128 157 192 237 285
#     4  10  19  32  51  73  98 127 158 201 249 291
#
# _framework density 16.971758999999999
#
# number of rings (size 3 to 8) (size 9 to 14) (size 15 to 20)
#    0.000    2.000    0.000    5.000    0.000    2.667 
#    0.000    0.000    0.000    1.000    0.000    2.333 
#    0.000    0.000    0.000    0.000    0.000    0.000 
#
# Total GULP energy -133821.139373 kJ/mol
# GULP energy per Si atom -5575.880807 kJ/mol
# Density = 1.693313 g / cm^3
# Si number density = 16.971759 Si / 1000 Ang^3
#
#
#
# Elastic Constant Matrix: (Units=GPa)
#
#
# Indices 1 2 3 4 5 6 
#
# 1 81.2117 25.8083 18.0659 0.0000 14.5852 0.0000
# 2 25.8083 90.3896 33.3569 0.0000 2.7840 0.0000
# 3 18.0659 33.3569 92.8070 0.0000 6.9842 0.0000
# 4 0.0000 0.0000 0.0000 12.6642 0.0000 -4.9258
# 5 14.5852 2.7840 6.9842 0.0000 13.0731 0.0000
# 6 0.0000 0.0000 0.0000 -4.9258 0.0000 32.0100
#
#
#
# Elastic Compliance Matrix: (Units=1/GPa)
#
#
# Indices 1 2 3 4 5 6 
#
# 1 0.016910 -0.004104 -0.000482 0.000000 -0.017734 0.000000
# 2 -0.004104 0.013752 -0.004447 0.000000 0.004026 0.000000
# 3 -0.000482 -0.004447 0.012873 0.000000 -0.005393 0.000000
# 4 0.000000 0.000000 0.000000 0.083990 0.000000 0.012925
# 5 -0.017734 0.004026 -0.005393 0.000000 0.098302 0.000000
# 6 0.000000 0.000000 0.000000 0.012925 0.000000 0.033229
#
#
# Mechanical properties :
#
#
# Convention : Reuss Voigt Hill
#
# Bulk Modulus (GPa) = 39.26324 46.54116 42.90220
# Shear Modulus (GPa) = 17.50630 24.02796 20.76713
#
# Velocity S-wave (km/s) = 3.21518 3.76674 3.50184
# Velocity P-wave (km/s) = 6.08012 6.81176 6.45631
#
# Compressibility (1/GPa) = 0.02546912
#
# Stress axis : x y z
#
# Youngs Moduli (GPa) = 59.13684 72.71630 77.68199
#
# Poissons Ratio (x) = 0.29843 0.03744
# Poissons Ratio (y) = 0.24270 0.34544
# Poissons Ratio (z) = 0.02850 0.32336
#
# Static dielectric constant tensor:
#      x y z
#    x 1.579320 0.000000 0.004410 
#    y 0.000000 1.593690 0.000000 
#    z 0.004410 0.000000 1.511070 
# 
# From -- ./inp_files/254129.got.cif
#   From: 2010.05.17/outbox.cif.g08.bks.cpg/sg15_128_cif.got.tgz:254129.got - 2010.06.03 18:47:42.
