data_PCOD9261411
_publ_section_title
;
Structure prediction by ZEFSAII (Michael W. Deem and Ramdas Pophale) SiO2 
 PCOD9261411
Probable space group: C 2/C
;
_chemical_formula_sum "Si O2"
_cell_formula_units_Z 48
_cell_length_a 11.766325
_cell_length_b 16.041946
_cell_length_c 10.945459
_cell_angle_alpha 90.000000
_cell_angle_beta 118.677157
_cell_angle_gamma 90.000000
_cell_volume 1812.585858
_symmetry_space_group_name_H-M "C 2/C"
_symmetry_group_IT_number 15
_symmetry_cell_setting 'monoclinic'
loop_
_space_group_symop_operation_xyz
x,y,z
-x,y,1/2-z
-x,-y,-z
x,-y,1/2+z
1/2+x,1/2+y,z
1/2-x,1/2+y,1/2-z
1/2-x,1/2-y,-z
1/2+x,1/2-y,1/2+z
loop_
_atom_site_type_symbol
_atom_site_label
_atom_site_fract_x
_atom_site_fract_y
_atom_site_fract_z
Si Si1 0.440337 0.880462 0.091002
Si Si2 0.646206 0.368052 0.926025
Si Si3 0.150967 0.273233 0.836748
Si Si4 0.889660 0.052018 0.592591
Si Si5 0.107284 0.423561 0.960221
Si Si6 0.388681 0.671829 0.358988
O O1 0.500000 0.855181 0.250000
O O2 0.438144 0.983007 0.087522
O O3 0.294550 0.848982 0.019648
O O4 0.519770 0.868243 0.006027
O O5 0.618559 0.459320 0.967908
O O6 0.631067 0.382170 0.772790
O O7 0.538939 0.302369 0.916776
O O8 0.127300 0.371691 0.846685
O O9 0.262088 0.268083 0.790452
O O10 0.000000 0.240402 0.750000
O O11 0.250000 0.250000 0.000000
O O12 0.752021 0.067824 0.588674
O O13 0.897217 0.118234 0.486978
O O14 0.000000 0.058179 0.750000
#
# Coordination Sequence:
#
# PCOD9261411 Si02
#       6
#     8   8   8   8   8   8
#     4  10  20  34  57  92 129 162 196 243 305 382
#     4  10  20  33  57  86 126 168 193 238 311 373
#     4  11  24  44  67  85 114 159 217 269 306 364
#     4  10  19  29  53  89 124 163 200 244 291 362
#     4   9  21  36  56  87 125 164 198 246 315 367
#     4  10  21  37  58  87 124 160 201 246 306 372
#
# _framework density 26.481504000000001
#
# number of rings (size 3 to 8) (size 9 to 14) (size 15 to 20)
#    0.000    2.000    1.667    2.000    2.333   12.000 
#    0.000    0.000    3.667    5.000    0.000    0.000 
#    0.000    0.000    0.000    0.000    0.000    0.000 
#
# Total GULP energy -133849.435185 kJ/mol
# GULP energy per Si atom -5577.059799 kJ/mol
# Density = 2.642123 g / cm^3
# Si number density = 26.481504 Si / 1000 Ang^3
#
#
#
# Elastic Constant Matrix: (Units=GPa)
#
#
# Indices 1 2 3 4 5 6 
#
# 1 212.9993 25.0344 74.7298 0.0000 47.9572 0.0000
# 2 25.0344 73.9966 -2.3303 0.0000 6.3535 0.0000
# 3 74.7298 -2.3303 129.2427 0.0000 37.3250 0.0000
# 4 0.0000 0.0000 0.0000 26.5250 0.0000 1.2782
# 5 47.9572 6.3535 37.3250 0.0000 58.6811 0.0000
# 6 0.0000 0.0000 0.0000 1.2782 0.0000 35.3015
#
#
#
# Elastic Compliance Matrix: (Units=1/GPa)
#
#
# Indices 1 2 3 4 5 6 
#
# 1 0.006742 -0.002081 -0.002952 0.000000 -0.003407 0.000000
# 2 -0.002081 0.014356 0.001740 0.000000 -0.000960 0.000000
# 3 -0.002952 0.001740 0.010821 0.000000 -0.004659 0.000000
# 4 0.000000 0.000000 0.000000 0.037766 0.000000 -0.001367
# 5 -0.003407 -0.000960 -0.004659 0.000000 0.022893 0.000000
# 6 0.000000 0.000000 0.000000 -0.001367 0.000000 0.028377
#
#
# Mechanical properties :
#
#
# Convention : Reuss Voigt Hill
#
# Bulk Modulus (GPa) = 39.47754 67.90071 53.68913
# Shear Modulus (GPa) = 36.76835 45.35517 41.06176
#
# Velocity S-wave (km/s) = 3.73024 4.14298 3.94202
# Velocity P-wave (km/s) = 5.78730 6.97009 6.40605
#
# Compressibility (1/GPa) = 0.02533086
#
# Stress axis : x y z
#
# Youngs Moduli (GPa) = 148.31672 69.65966 92.41221
#
# Poissons Ratio (x) = 0.14499 0.27281
# Poissons Ratio (y) = 0.30872 -0.16075
# Poissons Ratio (z) = 0.43784 -0.12117
#
# Static dielectric constant tensor:
#      x y z
#    x 2.349950 0.000000 -0.009210 
#    y 0.000000 2.191550 0.000000 
#    z -0.009210 0.000000 2.083460 
# 
# From -- ./inp_files/89146.got.cif
#   From: 2010.05.17/outbox.cif.g08.bks.cpg/sg15_45_cif.got.tgz:89146.got - 2010.06.03 18:47:42.
