data_PCOD9261496
_publ_section_title
;
Structure prediction by ZEFSAII (Michael W. Deem and Ramdas Pophale) SiO2 
 PCOD9261496
Probable space group: C 2/C
;
_chemical_formula_sum "Si O2"
_cell_formula_units_Z 56
_cell_length_a 28.328654
_cell_length_b 17.257071
_cell_length_c 5.333802
_cell_angle_alpha 90.000000
_cell_angle_beta 99.666496
_cell_angle_gamma 90.000000
_cell_volume 2570.511398
_symmetry_space_group_name_H-M "C 2/C"
_symmetry_group_IT_number 15
_symmetry_cell_setting 'monoclinic'
loop_
_space_group_symop_operation_xyz
x,y,z
-x,y,1/2-z
-x,-y,-z
x,-y,1/2+z
1/2+x,1/2+y,z
1/2-x,1/2+y,1/2-z
1/2-x,1/2-y,-z
1/2+x,1/2-y,1/2+z
loop_
_atom_site_type_symbol
_atom_site_label
_atom_site_fract_x
_atom_site_fract_y
_atom_site_fract_z
Si Si1 0.130366 0.117200 0.704584
Si Si2 0.979595 0.911373 0.481796
Si Si3 0.176135 0.890173 0.744835
Si Si4 0.732998 0.960292 0.898248
Si Si5 0.882568 0.455823 0.700774
Si Si6 0.199745 0.722233 0.833248
Si Si7 0.153653 0.301388 0.786380
O O1 0.077155 0.094684 0.578268
O O2 0.164395 0.083643 0.514906
O O3 0.138637 0.210859 0.743666
O O4 0.142290 0.083347 0.989150
O O5 0.000000 0.873600 0.250000
O O6 0.000000 0.000000 0.500000
O O7 0.000000 0.874025 0.750000
O O8 0.229766 0.899325 0.686229
O O9 0.168634 0.799084 0.772273
O O10 0.675707 0.958378 0.839750
O O11 0.744205 0.027874 0.701549
O O12 0.899147 0.501873 0.469171
O O13 0.888458 0.362451 0.691315
O O14 0.194303 0.690384 0.545026
O O15 0.250000 0.750000 0.000000
O O16 0.174828 0.674402 0.032173
#
# Coordination Sequence:
#
# PCOD9261496 Si02
#       7
#     8   8   8   8   8   8   8
#     4  10  21  37  55  77 106 128 172 229 268 328
#     4  10  21  40  59  81 105 136 173 206 267 336
#     4  10  20  34  48  72 103 133 175 226 274 299
#     4  10  20  33  43  65  97 140 181 218 255 313
#     4  10  20  33  51  70 104 142 182 219 258 317
#     4  10  19  30  49  71  98 137 180 223 268 320
#     4  10  20  33  51  76 100 136 174 226 277 304
#
# _framework density 21.785547000000001
#
# number of rings (size 3 to 8) (size 9 to 14) (size 15 to 20)
#    0.000    2.000    0.000    3.857    0.000    4.571 
#   15.429    0.000    0.000    0.000    0.000    0.000 
#    0.000    3.429    0.000    0.000    0.000    0.000 
#
# Total GULP energy -155873.063622 kJ/mol
# GULP energy per Si atom -5566.895129 kJ/mol
# Density = 2.173596 g / cm^3
# Si number density = 21.785547 Si / 1000 Ang^3
#
#
#
# Elastic Constant Matrix: (Units=GPa)
#
#
# Indices 1 2 3 4 5 6 
#
# 1 39.4440 -8.6587 28.4268 0.0000 2.3486 0.0000
# 2 -8.6587 75.6481 23.9090 0.0000 2.5381 0.0000
# 3 28.4268 23.9090 156.1281 0.0000 -8.8987 0.0000
# 4 0.0000 0.0000 0.0000 16.9282 0.0000 1.2500
# 5 2.3486 2.5381 -8.8987 0.0000 23.8113 0.0000
# 6 0.0000 0.0000 0.0000 1.2500 0.0000 12.0038
#
#
#
# Elastic Compliance Matrix: (Units=1/GPa)
#
#
# Indices 1 2 3 4 5 6 
#
# 1 0.032289 0.006190 -0.007199 0.000000 -0.006535 0.000000
# 2 0.006190 0.015205 -0.003661 0.000000 -0.003599 0.000000
# 3 -0.007199 -0.003661 0.008521 0.000000 0.004285 0.000000
# 4 0.000000 0.000000 0.000000 0.059531 0.000000 -0.006199
# 5 -0.006535 -0.003599 0.004285 0.000000 0.044626 0.000000
# 6 0.000000 0.000000 0.000000 -0.006199 0.000000 0.083953
#
#
# Mechanical properties :
#
#
# Convention : Reuss Voigt Hill
#
# Bulk Modulus (GPa) = 21.42448 39.84161 30.63305
# Shear Modulus (GPa) = 18.58578 25.71821 22.15199
#
# Velocity S-wave (km/s) = 2.92400 3.43959 3.19222
# Velocity P-wave (km/s) = 4.61035 5.83971 5.26106
#
# Compressibility (1/GPa) = 0.04667557
#
# Stress axis : x y z
#
# Youngs Moduli (GPa) = 30.97028 65.76591 117.36205
#
# Poissons Ratio (x) = -0.40712 0.84494
# Poissons Ratio (y) = -0.19172 0.42964
# Poissons Ratio (z) = 0.22297 0.24076
#
# Static dielectric constant tensor:
#      x y z
#    x 1.769760 0.000000 -0.029400 
#    y 0.000000 1.903140 0.000000 
#    z -0.029400 0.000000 1.882630 
# 
# From -- ./inp_files/17206.got.cif
#   From: 2010.05.17/outbox.cif.g08.bks.cpg/sg15_9_cif.got.tgz:17206.got - 2010.06.03 18:47:42.
