data_PCOD9261302
_publ_section_title
;
Structure prediction by ZEFSAII (Michael W. Deem and Ramdas Pophale) SiO2 
 PCOD9261302
Probable space group: C 2/C
;
_chemical_formula_sum "Si O2"
_cell_formula_units_Z 48
_cell_length_a 12.168724
_cell_length_b 33.086032
_cell_length_c 5.520944
_cell_angle_alpha 90.000000
_cell_angle_beta 74.894159
_cell_angle_gamma 90.000000
_cell_volume 2146.006766
_symmetry_space_group_name_H-M "C 2/C"
_symmetry_group_IT_number 15
_symmetry_cell_setting 'monoclinic'
loop_
_space_group_symop_operation_xyz
x,y,z
-x,y,1/2-z
-x,-y,-z
x,-y,1/2+z
1/2+x,1/2+y,z
1/2-x,1/2+y,1/2-z
1/2-x,1/2-y,-z
1/2+x,1/2-y,1/2+z
loop_
_atom_site_type_symbol
_atom_site_label
_atom_site_fract_x
_atom_site_fract_y
_atom_site_fract_z
Si Si1 0.812817 0.083925 0.430567
Si Si2 0.758816 0.203458 0.073090
Si Si3 0.732223 0.323936 0.433486
Si Si4 0.494365 0.270877 0.003483
Si Si5 0.881359 0.043919 0.896128
Si Si6 0.658475 0.986929 0.026931
O O1 0.796699 0.131509 0.457594
O O2 0.858672 0.071025 0.669859
O O3 0.693399 0.059578 0.476443
O O4 0.880413 0.069255 0.149054
O O5 0.716199 0.177438 0.868333
O O6 0.750000 0.250000 0.000000
O O7 0.706716 0.196284 0.369152
O O8 0.895873 0.199283 0.040946
O O9 0.618619 0.297466 0.451237
O O10 0.500000 0.247212 0.750000
O O11 0.500000 0.246890 0.250000
O O12 0.000000 0.023425 0.750000
O O13 0.779633 0.011741 0.976174
O O14 0.604778 0.004867 0.816953
#
# Coordination Sequence:
#
# PCOD9261302 Si02
#       6
#     8   8   8   8   8   8
#     4  10  19  28  39  53  72  97 124 161 203 236
#     4  10  19  31  45  59  77 100 124 155 202 251
#     4  10  19  31  44  61  79  98 128 165 205 240
#     4   8  16  28  41  56  76  94 117 153 192 231
#     4  10  19  27  36  51  72  99 129 158 194 234
#     4   8  16  27  36  48  68  95 126 156 191 230
#
# _framework density 22.367122999999999
#
# number of rings (size 3 to 8) (size 9 to 14) (size 15 to 20)
#    0.000    2.667    0.000    2.000    0.000   12.000 
#    0.000    0.000    0.000    0.000    0.000    0.000 
#    0.000    0.000    0.000    0.000    0.000    0.000 
#
# Total GULP energy -133662.146606 kJ/mol
# GULP energy per Si atom -5569.256109 kJ/mol
# Density = 2.231621 g / cm^3
# Si number density = 22.367123 Si / 1000 Ang^3
#
#
#
# Elastic Constant Matrix: (Units=GPa)
#
#
# Indices 1 2 3 4 5 6 
#
# 1 32.6729 15.3004 19.8026 0.0000 -4.3148 0.0000
# 2 15.3004 91.9194 38.3036 0.0000 3.0432 0.0000
# 3 19.8026 38.3036 271.7058 0.0000 9.6915 0.0000
# 4 0.0000 0.0000 0.0000 42.7038 0.0000 28.6622
# 5 -4.3148 3.0432 9.6915 0.0000 27.3927 0.0000
# 6 0.0000 0.0000 0.0000 28.6622 0.0000 138.6925
#
#
#
# Elastic Compliance Matrix: (Units=1/GPa)
#
#
# Indices 1 2 3 4 5 6 
#
# 1 0.035217 -0.005225 -0.002075 0.000000 0.006862 0.000000
# 2 -0.005225 0.012347 -0.001298 0.000000 -0.001735 0.000000
# 3 -0.002075 -0.001298 0.004073 0.000000 -0.001624 0.000000
# 4 0.000000 0.000000 0.000000 0.027188 0.000000 -0.005619
# 5 0.006862 -0.001735 -0.001624 0.000000 0.038354 0.000000
# 6 0.000000 0.000000 0.000000 -0.005619 0.000000 0.008371
#
#
# Mechanical properties :
#
#
# Convention : Reuss Voigt Hill
#
# Bulk Modulus (GPa) = 29.03465 60.34572 44.69018
# Shear Modulus (GPa) = 32.42006 63.28391 47.85199
#
# Velocity S-wave (km/s) = 3.81130 5.32491 4.63037
# Velocity P-wave (km/s) = 5.69009 8.05261 6.97214
#
# Compressibility (1/GPa) = 0.03444161
#
# Stress axis : x y z
#
# Youngs Moduli (GPa) = 28.39556 80.99091 245.54566
#
# Poissons Ratio (x) = 0.42314 0.50949
# Poissons Ratio (y) = 0.14835 0.31870
# Poissons Ratio (z) = 0.05892 0.10512
#
# Static dielectric constant tensor:
#      x y z
#    x 1.931540 0.000000 -0.031000 
#    y 0.000000 1.779170 0.000000 
#    z -0.031000 0.000000 2.004530 
# 
# From -- ./inp_files/8711.got.cif
#   From: 2010.05.17/outbox.cif.g08.bks.cpg/sg15_5_cif.got.tgz:8711.got - 2010.06.03 18:47:42.
