data_PCOD9261861
_publ_section_title
;
Structure prediction by ZEFSAII (Michael W. Deem and Ramdas Pophale) SiO2 
 PCOD9261861
Probable space group: C 2/C
;
_chemical_formula_sum "Si O2"
_cell_formula_units_Z 60
_cell_length_a 32.695877
_cell_length_b 16.059261
_cell_length_c 9.476677
_cell_angle_alpha 90.000000
_cell_angle_beta 132.113578
_cell_angle_gamma 90.000000
_cell_volume 3691.232267
_symmetry_space_group_name_H-M "C 2/C"
_symmetry_group_IT_number 15
_symmetry_cell_setting 'monoclinic'
loop_
_space_group_symop_operation_xyz
x,y,z
-x,y,1/2-z
-x,-y,-z
x,-y,1/2+z
1/2+x,1/2+y,z
1/2-x,1/2+y,1/2-z
1/2-x,1/2-y,-z
1/2+x,1/2-y,1/2+z
loop_
_atom_site_type_symbol
_atom_site_label
_atom_site_fract_x
_atom_site_fract_y
_atom_site_fract_z
Si Si1 0.216887 0.403992 0.311481
Si Si2 0.144079 0.872294 0.291685
Si Si3 0.000000 0.002651 0.750000
Si Si4 0.227241 0.410125 0.876811
Si Si5 0.666341 0.639913 0.515614
Si Si6 0.575094 0.535464 0.170893
Si Si7 0.280148 0.192671 0.398384
Si Si8 0.180854 0.290148 0.012761
O O1 0.207436 0.495631 0.350246
O O2 0.273512 0.404445 0.350612
O O3 0.230348 0.343903 0.473199
O O4 0.169918 0.361668 0.104987
O O5 0.205966 0.906757 0.466306
O O6 0.140683 0.781905 0.360152
O O7 0.098837 0.940801 0.229190
O O8 0.143335 0.863823 0.120727
O O9 0.956143 0.050023 0.548910
O O10 0.965799 0.953630 0.790664
O O11 0.206015 0.381648 0.675069
O O12 0.205468 0.341249 0.937031
O O13 0.626831 0.594251 0.315371
O O14 0.674512 0.735641 0.493755
O O15 0.228302 0.237119 0.202550
#
# Coordination Sequence:
#
# PCOD9261861 Si02
#       8
#     8   8   4   8   8   8   8   8
#     4  11  21  28  45  72 100 132 173 209 238 267
#     4  11  19  32  51  68  89 137 176 198 239 298
#     4  10  24  38  48  80  96 118 160 226 276 280
#     4  11  18  31  47  66 101 135 173 202 238 275
#     4  11  19  33  48  70  92 132 178 200 239 298
#     4  11  22  36  57  70  99 129 167 212 254 311
#     4  10  20  30  43  69  99 128 168 221 234 264
#     4  10  19  32  44  64  99 129 166 216 231 270
#
# _framework density 16.254733999999999
#
# number of rings (size 3 to 8) (size 9 to 14) (size 15 to 20)
#    0.000    1.333    6.667    3.200    0.000    3.200 
#    0.000    0.000    0.000    0.000    0.000    0.000 
#    0.000    0.000    0.000   84.000    0.000    0.000 
#
# Total GULP energy -167041.159785 kJ/mol
# GULP energy per Si atom -5568.038659 kJ/mol
# Density = 1.621774 g / cm^3
# Si number density = 16.254734 Si / 1000 Ang^3
#
#
#
# Elastic Constant Matrix: (Units=GPa)
#
#
# Indices 1 2 3 4 5 6 
#
# 1 37.4364 10.4678 12.4202 0.0000 -13.4849 0.0000
# 2 10.4678 85.2359 28.8399 0.0000 -0.3046 0.0000
# 3 12.4202 28.8399 90.9859 0.0000 -11.7372 0.0000
# 4 0.0000 0.0000 0.0000 22.6360 0.0000 -9.2542
# 5 -13.4849 -0.3046 -11.7372 0.0000 24.7445 0.0000
# 6 0.0000 0.0000 0.0000 -9.2542 0.0000 7.2541
#
#
#
# Elastic Compliance Matrix: (Units=1/GPa)
#
#
# Indices 1 2 3 4 5 6 
#
# 1 0.034775 -0.003808 -0.001173 0.000000 0.018348 0.000000
# 2 -0.003808 0.013646 -0.004316 0.000000 -0.003954 0.000000
# 3 -0.001173 -0.004316 0.013240 0.000000 0.005588 0.000000
# 4 0.000000 0.000000 0.000000 0.092335 0.000000 0.117793
# 5 0.018348 -0.003954 0.005588 0.000000 0.053014 0.000000
# 6 0.000000 0.000000 0.000000 0.117793 0.000000 0.288123
#
#
# Mechanical properties :
#
#
# Convention : Reuss Voigt Hill
#
# Bulk Modulus (GPa) = 23.21984 35.23490 29.22737
# Shear Modulus (GPa) = 9.46824 21.72228 15.59526
#
# Velocity S-wave (km/s) = 2.41610 3.65960 3.10083
# Velocity P-wave (km/s) = 4.70100 6.29132 5.55338
#
# Compressibility (1/GPa) = 0.04306662
#
# Stress axis : x y z
#
# Youngs Moduli (GPa) = 28.75635 73.28208 75.53106
#
# Poissons Ratio (x) = 0.27907 0.08860
# Poissons Ratio (y) = 0.10951 0.32596
# Poissons Ratio (z) = 0.03373 0.31626
#
# Static dielectric constant tensor:
#      x y z
#    x 1.554690 0.000000 -0.024450 
#    y 0.000000 1.589800 0.000000 
#    z -0.024450 0.000000 1.567140 
# 
# From -- ./inp_files/56582.got.cif
#   From: 2010.05.17/outbox.cif.g08.bks.cpg/sg15_29_cif.got.tgz:56582.got - 2010.06.03 18:47:42.
