data_PCOD9261590
_publ_section_title
;
Structure prediction by ZEFSAII (Michael W. Deem and Ramdas Pophale) SiO2 
 PCOD9261590
Probable space group: C 2/C
;
_chemical_formula_sum "Si O2"
_cell_formula_units_Z 56
_cell_length_a 17.764976
_cell_length_b 5.609101
_cell_length_c 32.973878
_cell_angle_alpha 90.000000
_cell_angle_beta 134.327995
_cell_angle_gamma 90.000000
_cell_volume 2350.430115
_symmetry_space_group_name_H-M "C 2/C"
_symmetry_group_IT_number 15
_symmetry_cell_setting 'monoclinic'
loop_
_space_group_symop_operation_xyz
x,y,z
-x,y,1/2-z
-x,-y,-z
x,-y,1/2+z
1/2+x,1/2+y,z
1/2-x,1/2+y,1/2-z
1/2-x,1/2-y,-z
1/2+x,1/2-y,1/2+z
loop_
_atom_site_type_symbol
_atom_site_label
_atom_site_fract_x
_atom_site_fract_y
_atom_site_fract_z
Si Si1 0.842008 0.938422 0.524256
Si Si2 0.817380 0.785599 0.710388
Si Si3 0.421205 0.787824 0.870772
Si Si4 0.278438 0.310735 0.076640
Si Si5 0.862127 0.784975 0.819989
Si Si6 0.432839 0.031837 0.514241
Si Si7 0.328795 0.217152 0.187657
O O1 0.750000 0.750000 0.500000
O O2 0.934807 0.781780 0.539198
O O3 0.784694 0.101041 0.469498
O O4 0.855763 0.080793 0.571844
O O5 0.693927 0.788291 0.649883
O O6 0.808617 0.786939 0.755822
O O7 0.871667 0.542503 0.715957
O O8 0.874850 0.027567 0.718523
O O9 0.420023 0.537876 0.846871
O O10 0.421749 0.031579 0.844642
O O11 0.518215 0.830888 0.937651
O O12 0.318130 0.233129 0.135240
O O13 0.185505 0.502324 0.046010
O O14 0.779189 0.780727 0.826000
O O15 0.500000 0.000000 0.500000
#
# Coordination Sequence:
#
# PCOD9261590 Si02
#       7
#     8   8   8   8   8   8   8
#     4   9  22  41  59  76 122 164 217 255 303 364
#     4  10  19  34  52  84 126 157 192 252 315 382
#     4  10  20  31  51  81 116 167 193 236 312 385
#     4  10  22  39  59  84 121 169 209 255 302 389
#     4  10  19  34  52  81 130 157 192 248 320 385
#     4  11  23  35  57  90 131 163 202 263 323 384
#     4  10  19  30  57  81 111 157 202 244 299 372
#
# _framework density 23.825427999999999
#
# number of rings (size 3 to 8) (size 9 to 14) (size 15 to 20)
#    0.000    2.000    0.000    6.000   10.000    0.571 
#    0.000    0.000    0.000    0.000    0.000    1.000 
#    0.000    0.000    0.000    0.000    0.000    0.000 
#
# Total GULP energy -156151.609412 kJ/mol
# GULP energy per Si atom -5576.843193 kJ/mol
# Density = 2.377120 g / cm^3
# Si number density = 23.825428 Si / 1000 Ang^3
#
#
#
# Elastic Constant Matrix: (Units=GPa)
#
#
# Indices 1 2 3 4 5 6 
#
# 1 108.1368 31.7686 44.3439 -0.0001 -28.6417 0.0014
# 2 31.7686 210.8288 46.5612 0.0018 -24.0235 0.0008
# 3 44.3439 46.5612 89.0324 0.0007 -40.6058 -0.0004
# 4 -0.0001 0.0018 0.0007 28.9433 -0.0004 -0.7162
# 5 -28.6417 -24.0235 -40.6058 -0.0004 45.5587 0.0002
# 6 0.0014 0.0008 -0.0004 -0.7162 0.0002 13.7189
#
#
#
# Elastic Compliance Matrix: (Units=1/GPa)
#
#
# Indices 1 2 3 4 5 6 
#
# 1 0.012032 -0.000498 -0.004047 0.000000 0.003694 -0.000001
# 2 -0.000498 0.005391 -0.002389 0.000000 0.000401 0.000000
# 3 -0.004047 -0.002389 0.021503 0.000000 0.015361 0.000001
# 4 0.000000 0.000000 0.000000 0.034595 0.000000 0.001806
# 5 0.003694 0.000401 0.015361 0.000000 0.038175 -0.000001
# 6 -0.000001 0.000000 0.000001 0.001806 -0.000001 0.072986
#
#
# Mechanical properties :
#
#
# Convention : Reuss Voigt Hill
#
# Bulk Modulus (GPa) = 39.90766 72.59395 56.25081
# Shear Modulus (GPa) = 24.16589 36.66581 30.41585
#
# Velocity S-wave (km/s) = 3.18825 3.92718 3.57685
# Velocity P-wave (km/s) = 5.50814 7.14835 6.38117
#
# Compressibility (1/GPa) = 0.02505784
#
# Stress axis : x y z
#
# Youngs Moduli (GPa) = 83.11106 185.47875 46.50578
#
# Poissons Ratio (x) = 0.09241 0.18822
# Poissons Ratio (y) = 0.04141 0.11108
# Poissons Ratio (z) = 0.33638 0.44304
#
# Static dielectric constant tensor:
#      x y z
#    x 1.968180 0.000000 0.095100 
#    y 0.000000 2.173830 0.000000 
#    z 0.095100 0.000000 1.970030 
# 
# From -- ./inp_files/315144.got.cif
#   From: 2010.05.17/outbox.cif.g08.bks.cpg/sg15_158_cif.got.tgz:315144.got - 2010.06.03 18:47:42.
