data_PCOD9261251
_publ_section_title
;
Structure prediction by ZEFSAII (Michael W. Deem and Ramdas Pophale) SiO2 
 PCOD9261251
Probable space group: C 2/C
;
_chemical_formula_sum "Si O2"
_cell_formula_units_Z 56
_cell_length_a 14.885431
_cell_length_b 8.934450
_cell_length_c 25.037354
_cell_angle_alpha 90.000000
_cell_angle_beta 54.910680
_cell_angle_gamma 90.000000
_cell_volume 2724.628748
_symmetry_space_group_name_H-M "C 2/C"
_symmetry_group_IT_number 15
_symmetry_cell_setting 'monoclinic'
loop_
_space_group_symop_operation_xyz
x,y,z
-x,y,1/2-z
-x,-y,-z
x,-y,1/2+z
1/2+x,1/2+y,z
1/2-x,1/2+y,1/2-z
1/2-x,1/2-y,-z
1/2+x,1/2-y,1/2+z
loop_
_atom_site_type_symbol
_atom_site_label
_atom_site_fract_x
_atom_site_fract_y
_atom_site_fract_z
Si Si1 0.329301 0.784109 0.778296
Si Si2 0.021046 0.923347 0.048987
Si Si3 0.934331 0.396873 0.839329
Si Si4 0.114376 0.728046 0.687791
Si Si5 0.699663 0.582477 0.805818
Si Si6 0.649477 0.145914 0.015757
Si Si7 0.296468 0.385578 0.947706
O O1 0.307092 0.633133 0.753609
O O2 0.355405 0.784275 0.832656
O O3 0.442476 0.846428 0.714169
O O4 0.239627 0.912005 0.798566
O O5 0.914394 0.904717 0.122959
O O6 0.066989 0.760330 0.017116
O O7 0.110621 0.021811 0.051221
O O8 0.000000 0.000000 0.000000
O O9 0.914480 0.561748 0.823593
O O10 0.907527 0.402801 0.910005
O O11 0.210353 0.693073 0.697628
O O12 0.156553 0.822739 0.623463
O O13 0.000000 0.791035 0.750000
O O14 0.750000 0.250000 0.000000
O O15 0.698345 0.002708 0.970170
O O16 0.250000 0.250000 0.000000
#
# Coordination Sequence:
#
# PCOD9261251 Si02
#       7
#     8   8   8   8   8   8   8
#     4  10  22  38  65  94 127 168 208 267 328 390
#     4  11  25  43  67  92 129 169 223 276 325 382
#     4  10  18  42  68  87 124 176 210 255 330 400
#     4  11  22  41  65  93 133 171 210 267 338 394
#     4  11  23  42  63  96 131 163 215 272 325 384
#     4  10  22  41  65  92 124 169 220 258 318 395
#     4  11  23  42  70  94 127 173 222 266 327 401
#
# _framework density 20.553260000000002
#
# number of rings (size 3 to 8) (size 9 to 14) (size 15 to 20)
#    0.000    1.429    5.714    0.857    8.000    0.000 
#    5.143    4.286    0.000    0.000    0.000    0.000 
#    0.000    0.000    0.000    0.000    0.000    0.000 
#
# Total GULP energy -156342.206564 kJ/mol
# GULP energy per Si atom -5583.650234 kJ/mol
# Density = 2.050648 g / cm^3
# Si number density = 20.553260 Si / 1000 Ang^3
#
#
#
# Elastic Constant Matrix: (Units=GPa)
#
#
# Indices 1 2 3 4 5 6 
#
# 1 59.7581 23.2620 24.7882 0.0000 -11.0447 0.0000
# 2 23.2620 64.9589 32.3114 0.0000 -8.5395 0.0000
# 3 24.7882 32.3114 97.5468 0.0000 -0.9598 0.0000
# 4 0.0000 0.0000 0.0000 44.1843 0.0000 3.9832
# 5 -11.0447 -8.5395 -0.9598 0.0000 32.0097 0.0000
# 6 0.0000 0.0000 0.0000 3.9832 0.0000 23.3634
#
#
#
# Elastic Compliance Matrix: (Units=1/GPa)
#
#
# Indices 1 2 3 4 5 6 
#
# 1 0.021311 -0.005017 -0.003696 0.000000 0.005904 0.000000
# 2 -0.005017 0.020359 -0.005434 0.000000 0.003537 0.000000
# 3 -0.003696 -0.005434 0.012968 0.000000 -0.002336 0.000000
# 4 0.000000 0.000000 0.000000 0.022986 0.000000 -0.003919
# 5 0.005904 0.003537 -0.002336 0.000000 0.034151 0.000000
# 6 0.000000 0.000000 0.000000 -0.003919 0.000000 0.043470
#
#
# Mechanical properties :
#
#
# Convention : Reuss Voigt Hill
#
# Bulk Modulus (GPa) = 37.95883 42.55409 40.25646
# Shear Modulus (GPa) = 25.99835 29.37164 27.68499
#
# Velocity S-wave (km/s) = 3.56044 3.78438 3.67412
# Velocity P-wave (km/s) = 5.95071 6.31226 6.13415
#
# Compressibility (1/GPa) = 0.02634433
#
# Stress axis : x y z
#
# Youngs Moduli (GPa) = 46.92337 49.11837 77.11564
#
# Poissons Ratio (x) = 0.24644 0.28498
# Poissons Ratio (y) = 0.23543 0.41904
# Poissons Ratio (z) = 0.17341 0.26691
#
# Static dielectric constant tensor:
#      x y z
#    x 1.770170 0.000000 -0.008110 
#    y 0.000000 1.686370 0.000000 
#    z -0.008110 0.000000 1.593590 
# 
# From -- ./inp_files/273073.got.cif
#   From: 2010.05.17/outbox.cif.g08.bks.cpg/sg15_137_cif.got.tgz:273073.got - 2010.06.03 18:47:42.
