data_PCOD9261243
_publ_section_title
;
Structure prediction by ZEFSAII (Michael W. Deem and Ramdas Pophale) SiO2 
 PCOD9261243
Probable space group: C 2/C
;
_chemical_formula_sum "Si O2"
_cell_formula_units_Z 60
_cell_length_a 34.142056
_cell_length_b 13.917779
_cell_length_c 21.334717
_cell_angle_alpha 90.000000
_cell_angle_beta 14.942563
_cell_angle_gamma 90.000000
_cell_volume 2614.054595
_symmetry_space_group_name_H-M "C 2/C"
_symmetry_group_IT_number 15
_symmetry_cell_setting 'monoclinic'
loop_
_space_group_symop_operation_xyz
x,y,z
-x,y,1/2-z
-x,-y,-z
x,-y,1/2+z
1/2+x,1/2+y,z
1/2-x,1/2+y,1/2-z
1/2-x,1/2-y,-z
1/2+x,1/2-y,1/2+z
loop_
_atom_site_type_symbol
_atom_site_label
_atom_site_fract_x
_atom_site_fract_y
_atom_site_fract_z
Si Si1 0.672420 0.353477 0.977400
Si Si2 0.921696 0.235850 0.437607
Si Si3 0.212487 0.134948 0.556167
Si Si4 0.250871 0.537224 0.710739
Si Si5 0.500000 0.000000 0.000000
Si Si6 0.012816 0.385716 0.656536
Si Si7 0.516686 0.209931 0.525909
Si Si8 0.409373 0.290550 0.560198
O O1 0.500000 0.321566 0.250000
O O2 0.725109 0.395589 0.963853
O O3 0.672462 0.437593 0.926619
O O4 0.799465 0.274059 0.767048
O O5 0.866861 0.125389 0.529219
O O6 0.020347 0.258080 0.346792
O O7 0.769958 0.301972 0.671309
O O8 0.000000 0.247554 0.250000
O O9 0.250000 0.250000 0.500000
O O10 0.346384 0.085010 0.387476
O O11 0.039943 0.129638 0.846454
O O12 0.126193 0.553085 0.849171
O O13 0.150198 0.542174 0.928774
O O14 0.495008 0.095382 0.961784
O O15 0.000000 0.372804 0.750000
O O16 0.052723 0.292101 0.551218
O O17 0.438104 0.257984 0.587654
#
# Coordination Sequence:
#
# PCOD9261243 Si02
#       8
#     8   8   8   8   4   8   8   8
#     4  11  21  37  63  93 128 176 216 277 328 406
#     4  11  24  40  62  99 132 174 229 282 334 404
#     4  10  19  32  55  96 126 151 215 269 335 395
#     4  10  21  39  61  93 132 173 228 261 333 409
#     4  10  18  42  66  88 124 182 218 260 332 408
#     4  10  19  33  58  90 125 163 210 276 331 386
#     4  11  21  39  69  92 132 176 219 286 331 404
#     4  10  21  38  56  99 129 164 219 275 342 403
#
# _framework density 22.952849000000001
#
# number of rings (size 3 to 8) (size 9 to 14) (size 15 to 20)
#    0.000    1.600    5.333    2.000    3.733    2.667 
#    0.000    2.667    0.000    0.800    0.000    0.000 
#    0.000    0.000    0.000    0.000    0.000    0.000 
#
# Total GULP energy -167008.225958 kJ/mol
# GULP energy per Si atom -5566.940865 kJ/mol
# Density = 2.290061 g / cm^3
# Si number density = 22.952849 Si / 1000 Ang^3
#
#
#
# Elastic Constant Matrix: (Units=GPa)
#
#
# Indices 1 2 3 4 5 6 
#
# 1 195.9252 27.4999 37.6624 -0.0001 27.8428 0.0000
# 2 27.4999 55.1375 11.5580 0.0000 17.4322 0.0001
# 3 37.6624 11.5580 74.6941 0.0002 23.7821 0.0000
# 4 -0.0001 0.0000 0.0002 10.2027 0.0000 2.8691
# 5 27.8428 17.4322 23.7821 0.0000 41.7818 0.0000
# 6 0.0000 0.0001 0.0000 2.8691 0.0000 30.8937
#
#
#
# Elastic Compliance Matrix: (Units=1/GPa)
#
#
# Indices 1 2 3 4 5 6 
#
# 1 0.006072 -0.001943 -0.002114 0.000000 -0.002033 0.000000
# 2 -0.001943 0.021533 0.000117 0.000000 -0.007756 0.000000
# 3 -0.002114 0.000117 0.017102 0.000000 -0.008375 0.000000
# 4 0.000000 0.000000 0.000000 0.100642 0.000000 -0.009347
# 5 -0.002033 -0.007756 -0.008375 0.000000 0.033291 0.000000
# 6 0.000000 0.000000 0.000000 -0.009347 0.000000 0.033237
#
#
# Mechanical properties :
#
#
# Convention : Reuss Voigt Hill
#
# Bulk Modulus (GPa) = 27.15322 53.24415 40.19869
# Shear Modulus (GPa) = 21.54877 33.17805 27.36341
#
# Velocity S-wave (km/s) = 3.06735 3.80608 3.45651
# Velocity P-wave (km/s) = 4.93969 6.52400 5.78632
#
# Compressibility (1/GPa) = 0.03682804
#
# Stress axis : x y z
#
# Youngs Moduli (GPa) = 164.69493 46.44043 58.47230
#
# Poissons Ratio (x) = 0.09022 0.12360
# Poissons Ratio (y) = 0.31994 -0.00684
# Poissons Ratio (z) = 0.34814 -0.00543
#
# Static dielectric constant tensor:
#      x y z
#    x 1.870140 0.000000 0.015870 
#    y 0.000000 1.785810 0.000000 
#    z 0.015870 0.000000 1.969550 
# 
# From -- ./inp_files/225788.got.cif
#   From: 2010.05.17/outbox.cif.g08.bks.cpg/sg15_113_cif.got.tgz:225788.got - 2010.06.03 18:47:42.
