data_PCOD9261349
_publ_section_title
;
Structure prediction by ZEFSAII (Michael W. Deem and Ramdas Pophale) SiO2 
 PCOD9261349
Probable space group: C 2/C
;
_chemical_formula_sum "Si O2"
_cell_formula_units_Z 64
_cell_length_a 19.495301
_cell_length_b 28.076113
_cell_length_c 15.899369
_cell_angle_alpha 90.000000
_cell_angle_beta 26.309100
_cell_angle_gamma 90.000000
_cell_volume 3857.090810
_symmetry_space_group_name_H-M "C 2/C"
_symmetry_group_IT_number 15
_symmetry_cell_setting 'monoclinic'
loop_
_space_group_symop_operation_xyz
x,y,z
-x,y,1/2-z
-x,-y,-z
x,-y,1/2+z
1/2+x,1/2+y,z
1/2-x,1/2+y,1/2-z
1/2-x,1/2-y,-z
1/2+x,1/2-y,1/2+z
loop_
_atom_site_type_symbol
_atom_site_label
_atom_site_fract_x
_atom_site_fract_y
_atom_site_fract_z
Si Si1 0.149250 0.850661 0.444028
Si Si2 0.701863 0.497601 0.875667
Si Si3 0.073158 0.775647 0.762616
Si Si4 0.459914 0.039230 0.199263
Si Si5 0.903853 0.408370 0.105095
Si Si6 0.156637 0.445740 0.935998
Si Si7 0.051351 0.062352 0.290069
Si Si8 0.343250 0.174234 0.883676
O O1 0.289415 0.863709 0.228619
O O2 0.233318 0.855192 0.443205
O O3 0.054046 0.801662 0.540615
O O4 0.022721 0.892141 0.582636
O O5 0.798385 0.545862 0.747456
O O6 0.734181 0.462727 0.761874
O O7 0.784153 0.474260 0.866836
O O8 0.528570 0.514908 0.083567
O O9 0.235396 0.803736 0.576202
O O10 0.107490 0.719741 0.729213
O O11 0.000000 0.780965 0.750000
O O12 0.500000 0.052401 0.250000
O O13 0.518320 0.078219 0.068360
O O14 0.555609 0.991269 0.073141
O O15 0.039221 0.406985 0.026599
O O16 0.267066 0.434075 0.892066
O O17 0.000000 0.063237 0.250000
O O18 0.500000 0.153475 0.750000
#
# Coordination Sequence:
#
# PCOD9261349 Si02
#       8
#     8   8   8   8   8   8   8   8
#     4  10  19  29  38  56  86 108 131 169 205 242
#     4   8  16  29  41  56  79 108 140 174 209 245
#     4   8  15  28  42  58  78 104 134 164 196 236
#     4   9  15  28  46  60  77 104 142 178 208 248
#     4   8  17  29  42  59  80 108 137 171 214 249
#     4   9  17  29  41  54  78 112 145 174 208 244
#     4  11  19  25  37  59  83 108 141 175 206 235
#     4   9  16  27  44  59  76 106 139 163 193 238
#
# _framework density 16.592817
#
# number of rings (size 3 to 8) (size 9 to 14) (size 15 to 20)
#    0.000    3.000    0.000    4.500    0.000    2.000 
#    0.000    1.250    0.000    0.000    0.000    0.000 
#    0.000    1.000    0.000    0.000    0.000    2.500 
#
# Total GULP energy -178143.383266 kJ/mol
# GULP energy per Si atom -5566.980727 kJ/mol
# Density = 1.655505 g / cm^3
# Si number density = 16.592817 Si / 1000 Ang^3
#
#
#
# Elastic Constant Matrix: (Units=GPa)
#
#
# Indices 1 2 3 4 5 6 
#
# 1 61.3418 0.3169 12.2025 -0.0060 -8.2294 0.0029
# 2 0.3169 32.7514 19.1393 0.0021 -2.1349 -0.0003
# 3 12.2025 19.1393 51.4945 -0.0252 -12.9883 0.0100
# 4 -0.0060 0.0021 -0.0252 24.3869 0.0091 -1.4625
# 5 -8.2294 -2.1349 -12.9883 0.0091 25.8092 -0.0014
# 6 0.0029 -0.0003 0.0100 -1.4625 -0.0014 7.0832
#
#
#
# Elastic Compliance Matrix: (Units=1/GPa)
#
#
# Indices 1 2 3 4 5 6 
#
# 1 0.017618 0.002507 -0.004167 -0.000002 0.003728 -0.000001
# 2 0.002507 0.039857 -0.016465 -0.000017 -0.004189 0.000019
# 3 -0.004167 -0.016465 0.029606 0.000024 0.012208 -0.000033
# 4 -0.000002 -0.000017 0.000024 0.041520 -0.000004 0.008573
# 5 0.003728 -0.004189 0.012208 -0.000004 0.045732 -0.000010
# 6 -0.000001 0.000019 -0.000033 0.008573 -0.000010 0.142950
#
#
# Mechanical properties :
#
#
# Convention : Reuss Voigt Hill
#
# Bulk Modulus (GPa) = 19.67213 23.21168 21.44191
# Shear Modulus (GPa) = 13.49617 19.05112 16.27364
#
# Velocity S-wave (km/s) = 2.85507 3.39212 3.13511
# Velocity P-wave (km/s) = 4.76970 5.41861 5.10448
#
# Compressibility (1/GPa) = 0.05083333
#
# Stress axis : x y z
#
# Youngs Moduli (GPa) = 56.75971 25.08942 33.77719
#
# Poissons Ratio (x) = -0.06291 0.14073
# Poissons Ratio (y) = -0.14232 0.55614
# Poissons Ratio (z) = 0.23649 0.41309
#
# Static dielectric constant tensor:
#      x y z
#    x 1.580110 -0.000020 -0.017580 
#    y -0.000020 1.603980 0.000020 
#    z -0.017580 0.000020 1.616810 
# 
# From -- ./inp_files/164509.got.cif
#   From: 2010.05.17/outbox.cif.g08.bks.cpg/sg15_83_cif.got.tgz:164509.got - 2010.06.03 18:47:42.
