data_PCOD9261127
_publ_section_title
;
Structure prediction by ZEFSAII (Michael W. Deem and Ramdas Pophale) SiO2 
 PCOD9261127
Probable space group: C 2/C
;
_chemical_formula_sum "Si O2"
_cell_formula_units_Z 32
_cell_length_a 22.074269
_cell_length_b 12.881924
_cell_length_c 10.387826
_cell_angle_alpha 90.000000
_cell_angle_beta 24.529927
_cell_angle_gamma 90.000000
_cell_volume 1226.354715
_symmetry_space_group_name_H-M "C 2/C"
_symmetry_group_IT_number 15
_symmetry_cell_setting 'monoclinic'
loop_
_space_group_symop_operation_xyz
x,y,z
-x,y,1/2-z
-x,-y,-z
x,-y,1/2+z
1/2+x,1/2+y,z
1/2-x,1/2+y,1/2-z
1/2-x,1/2-y,-z
1/2+x,1/2-y,1/2+z
loop_
_atom_site_type_symbol
_atom_site_label
_atom_site_fract_x
_atom_site_fract_y
_atom_site_fract_z
Si Si1 0.310694 0.468721 0.162338
Si Si2 0.559345 0.558907 0.794239
Si Si3 0.417670 0.222674 0.641395
Si Si4 0.500000 0.732208 0.250000
Si Si5 0.500000 0.074093 0.250000
O O1 0.403597 0.484506 0.124208
O O2 0.144273 0.477029 0.530541
O O3 0.288963 0.529918 0.065816
O O4 0.365640 0.350634 0.022545
O O5 0.500000 0.534896 0.750000
O O6 0.503314 0.673841 0.927704
O O7 0.487728 0.202318 0.645174
O O8 0.438623 0.143409 0.486620
O O9 0.250000 0.250000 0.000000
#
# Coordination Sequence:
#
# PCOD9261127 Si02
#       5
#     8   8   8   4   4
#     4  10  21  39  64  95 134 177 225 269 331 404
#     4  10  18  40  66  84 125 181 221 258 339 400
#     4  12  23  43  71 104 132 177 229 286 338 402
#     4  10  20  43  67  94 140 170 228 270 344 401
#     4  12  24  41  67 104 142 170 232 288 330 397
#
# _framework density 26.093592999999998
#
# number of rings (size 3 to 8) (size 9 to 14) (size 15 to 20)
#    0.000    1.500    7.500    1.500    0.000    1.000 
#    0.000    6.250    0.000    0.000    0.000    0.000 
#    0.000    0.000    0.000    0.000    0.000    0.000 
#
# Total GULP energy -89085.558804 kJ/mol
# GULP energy per Si atom -5567.847425 kJ/mol
# Density = 2.603420 g / cm^3
# Si number density = 26.093593 Si / 1000 Ang^3
#
#
#
# Elastic Constant Matrix: (Units=GPa)
#
#
# Indices 1 2 3 4 5 6 
#
# 1 221.9772 33.0455 92.6479 0.0000 18.6158 0.0000
# 2 33.0455 54.3579 28.6511 0.0000 -2.4498 0.0000
# 3 92.6479 28.6511 175.0541 0.0000 1.7678 0.0000
# 4 0.0000 0.0000 0.0000 33.4748 0.0000 2.4184
# 5 18.6158 -2.4498 1.7678 0.0000 44.9562 0.0000
# 6 0.0000 0.0000 0.0000 2.4184 0.0000 24.3193
#
#
#
# Elastic Compliance Matrix: (Units=1/GPa)
#
#
# Indices 1 2 3 4 5 6 
#
# 1 0.006300 -0.002413 -0.002913 0.000000 -0.002626 0.000000
# 2 -0.002413 0.021126 -0.002203 0.000000 0.002237 0.000000
# 3 -0.002913 -0.002203 0.007607 0.000000 0.000787 0.000000
# 4 0.000000 0.000000 0.000000 0.030089 0.000000 -0.002992
# 5 -0.002626 0.002237 0.000787 0.000000 0.023422 0.000000
# 6 0.000000 0.000000 0.000000 -0.002992 0.000000 0.041417
#
#
# Mechanical properties :
#
#
# Convention : Reuss Voigt Hill
#
# Bulk Modulus (GPa) = 50.06396 84.45311 67.25854
# Shear Modulus (GPa) = 32.96469 40.35306 36.65887
#
# Velocity S-wave (km/s) = 3.55818 3.93679 3.75227
# Velocity P-wave (km/s) = 6.00906 7.28698 6.67866
#
# Compressibility (1/GPa) = 0.01997445
#
# Stress axis : x y z
#
# Youngs Moduli (GPa) = 158.72546 47.33604 131.46075
#
# Poissons Ratio (x) = 0.11422 0.38294
# Poissons Ratio (y) = 0.38301 0.28962
# Poissons Ratio (z) = 0.46236 0.10429
#
# Static dielectric constant tensor:
#      x y z
#    x 0.871360 0.000000 3.895200 
#    y 0.000000 2.032130 0.000000 
#    z 3.895200 0.000000 -9.855050 
# 
# From -- ./inp_files/56354.got.cif
#   From: 2010.05.17/outbox.cif.g08.bks.cpg/sg15_29_cif.got.tgz:56354.got - 2010.06.03 18:47:42.
