data_PCOD9261980
_publ_section_title
;
Structure prediction by ZEFSAII (Michael W. Deem and Ramdas Pophale) SiO2 
 PCOD9261980
Probable space group: C 2/C
;
_chemical_formula_sum "Si O2"
_cell_formula_units_Z 40
_cell_length_a 23.373619
_cell_length_b 18.207307
_cell_length_c 8.676968
_cell_angle_alpha 90.000000
_cell_angle_beta 136.602915
_cell_angle_gamma 90.000000
_cell_volume 2537.046105
_symmetry_space_group_name_H-M "C 2/C"
_symmetry_group_IT_number 15
_symmetry_cell_setting 'monoclinic'
loop_
_space_group_symop_operation_xyz
x,y,z
-x,y,1/2-z
-x,-y,-z
x,-y,1/2+z
1/2+x,1/2+y,z
1/2-x,1/2+y,1/2-z
1/2-x,1/2-y,-z
1/2+x,1/2-y,1/2+z
loop_
_atom_site_type_symbol
_atom_site_label
_atom_site_fract_x
_atom_site_fract_y
_atom_site_fract_z
Si Si1 0.747534 0.205860 0.335687
Si Si2 0.856451 0.568288 0.382119
Si Si3 0.090421 0.268149 0.986018
Si Si4 0.908861 0.431388 0.638782
Si Si5 0.585359 0.205373 0.838810
O O1 0.750000 0.250000 0.500000
O O2 0.723576 0.119900 0.308612
O O3 0.833582 0.217077 0.415357
O O4 0.668767 0.236258 0.082826
O O5 0.846301 0.488818 0.436689
O O6 0.904081 0.562734 0.313242
O O7 0.905898 0.618668 0.602633
O O8 0.085677 0.280184 0.159225
O O9 0.107069 0.347449 0.940024
O O10 0.000000 0.242861 0.750000
O O11 0.000000 0.449714 0.750000
O O12 0.500000 0.231663 0.750000
#
# Coordination Sequence:
#
# PCOD9261980 Si02
#       5
#     8   8   8   8   8
#     4  10  20  36  50  75 107 142 175 216 257 308
#     4  10  21  31  51  72 112 137 175 209 259 313
#     4  11  20  34  55  77 106 141 175 217 261 307
#     4  11  19  31  49  76 107 140 169 211 261 318
#     4  10  19  32  51  76 106 137 171 211 261 311
#
# _framework density 15.766367000000001
#
# number of rings (size 3 to 8) (size 9 to 14) (size 15 to 20)
#    1.200    0.400    2.000    6.600    0.000    0.000 
#    0.000    0.000    0.000    0.000    0.000    2.800 
#    0.000    0.000    0.000    0.000    0.000    0.000 
#
# Total GULP energy -111369.206719 kJ/mol
# GULP energy per Si atom -5568.460336 kJ/mol
# Density = 1.573048 g / cm^3
# Si number density = 15.766367 Si / 1000 Ang^3
#
#
#
# Elastic Constant Matrix: (Units=GPa)
#
#
# Indices 1 2 3 4 5 6 
#
# 1 108.7296 15.0588 34.0106 0.0000 1.4464 0.0000
# 2 15.0588 38.3033 3.7764 0.0000 17.1596 0.0000
# 3 34.0106 3.7764 81.8374 0.0000 7.3476 0.0000
# 4 0.0000 0.0000 0.0000 18.9262 0.0000 -1.3467
# 5 1.4464 17.1596 7.3476 0.0000 33.4100 0.0000
# 6 0.0000 0.0000 0.0000 -1.3467 0.0000 15.7998
#
#
#
# Elastic Compliance Matrix: (Units=1/GPa)
#
#
# Indices 1 2 3 4 5 6 
#
# 1 0.011420 -0.005543 -0.004796 0.000000 0.003407 0.000000
# 2 -0.005543 0.036601 0.002327 0.000000 -0.019070 0.000000
# 3 -0.004796 0.002327 0.014480 0.000000 -0.004172 0.000000
# 4 0.000000 0.000000 0.000000 0.053159 0.000000 0.004531
# 5 0.003407 -0.019070 -0.004172 0.000000 0.040496 0.000000
# 6 0.000000 0.000000 0.000000 0.004531 0.000000 0.063678
#
#
# Mechanical properties :
#
#
# Convention : Reuss Voigt Hill
#
# Bulk Modulus (GPa) = 21.51677 37.17351 29.34514
# Shear Modulus (GPa) = 19.89261 25.36216 22.62738
#
# Velocity S-wave (km/s) = 3.55591 4.01512 3.79247
# Velocity P-wave (km/s) = 5.52596 6.71742 6.15061
#
# Compressibility (1/GPa) = 0.04647539
#
# Stress axis : x y z
#
# Youngs Moduli (GPa) = 87.56781 27.32195 69.06213
#
# Poissons Ratio (x) = 0.15145 0.33122
# Poissons Ratio (y) = 0.48541 -0.16071
# Poissons Ratio (z) = 0.41998 -0.06358
#
# Static dielectric constant tensor:
#      x y z
#    x 1.523700 0.000000 0.004470 
#    y 0.000000 1.535170 0.000000 
#    z 0.004470 0.000000 1.544580 
# 
# From -- ./inp_files/31475.got.cif
#   From: 2010.05.17/outbox.cif.g08.bks.cpg/sg15_16_cif.got.tgz:31475.got - 2010.06.03 18:47:42.
