data_PCOD9261535
_publ_section_title
;
Structure prediction by ZEFSAII (Michael W. Deem and Ramdas Pophale) SiO2 
 PCOD9261535
Probable space group: C 2/C
;
_chemical_formula_sum "Si O2"
_cell_formula_units_Z 48
_cell_length_a 26.351882
_cell_length_b 15.666404
_cell_length_c 8.998569
_cell_angle_alpha 90.000000
_cell_angle_beta 39.596957
_cell_angle_gamma 90.000000
_cell_volume 2367.854059
_symmetry_space_group_name_H-M "C 2/C"
_symmetry_group_IT_number 15
_symmetry_cell_setting 'monoclinic'
loop_
_space_group_symop_operation_xyz
x,y,z
-x,y,1/2-z
-x,-y,-z
x,-y,1/2+z
1/2+x,1/2+y,z
1/2-x,1/2+y,1/2-z
1/2-x,1/2-y,-z
1/2+x,1/2-y,1/2+z
loop_
_atom_site_type_symbol
_atom_site_label
_atom_site_fract_x
_atom_site_fract_y
_atom_site_fract_z
Si Si1 0.221825 0.115495 0.996822
Si Si2 0.138552 0.714207 0.646566
Si Si3 0.470754 0.804985 0.666825
Si Si4 0.173878 0.305420 0.716912
Si Si5 0.057944 0.496800 0.732813
Si Si6 0.727342 0.970443 0.425257
O O1 0.298854 0.166589 0.886066
O O2 0.239049 0.078007 0.794066
O O3 0.152115 0.184881 0.147997
O O4 0.213677 0.036086 0.127828
O O5 0.156955 0.702236 0.430111
O O6 0.050028 0.685481 0.889515
O O7 0.500000 0.756456 0.750000
O O8 0.400502 0.774793 0.716957
O O9 0.435974 0.894762 0.810960
O O10 0.250000 0.250000 0.500000
O O11 0.195153 0.402052 0.618349
O O12 0.147896 0.522288 0.554574
O O13 0.000000 0.543643 0.750000
O O14 0.000000 0.500000 0.000000
#
# Coordination Sequence:
#
# PCOD9261535 Si02
#       6
#     8   8   8   8   8   8
#     4  11  23  37  61  88 129 167 213 252 316 371
#     4  11  22  39  62  93 125 166 212 256 312 376
#     4  10  22  38  60  88 123 160 205 255 314 373
#     4  11  22  39  64  92 123 159 209 259 313 375
#     4  10  19  30  51  78 119 152 188 236 302 370
#     4  11  21  38  56  89 123 167 205 261 309 382
#
# _framework density 20.271519000000001
#
# number of rings (size 3 to 8) (size 9 to 14) (size 15 to 20)
#    0.000    1.333    1.667    6.500    2.333    4.000 
#    0.000    0.000    0.000    1.000    0.000    0.000 
#    0.000    0.000    0.000    0.000    0.000    0.000 
#
# Total GULP energy -133879.052461 kJ/mol
# GULP energy per Si atom -5578.293853 kJ/mol
# Density = 2.022538 g / cm^3
# Si number density = 20.271519 Si / 1000 Ang^3
#
#
#
# Elastic Constant Matrix: (Units=GPa)
#
#
# Indices 1 2 3 4 5 6 
#
# 1 108.9782 43.3091 38.4712 0.0000 17.2492 0.0000
# 2 43.3091 80.6059 23.2086 0.0000 4.7065 0.0000
# 3 38.4712 23.2086 83.5791 0.0000 17.1623 0.0000
# 4 0.0000 0.0000 0.0000 30.0386 0.0000 -0.7613
# 5 17.2492 4.7065 17.1623 0.0000 44.4913 0.0000
# 6 0.0000 0.0000 0.0000 -0.7613 0.0000 31.1126
#
#
#
# Elastic Compliance Matrix: (Units=1/GPa)
#
#
# Indices 1 2 3 4 5 6 
#
# 1 0.013374 -0.005886 -0.003893 0.000000 -0.003061 0.000000
# 2 -0.005886 0.016075 -0.002035 0.000000 0.001367 0.000000
# 3 -0.003893 -0.002035 0.015169 0.000000 -0.004127 0.000000
# 4 0.000000 0.000000 0.000000 0.033311 0.000000 0.000815
# 5 -0.003061 0.001367 -0.004127 0.000000 0.025110 0.000000
# 6 0.000000 0.000000 0.000000 0.000815 0.000000 0.032161
#
#
# Mechanical properties :
#
#
# Convention : Reuss Voigt Hill
#
# Bulk Modulus (GPa) = 47.64249 53.68234 50.66242
# Shear Modulus (GPa) = 30.15211 32.34012 31.24611
#
# Velocity S-wave (km/s) = 3.86088 3.99851 3.93030
# Velocity P-wave (km/s) = 6.59002 6.91785 6.75592
#
# Compressibility (1/GPa) = 0.02098967
#
# Stress axis : x y z
#
# Youngs Moduli (GPa) = 74.77090 62.20921 65.92313
#
# Poissons Ratio (x) = 0.36618 0.25664
# Poissons Ratio (y) = 0.44012 0.13415
# Poissons Ratio (z) = 0.29109 0.12659
#
# Static dielectric constant tensor:
#      x y z
#    x 1.782370 0.000000 0.026300 
#    y 0.000000 1.846820 0.000000 
#    z 0.026300 0.000000 1.681010 
# 
# From -- ./inp_files/48027.got.cif
#   From: 2010.05.17/outbox.cif.g08.bks.cpg/sg15_25_cif.got.tgz:48027.got - 2010.06.03 18:47:42.
