data_PCOD9261650
_publ_section_title
;
Structure prediction by ZEFSAII (Michael W. Deem and Ramdas Pophale) SiO2 
 PCOD9261650
Probable space group: C 2/C
;
_chemical_formula_sum "Si O2"
_cell_formula_units_Z 64
_cell_length_a 29.349883
_cell_length_b 15.065071
_cell_length_c 8.730946
_cell_angle_alpha 90.000000
_cell_angle_beta 72.693864
_cell_angle_gamma 90.000000
_cell_volume 3685.691234
_symmetry_space_group_name_H-M "C 2/C"
_symmetry_group_IT_number 15
_symmetry_cell_setting 'monoclinic'
loop_
_space_group_symop_operation_xyz
x,y,z
-x,y,1/2-z
-x,-y,-z
x,-y,1/2+z
1/2+x,1/2+y,z
1/2-x,1/2+y,1/2-z
1/2-x,1/2-y,-z
1/2+x,1/2-y,1/2+z
loop_
_atom_site_type_symbol
_atom_site_label
_atom_site_fract_x
_atom_site_fract_y
_atom_site_fract_z
Si Si1 0.325082 0.595866 0.858603
Si Si2 0.947161 0.594591 0.370435
Si Si3 0.279609 0.095766 0.037097
Si Si4 0.947161 0.594592 0.735243
Si Si5 0.631505 0.221165 0.184565
Si Si6 0.325082 0.595865 0.491235
Si Si7 0.779610 0.595766 0.403682
Si Si8 0.868495 0.278834 0.447575
O O1 0.359889 0.676473 0.866431
O O2 0.322667 0.590849 0.677335
O O3 0.338746 0.500000 0.911255
O O4 0.271994 0.616735 0.973794
O O5 0.949724 0.587891 0.550276
O O6 0.929936 0.499999 0.320065
O O7 0.911636 0.671891 0.354710
O O8 0.000000 0.609210 0.250000
O O9 0.274886 0.089364 0.225113
O O10 0.228006 0.116735 0.017779
O O11 0.319781 0.167833 0.960555
O O12 0.294111 0.000000 0.955887
O O13 0.911636 0.671892 0.822016
O O14 0.000000 0.609212 0.750000
O O15 0.680219 0.167832 0.100118
O O16 0.624417 0.215759 0.375583
O O17 0.359889 0.676472 0.413792
#
# Coordination Sequence:
#
# PCOD9261650 Si02
#       8
#     8   8   8   8   8   8   8   8
#     4  10  20  34  51  72 103 139 176 218 258 301
#     4  11  22  37  58  81 108 137 166 205 253 307
#     4  10  19  31  48  72 104 138 173 212 255 305
#     4  11  22  37  58  81 108 137 166 205 253 307
#     4  10  21  35  52  76 104 136 175 216 257 304
#     4  10  20  34  51  72 103 139 176 218 258 301
#     4  10  19  31  48  72 104 138 173 212 255 305
#     4  10  21  35  52  76 104 136 175 216 257 304
#
# _framework density 17.364450000000001
#
# number of rings (size 3 to 8) (size 9 to 14) (size 15 to 20)
#    0.000    1.750    0.000    7.500    0.000    6.000 
#    0.000    0.000    0.000    0.750    0.000    5.250 
#    0.000    0.000    0.000    0.000    0.000    0.000 
#
# Total GULP energy -178778.241897 kJ/mol
# GULP energy per Si atom -5586.820059 kJ/mol
# Density = 1.732493 g / cm^3
# Si number density = 17.364450 Si / 1000 Ang^3
#
#
#
# Elastic Constant Matrix: (Units=GPa)
#
#
# Indices 1 2 3 4 5 6 
#
# 1 75.6629 78.7817 45.6960 0.0000 6.4782 0.0000
# 2 78.7817 130.5591 66.4634 0.0000 -3.3989 0.0000
# 3 45.6960 66.4634 91.1659 0.0000 -2.2023 0.0000
# 4 0.0000 0.0000 0.0000 25.0100 0.0000 -0.6026
# 5 6.4782 -3.3989 -2.2023 0.0000 24.3303 0.0000
# 6 0.0000 0.0000 0.0000 -0.6026 0.0000 27.1933
#
#
#
# Elastic Compliance Matrix: (Units=1/GPa)
#
#
# Indices 1 2 3 4 5 6 
#
# 1 0.040740 -0.022876 -0.004092 0.000000 -0.014414 0.000000
# 2 -0.022876 0.025044 -0.006574 0.000000 0.008994 0.000000
# 3 -0.004092 -0.006574 0.017856 0.000000 0.001787 0.000000
# 4 0.000000 0.000000 0.000000 0.040005 0.000000 0.000887
# 5 -0.014414 0.008994 0.001787 0.000000 0.046357 0.000000
# 6 0.000000 0.000000 0.000000 0.000887 0.000000 0.036793
#
#
# Mechanical properties :
#
#
# Convention : Reuss Voigt Hill
#
# Bulk Modulus (GPa) = 60.39826 75.47445 67.93636
# Shear Modulus (GPa) = 17.89553 22.40317 20.14935
#
# Velocity S-wave (km/s) = 3.21375 3.59580 3.41013
# Velocity P-wave (km/s) = 6.97346 7.79737 7.39690
#
# Compressibility (1/GPa) = 0.01655677
#
# Stress axis : x y z
#
# Youngs Moduli (GPa) = 24.54561 39.92958 56.00320
#
# Poissons Ratio (x) = 0.91342 0.22914
# Poissons Ratio (y) = 0.56150 0.36819
# Poissons Ratio (z) = 0.10043 0.26252
#
# Static dielectric constant tensor:
#      x y z
#    x 1.566440 0.000000 0.003640 
#    y 0.000000 1.597270 0.000000 
#    z 0.003640 0.000000 1.579620 
# 
# From -- ./inp_files/66221.got.cif
#   From: 2010.05.17/outbox.cif.g08.bks.cpg/sg15_34_cif.got.tgz:66221.got - 2010.06.03 18:47:42.
