data_PCOD9261975
_publ_section_title
;
Structure prediction by ZEFSAII (Michael W. Deem and Ramdas Pophale) SiO2 
 PCOD9261975
Probable space group: C 2/C
;
_chemical_formula_sum "Si O2"
_cell_formula_units_Z 64
_cell_length_a 21.651698
_cell_length_b 33.543499
_cell_length_c 14.104954
_cell_angle_alpha 90.000000
_cell_angle_beta 164.040466
_cell_angle_gamma 90.000000
_cell_volume 2816.689410
_symmetry_space_group_name_H-M "C 2/C"
_symmetry_group_IT_number 15
_symmetry_cell_setting 'monoclinic'
loop_
_space_group_symop_operation_xyz
x,y,z
-x,y,1/2-z
-x,-y,-z
x,-y,1/2+z
1/2+x,1/2+y,z
1/2-x,1/2+y,1/2-z
1/2-x,1/2-y,-z
1/2+x,1/2-y,1/2+z
loop_
_atom_site_type_symbol
_atom_site_label
_atom_site_fract_x
_atom_site_fract_y
_atom_site_fract_z
Si Si1 0.868068 0.984429 0.455595
Si Si2 0.696673 0.361547 0.158034
Si Si3 0.174631 0.150226 0.845687
Si Si4 0.027252 0.431390 0.033658
Si Si5 0.121757 0.924033 0.561589
Si Si6 0.679316 0.582488 0.353018
Si Si7 0.362654 0.716859 0.448636
Si Si8 0.521512 0.202037 0.487400
O O1 0.611835 0.970494 0.100511
O O2 0.981962 0.950830 0.559472
O O3 0.909611 0.028367 0.478892
O O4 0.000000 0.982068 0.750000
O O5 0.745269 0.352344 0.340482
O O6 0.860555 0.395802 0.359703
O O7 0.751401 0.323091 0.177126
O O8 0.445895 0.379021 0.788729
O O9 0.089438 0.106124 0.749363
O O10 0.955515 0.178316 0.531956
O O11 0.354156 0.173762 0.176365
O O12 0.145199 0.432409 0.311140
O O13 0.774711 0.422307 0.692966
O O14 0.246142 0.911478 0.843186
O O15 0.500000 0.720341 0.750000
O O16 0.425399 0.756277 0.484189
O O17 0.107668 0.710480 0.105716
#
# Coordination Sequence:
#
# PCOD9261975 Si02
#       8
#     8   8   8   8   8   8   8   8
#     4   9  19  34  52  75 107 141 173 217 274 330
#     4  10  19  33  53  74 102 139 178 222 262 308
#     4  10  21  33  48  79 112 142 176 214 264 324
#     4  10  20  36  54  77 102 140 185 224 268 317
#     4  11  20  33  55  80 106 138 179 229 270 314
#     4   9  20  37  55  75 103 140 186 225 267 320
#     4  10  19  32  51  75 111 150 176 207 254 325
#     4  11  20  34  54  81 114 146 178 214 264 328
#
# _framework density 22.721710000000002
#
# number of rings (size 3 to 8) (size 9 to 14) (size 15 to 20)
#    0.000    2.000    0.000    6.375    0.000    2.500 
#    0.000    1.250    0.000    7.500    0.000   33.250 
#    0.000    0.000    0.000    0.000    0.000    0.000 
#
# Total GULP energy -178540.577625 kJ/mol
# GULP energy per Si atom -5579.393051 kJ/mol
# Density = 2.266999 g / cm^3
# Si number density = 22.721710 Si / 1000 Ang^3
#
#
#
# Elastic Constant Matrix: (Units=GPa)
#
#
# Indices 1 2 3 4 5 6 
#
# 1 108.0796 55.6710 35.8420 0.0006 31.6911 -0.0009
# 2 55.6710 101.6954 6.1964 0.0017 17.1929 0.0015
# 3 35.8420 6.1964 30.7778 0.0060 17.8845 0.0002
# 4 0.0006 0.0017 0.0060 25.2654 0.0013 13.4625
# 5 31.6911 17.1929 17.8845 0.0013 39.4474 -0.0007
# 6 -0.0009 0.0015 0.0002 13.4625 -0.0007 32.1798
#
#
#
# Elastic Compliance Matrix: (Units=1/GPa)
#
#
# Indices 1 2 3 4 5 6 
#
# 1 0.023650 -0.010902 -0.023171 0.000007 -0.003743 -0.000002
# 2 -0.010902 0.015654 0.011431 -0.000003 -0.003247 0.000000
# 3 -0.023171 0.011431 0.066868 -0.000018 -0.016683 0.000006
# 4 0.000007 -0.000003 -0.000018 0.050934 0.000002 -0.021308
# 5 -0.003743 -0.003247 -0.016683 0.000002 0.037336 0.000000
# 6 -0.000002 0.000000 0.000006 -0.021308 0.000000 0.039990
#
#
# Mechanical properties :
#
#
# Convention : Reuss Voigt Hill
#
# Bulk Modulus (GPa) = 16.42407 48.44128 32.43268
# Shear Modulus (GPa) = 16.66612 28.90141 22.78376
#
# Velocity S-wave (km/s) = 2.71124 3.57034 3.17003
# Velocity P-wave (km/s) = 4.12857 6.19372 5.26342
#
# Compressibility (1/GPa) = 0.06088625
#
# Stress axis : x y z
#
# Youngs Moduli (GPa) = 42.28417 63.88273 14.95493
#
# Poissons Ratio (x) = 0.69644 0.34652
# Poissons Ratio (y) = 0.46098 -0.17095
# Poissons Ratio (z) = 0.97977 -0.73023
#
# Static dielectric constant tensor:
#      x y z
#    x 1.828880 0.000000 0.040250 
#    y 0.000000 1.858800 0.000000 
#    z 0.040250 0.000000 1.958910 
# 
# From -- ./inp_files/170100.got.cif
#   From: 2010.05.17/outbox.cif.g08.bks.cpg/sg15_86_cif.got.tgz:170100.got - 2010.06.03 18:47:42.
