data_PCOD9261703
_publ_section_title
;
Structure prediction by ZEFSAII (Michael W. Deem and Ramdas Pophale) SiO2 
 PCOD9261703
Probable space group: C 2/C
;
_chemical_formula_sum "Si O2"
_cell_formula_units_Z 64
_cell_length_a 11.297515
_cell_length_b 10.211314
_cell_length_c 21.696031
_cell_angle_alpha 90.000000
_cell_angle_beta 102.826980
_cell_angle_gamma 90.000000
_cell_volume 2440.447531
_symmetry_space_group_name_H-M "C 2/C"
_symmetry_group_IT_number 15
_symmetry_cell_setting 'monoclinic'
loop_
_space_group_symop_operation_xyz
x,y,z
-x,y,1/2-z
-x,-y,-z
x,-y,1/2+z
1/2+x,1/2+y,z
1/2-x,1/2+y,1/2-z
1/2-x,1/2-y,-z
1/2+x,1/2-y,1/2+z
loop_
_atom_site_type_symbol
_atom_site_label
_atom_site_fract_x
_atom_site_fract_y
_atom_site_fract_z
Si Si1 0.518984 0.986089 0.187467
Si Si2 0.281725 0.115347 0.436122
Si Si3 0.515858 0.578888 0.656575
Si Si4 0.262734 0.869363 0.149554
Si Si5 0.777378 0.143770 0.420318
Si Si6 0.468860 0.826794 0.564427
Si Si7 0.236827 0.115088 0.837009
Si Si8 0.471082 0.609179 0.046792
O O1 0.500000 0.061265 0.250000
O O2 0.405999 0.884927 0.177564
O O3 0.651679 0.922569 0.194470
O O4 0.498708 0.076422 0.126041
O O5 0.258879 0.229015 0.383079
O O6 0.422623 0.136418 0.470121
O O7 0.171445 0.136135 0.470847
O O8 0.262874 0.976059 0.400710
O O9 0.655834 0.611106 0.687754
O O10 0.486425 0.684422 0.598126
O O11 0.405204 0.587019 0.691146
O O12 0.498915 0.440436 0.619538
O O13 0.228690 0.992465 0.101521
O O14 0.674060 0.151204 0.460022
O O15 0.741738 0.234163 0.358331
O O16 0.911171 0.197494 0.452589
O O17 0.500000 0.500000 0.000000
#
# Coordination Sequence:
#
# PCOD9261703 Si02
#       8
#     8   8   8   8   8   8   8   8
#     4  10  19  31  50  79 103 124 165 218 254 285
#     4   9  17  32  53  73  97 134 171 199 246 310
#     4   8  16  33  52  69  95 137 174 196 245 319
#     4   9  17  32  53  73  97 134 169 200 245 309
#     4   9  17  32  53  73  97 134 171 199 246 310
#     4   8  16  33  53  69  96 139 175 200 243 313
#     4   9  17  32  53  73  97 134 169 200 245 309
#     4  10  19  31  50  79 107 130 166 222 265 293
#
# _framework density 26.224696999999999
#
# number of rings (size 3 to 8) (size 9 to 14) (size 15 to 20)
#    0.000    3.000    0.000    0.750    0.000    0.000 
#    0.000   23.750    0.000    0.000    0.000    0.000 
#    0.000    0.000    0.000    0.000    0.000    0.000 
#
# Total GULP energy -178527.141788 kJ/mol
# GULP energy per Si atom -5578.973181 kJ/mol
# Density = 2.616501 g / cm^3
# Si number density = 26.224697 Si / 1000 Ang^3
#
#
#
# Elastic Constant Matrix: (Units=GPa)
#
#
# Indices 1 2 3 4 5 6 
#
# 1 323.8940 17.5147 52.7910 0.0000 -33.0362 0.0000
# 2 17.5147 66.2415 12.9832 0.0000 -5.5345 0.0000
# 3 52.7910 12.9832 54.6840 0.0000 -26.9092 0.0000
# 4 0.0000 0.0000 0.0000 -11.6368 0.0000 -0.3450
# 5 -33.0362 -5.5345 -26.9092 0.0000 56.9053 0.0000
# 6 0.0000 0.0000 0.0000 -0.3450 0.0000 47.7888
#
#
#
# Elastic Compliance Matrix: (Units=1/GPa)
#
#
# Indices 1 2 3 4 5 6 
#
# 1 0.003685 -0.000299 -0.003190 0.000000 0.000602 0.000000
# 2 -0.000299 0.015861 -0.003654 0.000000 -0.000359 0.000000
# 3 -0.003190 -0.003654 0.027562 0.000000 0.010826 0.000000
# 4 0.000000 0.000000 0.000000 -0.085916 0.000000 -0.000620
# 5 0.000602 -0.000359 0.010826 0.000000 0.023007 0.000000
# 6 0.000000 0.000000 0.000000 -0.000620 0.000000 0.020921
#
#
# Mechanical properties :
#
#
# Convention : Reuss Voigt Hill
#
# Bulk Modulus (GPa) = 30.46770 67.93304 49.20037
# Shear Modulus (GPa) = 164.76520 42.71352 103.73936
#
# Velocity S-wave (km/s) = 7.93503 4.04016 6.29633
# Velocity P-wave (km/s) = 9.77732 6.90828 8.46523
#
# Compressibility (1/GPa) = 0.03282165
#
# Stress axis : x y z
#
# Youngs Moduli (GPa) = 271.37443 63.04588 36.28243
#
# Poissons Ratio (x) = 0.01883 0.11576
# Poissons Ratio (y) = 0.08107 0.13257
# Poissons Ratio (z) = 0.86581 0.23037
#
# Static dielectric constant tensor:
#      x y z
#    x 2.224180 0.000000 0.091550 
#    y 0.000000 2.044890 0.000000 
#    z 0.091550 0.000000 2.188850 
# 
# From -- ./inp_files/268862.got.cif
#   From: 2010.05.17/outbox.cif.g08.bks.cpg/sg15_135_cif.got.tgz:268862.got - 2010.06.03 18:47:42.
