data_PCOD9261930
_publ_section_title
;
Structure prediction by ZEFSAII (Michael W. Deem and Ramdas Pophale) SiO2 
 PCOD9261930
Probable space group: C 2/C
;
_chemical_formula_sum "Si O2"
_cell_formula_units_Z 60
_cell_length_a 32.106799
_cell_length_b 17.718225
_cell_length_c 10.964685
_cell_angle_alpha 90.000000
_cell_angle_beta 31.896341
_cell_angle_gamma 90.000000
_cell_volume 3295.817349
_symmetry_space_group_name_H-M "C 2/C"
_symmetry_group_IT_number 15
_symmetry_cell_setting 'monoclinic'
loop_
_space_group_symop_operation_xyz
x,y,z
-x,y,1/2-z
-x,-y,-z
x,-y,1/2+z
1/2+x,1/2+y,z
1/2-x,1/2+y,1/2-z
1/2-x,1/2-y,-z
1/2+x,1/2-y,1/2+z
loop_
_atom_site_type_symbol
_atom_site_label
_atom_site_fract_x
_atom_site_fract_y
_atom_site_fract_z
Si Si1 0.000000 0.731912 0.750000
Si Si2 0.123183 0.264544 0.761436
Si Si3 0.690053 0.488969 0.650073
Si Si4 0.273274 0.642938 0.847576
Si Si5 0.934009 0.178374 0.820247
Si Si6 0.591538 0.489786 0.146219
Si Si7 0.307624 0.678799 0.334774
Si Si8 0.093609 0.850417 0.678159
O O1 0.952931 0.785790 0.774579
O O2 0.067930 0.694665 0.499016
O O3 0.190397 0.316801 0.539097
O O4 0.170558 0.195160 0.707153
O O5 0.070937 0.228997 0.785791
O O6 0.740640 0.562015 0.556807
O O7 0.627889 0.489095 0.918514
O O8 0.651053 0.504785 0.614760
O O9 0.728628 0.405724 0.559976
O O10 0.323400 0.636614 0.599490
O O11 0.000000 0.203876 0.750000
O O12 0.949946 0.091082 0.745151
O O13 0.849465 0.182610 0.099082
O O14 0.548259 0.569927 0.271993
O O15 0.250000 0.750000 0.500000
O O16 0.379195 0.673692 0.255320
#
# Coordination Sequence:
#
# PCOD9261930 Si02
#       8
#     4   8   8   8   8   8   8   8
#     4  10  20  32  46  72 100 132 174 208 252 298
#     4  10  19  32  50  73 101 137 174 214 255 302
#     4   9  17  33  51  77 104 133 174 217 255 312
#     4   9  17  32  54  72  97 134 175 215 256 297
#     4  11  21  32  49  77 106 143 173 203 255 321
#     4   9  18  31  48  74 108 138 170 205 250 316
#     4  10  20  34  51  76 107 133 167 213 260 309
#     4   9  18  32  48  73 104 135 164 202 256 308
#
# _framework density 18.204891
#
# number of rings (size 3 to 8) (size 9 to 14) (size 15 to 20)
#    0.000    2.400    1.333    1.600    0.933    0.000 
#    0.000    2.667    0.000    0.000    1.733    1.867 
#    0.000    0.000    0.000    0.000    0.000    0.000 
#
# Total GULP energy -167097.936441 kJ/mol
# GULP energy per Si atom -5569.931215 kJ/mol
# Density = 1.816346 g / cm^3
# Si number density = 18.204891 Si / 1000 Ang^3
#
#
#
# Elastic Constant Matrix: (Units=GPa)
#
#
# Indices 1 2 3 4 5 6 
#
# 1 82.5426 10.4038 17.7678 0.0000 11.4501 0.0000
# 2 10.4038 47.9108 15.8376 0.0000 0.4390 0.0000
# 3 17.7678 15.8376 73.4958 0.0000 12.6079 0.0000
# 4 0.0000 0.0000 0.0000 2.6986 0.0000 2.9692
# 5 11.4501 0.4390 12.6079 0.0000 24.4016 0.0000
# 6 0.0000 0.0000 0.0000 2.9692 0.0000 18.8563
#
#
#
# Elastic Compliance Matrix: (Units=1/GPa)
#
#
# Indices 1 2 3 4 5 6 
#
# 1 0.013546 -0.002275 -0.001866 0.000000 -0.005351 0.000000
# 2 -0.002275 0.022974 -0.004952 0.000000 0.003213 0.000000
# 3 -0.001866 -0.004952 0.016414 0.000000 -0.007516 0.000000
# 4 0.000000 0.000000 0.000000 0.448218 0.000000 -0.070579
# 5 -0.005351 0.003213 -0.007516 0.000000 0.047317 0.000000
# 6 0.000000 0.000000 0.000000 -0.070579 0.000000 0.064146
#
#
# Mechanical properties :
#
#
# Convention : Reuss Voigt Hill
#
# Bulk Modulus (GPa) = 28.78021 32.44085 30.61053
# Shear Modulus (GPa) = 7.78350 19.85397 13.81873
#
# Velocity S-wave (km/s) = 2.06997 3.30598 2.75811
# Velocity P-wave (km/s) = 4.64289 5.69484 5.19556
#
# Compressibility (1/GPa) = 0.03474609
#
# Stress axis : x y z
#
# Youngs Moduli (GPa) = 73.82369 43.52813 60.92435
#
# Poissons Ratio (x) = 0.09905 0.11371
# Poissons Ratio (y) = 0.16798 0.30168
# Poissons Ratio (z) = 0.13779 0.21554
#
# Static dielectric constant tensor:
#      x y z
#    x 1.637080 0.000000 0.032740 
#    y 0.000000 1.639340 0.000000 
#    z 0.032740 0.000000 1.671990 
# 
# From -- ./inp_files/127229.got.cif
#   From: 2010.05.17/outbox.cif.g08.bks.cpg/sg15_64_cif.got.tgz:127229.got - 2010.06.03 18:47:42.
