data_PCOD9261131
_publ_section_title
;
Structure prediction by ZEFSAII (Michael W. Deem and Ramdas Pophale) SiO2 
 PCOD9261131
Probable space group: C 2/C
;
_chemical_formula_sum "Si O2"
_cell_formula_units_Z 60
_cell_length_a 14.974874
_cell_length_b 15.288695
_cell_length_c 23.821225
_cell_angle_alpha 90.000000
_cell_angle_beta 33.416907
_cell_angle_gamma 90.000000
_cell_volume 3003.544738
_symmetry_space_group_name_H-M "C 2/C"
_symmetry_group_IT_number 15
_symmetry_cell_setting 'monoclinic'
loop_
_space_group_symop_operation_xyz
x,y,z
-x,y,1/2-z
-x,-y,-z
x,-y,1/2+z
1/2+x,1/2+y,z
1/2-x,1/2+y,1/2-z
1/2-x,1/2-y,-z
1/2+x,1/2-y,1/2+z
loop_
_atom_site_type_symbol
_atom_site_label
_atom_site_fract_x
_atom_site_fract_y
_atom_site_fract_z
Si Si1 0.312900 0.866139 0.633427
Si Si2 0.891689 0.632207 0.968687
Si Si3 0.282216 0.681892 0.541192
Si Si4 0.599241 0.178743 0.140327
Si Si5 0.913442 0.520606 0.185245
Si Si6 0.000000 0.779723 0.750000
Si Si7 0.862817 0.056531 0.600444
Si Si8 0.474682 0.291376 0.427959
O O1 0.366403 0.903263 0.544660
O O2 0.332520 0.931809 0.674470
O O3 0.130654 0.833888 0.717239
O O4 0.426766 0.783084 0.589557
O O5 0.738860 0.631065 0.006071
O O6 0.021786 0.573057 0.869393
O O7 0.906940 0.737328 0.969242
O O8 0.108744 0.723876 0.649925
O O9 0.315258 0.621077 0.575656
O O10 0.500000 0.185577 0.250000
O O11 0.552673 0.085503 0.135931
O O12 0.542803 0.253061 0.125533
O O13 0.792164 0.191662 0.046239
O O14 0.783095 0.502918 0.301754
O O15 0.929177 0.118074 0.615565
O O16 0.000000 0.000000 0.500000
#
# Coordination Sequence:
#
# PCOD9261131 Si02
#       8
#     8   8   8   8   8   4   8   8
#     4  10  22  43  64  98 132 177 216 270 329 397
#     4  10  21  38  64  90 129 170 214 260 323 393
#     4  10  22  39  63  97 126 179 211 264 333 396
#     4  10  23  44  69  94 127 178 220 272 331 384
#     4  11  25  40  68  97 130 175 223 274 331 388
#     4  10  18  40  66  88 142 166 220 256 326 404
#     4  12  25  42  65 100 134 163 223 283 325 387
#     4  10  22  45  65  94 132 169 222 273 321 399
#
# _framework density 19.976396999999999
#
# number of rings (size 3 to 8) (size 9 to 14) (size 15 to 20)
#    0.000    1.600    2.667    2.000    3.733    4.267 
#    4.800    1.333    0.000    0.000    0.000    0.000 
#    0.000    0.000    0.000    0.000    0.000    0.000 
#
# Total GULP energy -167356.249365 kJ/mol
# GULP energy per Si atom -5578.541646 kJ/mol
# Density = 1.993093 g / cm^3
# Si number density = 19.976397 Si / 1000 Ang^3
#
#
#
# Elastic Constant Matrix: (Units=GPa)
#
#
# Indices 1 2 3 4 5 6 
#
# 1 103.3737 41.0812 35.2384 0.0000 -3.6042 0.0002
# 2 41.0812 77.5549 53.5320 -0.0003 -1.5470 0.0001
# 3 35.2384 53.5320 101.4810 -0.0018 -2.4322 0.0007
# 4 0.0000 -0.0003 -0.0018 38.0133 0.0001 4.9282
# 5 -3.6042 -1.5470 -2.4322 0.0001 35.3588 0.0000
# 6 0.0002 0.0001 0.0007 4.9282 0.0000 24.0159
#
#
#
# Elastic Compliance Matrix: (Units=1/GPa)
#
#
# Indices 1 2 3 4 5 6 
#
# 1 0.012394 -0.005648 -0.001302 0.000000 0.000927 0.000000
# 2 -0.005648 0.022852 -0.010100 0.000000 -0.000271 0.000000
# 3 -0.001302 -0.010100 0.015646 0.000001 0.000502 -0.000001
# 4 0.000000 0.000000 0.000001 0.027026 0.000000 -0.005546
# 5 0.000927 -0.000271 0.000502 0.000000 0.028399 0.000000
# 6 0.000000 0.000000 -0.000001 -0.005546 0.000000 0.042777
#
#
# Mechanical properties :
#
#
# Convention : Reuss Voigt Hill
#
# Bulk Modulus (GPa) = 59.55178 60.23477 59.89328
# Shear Modulus (GPa) = 26.48430 29.64814 28.06622
#
# Velocity S-wave (km/s) = 3.64508 3.85666 3.75236
# Velocity P-wave (km/s) = 6.89864 7.07461 6.98718
#
# Compressibility (1/GPa) = 0.01679211
#
# Stress axis : x y z
#
# Youngs Moduli (GPa) = 80.68150 43.76019 63.91405
#
# Poissons Ratio (x) = 0.24716 0.08323
# Poissons Ratio (y) = 0.45569 0.64552
# Poissons Ratio (z) = 0.10507 0.44197
#
# Static dielectric constant tensor:
#      x y z
#    x 1.707370 0.000000 0.029690 
#    y 0.000000 1.912050 0.000000 
#    z 0.029690 0.000000 1.668680 
# 
# From -- ./inp_files/296678.got.cif
#   From: 2010.05.17/outbox.cif.g08.bks.cpg/sg15_149_cif.got.tgz:296678.got - 2010.06.03 18:47:42.
