data_PCOD9261897
_publ_section_title
;
Structure prediction by ZEFSAII (Michael W. Deem and Ramdas Pophale) SiO2 
 PCOD9261897
Probable space group: C 2/C
;
_chemical_formula_sum "Si O2"
_cell_formula_units_Z 56
_cell_length_a 9.517337
_cell_length_b 27.294381
_cell_length_c 16.939095
_cell_angle_alpha 90.000000
_cell_angle_beta 136.523966
_cell_angle_gamma 90.000000
_cell_volume 3027.607661
_symmetry_space_group_name_H-M "C 2/C"
_symmetry_group_IT_number 15
_symmetry_cell_setting 'monoclinic'
loop_
_space_group_symop_operation_xyz
x,y,z
-x,y,1/2-z
-x,-y,-z
x,-y,1/2+z
1/2+x,1/2+y,z
1/2-x,1/2+y,1/2-z
1/2-x,1/2-y,-z
1/2+x,1/2-y,1/2+z
loop_
_atom_site_type_symbol
_atom_site_label
_atom_site_fract_x
_atom_site_fract_y
_atom_site_fract_z
Si Si1 0.445251 0.039933 0.807464
Si Si2 0.747064 0.096042 0.024554
Si Si3 0.992241 0.004830 0.653905
Si Si4 0.322187 0.059359 0.073726
Si Si5 0.651037 0.136898 0.153488
Si Si6 0.403793 0.364109 0.909839
Si Si7 0.636902 0.217063 0.385992
O O1 0.500000 0.068103 0.750000
O O2 0.217526 0.019471 0.717540
O O3 0.590760 0.992473 0.864541
O O4 0.527047 0.073169 0.912199
O O5 0.722408 0.127843 0.093609
O O6 0.855179 0.126776 0.998654
O O7 0.897072 0.048472 0.094744
O O8 0.842431 0.046035 0.559170
O O9 0.000000 0.006151 0.750000
O O10 0.508386 0.090665 0.116515
O O11 0.211916 0.090175 0.096731
O O12 0.833753 0.138044 0.290414
O O13 0.515204 0.183512 0.123365
O O14 0.312295 0.317521 0.918528
O O15 0.500000 0.233707 0.250000
O O16 0.750000 0.250000 0.500000
#
# Coordination Sequence:
#
# PCOD9261897 Si02
#       7
#     8   8   8   8   8   8   8
#     4  11  21  32  46  69 108 148 186 225 260 302
#     4  11  21  33  51  77 107 143 184 223 264 304
#     4  11  21  31  46  70 106 146 185 226 262 297
#     4  10  19  32  49  70  98 144 189 220 257 303
#     4  10  19  34  57  80 104 134 178 224 262 317
#     4  10  19  34  57  79 103 136 178 220 261 318
#     4   9  20  40  64  87 108 134 173 222 279 344
#
# _framework density 18.496451
#
# number of rings (size 3 to 8) (size 9 to 14) (size 15 to 20)
#    0.000    1.714    0.000    7.714    0.000    4.571 
#    0.000    7.857    0.000    0.000    0.000    0.000 
#    0.000    0.000    0.000    0.000    0.000    0.000 
#
# Total GULP energy -155943.281472 kJ/mol
# GULP energy per Si atom -5569.402910 kJ/mol
# Density = 1.845435 g / cm^3
# Si number density = 18.496451 Si / 1000 Ang^3
#
#
#
# Elastic Constant Matrix: (Units=GPa)
#
#
# Indices 1 2 3 4 5 6 
#
# 1 78.0525 10.4046 5.8536 0.0000 2.6962 0.0000
# 2 10.4046 53.6245 37.5713 0.0000 -4.4002 0.0000
# 3 5.8536 37.5713 87.8066 0.0000 5.5416 0.0000
# 4 0.0000 0.0000 0.0000 32.1295 0.0000 0.0881
# 5 2.6962 -4.4002 5.5416 0.0000 20.1984 0.0000
# 6 0.0000 0.0000 0.0000 0.0881 0.0000 13.2820
#
#
#
# Elastic Compliance Matrix: (Units=1/GPa)
#
#
# Indices 1 2 3 4 5 6 
#
# 1 0.013290 -0.003279 0.000686 0.000000 -0.002676 0.000000
# 2 -0.003279 0.029187 -0.012923 0.000000 0.010342 0.000000
# 3 0.000686 -0.012923 0.017356 0.000000 -0.007669 0.000000
# 4 0.000000 0.000000 0.000000 0.031125 0.000000 -0.000206
# 5 -0.002676 0.010342 -0.007669 0.000000 0.054223 0.000000
# 6 0.000000 0.000000 0.000000 -0.000206 0.000000 0.075291
#
#
# Mechanical properties :
#
#
# Convention : Reuss Voigt Hill
#
# Bulk Modulus (GPa) = 34.71979 36.34919 35.53449
# Shear Modulus (GPa) = 19.14937 24.16558 21.65748
#
# Velocity S-wave (km/s) = 3.22110 3.61847 3.42555
# Velocity P-wave (km/s) = 5.71365 6.09528 5.90755
#
# Compressibility (1/GPa) = 0.02880202
#
# Stress axis : x y z
#
# Youngs Moduli (GPa) = 75.24468 34.26151 57.61540
#
# Poissons Ratio (x) = 0.11234 -0.03952
# Poissons Ratio (y) = 0.24671 0.74456
# Poissons Ratio (z) = -0.05161 0.44276
#
# Static dielectric constant tensor:
#      x y z
#    x 1.659000 0.000000 0.009090 
#    y 0.000000 1.658530 0.000000 
#    z 0.009090 0.000000 1.710320 
# 
# From -- ./inp_files/81433.got.cif
#   From: 2010.05.17/outbox.cif.g08.bks.cpg/sg15_41_cif.got.tgz:81433.got - 2010.06.03 18:47:42.
