data_PCOD9261610
_publ_section_title
;
Structure prediction by ZEFSAII (Michael W. Deem and Ramdas Pophale) SiO2 
 PCOD9261610
Probable space group: C 2/C
;
_chemical_formula_sum "Si O2"
_cell_formula_units_Z 48
_cell_length_a 29.941517
_cell_length_b 7.571071
_cell_length_c 8.910418
_cell_angle_alpha 90.000000
_cell_angle_beta 90.640769
_cell_angle_gamma 90.000000
_cell_volume 2019.770560
_symmetry_space_group_name_H-M "C 2/C"
_symmetry_group_IT_number 15
_symmetry_cell_setting 'monoclinic'
loop_
_space_group_symop_operation_xyz
x,y,z
-x,y,1/2-z
-x,-y,-z
x,-y,1/2+z
1/2+x,1/2+y,z
1/2-x,1/2+y,1/2-z
1/2-x,1/2-y,-z
1/2+x,1/2-y,1/2+z
loop_
_atom_site_type_symbol
_atom_site_label
_atom_site_fract_x
_atom_site_fract_y
_atom_site_fract_z
Si Si1 0.091241 0.761595 0.523265
Si Si2 0.747161 0.755387 0.752375
Si Si3 0.004038 0.804510 0.929891
Si Si4 0.814348 0.321886 0.495454
Si Si5 0.097910 0.144460 0.377284
Si Si6 0.190430 0.900625 0.001216
O O1 0.039455 0.698236 0.514888
O O2 0.133294 0.632607 0.492436
O O3 0.098543 0.824235 0.697812
O O4 0.092515 0.934467 0.414859
O O5 0.719699 0.870277 0.873511
O O6 0.773890 0.851314 0.622665
O O7 0.708270 0.652789 0.663620
O O8 0.785471 0.649237 0.845092
O O9 0.000000 0.819563 0.750000
O O10 0.055895 0.755581 0.951283
O O11 0.000000 0.000000 0.000000
O O12 0.816677 0.108716 0.500169
O O13 0.144607 0.193348 0.454270
#
# Coordination Sequence:
#
# PCOD9261610 Si02
#       6
#     8   8   8   8   8   8
#     4   9  16  25  40  58  82 115 146 173 206 251
#     4  10  20  30  44  64  82 116 152 184 212 252
#     4   8  14  24  36  56  80 108 145 172 196 246
#     4  10  19  31  45  62  88 117 149 179 216 254
#     4   9  16  25  40  58  82 115 146 173 206 251
#     4  10  19  31  45  62  88 117 149 179 216 254
#
# _framework density 23.765077000000002
#
# number of rings (size 3 to 8) (size 9 to 14) (size 15 to 20)
#    0.000    2.667    1.667    1.000    7.000    0.000 
#    0.000    0.000    0.000    0.000    0.000    0.000 
#    0.000    0.000    0.000  105.000    0.000   11.667 
#
# Total GULP energy -133866.650670 kJ/mol
# GULP energy per Si atom -5577.777111 kJ/mol
# Density = 2.371099 g / cm^3
# Si number density = 23.765077 Si / 1000 Ang^3
#
#
#
# Elastic Constant Matrix: (Units=GPa)
#
#
# Indices 1 2 3 4 5 6 
#
# 1 203.8296 15.7957 14.5136 0.0000 -1.3648 0.0000
# 2 15.7957 30.8032 7.8658 0.0000 3.9269 0.0000
# 3 14.5136 7.8658 67.9556 0.0000 3.9848 0.0000
# 4 0.0000 0.0000 0.0000 19.8095 0.0000 -2.0450
# 5 -1.3648 3.9269 3.9848 0.0000 32.1835 0.0000
# 6 0.0000 0.0000 0.0000 -2.0450 0.0000 19.4553
#
#
#
# Elastic Compliance Matrix: (Units=1/GPa)
#
#
# Indices 1 2 3 4 5 6 
#
# 1 0.005165 -0.002512 -0.000849 0.000000 0.000631 0.000000
# 2 -0.002512 0.035101 -0.003293 0.000000 -0.003982 0.000000
# 3 -0.000849 -0.003293 0.015368 0.000000 -0.001537 0.000000
# 4 0.000000 0.000000 0.000000 0.051035 0.000000 0.005364
# 5 0.000631 -0.003982 -0.001537 0.000000 0.031775 0.000000
# 6 0.000000 0.000000 0.000000 0.005364 0.000000 0.051964
#
#
# Mechanical properties :
#
#
# Convention : Reuss Voigt Hill
#
# Bulk Modulus (GPa) = 23.62649 42.10428 32.86539
# Shear Modulus (GPa) = 22.95418 31.91722 27.43570
#
# Velocity S-wave (km/s) = 3.11123 3.66871 3.40141
# Velocity P-wave (km/s) = 4.78222 5.97505 5.41160
#
# Compressibility (1/GPa) = 0.04232537
#
# Stress axis : x y z
#
# Youngs Moduli (GPa) = 193.59378 28.48927 65.06953
#
# Poissons Ratio (x) = 0.07157 0.05527
# Poissons Ratio (y) = 0.48637 0.21427
# Poissons Ratio (z) = 0.16444 0.09381
#
# Static dielectric constant tensor:
#      x y z
#    x 2.030800 0.000000 -0.005850 
#    y 0.000000 1.961200 0.000000 
#    z -0.005850 0.000000 1.852540 
# 
# From -- ./inp_files/61052.got.cif
#   From: 2010.05.17/outbox.cif.g08.bks.cpg/sg15_31_cif.got.tgz:61052.got - 2010.06.03 18:47:42.
