data_PCOD9261761
_publ_section_title
;
Structure prediction by ZEFSAII (Michael W. Deem and Ramdas Pophale) SiO2 
 PCOD9261761
Probable space group: C 2/C
;
_chemical_formula_sum "Si O2"
_cell_formula_units_Z 64
_cell_length_a 7.082334
_cell_length_b 20.126595
_cell_length_c 20.555661
_cell_angle_alpha 90.000000
_cell_angle_beta 53.298917
_cell_angle_gamma 90.000000
_cell_volume 2349.226542
_symmetry_space_group_name_H-M "C 2/C"
_symmetry_group_IT_number 15
_symmetry_cell_setting 'monoclinic'
loop_
_space_group_symop_operation_xyz
x,y,z
-x,y,1/2-z
-x,-y,-z
x,-y,1/2+z
1/2+x,1/2+y,z
1/2-x,1/2+y,1/2-z
1/2-x,1/2-y,-z
1/2+x,1/2-y,1/2+z
loop_
_atom_site_type_symbol
_atom_site_label
_atom_site_fract_x
_atom_site_fract_y
_atom_site_fract_z
Si Si1 0.368537 0.949949 0.681004
Si Si2 0.942464 0.579590 0.606499
Si Si3 0.871310 0.049534 0.143636
Si Si4 0.778601 0.297467 0.679363
Si Si5 0.453532 0.578816 0.573305
Si Si6 0.959633 0.173503 0.050569
Si Si7 0.742730 0.342277 0.267979
Si Si8 0.535855 0.192157 0.503874
O O1 0.158343 0.964116 0.774776
O O2 0.613656 0.963045 0.667235
O O3 0.373642 0.871190 0.671377
O O4 0.361999 0.002918 0.624417
O O5 0.786309 0.623697 0.689444
O O6 0.202844 0.578195 0.586185
O O7 0.939391 0.618351 0.538599
O O8 0.922685 0.126818 0.120373
O O9 0.028733 0.996875 0.071932
O O10 0.500000 0.303283 0.750000
O O11 0.845567 0.233778 0.709578
O O12 0.863647 0.287233 0.587273
O O13 0.606633 0.626479 0.495875
O O14 0.406466 0.612195 0.652531
O O15 0.237936 0.187669 0.995052
O O16 0.865490 0.247918 0.062082
O O17 0.000000 0.340042 0.250000
#
# Coordination Sequence:
#
# PCOD9261761 Si02
#       8
#     8   8   8   8   8   8   8   8
#     4  10  21  35  53  75 104 143 178 211 262 314
#     4   9  18  32  52  75 104 142 174 209 263 319
#     4  10  19  33  53  79 105 134 173 223 267 310
#     4  11  22  35  55  81 107 139 175 219 259 312
#     4   9  15  30  52  78 105 127 169 224 272 304
#     4  10  19  31  52  84 109 129 172 227 266 306
#     4   9  16  29  52  77 102 132 169 221 269 303
#     4  10  21  33  52  81 111 141 173 211 267 315
#
# _framework density 27.243006999999999
#
# number of rings (size 3 to 8) (size 9 to 14) (size 15 to 20)
#    0.000    2.250    2.500    1.125    7.000    0.500 
#    0.000    0.625    0.000    1.500    0.000    0.000 
#    0.000    0.000    0.000    0.000    0.000    0.000 
#
# Total GULP energy -178848.787271 kJ/mol
# GULP energy per Si atom -5589.024602 kJ/mol
# Density = 2.718100 g / cm^3
# Si number density = 27.243007 Si / 1000 Ang^3
#
#
#
# Elastic Constant Matrix: (Units=GPa)
#
#
# Indices 1 2 3 4 5 6 
#
# 1 84.7995 3.5914 18.7333 0.0000 6.8756 0.0000
# 2 3.5914 188.1850 46.4591 0.0000 -0.0285 0.0000
# 3 18.7333 46.4591 97.7119 0.0000 -0.8884 0.0000
# 4 0.0000 0.0000 0.0000 48.3488 0.0000 -8.1445
# 5 6.8756 -0.0285 -0.8884 0.0000 30.1942 0.0000
# 6 0.0000 0.0000 0.0000 -8.1445 0.0000 9.1501
#
#
#
# Elastic Compliance Matrix: (Units=1/GPa)
#
#
# Indices 1 2 3 4 5 6 
#
# 1 0.012596 0.000410 -0.002637 0.000000 -0.002946 0.000000
# 2 0.000410 0.006034 -0.002949 0.000000 -0.000174 0.000000
# 3 -0.002637 -0.002949 0.012151 0.000000 0.000955 0.000000
# 4 0.000000 0.000000 0.000000 0.024331 0.000000 0.021657
# 5 -0.002946 -0.000174 0.000955 0.000000 0.033818 0.000000
# 6 0.000000 0.000000 0.000000 0.021657 0.000000 0.128566
#
#
# Mechanical properties :
#
#
# Convention : Reuss Voigt Hill
#
# Bulk Modulus (GPa) = 48.94894 56.47380 52.71137
# Shear Modulus (GPa) = 21.30760 37.66612 29.48686
#
# Velocity S-wave (km/s) = 2.79969 3.72236 3.29350
# Velocity P-wave (km/s) = 5.33456 6.26493 5.81837
#
# Compressibility (1/GPa) = 0.02042945
#
# Stress axis : x y z
#
# Youngs Moduli (GPa) = 79.38720 165.72239 82.29989
#
# Poissons Ratio (x) = -0.06797 0.21701
# Poissons Ratio (y) = -0.03256 0.24273
# Poissons Ratio (z) = 0.20933 0.48876
#
# Static dielectric constant tensor:
#      x y z
#    x 2.199190 0.000000 -0.027960 
#    y 0.000000 2.266500 0.000000 
#    z -0.027960 0.000000 2.106050 
# 
# From -- ./inp_files/239797.got.cif
#   From: 2010.05.17/outbox.cif.g08.bks.cpg/sg15_120_cif.got.tgz:239797.got - 2010.06.03 18:47:42.
