data_PCOD9261379
_publ_section_title
;
Structure prediction by ZEFSAII (Michael W. Deem and Ramdas Pophale) SiO2 
 PCOD9261379
Probable space group: C 2/C
;
_chemical_formula_sum "Si O2"
_cell_formula_units_Z 52
_cell_length_a 20.903569
_cell_length_b 17.651812
_cell_length_c 16.474162
_cell_angle_alpha 90.000000
_cell_angle_beta 161.561109
_cell_angle_gamma 90.000000
_cell_volume 1922.660930
_symmetry_space_group_name_H-M "C 2/C"
_symmetry_group_IT_number 15
_symmetry_cell_setting 'monoclinic'
loop_
_space_group_symop_operation_xyz
x,y,z
-x,y,1/2-z
-x,-y,-z
x,-y,1/2+z
1/2+x,1/2+y,z
1/2-x,1/2+y,1/2-z
1/2-x,1/2-y,-z
1/2+x,1/2-y,1/2+z
loop_
_atom_site_type_symbol
_atom_site_label
_atom_site_fract_x
_atom_site_fract_y
_atom_site_fract_z
Si Si1 0.986285 0.628059 0.583473
Si Si2 0.880109 0.213661 0.265507
Si Si3 0.716209 0.350801 0.607604
Si Si4 0.000000 0.134815 0.250000
Si Si5 0.091347 0.995841 0.971183
Si Si6 0.308122 0.977059 0.408251
Si Si7 0.684778 0.315585 0.273662
O O1 0.145287 0.696507 0.769309
O O2 0.804191 0.670046 0.414598
O O3 0.902141 0.628214 0.390025
O O4 0.975862 0.543082 0.607547
O O5 0.900328 0.182529 0.200607
O O6 0.084860 0.198176 0.564721
O O7 0.667121 0.431649 0.510639
O O8 0.511409 0.340655 0.413000
O O9 0.748384 0.266571 0.612068
O O10 0.126702 0.074892 0.456786
O O11 0.860440 0.001048 0.726606
O O12 0.208807 0.985283 0.198473
O O13 0.340202 0.886291 0.459906
#
# Coordination Sequence:
#
# PCOD9261379 Si02
#       7
#     8   8   8   4   8   8   8
#     4   9  17  31  48  69  98 127 162 192 233 282
#     4  10  19  29  46  72 100 128 156 193 238 285
#     4   8  16  27  50  71  95 122 158 203 236 274
#     4  12  18  28  48  74 102 122 160 200 234 276
#     4   9  16  27  46  71  92 125 163 199 223 279
#     4   9  14  30  50  65  91 128 169 189 227 283
#     4   9  15  29  50  72  94 121 162 198 236 276
#
# _framework density 27.045850000000002
#
# number of rings (size 3 to 8) (size 9 to 14) (size 15 to 20)
#    0.000    2.769    3.077    1.846    0.000    0.615 
#    0.000    0.000    3.385    8.308    0.000    0.000 
#    0.000    0.000    0.000    0.000    0.000    0.000 
#
# Total GULP energy -145215.356011 kJ/mol
# GULP energy per Si atom -5585.206000 kJ/mol
# Density = 2.698429 g / cm^3
# Si number density = 27.045850 Si / 1000 Ang^3
#
#
#
# Elastic Constant Matrix: (Units=GPa)
#
#
# Indices 1 2 3 4 5 6 
#
# 1 72.5034 17.5955 7.1087 0.0000 6.3853 0.0001
# 2 17.5955 267.7156 14.6110 0.0001 9.3206 0.0004
# 3 7.1087 14.6110 29.9699 -0.0001 -2.9904 0.0007
# 4 0.0000 0.0001 -0.0001 22.3020 -0.0001 10.4056
# 5 6.3853 9.3206 -2.9904 -0.0001 25.6208 0.0004
# 6 0.0001 0.0004 0.0007 10.4056 0.0004 23.3092
#
#
#
# Elastic Compliance Matrix: (Units=1/GPa)
#
#
# Indices 1 2 3 4 5 6 
#
# 1 0.014631 -0.000635 -0.003543 0.000000 -0.003829 0.000000
# 2 -0.000635 0.003934 -0.001916 0.000000 -0.001496 0.000000
# 3 -0.003543 -0.001916 0.035715 0.000001 0.005749 -0.000002
# 4 0.000000 0.000000 0.000001 0.056636 0.000001 -0.025283
# 5 -0.003829 -0.001496 0.005749 0.000001 0.041200 -0.000001
# 6 0.000000 0.000000 -0.000002 -0.025283 -0.000001 0.054188
#
#
# Mechanical properties :
#
#
# Convention : Reuss Voigt Hill
#
# Bulk Modulus (GPa) = 23.75791 49.86881 36.81336
# Shear Modulus (GPa) = 21.50320 36.30464 28.90392
#
# Velocity S-wave (km/s) = 2.82275 3.66777 3.27265
# Velocity P-wave (km/s) = 4.40764 6.03451 5.28406
#
# Compressibility (1/GPa) = 0.04209124
#
# Stress axis : x y z
#
# Youngs Moduli (GPa) = 68.34740 254.21124 27.99934
#
# Poissons Ratio (x) = 0.16141 0.09920
# Poissons Ratio (y) = 0.04340 0.05366
# Poissons Ratio (z) = 0.24215 0.48719
#
# Static dielectric constant tensor:
#      x y z
#    x 2.039030 0.000000 0.092970 
#    y 0.000000 2.185250 0.000000 
#    z 0.092970 0.000000 2.383730 
# 
# From -- ./inp_files/104938.got.cif
#   From: 2010.05.17/outbox.cif.g08.bks.cpg/sg15_53_cif.got.tgz:104938.got - 2010.06.03 18:47:42.
