data_PCOD9261785
_publ_section_title
;
Structure prediction by ZEFSAII (Michael W. Deem and Ramdas Pophale) SiO2 
 PCOD9261785
Probable space group: C 2/C
;
_chemical_formula_sum "Si O2"
_cell_formula_units_Z 36
_cell_length_a 11.043952
_cell_length_b 33.554241
_cell_length_c 5.261037
_cell_angle_alpha 90.000000
_cell_angle_beta 112.704754
_cell_angle_gamma 90.000000
_cell_volume 1798.508592
_symmetry_space_group_name_H-M "C 2/C"
_symmetry_group_IT_number 15
_symmetry_cell_setting 'monoclinic'
loop_
_space_group_symop_operation_xyz
x,y,z
-x,y,1/2-z
-x,-y,-z
x,-y,1/2+z
1/2+x,1/2+y,z
1/2-x,1/2+y,1/2-z
1/2-x,1/2-y,-z
1/2+x,1/2-y,1/2+z
loop_
_atom_site_type_symbol
_atom_site_label
_atom_site_fract_x
_atom_site_fract_y
_atom_site_fract_z
Si Si1 0.851366 0.889929 0.732228
Si Si2 0.500000 0.708768 0.750000
Si Si3 0.715324 0.344916 0.294533
Si Si4 0.638484 0.232289 0.720321
Si Si5 0.150624 0.017131 0.137936
O O1 0.767484 0.876225 0.419447
O O2 0.844542 0.936357 0.799969
O O3 0.000000 0.885194 0.750000
O O4 0.809888 0.864906 0.950232
O O5 0.417695 0.680462 0.867662
O O6 0.393674 0.735703 0.523303
O O7 0.823761 0.310518 0.364652
O O8 0.500000 0.228269 0.750000
O O9 0.750000 0.250000 0.000000
O O10 0.212700 0.993102 0.419506
O O11 0.000000 0.000000 0.000000
#
# Coordination Sequence:
#
# PCOD9261785 Si02
#       5
#     8   4   8   8   8
#     4  12  22  37  57  89 133 173 206 261 331 398
#     4  12  24  42  66  88 128 172 232 278 334 388
#     4  12  26  39  61  93 126 173 221 271 328 394
#     4  12  27  46  67  93 128 174 238 289 336 392
#     4  10  19  31  53  82 123 173 200 245 316 402
#
# _framework density 20.016587999999999
#
# number of rings (size 3 to 8) (size 9 to 14) (size 15 to 20)
#    0.000    0.444    6.667    3.333    6.222    0.000 
#    0.000    0.000    0.000    0.000    0.000    0.000 
#    0.000   17.778    0.000    0.000    0.000    0.000 
#
# Total GULP energy -100448.354594 kJ/mol
# GULP energy per Si atom -5580.464144 kJ/mol
# Density = 1.997103 g / cm^3
# Si number density = 20.016588 Si / 1000 Ang^3
#
#
#
# Elastic Constant Matrix: (Units=GPa)
#
#
# Indices 1 2 3 4 5 6 
#
# 1 72.3105 46.3291 34.1122 0.0000 -9.7010 0.0000
# 2 46.3291 153.5072 64.0197 0.0000 -18.9174 0.0000
# 3 34.1122 64.0197 145.9377 0.0000 -30.3985 0.0000
# 4 0.0000 0.0000 0.0000 41.1435 0.0000 -5.3476
# 5 -9.7010 -18.9174 -30.3985 0.0000 31.7943 0.0000
# 6 0.0000 0.0000 0.0000 -5.3476 0.0000 22.6625
#
#
#
# Elastic Compliance Matrix: (Units=1/GPa)
#
#
# Indices 1 2 3 4 5 6 
#
# 1 0.017719 -0.004394 -0.002039 0.000000 0.000843 0.000000
# 2 -0.004394 0.009141 -0.002659 0.000000 0.001556 0.000000
# 3 -0.002039 -0.002659 0.010034 0.000000 0.007390 0.000000
# 4 0.000000 0.000000 0.000000 0.025074 0.000000 0.005917
# 5 0.000843 0.001556 0.007390 0.000000 0.039701 0.000000
# 6 0.000000 0.000000 0.000000 0.005917 0.000000 0.045522
#
#
# Mechanical properties :
#
#
# Convention : Reuss Voigt Hill
#
# Bulk Modulus (GPa) = 53.44115 73.40858 63.42486
# Shear Modulus (GPa) = 29.13567 34.27302 31.70434
#
# Velocity S-wave (km/s) = 3.81934 4.14240 3.98415
# Velocity P-wave (km/s) = 6.79751 7.72223 7.27458
#
# Compressibility (1/GPa) = 0.01871217
#
# Stress axis : x y z
#
# Youngs Moduli (GPa) = 56.43641 109.39753 99.65657
#
# Poissons Ratio (x) = 0.48064 0.20318
# Poissons Ratio (y) = 0.24795 0.26497
# Poissons Ratio (z) = 0.11506 0.29087
#
# Static dielectric constant tensor:
#      x y z
#    x 1.730950 0.000000 -0.050480 
#    y 0.000000 1.719440 0.000000 
#    z -0.050480 0.000000 1.855850 
# 
# From -- ./inp_files/5132.got.cif
#   From: 2010.05.17/outbox.cif.g08.bks.cpg/sg15_3_cif.got.tgz:5132.got - 2010.06.03 18:47:42.
