data_PCOD9261915
_publ_section_title
;
Structure prediction by ZEFSAII (Michael W. Deem and Ramdas Pophale) SiO2 
 PCOD9261915
Probable space group: C 2/C
;
_chemical_formula_sum "Si O2"
_cell_formula_units_Z 40
_cell_length_a 19.132570
_cell_length_b 17.151261
_cell_length_c 14.594140
_cell_angle_alpha 90.000000
_cell_angle_beta 21.564779
_cell_angle_gamma 90.000000
_cell_volume 1760.223288
_symmetry_space_group_name_H-M "C 2/C"
_symmetry_group_IT_number 15
_symmetry_cell_setting 'monoclinic'
loop_
_space_group_symop_operation_xyz
x,y,z
-x,y,1/2-z
-x,-y,-z
x,-y,1/2+z
1/2+x,1/2+y,z
1/2-x,1/2+y,1/2-z
1/2-x,1/2-y,-z
1/2+x,1/2-y,1/2+z
loop_
_atom_site_type_symbol
_atom_site_label
_atom_site_fract_x
_atom_site_fract_y
_atom_site_fract_z
Si Si1 0.269354 0.154433 0.876617
Si Si2 0.000000 0.279759 0.250000
Si Si3 0.352248 0.107497 0.157988
Si Si4 0.448874 0.426638 0.126776
Si Si5 0.452443 0.045091 0.413861
Si Si6 0.500000 0.485455 0.750000
O O1 0.343757 0.169624 0.889379
O O2 0.463858 0.160201 0.583969
O O3 0.160065 0.072593 0.012303
O O4 0.115906 0.221045 0.043038
O O5 0.380290 0.081641 0.228975
O O6 0.134573 0.128625 0.401629
O O7 0.398997 0.034389 0.033005
O O8 0.239175 0.401631 0.351201
O O9 0.431664 0.462637 0.249144
O O10 0.500000 0.500000 0.000000
O O11 0.500000 0.030618 0.250000
#
# Coordination Sequence:
#
# PCOD9261915 Si02
#       6
#     8   4   8   8   8   4
#     4  10  20  36  52  73 102 140 171 230 259 313
#     4   9  22  36  52  76  96 132 194 213 274 308
#     4  10  20  32  50  76 108 141 180 206 266 309
#     4  10  20  30  45  79 104 142 175 200 239 333
#     4  10  19  32  49  77 112 145 171 207 248 332
#     4  11  20  32  52  74 114 140 172 201 262 314
#
# _framework density 22.724391000000001
#
# number of rings (size 3 to 8) (size 9 to 14) (size 15 to 20)
#    0.000    2.000    0.000    6.000    7.000    0.000 
#    3.600    0.000    0.000    0.000    0.000    1.400 
#    0.000    0.000    0.000    0.000    0.000    0.000 
#
# Total GULP energy -111557.265325 kJ/mol
# GULP energy per Si atom -5577.863266 kJ/mol
# Density = 2.267267 g / cm^3
# Si number density = 22.724391 Si / 1000 Ang^3
#
#
#
# Elastic Constant Matrix: (Units=GPa)
#
#
# Indices 1 2 3 4 5 6 
#
# 1 100.1570 1.9880 44.0925 0.0091 -0.6822 -0.0086
# 2 1.9880 16.9055 16.0367 0.0146 -6.9850 -0.0153
# 3 44.0925 16.0367 122.0921 0.0059 -22.4894 -0.0064
# 4 0.0091 0.0146 0.0059 18.6310 -0.0060 0.4901
# 5 -0.6822 -6.9850 -22.4894 -0.0060 59.0806 0.0050
# 6 -0.0086 -0.0153 -0.0064 0.4901 0.0050 6.3401
#
#
#
# Elastic Compliance Matrix: (Units=1/GPa)
#
#
# Indices 1 2 3 4 5 6 
#
# 1 0.012122 0.002723 -0.005001 -0.000007 -0.001442 0.000020
# 2 0.002723 0.069562 -0.009248 -0.000056 0.004735 0.000163
# 3 -0.005001 -0.009248 0.011829 0.000008 0.003352 -0.000020
# 4 -0.000007 -0.000056 0.000008 0.053783 0.000002 -0.004158
# 5 -0.001442 0.004735 0.003352 0.000002 0.018745 -0.000002
# 6 0.000020 0.000163 -0.000020 -0.004158 -0.000002 0.158047
#
#
# Mechanical properties :
#
#
# Convention : Reuss Voigt Hill
#
# Bulk Modulus (GPa) = 14.19240 40.37656 27.28448
# Shear Modulus (GPa) = 13.49066 28.61283 21.05175
#
# Velocity S-wave (km/s) = 2.43917 3.55226 3.04697
# Velocity P-wave (km/s) = 3.76719 5.88484 4.94080
#
# Compressibility (1/GPa) = 0.07046026
#
# Stress axis : x y z
#
# Youngs Moduli (GPa) = 82.49409 14.37571 84.54030
#
# Poissons Ratio (x) = -0.03914 0.42279
# Poissons Ratio (y) = -0.22462 0.78183
# Poissons Ratio (z) = 0.41255 0.13295
#
# Static dielectric constant tensor:
#      x y z
#    x 1.868710 0.000000 -0.003830 
#    y 0.000000 1.858900 0.000000 
#    z -0.003830 0.000000 1.970500 
# 
# From -- ./inp_files/155937.got.cif
#   From: 2010.05.17/outbox.cif.g08.bks.cpg/sg15_78_cif.got.tgz:155937.got - 2010.06.03 18:47:42.
