data_PCOD9261502
_publ_section_title
;
Structure prediction by ZEFSAII (Michael W. Deem and Ramdas Pophale) SiO2 
 PCOD9261502
Probable space group: C 2/C
;
_chemical_formula_sum "Si O2"
_cell_formula_units_Z 52
_cell_length_a 17.814850
_cell_length_b 17.852111
_cell_length_c 15.345811
_cell_angle_alpha 90.000000
_cell_angle_beta 33.159735
_cell_angle_gamma 90.000000
_cell_volume 2669.494974
_symmetry_space_group_name_H-M "C 2/C"
_symmetry_group_IT_number 15
_symmetry_cell_setting 'monoclinic'
loop_
_space_group_symop_operation_xyz
x,y,z
-x,y,1/2-z
-x,-y,-z
x,-y,1/2+z
1/2+x,1/2+y,z
1/2-x,1/2+y,1/2-z
1/2-x,1/2-y,-z
1/2+x,1/2-y,1/2+z
loop_
_atom_site_type_symbol
_atom_site_label
_atom_site_fract_x
_atom_site_fract_y
_atom_site_fract_z
Si Si1 0.000000 0.552861 0.250000
Si Si2 0.913950 0.539095 0.662274
Si Si3 0.152927 0.379243 0.984017
Si Si4 0.111120 0.932305 0.382526
Si Si5 0.940885 0.841423 0.666236
Si Si6 0.739051 0.546141 0.575870
Si Si7 0.500000 0.216835 0.750000
Si Si8 0.500000 0.469430 0.750000
O O1 0.931095 0.505084 0.237471
O O2 0.869436 0.593429 0.418959
O O3 0.755428 0.549999 0.791332
O O4 0.000000 0.500000 0.500000
O O5 0.001849 0.615218 0.589795
O O6 0.277441 0.344233 0.809201
O O7 0.196456 0.465106 0.959217
O O8 0.129032 0.334861 0.097306
O O9 0.156469 0.924404 0.238459
O O10 0.037323 0.858300 0.491278
O O11 0.000000 0.000000 0.500000
O O12 0.974477 0.770397 0.692612
O O13 0.972773 0.913771 0.696740
O O14 0.629536 0.522698 0.609930
#
# Coordination Sequence:
#
# PCOD9261502 Si02
#       8
#     4   8   8   8   8   8   4   4
#     4  10  19  30  49  74 106 139 185 230 290 352
#     4  11  20  35  54  82 115 154 198 247 303 356
#     4  10  19  35  53  75 111 156 199 241 286 350
#     4  12  20  36  53  75 112 158 203 252 297 352
#     4  10  21  34  52  76 113 156 200 244 287 354
#     4  10  19  32  51  79 107 154 194 245 296 348
#     4  11  23  36  56  86 122 164 208 234 296 377
#     4   9  16  30  47  72 102 145 197 230 290 335
#
# _framework density 19.479340000000001
#
# number of rings (size 3 to 8) (size 9 to 14) (size 15 to 20)
#    0.000    1.538    6.154    3.231    0.000    4.923 
#    0.000    0.000    0.000    0.000    0.000    0.000 
#    0.000    2.462    0.000    0.615    0.000    0.308 
#
# Total GULP energy -144747.429910 kJ/mol
# GULP energy per Si atom -5567.208843 kJ/mol
# Density = 1.943500 g / cm^3
# Si number density = 19.479340 Si / 1000 Ang^3
#
#
#
# Elastic Constant Matrix: (Units=GPa)
#
#
# Indices 1 2 3 4 5 6 
#
# 1 70.0892 11.5809 33.3315 0.0001 -11.6424 -0.0002
# 2 11.5809 41.8343 30.6331 0.0003 7.7306 -0.0004
# 3 33.3315 30.6331 172.6779 -0.0002 -1.1978 -0.0002
# 4 0.0001 0.0003 -0.0002 24.2198 0.0000 14.2652
# 5 -11.6424 7.7306 -1.1978 0.0000 44.2011 0.0002
# 6 -0.0002 -0.0004 -0.0002 14.2652 0.0002 17.9080
#
#
#
# Elastic Compliance Matrix: (Units=1/GPa)
#
#
# Indices 1 2 3 4 5 6 
#
# 1 0.016948 -0.003741 -0.002573 0.000000 0.005048 0.000000
# 2 -0.003741 0.029420 -0.004540 -0.000001 -0.006254 0.000002
# 3 -0.002573 -0.004540 0.007095 0.000000 0.000309 0.000000
# 4 0.000000 -0.000001 0.000000 0.077783 0.000001 -0.061960
# 5 0.005048 -0.006254 0.000309 0.000001 0.025056 -0.000001
# 6 0.000000 0.000002 0.000000 -0.061960 -0.000001 0.105197
#
#
# Mechanical properties :
#
#
# Convention : Reuss Voigt Hill
#
# Bulk Modulus (GPa) = 31.49091 48.41028 39.95060
# Shear Modulus (GPa) = 17.01891 31.20284 24.11088
#
# Velocity S-wave (km/s) = 2.95903 4.00664 3.52201
# Velocity P-wave (km/s) = 5.27976 6.80517 6.09041
#
# Compressibility (1/GPa) = 0.03175520
#
# Stress axis : x y z
#
# Youngs Moduli (GPa) = 59.00519 33.99087 140.93730
#
# Poissons Ratio (x) = 0.12715 0.36260
# Poissons Ratio (y) = 0.22071 0.63991
# Poissons Ratio (z) = 0.15181 0.15433
#
# Static dielectric constant tensor:
#      x y z
#    x 1.776460 0.000000 -0.012270 
#    y 0.000000 1.696380 0.000000 
#    z -0.012270 0.000000 1.809630 
# 
# From -- ./inp_files/215590.got.cif
#   From: 2010.05.17/outbox.cif.g08.bks.cpg/sg15_108_cif.got.tgz:215590.got - 2010.06.03 18:47:42.
