data_PCOD9261084
_publ_section_title
;
Structure prediction by ZEFSAII (Michael W. Deem and Ramdas Pophale) SiO2 
 PCOD9261084
Probable space group: C 2/C
;
_chemical_formula_sum "Si O2"
_cell_formula_units_Z 56
_cell_length_a 16.644691
_cell_length_b 8.943806
_cell_length_c 28.318657
_cell_angle_alpha 90.000000
_cell_angle_beta 141.837251
_cell_angle_gamma 90.000000
_cell_volume 2604.876183
_symmetry_space_group_name_H-M "C 2/C"
_symmetry_group_IT_number 15
_symmetry_cell_setting 'monoclinic'
loop_
_space_group_symop_operation_xyz
x,y,z
-x,y,1/2-z
-x,-y,-z
x,-y,1/2+z
1/2+x,1/2+y,z
1/2-x,1/2+y,1/2-z
1/2-x,1/2-y,-z
1/2+x,1/2-y,1/2+z
loop_
_atom_site_type_symbol
_atom_site_label
_atom_site_fract_x
_atom_site_fract_y
_atom_site_fract_z
Si Si1 0.152503 0.848955 0.782646
Si Si2 0.500000 0.097729 0.750000
Si Si3 0.924679 0.425173 0.890795
Si Si4 0.041249 0.275161 0.035580
Si Si5 0.241129 0.297406 0.562595
Si Si6 0.000000 0.108079 0.750000
Si Si7 0.795889 0.352624 0.623169
Si Si8 0.833689 0.489612 0.051742
O O1 0.060372 0.705220 0.737459
O O2 0.283067 0.861303 0.812746
O O3 0.205375 0.832991 0.861087
O O4 0.066207 0.997826 0.742340
O O5 0.382826 0.991815 0.680230
O O6 0.907281 0.578358 0.912840
O O7 0.019422 0.460786 0.891467
O O8 0.999115 0.320079 0.962923
O O9 0.159355 0.160974 0.086756
O O10 0.906326 0.235205 0.998885
O O11 0.230537 0.451038 0.528322
O O12 0.318811 0.171330 0.570382
O O13 0.113131 0.210504 0.824234
O O14 0.771943 0.386764 0.557008
#
# Coordination Sequence:
#
# PCOD9261084 Si02
#       8
#     8   4   8   8   8   4   8   8
#     4  10  18  40  63  80 106 165 204 219 273 377
#     4  10  22  36  60  82 114 156 204 234 266 350
#     4   9  18  35  58  86 112 151 188 238 287 347
#     4   9  18  34  60  83 114 147 196 230 283 353
#     4   9  19  37  61  87 114 155 184 237 302 347
#     4  10  22  34  62  82 110 156 208 228 270 344
#     4  11  21  37  56  90 116 148 192 252 285 327
#     4  10  20  34  57  89 123 136 178 251 305 325
#
# _framework density 21.498142000000001
#
# number of rings (size 3 to 8) (size 9 to 14) (size 15 to 20)
#    0.000    2.286    2.857    0.857    0.000    1.143 
#    0.000    1.429    0.000    0.000    0.000    0.000 
#    0.000    0.000    0.000    0.000    0.000    0.000 
#
# Total GULP energy -156211.294756 kJ/mol
# GULP energy per Si atom -5578.974813 kJ/mol
# Density = 2.144921 g / cm^3
# Si number density = 21.498142 Si / 1000 Ang^3
#
#
#
# Elastic Constant Matrix: (Units=GPa)
#
#
# Indices 1 2 3 4 5 6 
#
# 1 106.4728 30.7553 22.1363 0.0000 26.2432 0.0000
# 2 30.7553 77.4453 16.0123 0.0000 15.4282 0.0000
# 3 22.1363 16.0123 56.3075 0.0000 18.6876 0.0000
# 4 0.0000 0.0000 0.0000 27.8606 0.0000 9.1784
# 5 26.2432 15.4282 18.6876 0.0000 31.1455 0.0000
# 6 0.0000 0.0000 0.0000 9.1784 0.0000 35.9767
#
#
#
# Elastic Compliance Matrix: (Units=1/GPa)
#
#
# Indices 1 2 3 4 5 6 
#
# 1 0.012602 -0.003077 -0.001325 0.000000 -0.008299 0.000000
# 2 -0.003077 0.015288 -0.001854 0.000000 -0.003868 0.000000
# 3 -0.001325 -0.001854 0.022641 0.000000 -0.011550 0.000000
# 4 0.000000 0.000000 0.000000 0.039186 0.000000 -0.009997
# 5 -0.008299 -0.003868 -0.011550 0.000000 0.047946 0.000000
# 6 0.000000 0.000000 0.000000 -0.009997 0.000000 0.030346
#
#
# Mechanical properties :
#
#
# Convention : Reuss Voigt Hill
#
# Bulk Modulus (GPa) = 26.30279 42.00368 34.15323
# Shear Modulus (GPa) = 25.88051 30.41802 28.14926
#
# Velocity S-wave (km/s) = 3.47342 3.76561 3.62246
# Velocity P-wave (km/s) = 5.32425 6.20380 5.78078
#
# Compressibility (1/GPa) = 0.03801879
#
# Stress axis : x y z
#
# Youngs Moduli (GPa) = 79.35269 65.40963 44.16776
#
# Poissons Ratio (x) = 0.20129 0.05851
# Poissons Ratio (y) = 0.24419 0.08189
# Poissons Ratio (z) = 0.10512 0.12128
#
# Static dielectric constant tensor:
#      x y z
#    x 1.801140 0.000000 -0.002720 
#    y 0.000000 1.799920 0.000000 
#    z -0.002720 0.000000 1.845560 
# 
# From -- ./inp_files/298600.got.cif
#   From: 2010.05.17/outbox.cif.g08.bks.cpg/sg15_150_cif.got.tgz:298600.got - 2010.06.03 18:47:42.
