data_PCOD9261141
_publ_section_title
;
Structure prediction by ZEFSAII (Michael W. Deem and Ramdas Pophale) SiO2 
 PCOD9261141
Probable space group: C 2/C
;
_chemical_formula_sum "Si O2"
_cell_formula_units_Z 52
_cell_length_a 11.388991
_cell_length_b 8.155762
_cell_length_c 25.818136
_cell_angle_alpha 90.000000
_cell_angle_beta 65.618751
_cell_angle_gamma 90.000000
_cell_volume 2184.271743
_symmetry_space_group_name_H-M "C 2/C"
_symmetry_group_IT_number 15
_symmetry_cell_setting 'monoclinic'
loop_
_space_group_symop_operation_xyz
x,y,z
-x,y,1/2-z
-x,-y,-z
x,-y,1/2+z
1/2+x,1/2+y,z
1/2-x,1/2+y,1/2-z
1/2-x,1/2-y,-z
1/2+x,1/2-y,1/2+z
loop_
_atom_site_type_symbol
_atom_site_label
_atom_site_fract_x
_atom_site_fract_y
_atom_site_fract_z
Si Si1 0.000000 0.063957 0.750000
Si Si2 0.735274 0.808540 0.724497
Si Si3 0.146694 0.331513 0.204353
Si Si4 0.851166 0.102597 0.594070
Si Si5 0.926676 0.965540 0.376075
Si Si6 0.098058 0.222934 0.026127
Si Si7 0.661542 0.783669 0.397705
O O1 0.034801 0.977159 0.689026
O O2 0.114688 0.188953 0.742452
O O3 0.789245 0.807518 0.771949
O O4 0.834219 0.728817 0.665411
O O5 0.700142 0.989729 0.712700
O O6 0.212069 0.321461 0.135638
O O7 0.000000 0.337674 0.250000
O O8 0.917368 0.167457 0.530368
O O9 0.827996 0.908435 0.588142
O O10 0.950166 0.135713 0.623795
O O11 0.918126 0.094589 0.423976
O O12 0.789205 0.875124 0.394526
O O13 0.978251 0.346156 0.058485
O O14 0.250000 0.250000 0.000000
#
# Coordination Sequence:
#
# PCOD9261141 Si02
#       7
#     4   8   8   8   8   8   8
#     4  10  18  40  66  94 124 166 212 272 332 396
#     4  10  21  41  64  96 135 162 217 274 326 396
#     4  11  23  41  64  98 133 174 214 272 336 393
#     4  10  22  41  63  89 125 170 212 262 322 389
#     4  10  20  41  67  90 120 169 217 264 324 388
#     4  11  25  42  58  90 136 166 216 270 318 392
#     4   9  21  40  65  89 117 166 217 263 318 383
#
# _framework density 23.806563000000001
#
# number of rings (size 3 to 8) (size 9 to 14) (size 15 to 20)
#    0.000    1.846    2.308    1.846    2.154    3.077 
#    6.923    0.000    0.000    0.000    0.000    0.000 
#    0.000    0.000    0.000    0.000    0.000    0.000 
#
# Total GULP energy -145057.612424 kJ/mol
# GULP energy per Si atom -5579.138939 kJ/mol
# Density = 2.375238 g / cm^3
# Si number density = 23.806563 Si / 1000 Ang^3
#
#
#
# Elastic Constant Matrix: (Units=GPa)
#
#
# Indices 1 2 3 4 5 6 
#
# 1 129.0343 17.5455 71.9697 0.0000 -19.2262 0.0000
# 2 17.5455 30.4501 26.0071 0.0000 -5.9417 0.0000
# 3 71.9697 26.0071 196.6378 0.0000 -13.8211 0.0000
# 4 0.0000 0.0000 0.0000 36.4114 0.0000 -6.6953
# 5 -19.2262 -5.9417 -13.8211 0.0000 63.4206 0.0000
# 6 0.0000 0.0000 0.0000 -6.6953 0.0000 34.7910
#
#
#
# Elastic Compliance Matrix: (Units=1/GPa)
#
#
# Indices 1 2 3 4 5 6 
#
# 1 0.010246 -0.002718 -0.003240 0.000000 0.002145 0.000000
# 2 -0.002718 0.038119 -0.003914 0.000000 0.001894 0.000000
# 3 -0.003240 -0.003914 0.006798 0.000000 0.000133 0.000000
# 4 0.000000 0.000000 0.000000 0.028471 0.000000 0.005479
# 5 0.002145 0.001894 0.000133 0.000000 0.016625 0.000000
# 6 0.000000 0.000000 0.000000 0.005479 0.000000 0.029797
#
#
# Mechanical properties :
#
#
# Convention : Reuss Voigt Hill
#
# Bulk Modulus (GPa) = 28.23241 65.24076 46.73658
# Shear Modulus (GPa) = 30.93931 42.96461 36.95196
#
# Velocity S-wave (km/s) = 3.60892 4.25283 3.94404
# Velocity P-wave (km/s) = 5.40838 7.18188 6.35728
#
# Compressibility (1/GPa) = 0.03542028
#
# Stress axis : x y z
#
# Youngs Moduli (GPa) = 97.59724 26.23363 147.09779
#
# Poissons Ratio (x) = 0.07131 0.47657
# Poissons Ratio (y) = 0.26529 0.57568
# Poissons Ratio (z) = 0.31620 0.10267
#
# Static dielectric constant tensor:
#      x y z
#    x 2.052850 0.000000 -0.061950 
#    y 0.000000 1.948030 0.000000 
#    z -0.061950 0.000000 1.939250 
# 
# From -- ./inp_files/309879.got.cif
#   From: 2010.05.17/outbox.cif.g08.bks.cpg/sg15_155_cif.got.tgz:309879.got - 2010.06.03 18:47:42.
