data_PCOD9261274
_publ_section_title
;
Structure prediction by ZEFSAII (Michael W. Deem and Ramdas Pophale) SiO2 
 PCOD9261274
Probable space group: C 2/C
;
_chemical_formula_sum "Si O2"
_cell_formula_units_Z 48
_cell_length_a 10.014999
_cell_length_b 17.485800
_cell_length_c 14.695047
_cell_angle_alpha 90.000000
_cell_angle_beta 88.261935
_cell_angle_gamma 90.000000
_cell_volume 2572.216648
_symmetry_space_group_name_H-M "C 2/C"
_symmetry_group_IT_number 15
_symmetry_cell_setting 'monoclinic'
loop_
_space_group_symop_operation_xyz
x,y,z
-x,y,1/2-z
-x,-y,-z
x,-y,1/2+z
1/2+x,1/2+y,z
1/2-x,1/2+y,1/2-z
1/2-x,1/2-y,-z
1/2+x,1/2-y,1/2+z
loop_
_atom_site_type_symbol
_atom_site_label
_atom_site_fract_x
_atom_site_fract_y
_atom_site_fract_z
Si Si1 0.500000 0.079438 0.250000
Si Si2 0.422296 0.676747 0.848906
Si Si3 0.500000 0.399020 0.750000
Si Si4 0.398994 0.046786 0.062979
Si Si5 0.855948 0.722535 0.070907
Si Si6 0.261359 0.806113 0.776124
Si Si7 0.601404 0.505299 0.582261
O O1 0.436457 0.033840 0.168216
O O2 0.617686 0.133887 0.208901
O O3 0.500000 0.673411 0.750000
O O4 0.522887 0.718999 0.916062
O O5 0.294834 0.731485 0.834548
O O6 0.391078 0.592310 0.883009
O O7 0.619542 0.346774 0.786967
O O8 0.555139 0.451811 0.667214
O O9 0.407981 0.137796 0.047084
O O10 0.247410 0.022271 0.049363
O O11 0.500000 0.000000 0.000000
O O12 0.781836 0.715053 0.169717
O O13 0.750000 0.750000 0.000000
O O14 0.500000 0.500000 0.500000
#
# Coordination Sequence:
#
# PCOD9261274 Si02
#       7
#     4   8   4   8   8   8   8
#     4  10  18  43  67  86 122 170 212 252 322 383
#     4  10  20  40  66  90 126 168 209 256 318 381
#     4  12  24  43  67  94 134 164 218 272 318 391
#     4  11  24  43  64  92 125 169 213 257 322 383
#     4  10  19  39  64  91 123 162 209 256 312 381
#     4  10  20  41  67  87 122 178 208 251 329 378
#     4  12  26  41  64 101 130 168 213 269 329 380
#
# _framework density 18.660947
#
# number of rings (size 3 to 8) (size 9 to 14) (size 15 to 20)
#    0.000    1.333    8.333    1.000    2.333    0.000 
#    9.000    1.667    0.000    0.000    0.000    0.000 
#    0.000    0.000    0.000    0.000    0.000    0.000 
#
# Total GULP energy -134035.643327 kJ/mol
# GULP energy per Si atom -5584.818472 kJ/mol
# Density = 1.861847 g / cm^3
# Si number density = 18.660947 Si / 1000 Ang^3
#
#
#
# Elastic Constant Matrix: (Units=GPa)
#
#
# Indices 1 2 3 4 5 6 
#
# 1 117.8595 44.4699 25.0504 0.0000 17.6497 0.0000
# 2 44.4699 111.9838 24.9990 0.0000 8.5950 0.0000
# 3 25.0504 24.9990 61.2517 0.0000 26.7601 0.0000
# 4 0.0000 0.0000 0.0000 12.4043 0.0000 22.8637
# 5 17.6497 8.5950 26.7601 0.0000 36.0906 0.0000
# 6 0.0000 0.0000 0.0000 22.8637 0.0000 18.3546
#
#
#
# Elastic Compliance Matrix: (Units=1/GPa)
#
#
# Indices 1 2 3 4 5 6 
#
# 1 0.010662 -0.003662 -0.001433 0.000000 -0.003280 0.000000
# 2 -0.003662 0.011105 -0.003937 0.000000 0.002065 0.000000
# 3 -0.001433 -0.003937 0.026334 0.000000 -0.017887 0.000000
# 4 0.000000 0.000000 0.000000 -0.062204 0.000000 0.077485
# 5 -0.003280 0.002065 -0.017887 0.000000 0.042083 0.000000
# 6 0.000000 0.000000 0.000000 0.077485 0.000000 -0.042038
#
#
# Mechanical properties :
#
#
# Convention : Reuss Voigt Hill
#
# Bulk Modulus (GPa) = 33.29342 53.34818 43.32080
# Shear Modulus (GPa) = 356.69341 26.47495 191.58418
#
# Velocity S-wave (km/s) = 13.84049 3.77070 10.14341
# Velocity P-wave (km/s) = 16.53156 6.89984 12.66689
#
# Compressibility (1/GPa) = 0.03003596
#
# Stress axis : x y z
#
# Youngs Moduli (GPa) = 93.78865 90.05308 37.97438
#
# Poissons Ratio (x) = 0.32982 0.05442
# Poissons Ratio (y) = 0.34350 0.14949
# Poissons Ratio (z) = 0.13440 0.35451
#
# Static dielectric constant tensor:
#      x y z
#    x 1.642020 0.000000 -0.002820 
#    y 0.000000 1.644880 0.000000 
#    z -0.002820 0.000000 1.643540 
# 
# From -- ./inp_files/134923.got.cif
#   From: 2010.05.17/outbox.cif.g08.bks.cpg/sg15_68_cif.got.tgz:134923.got - 2010.06.03 18:47:42.
