data_PCOD9261856
_publ_section_title
;
Structure prediction by ZEFSAII (Michael W. Deem and Ramdas Pophale) SiO2 
 PCOD9261856
Probable space group: C 2/C
;
_chemical_formula_sum "Si O2"
_cell_formula_units_Z 56
_cell_length_a 17.956136
_cell_length_b 7.258124
_cell_length_c 29.987331
_cell_angle_alpha 90.000000
_cell_angle_beta 131.766161
_cell_angle_gamma 90.000000
_cell_volume 2914.995885
_symmetry_space_group_name_H-M "C 2/C"
_symmetry_group_IT_number 15
_symmetry_cell_setting 'monoclinic'
loop_
_space_group_symop_operation_xyz
x,y,z
-x,y,1/2-z
-x,-y,-z
x,-y,1/2+z
1/2+x,1/2+y,z
1/2-x,1/2+y,1/2-z
1/2-x,1/2-y,-z
1/2+x,1/2-y,1/2+z
loop_
_atom_site_type_symbol
_atom_site_label
_atom_site_fract_x
_atom_site_fract_y
_atom_site_fract_z
Si Si1 0.632258 0.578028 0.067091
Si Si2 0.598384 0.353700 0.183704
Si Si3 0.522996 0.985356 0.188226
Si Si4 0.998239 0.784981 0.445770
Si Si5 0.229936 0.894374 0.793235
Si Si6 0.163629 0.403818 0.325299
Si Si7 0.078440 0.609193 0.612794
O O1 0.578194 0.380554 0.050246
O O2 0.745994 0.536841 0.125217
O O3 0.581173 0.716116 0.082199
O O4 0.606067 0.665405 0.008690
O O5 0.533916 0.204756 0.185253
O O6 0.531688 0.380149 0.113021
O O7 0.698508 0.248373 0.205315
O O8 0.638271 0.525679 0.227893
O O9 0.615154 0.947540 0.257886
O O10 0.423472 0.923233 0.173503
O O11 0.533525 0.886613 0.144682
O O12 0.974481 0.569398 0.430670
O O13 0.201536 0.801074 0.828875
O O14 0.305407 0.059803 0.833429
#
# Coordination Sequence:
#
# PCOD9261856 Si02
#       7
#     8   8   8   8   8   8   8
#     4  11  20  36  63  82 119 151 188 243 283 334
#     4  10  19  35  56  89 112 148 196 242 282 347
#     4   9  22  36  55  83 121 147 187 236 300 332
#     4   9  21  35  56  94 112 142 201 240 279 339
#     4  10  19  31  61  87 114 145 201 239 288 344
#     4  11  20  37  55  86 116 155 182 237 295 339
#     4  10  20  36  61  88 109 151 195 239 280 349
#
# _framework density 19.211003999999999
#
# number of rings (size 3 to 8) (size 9 to 14) (size 15 to 20)
#    0.000    2.286    2.857    3.000    4.000    0.000 
#    0.000    8.571    0.000    3.429    0.000    0.000 
#    0.000    0.000    0.000    0.000    0.000    0.000 
#
# Total GULP energy -155974.023242 kJ/mol
# GULP energy per Si atom -5570.500830 kJ/mol
# Density = 1.916728 g / cm^3
# Si number density = 19.211004 Si / 1000 Ang^3
#
#
#
# Elastic Constant Matrix: (Units=GPa)
#
#
# Indices 1 2 3 4 5 6 
#
# 1 83.3685 37.8290 41.0892 0.0000 -5.4332 0.0000
# 2 37.8290 64.9929 37.6249 0.0000 -6.7878 0.0001
# 3 41.0892 37.6249 110.9681 0.0000 -10.0924 0.0000
# 4 0.0000 0.0000 0.0000 33.3679 0.0000 -8.3271
# 5 -5.4332 -6.7878 -10.0924 0.0000 19.1036 0.0000
# 6 0.0000 0.0001 0.0000 -8.3271 0.0000 14.2824
#
#
#
# Elastic Compliance Matrix: (Units=1/GPa)
#
#
# Indices 1 2 3 4 5 6 
#
# 1 0.017476 -0.007985 -0.003750 0.000000 0.000152 0.000000
# 2 -0.007985 0.023024 -0.004530 0.000000 0.003517 0.000000
# 3 -0.003750 -0.004530 0.012283 0.000000 0.003813 0.000000
# 4 0.000000 0.000000 0.000000 0.035072 0.000000 0.020448
# 5 0.000152 0.003517 0.003813 0.000000 0.055653 0.000000
# 6 0.000000 0.000000 0.000000 0.020448 0.000000 0.081938
#
#
# Mechanical properties :
#
#
# Convention : Reuss Voigt Hill
#
# Bulk Modulus (GPa) = 49.37564 54.71287 52.04425
# Shear Modulus (GPa) = 18.88737 22.86987 20.87862
#
# Velocity S-wave (km/s) = 3.13893 3.45404 3.30025
# Velocity P-wave (km/s) = 6.23656 6.66701 6.45537
#
# Compressibility (1/GPa) = 0.02025290
#
# Stress axis : x y z
#
# Youngs Moduli (GPa) = 57.21992 43.43332 81.41518
#
# Poissons Ratio (x) = 0.34683 0.30529
# Poissons Ratio (y) = 0.45693 0.36879
# Poissons Ratio (z) = 0.21456 0.19674
#
# Static dielectric constant tensor:
#      x y z
#    x 1.663670 0.000000 -0.007430 
#    y 0.000000 1.769840 0.000000 
#    z -0.007430 0.000000 1.748090 
# 
# From -- ./inp_files/315531.got.cif
#   From: 2010.05.17/outbox.cif.g08.bks.cpg/sg15_158_cif.got.tgz:315531.got - 2010.06.03 18:47:42.
