data_PCOD9261686
_publ_section_title
;
Structure prediction by ZEFSAII (Michael W. Deem and Ramdas Pophale) SiO2 
 PCOD9261686
Probable space group: C 2/C
;
_chemical_formula_sum "Si O2"
_cell_formula_units_Z 56
_cell_length_a 17.597834
_cell_length_b 19.767734
_cell_length_c 12.838192
_cell_angle_alpha 90.000000
_cell_angle_beta 32.253692
_cell_angle_gamma 90.000000
_cell_volume 2383.372681
_symmetry_space_group_name_H-M "C 2/C"
_symmetry_group_IT_number 15
_symmetry_cell_setting 'monoclinic'
loop_
_space_group_symop_operation_xyz
x,y,z
-x,y,1/2-z
-x,-y,-z
x,-y,1/2+z
1/2+x,1/2+y,z
1/2-x,1/2+y,1/2-z
1/2-x,1/2-y,-z
1/2+x,1/2-y,1/2+z
loop_
_atom_site_type_symbol
_atom_site_label
_atom_site_fract_x
_atom_site_fract_y
_atom_site_fract_z
Si Si1 0.974158 0.210480 0.459375
Si Si2 0.409426 0.132680 0.079377
Si Si3 0.723720 0.890342 0.181113
Si Si4 0.140535 0.349558 0.640605
Si Si5 0.580708 0.309594 0.257451
Si Si6 0.976163 0.013405 0.398375
Si Si7 0.715003 0.627542 0.114081
O O1 0.933117 0.288036 0.521979
O O2 0.833981 0.168915 0.587935
O O3 0.008196 0.182681 0.535909
O O4 0.119718 0.196259 0.229671
O O5 0.329271 0.121071 0.281373
O O6 0.313328 0.108450 0.096620
O O7 0.569869 0.106643 0.911233
O O8 0.815616 0.958285 0.083503
O O9 0.693366 0.874798 0.095675
O O10 0.270953 0.348831 0.410234
O O11 0.111469 0.270081 0.702417
O O12 0.000000 0.377350 0.750000
O O13 0.500000 0.332309 0.250000
O O14 0.000000 0.978843 0.250000
O O15 0.088995 0.073504 0.252440
O O16 0.000000 0.000000 0.500000
#
# Coordination Sequence:
#
# PCOD9261686 Si02
#       7
#     8   8   8   8   8   8   8
#     4  10  19  31  49  75 112 158 196 219 252 319
#     4  11  20  31  50  79 116 154 187 217 262 329
#     4  10  21  35  53  80 113 146 182 229 280 328
#     4   9  17  28  41  60  94 139 183 224 262 299
#     4   9  16  27  42  60  88 137 191 228 258 293
#     4   9  20  43  68  85 107 141 185 240 300 354
#     4  10  21  35  53  81 112 144 185 229 276 330
#
# _framework density 23.496117000000002
#
# number of rings (size 3 to 8) (size 9 to 14) (size 15 to 20)
#    0.000    2.286    0.000    4.286    0.000    8.000 
#    0.000    7.857    0.000    0.000    0.000    0.000 
#    0.000    0.000    0.000    0.000    0.000    0.000 
#
# Total GULP energy -155920.396065 kJ/mol
# GULP energy per Si atom -5568.585574 kJ/mol
# Density = 2.344264 g / cm^3
# Si number density = 23.496117 Si / 1000 Ang^3
#
#
#
# Elastic Constant Matrix: (Units=GPa)
#
#
# Indices 1 2 3 4 5 6 
#
# 1 131.7459 4.4531 1.2231 0.0062 8.0428 -0.0006
# 2 4.4531 27.9920 2.4600 -0.0018 4.6000 -0.0016
# 3 1.2231 2.4600 59.9021 0.0038 5.2167 -0.0011
# 4 0.0062 -0.0018 0.0038 104.8389 -0.0045 10.5009
# 5 8.0428 4.6000 5.2167 -0.0045 44.5973 0.0014
# 6 -0.0006 -0.0016 -0.0011 10.5009 0.0014 15.7832
#
#
#
# Elastic Compliance Matrix: (Units=1/GPa)
#
#
# Indices 1 2 3 4 5 6 
#
# 1 0.007703 -0.001014 -0.000004 -0.000001 -0.001284 0.000001
# 2 -0.001014 0.036556 -0.001180 0.000000 -0.003450 0.000004
# 3 -0.000004 -0.001180 0.016904 -0.000001 -0.001855 0.000002
# 4 -0.000001 0.000000 -0.000001 0.010219 0.000001 -0.006799
# 5 -0.001284 -0.003450 -0.001855 0.000001 0.023227 -0.000004
# 6 0.000001 0.000004 0.000002 -0.006799 -0.000004 0.067882
#
#
# Mechanical properties :
#
#
# Convention : Reuss Voigt Hill
#
# Bulk Modulus (GPa) = 17.61573 26.21248 21.91410
# Shear Modulus (GPa) = 26.90911 47.14413 37.02662
#
# Velocity S-wave (km/s) = 3.38784 4.48422 3.97402
# Velocity P-wave (km/s) = 4.77670 6.16370 5.51399
#
# Compressibility (1/GPa) = 0.05676744
#
# Stress axis : x y z
#
# Youngs Moduli (GPa) = 129.81827 27.35502 59.15762
#
# Poissons Ratio (x) = 0.02774 0.00023
# Poissons Ratio (y) = 0.13164 0.06981
# Poissons Ratio (z) = 0.00049 0.03228
#
# Static dielectric constant tensor:
#      x y z
#    x 1.962150 0.000000 0.017050 
#    y 0.000000 1.946970 0.000000 
#    z 0.017050 0.000000 1.951430 
# 
# From -- ./inp_files/101079.got.cif
#   From: 2010.05.17/outbox.cif.g08.bks.cpg/sg15_51_cif.got.tgz:101079.got - 2010.06.03 18:47:42.
