data_PCOD9261621
_publ_section_title
;
Structure prediction by ZEFSAII (Michael W. Deem and Ramdas Pophale) SiO2 
 PCOD9261621
Probable space group: C 2/C
;
_chemical_formula_sum "Si O2"
_cell_formula_units_Z 56
_cell_length_a 23.525526
_cell_length_b 19.198243
_cell_length_c 9.988560
_cell_angle_alpha 90.000000
_cell_angle_beta 41.495236
_cell_angle_gamma 90.000000
_cell_volume 2989.010650
_symmetry_space_group_name_H-M "C 2/C"
_symmetry_group_IT_number 15
_symmetry_cell_setting 'monoclinic'
loop_
_space_group_symop_operation_xyz
x,y,z
-x,y,1/2-z
-x,-y,-z
x,-y,1/2+z
1/2+x,1/2+y,z
1/2-x,1/2+y,1/2-z
1/2-x,1/2-y,-z
1/2+x,1/2-y,1/2+z
loop_
_atom_site_type_symbol
_atom_site_label
_atom_site_fract_x
_atom_site_fract_y
_atom_site_fract_z
Si Si1 0.798409 0.844950 0.519246
Si Si2 0.315730 0.243257 0.089650
Si Si3 0.082959 0.867044 0.942223
Si Si4 0.759123 0.644418 0.963696
Si Si5 0.103295 0.982664 0.468506
Si Si6 0.428158 0.329826 0.055816
Si Si7 0.780979 0.003175 0.987438
O O1 0.731595 0.792647 0.702214
O O2 0.877828 0.847227 0.483873
O O3 0.843614 0.830235 0.299093
O O4 0.753938 0.920945 0.587098
O O5 0.317231 0.186469 0.967080
O O6 0.404904 0.276149 0.980417
O O7 0.257694 0.306737 0.134124
O O8 0.165675 0.862512 0.699900
O O9 0.052651 0.947249 0.017795
O O10 0.010070 0.820036 0.005667
O O11 0.780456 0.563978 0.895698
O O12 0.061747 0.908081 0.518745
O O13 0.138409 0.986971 0.556911
O O14 0.184945 0.987181 0.223683
#
# Coordination Sequence:
#
# PCOD9261621 Si02
#       7
#     8   8   8   8   8   8   8
#     4   9  19  31  46  67 100 133 163 204 245 294
#     4  10  19  31  46  66  99 133 168 205 248 288
#     4   9  18  30  45  68  98 131 166 200 237 292
#     4   9  18  33  47  65  96 134 164 208 246 291
#     4   9  17  28  43  69  97 134 166 198 230 288
#     4  11  18  28  46  69  97 133 167 201 244 292
#     4   9  16  31  48  66  94 135 171 198 243 289
#
# _framework density 18.735296999999999
#
# number of rings (size 3 to 8) (size 9 to 14) (size 15 to 20)
#    0.000    2.571    1.429    2.143    0.000    0.571 
#    0.000    2.857    0.000    0.000    0.000    0.000 
#    0.000   18.286    1.714    0.143    0.000    0.000 
#
# Total GULP energy -156045.890769 kJ/mol
# GULP energy per Si atom -5573.067527 kJ/mol
# Density = 1.869265 g / cm^3
# Si number density = 18.735297 Si / 1000 Ang^3
#
#
#
# Elastic Constant Matrix: (Units=GPa)
#
#
# Indices 1 2 3 4 5 6 
#
# 1 78.6069 58.2079 8.8021 0.0000 -5.5685 0.0000
# 2 58.2079 115.0815 20.0337 0.0000 -5.7824 0.0000
# 3 8.8021 20.0337 33.8272 0.0000 12.0042 0.0000
# 4 0.0000 0.0000 0.0000 14.4110 0.0000 2.8135
# 5 -5.5685 -5.7824 12.0042 0.0000 18.4310 0.0000
# 6 0.0000 0.0000 0.0000 2.8135 0.0000 36.8585
#
#
#
# Elastic Compliance Matrix: (Units=1/GPa)
#
#
# Indices 1 2 3 4 5 6 
#
# 1 0.020506 -0.010106 -0.000552 0.000000 0.003384 0.000000
# 2 -0.010106 0.015911 -0.009730 0.000000 0.008275 0.000000
# 3 -0.000552 -0.009730 0.047616 0.000000 -0.034232 0.000000
# 4 0.000000 0.000000 0.000000 0.070441 0.000000 -0.005377
# 5 0.003384 0.008275 -0.034232 0.000000 0.080170 0.000000
# 6 0.000000 0.000000 0.000000 -0.005377 0.000000 0.027541
#
#
# Mechanical properties :
#
#
# Convention : Reuss Voigt Hill
#
# Bulk Modulus (GPa) = 23.11750 44.62255 33.87002
# Shear Modulus (GPa) = 15.75399 23.30491 19.52945
#
# Velocity S-wave (km/s) = 2.90293 3.53073 3.23211
# Velocity P-wave (km/s) = 4.85816 6.36321 5.66093
#
# Compressibility (1/GPa) = 0.04325728
#
# Stress axis : x y z
#
# Youngs Moduli (GPa) = 48.76505 62.85079 21.00152
#
# Poissons Ratio (x) = 0.63517 0.01159
# Poissons Ratio (y) = 0.49282 0.20434
# Poissons Ratio (z) = 0.02691 0.61153
#
# Static dielectric constant tensor:
#      x y z
#    x 1.663680 0.000000 0.039110 
#    y 0.000000 1.710220 0.000000 
#    z 0.039110 0.000000 1.662600 
# 
# From -- ./inp_files/113941.got.cif
#   From: 2010.05.17/outbox.cif.g08.bks.cpg/sg15_57_cif.got.tgz:113941.got - 2010.06.03 18:47:42.
