data_PCOD9261547
_publ_section_title
;
Structure prediction by ZEFSAII (Michael W. Deem and Ramdas Pophale) SiO2 
 PCOD9261547
Probable space group: C 2/C
;
_chemical_formula_sum "Si O2"
_cell_formula_units_Z 48
_cell_length_a 14.234362
_cell_length_b 12.218375
_cell_length_c 19.553804
_cell_angle_alpha 90.000000
_cell_angle_beta 136.715452
_cell_angle_gamma 90.000000
_cell_volume 2331.672198
_symmetry_space_group_name_H-M "C 2/C"
_symmetry_group_IT_number 15
_symmetry_cell_setting 'monoclinic'
loop_
_space_group_symop_operation_xyz
x,y,z
-x,y,1/2-z
-x,-y,-z
x,-y,1/2+z
1/2+x,1/2+y,z
1/2-x,1/2+y,1/2-z
1/2-x,1/2-y,-z
1/2+x,1/2-y,1/2+z
loop_
_atom_site_type_symbol
_atom_site_label
_atom_site_fract_x
_atom_site_fract_y
_atom_site_fract_z
Si Si1 0.086324 0.725947 0.976241
Si Si2 0.011930 0.042433 0.114588
Si Si3 0.217244 0.042433 0.114588
Si Si4 0.366159 0.225947 0.976241
Si Si5 0.630578 0.846989 0.357412
Si Si6 0.584248 0.653011 0.857413
O O1 0.017992 0.829239 0.899751
O O2 0.108558 0.639939 0.927275
O O3 0.985912 0.698254 0.985912
O O4 0.234128 0.770984 0.079230
O O5 0.160571 0.024002 0.160571
O O6 0.983062 0.964291 0.161965
O O7 0.901299 1.000000 1.000000
O O8 0.218490 0.170761 0.100249
O O9 0.340868 0.964291 0.161965
O O10 0.245992 0.139940 0.927275
O O11 0.424332 0.270984 0.079230
O O12 0.500000 0.798594 0.250000
O O13 0.500000 0.701406 0.750000
#
# Coordination Sequence:
#
# PCOD9261547 Si02
#       6
#     8   8   8   8   8   8
#     4   9  19  35  52  72 102 136 166 201 249 301
#     4   8  15  31  52  69  91 127 165 198 240 298
#     4   8  15  31  52  69  91 127 165 198 240 298
#     4   9  19  35  52  72 102 136 166 201 249 301
#     4  10  19  30  52  78 100 128 170 212 245 286
#     4  10  19  30  52  78 100 128 170 212 245 286
#
# _framework density 20.586085000000001
#
# number of rings (size 3 to 8) (size 9 to 14) (size 15 to 20)
#    0.000    3.000    0.000    3.000    0.000    4.000 
#    0.000    0.000    0.000   27.000    0.000    0.000 
#    0.000    0.000    0.000    0.000    0.000    0.000 
#
# Total GULP energy -133651.661740 kJ/mol
# GULP energy per Si atom -5568.819239 kJ/mol
# Density = 2.053923 g / cm^3
# Si number density = 20.586085 Si / 1000 Ang^3
#
#
#
# Elastic Constant Matrix: (Units=GPa)
#
#
# Indices 1 2 3 4 5 6 
#
# 1 162.3005 25.6316 51.4742 0.0000 3.3562 0.0000
# 2 25.6316 28.8791 -0.5088 0.0000 1.0298 0.0000
# 3 51.4742 -0.5088 79.6534 0.0000 -0.0989 0.0000
# 4 0.0000 0.0000 0.0000 1.9732 0.0000 -0.1315
# 5 3.3562 1.0298 -0.0989 0.0000 12.9658 0.0000
# 6 0.0000 0.0000 0.0000 -0.1315 0.0000 -1.3658
#
#
#
# Elastic Compliance Matrix: (Units=1/GPa)
#
#
# Indices 1 2 3 4 5 6 
#
# 1 0.009504 -0.008479 -0.006198 0.000000 -0.001834 0.000000
# 2 -0.008479 0.042294 0.005748 0.000000 -0.001120 0.000000
# 3 -0.006198 0.005748 0.016598 0.000000 0.001274 0.000000
# 4 0.000000 0.000000 0.000000 0.503561 0.000000 -0.048474
# 5 -0.001834 -0.001120 0.001274 0.000000 0.077699 0.000000
# 6 0.000000 0.000000 0.000000 -0.048474 0.000000 -0.727502
#
#
# Mechanical properties :
#
#
# Convention : Reuss Voigt Hill
#
# Bulk Modulus (GPa) = 19.78710 47.11411 33.45060
# Shear Modulus (GPa) = -115.90120 15.66372 -50.11874
#
# Velocity S-wave (km/s) = -7.51152 2.76141 -4.93951
# Velocity P-wave (km/s) = 8.09925 5.75354 4.03079
#
# Compressibility (1/GPa) = 0.05053797
#
# Stress axis : x y z
#
# Youngs Moduli (GPa) = 105.21582 23.64394 60.24735
#
# Poissons Ratio (x) = 0.20048 0.37343
# Poissons Ratio (y) = 0.89216 -0.34632
# Poissons Ratio (z) = 0.65217 -0.13591
#
# Static dielectric constant tensor:
#      x y z
#    x 1.798600 0.000000 0.002390 
#    y 0.000000 1.821820 0.000000 
#    z 0.002390 0.000000 1.738040 
# 
# From -- ./inp_files/244401.got.cif
#   From: 2010.05.17/outbox.cif.g08.bks.cpg/sg15_123_cif.got.tgz:244401.got - 2010.06.03 18:47:42.
