data_PCOD9261181
_publ_section_title
;
Structure prediction by ZEFSAII (Michael W. Deem and Ramdas Pophale) SiO2 
 PCOD9261181
Probable space group: C 2/C
;
_chemical_formula_sum "Si O2"
_cell_formula_units_Z 44
_cell_length_a 19.771881
_cell_length_b 11.452034
_cell_length_c 25.043777
_cell_angle_alpha 90.000000
_cell_angle_beta 20.020681
_cell_angle_gamma 90.000000
_cell_volume 1941.389070
_symmetry_space_group_name_H-M "C 2/C"
_symmetry_group_IT_number 15
_symmetry_cell_setting 'monoclinic'
loop_
_space_group_symop_operation_xyz
x,y,z
-x,y,1/2-z
-x,-y,-z
x,-y,1/2+z
1/2+x,1/2+y,z
1/2-x,1/2+y,1/2-z
1/2-x,1/2-y,-z
1/2+x,1/2-y,1/2+z
loop_
_atom_site_type_symbol
_atom_site_label
_atom_site_fract_x
_atom_site_fract_y
_atom_site_fract_z
Si Si1 0.967291 0.132870 0.003069
Si Si2 0.286876 0.400569 0.452461
Si Si3 0.047440 0.237396 0.830485
Si Si4 0.000000 0.510510 0.250000
Si Si5 0.244380 0.335997 0.952360
Si Si6 0.159340 0.683748 0.712086
O O1 0.749024 0.188024 0.174048
O O2 0.036761 0.154830 0.890497
O O3 0.129014 0.197172 0.919171
O O4 0.000000 0.000000 0.000000
O O5 0.136687 0.327283 0.527715
O O6 0.487605 0.338788 0.322368
O O7 0.302634 0.533072 0.422428
O O8 0.158371 0.412890 0.602249
O O9 0.117198 0.428354 0.205042
O O10 0.355805 0.289727 0.818192
O O11 0.250000 0.250000 0.000000
O O12 0.007170 0.329010 0.119531
#
# Coordination Sequence:
#
# PCOD9261181 Si02
#       6
#     8   8   8   4   8   8
#     4  12  26  46  71  97 150 188 228 287 358 427
#     4  10  21  40  71  95 138 168 239 288 331 415
#     4  11  25  47  68 103 130 188 233 284 358 415
#     4  10  18  40  70  98 124 186 224 280 336 400
#     4  11  20  39  65 100 129 175 226 282 339 396
#     4  11  21  38  63  98 131 173 233 270 339 414
#
# _framework density 22.664185
#
# number of rings (size 3 to 8) (size 9 to 14) (size 15 to 20)
#    0.000    1.091    3.636    5.455    0.000    2.182 
#    6.545    1.818    0.000    0.000    0.000    0.000 
#    0.000    0.000    0.000    0.000    0.000    0.000 
#
# Total GULP energy -122861.024394 kJ/mol
# GULP energy per Si atom -5584.592018 kJ/mol
# Density = 2.261260 g / cm^3
# Si number density = 22.664185 Si / 1000 Ang^3
#
#
#
# Elastic Constant Matrix: (Units=GPa)
#
#
# Indices 1 2 3 4 5 6 
#
# 1 96.6112 37.6436 39.0249 0.0040 -29.3325 -0.0062
# 2 37.6436 147.5052 46.2101 -0.0027 -13.2960 -0.0042
# 3 39.0249 46.2101 165.2331 -0.0153 -14.6983 -0.0236
# 4 0.0040 -0.0027 -0.0153 35.8410 -0.0097 -2.6241
# 5 -29.3325 -13.2960 -14.6983 -0.0097 46.6811 0.0101
# 6 -0.0062 -0.0042 -0.0236 -2.6241 0.0101 14.8106
#
#
#
# Elastic Compliance Matrix: (Units=1/GPa)
#
#
# Indices 1 2 3 4 5 6 
#
# 1 0.014456 -0.002341 -0.002069 -0.000001 0.007766 -0.000003
# 2 -0.002341 0.007914 -0.001636 0.000000 0.000268 -0.000001
# 3 -0.002069 -0.001636 0.007038 0.000004 0.000450 0.000010
# 4 -0.000001 0.000000 0.000004 0.028268 0.000006 0.005008
# 5 0.007766 0.000268 0.000450 0.000006 0.026519 -0.000013
# 6 -0.000003 -0.000001 0.000010 0.005008 -0.000013 0.068406
#
#
# Mechanical properties :
#
#
# Convention : Reuss Voigt Hill
#
# Bulk Modulus (GPa) = 57.75144 72.78963 65.27053
# Shear Modulus (GPa) = 29.33123 38.56459 33.94791
#
# Velocity S-wave (km/s) = 3.60136 4.12948 3.87443
# Velocity P-wave (km/s) = 6.54444 7.41101 6.99117
#
# Compressibility (1/GPa) = 0.01731559
#
# Stress axis : x y z
#
# Youngs Moduli (GPa) = 69.17354 126.36332 142.07858
#
# Poissons Ratio (x) = 0.29584 0.29393
# Poissons Ratio (y) = 0.16195 0.23250
# Poissons Ratio (z) = 0.14310 0.20678
#
# Static dielectric constant tensor:
#      x y z
#    x 1.903420 0.000000 -0.003960 
#    y 0.000000 1.869080 0.000000 
#    z -0.003960 0.000000 2.016460 
# 
# From -- ./inp_files/300807.got.cif
#   From: 2010.05.17/outbox.cif.g08.bks.cpg/sg15_151_cif.got.tgz:300807.got - 2010.06.03 18:47:42.
