data_PCOD9261408
_publ_section_title
;
Structure prediction by ZEFSAII (Michael W. Deem and Ramdas Pophale) SiO2 
 PCOD9261408
Probable space group: C 2/C
;
_chemical_formula_sum "Si O2"
_cell_formula_units_Z 56
_cell_length_a 11.749200
_cell_length_b 15.442431
_cell_length_c 16.935847
_cell_angle_alpha 90.000000
_cell_angle_beta 55.478444
_cell_angle_gamma 90.000000
_cell_volume 2531.700116
_symmetry_space_group_name_H-M "C 2/C"
_symmetry_group_IT_number 15
_symmetry_cell_setting 'monoclinic'
loop_
_space_group_symop_operation_xyz
x,y,z
-x,y,1/2-z
-x,-y,-z
x,-y,1/2+z
1/2+x,1/2+y,z
1/2-x,1/2+y,1/2-z
1/2-x,1/2-y,-z
1/2+x,1/2-y,1/2+z
loop_
_atom_site_type_symbol
_atom_site_label
_atom_site_fract_x
_atom_site_fract_y
_atom_site_fract_z
Si Si1 0.148260 0.035628 0.545730
Si Si2 0.090828 0.651481 0.101151
Si Si3 0.858577 0.109603 0.667803
Si Si4 0.206075 0.376038 0.083358
Si Si5 0.500000 0.713807 0.750000
Si Si6 0.500000 0.010395 0.250000
Si Si7 0.547024 0.138757 0.498200
Si Si8 0.207478 0.514012 0.854570
O O1 0.267089 0.100589 0.468164
O O2 0.170573 0.037478 0.631418
O O3 0.997234 0.065290 0.581727
O O4 0.185167 0.939904 0.501614
O O5 0.103647 0.727715 0.157905
O O6 0.987416 0.580594 0.182742
O O7 0.029632 0.687542 0.042913
O O8 0.782687 0.163979 0.628906
O O9 0.908240 0.166686 0.721154
O O10 0.763219 0.034677 0.745464
O O11 0.124169 0.325809 0.046146
O O12 0.102823 0.443245 0.167040
O O13 0.424457 0.076546 0.579277
O O14 0.655797 0.077952 0.408466
#
# Coordination Sequence:
#
# PCOD9261408 Si02
#       8
#     8   8   8   8   4   4   8   8
#     4   9  18  33  51  77 105 135 167 210 265 307
#     4   9  19  36  54  74 100 140 183 213 243 300
#     4  12  20  33  47  78 110 138 168 209 257 317
#     4  10  19  29  53  81 108 128 161 215 275 313
#     4  11  24  36  52  74 100 145 186 210 246 297
#     4   9  16  32  56  84 102 129 170 220 260 295
#     4   9  17  32  53  80 100 132 166 218 265 303
#     4   9  16  30  54  78 107 125 166 216 266 304
#
# _framework density 22.119523999999998
#
# number of rings (size 3 to 8) (size 9 to 14) (size 15 to 20)
#    0.000    2.286    1.429    4.714    0.000    0.571 
#    0.000    0.714    0.000    0.000    3.714    0.000 
#    0.000    0.000    0.000    0.000    0.000    0.000 
#
# Total GULP energy -155895.708800 kJ/mol
# GULP energy per Si atom -5567.703886 kJ/mol
# Density = 2.206918 g / cm^3
# Si number density = 22.119524 Si / 1000 Ang^3
#
#
#
# Elastic Constant Matrix: (Units=GPa)
#
#
# Indices 1 2 3 4 5 6 
#
# 1 84.5577 -5.5943 41.9582 0.0000 25.9503 0.0000
# 2 -5.5943 11.7842 5.0840 0.0000 0.7639 0.0000
# 3 41.9582 5.0840 92.5090 0.0000 14.9605 0.0000
# 4 0.0000 0.0000 0.0000 -5.6660 0.0000 8.6590
# 5 25.9503 0.7639 14.9605 0.0000 40.6431 0.0000
# 6 0.0000 0.0000 0.0000 8.6590 0.0000 20.2390
#
#
#
# Elastic Compliance Matrix: (Units=1/GPa)
#
#
# Indices 1 2 3 4 5 6 
#
# 1 0.019789 0.013539 -0.008118 0.000000 -0.009901 0.000000
# 2 0.013539 0.096183 -0.010352 0.000000 -0.006641 0.000000
# 3 -0.008118 -0.010352 0.015089 0.000000 -0.000176 0.000000
# 4 0.000000 0.000000 0.000000 -0.106716 0.000000 0.045657
# 5 -0.009901 -0.006641 -0.000176 0.000000 0.031116 0.000000
# 6 0.000000 0.000000 0.000000 0.045657 0.000000 0.029876
#
#
# Mechanical properties :
#
#
# Convention : Reuss Voigt Hill
#
# Bulk Modulus (GPa) = 8.25099 30.19407 19.22253
# Shear Modulus (GPa) = 36.87301 20.87008 28.87154
#
# Velocity S-wave (km/s) = 4.08731 3.07500 3.61675
# Velocity P-wave (km/s) = 5.10030 5.12714 5.11374
#
# Compressibility (1/GPa) = 0.12119755
#
# Stress axis : x y z
#
# Youngs Moduli (GPa) = 50.53329 10.39680 66.27204
#
# Poissons Ratio (x) = -0.14076 0.53801
# Poissons Ratio (y) = -0.68415 0.68608
# Poissons Ratio (z) = 0.41024 0.10763
#
# Static dielectric constant tensor:
#      x y z
#    x 1.906580 0.000000 0.027710 
#    y 0.000000 1.851800 0.000000 
#    z 0.027710 0.000000 1.849920 
# 
# From -- ./inp_files/199098.got.cif
#   From: 2010.05.17/outbox.cif.g08.bks.cpg/sg15_100_cif.got.tgz:199098.got - 2010.06.03 18:47:42.
