data_PCOD9261956
_publ_section_title
;
Structure prediction by ZEFSAII (Michael W. Deem and Ramdas Pophale) SiO2 
 PCOD9261956
Probable space group: C 2/C
;
_chemical_formula_sum "Si O2"
_cell_formula_units_Z 40
_cell_length_a 23.115514
_cell_length_b 9.357136
_cell_length_c 9.077241
_cell_angle_alpha 90.000000
_cell_angle_beta 80.181808
_cell_angle_gamma 90.000000
_cell_volume 1934.606136
_symmetry_space_group_name_H-M "C 2/C"
_symmetry_group_IT_number 15
_symmetry_cell_setting 'monoclinic'
loop_
_space_group_symop_operation_xyz
x,y,z
-x,y,1/2-z
-x,-y,-z
x,-y,1/2+z
1/2+x,1/2+y,z
1/2-x,1/2+y,1/2-z
1/2-x,1/2-y,-z
1/2+x,1/2-y,1/2+z
loop_
_atom_site_type_symbol
_atom_site_label
_atom_site_fract_x
_atom_site_fract_y
_atom_site_fract_z
Si Si1 0.252051 0.940279 0.351109
Si Si2 0.074286 0.864384 0.073999
Si Si3 0.444584 0.330087 0.071796
Si Si4 0.341764 0.770402 0.464913
Si Si5 0.683242 0.726375 0.349172
O O1 0.303056 0.909651 0.448003
O O2 0.198194 0.838899 0.424388
O O3 0.279693 0.870379 0.192053
O O4 0.229312 0.098588 0.348028
O O5 0.071121 0.860058 0.251585
O O6 0.013671 0.797689 0.038003
O O7 0.132822 0.788044 0.991353
O O8 0.070542 0.026756 0.014635
O O9 0.402627 0.210827 0.020770
O O10 0.347939 0.705872 0.297488
#
# Coordination Sequence:
#
# PCOD9261956 Si02
#       5
#     8   8   8   8   8
#     4   9  20  34  56  78 115 158 179 233 272 336
#     4  10  20  30  54  78 119 141 183 238 291 330
#     4  10  19  32  50  84 111 145 180 241 295 323
#     4   9  19  34  55  74 122 143 182 227 290 321
#     4  10  19  36  56  81 118 148 189 220 286 337
#
# _framework density 20.676044000000001
#
# number of rings (size 3 to 8) (size 9 to 14) (size 15 to 20)
#    1.200    1.200    2.000    1.200    0.000    2.400 
#    0.000    4.000    0.000    0.000    0.000    1.400 
#   12.000    3.600    0.000    0.000    0.000    0.000 
#
# Total GULP energy -111511.501275 kJ/mol
# GULP energy per Si atom -5575.575064 kJ/mol
# Density = 2.062898 g / cm^3
# Si number density = 20.676044 Si / 1000 Ang^3
#
#
#
# Elastic Constant Matrix: (Units=GPa)
#
#
# Indices 1 2 3 4 5 6 
#
# 1 128.7038 41.7415 37.6974 0.0000 3.3234 0.0000
# 2 41.7415 34.8756 35.6874 0.0000 -1.7198 0.0000
# 3 37.6974 35.6874 47.4809 0.0000 -2.8667 0.0000
# 4 0.0000 0.0000 0.0000 15.9772 0.0000 -3.7803
# 5 3.3234 -1.7198 -2.8667 0.0000 43.0964 0.0000
# 6 0.0000 0.0000 0.0000 -3.7803 0.0000 17.5171
#
#
#
# Elastic Compliance Matrix: (Units=1/GPa)
#
#
# Indices 1 2 3 4 5 6 
#
# 1 0.013176 -0.021858 0.005877 0.000000 -0.001497 0.000000
# 2 -0.021858 0.160515 -0.103218 0.000000 0.001225 0.000000
# 3 0.005877 -0.103218 0.094077 0.000000 0.001686 0.000000
# 4 0.000000 0.000000 0.000000 0.065957 0.000000 0.014234
# 5 -0.001497 0.001225 0.001686 0.000000 0.023480 0.000000
# 6 0.000000 0.000000 0.000000 0.014234 0.000000 0.060159
#
#
# Mechanical properties :
#
#
# Convention : Reuss Voigt Hill
#
# Bulk Modulus (GPa) = 34.04701 49.03476 41.54089
# Shear Modulus (GPa) = 7.51256 21.71376 14.61316
#
# Velocity S-wave (km/s) = 1.90823 3.24418 2.66139
# Velocity P-wave (km/s) = 4.62145 6.14818 5.43865
#
# Compressibility (1/GPa) = 0.02937116
#
# Stress axis : x y z
#
# Youngs Moduli (GPa) = 75.89592 6.22994 10.62957
#
# Poissons Ratio (x) = 0.13617 -0.06247
# Poissons Ratio (y) = 1.65890 1.09716
# Poissons Ratio (z) = -0.44605 0.64304
#
# Static dielectric constant tensor:
#      x y z
#    x 1.761820 0.000000 0.003810 
#    y 0.000000 1.732090 0.000000 
#    z 0.003810 0.000000 1.773880 
# 
# From -- ./inp_files/60288.got.cif
#   From: 2010.05.17/outbox.cif.g08.bks.cpg/sg15_31_cif.got.tgz:60288.got - 2010.06.03 18:47:42.
