data_PCOD9261714
_publ_section_title
;
Structure prediction by ZEFSAII (Michael W. Deem and Ramdas Pophale) SiO2 
 PCOD9261714
Probable space group: C 2/C
;
_chemical_formula_sum "Si O2"
_cell_formula_units_Z 60
_cell_length_a 5.575264
_cell_length_b 31.704503
_cell_length_c 15.921534
_cell_angle_alpha 90.000000
_cell_angle_beta 59.521916
_cell_angle_gamma 90.000000
_cell_volume 2425.434179
_symmetry_space_group_name_H-M "C 2/C"
_symmetry_group_IT_number 15
_symmetry_cell_setting 'monoclinic'
loop_
_space_group_symop_operation_xyz
x,y,z
-x,y,1/2-z
-x,-y,-z
x,-y,1/2+z
1/2+x,1/2+y,z
1/2-x,1/2+y,1/2-z
1/2-x,1/2-y,-z
1/2+x,1/2-y,1/2+z
loop_
_atom_site_type_symbol
_atom_site_label
_atom_site_fract_x
_atom_site_fract_y
_atom_site_fract_z
Si Si1 0.657088 0.154371 0.381123
Si Si2 0.479037 0.467044 0.927385
Si Si3 0.725987 0.030665 0.857275
Si Si4 0.907986 0.748115 0.063992
Si Si5 0.688329 0.661494 0.879843
Si Si6 0.331880 0.874674 0.104936
Si Si7 0.000000 0.508429 0.250000
Si Si8 0.387597 0.374113 0.591643
O O1 0.663998 0.204751 0.375165
O O2 0.497004 0.145252 0.497890
O O3 0.444574 0.131312 0.355315
O O4 0.964895 0.137004 0.346871
O O5 0.248018 0.489227 0.910491
O O6 0.730873 0.464473 0.814566
O O7 0.487367 0.419613 0.958185
O O8 0.500000 0.500000 0.000000
O O9 0.675695 0.075084 0.907999
O O10 0.000000 0.034569 0.750000
O O11 0.493258 0.021737 0.830742
O O12 0.796057 0.788630 0.134353
O O13 0.750000 0.750000 0.000000
O O14 0.250000 0.750000 0.000000
O O15 0.485396 0.640602 0.847503
O O16 0.982653 0.639343 0.848275
O O17 0.510577 0.656998 0.998664
#
# Coordination Sequence:
#
# PCOD9261714 Si02
#       8
#     8   8   8   8   8   8   4   8
#     4  10  19  31  50  85 122 153 200 253 310 383
#     4  11  24  41  65  90 126 174 216 273 334 384
#     4  10  24  42  60  86 124 168 212 270 327 394
#     4  12  16  30  47  77 129 160 186 253 323 368
#     4  10  19  31  50  86 120 157 198 253 306 386
#     4  10  19  32  53  76 116 153 203 245 302 368
#     4  10  26  44  60  92 124 172 222 270 332 400
#     4  10  20  32  51  83 115 152 208 253 304 375
#
# _framework density 24.737839000000001
#
# number of rings (size 3 to 8) (size 9 to 14) (size 15 to 20)
#    0.000    1.600    5.333    1.600    9.333    0.533 
#    0.000    0.000    0.000    0.000    0.000    0.000 
#   22.000    0.000    0.000    0.000    0.000    0.000 
#
# Total GULP energy -167417.653052 kJ/mol
# GULP energy per Si atom -5580.588435 kJ/mol
# Density = 2.468153 g / cm^3
# Si number density = 24.737839 Si / 1000 Ang^3
#
#
#
# Elastic Constant Matrix: (Units=GPa)
#
#
# Indices 1 2 3 4 5 6 
#
# 1 229.7999 45.9786 23.5187 0.0000 0.5969 0.0000
# 2 45.9786 166.7077 -6.5398 0.0000 10.8676 0.0000
# 3 23.5187 -6.5398 57.5478 0.0000 -9.2600 0.0000
# 4 0.0000 0.0000 0.0000 -20.5091 0.0000 -13.4074
# 5 0.5969 10.8676 -9.2600 0.0000 47.2797 0.0000
# 6 0.0000 0.0000 0.0000 -13.4074 0.0000 5.8326
#
#
#
# Elastic Compliance Matrix: (Units=1/GPa)
#
#
# Indices 1 2 3 4 5 6 
#
# 1 0.004857 -0.001414 -0.002172 0.000000 -0.000162 0.000000
# 2 -0.001414 0.006515 0.001115 0.000000 -0.001261 0.000000
# 3 -0.002172 0.001115 0.018952 0.000000 0.003483 0.000000
# 4 0.000000 0.000000 0.000000 -0.019482 0.000000 -0.044784
# 5 -0.000162 -0.001261 0.003483 0.000000 0.022125 0.000000
# 6 0.000000 0.000000 0.000000 -0.044784 0.000000 0.068506
#
#
# Mechanical properties :
#
#
# Convention : Reuss Voigt Hill
#
# Bulk Modulus (GPa) = 39.39796 64.44115 51.91955
# Shear Modulus (GPa) = 43.52615 32.59383 38.05999
#
# Velocity S-wave (km/s) = 4.19919 3.63377 3.92667
# Velocity P-wave (km/s) = 6.28265 6.61150 6.44917
#
# Compressibility (1/GPa) = 0.02538203
#
# Stress axis : x y z
#
# Youngs Moduli (GPa) = 205.87644 153.50217 52.76593
#
# Poissons Ratio (x) = 0.21710 0.11460
# Poissons Ratio (y) = 0.29118 -0.05886
# Poissons Ratio (z) = 0.44712 -0.17122
#
# Static dielectric constant tensor:
#      x y z
#    x 2.136300 0.000000 -0.059900 
#    y 0.000000 2.109170 0.000000 
#    z -0.059900 0.000000 2.033870 
# 
# From -- ./inp_files/228774.got.cif
#   From: 2010.05.17/outbox.cif.g08.bks.cpg/sg15_115_cif.got.tgz:228774.got - 2010.06.03 18:47:42.
