data_PCOD9261378
_publ_section_title
;
Structure prediction by ZEFSAII (Michael W. Deem and Ramdas Pophale) SiO2 
 PCOD9261378
Probable space group: C 2/C
;
_chemical_formula_sum "Si O2"
_cell_formula_units_Z 56
_cell_length_a 9.870888
_cell_length_b 21.138987
_cell_length_c 10.194283
_cell_angle_alpha 90.000000
_cell_angle_beta 88.710613
_cell_angle_gamma 90.000000
_cell_volume 2126.606329
_symmetry_space_group_name_H-M "C 2/C"
_symmetry_group_IT_number 15
_symmetry_cell_setting 'monoclinic'
loop_
_space_group_symop_operation_xyz
x,y,z
-x,y,1/2-z
-x,-y,-z
x,-y,1/2+z
1/2+x,1/2+y,z
1/2-x,1/2+y,1/2-z
1/2-x,1/2-y,-z
1/2+x,1/2-y,1/2+z
loop_
_atom_site_type_symbol
_atom_site_label
_atom_site_fract_x
_atom_site_fract_y
_atom_site_fract_z
Si Si1 0.335797 0.762283 0.850276
Si Si2 0.352382 0.836775 0.586846
Si Si3 0.913866 0.439919 0.955028
Si Si4 0.392855 0.656589 0.012510
Si Si5 0.654683 0.835979 0.200860
Si Si6 0.314258 0.564038 0.816526
Si Si7 0.321535 0.424801 0.747105
O O1 0.374587 0.792858 0.711397
O O2 0.436325 0.723716 0.945220
O O3 0.227248 0.709737 0.802621
O O4 0.253734 0.815811 0.931610
O O5 0.480204 0.883437 0.566283
O O6 0.335548 0.807612 0.444036
O O7 0.223659 0.878843 0.634658
O O8 0.819926 0.443124 0.827770
O O9 0.806707 0.433232 0.074247
O O10 0.000000 0.500000 0.000000
O O11 0.418320 0.609408 0.890117
O O12 0.416811 0.612135 0.139797
O O13 0.500000 0.846018 0.250000
O O14 0.743015 0.900466 0.197195
O O15 0.363687 0.493756 0.794724
#
# Coordination Sequence:
#
# PCOD9261378 Si02
#       7
#     8   8   8   8   8   8   8
#     4   9  19  37  50  63  94 146 195 220 257 304
#     4  11  20  30  47  69 101 145 186 214 251 309
#     4  11  19  28  41  69 110 144 173 200 237 307
#     4   8  18  35  51  63  96 146 183 219 256 296
#     4  11  21  32  48  72 101 137 180 224 267 305
#     4  10  19  29  46  71 106 142 172 201 251 321
#     4  10  20  29  46  74 105 143 177 204 250 315
#
# _framework density 26.333036
#
# number of rings (size 3 to 8) (size 9 to 14) (size 15 to 20)
#    0.000    2.000    2.857    1.714    2.000    0.000 
#    2.571    0.000    0.000    0.000    0.000    0.000 
#    0.000    4.571    1.143    0.571    0.000    0.000 
#
# Total GULP energy -156320.897491 kJ/mol
# GULP energy per Si atom -5582.889196 kJ/mol
# Density = 2.627310 g / cm^3
# Si number density = 26.333036 Si / 1000 Ang^3
#
#
#
# Elastic Constant Matrix: (Units=GPa)
#
#
# Indices 1 2 3 4 5 6 
#
# 1 65.4083 10.7671 24.2322 0.0000 -16.1005 0.0000
# 2 10.7671 144.5316 53.8904 0.0000 -8.4014 0.0000
# 3 24.2322 53.8904 194.8228 0.0000 -0.8896 0.0000
# 4 0.0000 0.0000 0.0000 55.9800 0.0000 -1.6590
# 5 -16.1005 -8.4014 -0.8896 0.0000 34.8355 0.0000
# 6 0.0000 0.0000 0.0000 -1.6590 0.0000 13.0936
#
#
#
# Elastic Compliance Matrix: (Units=1/GPa)
#
#
# Indices 1 2 3 4 5 6 
#
# 1 0.018164 -0.000046 -0.002209 0.000000 0.008328 0.000000
# 2 -0.000046 0.007830 -0.002152 0.000000 0.001812 0.000000
# 3 -0.002209 -0.002152 0.005997 0.000000 -0.001387 0.000000
# 4 0.000000 0.000000 0.000000 0.017931 0.000000 0.002272
# 5 0.008328 0.001812 -0.001387 0.000000 0.032957 0.000000
# 6 0.000000 0.000000 0.000000 0.002272 0.000000 0.076661
#
#
# Mechanical properties :
#
#
# Convention : Reuss Voigt Hill
#
# Bulk Modulus (GPa) = 43.14344 64.72691 53.93517
# Shear Modulus (GPa) = 28.39647 41.84003 35.11825
#
# Velocity S-wave (km/s) = 3.28740 3.99040 3.65584
# Velocity P-wave (km/s) = 5.55236 6.77234 6.19246
#
# Compressibility (1/GPa) = 0.02317850
#
# Stress axis : x y z
#
# Youngs Moduli (GPa) = 55.05313 127.71353 166.76383
#
# Poissons Ratio (x) = 0.00582 0.36832
# Poissons Ratio (y) = 0.00251 0.35887
# Poissons Ratio (z) = 0.12159 0.27483
#
# Static dielectric constant tensor:
#      x y z
#    x 2.223690 0.000000 0.060220 
#    y 0.000000 2.114030 0.000000 
#    z 0.060220 0.000000 2.113440 
# 
# From -- ./inp_files/99375.got.cif
#   From: 2010.05.17/outbox.cif.g08.bks.cpg/sg15_50_cif.got.tgz:99375.got - 2010.06.03 18:47:42.
