data_PCOD9261400
_publ_section_title
;
Structure prediction by ZEFSAII (Michael W. Deem and Ramdas Pophale) SiO2 
 PCOD9261400
Probable space group: C 2/C
;
_chemical_formula_sum "Si O2"
_cell_formula_units_Z 48
_cell_length_a 10.869279
_cell_length_b 28.494992
_cell_length_c 8.242355
_cell_angle_alpha 90.000000
_cell_angle_beta 43.488936
_cell_angle_gamma 90.000000
_cell_volume 1756.889327
_symmetry_space_group_name_H-M "C 2/C"
_symmetry_group_IT_number 15
_symmetry_cell_setting 'monoclinic'
loop_
_space_group_symop_operation_xyz
x,y,z
-x,y,1/2-z
-x,-y,-z
x,-y,1/2+z
1/2+x,1/2+y,z
1/2-x,1/2+y,1/2-z
1/2-x,1/2-y,-z
1/2+x,1/2-y,1/2+z
loop_
_atom_site_type_symbol
_atom_site_label
_atom_site_fract_x
_atom_site_fract_y
_atom_site_fract_z
Si Si1 0.314774 0.337657 0.021327
Si Si2 0.264733 0.187628 0.376195
Si Si3 0.098548 0.268811 0.418753
Si Si4 0.217590 0.070851 0.082733
Si Si5 0.716773 0.508695 0.787200
Si Si6 0.196387 0.100725 0.630777
O O1 0.500000 0.327206 0.750000
O O2 0.220428 0.376104 0.993966
O O3 0.205373 0.291046 0.168101
O O4 0.322217 0.369079 0.182451
O O5 0.089766 0.213165 0.469506
O O6 0.307156 0.210718 0.509615
O O7 0.278598 0.133753 0.412268
O O8 0.407568 0.207119 0.113194
O O9 0.000000 0.073415 0.250000
O O10 0.274571 0.043726 0.189320
O O11 0.280339 0.034361 0.886805
O O12 0.762474 0.549054 0.611763
O O13 0.500000 0.500000 0.000000
O O14 0.000000 0.093108 0.750000
#
# Coordination Sequence:
#
# PCOD9261400 Si02
#       6
#     8   8   8   8   8   8
#     4   9  18  31  49  75 103 135 170 210 262 318
#     4   9  19  31  53  75 100 133 174 220 263 300
#     4   9  18  33  52  74 100 136 172 217 264 310
#     4   8  14  24  41  66  97 128 161 202 247 295
#     4   9  15  25  42  70 104 130 163 207 252 297
#     4  10  19  29  50  79 102 132 174 217 255 300
#
# _framework density 27.321014000000002
#
# number of rings (size 3 to 8) (size 9 to 14) (size 15 to 20)
#    0.000    3.000    0.000    2.500    7.000    0.000 
#    0.000    0.833    0.000    1.000    0.000    4.667 
#    0.000    0.000    0.000    0.000    0.000    0.000 
#
# Total GULP energy -133921.482596 kJ/mol
# GULP energy per Si atom -5580.061775 kJ/mol
# Density = 2.725883 g / cm^3
# Si number density = 27.321014 Si / 1000 Ang^3
#
#
#
# Elastic Constant Matrix: (Units=GPa)
#
#
# Indices 1 2 3 4 5 6 
#
# 1 33.6988 18.4939 17.2681 0.0000 12.1759 0.0000
# 2 18.4939 188.1368 62.1836 0.0000 18.3858 0.0000
# 3 17.2681 62.1836 115.1107 0.0000 1.7646 0.0000
# 4 0.0000 0.0000 0.0000 50.3913 0.0000 13.9512
# 5 12.1759 18.3858 1.7646 0.0000 35.2110 0.0000
# 6 0.0000 0.0000 0.0000 13.9512 0.0000 8.8930
#
#
#
# Elastic Compliance Matrix: (Units=1/GPa)
#
#
# Indices 1 2 3 4 5 6 
#
# 1 0.037033 -0.000828 -0.004922 0.000000 -0.012127 0.000000
# 2 -0.000828 0.006872 -0.003540 0.000000 -0.003124 0.000000
# 3 -0.004922 -0.003540 0.011292 0.000000 0.002985 0.000000
# 4 0.000000 0.000000 0.000000 0.035082 0.000000 -0.055036
# 5 -0.012127 -0.003124 0.002985 0.000000 0.034076 0.000000
# 6 0.000000 0.000000 0.000000 -0.055036 0.000000 0.198787
#
#
# Mechanical properties :
#
#
# Convention : Reuss Voigt Hill
#
# Bulk Modulus (GPa) = 27.31027 59.20416 43.25721
# Shear Modulus (GPa) = 14.12713 34.83245 24.47979
#
# Velocity S-wave (km/s) = 2.27640 3.57449 2.99658
# Velocity P-wave (km/s) = 4.11426 6.22518 5.27636
#
# Compressibility (1/GPa) = 0.03661626
#
# Stress axis : x y z
#
# Youngs Moduli (GPa) = 27.00290 145.51418 88.55545
#
# Poissons Ratio (x) = 0.12054 0.43587
# Poissons Ratio (y) = 0.02237 0.31351
# Poissons Ratio (z) = 0.13291 0.51515
#
# Static dielectric constant tensor:
#      x y z
#    x 2.232280 0.000000 -0.053120 
#    y 0.000000 2.230400 0.000000 
#    z -0.053120 0.000000 2.342080 
# 
# From -- ./inp_files/43786.got.cif
#   From: 2010.05.17/outbox.cif.g08.bks.cpg/sg15_22_cif.got.tgz:43786.got - 2010.06.03 18:47:42.
