data_PCOD9261847
_publ_section_title
;
Structure prediction by ZEFSAII (Michael W. Deem and Ramdas Pophale) SiO2 
 PCOD9261847
Probable space group: C 2/C
;
_chemical_formula_sum "Si O2"
_cell_formula_units_Z 36
_cell_length_a 18.998360
_cell_length_b 7.580719
_cell_length_c 24.629587
_cell_angle_alpha 90.000000
_cell_angle_beta 21.407291
_cell_angle_gamma 90.000000
_cell_volume 1294.705120
_symmetry_space_group_name_H-M "C 2/C"
_symmetry_group_IT_number 15
_symmetry_cell_setting 'monoclinic'
loop_
_space_group_symop_operation_xyz
x,y,z
-x,y,1/2-z
-x,-y,-z
x,-y,1/2+z
1/2+x,1/2+y,z
1/2-x,1/2+y,1/2-z
1/2-x,1/2-y,-z
1/2+x,1/2-y,1/2+z
loop_
_atom_site_type_symbol
_atom_site_label
_atom_site_fract_x
_atom_site_fract_y
_atom_site_fract_z
Si Si1 0.000000 0.776048 0.750000
Si Si2 0.219753 0.312512 0.194769
Si Si3 0.198385 0.116606 0.584394
Si Si4 0.364476 0.224641 0.569347
Si Si5 0.600812 0.519977 0.840340
O O1 0.117691 0.671411 0.710578
O O2 0.137510 0.914384 0.617858
O O3 0.257074 0.473919 0.209381
O O4 0.095315 0.167926 0.317237
O O5 0.433332 0.218966 0.043276
O O6 0.250000 0.250000 0.500000
O O7 0.343256 0.105311 0.530813
O O8 0.000000 0.196974 0.750000
O O9 0.403071 0.409201 0.508625
O O10 0.192483 0.155801 0.730983
#
# Coordination Sequence:
#
# PCOD9261847 Si02
#       5
#     4   8   8   8   8
#     4  10  20  36  58  88 114 160 194 236 294 354
#     4  10  22  38  64  83 121 157 200 235 299 349
#     4  10  19  31  58  87 116 145 200 242 285 336
#     4  10  20  37  60  84 121 153 197 234 303 340
#     4  10  21  36  63  87 114 160 195 240 291 357
#
# _framework density 27.805558999999999
#
# number of rings (size 3 to 8) (size 9 to 14) (size 15 to 20)
#    2.000    0.000    2.222    3.333    0.000    0.889 
#    0.000    1.111    0.000    1.333    0.000    0.000 
#    0.000    0.000    0.000    0.000    0.000    0.000 
#
# Total GULP energy -100455.968730 kJ/mol
# GULP energy per Si atom -5580.887152 kJ/mol
# Density = 2.774227 g / cm^3
# Si number density = 27.805559 Si / 1000 Ang^3
#
#
#
# Elastic Constant Matrix: (Units=GPa)
#
#
# Indices 1 2 3 4 5 6 
#
# 1 238.8115 43.6323 56.0653 0.0024 -23.1557 0.0011
# 2 43.6323 69.9138 21.3962 0.0072 -7.3561 0.0040
# 3 56.0653 21.3962 111.0931 0.0104 19.1256 0.0014
# 4 0.0024 0.0072 0.0104 45.6814 -0.0005 -3.2857
# 5 -23.1557 -7.3561 19.1256 -0.0005 64.1922 0.0001
# 6 0.0011 0.0040 0.0014 -3.2857 0.0001 32.2337
#
#
#
# Elastic Compliance Matrix: (Units=1/GPa)
#
#
# Indices 1 2 3 4 5 6 
#
# 1 0.005509 -0.002322 -0.002772 0.000001 0.002547 0.000000
# 2 -0.002322 0.016655 -0.002340 -0.000002 0.001768 -0.000002
# 3 -0.002772 -0.002340 0.011668 -0.000002 -0.004744 0.000000
# 4 0.000001 -0.000002 -0.000002 0.022052 0.000001 0.002248
# 5 0.002547 0.001768 -0.004744 0.000001 0.018113 0.000000
# 6 0.000000 -0.000002 0.000000 0.002248 0.000000 0.031253
#
#
# Mechanical properties :
#
#
# Convention : Reuss Voigt Hill
#
# Bulk Modulus (GPa) = 52.73163 73.55621 63.14392
# Shear Modulus (GPa) = 39.54474 48.33643 43.94059
#
# Velocity S-wave (km/s) = 3.77528 4.17390 3.97959
# Velocity P-wave (km/s) = 6.16517 7.05265 6.62379
#
# Compressibility (1/GPa) = 0.01896395
#
# Stress axis : x y z
#
# Youngs Moduli (GPa) = 181.51053 60.04303 85.70666
#
# Poissons Ratio (x) = 0.13942 0.23755
# Poissons Ratio (y) = 0.42148 0.20057
# Poissons Ratio (z) = 0.50308 0.14051
#
# Static dielectric constant tensor:
#      x y z
#    x 2.188140 -0.000010 0.013280 
#    y -0.000010 2.338850 0.000010 
#    z 0.013280 0.000010 2.190170 
# 
# From -- ./inp_files/94737.got.cif
#   From: 2010.05.17/outbox.cif.g08.bks.cpg/sg15_48_cif.got.tgz:94737.got - 2010.06.03 18:47:42.
