data_PCOD9261366
_publ_section_title
;
Structure prediction by ZEFSAII (Michael W. Deem and Ramdas Pophale) SiO2 
 PCOD9261366
Probable space group: C 2/C
;
_chemical_formula_sum "Si O2"
_cell_formula_units_Z 40
_cell_length_a 12.395128
_cell_length_b 30.331759
_cell_length_c 5.371442
_cell_angle_alpha 90.000000
_cell_angle_beta 89.337537
_cell_angle_gamma 90.000000
_cell_volume 2019.344768
_symmetry_space_group_name_H-M "C 2/C"
_symmetry_group_IT_number 15
_symmetry_cell_setting 'monoclinic'
loop_
_space_group_symop_operation_xyz
x,y,z
-x,y,1/2-z
-x,-y,-z
x,-y,1/2+z
1/2+x,1/2+y,z
1/2-x,1/2+y,1/2-z
1/2-x,1/2-y,-z
1/2+x,1/2-y,1/2+z
loop_
_atom_site_type_symbol
_atom_site_label
_atom_site_fract_x
_atom_site_fract_y
_atom_site_fract_z
Si Si1 0.320037 0.907428 0.314026
Si Si2 0.371799 0.717703 0.248362
Si Si3 0.672056 0.484862 0.325010
Si Si4 0.250971 0.691116 0.755763
Si Si5 0.885428 0.547130 0.316935
O O1 0.304618 0.856018 0.273393
O O2 0.364382 0.919979 0.585415
O O3 0.206002 0.934094 0.306100
O O4 0.385590 0.927435 0.078835
O O5 0.500000 0.713952 0.250000
O O6 0.322722 0.699522 0.507627
O O7 0.334265 0.768740 0.229831
O O8 0.320524 0.693927 0.007830
O O9 0.616763 0.497422 0.581606
O O10 0.786378 0.512772 0.329589
O O11 0.000000 0.525487 0.250000
#
# Coordination Sequence:
#
# PCOD9261366 Si02
#       5
#     8   8   8   8   8
#     4  10  19  31  46  68  99 132 170 208 245 290
#     4  10  21  38  58  78 105 138 169 213 271 314
#     4   8  16  27  41  61  93 131 169 199 241 293
#     4  10  21  37  56  80 107 134 174 218 254 309
#     4  10  19  29  43  67 103 141 173 206 247 302
#
# _framework density 19.808406999999999
#
# number of rings (size 3 to 8) (size 9 to 14) (size 15 to 20)
#    0.000    2.400    0.000    2.400    0.000    8.800 
#    0.000    0.000    0.000    0.000    0.000    0.000 
#    0.000  144.000    0.000    0.000    0.000    0.000 
#
# Total GULP energy -111612.585358 kJ/mol
# GULP energy per Si atom -5580.629268 kJ/mol
# Density = 1.976332 g / cm^3
# Si number density = 19.808407 Si / 1000 Ang^3
#
#
#
# Elastic Constant Matrix: (Units=GPa)
#
#
# Indices 1 2 3 4 5 6 
#
# 1 52.0904 -0.2591 8.8294 0.0000 6.3870 0.0000
# 2 -0.2591 88.2296 21.4413 0.0000 -2.1384 0.0000
# 3 8.8294 21.4413 164.4766 0.0000 -12.8115 0.0000
# 4 0.0000 0.0000 0.0000 22.9972 0.0000 -0.2295
# 5 6.3870 -2.1384 -12.8115 0.0000 17.0473 0.0000
# 6 0.0000 0.0000 0.0000 -0.2295 0.0000 9.9482
#
#
#
# Elastic Compliance Matrix: (Units=1/GPa)
#
#
# Indices 1 2 3 4 5 6 
#
# 1 0.020627 0.000291 -0.001853 0.000000 -0.009084 0.000000
# 2 0.000291 0.011711 -0.001526 0.000000 0.000214 0.000000
# 3 -0.001853 -0.001526 0.006816 0.000000 0.005625 0.000000
# 4 0.000000 0.000000 0.000000 0.043494 0.000000 0.001003
# 5 -0.009084 0.000214 0.005625 0.000000 0.066318 0.000000
# 6 0.000000 0.000000 0.000000 0.001003 0.000000 0.100544
#
#
# Mechanical properties :
#
#
# Convention : Reuss Voigt Hill
#
# Bulk Modulus (GPa) = 30.32268 40.53551 35.42909
# Shear Modulus (GPa) = 18.74924 28.31755 23.53339
#
# Velocity S-wave (km/s) = 3.07991 3.78507 3.45055
# Velocity P-wave (km/s) = 5.29046 6.29369 5.81376
#
# Compressibility (1/GPa) = 0.03297861
#
# Stress axis : x y z
#
# Youngs Moduli (GPa) = 48.48081 85.39092 146.70474
#
# Poissons Ratio (x) = -0.02482 0.27181
# Poissons Ratio (y) = -0.01409 0.22381
# Poissons Ratio (z) = 0.08982 0.13027
#
# Static dielectric constant tensor:
#      x y z
#    x 1.694780 0.000000 0.011180 
#    y 0.000000 1.664260 0.000000 
#    z 0.011180 0.000000 1.768250 
# 
# From -- ./inp_files/4891.got.cif
#   From: 2010.05.17/outbox.cif.g08.bks.cpg/sg15_3_cif.got.tgz:4891.got - 2010.06.03 18:47:42.
