data_PCOD9261368
_publ_section_title
;
Structure prediction by ZEFSAII (Michael W. Deem and Ramdas Pophale) SiO2 
 PCOD9261368
Probable space group: C 2/C
;
_chemical_formula_sum "Si O2"
_cell_formula_units_Z 48
_cell_length_a 16.766650
_cell_length_b 24.320463
_cell_length_c 7.203171
_cell_angle_alpha 90.000000
_cell_angle_beta 123.069804
_cell_angle_gamma 90.000000
_cell_volume 2461.439700
_symmetry_space_group_name_H-M "C 2/C"
_symmetry_group_IT_number 15
_symmetry_cell_setting 'monoclinic'
loop_
_space_group_symop_operation_xyz
x,y,z
-x,y,1/2-z
-x,-y,-z
x,-y,1/2+z
1/2+x,1/2+y,z
1/2-x,1/2+y,1/2-z
1/2-x,1/2-y,-z
1/2+x,1/2-y,1/2+z
loop_
_atom_site_type_symbol
_atom_site_label
_atom_site_fract_x
_atom_site_fract_y
_atom_site_fract_z
Si Si1 0.888233 0.924915 0.065419
Si Si2 0.296324 0.654835 0.899409
Si Si3 0.893114 0.265217 0.925425
Si Si4 0.299491 0.680815 0.350382
Si Si5 0.101280 0.287698 0.122990
Si Si6 0.613339 0.452500 0.863002
O O1 0.829672 0.869447 0.018561
O O2 0.877591 0.932465 0.832932
O O3 0.000000 0.917271 0.250000
O O4 0.854600 0.984048 0.096067
O O5 0.368251 0.699809 0.899049
O O6 0.187162 0.668452 0.699664
O O7 0.297446 0.667095 0.125274
O O8 0.335402 0.592112 0.939279
O O9 0.803259 0.296643 0.729740
O O10 0.893845 0.277858 0.147602
O O11 0.987684 0.290560 0.954812
O O12 0.369965 0.732278 0.447797
O O13 0.500000 0.453391 0.750000
#
# Coordination Sequence:
#
# PCOD9261368 Si02
#       6
#     8   8   8   8   8   8
#     4  10  19  31  44  63  88 118 147 182 218 259
#     4   8  15  23  38  64  89 109 142 178 217 255
#     4   8  13  22  40  63  89 111 138 177 222 255
#     4   8  15  25  39  62  86 113 141 178 219 256
#     4   8  13  23  39  64  87 111 139 179 217 255
#     4  10  19  29  44  65  89 116 148 180 218 260
#
# _framework density 19.500782000000001
#
# number of rings (size 3 to 8) (size 9 to 14) (size 15 to 20)
#    0.000    3.333    0.000    4.000    7.000    0.000 
#    0.000    0.000    0.000    2.000    0.000    0.000 
#    0.000    0.000    0.000    0.000    0.000    1.333 
#
# Total GULP energy -133637.488911 kJ/mol
# GULP energy per Si atom -5568.228705 kJ/mol
# Density = 1.945640 g / cm^3
# Si number density = 19.500782 Si / 1000 Ang^3
#
#
#
# Elastic Constant Matrix: (Units=GPa)
#
#
# Indices 1 2 3 4 5 6 
#
# 1 44.8873 28.1186 26.3970 0.0000 16.9506 0.0000
# 2 28.1186 141.0717 57.3236 0.0000 24.8366 0.0000
# 3 26.3970 57.3236 58.0144 0.0000 9.9550 0.0000
# 4 0.0000 0.0000 0.0000 37.4625 0.0000 -6.2409
# 5 16.9506 24.8366 9.9550 0.0000 38.5806 0.0000
# 6 0.0000 0.0000 0.0000 -6.2409 0.0000 6.9157
#
#
#
# Elastic Compliance Matrix: (Units=1/GPa)
#
#
# Indices 1 2 3 4 5 6 
#
# 1 0.034994 0.001348 -0.015138 0.000000 -0.012337 0.000000
# 2 0.001348 0.012819 -0.012307 0.000000 -0.005669 0.000000
# 3 -0.015138 -0.012307 0.035349 0.000000 0.005452 0.000000
# 4 0.000000 0.000000 0.000000 0.031416 0.000000 0.028351
# 5 -0.012337 -0.005669 0.005452 0.000000 0.033583 0.000000
# 6 0.000000 0.000000 0.000000 0.028351 0.000000 0.170182
#
#
# Mechanical properties :
#
#
# Convention : Reuss Voigt Hill
#
# Bulk Modulus (GPa) = 32.28962 51.96132 42.12547
# Shear Modulus (GPa) = 13.12823 25.40072 19.26447
#
# Velocity S-wave (km/s) = 2.59745 3.61300 3.14647
# Velocity P-wave (km/s) = 5.05863 6.64143 5.90332
#
# Compressibility (1/GPa) = 0.03096970
#
# Stress axis : x y z
#
# Youngs Moduli (GPa) = 28.57605 78.01117 28.28906
#
# Poissons Ratio (x) = -0.10515 0.42823
# Poissons Ratio (y) = -0.03852 0.34814
# Poissons Ratio (z) = 0.43257 0.96005
#
# Static dielectric constant tensor:
#      x y z
#    x 1.647010 0.000000 -0.045400 
#    y 0.000000 1.782690 0.000000 
#    z -0.045400 0.000000 1.735080 
# 
# From -- ./inp_files/58528.got.cif
#   From: 2010.05.17/outbox.cif.g08.bks.cpg/sg15_30_cif.got.tgz:58528.got - 2010.06.03 18:47:42.
