data_PCOD9261762
_publ_section_title
;
Structure prediction by ZEFSAII (Michael W. Deem and Ramdas Pophale) SiO2 
 PCOD9261762
Probable space group: C 2/C
;
_chemical_formula_sum "Si O2"
_cell_formula_units_Z 52
_cell_length_a 18.145899
_cell_length_b 12.492045
_cell_length_c 16.305178
_cell_angle_alpha 90.000000
_cell_angle_beta 40.037450
_cell_angle_gamma 90.000000
_cell_volume 2377.623827
_symmetry_space_group_name_H-M "C 2/C"
_symmetry_group_IT_number 15
_symmetry_cell_setting 'monoclinic'
loop_
_space_group_symop_operation_xyz
x,y,z
-x,y,1/2-z
-x,-y,-z
x,-y,1/2+z
1/2+x,1/2+y,z
1/2-x,1/2+y,1/2-z
1/2-x,1/2-y,-z
1/2+x,1/2-y,1/2+z
loop_
_atom_site_type_symbol
_atom_site_label
_atom_site_fract_x
_atom_site_fract_y
_atom_site_fract_z
Si Si1 0.430357 0.723241 0.926125
Si Si2 0.500000 0.910862 0.750000
Si Si3 0.484343 0.822459 0.050725
Si Si4 0.574461 0.381379 0.527322
Si Si5 0.826160 0.482159 0.676751
Si Si6 0.249346 0.955125 0.917009
Si Si7 0.113312 0.934143 0.307614
O O1 0.455725 0.833159 0.859581
O O2 0.545167 0.652380 0.813409
O O3 0.427592 0.753886 0.024994
O O4 0.322231 0.649591 0.992779
O O5 0.381309 0.968422 0.829254
O O6 0.396996 0.915726 0.148911
O O7 0.529490 0.738130 0.079041
O O8 0.591435 0.889857 0.924799
O O9 0.672981 0.438764 0.496275
O O10 0.618127 0.384063 0.395377
O O11 0.468284 0.462856 0.621042
O O12 0.753887 0.438349 0.814488
O O13 0.740643 0.527476 0.680171
#
# Coordination Sequence:
#
# PCOD9261762 Si02
#       7
#     8   4   8   8   8   8   8
#     4  10  21  35  53  81 115 147 186 224 280 344
#     4  12  22  36  56  80 112 162 184 224 276 334
#     4  10  19  31  52  84 112 141 180 237 289 332
#     4   8  16  31  50  72 106 140 175 225 283 327
#     4  10  19  31  52  84 112 141 181 236 287 328
#     4  10  21  36  52  79 111 146 190 226 276 339
#     4   8  16  30  48  73 104 141 173 222 278 331
#
# _framework density 21.870574999999999
#
# number of rings (size 3 to 8) (size 9 to 14) (size 15 to 20)
#    0.000    2.462    1.538    3.231    2.154    4.923 
#    0.000    0.000    0.000    0.923    0.000    5.385 
#    0.000    0.000    0.000    0.000    0.000    0.000 
#
# Total GULP energy -144892.734773 kJ/mol
# GULP energy per Si atom -5572.797491 kJ/mol
# Density = 2.182080 g / cm^3
# Si number density = 21.870575 Si / 1000 Ang^3
#
#
#
# Elastic Constant Matrix: (Units=GPa)
#
#
# Indices 1 2 3 4 5 6 
#
# 1 53.8946 26.2359 18.2730 0.0000 -36.5595 0.0000
# 2 26.2359 108.1383 19.9052 0.0000 -24.4755 0.0000
# 3 18.2730 19.9052 51.7876 0.0000 -27.4278 0.0000
# 4 0.0000 0.0000 0.0000 9.5743 0.0000 -7.9019
# 5 -36.5595 -24.4755 -27.4278 0.0000 38.2926 0.0000
# 6 0.0000 0.0000 0.0000 -7.9019 0.0000 5.6338
#
#
#
# Elastic Compliance Matrix: (Units=1/GPa)
#
#
# Indices 1 2 3 4 5 6 
#
# 1 0.059128 -0.002211 0.014721 0.000000 0.065583 0.000000
# 2 -0.002211 0.010915 -0.001351 0.000000 0.003898 0.000000
# 3 0.014721 -0.001351 0.034836 0.000000 0.038143 0.000000
# 4 0.000000 0.000000 0.000000 -0.662716 0.000000 -0.929526
# 5 0.065583 0.003898 0.038143 0.000000 0.118541 0.000000
# 6 0.000000 0.000000 0.000000 -0.929526 0.000000 -1.126253
#
#
# Mechanical properties :
#
#
# Convention : Reuss Voigt Hill
#
# Bulk Modulus (GPa) = 7.86183 38.07208 22.96696
# Shear Modulus (GPa) = -3.23527 20.66056 8.71265
#
# Velocity S-wave (km/s) = -1.21758 3.07689 1.99809
# Velocity P-wave (km/s) = 1.27509 5.48349 3.98086
#
# Compressibility (1/GPa) = 0.12719677
#
# Stress axis : x y z
#
# Youngs Moduli (GPa) = 16.91234 91.61939 28.70596
#
# Poissons Ratio (x) = 0.20260 -0.42257
# Poissons Ratio (y) = 0.03740 0.03877
# Poissons Ratio (z) = -0.24896 0.12375
#
# Static dielectric constant tensor:
#      x y z
#    x 1.900440 0.000000 0.000930 
#    y 0.000000 1.811210 0.000000 
#    z 0.000930 0.000000 1.837840 
# 
# From -- ./inp_files/248580.got.cif
#   From: 2010.05.17/outbox.cif.g08.bks.cpg/sg15_125_cif.got.tgz:248580.got - 2010.06.03 18:47:42.
