data_PCOD9261872
_publ_section_title
;
Structure prediction by ZEFSAII (Michael W. Deem and Ramdas Pophale) SiO2 
 PCOD9261872
Probable space group: C 2/C
;
_chemical_formula_sum "Si O2"
_cell_formula_units_Z 60
_cell_length_a 14.945125
_cell_length_b 26.953127
_cell_length_c 15.331304
_cell_angle_alpha 90.000000
_cell_angle_beta 149.718991
_cell_angle_gamma 90.000000
_cell_volume 3114.055302
_symmetry_space_group_name_H-M "C 2/C"
_symmetry_group_IT_number 15
_symmetry_cell_setting 'monoclinic'
loop_
_space_group_symop_operation_xyz
x,y,z
-x,y,1/2-z
-x,-y,-z
x,-y,1/2+z
1/2+x,1/2+y,z
1/2-x,1/2+y,1/2-z
1/2-x,1/2-y,-z
1/2+x,1/2-y,1/2+z
loop_
_atom_site_type_symbol
_atom_site_label
_atom_site_fract_x
_atom_site_fract_y
_atom_site_fract_z
Si Si1 0.000000 0.463958 0.250000
Si Si2 0.726942 0.523693 0.773602
Si Si3 0.168580 0.627964 0.332759
Si Si4 0.057370 0.426810 0.486848
Si Si5 0.793604 0.729537 0.824806
Si Si6 0.366077 0.825224 0.881546
Si Si7 0.828689 0.977999 0.960918
Si Si8 0.558404 0.708703 0.895045
O O1 0.994243 0.431707 0.157600
O O2 0.820014 0.497520 0.101387
O O3 0.681180 0.511598 0.634184
O O4 0.536318 0.528818 0.660405
O O5 0.877015 0.567025 0.894232
O O6 0.827126 0.475371 0.894112
O O7 0.109934 0.658398 0.198641
O O8 0.255719 0.576501 0.378027
O O9 0.314396 0.661568 0.504105
O O10 0.000000 0.618369 0.250000
O O11 0.167177 0.376923 0.598225
O O12 0.761658 0.777530 0.736573
O O13 0.615090 0.698992 0.691723
O O14 0.846266 0.750104 0.965340
O O15 0.952592 0.696020 0.926957
O O16 0.500000 0.725351 0.750000
#
# Coordination Sequence:
#
# PCOD9261872 Si02
#       8
#     4   8   8   8   8   8   8   8
#     4  10  22  38  56  84 118 150 186 240 278 346
#     4   9  20  35  60  81 109 153 187 227 274 339
#     4  11  21  32  51  78 113 152 185 225 267 332
#     4  10  20  38  60  83 114 152 190 232 289 336
#     4   9  20  34  53  74 102 140 192 239 276 332
#     4  10  20  37  56  79 109 147 188 235 288 334
#     4  10  19  37  52  82 117 144 186 226 275 324
#     4  10  19  32  46  71 103 142 186 225 274 326
#
# _framework density 19.267481
#
# number of rings (size 3 to 8) (size 9 to 14) (size 15 to 20)
#    0.000    2.133    2.000    1.200    1.867    4.267 
#    2.400    0.000    0.000    0.800    0.000    0.000 
#    0.000    0.000    0.000    0.000    0.000    0.000 
#
# Total GULP energy -167124.397565 kJ/mol
# GULP energy per Si atom -5570.813252 kJ/mol
# Density = 1.922363 g / cm^3
# Si number density = 19.267481 Si / 1000 Ang^3
#
#
#
# Elastic Constant Matrix: (Units=GPa)
#
#
# Indices 1 2 3 4 5 6 
#
# 1 44.5580 9.0435 19.9639 0.0000 9.7338 0.0000
# 2 9.0435 59.8177 11.4558 0.0000 5.7519 0.0000
# 3 19.9639 11.4558 70.1558 0.0000 14.4948 0.0000
# 4 0.0000 0.0000 0.0000 14.4420 0.0000 9.1842
# 5 9.7338 5.7519 14.4948 0.0000 23.9020 0.0000
# 6 0.0000 0.0000 0.0000 9.1842 0.0000 5.6747
#
#
#
# Elastic Compliance Matrix: (Units=1/GPa)
#
#
# Indices 1 2 3 4 5 6 
#
# 1 0.027058 -0.002298 -0.005901 -0.000001 -0.006887 0.000001
# 2 -0.002298 0.017617 -0.001761 0.000000 -0.002236 0.000000
# 3 -0.005901 -0.001761 0.017877 0.000000 -0.008014 0.000000
# 4 -0.000001 0.000000 0.000000 -2.367581 -0.000004 3.831846
# 5 -0.006887 -0.002236 -0.008014 -0.000004 0.050040 0.000007
# 6 0.000001 0.000000 0.000000 3.831846 0.000007 -6.025485
#
#
# Mechanical properties :
#
#
# Convention : Reuss Voigt Hill
#
# Bulk Modulus (GPa) = 23.45741 28.38418 25.92080
# Shear Modulus (GPa) = -0.60633 17.74161 8.56764
#
# Velocity S-wave (km/s) = -0.56158 3.03777 2.11100
# Velocity P-wave (km/s) = 3.43228 5.20266 4.40728
#
# Compressibility (1/GPa) = 0.04263045
#
# Stress axis : x y z
#
# Youngs Moduli (GPa) = 36.95801 56.76295 55.93906
#
# Poissons Ratio (x) = 0.13046 0.33012
# Poissons Ratio (y) = 0.08494 0.09850
# Poissons Ratio (z) = 0.21811 0.09995
#
# Static dielectric constant tensor:
#      x y z
#    x 1.701070 0.000000 0.038110 
#    y 0.000000 1.676040 0.000000 
#    z 0.038110 0.000000 1.745150 
# 
# From -- ./inp_files/157348.got.cif
#   From: 2010.05.17/outbox.cif.g08.bks.cpg/sg15_79_cif.got.tgz:157348.got - 2010.06.03 18:47:42.
