data_PCOD9261640
_publ_section_title
;
Structure prediction by ZEFSAII (Michael W. Deem and Ramdas Pophale) SiO2 
 PCOD9261640
Probable space group: C 2/C
;
_chemical_formula_sum "Si O2"
_cell_formula_units_Z 52
_cell_length_a 7.388998
_cell_length_b 32.333014
_cell_length_c 12.773199
_cell_angle_alpha 90.000000
_cell_angle_beta 56.897658
_cell_angle_gamma 90.000000
_cell_volume 2556.336749
_symmetry_space_group_name_H-M "C 2/C"
_symmetry_group_IT_number 15
_symmetry_cell_setting 'monoclinic'
loop_
_space_group_symop_operation_xyz
x,y,z
-x,y,1/2-z
-x,-y,-z
x,-y,1/2+z
1/2+x,1/2+y,z
1/2-x,1/2+y,1/2-z
1/2-x,1/2-y,-z
1/2+x,1/2-y,1/2+z
loop_
_atom_site_type_symbol
_atom_site_label
_atom_site_fract_x
_atom_site_fract_y
_atom_site_fract_z
Si Si1 0.544547 0.125739 0.411378
Si Si2 0.602706 0.043098 0.999125
Si Si3 0.627287 0.464726 0.897023
Si Si4 0.359560 0.624804 0.114125
Si Si5 0.935932 0.717743 0.095673
Si Si6 0.859869 0.782981 0.614965
Si Si7 0.500000 0.484307 0.250000
O O1 0.533316 0.084070 0.481960
O O2 0.722182 0.121027 0.264428
O O3 0.311669 0.126686 0.426993
O O4 0.579991 0.171314 0.445144
O O5 0.654075 0.041264 0.106702
O O6 0.833546 0.043514 0.867444
O O7 0.500000 0.000000 0.000000
O O8 0.520328 0.419080 0.931412
O O9 0.636140 0.484629 0.780475
O O10 0.500000 0.500000 0.000000
O O11 0.457956 0.670602 0.085222
O O12 0.736278 0.725951 0.238521
O O13 0.146594 0.717100 0.106567
O O14 0.981342 0.750540 0.990187
#
# Coordination Sequence:
#
# PCOD9261640 Si02
#       7
#     8   8   8   8   8   8   4
#     4   8  14  24  39  58  82 114 152 186 222 276
#     4  10  19  31  48  68  93 127 160 192 237 284
#     4   9  18  31  45  66  95 121 153 198 237 278
#     4   8  13  24  41  57  79 116 152 183 226 276
#     4   8  13  22  34  54  81 110 145 184 226 273
#     4   8  13  21  35  54  79 110 145 183 225 276
#     4  10  20  32  46  68  96 120 156 202 238 280
#
# _framework density 20.341608000000001
#
# number of rings (size 3 to 8) (size 9 to 14) (size 15 to 20)
#    0.000    3.385    0.000    2.769    0.000    1.846 
#    0.000    7.692    0.000    0.000    0.000    0.000 
#    0.000   22.154    0.000    1.846    0.000    0.308 
#
# Total GULP energy -144751.411349 kJ/mol
# GULP energy per Si atom -5567.361975 kJ/mol
# Density = 2.029531 g / cm^3
# Si number density = 20.341608 Si / 1000 Ang^3
#
#
#
# Elastic Constant Matrix: (Units=GPa)
#
#
# Indices 1 2 3 4 5 6 
#
# 1 56.7448 15.8345 15.8501 0.0000 -0.9472 0.0000
# 2 15.8345 218.6742 81.1217 0.0000 1.8274 0.0000
# 3 15.8501 81.1217 87.3794 0.0000 4.8793 0.0000
# 4 0.0000 0.0000 0.0000 37.5316 0.0000 2.1013
# 5 -0.9472 1.8274 4.8793 0.0000 9.5540 0.0000
# 6 0.0000 0.0000 0.0000 2.1013 0.0000 4.8661
#
#
#
# Elastic Compliance Matrix: (Units=1/GPa)
#
#
# Indices 1 2 3 4 5 6 
#
# 1 0.018690 -0.000077 -0.003524 0.000000 0.003667 0.000000
# 2 -0.000077 0.007014 -0.006611 0.000000 0.002027 0.000000
# 3 -0.003524 -0.006611 0.018703 0.000000 -0.008637 0.000000
# 4 0.000000 0.000000 0.000000 0.027304 0.000000 -0.011791
# 5 0.003667 0.002027 -0.008637 0.000000 0.109055 0.000000
# 6 0.000000 0.000000 0.000000 -0.011791 0.000000 0.210593
#
#
# Mechanical properties :
#
#
# Convention : Reuss Voigt Hill
#
# Bulk Modulus (GPa) = 41.69429 65.37899 53.53664
# Shear Modulus (GPa) = 11.91106 27.05648 19.48377
#
# Velocity S-wave (km/s) = 2.42244 3.65102 3.09824
# Velocity P-wave (km/s) = 5.32596 7.06990 6.25897
#
# Compressibility (1/GPa) = 0.02398410
#
# Stress axis : x y z
#
# Youngs Moduli (GPa) = 53.50559 142.56862 53.46603
#
# Poissons Ratio (x) = 0.01095 0.18840
# Poissons Ratio (y) = 0.00411 0.35347
# Poissons Ratio (z) = 0.18854 0.94254
#
# Static dielectric constant tensor:
#      x y z
#    x 1.908090 0.000000 -0.003450 
#    y 0.000000 1.775970 0.000000 
#    z -0.003450 0.000000 1.733520 
# 
# From -- ./inp_files/139225.got.cif
#   From: 2010.05.17/outbox.cif.g08.bks.cpg/sg15_70_cif.got.tgz:139225.got - 2010.06.03 18:47:42.
