data_PCOD9261814
_publ_section_title
;
Structure prediction by ZEFSAII (Michael W. Deem and Ramdas Pophale) SiO2 
 PCOD9261814
Probable space group: C 2/C
;
_chemical_formula_sum "Si O2"
_cell_formula_units_Z 56
_cell_length_a 28.772242
_cell_length_b 8.791559
_cell_length_c 14.841208
_cell_angle_alpha 90.000000
_cell_angle_beta 33.747075
_cell_angle_gamma 90.000000
_cell_volume 2085.521332
_symmetry_space_group_name_H-M "C 2/C"
_symmetry_group_IT_number 15
_symmetry_cell_setting 'monoclinic'
loop_
_space_group_symop_operation_xyz
x,y,z
-x,y,1/2-z
-x,-y,-z
x,-y,1/2+z
1/2+x,1/2+y,z
1/2-x,1/2+y,1/2-z
1/2-x,1/2-y,-z
1/2+x,1/2-y,1/2+z
loop_
_atom_site_type_symbol
_atom_site_label
_atom_site_fract_x
_atom_site_fract_y
_atom_site_fract_z
Si Si1 0.070203 0.727042 0.313393
Si Si2 0.385758 0.612886 0.937085
Si Si3 0.798380 0.546936 0.299534
Si Si4 0.939097 0.565327 0.764545
Si Si5 0.192189 0.572616 0.899280
Si Si6 0.842622 0.235137 0.308838
Si Si7 0.885325 0.948524 0.115307
O O1 0.162220 0.669306 0.197180
O O2 0.027100 0.565584 0.358385
O O3 0.055209 0.835824 0.423289
O O4 0.065804 0.823009 0.228198
O O5 0.301203 0.541645 0.031031
O O6 0.355120 0.767447 0.036725
O O7 0.416536 0.501968 0.966542
O O8 0.816561 0.554880 0.163693
O O9 0.841787 0.387441 0.250764
O O10 0.913912 0.727366 0.766507
O O11 0.000000 0.574521 0.750000
O O12 0.851288 0.497467 0.943158
O O13 0.290194 0.609271 0.749472
O O14 0.750000 0.250000 0.500000
O O15 0.863834 0.089735 0.215902
#
# Coordination Sequence:
#
# PCOD9261814 Si02
#       7
#     8   8   8   8   8   8   8
#     4  10  21  37  59  82 119 166 201 239 310 371
#     4  10  19  31  54  85 130 148 187 258 311 352
#     4  10  19  32  54  89 122 155 195 245 304 368
#     4  10  23  41  61  84 121 168 206 244 301 370
#     4  10  19  33  57  88 121 151 201 251 305 357
#     4  11  20  34  58  90 120 149 197 254 307 353
#     4  11  20  34  57  94 120 147 197 260 309 350
#
# _framework density 26.851799
#
# number of rings (size 3 to 8) (size 9 to 14) (size 15 to 20)
#    0.000    1.714    4.286    1.286    2.000    0.000 
#    2.571    3.571    0.000    3.429    0.000    0.000 
#    0.000    0.000    0.000    0.000    0.000    0.000 
#
# Total GULP energy -156484.484512 kJ/mol
# GULP energy per Si atom -5588.731590 kJ/mol
# Density = 2.679068 g / cm^3
# Si number density = 26.851799 Si / 1000 Ang^3
#
#
#
# Elastic Constant Matrix: (Units=GPa)
#
#
# Indices 1 2 3 4 5 6 
#
# 1 143.8116 51.0049 52.0704 0.0000 23.4258 0.0000
# 2 51.0049 46.9354 7.5053 0.0001 4.6420 0.0000
# 3 52.0704 7.5053 89.8123 0.0001 5.7930 0.0000
# 4 0.0000 0.0001 0.0001 21.7754 0.0000 31.0976
# 5 23.4258 4.6420 5.7930 0.0000 40.5608 0.0000
# 6 0.0000 0.0000 0.0000 31.0976 0.0000 28.9920
#
#
#
# Elastic Compliance Matrix: (Units=1/GPa)
#
#
# Indices 1 2 3 4 5 6 
#
# 1 0.016587 -0.016117 -0.007843 0.000000 -0.006615 0.000000
# 2 -0.016117 0.037457 0.005945 0.000000 0.004172 0.000000
# 3 -0.007843 0.005945 0.015075 0.000000 0.001696 0.000000
# 4 0.000000 0.000000 0.000000 -0.086351 0.000000 0.092622
# 5 -0.006615 0.004172 0.001696 0.000000 0.027755 0.000000
# 6 0.000000 0.000000 0.000000 0.092622 0.000000 -0.064857
#
#
# Mechanical properties :
#
#
# Convention : Reuss Voigt Hill
#
# Bulk Modulus (GPa) = 30.22170 55.74673 42.98421
# Shear Modulus (GPa) = -687.38070 29.59757 -328.89156
#
# Velocity S-wave (km/s) = -16.01706 3.32363 -11.07926
# Velocity P-wave (km/s) = 18.18742 5.96109 12.15005
#
# Compressibility (1/GPa) = 0.03308881
#
# Stress axis : x y z
#
# Youngs Moduli (GPa) = 60.28884 26.69754 66.33367
#
# Poissons Ratio (x) = 0.43027 0.52026
# Poissons Ratio (y) = 0.97165 -0.39433
# Poissons Ratio (z) = 0.47285 -0.15871
#
# Static dielectric constant tensor:
#      x y z
#    x 2.149030 0.000000 0.007990 
#    y 0.000000 2.165100 0.000000 
#    z 0.007990 0.000000 2.140370 
# 
# From -- ./inp_files/180771.got.cif
#   From: 2010.05.17/outbox.cif.g08.bks.cpg/sg15_91_cif.got.tgz:180771.got - 2010.06.03 18:47:42.
