data_PCOD9261815
_publ_section_title
;
Structure prediction by ZEFSAII (Michael W. Deem and Ramdas Pophale) SiO2 
 PCOD9261815
Probable space group: C 2/C
;
_chemical_formula_sum "Si O2"
_cell_formula_units_Z 40
_cell_length_a 14.022850
_cell_length_b 18.944863
_cell_length_c 8.547815
_cell_angle_alpha 90.000000
_cell_angle_beta 54.896142
_cell_angle_gamma 90.000000
_cell_volume 1857.783505
_symmetry_space_group_name_H-M "C 2/C"
_symmetry_group_IT_number 15
_symmetry_cell_setting 'monoclinic'
loop_
_space_group_symop_operation_xyz
x,y,z
-x,y,1/2-z
-x,-y,-z
x,-y,1/2+z
1/2+x,1/2+y,z
1/2-x,1/2+y,1/2-z
1/2-x,1/2-y,-z
1/2+x,1/2-y,1/2+z
loop_
_atom_site_type_symbol
_atom_site_label
_atom_site_fract_x
_atom_site_fract_y
_atom_site_fract_z
Si Si1 0.918071 0.960621 0.453571
Si Si2 0.369097 0.785008 0.830932
Si Si3 0.423450 0.841964 0.458028
Si Si4 0.236838 0.051364 0.129899
Si Si5 0.083134 0.569537 0.040217
O O1 0.849179 0.018949 0.417210
O O2 0.000000 0.921472 0.250000
O O3 0.827871 0.921583 0.652169
O O4 0.000000 0.000000 0.500000
O O5 0.500000 0.756649 0.750000
O O6 0.374392 0.791661 0.638648
O O7 0.367355 0.862623 0.913798
O O8 0.250000 0.750000 0.000000
O O9 0.500000 0.808091 0.250000
O O10 0.317297 0.886937 0.489357
O O11 0.505829 0.897863 0.474487
O O12 0.318768 0.985280 0.101328
O O13 0.000000 0.534236 0.250000
#
# Coordination Sequence:
#
# PCOD9261815 Si02
#       5
#     8   8   8   8   8
#     4   9  19  30  41  63 105 156 192 217 252 325
#     4   9  20  40  59  80 112 156 201 241 287 351
#     4  10  19  31  54  87 113 135 177 244 296 339
#     4  11  17  30  52  77 111 149 177 223 294 350
#     4   9  18  31  51  81 110 140 179 227 284 351
#
# _framework density 21.531033999999998
#
# number of rings (size 3 to 8) (size 9 to 14) (size 15 to 20)
#    0.000    2.800    0.000    4.800    0.000    0.000 
#    0.000   14.000    0.000    1.200    0.000    0.000 
#    0.000    0.000    0.000    0.000    0.000    0.000 
#
# Total GULP energy -111536.333066 kJ/mol
# GULP energy per Si atom -5576.816653 kJ/mol
# Density = 2.148203 g / cm^3
# Si number density = 21.531034 Si / 1000 Ang^3
#
#
#
# Elastic Constant Matrix: (Units=GPa)
#
#
# Indices 1 2 3 4 5 6 
#
# 1 89.8503 11.5100 24.9938 0.0000 -8.0112 0.0000
# 2 11.5100 30.8265 32.9819 0.0000 -11.8262 0.0000
# 3 24.9938 32.9819 190.3510 0.0000 -18.3655 0.0000
# 4 0.0000 0.0000 0.0000 15.8472 0.0000 2.5976
# 5 -8.0112 -11.8262 -18.3655 0.0000 33.8433 0.0000
# 6 0.0000 0.0000 0.0000 2.5976 0.0000 4.4810
#
#
#
# Elastic Compliance Matrix: (Units=1/GPa)
#
#
# Indices 1 2 3 4 5 6 
#
# 1 0.011879 -0.002957 -0.000924 0.000000 0.001277 0.000000
# 2 -0.002957 0.044630 -0.006234 0.000000 0.011513 0.000000
# 3 -0.000924 -0.006234 0.006568 0.000000 0.001167 0.000000
# 4 0.000000 0.000000 0.000000 0.069728 0.000000 -0.040421
# 5 0.001277 0.011513 0.001167 0.000000 0.034506 0.000000
# 6 0.000000 0.000000 0.000000 -0.040421 0.000000 0.246598
#
#
# Mechanical properties :
#
#
# Convention : Reuss Voigt Hill
#
# Bulk Modulus (GPa) = 23.33872 49.99992 36.66932
# Shear Modulus (GPa) = 11.15019 26.93710 19.04365
#
# Velocity S-wave (km/s) = 2.27814 3.54090 2.97724
# Velocity P-wave (km/s) = 4.21699 6.32376 5.37461
#
# Compressibility (1/GPa) = 0.04284725
#
# Stress axis : x y z
#
# Youngs Moduli (GPa) = 84.17962 22.40634 152.26376
#
# Poissons Ratio (x) = 0.06625 0.14073
# Poissons Ratio (y) = 0.24889 0.94922
# Poissons Ratio (z) = 0.07781 0.13968
#
# Static dielectric constant tensor:
#      x y z
#    x 1.821840 0.000000 -0.044640 
#    y 0.000000 1.778610 0.000000 
#    z -0.044640 0.000000 1.853980 
# 
# From -- ./inp_files/41612.got.cif
#   From: 2010.05.17/outbox.cif.g08.bks.cpg/sg15_21_cif.got.tgz:41612.got - 2010.06.03 18:47:42.
