data_PCOD9261067
_publ_section_title
;
Structure prediction by ZEFSAII (Michael W. Deem and Ramdas Pophale) SiO2 
 PCOD9261067
Probable space group: C 2/C
;
_chemical_formula_sum "Si O2"
_cell_formula_units_Z 36
_cell_length_a 8.098061
_cell_length_b 21.957280
_cell_length_c 14.732121
_cell_angle_alpha 90.000000
_cell_angle_beta 36.250785
_cell_angle_gamma 90.000000
_cell_volume 1548.987601
_symmetry_space_group_name_H-M "C 2/C"
_symmetry_group_IT_number 15
_symmetry_cell_setting 'monoclinic'
loop_
_space_group_symop_operation_xyz
x,y,z
-x,y,1/2-z
-x,-y,-z
x,-y,1/2+z
1/2+x,1/2+y,z
1/2-x,1/2+y,1/2-z
1/2-x,1/2-y,-z
1/2+x,1/2-y,1/2+z
loop_
_atom_site_type_symbol
_atom_site_label
_atom_site_fract_x
_atom_site_fract_y
_atom_site_fract_z
Si Si1 0.565686 0.620145 0.325080
Si Si2 0.674822 0.264512 0.887036
Si Si3 0.500000 0.949408 0.750000
Si Si4 0.831374 0.050348 0.583526
Si Si5 0.756688 0.823248 0.204372
O O1 0.500000 0.614923 0.250000
O O2 0.556594 0.688942 0.364098
O O3 0.334115 0.583370 0.484659
O O4 0.857580 0.589512 0.230602
O O5 0.672171 0.198014 0.842510
O O6 0.000000 0.280261 0.750000
O O7 0.504114 0.280479 0.053433
O O8 0.826383 0.969194 0.562290
O O9 0.500000 0.029511 0.750000
O O10 0.842644 0.106683 0.652443
O O11 0.500000 0.813267 0.250000
#
# Coordination Sequence:
#
# PCOD9261067 Si02
#       5
#     8   8   4   8   8
#     4  10  21  37  62  91 122 170 217 269 332 394
#     4  11  23  42  63  97 137 178 222 278 345 404
#     4  10  18  40  62  84 128 168 218 270 328 384
#     4   9  20  38  62  87 126 170 215 271 328 393
#     4  11  22  40  67  96 133 176 222 279 340 401
#
# _framework density 23.240984999999998
#
# number of rings (size 3 to 8) (size 9 to 14) (size 15 to 20)
#    0.000    1.778    2.222    2.000    0.000    2.667 
#    0.000    4.444    0.000    0.000    0.000    0.000 
#    0.000    0.000    0.000    0.000    0.000    0.000 
#
# Total GULP energy -100336.538576 kJ/mol
# GULP energy per Si atom -5574.252143 kJ/mol
# Density = 2.318809 g / cm^3
# Si number density = 23.240985 Si / 1000 Ang^3
#
#
#
# Elastic Constant Matrix: (Units=GPa)
#
#
# Indices 1 2 3 4 5 6 
#
# 1 82.8560 23.5011 28.1875 0.0000 -7.1909 -0.0015
# 2 23.5011 138.7095 49.8008 0.0000 1.3994 -0.0002
# 3 28.1875 49.8008 116.1161 0.0000 -37.3791 -0.0051
# 4 0.0000 0.0000 0.0000 51.2622 0.0000 -1.2626
# 5 -7.1909 1.3994 -37.3791 0.0000 50.4709 0.0025
# 6 -0.0015 -0.0002 -0.0051 -1.2626 0.0025 130.8931
#
#
#
# Elastic Compliance Matrix: (Units=1/GPa)
#
#
# Indices 1 2 3 4 5 6 
#
# 1 0.013351 -0.001288 -0.002711 0.000000 -0.000070 0.000000
# 2 -0.001288 0.009261 -0.004991 0.000000 -0.004137 0.000000
# 3 -0.002711 -0.004991 0.014878 0.000000 0.010771 0.000000
# 4 0.000000 0.000000 0.000000 0.019512 0.000000 0.000188
# 5 -0.000070 -0.004137 0.010771 0.000000 0.027895 0.000000
# 6 0.000000 0.000000 0.000000 0.000188 0.000000 0.007642
#
#
# Mechanical properties :
#
#
# Convention : Reuss Voigt Hill
#
# Bulk Modulus (GPa) = 51.25589 60.07336 55.66463
# Shear Modulus (GPa) = 42.72698 62.27140 52.49919
#
# Velocity S-wave (km/s) = 4.29235 5.18189 4.75795
# Velocity P-wave (km/s) = 6.83137 7.85536 7.36119
#
# Compressibility (1/GPa) = 0.01950995
#
# Stress axis : x y z
#
# Youngs Moduli (GPa) = 74.90271 107.97777 67.21309
#
# Poissons Ratio (x) = 0.13906 0.18222
# Poissons Ratio (y) = 0.09647 0.33546
# Poissons Ratio (z) = 0.20307 0.53892
#
# Static dielectric constant tensor:
#      x y z
#    x 1.793910 0.000000 -0.087770 
#    y 0.000000 1.982120 0.000000 
#    z -0.087770 0.000000 1.911950 
# 
# From -- ./inp_files/24128.got.cif
#   From: 2010.05.17/outbox.cif.g08.bks.cpg/sg15_13_cif.got.tgz:24128.got - 2010.06.03 18:47:42.
