data_PCOD9261415
_publ_section_title
;
Structure prediction by ZEFSAII (Michael W. Deem and Ramdas Pophale) SiO2 
 PCOD9261415
Probable space group: C 2/C
;
_chemical_formula_sum "Si O2"
_cell_formula_units_Z 48
_cell_length_a 10.170750
_cell_length_b 19.106096
_cell_length_c 22.495858
_cell_angle_alpha 90.000000
_cell_angle_beta 32.409403
_cell_angle_gamma 90.000000
_cell_volume 2342.956433
_symmetry_space_group_name_H-M "C 2/C"
_symmetry_group_IT_number 15
_symmetry_cell_setting 'monoclinic'
loop_
_space_group_symop_operation_xyz
x,y,z
-x,y,1/2-z
-x,-y,-z
x,-y,1/2+z
1/2+x,1/2+y,z
1/2-x,1/2+y,1/2-z
1/2-x,1/2-y,-z
1/2+x,1/2-y,1/2+z
loop_
_atom_site_type_symbol
_atom_site_label
_atom_site_fract_x
_atom_site_fract_y
_atom_site_fract_z
Si Si1 0.520784 0.101697 0.999551
Si Si2 0.497632 0.563571 0.156809
Si Si3 0.438762 0.701042 0.844390
Si Si4 0.738701 0.927337 0.285958
Si Si5 0.695724 0.013891 0.045817
Si Si6 0.504472 0.859568 0.677235
O O1 0.643771 0.089100 0.888220
O O2 0.666457 0.171946 0.961451
O O3 0.230039 0.100839 0.098780
O O4 0.585169 0.043985 0.024904
O O5 0.427455 0.491209 0.215201
O O6 0.256872 0.610796 0.245757
O O7 0.580793 0.534394 0.060150
O O8 0.500000 0.704181 0.750000
O O9 0.630056 0.640389 0.791939
O O10 0.465531 0.780088 0.855463
O O11 0.499770 0.962723 0.347648
O O12 0.710642 0.085238 0.076908
O O13 0.500000 0.860078 0.750000
#
# Coordination Sequence:
#
# PCOD9261415 Si02
#       6
#     8   8   8   8   8   8
#     4  10  19  29  55  89 111 120 171 223 279 320
#     4  10  19  34  57  84 104 138 171 226 269 308
#     4   9  18  33  51  74 111 146 159 213 269 316
#     4   9  17  29  51  81 113 131 162 211 278 311
#     4  10  20  31  56  86 100 136 178 224 261 307
#     4  10  23  39  50  70 112 150 183 205 252 318
#
# _framework density 20.486937000000001
#
# number of rings (size 3 to 8) (size 9 to 14) (size 15 to 20)
#    0.000    2.333    1.667    2.000    4.667    3.333 
#    0.000   13.333    0.000    0.000    0.000    0.000 
#    0.000    0.000    0.000    0.000    0.000    0.000 
#
# Total GULP energy -133666.737086 kJ/mol
# GULP energy per Si atom -5569.447379 kJ/mol
# Density = 2.044031 g / cm^3
# Si number density = 20.486937 Si / 1000 Ang^3
#
#
#
# Elastic Constant Matrix: (Units=GPa)
#
#
# Indices 1 2 3 4 5 6 
#
# 1 21.5402 12.0562 1.6929 -0.0050 0.2264 0.0058
# 2 12.0562 156.3385 24.9013 0.0025 -11.3924 -0.0153
# 3 1.6929 24.9013 62.9353 0.0061 -11.5786 -0.0242
# 4 -0.0050 0.0025 0.0061 30.5807 -0.0181 -1.6703
# 5 0.2264 -11.3924 -11.5786 -0.0181 21.7967 -0.0015
# 6 0.0058 -0.0153 -0.0242 -1.6703 -0.0015 23.7056
#
#
#
# Elastic Compliance Matrix: (Units=1/GPa)
#
#
# Indices 1 2 3 4 5 6 
#
# 1 0.048660 -0.003907 -0.000257 0.000006 -0.002684 -0.000014
# 2 -0.003907 0.007252 -0.002283 0.000001 0.002618 0.000004
# 3 -0.000257 -0.002283 0.018376 0.000003 0.008571 0.000018
# 4 0.000006 0.000001 0.000003 0.032827 0.000029 0.002313
# 5 -0.002684 0.002618 0.008571 0.000029 0.051828 0.000017
# 6 -0.000014 0.000004 0.000018 0.002313 0.000017 0.042347
#
#
# Mechanical properties :
#
#
# Convention : Reuss Voigt Hill
#
# Bulk Modulus (GPa) = 16.28785 35.34609 25.81697
# Shear Modulus (GPa) = 21.30850 28.69418 25.00134
#
# Velocity S-wave (km/s) = 3.22856 3.74653 3.49715
# Velocity P-wave (km/s) = 4.67608 6.00048 5.37920
#
# Compressibility (1/GPa) = 0.06139545
#
# Stress axis : x y z
#
# Youngs Moduli (GPa) = 20.55078 137.89206 54.41799
#
# Poissons Ratio (x) = 0.53876 0.01397
# Poissons Ratio (y) = 0.08029 0.12421
# Poissons Ratio (z) = 0.00528 0.31475
#
# Static dielectric constant tensor:
#      x y z
#    x 1.790610 0.000000 0.013000 
#    y 0.000000 1.787930 -0.000010 
#    z 0.013000 -0.000010 1.811650 
# 
# From -- ./inp_files/293324.got.cif
#   From: 2010.05.17/outbox.cif.g08.bks.cpg/sg15_147_cif.got.tgz:293324.got - 2010.06.03 18:47:42.
