data_PCOD9261440
_publ_section_title
;
Structure prediction by ZEFSAII (Michael W. Deem and Ramdas Pophale) SiO2 
 PCOD9261440
Probable space group: C 2/C
;
_chemical_formula_sum "Si O2"
_cell_formula_units_Z 64
_cell_length_a 25.380594
_cell_length_b 23.724363
_cell_length_c 7.804539
_cell_angle_alpha 90.000000
_cell_angle_beta 127.951918
_cell_angle_gamma 90.000000
_cell_volume 3705.614518
_symmetry_space_group_name_H-M "C 2/C"
_symmetry_group_IT_number 15
_symmetry_cell_setting 'monoclinic'
loop_
_space_group_symop_operation_xyz
x,y,z
-x,y,1/2-z
-x,-y,-z
x,-y,1/2+z
1/2+x,1/2+y,z
1/2-x,1/2+y,1/2-z
1/2-x,1/2-y,-z
1/2+x,1/2-y,1/2+z
loop_
_atom_site_type_symbol
_atom_site_label
_atom_site_fract_x
_atom_site_fract_y
_atom_site_fract_z
Si Si1 0.856838 0.221918 0.663153
Si Si2 0.222422 0.669914 0.992418
Si Si3 0.222422 0.330086 0.897268
Si Si4 0.500000 0.882582 0.959039
Si Si5 0.500000 0.751217 0.961014
Si Si6 0.860195 0.435189 0.266127
Si Si7 0.643162 0.721918 0.235802
Si Si8 0.360195 0.064811 0.174651
O O1 0.828378 0.285683 0.619137
O O2 0.796852 0.183434 0.614397
O O3 0.863678 0.206690 0.477357
O O4 0.931406 0.222697 0.885201
O O5 0.222129 0.683176 0.194259
O O6 0.296852 0.683434 0.073012
O O7 0.195995 0.607292 0.913792
O O8 0.171622 0.714317 0.805624
O O9 0.195995 0.392708 0.870187
O O10 0.500000 0.883737 0.750000
O O11 0.500000 0.817129 0.010822
O O12 0.432677 0.913606 0.883548
O O13 0.567323 0.913606 0.152838
O O14 0.500000 0.750842 0.750000
O O15 0.568594 0.722697 0.159576
O O16 0.849746 0.500000 0.199491
O O17 0.860508 0.429724 0.471016
#
# Coordination Sequence:
#
# PCOD9261440 Si02
#       8
#     8   8   8   8   8   8   8   8
#     4   9  17  30  49  68  92 123 156 192 230 273
#     4  10  19  30  45  69  95 122 155 192 233 275
#     4  10  19  30  45  69  95 122 155 192 233 275
#     4   9  17  29  47  67  92 125 161 191 222 264
#     4   9  14  27  49  71  91 122 159 188 225 272
#     4  11  21  34  49  66  91 126 162 197 230 269
#     4   9  17  30  49  68  92 123 156 192 230 273
#     4  11  21  34  49  66  91 126 162 197 230 269
#
# _framework density 17.271090999999998
#
# number of rings (size 3 to 8) (size 9 to 14) (size 15 to 20)
#    0.000    2.250    2.500    1.875    0.000    1.000 
#    0.000    3.750    0.000    0.000    0.000    0.875 
#    0.000    0.000    0.000    0.000    0.000    0.000 
#
# Total GULP energy -178472.373242 kJ/mol
# GULP energy per Si atom -5577.261664 kJ/mol
# Density = 1.723178 g / cm^3
# Si number density = 17.271091 Si / 1000 Ang^3
#
#
#
# Elastic Constant Matrix: (Units=GPa)
#
#
# Indices 1 2 3 4 5 6 
#
# 1 67.6447 34.1051 38.7424 0.0000 41.1723 0.0000
# 2 34.1051 84.7344 24.1881 0.0000 33.9409 0.0000
# 3 38.7424 24.1881 46.9532 0.0000 29.6446 0.0000
# 4 0.0000 0.0000 0.0000 17.7129 0.0000 2.3719
# 5 41.1723 33.9409 29.6446 0.0000 47.8894 0.0000
# 6 0.0000 0.0000 0.0000 2.3719 0.0000 18.4059
#
#
#
# Elastic Compliance Matrix: (Units=1/GPa)
#
#
# Indices 1 2 3 4 5 6 
#
# 1 0.038601 -0.002209 -0.017644 0.000000 -0.020699 0.000000
# 2 -0.002209 0.016703 -0.000832 0.000000 -0.009424 0.000000
# 3 -0.017644 -0.000832 0.043231 0.000000 -0.011002 0.000000
# 4 0.000000 0.000000 0.000000 0.057447 0.000000 -0.007403
# 5 -0.020699 -0.009424 -0.011002 0.000000 0.052167 0.000000
# 6 0.000000 0.000000 0.000000 -0.007403 0.000000 0.055285
#
#
# Mechanical properties :
#
#
# Convention : Reuss Voigt Hill
#
# Bulk Modulus (GPa) = 17.49321 43.71149 30.60235
# Shear Modulus (GPa) = 15.43885 23.62142 19.53013
#
# Velocity S-wave (km/s) = 2.99308 3.70224 3.36638
# Velocity P-wave (km/s) = 4.70056 6.60601 5.73301
#
# Compressibility (1/GPa) = 0.05716504
#
# Stress axis : x y z
#
# Youngs Moduli (GPa) = 25.90636 59.86980 23.13133
#
# Poissons Ratio (x) = 0.13224 0.40813
# Poissons Ratio (y) = 0.05722 0.01925
# Poissons Ratio (z) = 0.45709 0.04982
#
# Static dielectric constant tensor:
#      x y z
#    x 1.631790 0.000000 -0.004080 
#    y 0.000000 1.558290 0.000000 
#    z -0.004080 0.000000 1.632990 
# 
# From -- ./inp_files/67618.got.cif
#   From: 2010.05.17/outbox.cif.g08.bks.cpg/sg15_34_cif.got.tgz:67618.got - 2010.06.03 18:47:42.
