data_PCOD9261248
_publ_section_title
;
Structure prediction by ZEFSAII (Michael W. Deem and Ramdas Pophale) SiO2 
 PCOD9261248
Probable space group: C 2/C
;
_chemical_formula_sum "Si O2"
_cell_formula_units_Z 52
_cell_length_a 21.140733
_cell_length_b 4.736900
_cell_length_c 21.260765
_cell_angle_alpha 90.000000
_cell_angle_beta 71.164855
_cell_angle_gamma 90.000000
_cell_volume 2015.076162
_symmetry_space_group_name_H-M "C 2/C"
_symmetry_group_IT_number 15
_symmetry_cell_setting 'monoclinic'
loop_
_space_group_symop_operation_xyz
x,y,z
-x,y,1/2-z
-x,-y,-z
x,-y,1/2+z
1/2+x,1/2+y,z
1/2-x,1/2+y,1/2-z
1/2-x,1/2-y,-z
1/2+x,1/2-y,1/2+z
loop_
_atom_site_type_symbol
_atom_site_label
_atom_site_fract_x
_atom_site_fract_y
_atom_site_fract_z
Si Si1 0.707273 0.524714 0.191515
Si Si2 0.575642 0.131272 0.044575
Si Si3 0.000000 0.161321 0.250000
Si Si4 0.878419 0.525206 0.725984
Si Si5 0.577718 0.785848 0.921128
Si Si6 0.810278 0.933416 0.659418
Si Si7 0.399887 0.395669 0.878275
O O1 0.734870 0.290610 0.316312
O O2 0.661104 0.645031 0.149741
O O3 0.658785 0.235043 0.230158
O O4 0.765704 0.310906 0.146707
O O5 0.501750 0.254583 0.053395
O O6 0.616758 0.386879 0.060994
O O7 0.575040 0.892433 0.098587
O O8 0.596891 0.965033 0.975618
O O9 0.941099 0.354162 0.242320
O O10 0.963829 0.990984 0.317203
O O11 0.904342 0.438746 0.649664
O O12 0.830804 0.806182 0.724583
O O13 0.623452 0.510249 0.899295
#
# Coordination Sequence:
#
# PCOD9261248 Si02
#       7
#     8   8   4   8   8   8   8
#     4   9  24  42  69  99 141 184 241 304 373 430
#     4  11  27  43  74 103 149 190 247 295 376 451
#     4  10  18  42  68 104 146 176 234 306 394 436
#     4   9  21  39  66 103 135 185 230 302 372 438
#     4  11  24  42  71 103 143 193 241 302 365 455
#     4  10  23  42  64 104 137 188 242 301 364 441
#     4  11  24  45  66 106 144 189 237 312 372 447
#
# _framework density 25.805477
#
# number of rings (size 3 to 8) (size 9 to 14) (size 15 to 20)
#    0.923    0.923    1.538    0.923    4.308    5.538 
#    0.000    1.538    0.000    0.000    0.000    0.000 
#    0.000    0.000    0.000    0.000    0.000    0.000 
#
# Total GULP energy -145306.107840 kJ/mol
# GULP energy per Si atom -5588.696455 kJ/mol
# Density = 2.574674 g / cm^3
# Si number density = 25.805477 Si / 1000 Ang^3
#
#
#
# Elastic Constant Matrix: (Units=GPa)
#
#
# Indices 1 2 3 4 5 6 
#
# 1 138.4044 44.5024 40.1707 -0.0213 19.0935 -0.0110
# 2 44.5024 132.5080 26.7403 -0.0437 2.7415 -0.0276
# 3 40.1707 26.7403 94.6266 -0.0112 17.1731 -0.0121
# 4 -0.0213 -0.0437 -0.0112 43.6478 -0.0049 2.6358
# 5 19.0935 2.7415 17.1731 -0.0049 38.6852 -0.0074
# 6 -0.0110 -0.0276 -0.0121 2.6358 -0.0074 38.9923
#
#
#
# Elastic Compliance Matrix: (Units=1/GPa)
#
#
# Indices 1 2 3 4 5 6 
#
# 1 0.009237 -0.002505 -0.002630 0.000001 -0.003214 -0.000001
# 2 -0.002505 0.008690 -0.001637 0.000007 0.001347 0.000005
# 3 -0.002630 -0.001637 0.012932 0.000000 -0.004327 0.000001
# 4 0.000001 0.000007 0.000000 0.023005 0.000002 -0.001555
# 5 -0.003214 0.001347 -0.004327 0.000002 0.029261 0.000004
# 6 -0.000001 0.000005 0.000001 -0.001555 0.000004 0.025751
#
#
# Mechanical properties :
#
#
# Convention : Reuss Voigt Hill
#
# Bulk Modulus (GPa) = 57.75077 65.37395 61.56236
# Shear Modulus (GPa) = 39.00350 41.20677 40.10513
#
# Velocity S-wave (km/s) = 3.89195 4.00036 3.94653
# Velocity P-wave (km/s) = 6.52872 6.83561 6.68393
#
# Compressibility (1/GPa) = 0.01731579
#
# Stress axis : x y z
#
# Youngs Moduli (GPa) = 108.25442 115.06828 77.32621
#
# Poissons Ratio (x) = 0.28826 0.20339
# Poissons Ratio (y) = 0.27119 0.12657
# Poissons Ratio (z) = 0.28474 0.18835
#
# Static dielectric constant tensor:
#      x y z
#    x 2.033170 0.000000 -0.001400 
#    y 0.000000 2.111610 0.000000 
#    z -0.001400 0.000000 2.092030 
# 
# From -- ./inp_files/251050.got.cif
#   From: 2010.05.17/outbox.cif.g08.bks.cpg/sg15_126_cif.got.tgz:251050.got - 2010.06.03 18:47:42.
