data_PCOD9262746
_publ_section_title
;
Structure prediction by ZEFSAII (Michael W. Deem and Ramdas Pophale) SiO2 
 PCOD9262746
Probable space group: C 2/C
;
_chemical_formula_sum "Si O2"
_cell_formula_units_Z 64
_cell_length_a 16.160327
_cell_length_b 28.100227
_cell_length_c 12.250379
_cell_angle_alpha 90.000000
_cell_angle_beta 40.705155
_cell_angle_gamma 90.000000
_cell_volume 3628.006518
_symmetry_space_group_name_H-M "C 2/C"
_symmetry_group_IT_number 15
_symmetry_cell_setting 'monoclinic'
loop_
_space_group_symop_operation_xyz
x,y,z
-x,y,1/2-z
-x,-y,-z
x,-y,1/2+z
1/2+x,1/2+y,z
1/2-x,1/2+y,1/2-z
1/2-x,1/2-y,-z
1/2+x,1/2-y,1/2+z
loop_
_atom_site_type_symbol
_atom_site_label
_atom_site_fract_x
_atom_site_fract_y
_atom_site_fract_z
Si Si1 0.649649 0.556562 0.366561
Si Si2 0.854645 0.385926 0.265068
Si Si3 0.860680 0.288628 0.648002
Si Si4 0.645440 0.885921 0.974348
Si Si5 0.649698 0.443457 0.334071
Si Si6 0.150752 0.901915 0.099254
Si Si7 0.360852 0.788621 0.130416
Si Si8 0.705377 0.804797 0.544621
O O1 0.745482 0.582249 0.188493
O O2 0.657076 0.500008 0.342949
O O3 0.499969 0.570130 0.501076
O O4 0.690864 0.572210 0.447511
O O5 0.842856 0.385744 0.407105
O O6 0.745587 0.417758 0.320345
O O7 0.840895 0.332761 0.230781
O O8 0.000054 0.401402 0.092371
O O9 0.840770 0.332754 0.587458
O O10 0.749911 0.250004 0.748926
O O11 0.860959 0.308759 0.771764
O O12 0.999917 0.267137 0.488160
O O13 0.690868 0.427840 0.170704
O O14 0.000000 0.903942 0.250000
O O15 0.192371 0.846954 0.057712
O O16 0.361141 0.808729 0.006065
O O17 0.750000 0.750000 0.500000
#
# Coordination Sequence:
#
# PCOD9262746 Si02
#       8
#     8   8   8   8   8   8   8   8
#     4  10  22  39  62  89 117 150 193 243 294 347
#     4  10  22  40  59  82 116 154 194 239 287 342
#     4  10  21  36  56  83 114 150 191 236 287 344
#     4  10  22  40  59  82 116 154 194 239 287 342
#     4  10  22  39  62  89 117 150 193 243 294 347
#     4  10  20  37  60  90 122 154 191 243 299 350
#     4  10  21  36  56  83 114 150 191 236 287 344
#     4  10  19  33  55  84 114 156 188 235 284 356
#
# _framework density 17.640540999999999
#
# number of rings (size 3 to 8) (size 9 to 14) (size 15 to 20)
#    0.000    2.000    2.500    0.375    1.750    6.500 
#    0.000    0.625    0.000    0.000    0.000    0.000 
#    0.000    0.000    0.000    0.000    0.000    0.000 
#
# Total GULP energy -178309.330682 kJ/mol
# GULP energy per Si atom -5572.166584 kJ/mol
# Density = 1.760039 g / cm^3
# Si number density = 17.640541 Si / 1000 Ang^3
#
#
#
# Elastic Constant Matrix: (Units=GPa)
#
#
# Indices 1 2 3 4 5 6 
#
# 1 108.1542 50.5028 75.7088 0.0000 4.9652 0.0000
# 2 50.5028 68.1965 47.9888 0.0000 5.1140 0.0000
# 3 75.7088 47.9888 104.6342 0.0000 1.3061 0.0000
# 4 0.0000 0.0000 0.0000 27.5313 0.0000 -11.0628
# 5 4.9652 5.1140 1.3061 0.0000 22.6348 0.0000
# 6 0.0000 0.0000 0.0000 -11.0628 0.0000 22.3876
#
#
#
# Elastic Compliance Matrix: (Units=1/GPa)
#
#
# Indices 1 2 3 4 5 6 
#
# 1 0.020962 -0.006933 -0.011958 0.000000 -0.002342 0.000000
# 2 -0.006933 0.024375 -0.006117 0.000000 -0.003633 0.000000
# 3 -0.011958 -0.006117 0.020980 0.000000 0.002795 0.000000
# 4 0.000000 0.000000 0.000000 0.045321 0.000000 0.022395
# 5 -0.002342 -0.003633 0.002795 0.000000 0.045353 0.000000
# 6 0.000000 0.000000 0.000000 0.022395 0.000000 0.055734
#
#
# Mechanical properties :
#
#
# Convention : Reuss Voigt Hill
#
# Bulk Modulus (GPa) = 61.34981 69.93175 65.64078
# Shear Modulus (GPa) = 18.64451 21.62969 20.13710
#
# Velocity S-wave (km/s) = 3.25455 3.50542 3.38231
# Velocity P-wave (km/s) = 6.99828 7.49084 7.24875
#
# Compressibility (1/GPa) = 0.01629997
#
# Stress axis : x y z
#
# Youngs Moduli (GPa) = 47.70625 41.02597 47.66383
#
# Poissons Ratio (x) = 0.28442 0.56997
# Poissons Ratio (y) = 0.33074 0.29158
# Poissons Ratio (z) = 0.57048 0.25098
#
# Static dielectric constant tensor:
#      x y z
#    x 1.634670 0.000000 -0.031860 
#    y 0.000000 1.539580 0.000000 
#    z -0.031860 0.000000 1.649230 
# 
# From -- ./inp_files/101326.got.cif
#   From: 2010.05.17/outbox.cif.g08.bks.cpg/sg15_51_cif.got.tgz:101326.got - 2010.06.03 18:47:42.
