data_PCOD9262141
_publ_section_title
;
Structure prediction by ZEFSAII (Michael W. Deem and Ramdas Pophale) SiO2 
 PCOD9262141
Probable space group: C 2/C
;
_chemical_formula_sum "Si O2"
_cell_formula_units_Z 56
_cell_length_a 18.867708
_cell_length_b 33.115339
_cell_length_c 5.080007
_cell_angle_alpha 90.000000
_cell_angle_beta 65.160102
_cell_angle_gamma 90.000000
_cell_volume 2880.396006
_symmetry_space_group_name_H-M "C 2/C"
_symmetry_group_IT_number 15
_symmetry_cell_setting 'monoclinic'
loop_
_space_group_symop_operation_xyz
x,y,z
-x,y,1/2-z
-x,-y,-z
x,-y,1/2+z
1/2+x,1/2+y,z
1/2-x,1/2+y,1/2-z
1/2-x,1/2-y,-z
1/2+x,1/2-y,1/2+z
loop_
_atom_site_type_symbol
_atom_site_label
_atom_site_fract_x
_atom_site_fract_y
_atom_site_fract_z
Si Si1 0.204260 0.160134 0.669741
Si Si2 0.363250 0.525606 0.549152
Si Si3 0.363211 0.887847 0.885360
Si Si4 0.085135 0.657531 0.687274
Si Si5 0.743091 0.204951 0.404503
Si Si6 0.175594 0.474556 0.358387
Si Si7 0.947555 0.108172 0.575614
O O1 0.273459 0.127597 0.515848
O O2 0.220493 0.195968 0.437211
O O3 0.121628 0.139395 0.757687
O O4 0.214574 0.176111 0.949269
O O5 0.382385 0.509234 0.230305
O O6 0.269676 0.532248 0.716573
O O7 0.407971 0.566172 0.549560
O O8 0.397903 0.878857 0.544912
O O9 0.406144 0.859734 0.032979
O O10 0.364217 0.933512 0.983982
O O11 0.153219 0.690213 0.537937
O O12 0.000000 0.673584 0.750000
O O13 0.750000 0.250000 0.500000
O O14 0.156918 0.509895 0.596224
O O15 0.000000 0.102142 0.750000
O O16 0.000000 0.122597 0.250000
#
# Coordination Sequence:
#
# PCOD9262141 Si02
#       7
#     8   8   8   8   8   8   8
#     4  10  21  39  58  84 114 148 199 230 279 350
#     4  10  21  35  52  76 110 151 200 254 296 332
#     4  10  19  36  60  80 111 153 187 236 282 333
#     4  10  21  36  60  90 116 142 185 231 281 338
#     4  10  21  39  66  90 115 149 182 230 284 344
#     4  10  19  32  54  81 108 143 196 245 287 333
#     4  12  24  37  55  79 118 161 200 247 292 338
#
# _framework density 19.441773000000001
#
# number of rings (size 3 to 8) (size 9 to 14) (size 15 to 20)
#    0.000    1.714    1.429    3.429    0.000    1.714 
#    0.000    2.143    0.000   10.286    0.000    0.000 
#    0.000    0.000    0.000    0.000    0.000    0.000 
#
# Total GULP energy -156485.040381 kJ/mol
# GULP energy per Si atom -5588.751442 kJ/mol
# Density = 1.939752 g / cm^3
# Si number density = 19.441773 Si / 1000 Ang^3
#
#
#
# Elastic Constant Matrix: (Units=GPa)
#
#
# Indices 1 2 3 4 5 6 
#
# 1 66.1372 13.1308 10.3704 0.0000 -5.9304 0.0000
# 2 13.1308 52.2944 -7.6521 0.0000 -21.8209 0.0000
# 3 10.3704 -7.6521 53.1187 0.0000 9.6283 0.0000
# 4 0.0000 0.0000 0.0000 20.1057 0.0000 3.0908
# 5 -5.9304 -21.8209 9.6283 0.0000 22.4540 0.0000
# 6 0.0000 0.0000 0.0000 3.0908 0.0000 6.4825
#
#
#
# Elastic Compliance Matrix: (Units=1/GPa)
#
#
# Indices 1 2 3 4 5 6 
#
# 1 0.016772 -0.003739 -0.004291 0.000000 0.002636 0.000000
# 2 -0.003739 0.033061 -0.000165 0.000000 0.031212 0.000000
# 3 -0.004291 -0.000165 0.021549 0.000000 -0.010534 0.000000
# 4 0.000000 0.000000 0.000000 0.053671 0.000000 -0.025590
# 5 0.002636 0.031212 -0.010534 0.000000 0.080081 0.000000
# 6 0.000000 0.000000 0.000000 -0.025590 0.000000 0.166463
#
#
# Mechanical properties :
#
#
# Convention : Reuss Voigt Hill
#
# Bulk Modulus (GPa) = 18.18442 22.58317 20.38380
# Shear Modulus (GPa) = 12.30566 20.18851 16.24708
#
# Velocity S-wave (km/s) = 2.51858 3.22593 2.89395
# Velocity P-wave (km/s) = 4.22270 5.05139 4.65552
#
# Compressibility (1/GPa) = 0.05499212
#
# Stress axis : x y z
#
# Youngs Moduli (GPa) = 59.62462 30.24693 46.40583
#
# Poissons Ratio (x) = 0.11310 0.19911
# Poissons Ratio (y) = 0.22296 0.00765
# Poissons Ratio (z) = 0.25583 0.00498
#
# Static dielectric constant tensor:
#      x y z
#    x 1.670170 0.000000 -0.010300 
#    y 0.000000 1.648980 0.000000 
#    z -0.010300 0.000000 1.671660 
# 
# From -- ./inp_files/11969.got.cif
#   From: 2010.05.17/outbox.cif.g08.bks.cpg/sg15_6_cif.got.tgz:11969.got - 2010.06.03 18:47:42.
