data_PCOD9262487
_publ_section_title
;
Structure prediction by ZEFSAII (Michael W. Deem and Ramdas Pophale) SiO2 
 PCOD9262487
Probable space group: C 2/C
;
_chemical_formula_sum "Si O2"
_cell_formula_units_Z 64
_cell_length_a 27.581173
_cell_length_b 15.453699
_cell_length_c 19.919932
_cell_angle_alpha 90.000000
_cell_angle_beta 22.159630
_cell_angle_gamma 90.000000
_cell_volume 3202.515833
_symmetry_space_group_name_H-M "C 2/C"
_symmetry_group_IT_number 15
_symmetry_cell_setting 'monoclinic'
loop_
_space_group_symop_operation_xyz
x,y,z
-x,y,1/2-z
-x,-y,-z
x,-y,1/2+z
1/2+x,1/2+y,z
1/2-x,1/2+y,1/2-z
1/2-x,1/2-y,-z
1/2+x,1/2-y,1/2+z
loop_
_atom_site_type_symbol
_atom_site_label
_atom_site_fract_x
_atom_site_fract_y
_atom_site_fract_z
Si Si1 0.587434 0.911476 0.316844
Si Si2 0.608391 0.008048 0.162132
Si Si3 0.922796 0.649097 0.460713
Si Si4 0.522918 0.234773 0.467266
Si Si5 0.689314 0.006695 0.818175
Si Si6 0.728578 0.280617 0.925036
Si Si7 0.045498 0.076806 0.490672
Si Si8 0.343052 0.379827 0.356877
O O1 0.547340 0.812930 0.381507
O O2 0.680052 0.949060 0.256455
O O3 0.639957 0.937212 0.177255
O O4 0.449600 0.960901 0.497658
O O5 0.500000 0.975318 0.250000
O O6 0.539017 0.091508 0.284684
O O7 0.737477 0.049903 0.968822
O O8 0.960449 0.690780 0.482214
O O9 0.810380 0.582190 0.625403
O O10 0.887355 0.723800 0.454881
O O11 0.672857 0.207611 0.263984
O O12 0.490438 0.335206 0.502838
O O13 0.806636 0.943260 0.681364
O O14 0.809931 0.212798 0.865962
O O15 0.678768 0.358949 0.035663
O O16 0.973342 0.087845 0.655265
O O17 0.000000 0.000000 0.500000
#
# Coordination Sequence:
#
# PCOD9262487 Si02
#       8
#     8   8   8   8   8   8   8   8
#     4   9  21  37  61  86 118 155 206 253 286 348
#     4  11  20  35  60  84 117 158 209 249 294 356
#     4  10  19  34  58  85 117 158 189 245 297 357
#     4  10  21  36  57  90 120 156 193 248 301 355
#     4   9  19  38  58  84 120 159 199 241 292 358
#     4  10  19  33  52  83 125 151 191 231 305 371
#     4  11  24  39  58  88 126 164 199 240 307 370
#     4  10  21  35  51  84 121 157 186 243 302 362
#
# _framework density 19.984289
#
# number of rings (size 3 to 8) (size 9 to 14) (size 15 to 20)
#    0.000    2.000    2.500    2.250    3.500    0.000 
#    0.000    3.125    0.000    0.750    0.000    0.000 
#    0.000    0.000    0.000    0.000    0.000    0.000 
#
# Total GULP energy -178429.973326 kJ/mol
# GULP energy per Si atom -5575.936666 kJ/mol
# Density = 1.993880 g / cm^3
# Si number density = 19.984289 Si / 1000 Ang^3
#
#
#
# Elastic Constant Matrix: (Units=GPa)
#
#
# Indices 1 2 3 4 5 6 
#
# 1 64.8908 28.2062 12.7168 -0.0001 2.0131 0.0000
# 2 28.2062 58.2389 22.8747 -0.0001 7.3178 0.0000
# 3 12.7168 22.8747 60.7355 0.0000 -3.6452 0.0000
# 4 -0.0001 -0.0001 0.0000 32.2168 0.0001 10.4297
# 5 2.0131 7.3178 -3.6452 0.0001 19.0188 0.0000
# 6 0.0000 0.0000 0.0000 10.4297 0.0000 38.6381
#
#
#
# Elastic Compliance Matrix: (Units=1/GPa)
#
#
# Indices 1 2 3 4 5 6 
#
# 1 0.019578 -0.009502 -0.000431 0.000000 0.001501 0.000000
# 2 -0.009502 0.026538 -0.008658 0.000000 -0.010865 0.000000
# 3 -0.000431 -0.008658 0.020251 0.000000 0.007258 0.000000
# 4 0.000000 0.000000 0.000000 0.034012 0.000000 -0.009181
# 5 0.001501 -0.010865 0.007258 0.000000 0.057992 0.000000
# 6 0.000000 0.000000 0.000000 -0.009181 0.000000 0.028359
#
#
# Mechanical properties :
#
#
# Convention : Reuss Voigt Hill
#
# Bulk Modulus (GPa) = 34.26060 34.60671 34.43366
# Shear Modulus (GPa) = 21.40040 25.97923 23.68982
#
# Velocity S-wave (km/s) = 3.27595 3.60944 3.44673
# Velocity P-wave (km/s) = 5.61161 5.89282 5.75393
#
# Compressibility (1/GPa) = 0.02918805
#
# Stress axis : x y z
#
# Youngs Moduli (GPa) = 51.07655 37.68159 49.37951
#
# Poissons Ratio (x) = 0.35804 0.02126
# Poissons Ratio (y) = 0.48531 0.42751
# Poissons Ratio (z) = 0.02200 0.32623
#
# Static dielectric constant tensor:
#      x y z
#    x 1.774140 0.000000 0.017940 
#    y 0.000000 3.707050 0.000000 
#    z 0.017940 0.000000 1.774100 
# 
# From -- ./inp_files/259431.got.cif
#   From: 2010.05.17/outbox.cif.g08.bks.cpg/sg15_130_cif.got.tgz:259431.got - 2010.06.03 18:47:42.
