data_PCOD9262174
_publ_section_title
;
Structure prediction by ZEFSAII (Michael W. Deem and Ramdas Pophale) SiO2 
 PCOD9262174
Probable space group: C 2/C
;
_chemical_formula_sum "Si O2"
_cell_formula_units_Z 64
_cell_length_a 25.777813
_cell_length_b 18.655000
_cell_length_c 5.467206
_cell_angle_alpha 90.000000
_cell_angle_beta 96.813591
_cell_angle_gamma 90.000000
_cell_volume 2610.529629
_symmetry_space_group_name_H-M "C 2/C"
_symmetry_group_IT_number 15
_symmetry_cell_setting 'monoclinic'
loop_
_space_group_symop_operation_xyz
x,y,z
-x,y,1/2-z
-x,-y,-z
x,-y,1/2+z
1/2+x,1/2+y,z
1/2-x,1/2+y,1/2-z
1/2-x,1/2-y,-z
1/2+x,1/2-y,1/2+z
loop_
_atom_site_type_symbol
_atom_site_label
_atom_site_fract_x
_atom_site_fract_y
_atom_site_fract_z
Si Si1 0.181519 0.064026 0.330082
Si Si2 0.209887 0.200118 0.122296
Si Si3 0.575481 0.477786 0.186438
Si Si4 0.560159 0.029316 0.257085
Si Si5 0.620904 0.666396 0.681343
Si Si6 0.891253 0.671671 0.307034
Si Si7 0.671270 0.163232 0.745968
Si Si8 0.718665 0.026191 0.587465
O O1 0.221867 0.122439 0.233153
O O2 0.150834 0.120636 0.488344
O O3 0.132596 0.019717 0.185519
O O4 0.222757 0.003403 0.434938
O O5 0.192268 0.257259 0.315833
O O6 0.250000 0.250000 0.000000
O O7 0.162765 0.180611 0.915755
O O8 0.551268 0.514305 0.407761
O O9 0.580645 0.393801 0.247378
O O10 0.500000 0.005701 0.250000
O O11 0.563462 0.113460 0.199624
O O12 0.583606 0.012842 0.537687
O O13 0.597030 0.745042 0.620948
O O14 0.858651 0.643542 0.523841
O O15 0.862006 0.669799 0.025584
O O16 0.715200 0.106110 0.694237
O O17 0.693915 0.016915 0.304907
#
# Coordination Sequence:
#
# PCOD9262174 Si02
#       8
#     8   8   8   8   8   8   8   8
#     4  11  22  37  54  70  97 143 196 257 289 336
#     4  11  23  36  51  70 102 146 194 255 298 346
#     4  10  19  32  55  73  98 133 183 237 287 329
#     4  10  22  42  71 102 127 156 192 230 289 363
#     4  10  22  38  53  79 107 143 193 238 304 338
#     4  11  23  43  64  86 122 152 184 248 299 364
#     4  11  25  41  54  84 113 156 197 245 309 355
#     4  12  26  39  55  74 100 142 202 253 298 348
#
# _framework density 24.516099000000001
#
# number of rings (size 3 to 8) (size 9 to 14) (size 15 to 20)
#    0.000    1.250    2.500    3.750    5.250    4.500 
#    0.000    0.000    0.000    0.000    0.000    0.000 
#    0.000    4.000    0.000    0.000    0.000    4.500 
#
# Total GULP energy -178466.572106 kJ/mol
# GULP energy per Si atom -5577.080378 kJ/mol
# Density = 2.446030 g / cm^3
# Si number density = 24.516099 Si / 1000 Ang^3
#
#
#
# Elastic Constant Matrix: (Units=GPa)
#
#
# Indices 1 2 3 4 5 6 
#
# 1 38.9337 11.4562 28.5503 0.0000 -6.1772 0.0000
# 2 11.4562 191.6328 27.7096 0.0000 -9.2127 0.0000
# 3 28.5503 27.7096 148.1566 0.0000 -9.5052 0.0000
# 4 0.0000 0.0000 0.0000 44.4296 0.0000 -5.9944
# 5 -6.1772 -9.2127 -9.5052 0.0000 25.9649 0.0000
# 6 0.0000 0.0000 0.0000 -5.9944 0.0000 10.6582
#
#
#
# Elastic Compliance Matrix: (Units=1/GPa)
#
#
# Indices 1 2 3 4 5 6 
#
# 1 0.030713 -0.000807 -0.005445 0.000000 0.005027 0.000000
# 2 -0.000807 0.005448 -0.000770 0.000000 0.001459 0.000000
# 3 -0.005445 -0.000770 0.008031 0.000000 0.001371 0.000000
# 4 0.000000 0.000000 0.000000 0.024356 0.000000 0.013698
# 5 0.005027 0.001459 0.001371 0.000000 0.040729 0.000000
# 6 0.000000 0.000000 0.000000 0.013698 0.000000 0.101528
#
#
# Mechanical properties :
#
#
# Convention : Reuss Voigt Hill
#
# Bulk Modulus (GPa) = 33.16993 57.12838 45.14915
# Shear Modulus (GPa) = 21.28589 36.94435 29.11512
#
# Velocity S-wave (km/s) = 2.94979 3.88615 3.44988
# Velocity P-wave (km/s) = 5.01607 6.59463 5.85876
#
# Compressibility (1/GPa) = 0.03014779
#
# Stress axis : x y z
#
# Youngs Moduli (GPa) = 32.55998 183.55284 124.52004
#
# Poissons Ratio (x) = 0.14814 0.67801
# Poissons Ratio (y) = 0.02628 0.09586
# Poissons Ratio (z) = 0.17729 0.14130
#
# Static dielectric constant tensor:
#      x y z
#    x 2.019360 0.000000 -0.059070 
#    y 0.000000 2.021860 0.000000 
#    z -0.059070 0.000000 2.175660 
# 
# From -- ./inp_files/18459.got.cif
#   From: 2010.05.17/outbox.cif.g08.bks.cpg/sg15_10_cif.got.tgz:18459.got - 2010.06.03 18:47:42.
