data_PCOD9262455
_publ_section_title
;
Structure prediction by ZEFSAII (Michael W. Deem and Ramdas Pophale) SiO2 
 PCOD9262455
Probable space group: C 2/C
;
_chemical_formula_sum "Si O2"
_cell_formula_units_Z 48
_cell_length_a 20.217890
_cell_length_b 9.320238
_cell_length_c 19.413518
_cell_angle_alpha 90.000000
_cell_angle_beta 49.284557
_cell_angle_gamma 90.000000
_cell_volume 2772.761592
_symmetry_space_group_name_H-M "C 2/C"
_symmetry_group_IT_number 15
_symmetry_cell_setting 'monoclinic'
loop_
_space_group_symop_operation_xyz
x,y,z
-x,y,1/2-z
-x,-y,-z
x,-y,1/2+z
1/2+x,1/2+y,z
1/2-x,1/2+y,1/2-z
1/2-x,1/2-y,-z
1/2+x,1/2-y,1/2+z
loop_
_atom_site_type_symbol
_atom_site_label
_atom_site_fract_x
_atom_site_fract_y
_atom_site_fract_z
Si Si1 0.035227 0.093820 0.799144
Si Si2 0.006125 0.239422 0.165728
Si Si3 0.228537 0.992133 0.195157
Si Si4 0.516194 0.207593 0.039147
Si Si5 0.353373 0.254088 0.666396
Si Si6 0.388872 0.905657 0.510506
O O1 0.139571 0.073985 0.726277
O O2 0.000000 0.147711 0.750000
O O3 0.009782 0.196023 0.879126
O O4 0.995892 0.933844 0.837391
O O5 0.920801 0.290135 0.181028
O O6 0.000000 0.278013 0.250000
O O7 0.087605 0.308603 0.070800
O O8 0.288695 0.872495 0.189496
O O9 0.198853 0.109737 0.270878
O O10 0.288405 0.065815 0.096176
O O11 0.433505 0.166843 0.047568
O O12 0.585109 0.284533 0.941223
O O13 0.562000 0.058689 0.030411
#
# Coordination Sequence:
#
# PCOD9262455 Si02
#       6
#     8   8   8   8   8   8
#     4  10  21  36  52  74 105 138 169 206 255 305
#     4   9  19  35  52  75 106 135 168 204 252 309
#     4  10  19  33  52  77 103 129 171 218 249 292
#     4   9  18  34  53  74 102 135 171 205 249 307
#     4   9  19  33  53  77 100 132 171 209 250 297
#     4   9  18  33  54  77 100 131 171 212 249 295
#
# _framework density 17.311260999999998
#
# number of rings (size 3 to 8) (size 9 to 14) (size 15 to 20)
#    0.000    2.667    0.000    2.000    0.000    8.000 
#    0.000   12.500    0.000    0.000    0.000    0.000 
#    0.000    0.000    0.000    0.000    0.000    0.000 
#
# Total GULP energy -133836.052446 kJ/mol
# GULP energy per Si atom -5576.502185 kJ/mol
# Density = 1.727186 g / cm^3
# Si number density = 17.311261 Si / 1000 Ang^3
#
#
#
# Elastic Constant Matrix: (Units=GPa)
#
#
# Indices 1 2 3 4 5 6 
#
# 1 77.9886 47.4923 88.8734 0.0000 3.0314 0.0000
# 2 47.4923 46.0081 69.2274 0.0000 3.0434 0.0001
# 3 88.8734 69.2274 162.7685 0.0000 1.9294 0.0000
# 4 0.0000 0.0000 0.0000 28.9560 0.0000 -4.9281
# 5 3.0314 3.0434 1.9294 0.0000 27.7309 0.0000
# 6 0.0000 0.0001 0.0000 -4.9281 0.0000 15.3277
#
#
#
# Elastic Compliance Matrix: (Units=1/GPa)
#
#
# Indices 1 2 3 4 5 6 
#
# 1 0.042063 -0.024475 -0.012545 0.000000 -0.001039 0.000000
# 2 -0.024475 0.075267 -0.018597 0.000000 -0.004291 0.000000
# 3 -0.012545 -0.018597 0.020880 0.000000 0.001960 0.000000
# 4 0.000000 0.000000 0.000000 0.036534 0.000000 0.011746
# 5 -0.001039 -0.004291 0.001960 0.000000 0.036509 0.000000
# 6 0.000000 0.000000 0.000000 0.011746 0.000000 0.069018
#
#
# Mechanical properties :
#
#
# Convention : Reuss Voigt Hill
#
# Bulk Modulus (GPa) = 37.07154 77.55016 57.31085
# Shear Modulus (GPa) = 12.48446 19.81439 16.14942
#
# Velocity S-wave (km/s) = 2.68838 3.38686 3.05763
# Velocity P-wave (km/s) = 5.57653 7.75817 6.75599
#
# Compressibility (1/GPa) = 0.02697487
#
# Stress axis : x y z
#
# Youngs Moduli (GPa) = 23.77371 13.28608 47.89283
#
# Poissons Ratio (x) = 0.32518 0.60082
# Poissons Ratio (y) = 0.58186 0.89068
# Poissons Ratio (z) = 0.29825 0.24709
#
# Static dielectric constant tensor:
#      x y z
#    x 1.583730 0.000000 -0.012560 
#    y 0.000000 1.592140 0.000000 
#    z -0.012560 0.000000 1.581490 
# 
# From -- ./inp_files/166393.got.cif
#   From: 2010.05.17/outbox.cif.g08.bks.cpg/sg15_84_cif.got.tgz:166393.got - 2010.06.03 18:47:42.
