data_PCOD9262698
_publ_section_title
;
Structure prediction by ZEFSAII (Michael W. Deem and Ramdas Pophale) SiO2 
 PCOD9262698
Probable space group: C 2/C
;
_chemical_formula_sum "Si O2"
_cell_formula_units_Z 56
_cell_length_a 15.369567
_cell_length_b 21.522399
_cell_length_c 17.803434
_cell_angle_alpha 90.000000
_cell_angle_beta 149.557511
_cell_angle_gamma 90.000000
_cell_volume 2983.898588
_symmetry_space_group_name_H-M "C 2/C"
_symmetry_group_IT_number 15
_symmetry_cell_setting 'monoclinic'
loop_
_space_group_symop_operation_xyz
x,y,z
-x,y,1/2-z
-x,-y,-z
x,-y,1/2+z
1/2+x,1/2+y,z
1/2-x,1/2+y,1/2-z
1/2-x,1/2-y,-z
1/2+x,1/2-y,1/2+z
loop_
_atom_site_type_symbol
_atom_site_label
_atom_site_fract_x
_atom_site_fract_y
_atom_site_fract_z
Si Si1 0.900978 0.832332 0.401614
Si Si2 0.665204 0.026187 0.079483
Si Si3 0.630548 0.260551 0.666333
Si Si4 0.202564 0.671808 0.072985
Si Si5 0.680495 0.003761 0.418736
Si Si6 0.199413 0.643585 0.905497
Si Si7 0.972856 0.033001 0.899797
O O1 0.798048 0.781249 0.278188
O O2 0.799846 0.837503 0.406031
O O3 0.903169 0.898363 0.364080
O O4 0.084994 0.807157 0.565058
O O5 0.659213 0.100706 0.063340
O O6 0.836210 0.006967 0.251218
O O7 0.500000 0.000000 0.000000
O O8 0.671892 0.995970 0.001985
O O9 0.668045 0.299149 0.770184
O O10 0.469921 0.213430 0.553920
O O11 0.267319 0.669695 0.035174
O O12 0.500000 0.025471 0.250000
O O13 0.846914 0.036767 0.509383
O O14 0.702742 0.931120 0.412627
O O15 0.000000 0.662289 0.750000
O O16 0.000000 0.000000 0.000000
#
# Coordination Sequence:
#
# PCOD9262698 Si02
#       7
#     8   8   8   8   8   8   8
#     4  11  22  37  56  83 117 161 204 247 299 358
#     4  11  23  38  62  92 122 158 200 255 315 370
#     4  10  22  36  52  80 118 163 207 242 284 360
#     4  10  21  35  52  79 117 158 200 238 292 351
#     4  10  22  39  59  90 124 156 196 256 311 365
#     4  10  19  33  55  79 122 157 197 243 295 357
#     4  12  22  38  63  89 119 162 206 251 308 359
#
# _framework density 18.767392999999998
#
# number of rings (size 3 to 8) (size 9 to 14) (size 15 to 20)
#    0.000    1.429    2.857    3.000    2.000    4.000 
#    0.000    0.000    0.000    0.000    0.000   25.000 
#    0.000    0.000    0.000    0.000    0.000    0.000 
#
# Total GULP energy -156488.234339 kJ/mol
# GULP energy per Si atom -5588.865512 kJ/mol
# Density = 1.872468 g / cm^3
# Si number density = 18.767393 Si / 1000 Ang^3
#
#
#
# Elastic Constant Matrix: (Units=GPa)
#
#
# Indices 1 2 3 4 5 6 
#
# 1 87.2276 26.8019 33.7463 -0.0025 2.8313 0.0000
# 2 26.8019 69.7168 15.4324 -0.0036 -1.6174 -0.0005
# 3 33.7463 15.4324 108.8649 -0.0118 -6.0779 -0.0029
# 4 -0.0025 -0.0036 -0.0118 32.7105 -0.0064 -4.7142
# 5 2.8313 -1.6174 -6.0779 -0.0064 24.9575 -0.0015
# 6 0.0000 -0.0005 -0.0029 -4.7142 -0.0015 20.6865
#
#
#
# Elastic Compliance Matrix: (Units=1/GPa)
#
#
# Indices 1 2 3 4 5 6 
#
# 1 0.014580 -0.004787 -0.004005 -0.000002 -0.002940 -0.000001
# 2 -0.004787 0.016385 -0.000760 0.000002 0.001420 0.000001
# 3 -0.004005 -0.000760 0.010703 0.000004 0.003012 0.000003
# 4 -0.000002 0.000002 0.000004 0.031609 0.000010 0.007203
# 5 -0.002940 0.001420 0.003012 0.000010 0.041227 0.000006
# 6 -0.000001 0.000001 0.000003 0.007203 0.000006 0.049982
#
#
# Mechanical properties :
#
#
# Convention : Reuss Voigt Hill
#
# Bulk Modulus (GPa) = 44.31622 46.41895 45.36758
# Shear Modulus (GPa) = 26.16276 28.32615 27.24445
#
# Velocity S-wave (km/s) = 3.73775 3.88922 3.81424
# Velocity P-wave (km/s) = 6.50326 6.70489 6.60485
#
# Compressibility (1/GPa) = 0.02256510
#
# Stress axis : x y z
#
# Youngs Moduli (GPa) = 68.58729 61.03124 93.43142
#
# Poissons Ratio (x) = 0.29214 0.37420
# Poissons Ratio (y) = 0.32831 0.07097
# Poissons Ratio (z) = 0.27470 0.04636
#
# Static dielectric constant tensor:
#      x y z
#    x 1.620740 0.000000 0.005110 
#    y 0.000000 1.652200 0.000000 
#    z 0.005110 0.000000 1.690290 
# 
# From -- ./inp_files/207006.got.cif
#   From: 2010.05.17/outbox.cif.g08.bks.cpg/sg15_104_cif.got.tgz:207006.got - 2010.06.03 18:47:42.
