data_PCOD9262357
_publ_section_title
;
Structure prediction by ZEFSAII (Michael W. Deem and Ramdas Pophale) SiO2 
 PCOD9262357
Probable space group: C 2/C
;
_chemical_formula_sum "Si O2"
_cell_formula_units_Z 56
_cell_length_a 14.230299
_cell_length_b 25.374014
_cell_length_c 9.624379
_cell_angle_alpha 90.000000
_cell_angle_beta 53.599158
_cell_angle_gamma 90.000000
_cell_volume 2797.111588
_symmetry_space_group_name_H-M "C 2/C"
_symmetry_group_IT_number 15
_symmetry_cell_setting 'monoclinic'
loop_
_space_group_symop_operation_xyz
x,y,z
-x,y,1/2-z
-x,-y,-z
x,-y,1/2+z
1/2+x,1/2+y,z
1/2-x,1/2+y,1/2-z
1/2-x,1/2-y,-z
1/2+x,1/2-y,1/2+z
loop_
_atom_site_type_symbol
_atom_site_label
_atom_site_fract_x
_atom_site_fract_y
_atom_site_fract_z
Si Si1 0.943975 0.364492 0.439063
Si Si2 0.123809 0.523259 0.440357
Si Si3 0.702134 0.308413 0.689935
Si Si4 0.176735 0.201117 0.907599
Si Si5 0.857631 0.563478 0.368505
Si Si6 0.048488 0.777884 0.060472
Si Si7 0.347153 0.837290 0.042119
O O1 0.905161 0.424609 0.446262
O O2 0.827666 0.335063 0.585661
O O3 0.000000 0.341477 0.250000
O O4 0.042870 0.360787 0.469191
O O5 0.182022 0.544071 0.247750
O O6 0.183534 0.478003 0.478365
O O7 0.000000 0.500000 0.500000
O O8 0.723132 0.245418 0.663872
O O9 0.651054 0.322289 0.582347
O O10 0.629413 0.315181 0.894483
O O11 0.236044 0.163259 0.742289
O O12 0.064019 0.228597 0.940068
O O13 0.825806 0.623131 0.434620
O O14 0.000000 0.561233 0.250000
O O15 0.115426 0.722395 0.030958
O O16 0.000000 0.797841 0.250000
#
# Coordination Sequence:
#
# PCOD9262357 Si02
#       7
#     8   8   8   8   8   8   8
#     4  12  20  33  55  85 113 143 184 224 275 337
#     4  10  20  31  51  76 114 148 174 220 271 332
#     4  10  22  35  57  78 104 149 188 232 277 323
#     4  10  21  37  54  77 105 143 192 235 273 325
#     4  10  19  33  47  76 110 146 178 215 271 332
#     4  11  24  38  53  76 112 150 191 237 273 326
#     4  11  21  33  56  79 110 146 183 225 284 322
#
# _framework density 20.020654
#
# number of rings (size 3 to 8) (size 9 to 14) (size 15 to 20)
#    0.000    1.429    5.714    2.143    0.000    3.429 
#    0.000    0.000    0.000    0.000    0.000    1.000 
#    0.000    0.286    0.000    0.000    0.000    0.000 
#
# Total GULP energy -156196.348964 kJ/mol
# GULP energy per Si atom -5578.441034 kJ/mol
# Density = 1.997509 g / cm^3
# Si number density = 20.020654 Si / 1000 Ang^3
#
#
#
# Elastic Constant Matrix: (Units=GPa)
#
#
# Indices 1 2 3 4 5 6 
#
# 1 40.4427 15.8934 34.7399 0.0000 5.4897 0.0000
# 2 15.8934 56.8672 40.1273 0.0000 -1.7455 0.0000
# 3 34.7399 40.1273 178.5545 0.0000 11.1705 0.0000
# 4 0.0000 0.0000 0.0000 33.7338 0.0000 3.9326
# 5 5.4897 -1.7455 11.1705 0.0000 20.8143 0.0000
# 6 0.0000 0.0000 0.0000 3.9326 0.0000 5.0364
#
#
#
# Elastic Compliance Matrix: (Units=1/GPa)
#
#
# Indices 1 2 3 4 5 6 
#
# 1 0.031754 -0.005944 -0.004436 0.000000 -0.006493 0.000000
# 2 -0.005944 0.022412 -0.004238 0.000000 0.005722 0.000000
# 3 -0.004436 -0.004238 0.007621 0.000000 -0.003275 0.000000
# 4 0.000000 0.000000 0.000000 0.032613 0.000000 -0.025465
# 5 -0.006493 0.005722 -0.003275 0.000000 0.051994 0.000000
# 6 0.000000 0.000000 0.000000 -0.025465 0.000000 0.218440
#
#
# Mechanical properties :
#
#
# Convention : Reuss Voigt Hill
#
# Bulk Modulus (GPa) = 30.72103 50.82064 40.77084
# Shear Modulus (GPa) = 12.34810 24.25714 18.30262
#
# Velocity S-wave (km/s) = 2.48618 3.48459 3.02683
# Velocity P-wave (km/s) = 4.85998 6.45206 5.71176
#
# Compressibility (1/GPa) = 0.03255099
#
# Stress axis : x y z
#
# Youngs Moduli (GPa) = 31.49203 44.61826 131.21528
#
# Poissons Ratio (x) = 0.26520 0.58210
# Poissons Ratio (y) = 0.18718 0.55614
# Poissons Ratio (z) = 0.13970 0.18911
#
# Static dielectric constant tensor:
#      x y z
#    x 1.713990 0.000000 0.037730 
#    y 0.000000 1.737810 0.000000 
#    z 0.037730 0.000000 1.806540 
# 
# From -- ./inp_files/43453.got.cif
#   From: 2010.05.17/outbox.cif.g08.bks.cpg/sg15_22_cif.got.tgz:43453.got - 2010.06.03 18:47:42.
