data_PCOD9262356
_publ_section_title
;
Structure prediction by ZEFSAII (Michael W. Deem and Ramdas Pophale) SiO2 
 PCOD9262356
Probable space group: C 2/C
;
_chemical_formula_sum "Si O2"
_cell_formula_units_Z 44
_cell_length_a 19.757872
_cell_length_b 23.509579
_cell_length_c 5.010330
_cell_angle_alpha 90.000000
_cell_angle_beta 96.755111
_cell_angle_gamma 90.000000
_cell_volume 2311.138388
_symmetry_space_group_name_H-M "C 2/C"
_symmetry_group_IT_number 15
_symmetry_cell_setting 'monoclinic'
loop_
_space_group_symop_operation_xyz
x,y,z
-x,y,1/2-z
-x,-y,-z
x,-y,1/2+z
1/2+x,1/2+y,z
1/2-x,1/2+y,1/2-z
1/2-x,1/2-y,-z
1/2+x,1/2-y,1/2+z
loop_
_atom_site_type_symbol
_atom_site_label
_atom_site_fract_x
_atom_site_fract_y
_atom_site_fract_z
Si Si1 0.718246 0.313645 0.510491
Si Si2 0.851548 0.460851 0.731995
Si Si3 0.000000 0.457583 0.750000
Si Si4 0.073556 0.229457 0.817397
Si Si5 0.782680 0.368569 0.040059
Si Si6 0.427136 0.186226 0.684059
O O1 0.750000 0.250000 0.500000
O O2 0.638742 0.309137 0.400812
O O3 0.748871 0.359279 0.314206
O O4 0.737956 0.329364 0.821628
O O5 0.848181 0.484020 0.427680
O O6 0.925977 0.428848 0.753536
O O7 0.795225 0.577349 0.352397
O O8 0.000000 0.500000 0.500000
O O9 0.079183 0.271142 0.567918
O O10 0.000000 0.199776 0.750000
O O11 0.072547 0.272395 0.063803
O O12 0.860065 0.350642 0.140269
O O13 0.500000 0.154522 0.750000
#
# Coordination Sequence:
#
# PCOD9262356 Si02
#       6
#     8   8   4   8   8   8
#     4  12  21  35  55  78 113 140 179 223 266 326
#     4  10  21  39  54  75 107 139 186 236 273 317
#     4   8  16  34  54  68  94 138 174 222 274 292
#     4  10  20  34  52  72 108 145 175 214 261 310
#     4  12  22  35  55  80 103 149 182 223 274 317
#     4  10  19  33  47  74 105 142 182 216 256 311
#
# _framework density 19.038236999999999
#
# number of rings (size 3 to 8) (size 9 to 14) (size 15 to 20)
#    0.000    1.455    3.636    2.727    0.000    0.000 
#   18.000    0.000    0.000    0.000    0.000    0.000 
#    0.000   14.545    0.000    0.000    0.000    0.000 
#
# Total GULP energy -122482.108933 kJ/mol
# GULP energy per Si atom -5567.368588 kJ/mol
# Density = 1.899491 g / cm^3
# Si number density = 19.038237 Si / 1000 Ang^3
#
#
#
# Elastic Constant Matrix: (Units=GPa)
#
#
# Indices 1 2 3 4 5 6 
#
# 1 116.9359 17.5348 14.5655 0.0000 20.7652 0.0000
# 2 17.5348 22.0279 -1.1130 0.0000 3.8038 0.0000
# 3 14.5655 -1.1130 136.9871 0.0000 -0.9566 0.0000
# 4 0.0000 0.0000 0.0000 23.1903 0.0000 -5.8778
# 5 20.7652 3.8038 -0.9566 0.0000 36.7874 0.0000
# 6 0.0000 0.0000 0.0000 -5.8778 0.0000 18.3486
#
#
#
# Elastic Compliance Matrix: (Units=1/GPa)
#
#
# Indices 1 2 3 4 5 6 
#
# 1 0.010818 -0.007753 -0.001250 0.000000 -0.005337 0.000000
# 2 -0.007753 0.051795 0.001239 0.000000 -0.000947 0.000000
# 3 -0.001250 0.001239 0.007448 0.000000 0.000771 0.000000
# 4 0.000000 0.000000 0.000000 0.046932 0.000000 0.015034
# 5 -0.005337 -0.000947 0.000771 0.000000 0.030314 0.000000
# 6 0.000000 0.000000 0.000000 0.015034 0.000000 0.059316
#
#
# Mechanical properties :
#
#
# Convention : Reuss Voigt Hill
#
# Bulk Modulus (GPa) = 18.33811 37.54726 27.94269
# Shear Modulus (GPa) = 20.80480 31.99616 26.40048
#
# Velocity S-wave (km/s) = 3.30932 4.10399 3.72789
# Velocity P-wave (km/s) = 4.92497 6.49783 5.76529
#
# Compressibility (1/GPa) = 0.05453125
#
# Stress axis : x y z
#
# Youngs Moduli (GPa) = 92.44060 19.30704 134.25757
#
# Poissons Ratio (x) = 0.14968 0.16789
# Poissons Ratio (y) = 0.71667 -0.16628
# Poissons Ratio (z) = 0.11560 -0.02391
#
# Static dielectric constant tensor:
#      x y z
#    x 1.787630 0.000000 0.034890 
#    y 0.000000 1.705350 0.000000 
#    z 0.034890 0.000000 1.696780 
# 
# From -- ./inp_files/10302.got.cif
#   From: 2010.05.17/outbox.cif.g08.bks.cpg/sg15_6_cif.got.tgz:10302.got - 2010.06.03 18:47:42.
