data_PCOD9262639
_publ_section_title
;
Structure prediction by ZEFSAII (Michael W. Deem and Ramdas Pophale) SiO2 
 PCOD9262639
Probable space group: C 2/C
;
_chemical_formula_sum "Si O2"
_cell_formula_units_Z 52
_cell_length_a 16.962209
_cell_length_b 16.967700
_cell_length_c 17.483812
_cell_angle_alpha 90.000000
_cell_angle_beta 155.612870
_cell_angle_gamma 90.000000
_cell_volume 2077.716308
_symmetry_space_group_name_H-M "C 2/C"
_symmetry_group_IT_number 15
_symmetry_cell_setting 'monoclinic'
loop_
_space_group_symop_operation_xyz
x,y,z
-x,y,1/2-z
-x,-y,-z
x,-y,1/2+z
1/2+x,1/2+y,z
1/2-x,1/2+y,1/2-z
1/2-x,1/2-y,-z
1/2+x,1/2-y,1/2+z
loop_
_atom_site_type_symbol
_atom_site_label
_atom_site_fract_x
_atom_site_fract_y
_atom_site_fract_z
Si Si1 0.645230 0.632012 0.265701
Si Si2 0.290395 0.102119 0.635178
Si Si3 0.661085 0.319957 0.615112
Si Si4 0.237654 0.929451 0.549711
Si Si5 0.212176 0.355120 0.201629
Si Si6 0.779284 0.962120 0.130257
Si Si7 0.000000 0.733059 0.750000
O O1 0.740205 0.654446 0.268728
O O2 0.736027 0.556924 0.388375
O O3 0.588083 0.709290 0.263539
O O4 0.436473 0.600756 0.059046
O O5 0.371291 0.134541 0.786958
O O6 0.335583 0.164922 0.607921
O O7 0.335390 0.011039 0.662451
O O8 0.765469 0.361168 0.636325
O O9 0.441084 0.346903 0.414960
O O10 0.656990 0.225873 0.612158
O O11 0.291091 0.918460 0.508345
O O12 0.006635 0.943448 0.339768
O O13 0.179896 0.428987 0.118081
#
# Coordination Sequence:
#
# PCOD9262639 Si02
#       7
#     8   8   8   8   8   8   4
#     4  10  19  33  54  82 109 149 187 228 276 336
#     4  10  20  34  53  79 114 146 185 228 283 333
#     4  10  20  36  58  82 114 148 188 231 277 330
#     4   9  18  35  56  81 107 147 189 229 272 329
#     4  10  20  37  57  84 114 150 188 231 276 331
#     4   9  18  34  58  82 108 143 195 232 265 323
#     4  12  20  32  54  82 116 140 176 238 288 334
#
# _framework density 25.027477999999999
#
# number of rings (size 3 to 8) (size 9 to 14) (size 15 to 20)
#    0.000    2.154    1.538    3.231    0.000    4.308 
#    0.000    1.538    0.000    2.769    0.000    0.000 
#    0.000    0.000    0.000    0.000    0.000    0.000 
#
# Total GULP energy -145139.045587 kJ/mol
# GULP energy per Si atom -5582.270984 kJ/mol
# Density = 2.497051 g / cm^3
# Si number density = 25.027478 Si / 1000 Ang^3
#
#
#
# Elastic Constant Matrix: (Units=GPa)
#
#
# Indices 1 2 3 4 5 6 
#
# 1 125.1391 68.1546 44.4122 0.6194 -31.0593 -0.1392
# 2 68.1546 112.0989 30.4049 -2.7653 -30.7220 0.6807
# 3 44.4122 30.4049 47.6825 1.3000 -12.0010 -0.2965
# 4 0.6194 -2.7653 1.3000-1215.8199 0.5904 293.8033
# 5 -31.0593 -30.7220 -12.0010 0.5904 37.8427 -0.1325
# 6 -0.1392 0.6807 -0.2965 293.8033 -0.1325 -41.4027
#
#
#
# Elastic Compliance Matrix: (Units=1/GPa)
#
#
# Indices 1 2 3 4 5 6 
#
# 1 0.015813 -0.005445 -0.009892 0.000013 0.005421 0.000001
# 2 -0.005445 0.014789 -0.002674 -0.000037 0.006690 -0.000005
# 3 -0.009892 -0.002674 0.031842 0.000032 -0.000193 -0.000014
# 4 0.000013 -0.000037 0.000032 0.001151 0.000001 0.008165
# 5 0.005421 0.006690 -0.000193 0.000001 0.036244 -0.000017
# 6 0.000001 -0.000005 -0.000014 0.008165 -0.000017 0.033790
#
#
# Mechanical properties :
#
#
# Convention : Reuss Voigt Hill
#
# Bulk Modulus (GPa) = 37.84905 63.42932 50.63919
# Shear Modulus (GPa) = 28.01799 -234.41273 -103.19737
#
# Velocity S-wave (km/s) = 3.34951 -9.68842 -6.42831
# Velocity P-wave (km/s) = 5.48769 9.98775 5.90086
#
# Compressibility (1/GPa) = 0.02642074
#
# Stress axis : x y z
#
# Youngs Moduli (GPa) = 63.24043 67.61809 31.40547
#
# Poissons Ratio (x) = 0.36817 0.31067
# Poissons Ratio (y) = 0.34434 0.08398
# Poissons Ratio (z) = 0.62559 0.18081
#
# Static dielectric constant tensor:
#      x y z
#    x 1.983830 -0.000010 0.013460 
#    y -0.000010 1.916110 -0.000020 
#    z 0.013460 -0.000020 2.149220 
# 
# From -- ./inp_files/211699.got.cif
#   From: 2010.05.17/outbox.cif.g08.bks.cpg/sg15_106_cif.got.tgz:211699.got - 2010.06.03 18:47:42.
