data_PCOD9262679
_publ_section_title
;
Structure prediction by ZEFSAII (Michael W. Deem and Ramdas Pophale) SiO2 
 PCOD9262679
Probable space group: C 2/C
;
_chemical_formula_sum "Si O2"
_cell_formula_units_Z 60
_cell_length_a 23.387374
_cell_length_b 13.862230
_cell_length_c 26.512460
_cell_angle_alpha 90.000000
_cell_angle_beta 17.778318
_cell_angle_gamma 90.000000
_cell_volume 2624.467161
_symmetry_space_group_name_H-M "C 2/C"
_symmetry_group_IT_number 15
_symmetry_cell_setting 'monoclinic'
loop_
_space_group_symop_operation_xyz
x,y,z
-x,y,1/2-z
-x,-y,-z
x,-y,1/2+z
1/2+x,1/2+y,z
1/2-x,1/2+y,1/2-z
1/2-x,1/2-y,-z
1/2+x,1/2-y,1/2+z
loop_
_atom_site_type_symbol
_atom_site_label
_atom_site_fract_x
_atom_site_fract_y
_atom_site_fract_z
Si Si1 0.895521 0.398858 0.146979
Si Si2 0.177130 0.209647 0.414646
Si Si3 0.439514 0.711374 0.514142
Si Si4 0.574698 0.964381 0.788597
Si Si5 0.000000 0.235750 0.250000
Si Si6 0.306998 0.889702 0.470322
Si Si7 0.085284 0.929102 0.555185
Si Si8 0.663883 0.602149 0.743010
O O1 0.743613 0.334506 0.306005
O O2 0.063228 0.325190 0.994818
O O3 0.940880 0.490845 0.142582
O O4 0.794017 0.426996 0.180670
O O5 0.104534 0.200208 0.417566
O O6 0.222684 0.321660 0.385920
O O7 0.009361 0.165201 0.588518
O O8 0.364326 0.146088 0.263984
O O9 0.477912 0.653156 0.430555
O O10 0.396060 0.009001 0.909928
O O11 0.754752 0.014249 0.610859
O O12 0.831266 0.165639 0.376488
O O13 0.962157 0.309257 0.327510
O O14 0.186756 0.895012 0.520322
O O15 0.925830 0.005991 0.703469
#
# Coordination Sequence:
#
# PCOD9262679 Si02
#       8
#     8   8   8   8   4   8   8   8
#     4   9  18  30  50  77 105 136 171 207 255 308
#     4   9  18  35  53  74 103 138 174 215 257 300
#     4   9  18  30  50  77 105 136 171 207 255 308
#     4  10  19  33  55  77 103 138 176 210 253 310
#     4  10  24  38  56  74 114 136 168 206 254 300
#     4  11  22  38  55  80 105 138 170 207 253 309
#     4  10  19  33  55  77 103 138 176 210 253 310
#     4   9  18  35  53  74 103 138 174 215 257 300
#
# _framework density 22.861784
#
# number of rings (size 3 to 8) (size 9 to 14) (size 15 to 20)
#    0.000    2.400    1.333    0.800    3.733    3.200 
#    2.400    0.667    0.000    6.400    0.000    0.000 
#    0.000    0.000    0.000    0.000    0.000    0.000 
#
# Total GULP energy -167591.900905 kJ/mol
# GULP energy per Si atom -5586.396697 kJ/mol
# Density = 2.280975 g / cm^3
# Si number density = 22.861784 Si / 1000 Ang^3
#
#
#
# Elastic Constant Matrix: (Units=GPa)
#
#
# Indices 1 2 3 4 5 6 
#
# 1 39.3587 18.1731 10.2156 -0.0277 -9.0542 -0.0110
# 2 18.1731 68.2941 8.4094 -0.1392 -9.8432 0.0470
# 3 10.2156 8.4094 55.7556 -0.0674 -2.9719 0.0216
# 4 -0.0277 -0.1392 -0.0674 44.0826 0.0186 -6.0316
# 5 -9.0542 -9.8432 -2.9719 0.0186 16.2012 -0.0006
# 6 -0.0110 0.0470 0.0216 -6.0316 -0.0006 19.2975
#
#
#
# Elastic Compliance Matrix: (Units=1/GPa)
#
#
# Indices 1 2 3 4 5 6 
#
# 1 0.032502 -0.006154 -0.004300 -0.000006 0.013636 0.000037
# 2 -0.006154 0.017419 -0.001130 0.000042 0.006937 -0.000031
# 3 -0.004300 -0.001130 0.018914 0.000021 0.000380 -0.000014
# 4 -0.000006 0.000042 0.000021 0.023698 -0.000001 0.007407
# 5 0.013636 0.006937 0.000380 -0.000001 0.073629 -0.000007
# 6 0.000037 -0.000031 -0.000014 0.007407 -0.000007 0.054135
#
#
# Mechanical properties :
#
#
# Convention : Reuss Voigt Hill
#
# Bulk Modulus (GPa) = 21.89757 26.33385 24.11571
# Shear Modulus (GPa) = 19.32835 24.35696 21.84265
#
# Velocity S-wave (km/s) = 2.91081 3.26759 3.09434
# Velocity P-wave (km/s) = 4.57122 5.07739 4.83094
#
# Compressibility (1/GPa) = 0.04566718
#
# Stress axis : x y z
#
# Youngs Moduli (GPa) = 30.76753 57.40814 52.87100
#
# Poissons Ratio (x) = 0.35329 0.22735
# Poissons Ratio (y) = 0.18934 0.05974
# Poissons Ratio (z) = 0.13230 0.06487
#
# Static dielectric constant tensor:
#      x y z
#    x 1.838380 0.000040 0.032010 
#    y 0.000040 1.844210 0.000060 
#    z 0.032010 0.000060 1.951740 
# 
# From -- ./inp_files/302354.got.cif
#   From: 2010.05.17/outbox.cif.g08.bks.cpg/sg15_152_cif.got.tgz:302354.got - 2010.06.03 18:47:42.
