data_PCOD9262897
_publ_section_title
;
Structure prediction by ZEFSAII (Michael W. Deem and Ramdas Pophale) SiO2 
 PCOD9262897
Probable space group: C 2/C
;
_chemical_formula_sum "Si O2"
_cell_formula_units_Z 56
_cell_length_a 10.996802
_cell_length_b 18.149881
_cell_length_c 18.000699
_cell_angle_alpha 90.000000
_cell_angle_beta 128.984850
_cell_angle_gamma 90.000000
_cell_volume 2792.705358
_symmetry_space_group_name_H-M "C 2/C"
_symmetry_group_IT_number 15
_symmetry_cell_setting 'monoclinic'
loop_
_space_group_symop_operation_xyz
x,y,z
-x,y,1/2-z
-x,-y,-z
x,-y,1/2+z
1/2+x,1/2+y,z
1/2-x,1/2+y,1/2-z
1/2-x,1/2-y,-z
1/2+x,1/2-y,1/2+z
loop_
_atom_site_type_symbol
_atom_site_label
_atom_site_fract_x
_atom_site_fract_y
_atom_site_fract_z
Si Si1 0.854126 0.820356 0.869873
Si Si2 0.169336 0.545532 0.357731
Si Si3 0.630244 0.856896 0.980241
Si Si4 0.913976 0.690770 0.519854
Si Si5 0.899559 0.771242 0.138493
Si Si6 0.833578 0.619903 0.647372
Si Si7 0.813987 0.767993 0.692084
O O1 0.805877 0.902749 0.875086
O O2 0.742015 0.774254 0.880018
O O3 0.798770 0.807316 0.764571
O O4 0.015852 0.773940 0.940981
O O5 0.127994 0.574365 0.424548
O O6 0.231459 0.461995 0.382611
O O7 0.000000 0.553847 0.250000
O O8 0.547704 0.787814 0.903879
O O9 0.543584 0.857932 0.026010
O O10 0.812611 0.837982 0.064995
O O11 0.866311 0.655711 0.579611
O O12 0.769425 0.693024 0.408219
O O13 0.000000 0.789687 0.250000
O O14 0.753019 0.683125 0.666669
O O15 0.000000 0.607568 0.750000
O O16 0.000000 0.764087 0.750000
#
# Coordination Sequence:
#
# PCOD9262897 Si02
#       7
#     8   8   8   8   8   8   8
#     4  10  19  33  57  86 109 149 199 235 282 341
#     4  10  20  36  57  84 122 148 185 239 298 344
#     4   9  18  30  52  86 108 146 188 233 288 344
#     4  11  20  35  59  83 110 145 201 243 277 338
#     4   9  16  29  50  80 118 142 184 242 286 330
#     4  10  21  37  55  82 115 152 188 236 293 342
#     4  11  21  36  59  83 106 149 199 240 282 341
#
# _framework density 20.052240000000001
#
# number of rings (size 3 to 8) (size 9 to 14) (size 15 to 20)
#    0.000    2.000    2.857    4.714    0.000    0.571 
#    0.000    0.714    0.000    0.857    0.000    1.000 
#    0.000    0.000    0.000    0.000    0.000    0.000 
#
# Total GULP energy -155889.082830 kJ/mol
# GULP energy per Si atom -5567.467244 kJ/mol
# Density = 2.000660 g / cm^3
# Si number density = 20.052240 Si / 1000 Ang^3
#
#
#
# Elastic Constant Matrix: (Units=GPa)
#
#
# Indices 1 2 3 4 5 6 
#
# 1 50.4697 27.5354 9.6373 0.0000 -20.4720 0.0000
# 2 27.5354 97.8461 11.7608 0.0000 -8.6975 0.0000
# 3 9.6373 11.7608 122.1633 0.0000 -6.8790 0.0000
# 4 0.0000 0.0000 0.0000 5.0527 0.0000 3.4671
# 5 -20.4720 -8.6975 -6.8790 0.0000 28.1565 0.0000
# 6 0.0000 0.0000 0.0000 3.4671 0.0000 21.7638
#
#
#
# Elastic Compliance Matrix: (Units=1/GPa)
#
#
# Indices 1 2 3 4 5 6 
#
# 1 0.032462 -0.007168 -0.000676 0.000000 0.021224 0.000000
# 2 -0.007168 0.012177 -0.000698 0.000000 -0.001621 0.000000
# 3 -0.000676 -0.000698 0.008382 0.000000 0.001341 0.000000
# 4 0.000000 0.000000 0.000000 0.222203 0.000000 -0.035399
# 5 0.021224 -0.001621 0.001341 0.000000 0.050774 0.000000
# 6 0.000000 0.000000 0.000000 -0.035399 0.000000 0.051587
#
#
# Mechanical properties :
#
#
# Convention : Reuss Voigt Hill
#
# Bulk Modulus (GPa) = 27.82557 40.92735 34.37646
# Shear Modulus (GPa) = 12.29566 25.76431 19.02999
#
# Velocity S-wave (km/s) = 2.47894 3.58838 3.08396
# Velocity P-wave (km/s) = 4.70108 6.13379 5.46459
#
# Compressibility (1/GPa) = 0.03593817
#
# Stress axis : x y z
#
# Youngs Moduli (GPa) = 30.80491 82.12151 119.30632
#
# Poissons Ratio (x) = 0.58862 0.08062
# Poissons Ratio (y) = 0.22080 0.08329
# Poissons Ratio (z) = 0.02082 0.05733
#
# Static dielectric constant tensor:
#      x y z
#    x 1.829640 0.000000 -0.000680 
#    y 0.000000 1.756660 0.000000 
#    z -0.000680 0.000000 1.782000 
# 
# From -- ./inp_files/199606.got.cif
#   From: 2010.05.17/outbox.cif.g08.bks.cpg/sg15_100_cif.got.tgz:199606.got - 2010.06.03 18:47:42.
