data_PCOD9262360
_publ_section_title
;
Structure prediction by ZEFSAII (Michael W. Deem and Ramdas Pophale) SiO2 
 PCOD9262360
Probable space group: C 2/C
;
_chemical_formula_sum "Si O2"
_cell_formula_units_Z 64
_cell_length_a 28.774113
_cell_length_b 16.410692
_cell_length_c 9.329673
_cell_angle_alpha 90.000000
_cell_angle_beta 127.177186
_cell_angle_gamma 90.000000
_cell_volume 3510.173304
_symmetry_space_group_name_H-M "C 2/C"
_symmetry_group_IT_number 15
_symmetry_cell_setting 'monoclinic'
loop_
_space_group_symop_operation_xyz
x,y,z
-x,y,1/2-z
-x,-y,-z
x,-y,1/2+z
1/2+x,1/2+y,z
1/2-x,1/2+y,1/2-z
1/2-x,1/2-y,-z
1/2+x,1/2-y,1/2+z
loop_
_atom_site_type_symbol
_atom_site_label
_atom_site_fract_x
_atom_site_fract_y
_atom_site_fract_z
Si Si1 0.209154 0.995713 0.525129
Si Si2 0.926240 0.466825 0.023097
Si Si3 0.462143 0.896729 0.388807
Si Si4 0.821920 0.887491 0.785777
Si Si5 0.213730 0.722209 0.174117
Si Si6 0.320334 0.100556 0.163751
Si Si7 0.204609 0.374530 0.180487
Si Si8 0.869395 0.270399 0.246012
O O1 0.179010 0.052445 0.351647
O O2 0.251570 0.053774 0.696966
O O3 0.169367 0.941726 0.556069
O O4 0.255264 0.935630 0.536339
O O5 0.950953 0.552799 0.013337
O O6 0.862696 0.454046 0.839058
O O7 0.930662 0.446376 0.199057
O O8 0.970226 0.402026 0.028473
O O9 0.432801 0.808553 0.340379
O O10 0.757501 0.846133 0.687667
O O11 0.863655 0.811045 0.830238
O O12 0.184377 0.684881 0.259709
O O13 0.254482 0.798205 0.284904
O O14 0.165556 0.744880 0.966444
O O15 0.337606 0.106180 0.030853
O O16 0.166986 0.342166 0.243108
#
# Coordination Sequence:
#
# PCOD9262360 Si02
#       8
#     8   8   8   8   8   8   8   8
#     4  11  19  30  47  73 100 140 174 208 246 311
#     4  10  22  36  53  76  98 136 181 216 255 301
#     4  10  22  38  53  72 103 135 179 225 257 299
#     4  10  20  32  48  72 102 139 178 208 252 312
#     4  10  19  33  48  69 100 140 175 206 252 312
#     4  11  22  30  48  73 102 136 170 209 257 304
#     4  11  20  31  47  71 105 137 169 211 254 309
#     4  11  19  35  52  69 100 147 179 210 265 306
#
# _framework density 18.232717999999998
#
# number of rings (size 3 to 8) (size 9 to 14) (size 15 to 20)
#    0.000    1.500    5.000    1.875    3.500    0.000 
#    0.000    0.000    0.000    0.000    0.000    0.000 
#    0.000    9.000    1.500    1.125    0.000    0.000 
#
# Total GULP energy -178549.438580 kJ/mol
# GULP energy per Si atom -5579.669956 kJ/mol
# Density = 1.819122 g / cm^3
# Si number density = 18.232718 Si / 1000 Ang^3
#
#
#
# Elastic Constant Matrix: (Units=GPa)
#
#
# Indices 1 2 3 4 5 6 
#
# 1 36.6424 18.5039 7.3474 0.0000 -4.2105 0.0000
# 2 18.5039 62.9943 7.2539 0.0000 -3.4911 0.0000
# 3 7.3474 7.2539 52.1800 0.0000 -17.1459 0.0000
# 4 0.0000 0.0000 0.0000 25.5933 0.0000 -4.3563
# 5 -4.2105 -3.4911 -17.1459 0.0000 22.0604 0.0000
# 6 0.0000 0.0000 0.0000 -4.3563 0.0000 34.0384
#
#
#
# Elastic Compliance Matrix: (Units=1/GPa)
#
#
# Indices 1 2 3 4 5 6 
#
# 1 0.032741 -0.009181 -0.002361 0.000000 0.002961 0.000000
# 2 -0.009181 0.018727 -0.001226 0.000000 0.000259 0.000000
# 3 -0.002361 -0.001226 0.026128 0.000000 0.019663 0.000000
# 4 0.000000 0.000000 0.000000 0.039943 0.000000 0.005112
# 5 0.002961 0.000259 0.019663 0.000000 0.061219 0.000000
# 6 0.000000 0.000000 0.000000 0.005112 0.000000 0.030033
#
#
# Mechanical properties :
#
#
# Convention : Reuss Voigt Hill
#
# Bulk Modulus (GPa) = 19.20837 24.22523 21.71680
# Shear Modulus (GPa) = 19.86656 24.25253 22.05954
#
# Velocity S-wave (km/s) = 3.30451 3.65110 3.48212
# Velocity P-wave (km/s) = 5.01175 5.57580 5.30128
#
# Compressibility (1/GPa) = 0.05206064
#
# Stress axis : x y z
#
# Youngs Moduli (GPa) = 30.54290 53.39938 38.27271
#
# Poissons Ratio (x) = 0.49028 0.09035
# Poissons Ratio (y) = 0.28042 0.04691
# Poissons Ratio (z) = 0.07211 0.06544
#
# Static dielectric constant tensor:
#      x y z
#    x 1.654450 0.000000 -0.030220 
#    y 0.000000 1.643550 0.000000 
#    z -0.030220 0.000000 1.628410 
# 
# From -- ./inp_files/61928.got.cif
#   From: 2010.05.17/outbox.cif.g08.bks.cpg/sg15_31_cif.got.tgz:61928.got - 2010.06.03 18:47:42.
