data_PCOD9262717
_publ_section_title
;
Structure prediction by ZEFSAII (Michael W. Deem and Ramdas Pophale) SiO2 
 PCOD9262717
Probable space group: C 2/C
;
_chemical_formula_sum "Si O2"
_cell_formula_units_Z 48
_cell_length_a 24.586383
_cell_length_b 9.175223
_cell_length_c 10.474849
_cell_angle_alpha 90.000000
_cell_angle_beta 96.603525
_cell_angle_gamma 90.000000
_cell_volume 2347.297839
_symmetry_space_group_name_H-M "C 2/C"
_symmetry_group_IT_number 15
_symmetry_cell_setting 'monoclinic'
loop_
_space_group_symop_operation_xyz
x,y,z
-x,y,1/2-z
-x,-y,-z
x,-y,1/2+z
1/2+x,1/2+y,z
1/2-x,1/2+y,1/2-z
1/2-x,1/2-y,-z
1/2+x,1/2-y,1/2+z
loop_
_atom_site_type_symbol
_atom_site_label
_atom_site_fract_x
_atom_site_fract_y
_atom_site_fract_z
Si Si1 0.196611 0.837974 0.458013
Si Si2 0.359002 0.107193 0.198364
Si Si3 0.328972 0.817111 0.095162
Si Si4 0.387261 0.538015 0.000604
Si Si5 0.063537 0.864670 0.240093
Si Si6 0.748302 0.908549 0.656915
O O1 0.250000 0.750000 0.500000
O O2 0.153699 0.708208 0.426171
O O3 0.168113 0.947992 0.547804
O O4 0.214644 0.946298 0.346746
O O5 0.405679 0.208306 0.272009
O O6 0.300829 0.099644 0.256489
O O7 0.367636 0.940362 0.165091
O O8 0.365470 0.696573 0.034707
O O9 0.290068 0.726290 0.180092
O O10 0.285458 0.891149 0.985936
O O11 0.412124 0.456823 0.132426
O O12 0.425523 0.548168 0.888174
O O13 0.000000 0.841747 0.250000
#
# Coordination Sequence:
#
# PCOD9262717 Si02
#       6
#     8   8   8   8   8   8
#     4  10  20  32  56  92 123 160 201 230 301 381
#     4  11  21  35  59  86 119 164 202 255 300 367
#     4  10  20  36  55  89 123 161 194 246 308 375
#     4  10  23  42  65  92 125 162 204 262 312 373
#     4  11  24  45  67  88 117 162 218 269 315 361
#     4  10  19  33  55  81 129 160 196 234 305 371
#
# _framework density 20.449044000000001
#
# number of rings (size 3 to 8) (size 9 to 14) (size 15 to 20)
#    0.000    1.667    3.333    1.500    0.000    5.333 
#    0.000    1.667    0.000    0.000    0.000    0.000 
#    0.000    0.000    0.000    0.000    0.000    0.000 
#
# Total GULP energy -133691.840194 kJ/mol
# GULP energy per Si atom -5570.493341 kJ/mol
# Density = 2.040250 g / cm^3
# Si number density = 20.449044 Si / 1000 Ang^3
#
#
#
# Elastic Constant Matrix: (Units=GPa)
#
#
# Indices 1 2 3 4 5 6 
#
# 1 92.5438 38.7395 22.6191 0.0000 -22.1834 0.0000
# 2 38.7395 138.5372 33.8011 0.0000 -10.1656 0.0000
# 3 22.6191 33.8011 61.7557 0.0000 -17.8768 0.0000
# 4 0.0000 0.0000 0.0000 16.6186 0.0000 5.0275
# 5 -22.1834 -10.1656 -17.8768 0.0000 31.6848 0.0000
# 6 0.0000 0.0000 0.0000 5.0275 0.0000 21.0189
#
#
#
# Elastic Compliance Matrix: (Units=1/GPa)
#
#
# Indices 1 2 3 4 5 6 
#
# 1 0.014420 -0.003140 -0.001114 0.000000 0.008460 0.000000
# 2 -0.003140 0.009015 -0.004283 0.000000 -0.001722 0.000000
# 3 -0.001114 -0.004283 0.021898 0.000000 0.010201 0.000000
# 4 0.000000 0.000000 0.000000 0.064868 0.000000 -0.015516
# 5 0.008460 -0.001722 0.010201 0.000000 0.042687 0.000000
# 6 0.000000 0.000000 0.000000 -0.015516 0.000000 0.051288
#
#
# Mechanical properties :
#
#
# Convention : Reuss Voigt Hill
#
# Bulk Modulus (GPa) = 35.38605 53.68399 44.53502
# Shear Modulus (GPa) = 21.67616 27.04290 24.35953
#
# Velocity S-wave (km/s) = 3.25931 3.64050 3.45517
# Velocity P-wave (km/s) = 5.61304 6.63178 6.14356
#
# Compressibility (1/GPa) = 0.02825972
#
# Stress axis : x y z
#
# Youngs Moduli (GPa) = 69.34676 110.92880 45.66645
#
# Poissons Ratio (x) = 0.34829 0.05088
# Poissons Ratio (y) = 0.21773 0.19558
# Poissons Ratio (z) = 0.07727 0.47507
#
# Static dielectric constant tensor:
#      x y z
#    x 1.738950 0.000000 0.040260 
#    y 0.000000 1.748690 0.000000 
#    z 0.040260 0.000000 1.876280 
# 
# From -- ./inp_files/116348.got.cif
#   From: 2010.05.17/outbox.cif.g08.bks.cpg/sg15_59_cif.got.tgz:116348.got - 2010.06.03 18:47:42.
