data_PCOD9262108
_publ_section_title
;
Structure prediction by ZEFSAII (Michael W. Deem and Ramdas Pophale) SiO2 
 PCOD9262108
Probable space group: C 2/C
;
_chemical_formula_sum "Si O2"
_cell_formula_units_Z 40
_cell_length_a 20.643610
_cell_length_b 18.921427
_cell_length_c 15.514179
_cell_angle_alpha 90.000000
_cell_angle_beta 158.643459
_cell_angle_gamma 90.000000
_cell_volume 2206.851236
_symmetry_space_group_name_H-M "C 2/C"
_symmetry_group_IT_number 15
_symmetry_cell_setting 'monoclinic'
loop_
_space_group_symop_operation_xyz
x,y,z
-x,y,1/2-z
-x,-y,-z
x,-y,1/2+z
1/2+x,1/2+y,z
1/2-x,1/2+y,1/2-z
1/2-x,1/2-y,-z
1/2+x,1/2-y,1/2+z
loop_
_atom_site_type_symbol
_atom_site_label
_atom_site_fract_x
_atom_site_fract_y
_atom_site_fract_z
Si Si1 0.014632 0.802751 0.164770
Si Si2 0.132228 0.664750 0.208585
Si Si3 0.317833 0.910127 0.560075
Si Si4 0.000000 0.454118 0.250000
Si Si5 0.604387 0.163680 0.746523
Si Si6 0.000000 0.784839 0.750000
O O1 0.000000 0.793783 0.250000
O O2 0.092113 0.733408 0.217004
O O3 0.148997 0.867653 0.318146
O O4 0.816790 0.820417 0.887968
O O5 0.166995 0.600330 0.317981
O O6 0.972306 0.657604 0.944175
O O7 0.500000 0.876139 0.750000
O O8 0.335608 0.990377 0.549234
O O9 0.971618 0.403007 0.295217
O O10 0.530113 0.233146 0.704853
O O11 0.818347 0.170922 0.014324
#
# Coordination Sequence:
#
# PCOD9262108 Si02
#       6
#     8   8   8   4   8   4
#     4  10  19  32  53  86 112 142 172 224 281 312
#     4  11  19  31  59  83 108 135 190 227 259 320
#     4   9  19  36  52  72 116 150 168 215 271 322
#     4   9  22  40  54  70 119 152 174 216 275 324
#     4  10  20  38  59  83 104 142 181 228 269 318
#     4   9  20  38  60  80 107 136 182 230 281 304
#
# _framework density 18.125371999999999
#
# number of rings (size 3 to 8) (size 9 to 14) (size 15 to 20)
#    0.600    1.600    0.000    5.400    0.000    0.800 
#    5.400    1.000    0.000    0.000    0.000    0.000 
#    0.000    0.000    0.000    0.000    0.000    0.000 
#
# Total GULP energy -111391.788101 kJ/mol
# GULP energy per Si atom -5569.589405 kJ/mol
# Density = 1.808412 g / cm^3
# Si number density = 18.125372 Si / 1000 Ang^3
#
#
#
# Elastic Constant Matrix: (Units=GPa)
#
#
# Indices 1 2 3 4 5 6 
#
# 1 49.8878 33.4977 33.3352 0.0000 12.5013 0.0000
# 2 33.4977 101.7294 40.9735 0.0000 3.3961 0.0000
# 3 33.3352 40.9735 105.0748 0.0000 10.4862 0.0000
# 4 0.0000 0.0000 0.0000 15.1198 0.0000 15.3858
# 5 12.5013 3.3961 10.4862 0.0000 25.3756 0.0000
# 6 0.0000 0.0000 0.0000 15.3858 0.0000 21.6297
#
#
#
# Elastic Compliance Matrix: (Units=1/GPa)
#
#
# Indices 1 2 3 4 5 6 
#
# 1 0.032441 -0.007856 -0.005985 0.000000 -0.012457 0.000000
# 2 -0.007856 0.013566 -0.003132 0.000000 0.003349 0.000000
# 3 -0.005985 -0.003132 0.012830 0.000000 -0.001934 0.000000
# 4 0.000000 0.000000 0.000000 0.239495 0.000000 -0.170360
# 5 -0.012457 0.003349 -0.001934 0.000000 0.045896 0.000000
# 6 0.000000 0.000000 0.000000 -0.170360 0.000000 0.167414
#
#
# Mechanical properties :
#
#
# Convention : Reuss Voigt Hill
#
# Bulk Modulus (GPa) = 40.17486 52.47832 46.32659
# Shear Modulus (GPa) = 9.02711 22.35073 15.68892
#
# Velocity S-wave (km/s) = 2.23410 3.51539 2.94526
# Velocity P-wave (km/s) = 5.37290 6.74486 6.09759
#
# Compressibility (1/GPa) = 0.02489119
#
# Stress axis : x y z
#
# Youngs Moduli (GPa) = 30.82529 73.71117 77.94021
#
# Poissons Ratio (x) = 0.57904 0.46651
# Poissons Ratio (y) = 0.24215 0.24412
# Poissons Ratio (z) = 0.18450 0.23088
#
# Static dielectric constant tensor:
#      x y z
#    x 1.646310 0.000000 0.017060 
#    y 0.000000 1.626240 0.000000 
#    z 0.017060 0.000000 1.632370 
# 
# From -- ./inp_files/57400.got.cif
#   From: 2010.05.17/outbox.cif.g08.bks.cpg/sg15_29_cif.got.tgz:57400.got - 2010.06.03 18:47:42.
