data_PCOD9262320
_publ_section_title
;
Structure prediction by ZEFSAII (Michael W. Deem and Ramdas Pophale) SiO2 
 PCOD9262320
Probable space group: C 2/C
;
_chemical_formula_sum "Si O2"
_cell_formula_units_Z 40
_cell_length_a 14.764720
_cell_length_b 5.132991
_cell_length_c 20.303338
_cell_angle_alpha 90.000000
_cell_angle_beta 101.878168
_cell_angle_gamma 90.000000
_cell_volume 1505.784494
_symmetry_space_group_name_H-M "C 2/C"
_symmetry_group_IT_number 15
_symmetry_cell_setting 'monoclinic'
loop_
_space_group_symop_operation_xyz
x,y,z
-x,y,1/2-z
-x,-y,-z
x,-y,1/2+z
1/2+x,1/2+y,z
1/2-x,1/2+y,1/2-z
1/2-x,1/2-y,-z
1/2+x,1/2-y,1/2+z
loop_
_atom_site_type_symbol
_atom_site_label
_atom_site_fract_x
_atom_site_fract_y
_atom_site_fract_z
Si Si1 0.300729 0.277290 0.687516
Si Si2 0.914978 0.756117 0.381348
Si Si3 0.444161 0.760882 0.309691
Si Si4 0.669487 0.460226 0.010548
Si Si5 0.676731 0.779778 0.888370
O O1 0.192096 0.250349 0.659366
O O2 0.338543 0.230391 0.765914
O O3 0.328039 0.565215 0.668759
O O4 0.346048 0.059783 0.645702
O O5 0.958279 0.488913 0.363789
O O6 0.905786 0.809750 0.457527
O O7 0.959928 0.989432 0.347467
O O8 0.500000 0.783500 0.250000
O O9 0.719669 0.665646 0.067350
O O10 0.750000 0.250000 0.000000
O O11 0.633192 0.635559 0.945216
#
# Coordination Sequence:
#
# PCOD9262320 Si02
#       5
#     8   8   8   8   8
#     4  11  21  38  62  91 122 153 204 250 298 352
#     4  11  22  38  65  91 115 158 205 248 296 356
#     4  12  26  42  59  85 126 166 202 247 299 356
#     4  10  19  34  61  96 129 140 195 255 312 345
#     4  10  19  32  59  94 123 152 179 252 313 342
#
# _framework density 26.564226000000001
#
# number of rings (size 3 to 8) (size 9 to 14) (size 15 to 20)
#    0.000    1.200    4.000    5.400    2.800    0.000 
#    0.000    0.000    0.000    7.200    0.000    0.000 
#    0.000    0.000    0.000    0.000    0.000    0.000 
#
# Total GULP energy -112025.875097 kJ/mol
# GULP energy per Si atom -5601.293755 kJ/mol
# Density = 2.650376 g / cm^3
# Si number density = 26.564226 Si / 1000 Ang^3
#
#
#
# Elastic Constant Matrix: (Units=GPa)
#
#
# Indices 1 2 3 4 5 6 
#
# 1 79.1530 6.3030 5.4556 0.0000 -12.2333 0.0000
# 2 6.3030 131.7431 24.6808 0.0000 -4.6731 0.0000
# 3 5.4556 24.6808 94.1323 0.0000 -9.5897 0.0000
# 4 0.0000 0.0000 0.0000 48.2181 0.0000 -15.8118
# 5 -12.2333 -4.6731 -9.5897 0.0000 48.6335 0.0000
# 6 0.0000 0.0000 0.0000 -15.8118 0.0000 -19.8956
#
#
#
# Elastic Compliance Matrix: (Units=1/GPa)
#
#
# Indices 1 2 3 4 5 6 
#
# 1 0.013188 -0.000458 -0.000317 0.000000 0.003211 0.000000
# 2 -0.000458 0.008005 -0.002047 0.000000 0.000250 0.000000
# 3 -0.000317 -0.002047 0.011379 0.000000 0.001967 0.000000
# 4 0.000000 0.000000 0.000000 0.016452 0.000000 -0.013075
# 5 0.003211 0.000250 0.001967 0.000000 0.021782 0.000000
# 6 0.000000 0.000000 0.000000 -0.013075 0.000000 -0.039871
#
#
# Mechanical properties :
#
#
# Convention : Reuss Voigt Hill
#
# Bulk Modulus (GPa) = 37.13530 41.98970 39.56250
# Shear Modulus (GPa) = 109.76190 33.29713 71.52951
#
# Velocity S-wave (km/s) = 6.43499 3.54426 5.19475
# Velocity P-wave (km/s) = 8.31997 5.70878 7.13485
#
# Compressibility (1/GPa) = 0.02692856
#
# Stress axis : x y z
#
# Youngs Moduli (GPa) = 75.82470 124.92580 87.88282
#
# Poissons Ratio (x) = 0.05717 0.02788
# Poissons Ratio (y) = 0.03470 0.17987
# Poissons Ratio (z) = 0.02406 0.25569
#
# Static dielectric constant tensor:
#      x y z
#    x 2.230910 0.000000 -0.062040 
#    y 0.000000 2.014770 0.000000 
#    z -0.062040 0.000000 2.048400 
# 
# From -- ./inp_files/246195.got.cif
#   From: 2010.05.17/outbox.cif.g08.bks.cpg/sg15_124_cif.got.tgz:246195.got - 2010.06.03 18:47:42.
