data_PCOD9262794
_publ_section_title
;
Structure prediction by ZEFSAII (Michael W. Deem and Ramdas Pophale) SiO2 
 PCOD9262794
Probable space group: C 2/C
;
_chemical_formula_sum "Si O2"
_cell_formula_units_Z 56
_cell_length_a 22.172991
_cell_length_b 27.155802
_cell_length_c 5.583894
_cell_angle_alpha 90.000000
_cell_angle_beta 123.810788
_cell_angle_gamma 90.000000
_cell_volume 2793.587213
_symmetry_space_group_name_H-M "C 2/C"
_symmetry_group_IT_number 15
_symmetry_cell_setting 'monoclinic'
loop_
_space_group_symop_operation_xyz
x,y,z
-x,y,1/2-z
-x,-y,-z
x,-y,1/2+z
1/2+x,1/2+y,z
1/2-x,1/2+y,1/2-z
1/2-x,1/2-y,-z
1/2+x,1/2-y,1/2+z
loop_
_atom_site_type_symbol
_atom_site_label
_atom_site_fract_x
_atom_site_fract_y
_atom_site_fract_z
Si Si1 0.000000 0.230450 0.250000
Si Si2 0.656961 0.012901 0.861461
Si Si3 0.287852 0.877888 0.036259
Si Si4 0.823148 0.975407 0.252813
Si Si5 0.353111 0.375448 0.092079
Si Si6 0.847640 0.280828 0.926784
Si Si7 0.265584 0.693921 0.707269
Si Si8 0.000000 0.832290 0.250000
O O1 0.070315 0.265171 0.416963
O O2 0.994854 0.198874 0.487822
O O3 0.672135 0.070700 0.867026
O O4 0.620137 0.995364 0.536045
O O5 0.734659 0.982871 0.051858
O O6 0.263450 0.854780 0.231080
O O7 0.213296 0.887594 0.730419
O O8 0.332560 0.833235 0.014461
O O9 0.852447 0.920501 0.276279
O O10 0.846954 0.995485 0.564431
O O11 0.327407 0.325348 0.163709
O O12 0.428012 0.365209 0.124825
O O13 0.804022 0.284119 0.580490
O O14 0.805922 0.234490 0.957746
#
# Coordination Sequence:
#
# PCOD9262794 Si02
#       8
#     4   8   8   8   8   8   8   4
#     4  12  26  48  62  85 132 165 208 250 312 368
#     4  10  19  34  55  89 120 156 190 249 313 357
#     4  11  21  34  65  88 124 157 207 256 311 367
#     4  10  19  33  56  81 116 158 197 258 306 349
#     4  11  22  37  59  86 120 164 217 251 308 364
#     4  10  23  37  61  91 121 163 200 260 307 372
#     4  10  20  38  58  92 120 157 206 263 307 361
#     4  12  28  42  62  85 116 177 212 254 300 372
#
# _framework density 20.045909999999999
#
# number of rings (size 3 to 8) (size 9 to 14) (size 15 to 20)
#    0.000    1.429    4.286    3.000    4.000    0.000 
#    0.000    0.714    0.000    0.000    0.000    1.000 
#    0.000    0.000    0.000    0.000    0.000    0.000 
#
# Total GULP energy -156143.364111 kJ/mol
# GULP energy per Si atom -5576.548718 kJ/mol
# Density = 2.000028 g / cm^3
# Si number density = 20.045910 Si / 1000 Ang^3
#
#
#
# Elastic Constant Matrix: (Units=GPa)
#
#
# Indices 1 2 3 4 5 6 
#
# 1 78.2644 47.9603 36.2009 0.0000 -0.8645 0.0000
# 2 47.9603 151.9617 18.5927 0.0000 -1.2419 0.0000
# 3 36.2009 18.5927 53.8692 0.0000 -17.8539 0.0000
# 4 0.0000 0.0000 0.0000 11.5948 0.0000 -24.7769
# 5 -0.8645 -1.2419 -17.8539 0.0000 32.9763 0.0000
# 6 0.0000 0.0000 0.0000 -24.7769 0.0000 10.4962
#
#
#
# Elastic Compliance Matrix: (Units=1/GPa)
#
#
# Indices 1 2 3 4 5 6 
#
# 1 0.024024 -0.005554 -0.017169 0.000000 -0.008875 0.000000
# 2 -0.005554 0.008197 0.001167 0.000000 0.000795 0.000000
# 3 -0.017169 0.001167 0.036029 0.000000 0.019101 0.000000
# 4 0.000000 0.000000 0.000000 -0.021325 0.000000 -0.050340
# 5 -0.008875 0.000795 0.019101 0.000000 0.040464 0.000000
# 6 0.000000 0.000000 0.000000 -0.050340 0.000000 -0.023557
#
#
# Mechanical properties :
#
#
# Convention : Reuss Voigt Hill
#
# Bulk Modulus (GPa) = 39.78111 54.40035 47.09073
# Shear Modulus (GPa) = 43.35607 23.10288 33.22948
#
# Velocity S-wave (km/s) = 4.65568 3.39853 4.07586
# Velocity P-wave (km/s) = 6.98488 6.52662 6.75964
#
# Compressibility (1/GPa) = 0.02513756
#
# Stress axis : x y z
#
# Youngs Moduli (GPa) = 41.62466 121.99170 27.75512
#
# Poissons Ratio (x) = 0.67755 0.47653
# Poissons Ratio (y) = 0.23119 -0.03238
# Poissons Ratio (z) = 0.71466 -0.14231
#
# Static dielectric constant tensor:
#      x y z
#    x 1.728580 0.000000 -0.060410 
#    y 0.000000 1.805030 0.000000 
#    z -0.060410 0.000000 1.762530 
# 
# From -- ./inp_files/11977.got.cif
#   From: 2010.05.17/outbox.cif.g08.bks.cpg/sg15_6_cif.got.tgz:11977.got - 2010.06.03 18:47:42.
