data_PCOD9262197
_publ_section_title
;
Structure prediction by ZEFSAII (Michael W. Deem and Ramdas Pophale) SiO2 
 PCOD9262197
Probable space group: C 2/C
;
_chemical_formula_sum "Si O2"
_cell_formula_units_Z 56
_cell_length_a 10.728417
_cell_length_b 28.013725
_cell_length_c 14.263416
_cell_angle_alpha 90.000000
_cell_angle_beta 49.339943
_cell_angle_gamma 90.000000
_cell_volume 3251.894559
_symmetry_space_group_name_H-M "C 2/C"
_symmetry_group_IT_number 15
_symmetry_cell_setting 'monoclinic'
loop_
_space_group_symop_operation_xyz
x,y,z
-x,y,1/2-z
-x,-y,-z
x,-y,1/2+z
1/2+x,1/2+y,z
1/2-x,1/2+y,1/2-z
1/2-x,1/2-y,-z
1/2+x,1/2-y,1/2+z
loop_
_atom_site_type_symbol
_atom_site_label
_atom_site_fract_x
_atom_site_fract_y
_atom_site_fract_z
Si Si1 0.486303 0.655863 0.055204
Si Si2 0.201284 0.609814 0.503086
Si Si3 0.657792 0.839363 0.836505
Si Si4 0.071000 0.978097 0.609686
Si Si5 0.500000 0.888057 0.750000
Si Si6 0.147309 0.933914 0.948548
Si Si7 0.000000 0.331553 0.250000
Si Si8 0.201716 0.761374 0.415310
O O1 0.325849 0.656952 0.196452
O O2 0.453619 0.615608 0.993482
O O3 0.636666 0.639629 0.047085
O O4 0.538441 0.706857 0.992391
O O5 0.156627 0.621821 0.419233
O O6 0.267794 0.555898 0.479444
O O7 0.061418 0.632714 0.637976
O O8 0.518417 0.853691 0.831066
O O9 0.665779 0.787565 0.879837
O O10 0.000000 0.976790 0.750000
O O11 0.932471 0.957788 0.605800
O O12 0.117569 0.030210 0.548452
O O13 0.337108 0.920273 0.840097
O O14 0.848505 0.295218 0.303535
O O15 0.250000 0.750000 0.500000
#
# Coordination Sequence:
#
# PCOD9262197 Si02
#       8
#     8   8   8   8   4   8   4   8
#     4   9  18  33  55  79 107 145 183 232 285 319
#     4  10  19  32  55  86 112 138 182 238 286 326
#     4  11  20  34  55  78 113 151 187 228 275 349
#     4  10  19  37  65  84 102 145 194 229 284 341
#     4  10  22  39  54  78 116 152 185 224 284 336
#     4   9  20  38  57  81 114 143 187 234 273 340
#     4  10  20  31  48  90 120 132 171 244 302 312
#     4  11  19  31  56  83 112 145 187 238 286 324
#
# _framework density 17.22073
#
# number of rings (size 3 to 8) (size 9 to 14) (size 15 to 20)
#    0.000    2.000    2.857    3.857    0.000    0.571 
#    0.000   11.429    1.571    0.000    0.000    0.000 
#    0.000    0.000    0.000    0.000    0.000    0.000 
#
# Total GULP energy -155949.173062 kJ/mol
# GULP energy per Si atom -5569.613324 kJ/mol
# Density = 1.718153 g / cm^3
# Si number density = 17.220730 Si / 1000 Ang^3
#
#
#
# Elastic Constant Matrix: (Units=GPa)
#
#
# Indices 1 2 3 4 5 6 
#
# 1 75.6424 41.0912 38.6533 0.0000 4.4373 0.0000
# 2 41.0912 118.6692 50.1312 0.0000 13.8226 0.0000
# 3 38.6533 50.1312 72.0370 0.0000 -0.1667 0.0000
# 4 0.0000 0.0000 0.0000 29.3460 0.0000 -1.3994
# 5 4.4373 13.8226 -0.1667 0.0000 18.0728 0.0000
# 6 0.0000 0.0000 0.0000 -1.3994 0.0000 19.1830
#
#
#
# Elastic Compliance Matrix: (Units=1/GPa)
#
#
# Indices 1 2 3 4 5 6 
#
# 1 0.019157 -0.002807 -0.008332 0.000000 -0.002634 0.000000
# 2 -0.002807 0.014104 -0.008332 0.000000 -0.010175 0.000000
# 3 -0.008332 -0.008332 0.024171 0.000000 0.008642 0.000000
# 4 0.000000 0.000000 0.000000 0.034195 0.000000 0.002495
# 5 -0.002634 -0.010175 0.008642 0.000000 0.063840 0.000000
# 6 0.000000 0.000000 0.000000 0.002495 0.000000 0.052311
#
#
# Mechanical properties :
#
#
# Convention : Reuss Voigt Hill
#
# Bulk Modulus (GPa) = 54.08501 58.45555 56.27028
# Shear Modulus (GPa) = 19.77189 22.41855 21.09522
#
# Velocity S-wave (km/s) = 3.39210 3.61201 3.50378
# Velocity P-wave (km/s) = 6.84229 7.17036 7.00824
#
# Compressibility (1/GPa) = 0.01848941
#
# Stress axis : x y z
#
# Youngs Moduli (GPa) = 52.20025 70.90252 41.37173
#
# Poissons Ratio (x) = 0.19902 0.34471
# Poissons Ratio (y) = 0.14652 0.34473
# Poissons Ratio (z) = 0.43493 0.59079
#
# Static dielectric constant tensor:
#      x y z
#    x 1.581530 0.000000 -0.000970 
#    y 0.000000 1.630050 0.000000 
#    z -0.000970 0.000000 1.590980 
# 
# From -- ./inp_files/82539.got.cif
#   From: 2010.05.17/outbox.cif.g08.bks.cpg/sg15_42_cif.got.tgz:82539.got - 2010.06.03 18:47:42.
