data_PCOD9262202
_publ_section_title
;
Structure prediction by ZEFSAII (Michael W. Deem and Ramdas Pophale) SiO2 
 PCOD9262202
Probable space group: C 2/C
;
_chemical_formula_sum "Si O2"
_cell_formula_units_Z 40
_cell_length_a 11.500861
_cell_length_b 17.375851
_cell_length_c 8.858342
_cell_angle_alpha 90.000000
_cell_angle_beta 90.823413
_cell_angle_gamma 90.000000
_cell_volume 1770.043877
_symmetry_space_group_name_H-M "C 2/C"
_symmetry_group_IT_number 15
_symmetry_cell_setting 'monoclinic'
loop_
_space_group_symop_operation_xyz
x,y,z
-x,y,1/2-z
-x,-y,-z
x,-y,1/2+z
1/2+x,1/2+y,z
1/2-x,1/2+y,1/2-z
1/2-x,1/2-y,-z
1/2+x,1/2-y,1/2+z
loop_
_atom_site_type_symbol
_atom_site_label
_atom_site_fract_x
_atom_site_fract_y
_atom_site_fract_z
Si Si1 0.620797 0.151920 0.189596
Si Si2 0.381435 0.829073 0.170108
Si Si3 0.374709 0.643729 0.180515
Si Si4 0.006036 0.916498 0.071872
Si Si5 0.186127 0.800751 0.372754
O O1 0.500000 0.117210 0.250000
O O2 0.747907 0.116909 0.236281
O O3 0.626257 0.238352 0.260869
O O4 0.618070 0.154100 0.007688
O O5 0.500000 0.856332 0.250000
O O6 0.376068 0.735935 0.186335
O O7 0.274291 0.851839 0.275501
O O8 0.500000 0.616631 0.250000
O O9 0.382595 0.620853 0.004890
O O10 0.903105 0.855358 0.042120
O O11 0.000000 0.923961 0.250000
O O12 0.000000 0.000000 0.000000
O O13 0.250000 0.750000 0.500000
#
# Coordination Sequence:
#
# PCOD9262202 Si02
#       5
#     8   8   8   8   8
#     4  11  20  33  56  87 121 158 199 261 329 384
#     4  10  19  32  55  87 121 156 201 263 323 379
#     4  10  20  36  56  83 118 158 207 259 317 384
#     4  12  24  39  59  88 129 176 217 264 330 406
#     4  11  21  36  60  89 123 162 213 275 334 391
#
# _framework density 22.598310999999999
#
# number of rings (size 3 to 8) (size 9 to 14) (size 15 to 20)
#    0.000    1.200    0.000   12.000    0.000    0.000 
#    0.000    0.000    0.000    1.200    0.000   11.200 
#    0.000    1.600    0.000    0.000    0.000    0.000 
#
# Total GULP energy -111621.879962 kJ/mol
# GULP energy per Si atom -5581.093998 kJ/mol
# Density = 2.254688 g / cm^3
# Si number density = 22.598311 Si / 1000 Ang^3
#
#
#
# Elastic Constant Matrix: (Units=GPa)
#
#
# Indices 1 2 3 4 5 6 
#
# 1 194.0332 18.1504 70.5015 0.0000 -22.9127 0.0000
# 2 18.1504 37.5863 5.8349 0.0000 -2.9179 0.0000
# 3 70.5015 5.8349 135.6998 0.0000 -5.1316 0.0000
# 4 0.0000 0.0000 0.0000 31.7952 0.0000 -3.5248
# 5 -22.9127 -2.9179 -5.1316 0.0000 54.2019 0.0000
# 6 0.0000 0.0000 0.0000 -3.5248 0.0000 -1.7157
#
#
#
# Elastic Compliance Matrix: (Units=1/GPa)
#
#
# Indices 1 2 3 4 5 6 
#
# 1 0.006922 -0.002625 -0.003390 0.000000 0.002464 0.000000
# 2 -0.002625 0.027877 0.000181 0.000000 0.000408 0.000000
# 3 -0.003390 0.000181 0.009102 0.000000 -0.000562 0.000000
# 4 0.000000 0.000000 0.000000 0.025617 0.000000 -0.052629
# 5 0.002464 0.000408 -0.000562 0.000000 0.019460 0.000000
# 6 0.000000 0.000000 0.000000 -0.052629 0.000000 -0.474738
#
#
# Mechanical properties :
#
#
# Convention : Reuss Voigt Hill
#
# Bulk Modulus (GPa) = 31.02608 61.81031 46.41819
# Shear Modulus (GPa) = -13.76094 35.04512 10.64209
#
# Velocity S-wave (km/s) = -2.47034 3.94227 2.17243
# Velocity P-wave (km/s) = 2.37116 6.93780 5.18438
#
# Compressibility (1/GPa) = 0.03223095
#
# Stress axis : x y z
#
# Youngs Moduli (GPa) = 144.46456 35.87217 109.87108
#
# Poissons Ratio (x) = 0.09417 0.37249
# Poissons Ratio (y) = 0.37923 -0.01984
# Poissons Ratio (z) = 0.48977 -0.00648
#
# Static dielectric constant tensor:
#      x y z
#    x 1.856850 0.000000 0.002070 
#    y 0.000000 1.873830 0.000000 
#    z 0.002070 0.000000 1.902240 
# 
# From -- ./inp_files/29249.got.cif
#   From: 2010.05.17/outbox.cif.g08.bks.cpg/sg15_15_cif.got.tgz:29249.got - 2010.06.03 18:47:42.
