data_PCOD9262592
_publ_section_title
;
Structure prediction by ZEFSAII (Michael W. Deem and Ramdas Pophale) SiO2 
 PCOD9262592
Probable space group: C 2/C
;
_chemical_formula_sum "Si O2"
_cell_formula_units_Z 48
_cell_length_a 5.361444
_cell_length_b 19.211317
_cell_length_c 27.105073
_cell_angle_alpha 90.000000
_cell_angle_beta 121.091089
_cell_angle_gamma 90.000000
_cell_volume 2390.779270
_symmetry_space_group_name_H-M "C 2/C"
_symmetry_group_IT_number 15
_symmetry_cell_setting 'monoclinic'
loop_
_space_group_symop_operation_xyz
x,y,z
-x,y,1/2-z
-x,-y,-z
x,-y,1/2+z
1/2+x,1/2+y,z
1/2-x,1/2+y,1/2-z
1/2-x,1/2-y,-z
1/2+x,1/2-y,1/2+z
loop_
_atom_site_type_symbol
_atom_site_label
_atom_site_fract_x
_atom_site_fract_y
_atom_site_fract_z
Si Si1 0.248574 0.937713 0.079839
Si Si2 0.066596 0.346626 0.481590
Si Si3 0.701863 0.718743 0.814013
Si Si4 0.356564 0.923808 0.541482
Si Si5 0.187943 0.784601 0.571813
Si Si6 0.202764 0.628621 0.813652
O O1 0.213300 0.923104 0.133695
O O2 0.389339 0.011800 0.080997
O O3 0.428327 0.875017 0.073244
O O4 0.949459 0.931867 0.018575
O O5 0.360183 0.309473 0.528160
O O6 0.065499 0.414425 0.516264
O O7 0.802565 0.290448 0.455531
O O8 0.500000 0.750517 0.750000
O O9 0.768346 0.769859 0.866165
O O10 0.485671 0.660707 0.816071
O O11 0.992708 0.687431 0.817844
O O12 0.374435 0.848609 0.570135
O O13 0.000000 0.596844 0.750000
#
# Coordination Sequence:
#
# PCOD9262592 Si02
#       6
#     8   8   8   8   8   8
#     4  10  20  35  53  81 111 151 188 237 284 341
#     4  10  19  33  54  78 113 145 190 229 286 344
#     4  10  21  37  60  85 113 147 193 241 283 336
#     4  10  21  33  52  82 115 151 183 234 291 348
#     4  10  20  32  52  84 110 147 188 233 290 338
#     4  10  21  38  60  86 109 147 196 237 278 334
#
# _framework density 20.077137
#
# number of rings (size 3 to 8) (size 9 to 14) (size 15 to 20)
#    0.000    2.000    1.667    2.000    2.333    0.000 
#    0.000    0.833    0.000    0.000    0.000    0.000 
#    0.000    0.000    0.000    0.000    0.000    0.000 
#
# Total GULP energy -133719.509031 kJ/mol
# GULP energy per Si atom -5571.646210 kJ/mol
# Density = 2.003144 g / cm^3
# Si number density = 20.077137 Si / 1000 Ang^3
#
#
#
# Elastic Constant Matrix: (Units=GPa)
#
#
# Indices 1 2 3 4 5 6 
#
# 1 46.8190 -1.8542 2.1975 0.0000 -3.5668 0.0000
# 2 -1.8542 65.0036 41.3752 0.0000 -5.4331 0.0000
# 3 2.1975 41.3752 101.1080 0.0000 -28.3624 0.0000
# 4 0.0000 0.0000 0.0000 8.9548 0.0000 -17.6951
# 5 -3.5668 -5.4331 -28.3624 0.0000 25.5293 0.0000
# 6 0.0000 0.0000 0.0000 -17.6951 0.0000 14.0317
#
#
#
# Elastic Compliance Matrix: (Units=1/GPa)
#
#
# Indices 1 2 3 4 5 6 
#
# 1 0.021640 0.000809 0.000138 0.000000 0.003349 0.000000
# 2 0.000809 0.021815 -0.011056 0.000000 -0.007528 0.000000
# 3 0.000138 -0.011056 0.019986 0.000000 0.019870 0.000000
# 4 0.000000 0.000000 0.000000 -0.074850 0.000000 -0.094391
# 5 0.003349 -0.007528 0.019870 0.000000 0.060112 0.000000
# 6 0.000000 0.000000 0.000000 -0.094391 0.000000 -0.047768
#
#
# Mechanical properties :
#
#
# Convention : Reuss Voigt Hill
#
# Bulk Modulus (GPa) = 23.13626 32.92973 28.03299
# Shear Modulus (GPa) = 140.60799 21.11730 80.86264
#
# Velocity S-wave (km/s) = 8.37770 3.24668 6.35322
# Velocity P-wave (km/s) = 10.25329 5.52193 8.23473
#
# Compressibility (1/GPa) = 0.04322221
#
# Stress axis : x y z
#
# Youngs Moduli (GPa) = 46.21165 45.83972 50.03572
#
# Poissons Ratio (x) = -0.03710 -0.00689
# Poissons Ratio (y) = -0.03741 0.55321
# Poissons Ratio (z) = -0.00637 0.50682
#
# Static dielectric constant tensor:
#      x y z
#    x 1.796580 0.000000 -0.002110 
#    y 0.000000 1.765350 0.000000 
#    z -0.002110 0.000000 1.705820 
# 
# From -- ./inp_files/260730.got.cif
#   From: 2010.05.17/outbox.cif.g08.bks.cpg/sg15_131_cif.got.tgz:260730.got - 2010.06.03 18:47:42.
