data_PCOD9262683
_publ_section_title
;
Structure prediction by ZEFSAII (Michael W. Deem and Ramdas Pophale) SiO2 
 PCOD9262683
Probable space group: C 2/C
;
_chemical_formula_sum "Si O2"
_cell_formula_units_Z 52
_cell_length_a 8.654582
_cell_length_b 11.224616
_cell_length_c 23.335277
_cell_angle_alpha 90.000000
_cell_angle_beta 80.519210
_cell_angle_gamma 90.000000
_cell_volume 2235.926817
_symmetry_space_group_name_H-M "C 2/C"
_symmetry_group_IT_number 15
_symmetry_cell_setting 'monoclinic'
loop_
_space_group_symop_operation_xyz
x,y,z
-x,y,1/2-z
-x,-y,-z
x,-y,1/2+z
1/2+x,1/2+y,z
1/2-x,1/2+y,1/2-z
1/2-x,1/2-y,-z
1/2+x,1/2-y,1/2+z
loop_
_atom_site_type_symbol
_atom_site_label
_atom_site_fract_x
_atom_site_fract_y
_atom_site_fract_z
Si Si1 0.000000 0.373787 0.750000
Si Si2 0.246649 0.730745 0.154338
Si Si3 0.003755 0.099474 0.419669
Si Si4 0.517390 0.821464 0.561959
Si Si5 0.731066 0.545754 0.512517
Si Si6 0.542516 0.964015 0.356070
Si Si7 0.210083 0.669382 0.569507
O O1 0.138988 0.294435 0.715508
O O2 0.054796 0.458326 0.798417
O O3 0.377170 0.626190 0.139055
O O4 0.136589 0.720038 0.104886
O O5 0.336549 0.855747 0.150393
O O6 0.903005 0.219021 0.430595
O O7 0.111135 0.084591 0.469249
O O8 0.881585 0.990008 0.428062
O O9 0.627235 0.860227 0.501339
O O10 0.882977 0.222827 0.565366
O O11 0.442282 0.943413 0.592051
O O12 0.794240 0.420015 0.483784
O O13 0.368089 0.907181 0.374603
#
# Coordination Sequence:
#
# PCOD9262683 Si02
#       7
#     4   8   8   8   8   8   8
#     4  10  20  36  58  78  96 130 178 216 260 312
#     4   9  19  37  55  74 105 136 167 216 265 305
#     4   9  18  34  53  75 106 141 174 211 260 308
#     4   9  19  34  54  81 107 137 175 206 251 312
#     4   9  18  34  52  75 110 142 171 213 253 298
#     4   9  20  37  55  75 104 134 166 216 262 305
#     4  10  19  33  55  78 104 140 175 210 253 306
#
# _framework density 23.256575000000002
#
# number of rings (size 3 to 8) (size 9 to 14) (size 15 to 20)
#    0.000    2.769    0.000    1.385    0.000    4.308 
#    0.000   10.000    0.000    0.000    0.000    0.000 
#    0.000    0.000    0.000    0.000    0.000    0.000 
#
# Total GULP energy -145352.974465 kJ/mol
# GULP energy per Si atom -5590.499018 kJ/mol
# Density = 2.320364 g / cm^3
# Si number density = 23.256575 Si / 1000 Ang^3
#
#
#
# Elastic Constant Matrix: (Units=GPa)
#
#
# Indices 1 2 3 4 5 6 
#
# 1 145.5000 65.3957 48.9808 0.0000 -33.7400 0.0000
# 2 65.3957 129.5424 55.2732 0.0000 -30.2309 0.0000
# 3 48.9808 55.2732 99.5792 0.0000 -41.2639 0.0000
# 4 0.0000 0.0000 0.0000 28.3663 0.0000 -7.0762
# 5 -33.7400 -30.2309 -41.2639 0.0000 41.7451 0.0000
# 6 0.0000 0.0000 0.0000 -7.0762 0.0000 62.4757
#
#
#
# Elastic Compliance Matrix: (Units=1/GPa)
#
#
# Indices 1 2 3 4 5 6 
#
# 1 0.009807 -0.003470 -0.001108 0.000000 0.004318 0.000000
# 2 -0.003470 0.011571 -0.004075 0.000000 0.001547 0.000000
# 3 -0.001108 -0.004075 0.019064 0.000000 0.014997 0.000000
# 4 0.000000 0.000000 0.000000 0.036278 0.000000 0.004109
# 5 0.004318 0.001547 0.014997 0.000000 0.043389 0.000000
# 6 0.000000 0.000000 0.000000 0.004109 0.000000 0.016472
#
#
# Mechanical properties :
#
#
# Convention : Reuss Voigt Hill
#
# Bulk Modulus (GPa) = 43.22455 79.32456 61.27455
# Shear Modulus (GPa) = 30.94071 40.18220 35.56145
#
# Velocity S-wave (km/s) = 3.65143 4.16116 3.91460
# Velocity P-wave (km/s) = 6.03354 7.56766 6.84372
#
# Compressibility (1/GPa) = 0.02313500
#
# Stress axis : x y z
#
# Youngs Moduli (GPa) = 101.96901 86.42369 52.45506
#
# Poissons Ratio (x) = 0.29991 0.05814
# Poissons Ratio (y) = 0.35385 0.21374
# Poissons Ratio (z) = 0.11303 0.35215
#
# Static dielectric constant tensor:
#      x y z
#    x 1.933570 0.000000 -0.008510 
#    y 0.000000 1.915320 0.000000 
#    z -0.008510 0.000000 1.873070 
# 
# From -- ./inp_files/287629.got.cif
#   From: 2010.05.17/outbox.cif.g08.bks.cpg/sg15_144_cif.got.tgz:287629.got - 2010.06.03 18:47:42.
