data_PCOD9262399
_publ_section_title
;
Structure prediction by ZEFSAII (Michael W. Deem and Ramdas Pophale) SiO2 
 PCOD9262399
Probable space group: C 2/C
;
_chemical_formula_sum "Si O2"
_cell_formula_units_Z 56
_cell_length_a 11.428376
_cell_length_b 30.228652
_cell_length_c 10.413807
_cell_angle_alpha 90.000000
_cell_angle_beta 54.367789
_cell_angle_gamma 90.000000
_cell_volume 2924.033149
_symmetry_space_group_name_H-M "C 2/C"
_symmetry_group_IT_number 15
_symmetry_cell_setting 'monoclinic'
loop_
_space_group_symop_operation_xyz
x,y,z
-x,y,1/2-z
-x,-y,-z
x,-y,1/2+z
1/2+x,1/2+y,z
1/2-x,1/2+y,1/2-z
1/2-x,1/2-y,-z
1/2+x,1/2-y,1/2+z
loop_
_atom_site_type_symbol
_atom_site_label
_atom_site_fract_x
_atom_site_fract_y
_atom_site_fract_z
Si Si1 0.158076 0.017696 0.993172
Si Si2 0.487148 0.574840 0.940768
Si Si3 0.565692 0.208205 0.354873
Si Si4 0.736836 0.777214 0.376453
Si Si5 0.340813 0.982154 0.634687
Si Si6 0.542036 0.110652 0.371380
Si Si7 0.713759 0.621109 0.611124
O O1 0.262128 0.007487 0.803006
O O2 0.061840 0.061670 0.028687
O O3 0.058124 0.974536 0.070466
O O4 0.249400 0.017532 0.063625
O O5 0.613218 0.596102 0.775912
O O6 0.348965 0.605058 0.987975
O O7 0.500000 0.206391 0.250000
O O8 0.433210 0.217875 0.533823
O O9 0.679670 0.247541 0.279426
O O10 0.614149 0.158209 0.350800
O O11 0.750000 0.750000 0.500000
O O12 0.799534 0.826091 0.361589
O O13 0.363352 0.931066 0.656206
O O14 0.500000 0.000000 0.500000
O O15 0.500000 0.108349 0.250000
O O16 0.379975 0.109572 0.533381
#
# Coordination Sequence:
#
# PCOD9262399 Si02
#       7
#     8   8   8   8   8   8   8
#     4  11  24  39  55  84 114 156 200 246 285 350
#     4  10  21  35  53  74 112 149 192 232 287 346
#     4   8  16  28  43  72 110 141 175 232 292 348
#     4   9  17  27  47  76 113 141 185 235 301 355
#     4  12  22  36  59  82 114 153 197 243 299 342
#     4  10  19  33  50  78 114 143 184 237 292 345
#     4  10  19  33  53  79 112 150 190 235 296 352
#
# _framework density 19.151629
#
# number of rings (size 3 to 8) (size 9 to 14) (size 15 to 20)
#    0.000    2.000    0.000    6.429    6.000    1.714 
#    0.000    0.000    0.000    0.000    0.000    1.000 
#    8.571    0.000    0.000    0.000    0.000    0.000 
#
# Total GULP energy -155957.856673 kJ/mol
# GULP energy per Si atom -5569.923453 kJ/mol
# Density = 1.910804 g / cm^3
# Si number density = 19.151629 Si / 1000 Ang^3
#
#
#
# Elastic Constant Matrix: (Units=GPa)
#
#
# Indices 1 2 3 4 5 6 
#
# 1 64.2965 30.3443 19.3940 0.0000 7.2775 0.0000
# 2 30.3443 133.5637 39.8604 0.0000 -10.3422 0.0000
# 3 19.3940 39.8604 70.8648 0.0000 -9.1749 0.0000
# 4 0.0000 0.0000 0.0000 30.2098 0.0000 -10.9470
# 5 7.2775 -10.3422 -9.1749 0.0000 23.8098 0.0000
# 6 0.0000 0.0000 0.0000 -10.9470 0.0000 18.1679
#
#
#
# Elastic Compliance Matrix: (Units=1/GPa)
#
#
# Indices 1 2 3 4 5 6 
#
# 1 0.019810 -0.003905 -0.004450 0.000000 -0.009466 0.000000
# 2 -0.003905 0.009864 -0.003968 0.000000 0.003949 0.000000
# 3 -0.004450 -0.003968 0.018434 0.000000 0.006740 0.000000
# 4 0.000000 0.000000 0.000000 0.042348 0.000000 0.025517
# 5 -0.009466 0.003949 0.006740 0.000000 0.049205 0.000000
# 6 0.000000 0.000000 0.000000 0.025517 0.000000 0.070417
#
#
# Mechanical properties :
#
#
# Convention : Reuss Voigt Hill
#
# Bulk Modulus (GPa) = 42.62570 49.76915 46.19742
# Shear Modulus (GPa) = 20.61449 26.37925 23.49687
#
# Velocity S-wave (km/s) = 3.28439 3.71535 3.50649
# Velocity P-wave (km/s) = 6.05708 6.66696 6.36932
#
# Compressibility (1/GPa) = 0.02346003
#
# Stress axis : x y z
#
# Youngs Moduli (GPa) = 50.47973 101.37365 54.24714
#
# Poissons Ratio (x) = 0.39591 0.24142
# Poissons Ratio (y) = 0.19715 0.21528
# Poissons Ratio (z) = 0.22465 0.40230
#
# Static dielectric constant tensor:
#      x y z
#    x 1.867760 0.000000 -0.034620 
#    y 0.000000 1.687150 0.000000 
#    z -0.034620 0.000000 1.738160 
# 
# From -- ./inp_files/91728.got.cif
#   From: 2010.05.17/outbox.cif.g08.bks.cpg/sg15_46_cif.got.tgz:91728.got - 2010.06.03 18:47:42.
