data_PCOD9262387
_publ_section_title
;
Structure prediction by ZEFSAII (Michael W. Deem and Ramdas Pophale) SiO2 
 PCOD9262387
Probable space group: C 2/C
;
_chemical_formula_sum "Si O2"
_cell_formula_units_Z 64
_cell_length_a 31.431046
_cell_length_b 5.388134
_cell_length_c 16.031262
_cell_angle_alpha 90.000000
_cell_angle_beta 116.102439
_cell_angle_gamma 90.000000
_cell_volume 2438.066513
_symmetry_space_group_name_H-M "C 2/C"
_symmetry_group_IT_number 15
_symmetry_cell_setting 'monoclinic'
loop_
_space_group_symop_operation_xyz
x,y,z
-x,y,1/2-z
-x,-y,-z
x,-y,1/2+z
1/2+x,1/2+y,z
1/2-x,1/2+y,1/2-z
1/2-x,1/2-y,-z
1/2+x,1/2-y,1/2+z
loop_
_atom_site_type_symbol
_atom_site_label
_atom_site_fract_x
_atom_site_fract_y
_atom_site_fract_z
Si Si1 0.341364 0.901493 0.182347
Si Si2 0.025781 0.203405 0.463639
Si Si3 0.707733 0.481117 0.749824
Si Si4 0.433144 0.212936 0.825106
Si Si5 0.246784 0.172928 0.106692
Si Si6 0.449464 0.409095 0.184743
Si Si7 0.117391 0.873183 0.106436
Si Si8 0.350324 0.474967 0.050068
O O1 0.320744 0.755080 0.244541
O O2 0.394163 0.977717 0.257340
O O3 0.297290 0.071332 0.121128
O O4 0.347665 0.700984 0.113189
O O5 0.073398 0.306915 0.547654
O O6 0.983916 0.385596 0.399212
O O7 0.041110 0.061072 0.392449
O O8 0.000000 0.000000 0.500000
O O9 0.733654 0.447720 0.685286
O O10 0.664970 0.680530 0.699724
O O11 0.743430 0.547414 0.854731
O O12 0.443411 0.400420 0.756519
O O13 0.408665 0.392276 0.872649
O O14 0.202558 0.128276 0.009766
O O15 0.500000 0.271347 0.250000
O O16 0.395553 0.307882 0.119835
O O17 0.136782 0.941704 0.032199
#
# Coordination Sequence:
#
# PCOD9262387 Si02
#       8
#     8   8   8   8   8   8   8   8
#     4  10  19  33  50  71  99 127 163 202 244 293
#     4   8  12  21  39  66  97 124 158 201 239 286
#     4  10  20  33  51  71  94 132 166 201 243 293
#     4   8  14  24  43  67  94 126 160 196 241 287
#     4  11  20  34  51  70  98 130 166 201 244 288
#     4   8  13  23  40  66  98 125 159 201 243 287
#     4   8  15  27  44  68  97 126 162 198 243 288
#     4   9  18  29  46  71  99 127 161 205 242 291
#
# _framework density 26.250308
#
# number of rings (size 3 to 8) (size 9 to 14) (size 15 to 20)
#    0.000    3.000    1.250    0.375    0.000    0.500 
#    0.000    0.000    0.000    0.750    0.000    0.000 
#    0.000  144.750    0.000    0.000    0.000    0.000 
#
# Total GULP energy -178452.004141 kJ/mol
# GULP energy per Si atom -5576.625129 kJ/mol
# Density = 2.619056 g / cm^3
# Si number density = 26.250308 Si / 1000 Ang^3
#
#
#
# Elastic Constant Matrix: (Units=GPa)
#
#
# Indices 1 2 3 4 5 6 
#
# 1 115.5463 20.5351 85.4302 0.0000 23.3352 0.0000
# 2 20.5351 25.2504 23.7926 -0.0001 -0.6231 0.0000
# 3 85.4302 23.7926 144.3311 0.0000 28.1854 0.0000
# 4 0.0000 -0.0001 0.0000 22.5015 0.0000 -12.4528
# 5 23.3352 -0.6231 28.1854 0.0000 79.3011 0.0000
# 6 0.0000 0.0000 0.0000 -12.4528 0.0000 10.2096
#
#
#
# Elastic Compliance Matrix: (Units=1/GPa)
#
#
# Indices 1 2 3 4 5 6 
#
# 1 0.016106 -0.005325 -0.008297 0.000000 -0.001832 0.000000
# 2 -0.005325 0.049489 -0.005790 0.000001 0.004014 0.000001
# 3 -0.008297 -0.005790 0.013246 0.000000 -0.002312 0.000000
# 4 0.000000 0.000001 0.000000 0.136752 0.000000 0.166799
# 5 -0.001832 0.004014 -0.002312 0.000000 0.014002 0.000000
# 6 0.000000 0.000001 0.000000 0.166799 0.000000 0.301396
#
#
# Mechanical properties :
#
#
# Convention : Reuss Voigt Hill
#
# Bulk Modulus (GPa) = 24.99047 60.51596 42.75321
# Shear Modulus (GPa) = 8.57407 32.76042 20.66724
#
# Velocity S-wave (km/s) = 1.80924 3.53654 2.80896
# Velocity P-wave (km/s) = 3.72897 6.30711 5.18097
#
# Compressibility (1/GPa) = 0.04001526
#
# Stress axis : x y z
#
# Youngs Moduli (GPa) = 62.08979 20.20665 75.49594
#
# Poissons Ratio (x) = 0.10760 0.62643
# Poissons Ratio (y) = 0.33062 0.43712
# Poissons Ratio (z) = 0.51519 0.11700
#
# Static dielectric constant tensor:
#      x y z
#    x 2.098090 0.000000 0.074960 
#    y 0.000000 2.063190 0.000000 
#    z 0.074960 0.000000 2.063710 
# 
# From -- ./inp_files/224102.got.cif
#   From: 2010.05.17/outbox.cif.g08.bks.cpg/sg15_113_cif.got.tgz:224102.got - 2010.06.03 18:47:42.
