data_PCOD9262895
_publ_section_title
;
Structure prediction by ZEFSAII (Michael W. Deem and Ramdas Pophale) SiO2 
 PCOD9262895
Probable space group: C 2/C
;
_chemical_formula_sum "Si O2"
_cell_formula_units_Z 56
_cell_length_a 19.683332
_cell_length_b 23.384992
_cell_length_c 11.181861
_cell_angle_alpha 90.000000
_cell_angle_beta 149.074127
_cell_angle_gamma 90.000000
_cell_volume 2645.165094
_symmetry_space_group_name_H-M "C 2/C"
_symmetry_group_IT_number 15
_symmetry_cell_setting 'monoclinic'
loop_
_space_group_symop_operation_xyz
x,y,z
-x,y,1/2-z
-x,-y,-z
x,-y,1/2+z
1/2+x,1/2+y,z
1/2-x,1/2+y,1/2-z
1/2-x,1/2-y,-z
1/2+x,1/2-y,1/2+z
loop_
_atom_site_type_symbol
_atom_site_label
_atom_site_fract_x
_atom_site_fract_y
_atom_site_fract_z
Si Si1 0.776939 0.333554 0.948236
Si Si2 0.943257 0.081075 0.427596
Si Si3 0.265936 0.393784 0.239207
Si Si4 0.094348 0.426414 0.204839
Si Si5 0.400341 0.506100 0.672151
Si Si6 0.846461 0.212731 0.993128
Si Si7 0.867458 0.445083 0.694445
O O1 0.650113 0.364825 0.700076
O O2 0.726518 0.306358 0.996376
O O3 0.876575 0.381981 0.146173
O O4 0.832080 0.280841 0.955252
O O5 0.086328 0.092140 0.583753
O O6 0.984824 0.049267 0.609818
O O7 0.863558 0.034042 0.229683
O O8 0.214235 0.423225 0.285312
O O9 0.279277 0.326512 0.290313
O O10 0.168696 0.414721 0.985562
O O11 0.075344 0.490226 0.228292
O O12 0.967079 0.411866 0.931343
O O13 0.500000 0.465494 0.750000
O O14 0.271188 0.541904 0.449123
O O15 0.000000 0.198839 0.250000
#
# Coordination Sequence:
#
# PCOD9262895 Si02
#       7
#     8   8   8   8   8   8   8
#     4  10  20  36  56  86 113 147 203 244 287 336
#     4  10  19  33  57  85 111 147 198 239 281 350
#     4  10  20  35  62  84 113 159 199 236 287 349
#     4  10  20  35  55  86 126 152 182 237 294 352
#     4  10  20  33  54  82 120 154 185 228 291 353
#     4  10  20  36  59  82 109 151 201 253 289 331
#     4  10  20  35  55  89 123 153 190 227 289 372
#
# _framework density 21.170701999999999
#
# number of rings (size 3 to 8) (size 9 to 14) (size 15 to 20)
#    0.000    2.000    2.857    1.286    2.000    0.000 
#    2.571    1.429    0.000    6.000    0.000    0.000 
#    0.000    0.000    0.000    0.000    0.000    0.000 
#
# Total GULP energy -155960.361679 kJ/mol
# GULP energy per Si atom -5570.012917 kJ/mol
# Density = 2.112252 g / cm^3
# Si number density = 21.170702 Si / 1000 Ang^3
#
#
#
# Elastic Constant Matrix: (Units=GPa)
#
#
# Indices 1 2 3 4 5 6 
#
# 1 35.8009 -7.0334 3.1823 0.0000 5.9245 0.0000
# 2 -7.0334 98.5892 34.5562 0.0000 -17.7926 0.0000
# 3 3.1823 34.5562 101.8381 0.0000 -6.5661 0.0000
# 4 0.0000 0.0000 0.0000 957.5788 0.0000-1476.8429
# 5 5.9245 -17.7926 -6.5661 0.0000 26.8993 0.0000
# 6 0.0000 0.0000 0.0000-1476.8429 0.0000 2388.8671
#
#
#
# Elastic Compliance Matrix: (Units=1/GPa)
#
#
# Indices 1 2 3 4 5 6 
#
# 1 0.029394 0.001706 -0.001871 0.000000 -0.005802 0.000000
# 2 0.001706 0.012967 -0.003987 0.000000 0.007228 0.000000
# 3 -0.001871 -0.003987 0.011265 0.000000 0.000525 0.000000
# 4 0.000000 0.000000 0.000000 0.022438 0.000000 0.013872
# 5 -0.005802 0.007228 0.000525 0.000000 0.043363 0.000000
# 6 0.000000 0.000000 0.000000 0.013872 0.000000 0.008994
#
#
# Mechanical properties :
#
#
# Convention : Reuss Voigt Hill
#
# Bulk Modulus (GPa) = 22.06549 33.07093 27.56821
# Shear Modulus (GPa) = 32.93090 688.37061 360.65075
#
# Velocity S-wave (km/s) = 3.94825 18.05155 13.06612
# Velocity P-wave (km/s) = 5.58840 21.21633 15.51391
#
# Compressibility (1/GPa) = 0.04531963
#
# Stress axis : x y z
#
# Youngs Moduli (GPa) = 34.02066 77.12015 88.77232
#
# Poissons Ratio (x) = -0.13155 0.16613
# Poissons Ratio (y) = -0.05803 0.35396
# Poissons Ratio (z) = 0.06367 0.30750
#
# Static dielectric constant tensor:
#      x y z
#    x 3.772510 0.000000 -0.546370 
#    y 0.000000 1.800210 0.000000 
#    z -0.546370 0.000000 1.953930 
# 
# From -- ./inp_files/114745.got.cif
#   From: 2010.05.17/outbox.cif.g08.bks.cpg/sg15_58_cif.got.tgz:114745.got - 2010.06.03 18:47:42.
