data_PCOD9262904
_publ_section_title
;
Structure prediction by ZEFSAII (Michael W. Deem and Ramdas Pophale) SiO2 
 PCOD9262904
Probable space group: C 2/C
;
_chemical_formula_sum "Si O2"
_cell_formula_units_Z 52
_cell_length_a 10.867131
_cell_length_b 24.347467
_cell_length_c 8.744260
_cell_angle_alpha 90.000000
_cell_angle_beta 104.569187
_cell_angle_gamma 90.000000
_cell_volume 2239.223162
_symmetry_space_group_name_H-M "C 2/C"
_symmetry_group_IT_number 15
_symmetry_cell_setting 'monoclinic'
loop_
_space_group_symop_operation_xyz
x,y,z
-x,y,1/2-z
-x,-y,-z
x,-y,1/2+z
1/2+x,1/2+y,z
1/2-x,1/2+y,1/2-z
1/2-x,1/2-y,-z
1/2+x,1/2-y,1/2+z
loop_
_atom_site_type_symbol
_atom_site_label
_atom_site_fract_x
_atom_site_fract_y
_atom_site_fract_z
Si Si1 0.811376 0.530036 0.941992
Si Si2 0.060579 0.772327 0.435938
Si Si3 0.145218 0.720012 0.745723
Si Si4 0.821153 0.821025 0.543838
Si Si5 0.591660 0.558438 0.408789
Si Si6 0.000000 0.518067 0.250000
Si Si7 0.400693 0.388942 0.091410
O O1 0.716161 0.480015 0.964032
O O2 0.906536 0.514921 0.835037
O O3 0.714102 0.577628 0.874688
O O4 0.901177 0.548513 0.109653
O O5 0.132009 0.726557 0.559229
O O6 0.142068 0.828734 0.471411
O O7 0.000000 0.757571 0.250000
O O8 0.942393 0.793493 0.501277
O O9 0.221414 0.676173 0.872625
O O10 0.000000 0.713716 0.750000
O O11 0.206233 0.777383 0.830416
O O12 0.854986 0.881001 0.616750
O O13 0.500000 0.533937 0.250000
O O14 0.486807 0.573081 0.506302
O O15 0.500000 0.373371 0.250000
#
# Coordination Sequence:
#
# PCOD9262904 Si02
#       7
#     8   8   8   8   8   4   8
#     4  11  21  38  56  82 119 164 203 236 294 358
#     4   9  18  31  52  85 112 144 188 247 310 346
#     4   9  17  33  53  76 112 156 192 235 294 368
#     4   9  18  32  52  80 110 147 194 244 299 353
#     4  11  20  33  58  90 114 147 203 263 300 342
#     4  10  24  38  54  76 116 176 198 232 284 358
#     4  10  19  33  57  87 117 147 195 255 306 340
#
# _framework density 23.222339000000002
#
# number of rings (size 3 to 8) (size 9 to 14) (size 15 to 20)
#    0.000    2.154    0.000    5.077    0.000    0.615 
#    1.385    0.000    0.000    0.000   20.000    0.000 
#    0.000    0.000    0.000    0.000    0.000    0.000 
#
# Total GULP energy -144821.861271 kJ/mol
# GULP energy per Si atom -5570.071587 kJ/mol
# Density = 2.316948 g / cm^3
# Si number density = 23.222339 Si / 1000 Ang^3
#
#
#
# Elastic Constant Matrix: (Units=GPa)
#
#
# Indices 1 2 3 4 5 6 
#
# 1 116.7100 37.0242 10.1393 0.0000 9.1975 0.0000
# 2 37.0242 29.2395 17.0456 0.0000 13.6108 0.0000
# 3 10.1393 17.0456 96.3119 0.0000 10.1006 0.0000
# 4 0.0000 0.0000 0.0000 -711.5725 0.0000 -526.6075
# 5 9.1975 13.6108 10.1006 0.0000 38.5267 0.0000
# 6 0.0000 0.0000 0.0000 -526.6075 0.0000 -378.7086
#
#
#
# Elastic Compliance Matrix: (Units=1/GPa)
#
#
# Indices 1 2 3 4 5 6 
#
# 1 0.015050 -0.021856 0.001903 0.000000 0.003630 0.000000
# 2 -0.021856 0.076201 -0.009161 0.000000 -0.019301 0.000000
# 3 0.001903 -0.009161 0.011838 0.000000 -0.000321 0.000000
# 4 0.000000 0.000000 0.000000 0.048325 0.000000 -0.067197
# 5 0.003630 -0.019301 -0.000321 0.000000 0.031992 0.000000
# 6 0.000000 0.000000 0.000000 -0.067197 0.000000 0.090799
#
#
# Mechanical properties :
#
#
# Convention : Reuss Voigt Hill
#
# Bulk Modulus (GPa) = 22.29161 41.18662 31.73911
# Shear Modulus (GPa) = 14.39315 -198.48074 -92.04380
#
# Velocity S-wave (km/s) = 2.49227 -9.25501 -6.30253
# Velocity P-wave (km/s) = 4.23107 9.82002 6.26621
#
# Compressibility (1/GPa) = 0.04485993
#
# Stress axis : x y z
#
# Youngs Moduli (GPa) = 66.44318 13.12323 84.47622
#
# Poissons Ratio (x) = 0.28683 -0.16077
# Poissons Ratio (y) = 1.45221 0.77390
# Poissons Ratio (z) = -0.12645 0.12022
#
# Static dielectric constant tensor:
#      x y z
#    x 1.929350 0.000000 -0.092650 
#    y 0.000000 1.881780 0.000000 
#    z -0.092650 0.000000 1.907420 
# 
# From -- ./inp_files/33733.got.cif
#   From: 2010.05.17/outbox.cif.g08.bks.cpg/sg15_17_cif.got.tgz:33733.got - 2010.06.03 18:47:42.
