data_PCOD9262962
_publ_section_title
;
Structure prediction by ZEFSAII (Michael W. Deem and Ramdas Pophale) SiO2 
 PCOD9262962
Probable space group: C 2/C
;
_chemical_formula_sum "Si O2"
_cell_formula_units_Z 60
_cell_length_a 24.752062
_cell_length_b 8.606482
_cell_length_c 21.447906
_cell_angle_alpha 90.000000
_cell_angle_beta 138.674831
_cell_angle_gamma 90.000000
_cell_volume 3017.060654
_symmetry_space_group_name_H-M "C 2/C"
_symmetry_group_IT_number 15
_symmetry_cell_setting 'monoclinic'
loop_
_space_group_symop_operation_xyz
x,y,z
-x,y,1/2-z
-x,-y,-z
x,-y,1/2+z
1/2+x,1/2+y,z
1/2-x,1/2+y,1/2-z
1/2-x,1/2-y,-z
1/2+x,1/2-y,1/2+z
loop_
_atom_site_type_symbol
_atom_site_label
_atom_site_fract_x
_atom_site_fract_y
_atom_site_fract_z
Si Si1 0.967018 0.874976 0.586324
Si Si2 0.369095 0.857197 0.490876
Si Si3 0.687616 0.557864 0.001411
Si Si4 0.500000 0.277389 0.750000
Si Si5 0.425462 0.894221 0.958150
Si Si6 0.089340 0.804012 0.300805
Si Si7 0.044585 0.821588 0.125516
Si Si8 0.636389 0.975454 0.382513
O O1 0.007570 0.859622 0.689695
O O2 0.956566 0.712829 0.542168
O O3 0.878281 0.946444 0.524162
O O4 0.015466 0.002296 0.587412
O O5 0.308214 0.713376 0.451963
O O6 0.459554 0.774614 0.566198
O O7 0.364215 0.965814 0.547126
O O8 0.360804 0.976939 0.426282
O O9 0.652756 0.618979 0.904272
O O10 0.771561 0.469752 0.062439
O O11 0.418535 0.174426 0.672607
O O12 0.408856 0.772178 0.888105
O O13 0.500000 0.000000 0.000000
O O14 0.095063 0.837147 0.233027
O O15 0.096011 0.618517 0.311067
O O16 0.000000 0.845394 0.250000
#
# Coordination Sequence:
#
# PCOD9262962 Si02
#       8
#     8   8   8   4   8   8   8   8
#     4  11  21  37  55  89 124 154 197 253 301 353
#     4   9  16  35  53  85 119 155 197 241 292 358
#     4  10  22  35  61  89 125 156 191 253 326 362
#     4  12  22  34  62  90 130 150 204 262 300 366
#     4  10  21  34  56  86 117 158 208 246 291 358
#     4  11  16  33  61  89 119 149 193 245 300 359
#     4  10  19  33  58  86 118 159 201 244 289 358
#     4  11  20  35  59  92 122 154 195 249 317 360
#
# _framework density 19.886906
#
# number of rings (size 3 to 8) (size 9 to 14) (size 15 to 20)
#    0.000    1.600    6.000    2.800    1.867    0.533 
#    0.000    0.000    0.000    3.200    0.000    0.000 
#    0.000    0.000    0.000    0.000    0.000    0.000 
#
# Total GULP energy -167266.184727 kJ/mol
# GULP energy per Si atom -5575.539491 kJ/mol
# Density = 1.984164 g / cm^3
# Si number density = 19.886906 Si / 1000 Ang^3
#
#
#
# Elastic Constant Matrix: (Units=GPa)
#
#
# Indices 1 2 3 4 5 6 
#
# 1 57.2899 37.0074 26.6841 0.0000 -11.1805 0.0000
# 2 37.0074 94.2617 21.5141 0.0000 -11.2492 0.0000
# 3 26.6841 21.5141 37.7150 0.0000 -7.9451 0.0000
# 4 0.0000 0.0000 0.0000 15.3829 0.0000 -14.9490
# 5 -11.1805 -11.2492 -7.9451 0.0000 28.3302 0.0000
# 6 0.0000 0.0000 0.0000 -14.9490 0.0000 18.4639
#
#
#
# Elastic Compliance Matrix: (Units=1/GPa)
#
#
# Indices 1 2 3 4 5 6 
#
# 1 0.031176 -0.007915 -0.016593 0.000000 0.004507 0.000000
# 2 -0.007915 0.014463 -0.002231 0.000000 0.001994 0.000000
# 3 -0.016593 -0.002231 0.040344 0.000000 0.003880 0.000000
# 4 0.000000 0.000000 0.000000 0.304915 0.000000 0.246870
# 5 0.004507 0.001994 0.003880 0.000000 0.038957 0.000000
# 6 0.000000 0.000000 0.000000 0.246870 0.000000 0.254035
#
#
# Mechanical properties :
#
#
# Convention : Reuss Voigt Hill
#
# Bulk Modulus (GPa) = 30.76284 39.96419 35.36352
# Shear Modulus (GPa) = 6.68268 19.37280 13.02774
#
# Velocity S-wave (km/s) = 1.83511 3.12452 2.56225
# Velocity P-wave (km/s) = 4.47131 5.75814 5.15504
#
# Compressibility (1/GPa) = 0.03250675
#
# Stress axis : x y z
#
# Youngs Moduli (GPa) = 32.07596 69.14141 24.78656
#
# Poissons Ratio (x) = 0.54723 0.41129
# Poissons Ratio (y) = 0.25387 0.05529
# Poissons Ratio (z) = 0.53224 0.15422
#
# Static dielectric constant tensor:
#      x y z
#    x 1.730940 0.000000 -0.014320 
#    y 0.000000 1.748090 0.000000 
#    z -0.014320 0.000000 1.705070 
# 
# From -- ./inp_files/252124.got.cif
#   From: 2010.05.17/outbox.cif.g08.bks.cpg/sg15_127_cif.got.tgz:252124.got - 2010.06.03 18:47:42.
