data_PCOD9262982
_publ_section_title
;
Structure prediction by ZEFSAII (Michael W. Deem and Ramdas Pophale) SiO2 
 PCOD9262982
Probable space group: C 2/C
;
_chemical_formula_sum "Si O2"
_cell_formula_units_Z 64
_cell_length_a 9.088083
_cell_length_b 23.001690
_cell_length_c 20.368375
_cell_angle_alpha 90.000000
_cell_angle_beta 36.342225
_cell_angle_gamma 90.000000
_cell_volume 2523.220242
_symmetry_space_group_name_H-M "C 2/C"
_symmetry_group_IT_number 15
_symmetry_cell_setting 'monoclinic'
loop_
_space_group_symop_operation_xyz
x,y,z
-x,y,1/2-z
-x,-y,-z
x,-y,1/2+z
1/2+x,1/2+y,z
1/2-x,1/2+y,1/2-z
1/2-x,1/2-y,-z
1/2+x,1/2-y,1/2+z
loop_
_atom_site_type_symbol
_atom_site_label
_atom_site_fract_x
_atom_site_fract_y
_atom_site_fract_z
Si Si1 0.609015 0.080632 0.634537
Si Si2 0.070781 0.120602 0.515904
Si Si3 0.326281 0.015971 0.148611
Si Si4 0.257256 0.419988 0.415950
Si Si5 0.486145 0.175960 0.943578
Si Si6 0.236237 0.277349 0.712293
Si Si7 0.621379 0.097860 0.268786
Si Si8 0.536195 0.249663 0.424356
O O1 0.500000 0.087621 0.750000
O O2 0.594975 0.134729 0.587685
O O3 0.906396 0.074984 0.535373
O O4 0.485805 0.027729 0.638159
O O5 0.052669 0.098398 0.597143
O O6 0.364541 0.122025 0.394263
O O7 0.951811 0.184471 0.553545
O O8 0.215610 0.059801 0.241565
O O9 0.187957 0.976105 0.146433
O O10 0.503277 0.058368 0.042060
O O11 0.214430 0.363670 0.387429
O O12 0.547813 0.237602 0.890457
O O13 0.389435 0.199775 0.049794
O O14 0.274878 0.346015 0.692187
O O15 0.000000 0.264759 0.750000
O O16 0.189973 0.260754 0.803608
O O17 0.500000 0.065855 0.250000
O O18 0.250000 0.250000 0.500000
#
# Coordination Sequence:
#
# PCOD9262982 Si02
#       8
#     8   8   8   8   8   8   8   8
#     4  11  25  42  59  91 137 178 224 281 344 414
#     4  11  21  37  61  91 123 166 214 266 334 404
#     4   9  19  37  62  89 127 166 213 275 341 398
#     4   9  18  36  63  93 118 160 218 273 336 393
#     4  11  22  38  61  93 130 171 218 282 339 398
#     4  11  19  32  59  94 126 162 217 274 331 400
#     4  10  19  33  58  91 122 162 216 265 327 399
#     4  12  18  34  58  88 123 159 211 271 328 401
#
# _framework density 25.364412999999999
#
# number of rings (size 3 to 8) (size 9 to 14) (size 15 to 20)
#    0.000    1.500    3.750    2.625    0.000    2.500 
#    0.000    1.875    0.000    3.000    0.000   22.750 
#    0.000    0.000    0.000    0.000    0.000    0.000 
#
# Total GULP energy -178494.109220 kJ/mol
# GULP energy per Si atom -5577.940913 kJ/mol
# Density = 2.530668 g / cm^3
# Si number density = 25.364413 Si / 1000 Ang^3
#
#
#
# Elastic Constant Matrix: (Units=GPa)
#
#
# Indices 1 2 3 4 5 6 
#
# 1 70.1608 21.2653 18.4985 0.0005 19.1488 -0.0009
# 2 21.2653 100.3392 17.5096 0.0002 6.1188 -0.0001
# 3 18.4985 17.5096 77.0111 0.0030 30.1381 0.0002
# 4 0.0005 0.0002 0.0030 31.0739 -0.0003 21.0912
# 5 19.1488 6.1188 30.1381 -0.0003 35.1714 -0.0001
# 6 -0.0009 -0.0001 0.0002 21.0912 -0.0001 42.0755
#
#
#
# Elastic Compliance Matrix: (Units=1/GPa)
#
#
# Indices 1 2 3 4 5 6 
#
# 1 0.017701 -0.003203 0.000045 -0.000001 -0.009118 0.000001
# 2 -0.003203 0.010960 -0.002496 0.000000 0.001976 0.000000
# 3 0.000045 -0.002496 0.020133 -0.000003 -0.016842 0.000001
# 4 -0.000001 0.000000 -0.000003 0.048777 0.000003 -0.024450
# 5 -0.009118 0.001976 -0.016842 0.000003 0.047484 -0.000002
# 6 0.000001 0.000000 0.000001 -0.024450 -0.000002 0.036023
#
#
# Mechanical properties :
#
#
# Convention : Reuss Voigt Hill
#
# Bulk Modulus (GPa) = 26.67703 40.22865 33.45284
# Shear Modulus (GPa) = 24.40442 34.34669 29.37555
#
# Velocity S-wave (km/s) = 3.10522 3.68384 3.40684
# Velocity P-wave (km/s) = 4.83703 5.83000 5.35658
#
# Compressibility (1/GPa) = 0.03748543
#
# Stress axis : x y z
#
# Youngs Moduli (GPa) = 56.49530 91.24021 49.67008
#
# Poissons Ratio (x) = 0.29226 -0.00223
# Poissons Ratio (y) = 0.18096 0.12396
# Poissons Ratio (z) = -0.00253 0.22771
#
# Static dielectric constant tensor:
#      x y z
#    x 2.028560 0.000000 -0.026960 
#    y 0.000000 2.002270 0.000000 
#    z -0.026960 0.000000 2.127590 
# 
# From -- ./inp_files/234419.got.cif
#   From: 2010.05.17/outbox.cif.g08.bks.cpg/sg15_118_cif.got.tgz:234419.got - 2010.06.03 18:47:42.
