data_PCOD9262778
_publ_section_title
;
Structure prediction by ZEFSAII (Michael W. Deem and Ramdas Pophale) SiO2 
 PCOD9262778
Probable space group: C 2/C
;
_chemical_formula_sum "Si O2"
_cell_formula_units_Z 64
_cell_length_a 23.170351
_cell_length_b 11.596592
_cell_length_c 12.302541
_cell_angle_alpha 90.000000
_cell_angle_beta 102.983049
_cell_angle_gamma 90.000000
_cell_volume 3221.153254
_symmetry_space_group_name_H-M "C 2/C"
_symmetry_group_IT_number 15
_symmetry_cell_setting 'monoclinic'
loop_
_space_group_symop_operation_xyz
x,y,z
-x,y,1/2-z
-x,-y,-z
x,-y,1/2+z
1/2+x,1/2+y,z
1/2-x,1/2+y,1/2-z
1/2-x,1/2-y,-z
1/2+x,1/2-y,1/2+z
loop_
_atom_site_type_symbol
_atom_site_label
_atom_site_fract_x
_atom_site_fract_y
_atom_site_fract_z
Si Si1 0.535402 0.878394 0.655155
Si Si2 0.161495 0.674679 0.149077
Si Si3 0.044919 0.367975 0.060595
Si Si4 0.228430 0.088793 0.994864
Si Si5 0.266567 0.757981 0.325857
Si Si6 0.640869 0.013365 0.453185
Si Si7 0.810968 0.827452 0.520811
Si Si8 0.871633 0.317037 0.224203
O O1 0.500000 0.855412 0.750000
O O2 0.603835 0.844534 0.697307
O O3 0.509367 0.820399 0.533337
O O4 0.529537 0.013010 0.617650
O O5 0.223992 0.679985 0.234740
O O6 0.158360 0.574206 0.057993
O O7 0.159456 0.792896 0.080394
O O8 0.075590 0.295455 0.168886
O O9 0.092493 0.404225 0.987385
O O10 0.227335 0.154270 0.879801
O O11 0.203554 0.961090 0.980080
O O12 0.201961 0.172394 0.075391
O O13 0.298710 0.077021 0.051649
O O14 0.313067 0.829130 0.274213
O O15 0.619342 0.931276 0.345798
O O16 0.750000 0.750000 0.500000
O O17 0.853793 0.784038 0.634408
#
# Coordination Sequence:
#
# PCOD9262778 Si02
#       8
#     8   8   8   8   8   8   8   8
#     4  10  22  36  56  83 119 160 193 243 299 353
#     4  10  21  36  54  82 114 154 198 231 293 358
#     4  10  21  35  55  87 116 156 202 236 301 357
#     4  11  22  34  52  85 124 151 193 240 290 363
#     4  11  23  33  54  89 116 158 195 239 305 354
#     4  10  19  33  56  78 118 157 184 237 292 353
#     4  11  20  37  55  82 116 163 197 230 297 361
#     4  11  20  34  56  85 117 157 199 235 295 363
#
# _framework density 19.868660999999999
#
# number of rings (size 3 to 8) (size 9 to 14) (size 15 to 20)
#    0.000    1.500    5.000    0.750    5.250    4.000 
#    0.000    0.000    0.000    0.000    0.000    9.625 
#    0.000    0.000    0.000    0.000    0.000    0.000 
#
# Total GULP energy -178635.944757 kJ/mol
# GULP energy per Si atom -5582.373274 kJ/mol
# Density = 1.982344 g / cm^3
# Si number density = 19.868661 Si / 1000 Ang^3
#
#
#
# Elastic Constant Matrix: (Units=GPa)
#
#
# Indices 1 2 3 4 5 6 
#
# 1 33.4127 -5.5651 4.1336 0.0000 -3.4017 0.0000
# 2 -5.5651 71.7228 9.6908 0.0000 -6.7359 0.0000
# 3 4.1336 9.6908 87.7637 0.0000 0.8914 0.0000
# 4 0.0000 0.0000 0.0000 8.4367 0.0000 2.7170
# 5 -3.4017 -6.7359 0.8914 0.0000 38.9692 0.0000
# 6 0.0000 0.0000 0.0000 2.7170 0.0000 17.4566
#
#
#
# Elastic Compliance Matrix: (Units=1/GPa)
#
#
# Indices 1 2 3 4 5 6 
#
# 1 0.030977 0.002955 -0.001818 0.000000 0.003256 0.000000
# 2 0.002955 0.014680 -0.001789 0.000000 0.002836 0.000000
# 3 -0.001818 -0.001789 0.011685 0.000000 -0.000735 0.000000
# 4 0.000000 0.000000 0.000000 0.124784 0.000000 -0.019422
# 5 0.003256 0.002836 -0.000735 0.000000 0.026453 0.000000
# 6 0.000000 0.000000 0.000000 -0.019422 0.000000 0.060308
#
#
# Mechanical properties :
#
#
# Convention : Reuss Voigt Hill
#
# Bulk Modulus (GPa) = 17.84509 23.26866 20.55687
# Shear Modulus (GPa) = 17.30879 25.28182 21.29531
#
# Velocity S-wave (km/s) = 2.95474 3.57101 3.27739
# Velocity P-wave (km/s) = 4.54332 5.36092 4.96896
#
# Compressibility (1/GPa) = 0.05603783
#
# Stress axis : x y z
#
# Youngs Moduli (GPa) = 32.28155 68.12018 85.58070
#
# Poissons Ratio (x) = -0.20130 0.15562
# Poissons Ratio (y) = -0.09540 0.15310
# Poissons Ratio (z) = 0.05870 0.12186
#
# Static dielectric constant tensor:
#      x y z
#    x 1.766310 0.000000 0.005130 
#    y 0.000000 1.685360 0.000000 
#    z 0.005130 0.000000 1.778590 
# 
# From -- ./inp_files/117616.got.cif
#   From: 2010.05.17/outbox.cif.g08.bks.cpg/sg15_59_cif.got.tgz:117616.got - 2010.06.03 18:47:42.
