data_PCOD9262025
_publ_section_title
;
Structure prediction by ZEFSAII (Michael W. Deem and Ramdas Pophale) SiO2 
 PCOD9262025
Probable space group: C 2/C
;
_chemical_formula_sum "Si O2"
_cell_formula_units_Z 48
_cell_length_a 13.491939
_cell_length_b 16.192375
_cell_length_c 19.015912
_cell_angle_alpha 90.000000
_cell_angle_beta 154.991210
_cell_angle_gamma 90.000000
_cell_volume 1756.277728
_symmetry_space_group_name_H-M "C 2/C"
_symmetry_group_IT_number 15
_symmetry_cell_setting 'monoclinic'
loop_
_space_group_symop_operation_xyz
x,y,z
-x,y,1/2-z
-x,-y,-z
x,-y,1/2+z
1/2+x,1/2+y,z
1/2-x,1/2+y,1/2-z
1/2-x,1/2-y,-z
1/2+x,1/2-y,1/2+z
loop_
_atom_site_type_symbol
_atom_site_label
_atom_site_fract_x
_atom_site_fract_y
_atom_site_fract_z
Si Si1 0.073754 0.801383 0.008947
Si Si2 0.488617 0.800055 0.825831
Si Si3 0.998637 0.480534 0.664251
Si Si4 0.383976 0.114102 0.477009
Si Si5 0.908818 0.133107 0.825886
Si Si6 0.558568 0.544377 0.144382
O O1 0.790471 0.794476 0.832658
O O2 0.173586 0.712012 0.052075
O O3 0.107521 0.879105 0.980291
O O4 0.153875 0.833449 0.136546
O O5 0.500000 0.806101 0.750000
O O6 0.566508 0.888182 0.904563
O O7 0.561978 0.708354 0.895326
O O8 0.884889 0.553972 0.545140
O O9 0.271621 0.477596 0.812585
O O10 0.000000 0.489115 0.750000
O O11 0.657448 0.116127 0.628607
O O12 0.217188 0.074678 0.311337
O O13 0.043104 0.046361 0.907139
#
# Coordination Sequence:
#
# PCOD9262025 Si02
#       6
#     8   8   8   8   8   8
#     4  10  19  33  55  81 106 138 180 227 268 309
#     4   9  19  33  50  80 115 142 170 213 273 332
#     4   9  17  31  52  78 103 134 178 220 262 313
#     4  10  19  34  57  78 102 141 187 225 260 318
#     4  10  19  32  52  78 108 141 179 220 265 317
#     4  10  20  35  55  79 106 140 181 225 269 318
#
# _framework density 27.33053
#
# number of rings (size 3 to 8) (size 9 to 14) (size 15 to 20)
#    0.000    2.333    0.000    5.500    0.000    2.000 
#    0.000    8.333    0.000   10.000    0.000    0.000 
#    0.000    0.000    0.000    0.000    0.000    0.000 
#
# Total GULP energy -134313.291140 kJ/mol
# GULP energy per Si atom -5596.387131 kJ/mol
# Density = 2.726832 g / cm^3
# Si number density = 27.330530 Si / 1000 Ang^3
#
#
#
# Elastic Constant Matrix: (Units=GPa)
#
#
# Indices 1 2 3 4 5 6 
#
# 1 93.5486 78.0338 30.5599 0.0030 -26.3410 0.0056
# 2 78.0338 334.7023 86.6457 -0.0366 -33.0328 -0.0137
# 3 30.5599 86.6457 122.3477 -0.0267 -36.2188 -0.0090
# 4 0.0030 -0.0366 -0.0267 45.8492 -0.0080 4.2601
# 5 -26.3410 -33.0328 -36.2188 -0.0080 41.5140 -0.0002
# 6 0.0056 -0.0137 -0.0090 4.2601 -0.0002 54.7186
#
#
#
# Elastic Compliance Matrix: (Units=1/GPa)
#
#
# Indices 1 2 3 4 5 6 
#
# 1 0.015117 -0.002908 0.000591 -0.000001 0.007793 -0.000002
# 2 -0.002908 0.004242 -0.002460 0.000002 -0.000616 0.000001
# 3 0.000591 -0.002460 0.012538 0.000007 0.009356 0.000001
# 4 -0.000001 0.000002 0.000007 0.021970 0.000011 -0.001710
# 5 0.007793 -0.000616 0.009356 0.000011 0.036705 0.000000
# 6 -0.000002 0.000001 0.000001 -0.001710 0.000000 0.018408
#
#
# Mechanical properties :
#
#
# Convention : Reuss Voigt Hill
#
# Bulk Modulus (GPa) = 44.76028 104.56416 74.66222
# Shear Modulus (GPa) = 39.68831 52.10698 45.89765
#
# Velocity S-wave (km/s) = 3.81486 4.37114 4.10244
# Velocity P-wave (km/s) = 5.98474 7.98862 7.05816
#
# Compressibility (1/GPa) = 0.02234124
#
# Stress axis : x y z
#
# Youngs Moduli (GPa) = 66.15116 235.75073 79.75953
#
# Poissons Ratio (x) = 0.68561 -0.04711
# Poissons Ratio (y) = 0.19238 0.19621
# Poissons Ratio (z) = -0.03907 0.57996
#
# Static dielectric constant tensor:
#      x y z
#    x 2.195630 -0.000010 0.136020 
#    y -0.000010 2.239820 -0.000020 
#    z 0.136020 -0.000020 2.220790 
# 
# From -- ./inp_files/249015.got.cif
#   From: 2010.05.17/outbox.cif.g08.bks.cpg/sg15_125_cif.got.tgz:249015.got - 2010.06.03 18:47:42.
