data_PCOD9262546
_publ_section_title
;
Structure prediction by ZEFSAII (Michael W. Deem and Ramdas Pophale) SiO2 
 PCOD9262546
Probable space group: C 2/C
;
_chemical_formula_sum "Si O2"
_cell_formula_units_Z 52
_cell_length_a 25.566067
_cell_length_b 13.606898
_cell_length_c 11.517243
_cell_angle_alpha 90.000000
_cell_angle_beta 45.919446
_cell_angle_gamma 90.000000
_cell_volume 2878.161789
_symmetry_space_group_name_H-M "C 2/C"
_symmetry_group_IT_number 15
_symmetry_cell_setting 'monoclinic'
loop_
_space_group_symop_operation_xyz
x,y,z
-x,y,1/2-z
-x,-y,-z
x,-y,1/2+z
1/2+x,1/2+y,z
1/2-x,1/2+y,1/2-z
1/2-x,1/2-y,-z
1/2+x,1/2-y,1/2+z
loop_
_atom_site_type_symbol
_atom_site_label
_atom_site_fract_x
_atom_site_fract_y
_atom_site_fract_z
Si Si1 0.076868 0.580546 0.403440
Si Si2 0.762389 0.616685 0.398657
Si Si3 0.197710 0.689816 0.911776
Si Si4 0.564100 0.861930 0.485017
Si Si5 0.256405 0.386433 0.075593
Si Si6 0.000000 0.654786 0.750000
Si Si7 0.129785 0.257817 0.181612
O O1 0.155483 0.630072 0.278251
O O2 0.089628 0.463282 0.381604
O O3 0.022601 0.622592 0.388241
O O4 0.031713 0.594815 0.592413
O O5 0.768857 0.639356 0.525827
O O6 0.709301 0.694514 0.418858
O O7 0.742379 0.503065 0.416098
O O8 0.114644 0.653097 0.018882
O O9 0.239032 0.659123 0.729569
O O10 0.588131 0.770259 0.368015
O O11 0.193149 0.341092 0.090129
O O12 0.330171 0.342441 0.909221
O O13 0.931609 0.717864 0.815714
#
# Coordination Sequence:
#
# PCOD9262546 Si02
#       7
#     8   8   8   8   8   4   8
#     4  10  19  33  53  82 114 147 184 224 297 342
#     4  11  22  36  54  83 113 150 191 232 291 345
#     4  10  22  35  51  80 116 144 192 234 285 347
#     4   9  19  34  50  82 110 144 184 226 291 340
#     4  10  20  36  56  78 108 155 189 233 284 331
#     4  10  20  30  56  84 114 144 178 236 282 336
#     4   9  18  33  52  81 107 139 194 227 274 336
#
# _framework density 18.067087000000001
#
# number of rings (size 3 to 8) (size 9 to 14) (size 15 to 20)
#    0.000    2.154    3.077    0.923    2.154    4.308 
#    0.000    0.000    0.000    3.692    0.000   16.154 
#    0.000    0.000    0.000    0.000    0.000    0.000 
#
# Total GULP energy -144751.332306 kJ/mol
# GULP energy per Si atom -5567.358935 kJ/mol
# Density = 1.802597 g / cm^3
# Si number density = 18.067087 Si / 1000 Ang^3
#
#
#
# Elastic Constant Matrix: (Units=GPa)
#
#
# Indices 1 2 3 4 5 6 
#
# 1 110.9187 50.9869 24.6513 0.0000 -5.1685 0.0000
# 2 50.9869 115.7809 30.8237 0.0000 -4.9852 0.0000
# 3 24.6513 30.8237 61.9575 0.0000 -12.2701 0.0000
# 4 0.0000 0.0000 0.0000 23.3933 0.0000 -7.1131
# 5 -5.1685 -4.9852 -12.2701 0.0000 17.5362 0.0000
# 6 0.0000 0.0000 0.0000 -7.1131 0.0000 26.5198
#
#
#
# Elastic Compliance Matrix: (Units=1/GPa)
#
#
# Indices 1 2 3 4 5 6 
#
# 1 0.011608 -0.004481 -0.002280 0.000000 0.000552 0.000000
# 2 -0.004481 0.011694 -0.004223 0.000000 -0.000951 0.000000
# 3 -0.002280 -0.004223 0.021798 0.000000 0.013379 0.000000
# 4 0.000000 0.000000 0.000000 0.046543 0.000000 0.012484
# 5 0.000552 -0.000951 0.013379 0.000000 0.066279 0.000000
# 6 0.000000 0.000000 0.000000 0.012484 0.000000 0.041056
#
#
# Mechanical properties :
#
#
# Convention : Reuss Voigt Hill
#
# Bulk Modulus (GPa) = 43.23114 55.73122 49.48118
# Shear Modulus (GPa) = 21.86694 25.63622 23.75158
#
# Velocity S-wave (km/s) = 3.48274 3.77098 3.62972
# Velocity P-wave (km/s) = 6.33661 7.06216 6.70920
#
# Compressibility (1/GPa) = 0.02313147
#
# Stress axis : x y z
#
# Youngs Moduli (GPa) = 86.14840 85.51623 45.87614
#
# Poissons Ratio (x) = 0.38321 0.10459
# Poissons Ratio (y) = 0.38604 0.19374
# Poissons Ratio (z) = 0.19640 0.36114
#
# Static dielectric constant tensor:
#      x y z
#    x 1.682000 0.000000 0.008500 
#    y 0.000000 1.608050 0.000000 
#    z 0.008500 0.000000 1.667070 
# 
# From -- ./inp_files/117939.got.cif
#   From: 2010.05.17/outbox.cif.g08.bks.cpg/sg15_59_cif.got.tgz:117939.got - 2010.06.03 18:47:42.
