data_PCOD9262681
_publ_section_title
;
Structure prediction by ZEFSAII (Michael W. Deem and Ramdas Pophale) SiO2 
 PCOD9262681
Probable space group: C 2/C
;
_chemical_formula_sum "Si O2"
_cell_formula_units_Z 60
_cell_length_a 20.258812
_cell_length_b 20.249393
_cell_length_c 8.283830
_cell_angle_alpha 90.000000
_cell_angle_beta 67.613324
_cell_angle_gamma 90.000000
_cell_volume 3142.152898
_symmetry_space_group_name_H-M "C 2/C"
_symmetry_group_IT_number 15
_symmetry_cell_setting 'monoclinic'
loop_
_space_group_symop_operation_xyz
x,y,z
-x,y,1/2-z
-x,-y,-z
x,-y,1/2+z
1/2+x,1/2+y,z
1/2-x,1/2+y,1/2-z
1/2-x,1/2-y,-z
1/2+x,1/2-y,1/2+z
loop_
_atom_site_type_symbol
_atom_site_label
_atom_site_fract_x
_atom_site_fract_y
_atom_site_fract_z
Si Si1 0.666489 0.467073 0.636699
Si Si2 0.253060 0.417235 0.245415
Si Si3 0.568200 0.231818 0.068442
Si Si4 0.509773 0.658155 0.052172
Si Si5 0.000000 0.510362 0.750000
Si Si6 0.356023 0.680271 0.779484
Si Si7 0.586241 0.082247 0.946039
Si Si8 0.412417 0.570469 0.976188
O O1 0.713147 0.427984 0.463128
O O2 0.713082 0.526246 0.670859
O O3 0.601664 0.500716 0.596363
O O4 0.636124 0.428009 0.817390
O O5 0.280719 0.346875 0.287728
O O6 0.168827 0.426236 0.325540
O O7 0.500000 0.233573 0.250000
O O8 0.634227 0.254666 0.120509
O O9 0.546689 0.285679 0.953195
O O10 0.575746 0.159151 0.992658
O O11 0.500000 0.647349 0.250000
O O12 0.489371 0.592755 0.968034
O O13 0.588203 0.680719 0.921971
O O14 0.035377 0.556323 0.851523
O O15 0.060977 0.462629 0.620052
O O16 0.386200 0.624587 0.873349
#
# Coordination Sequence:
#
# PCOD9262681 Si02
#       8
#     8   8   8   8   4   8   8   8
#     4   9  18  32  51  76 111 151 185 222 274 324
#     4  10  19  33  55  79 112 148 183 226 280 330
#     4   9  19  36  57  80 109 145 182 227 277 321
#     4  10  19  33  55  77 107 145 187 231 266 311
#     4  10  24  38  60  88 112 136 184 230 280 332
#     4   9  19  35  53  80 110 145 187 224 272 329
#     4  11  21  39  60  84 112 139 178 230 281 339
#     4   9  17  32  50  73 106 148 192 226 261 313
#
# _framework density 19.095188
#
# number of rings (size 3 to 8) (size 9 to 14) (size 15 to 20)
#    0.000    2.400    0.667    2.800    0.933    0.533 
#    0.000   16.667    0.000    7.200    0.000    0.000 
#    0.000    0.000    0.000    0.000    0.000    0.000 
#
# Total GULP energy -167296.652203 kJ/mol
# GULP energy per Si atom -5576.555073 kJ/mol
# Density = 1.905173 g / cm^3
# Si number density = 19.095188 Si / 1000 Ang^3
#
#
#
# Elastic Constant Matrix: (Units=GPa)
#
#
# Indices 1 2 3 4 5 6 
#
# 1 46.3075 21.9101 22.6890 0.0000 0.7536 0.0000
# 2 21.9101 68.1807 35.4403 0.0000 -2.1103 0.0000
# 3 22.6890 35.4403 92.4903 0.0000 17.6791 0.0000
# 4 0.0000 0.0000 0.0000 22.6474 0.0000 -1.8588
# 5 0.7536 -2.1103 17.6791 0.0000 24.0505 0.0000
# 6 0.0000 0.0000 0.0000 -1.8588 0.0000 13.3800
#
#
#
# Elastic Compliance Matrix: (Units=1/GPa)
#
#
# Indices 1 2 3 4 5 6 
#
# 1 0.026712 -0.006142 -0.004580 0.000000 0.001991 0.000000
# 2 -0.006142 0.021104 -0.008110 0.000000 0.008006 0.000000
# 3 -0.004580 -0.008110 0.017629 0.000000 -0.013527 0.000000
# 4 0.000000 0.000000 0.000000 0.044664 0.000000 0.006205
# 5 0.001991 0.008006 -0.013527 0.000000 0.052162 0.000000
# 6 0.000000 0.000000 0.000000 0.006205 0.000000 0.075600
#
#
# Mechanical properties :
#
#
# Convention : Reuss Voigt Hill
#
# Bulk Modulus (GPa) = 35.99576 40.78414 38.38995
# Shear Modulus (GPa) = 17.55637 20.47820 19.01728
#
# Velocity S-wave (km/s) = 3.03547 3.27835 3.15924
# Velocity P-wave (km/s) = 5.58364 5.97786 5.78411
#
# Compressibility (1/GPa) = 0.02778105
#
# Stress axis : x y z
#
# Youngs Moduli (GPa) = 37.43587 47.38409 56.72562
#
# Poissons Ratio (x) = 0.29103 0.25980
# Poissons Ratio (y) = 0.22992 0.46006
# Poissons Ratio (z) = 0.17145 0.38430
#
# Static dielectric constant tensor:
#      x y z
#    x 1.669620 0.000000 0.008650 
#    y 0.000000 1.679620 0.000000 
#    z 0.008650 0.000000 1.651660 
# 
# From -- ./inp_files/58086.got.cif
#   From: 2010.05.17/outbox.cif.g08.bks.cpg/sg15_30_cif.got.tgz:58086.got - 2010.06.03 18:47:42.
