data_PCOD9262414
_publ_section_title
;
Structure prediction by ZEFSAII (Michael W. Deem and Ramdas Pophale) SiO2 
 PCOD9262414
Probable space group: C 2/C
;
_chemical_formula_sum "Si O2"
_cell_formula_units_Z 48
_cell_length_a 29.765507
_cell_length_b 13.425755
_cell_length_c 19.430010
_cell_angle_alpha 90.000000
_cell_angle_beta 16.892144
_cell_angle_gamma 90.000000
_cell_volume 2256.198432
_symmetry_space_group_name_H-M "C 2/C"
_symmetry_group_IT_number 15
_symmetry_cell_setting 'monoclinic'
loop_
_space_group_symop_operation_xyz
x,y,z
-x,y,1/2-z
-x,-y,-z
x,-y,1/2+z
1/2+x,1/2+y,z
1/2-x,1/2+y,1/2-z
1/2-x,1/2-y,-z
1/2+x,1/2-y,1/2+z
loop_
_atom_site_type_symbol
_atom_site_label
_atom_site_fract_x
_atom_site_fract_y
_atom_site_fract_z
Si Si1 0.424054 0.756989 0.426138
Si Si2 0.138423 0.932080 0.645661
Si Si3 0.172603 0.598350 0.762313
Si Si4 0.113711 0.302404 0.863994
Si Si5 0.423374 0.392240 0.614975
Si Si6 0.353436 0.425233 0.565779
O O1 0.500000 0.812550 0.250000
O O2 0.533165 0.659879 0.275492
O O3 0.260886 0.703275 0.647335
O O4 0.432024 0.808986 0.488199
O O5 0.273305 0.937306 0.392587
O O6 0.175624 0.900825 0.669597
O O7 0.025495 0.028638 0.805514
O O8 0.238138 0.517805 0.719537
O O9 0.992384 0.623021 0.024407
O O10 0.056446 0.192094 0.927290
O O11 0.291369 0.338194 0.606189
O O12 0.500000 0.500000 0.500000
O O13 0.341390 0.387973 0.661705
#
# Coordination Sequence:
#
# PCOD9262414 Si02
#       6
#     8   8   8   8   8   8
#     4   8  16  29  46  72 104 133 160 197 252 309
#     4   8  17  34  53  70 100 139 168 200 254 311
#     4  10  19  33  52  75 106 139 171 210 257 307
#     4  11  20  29  50  82 105 132 176 216 250 300
#     4   9  19  34  52  76 107 140 171 206 257 311
#     4  10  19  33  51  74 106 139 170 211 258 307
#
# _framework density 21.274723999999999
#
# number of rings (size 3 to 8) (size 9 to 14) (size 15 to 20)
#    0.000    2.667    0.000    4.000    0.000    7.333 
#    0.000    0.000    0.000    9.000    0.000    0.000 
#    0.000    0.000    0.000    0.000    0.000    0.000 
#
# Total GULP energy -133665.347635 kJ/mol
# GULP energy per Si atom -5569.389485 kJ/mol
# Density = 2.122630 g / cm^3
# Si number density = 21.274724 Si / 1000 Ang^3
#
#
#
# Elastic Constant Matrix: (Units=GPa)
#
#
# Indices 1 2 3 4 5 6 
#
# 1 89.9646 31.7794 24.5992 -0.0002 -14.2992 0.0001
# 2 31.7794 101.4325 28.3720 -0.0005 -8.9643 0.0002
# 3 24.5992 28.3720 39.4120 -0.0006 -19.3499 0.0002
# 4 -0.0002 -0.0005 -0.0006 25.0068 0.0003 -5.0823
# 5 -14.2992 -8.9643 -19.3499 0.0003 30.5332 -0.0001
# 6 0.0001 0.0002 0.0002 -5.0823 -0.0001 31.7798
#
#
#
# Elastic Compliance Matrix: (Units=1/GPa)
#
#
# Indices 1 2 3 4 5 6 
#
# 1 0.013945 -0.002549 -0.005850 0.000000 0.002075 0.000000
# 2 -0.002549 0.012992 -0.009399 0.000000 -0.003336 0.000000
# 3 -0.005850 -0.009399 0.048037 0.000001 0.024944 0.000000
# 4 0.000000 0.000000 0.000001 0.041333 0.000000 0.006610
# 5 0.002075 -0.003336 0.024944 0.000000 0.048551 0.000000
# 6 0.000000 0.000000 0.000000 0.006610 0.000000 0.032524
#
#
# Mechanical properties :
#
#
# Convention : Reuss Voigt Hill
#
# Bulk Modulus (GPa) = 25.39574 44.47893 34.93733
# Shear Modulus (GPa) = 20.31655 27.20119 23.75887
#
# Velocity S-wave (km/s) = 3.09360 3.57959 3.34543
# Velocity P-wave (km/s) = 4.97227 6.16741 5.60180
#
# Compressibility (1/GPa) = 0.03937669
#
# Stress axis : x y z
#
# Youngs Moduli (GPa) = 71.70790 76.97166 20.81726
#
# Poissons Ratio (x) = 0.19624 0.12178
# Poissons Ratio (y) = 0.18282 0.19567
# Poissons Ratio (z) = 0.41949 0.72348
#
# Static dielectric constant tensor:
#      x y z
#    x 1.839010 0.000000 -0.013010 
#    y 0.000000 1.826170 0.000000 
#    z -0.013010 0.000000 1.868940 
# 
# From -- ./inp_files/259204.got.cif
#   From: 2010.05.17/outbox.cif.g08.bks.cpg/sg15_130_cif.got.tgz:259204.got - 2010.06.03 18:47:42.
