data_PCOD9262121
_publ_section_title
;
Structure prediction by ZEFSAII (Michael W. Deem and Ramdas Pophale) SiO2 
 PCOD9262121
Probable space group: C 2/C
;
_chemical_formula_sum "Si O2"
_cell_formula_units_Z 48
_cell_length_a 13.584478
_cell_length_b 22.963849
_cell_length_c 15.662254
_cell_angle_alpha 90.000000
_cell_angle_beta 38.107151
_cell_angle_gamma 90.000000
_cell_volume 3015.236868
_symmetry_space_group_name_H-M "C 2/C"
_symmetry_group_IT_number 15
_symmetry_cell_setting 'monoclinic'
loop_
_space_group_symop_operation_xyz
x,y,z
-x,y,1/2-z
-x,-y,-z
x,-y,1/2+z
1/2+x,1/2+y,z
1/2-x,1/2+y,1/2-z
1/2-x,1/2-y,-z
1/2+x,1/2-y,1/2+z
loop_
_atom_site_type_symbol
_atom_site_label
_atom_site_fract_x
_atom_site_fract_y
_atom_site_fract_z
Si Si1 0.406939 0.585052 0.554346
Si Si2 0.084721 0.411582 0.380214
Si Si3 0.578100 0.325348 0.611001
Si Si4 0.777061 0.039285 0.088734
Si Si5 0.051443 0.305893 0.119358
Si Si6 0.045172 0.468966 0.590252
O O1 0.261482 0.591547 0.719813
O O2 0.421217 0.633993 0.472045
O O3 0.574868 0.580251 0.488988
O O4 0.357197 0.524589 0.542050
O O5 0.082931 0.434953 0.477732
O O6 0.014993 0.348469 0.407216
O O7 0.976421 0.461180 0.407375
O O8 0.500000 0.351356 0.750000
O O9 0.759513 0.311782 0.511513
O O10 0.501717 0.261667 0.644907
O O11 0.631662 0.047568 0.255099
O O12 0.684321 0.043800 0.062783
O O13 0.000000 0.325744 0.250000
#
# Coordination Sequence:
#
# PCOD9262121 Si02
#       6
#     8   8   8   8   8   8
#     4  10  19  34  50  74 103 134 164 208 252 293
#     4  10  19  32  54  73 100 135 169 201 250 302
#     4  10  21  32  50  78 103 132 168 207 252 300
#     4   9  19  34  50  72 105 131 166 205 248 296
#     4  10  19  34  52  74 103 133 167 207 253 301
#     4   9  19  33  51  75  98 136 168 201 248 300
#
# _framework density 15.919147000000001
#
# number of rings (size 3 to 8) (size 9 to 14) (size 15 to 20)
#    0.000    2.333    1.667    1.000    4.667    0.667 
#    6.000    0.000    0.000    1.000    0.000    0.000 
#    0.000    0.000    0.000    0.000    0.000    0.000 
#
# Total GULP energy -133608.077113 kJ/mol
# GULP energy per Si atom -5567.003213 kJ/mol
# Density = 1.588291 g / cm^3
# Si number density = 15.919147 Si / 1000 Ang^3
#
#
#
# Elastic Constant Matrix: (Units=GPa)
#
#
# Indices 1 2 3 4 5 6 
#
# 1 93.2778 46.0283 52.1360 -0.0011 -5.5088 0.0016
# 2 46.0283 71.7749 36.2942 -0.0022 6.7226 0.0017
# 3 52.1360 36.2942 84.6299 -0.0026 11.0211 0.0058
# 4 -0.0011 -0.0022 -0.0026 20.8264 0.0016 12.2447
# 5 -5.5088 6.7226 11.0211 0.0016 27.6111 -0.0028
# 6 0.0016 0.0017 0.0058 12.2447 -0.0028 -18.7664
#
#
#
# Elastic Compliance Matrix: (Units=1/GPa)
#
#
# Indices 1 2 3 4 5 6 
#
# 1 0.022432 -0.009847 -0.011066 0.000000 0.011290 -0.000004
# 2 -0.009847 0.022161 -0.002615 0.000001 -0.006316 0.000002
# 3 -0.011066 -0.002615 0.021054 -0.000001 -0.009975 0.000006
# 4 0.000000 0.000001 -0.000001 0.034703 0.000001 0.022643
# 5 0.011290 -0.006316 -0.009975 0.000001 0.043989 -0.000009
# 6 -0.000004 0.000002 0.000006 0.022643 -0.000009 -0.038513
#
#
# Mechanical properties :
#
#
# Convention : Reuss Voigt Hill
#
# Bulk Modulus (GPa) = 53.79224 57.62218 55.70721
# Shear Modulus (GPa) = 31.43056 13.61582 22.52319
#
# Velocity S-wave (km/s) = 4.44823 2.92774 3.76553
# Velocity P-wave (km/s) = 7.76187 6.90683 7.34680
#
# Compressibility (1/GPa) = 0.01859004
#
# Stress axis : x y z
#
# Youngs Moduli (GPa) = 44.57966 45.12404 47.49634
#
# Poissons Ratio (x) = 0.44432 0.52562
# Poissons Ratio (y) = 0.43896 0.12422
# Poissons Ratio (z) = 0.49334 0.11802
#
# Static dielectric constant tensor:
#      x y z
#    x 1.510460 0.000000 0.002960 
#    y 0.000000 1.546970 0.000000 
#    z 0.002960 0.000000 1.558430 
# 
# From -- ./inp_files/57703.got.cif
#   From: 2010.05.17/outbox.cif.g08.bks.cpg/sg15_29_cif.got.tgz:57703.got - 2010.06.03 18:47:42.
