data_PCOD9262172
_publ_section_title
;
Structure prediction by ZEFSAII (Michael W. Deem and Ramdas Pophale) SiO2 
 PCOD9262172
Probable space group: C 2/C
;
_chemical_formula_sum "Si O2"
_cell_formula_units_Z 60
_cell_length_a 10.510630
_cell_length_b 14.498340
_cell_length_c 24.356358
_cell_angle_alpha 90.000000
_cell_angle_beta 47.393494
_cell_angle_gamma 90.000000
_cell_volume 2731.801405
_symmetry_space_group_name_H-M "C 2/C"
_symmetry_group_IT_number 15
_symmetry_cell_setting 'monoclinic'
loop_
_space_group_symop_operation_xyz
x,y,z
-x,y,1/2-z
-x,-y,-z
x,-y,1/2+z
1/2+x,1/2+y,z
1/2-x,1/2+y,1/2-z
1/2-x,1/2-y,-z
1/2+x,1/2-y,1/2+z
loop_
_atom_site_type_symbol
_atom_site_label
_atom_site_fract_x
_atom_site_fract_y
_atom_site_fract_z
Si Si1 0.775119 0.153422 0.040642
Si Si2 0.500000 0.630337 0.750000
Si Si3 0.295856 0.016572 0.721105
Si Si4 0.299946 0.952809 0.427502
Si Si5 0.642050 0.841539 0.855229
Si Si6 0.703912 0.855621 0.179501
Si Si7 0.194259 0.538210 0.445980
Si Si8 0.669361 0.664440 0.597953
O O1 0.567256 0.153816 0.087278
O O2 0.807912 0.250945 0.060958
O O3 0.792452 0.051093 0.059379
O O4 0.871464 0.160087 0.954598
O O5 0.661203 0.569491 0.722276
O O6 0.545166 0.690084 0.683796
O O7 0.492553 0.038307 0.644202
O O8 0.259299 0.056081 0.792272
O O9 0.282116 0.908020 0.714297
O O10 0.247917 0.878690 0.397297
O O11 0.270857 0.933421 0.500756
O O12 0.707626 0.738867 0.829615
O O13 0.704469 0.885387 0.895342
O O14 0.500000 0.841278 0.250000
O O15 0.296228 0.444140 0.402867
O O16 0.000000 0.500000 0.500000
#
# Coordination Sequence:
#
# PCOD9262172 Si02
#       8
#     8   4   8   8   8   8   8   8
#     4   9  19  36  58  82 113 158 198 246 295 344
#     4  12  20  32  58  90 116 144 196 264 292 336
#     4  10  21  37  57  85 119 156 193 243 295 358
#     4   9  19  39  61  82 116 161 195 239 298 357
#     4  11  20  36  63  85 112 161 200 243 295 357
#     4  10  23  40  56  85 128 156 192 245 304 364
#     4  11  17  35  63  86 112 152 205 245 286 350
#     4  10  19  32  54  88 114 145 196 253 289 342
#
# _framework density 21.963529000000001
#
# number of rings (size 3 to 8) (size 9 to 14) (size 15 to 20)
#    0.000    1.867    5.333    0.800    0.933    0.533 
#    8.400    0.000    0.000   20.000    0.000    0.000 
#    0.000    0.000    0.000    0.000    0.000    0.000 
#
# Total GULP energy -167118.606544 kJ/mol
# GULP energy per Si atom -5570.620218 kJ/mol
# Density = 2.191354 g / cm^3
# Si number density = 21.963529 Si / 1000 Ang^3
#
#
#
# Elastic Constant Matrix: (Units=GPa)
#
#
# Indices 1 2 3 4 5 6 
#
# 1 51.2542 21.3070 18.2549 0.0000 14.7256 0.0000
# 2 21.3070 98.8898 41.1193 0.0000 11.6602 0.0000
# 3 18.2549 41.1193 105.6448 0.0001 28.5153 0.0000
# 4 0.0000 0.0000 0.0001 42.0744 0.0000 5.1768
# 5 14.7256 11.6602 28.5153 0.0000 19.2522 0.0000
# 6 0.0000 0.0000 0.0000 5.1768 0.0000 27.3039
#
#
#
# Elastic Compliance Matrix: (Units=1/GPa)
#
#
# Indices 1 2 3 4 5 6 
#
# 1 0.026654 -0.004415 0.003155 0.000000 -0.022386 0.000000
# 2 -0.004415 0.012800 -0.005062 0.000000 0.003122 0.000000
# 3 0.003155 -0.005062 0.017851 0.000000 -0.025788 0.000000
# 4 0.000000 0.000000 0.000000 0.024335 0.000000 -0.004614
# 5 -0.022386 0.003122 -0.025788 0.000000 0.105369 0.000000
# 6 0.000000 0.000000 0.000000 -0.004614 0.000000 0.037500
#
#
# Mechanical properties :
#
#
# Convention : Reuss Voigt Hill
#
# Bulk Modulus (GPa) = 22.39057 46.35013 34.37035
# Shear Modulus (GPa) = 19.83806 29.39994 24.61900
#
# Velocity S-wave (km/s) = 3.00863 3.66263 3.35162
# Velocity P-wave (km/s) = 4.72078 6.24784 5.53720
#
# Compressibility (1/GPa) = 0.04466165
#
# Stress axis : x y z
#
# Youngs Moduli (GPa) = 37.51778 78.12333 56.01854
#
# Poissons Ratio (x) = 0.34494 -0.17676
# Poissons Ratio (y) = 0.16566 0.28356
# Poissons Ratio (z) = -0.11838 0.39545
#
# Static dielectric constant tensor:
#      x y z
#    x 1.913480 0.000000 -0.011350 
#    y 0.000000 1.822810 0.000000 
#    z -0.011350 0.000000 1.788780 
# 
# From -- ./inp_files/269941.got.cif
#   From: 2010.05.17/outbox.cif.g08.bks.cpg/sg15_135_cif.got.tgz:269941.got - 2010.06.03 18:47:42.
