data_PCOD9262823
_publ_section_title
;
Structure prediction by ZEFSAII (Michael W. Deem and Ramdas Pophale) SiO2 
 PCOD9262823
Probable space group: C 2/C
;
_chemical_formula_sum "Si O2"
_cell_formula_units_Z 52
_cell_length_a 26.821365
_cell_length_b 9.275325
_cell_length_c 15.559805
_cell_angle_alpha 90.000000
_cell_angle_beta 125.781674
_cell_angle_gamma 90.000000
_cell_volume 3140.286996
_symmetry_space_group_name_H-M "C 2/C"
_symmetry_group_IT_number 15
_symmetry_cell_setting 'monoclinic'
loop_
_space_group_symop_operation_xyz
x,y,z
-x,y,1/2-z
-x,-y,-z
x,-y,1/2+z
1/2+x,1/2+y,z
1/2-x,1/2+y,1/2-z
1/2-x,1/2-y,-z
1/2+x,1/2-y,1/2+z
loop_
_atom_site_type_symbol
_atom_site_label
_atom_site_fract_x
_atom_site_fract_y
_atom_site_fract_z
Si Si1 0.818526 0.681489 0.300414
Si Si2 0.879123 0.161396 0.708415
Si Si3 0.681821 0.354269 0.847377
Si Si4 0.500000 0.263786 0.250000
Si Si5 0.618243 0.149481 0.444442
Si Si6 0.670937 0.161056 0.996033
Si Si7 0.689908 0.160246 0.691294
O O1 0.864098 0.733832 0.272369
O O2 0.844599 0.707897 0.422598
O O3 0.755620 0.773059 0.230009
O O4 0.804836 0.510085 0.282499
O O5 0.951592 0.149556 0.759708
O O6 0.853188 0.238543 0.595812
O O7 0.848770 0.008518 0.694706
O O8 0.659738 0.280334 0.913032
O O9 0.669991 0.248851 0.755218
O O10 0.755721 0.369934 0.928171
O O11 0.545573 0.171707 0.356329
O O12 0.643237 0.177130 0.564865
O O13 0.637364 0.987510 0.440911
#
# Coordination Sequence:
#
# PCOD9262823 Si02
#       7
#     8   8   8   4   8   8   8
#     4  10  19  33  56  85 115 140 174 222 284 335
#     4  10  20  36  57  72 112 149 181 230 269 309
#     4  10  20  33  55  85 120 134 175 222 283 341
#     4   8  22  40  54  74 104 148 208 226 248 314
#     4   9  19  37  57  71 110 144 190 223 266 311
#     4   9  19  34  54  87 110 140 174 224 279 339
#     4  10  20  33  55  90 113 137 177 219 283 347
#
# _framework density 16.558996
#
# number of rings (size 3 to 8) (size 9 to 14) (size 15 to 20)
#    0.923    1.538    0.000    3.692    0.000    7.385 
#    0.000    4.615    0.000    0.000    0.000    0.000 
#    0.000    0.000    0.000    0.000    0.000    0.000 
#
# Total GULP energy -144744.792420 kJ/mol
# GULP energy per Si atom -5567.107401 kJ/mol
# Density = 1.652131 g / cm^3
# Si number density = 16.558996 Si / 1000 Ang^3
#
#
#
# Elastic Constant Matrix: (Units=GPa)
#
#
# Indices 1 2 3 4 5 6 
#
# 1 75.3760 46.3054 41.0171 0.0000 -14.4922 0.0000
# 2 46.3054 87.2475 36.8453 0.0000 -15.3313 0.0000
# 3 41.0171 36.8453 51.5279 0.0000 -14.8803 0.0000
# 4 0.0000 0.0000 0.0000 20.0281 0.0000 -4.1815
# 5 -14.4922 -15.3313 -14.8803 0.0000 12.9040 0.0000
# 6 0.0000 0.0000 0.0000 -4.1815 0.0000 10.8330
#
#
#
# Elastic Compliance Matrix: (Units=1/GPa)
#
#
# Indices 1 2 3 4 5 6 
#
# 1 0.026472 -0.007048 -0.014791 0.000000 0.004301 0.000000
# 2 -0.007048 0.019016 -0.005620 0.000000 0.008197 0.000000
# 3 -0.014791 -0.005620 0.042690 0.000000 0.025940 0.000000
# 4 0.000000 0.000000 0.000000 0.054306 0.000000 0.020962
# 5 0.004301 0.008197 0.025940 0.000000 0.121976 0.000000
# 6 0.000000 0.000000 0.000000 0.020962 0.000000 0.100402
#
#
# Mechanical properties :
#
#
# Convention : Reuss Voigt Hill
#
# Bulk Modulus (GPa) = 30.06527 51.38746 40.72636
# Shear Modulus (GPa) = 11.60450 14.75192 13.17821
#
# Velocity S-wave (km/s) = 2.65013 2.98798 2.82411
# Velocity P-wave (km/s) = 5.24977 6.55777 5.93989
#
# Compressibility (1/GPa) = 0.03326097
#
# Stress axis : x y z
#
# Youngs Moduli (GPa) = 37.77609 52.58743 23.42443
#
# Poissons Ratio (x) = 0.37062 0.34646
# Poissons Ratio (y) = 0.26623 0.13165
# Poissons Ratio (z) = 0.55873 0.29556
#
# Static dielectric constant tensor:
#      x y z
#    x 1.566720 0.000000 -0.017430 
#    y 0.000000 1.542590 0.000000 
#    z -0.017430 0.000000 1.551020 
# 
# From -- ./inp_files/176719.got.cif
#   From: 2010.05.17/outbox.cif.g08.bks.cpg/sg15_89_cif.got.tgz:176719.got - 2010.06.03 18:47:42.
