data_PCOD9262276
_publ_section_title
;
Structure prediction by ZEFSAII (Michael W. Deem and Ramdas Pophale) SiO2 
 PCOD9262276
Probable space group: C 2/C
;
_chemical_formula_sum "Si O2"
_cell_formula_units_Z 48
_cell_length_a 14.923021
_cell_length_b 14.122347
_cell_length_c 12.065116
_cell_angle_alpha 90.000000
_cell_angle_beta 75.329028
_cell_angle_gamma 90.000000
_cell_volume 2459.798336
_symmetry_space_group_name_H-M "C 2/C"
_symmetry_group_IT_number 15
_symmetry_cell_setting 'monoclinic'
loop_
_space_group_symop_operation_xyz
x,y,z
-x,y,1/2-z
-x,-y,-z
x,-y,1/2+z
1/2+x,1/2+y,z
1/2-x,1/2+y,1/2-z
1/2-x,1/2-y,-z
1/2+x,1/2-y,1/2+z
loop_
_atom_site_type_symbol
_atom_site_label
_atom_site_fract_x
_atom_site_fract_y
_atom_site_fract_z
Si Si1 0.171767 0.173527 0.377879
Si Si2 0.105512 0.622782 0.522183
Si Si3 0.032916 0.176705 0.116418
Si Si4 0.791454 0.072233 0.364145
Si Si5 0.529580 0.059000 0.122702
Si Si6 0.786550 0.374415 0.060693
O O1 0.209251 0.121476 0.256371
O O2 0.194436 0.285639 0.365598
O O3 0.218733 0.145189 0.478495
O O4 0.062049 0.152821 0.416353
O O5 0.076912 0.730146 0.549116
O O6 0.214637 0.615497 0.470571
O O7 0.063662 0.549915 0.625422
O O8 0.058535 0.577166 0.427378
O O9 0.108538 0.094487 0.112758
O O10 0.000000 0.204627 0.250000
O O11 0.758909 0.963794 0.364103
O O12 0.500000 0.098898 0.250000
O O13 0.615552 0.105221 0.030658
#
# Coordination Sequence:
#
# PCOD9262276 Si02
#       6
#     8   8   8   8   8   8
#     4  10  21  41  64  84 122 164 203 248 305 362
#     4  10  19  34  53  86 118 152 196 253 301 360
#     4  10  20  37  59  83 121 160 199 245 302 360
#     4  10  22  38  60  90 121 155 207 248 303 363
#     4  10  19  32  57  87 120 151 198 251 307 359
#     4  10  21  40  63  88 121 163 200 253 303 360
#
# _framework density 19.513794999999998
#
# number of rings (size 3 to 8) (size 9 to 14) (size 15 to 20)
#    0.000    2.000    1.667    2.000    0.000    0.667 
#   15.000    0.000    0.000    0.000    0.000    0.000 
#    0.000    0.000    0.000    0.000    0.000    0.000 
#
# Total GULP energy -133768.793975 kJ/mol
# GULP energy per Si atom -5573.699749 kJ/mol
# Density = 1.946938 g / cm^3
# Si number density = 19.513795 Si / 1000 Ang^3
#
#
#
# Elastic Constant Matrix: (Units=GPa)
#
#
# Indices 1 2 3 4 5 6 
#
# 1 121.0106 29.7484 27.5629 0.0000 -1.1379 0.0000
# 2 29.7484 104.2774 40.9838 0.0000 -14.5770 0.0000
# 3 27.5629 40.9838 61.1691 0.0000 -10.1034 0.0000
# 4 0.0000 0.0000 0.0000 24.8884 0.0000 -1.2101
# 5 -1.1379 -14.5770 -10.1034 0.0000 19.5548 0.0000
# 6 0.0000 0.0000 0.0000 -1.2101 0.0000 16.8732
#
#
#
# Elastic Compliance Matrix: (Units=1/GPa)
#
#
# Indices 1 2 3 4 5 6 
#
# 1 0.009459 -0.001646 -0.003577 0.000000 -0.002524 0.000000
# 2 -0.001646 0.013908 -0.007523 0.000000 0.006386 0.000000
# 3 -0.003577 -0.007523 0.024096 0.000000 0.006634 0.000000
# 4 0.000000 0.000000 0.000000 0.040320 0.000000 0.002892
# 5 -0.002524 0.006386 0.006634 0.000000 0.059179 0.000000
# 6 0.000000 0.000000 0.000000 0.002892 0.000000 0.059473
#
#
# Mechanical properties :
#
#
# Convention : Reuss Voigt Hill
#
# Bulk Modulus (GPa) = 45.50914 53.67192 49.59053
# Shear Modulus (GPa) = 20.89867 24.80741 22.85304
#
# Velocity S-wave (km/s) = 3.27612 3.56936 3.42588
# Velocity P-wave (km/s) = 6.13863 6.67469 6.41226
#
# Compressibility (1/GPa) = 0.02197361
#
# Stress axis : x y z
#
# Youngs Moduli (GPa) = 105.71677 71.89861 41.50123
#
# Poissons Ratio (x) = 0.11832 0.14844
# Poissons Ratio (y) = 0.17398 0.31219
# Poissons Ratio (z) = 0.37811 0.54086
#
# Static dielectric constant tensor:
#      x y z
#    x 1.718850 0.000000 0.014650 
#    y 0.000000 1.724670 0.000000 
#    z 0.014650 0.000000 1.665150 
# 
# From -- ./inp_files/96211.got.cif
#   From: 2010.05.17/outbox.cif.g08.bks.cpg/sg15_49_cif.got.tgz:96211.got - 2010.06.03 18:47:42.
