data_PCOD9262797
_publ_section_title
;
Structure prediction by ZEFSAII (Michael W. Deem and Ramdas Pophale) SiO2 
 PCOD9262797
Probable space group: C 2/C
;
_chemical_formula_sum "Si O2"
_cell_formula_units_Z 56
_cell_length_a 9.760971
_cell_length_b 21.567100
_cell_length_c 14.771588
_cell_angle_alpha 90.000000
_cell_angle_beta 122.751432
_cell_angle_gamma 90.000000
_cell_volume 2615.297631
_symmetry_space_group_name_H-M "C 2/C"
_symmetry_group_IT_number 15
_symmetry_cell_setting 'monoclinic'
loop_
_space_group_symop_operation_xyz
x,y,z
-x,y,1/2-z
-x,-y,-z
x,-y,1/2+z
1/2+x,1/2+y,z
1/2-x,1/2+y,1/2-z
1/2-x,1/2-y,-z
1/2+x,1/2-y,1/2+z
loop_
_atom_site_type_symbol
_atom_site_label
_atom_site_fract_x
_atom_site_fract_y
_atom_site_fract_z
Si Si1 0.214702 0.850128 0.394014
Si Si2 0.939164 0.671516 0.530923
Si Si3 0.615475 0.669002 0.653245
Si Si4 0.864114 0.023107 0.879983
Si Si5 0.601609 0.958257 0.419348
Si Si6 0.756311 0.007582 0.647031
Si Si7 0.845974 0.231100 0.138109
O O1 0.403787 0.835118 0.475926
O O2 0.175228 0.827400 0.278391
O O3 0.197270 0.924821 0.378370
O O4 0.080298 0.821770 0.412598
O O5 0.940986 0.614707 0.601920
O O6 0.925446 0.736127 0.578931
O O7 0.769081 0.672803 0.418509
O O8 0.632767 0.598003 0.627370
O O9 0.728563 0.716526 0.640186
O O10 0.864205 0.997169 0.776515
O O11 0.690372 0.011990 0.866000
O O12 0.000000 0.000000 0.000000
O O13 0.428855 0.988159 0.380995
O O14 0.727671 0.965368 0.548802
O O15 0.000000 0.213171 0.250000
#
# Coordination Sequence:
#
# PCOD9262797 Si02
#       7
#     8   8   8   8   8   8   8
#     4   9  18  34  57  82 110 146 191 243 283 344
#     4  10  21  36  58  83 111 149 198 240 294 340
#     4  10  19  33  56  82 111 149 193 237 286 341
#     4  11  21  33  54  86 118 153 189 238 295 349
#     4  10  19  37  58  83 113 157 194 236 297 348
#     4   9  20  35  57  85 116 147 198 238 283 359
#     4  11  21  37  57  84 111 147 200 247 282 350
#
# _framework density 21.412478
#
# number of rings (size 3 to 8) (size 9 to 14) (size 15 to 20)
#    0.000    2.000    2.857    1.286    0.000    2.286 
#    2.571    0.000    0.000    0.000    7.429    0.000 
#    0.000    0.000    0.000    0.000    0.000    0.000 
#
# Total GULP energy -156069.248180 kJ/mol
# GULP energy per Si atom -5573.901721 kJ/mol
# Density = 2.136374 g / cm^3
# Si number density = 21.412478 Si / 1000 Ang^3
#
#
#
# Elastic Constant Matrix: (Units=GPa)
#
#
# Indices 1 2 3 4 5 6 
#
# 1 92.4266 -5.3099 8.2972 0.0000 16.1392 0.0000
# 2 -5.3099 20.5227 1.2212 0.0000 -1.4792 0.0000
# 3 8.2972 1.2212 96.8924 0.0000 13.8590 0.0000
# 4 0.0000 0.0000 0.0000 18.5289 0.0000 7.6062
# 5 16.1392 -1.4792 13.8590 0.0000 31.8858 0.0000
# 6 0.0000 0.0000 0.0000 7.6062 0.0000 19.0917
#
#
#
# Elastic Compliance Matrix: (Units=1/GPa)
#
#
# Indices 1 2 3 4 5 6 
#
# 1 0.012018 0.002700 -0.000225 0.000000 -0.005860 0.000000
# 2 0.002700 0.049588 -0.001055 0.000000 0.001392 0.000000
# 3 -0.000225 -0.001055 0.011030 0.000000 -0.004729 0.000000
# 4 0.000000 0.000000 0.000000 0.064522 0.000000 -0.025706
# 5 -0.005860 0.001392 -0.004729 0.000000 0.036448 0.000000
# 6 0.000000 0.000000 0.000000 -0.025706 0.000000 0.062620
#
#
# Mechanical properties :
#
#
# Convention : Reuss Voigt Hill
#
# Bulk Modulus (GPa) = 13.24921 24.25098 18.75010
# Shear Modulus (GPa) = 19.33899 27.61013 23.47456
#
# Velocity S-wave (km/s) = 3.00853 3.59477 3.31464
# Velocity P-wave (km/s) = 4.27427 5.34604 4.83991
#
# Compressibility (1/GPa) = 0.07547618
#
# Stress axis : x y z
#
# Youngs Moduli (GPa) = 83.20877 20.16602 90.66410
#
# Poissons Ratio (x) = -0.05446 0.02040
# Poissons Ratio (y) = -0.22470 0.09569
# Poissons Ratio (z) = 0.01872 0.02128
#
# Static dielectric constant tensor:
#      x y z
#    x 1.837040 0.000000 0.026800 
#    y 0.000000 1.756850 0.000000 
#    z 0.026800 0.000000 1.874140 
# 
# From -- ./inp_files/138545.got.cif
#   From: 2010.05.17/outbox.cif.g08.bks.cpg/sg15_70_cif.got.tgz:138545.got - 2010.06.03 18:47:42.
