data_PCOD9262135
_publ_section_title
;
Structure prediction by ZEFSAII (Michael W. Deem and Ramdas Pophale) SiO2 
 PCOD9262135
Probable space group: C 2/C
;
_chemical_formula_sum "Si O2"
_cell_formula_units_Z 44
_cell_length_a 16.290928
_cell_length_b 15.676720
_cell_length_c 8.328054
_cell_angle_alpha 90.000000
_cell_angle_beta 82.620567
_cell_angle_gamma 90.000000
_cell_volume 2109.271387
_symmetry_space_group_name_H-M "C 2/C"
_symmetry_group_IT_number 15
_symmetry_cell_setting 'monoclinic'
loop_
_space_group_symop_operation_xyz
x,y,z
-x,y,1/2-z
-x,-y,-z
x,-y,1/2+z
1/2+x,1/2+y,z
1/2-x,1/2+y,1/2-z
1/2-x,1/2-y,-z
1/2+x,1/2-y,1/2+z
loop_
_atom_site_type_symbol
_atom_site_label
_atom_site_fract_x
_atom_site_fract_y
_atom_site_fract_z
Si Si1 0.582733 0.429846 0.312380
Si Si2 0.757164 0.116432 0.329658
Si Si3 0.500000 0.985776 0.750000
Si Si4 0.191181 0.946727 0.002067
Si Si5 0.082258 0.619413 0.516512
Si Si6 0.067938 0.807874 0.608500
O O1 0.500000 0.461625 0.250000
O O2 0.625792 0.505169 0.402101
O O3 0.561876 0.356525 0.442118
O O4 0.643331 0.397946 0.155090
O O5 0.753607 0.104925 0.137810
O O6 0.672931 0.146579 0.431110
O O7 0.839321 0.170845 0.350297
O O8 0.765763 0.023419 0.412150
O O9 0.464595 0.925847 0.619240
O O10 0.571043 0.048945 0.660526
O O11 0.047782 0.709150 0.584458
O O12 0.000000 0.841266 0.750000
#
# Coordination Sequence:
#
# PCOD9262135 Si02
#       6
#     8   8   4   8   8   8
#     4  10  19  32  54  80 120 160 192 234 284 351
#     4  10  20  37  62  88 124 162 196 247 298 357
#     4  10  24  42  70  88 112 156 206 266 298 352
#     4   9  19  34  54  87 117 153 202 231 284 355
#     4  11  22  43  63  90 115 153 207 255 310 353
#     4  11  23  38  58  88 125 162 197 244 304 361
#
# _framework density 20.860285000000001
#
# number of rings (size 3 to 8) (size 9 to 14) (size 15 to 20)
#    0.000    1.818    0.909    3.273    1.273    5.091 
#    0.000    0.909    0.000    0.000    0.000    0.000 
#    0.000    0.000    0.000    0.000    0.000    0.000 
#
# Total GULP energy -122767.224085 kJ/mol
# GULP energy per Si atom -5580.328368 kJ/mol
# Density = 2.081281 g / cm^3
# Si number density = 20.860285 Si / 1000 Ang^3
#
#
#
# Elastic Constant Matrix: (Units=GPa)
#
#
# Indices 1 2 3 4 5 6 
#
# 1 38.4391 2.9984 26.0578 0.0000 -19.2656 0.0000
# 2 2.9984 87.0837 40.9943 0.0000 -3.5942 0.0000
# 3 26.0578 40.9943 171.2079 0.0000 -20.9124 0.0000
# 4 0.0000 0.0000 0.0000 31.6985 0.0000 -12.4082
# 5 -19.2656 -3.5942 -20.9124 0.0000 27.2337 0.0000
# 6 0.0000 0.0000 0.0000 -12.4082 0.0000 -0.0405
#
#
#
# Elastic Compliance Matrix: (Units=1/GPa)
#
#
# Indices 1 2 3 4 5 6 
#
# 1 0.041801 0.001256 -0.003344 0.000000 0.027169 0.000000
# 2 0.001256 0.012993 -0.003293 0.000000 0.000075 0.000000
# 3 -0.003344 -0.003293 0.007500 0.000000 0.002958 0.000000
# 4 0.000000 0.000000 0.000000 0.000261 0.000000 -0.079925
# 5 0.027169 0.000075 0.002958 0.000000 0.058220 0.000000
# 6 0.000000 0.000000 0.000000 -0.079925 0.000000 -0.204180
#
#
# Mechanical properties :
#
#
# Convention : Reuss Voigt Hill
#
# Bulk Modulus (GPa) = 19.40548 48.53686 33.97117
# Shear Modulus (GPa) = -90.14864 26.89034 -31.62915
#
# Velocity S-wave (km/s) = -6.58098 3.59426 -3.89811
# Velocity P-wave (km/s) = 6.95866 6.36734 1.98493
#
# Compressibility (1/GPa) = 0.05153184
#
# Stress axis : x y z
#
# Youngs Moduli (GPa) = 23.92275 76.96272 133.33730
#
# Poissons Ratio (x) = -0.09670 0.44594
# Poissons Ratio (y) = -0.03006 0.43911
# Poissons Ratio (z) = 0.08001 0.25346
#
# Static dielectric constant tensor:
#      x y z
#    x 1.793990 0.000000 -0.073050 
#    y 0.000000 1.734670 0.000000 
#    z -0.073050 0.000000 1.838960 
# 
# From -- ./inp_files/39091.got.cif
#   From: 2010.05.17/outbox.cif.g08.bks.cpg/sg15_20_cif.got.tgz:39091.got - 2010.06.03 18:47:42.
