data_PCOD9262957
_publ_section_title
;
Structure prediction by ZEFSAII (Michael W. Deem and Ramdas Pophale) SiO2 
 PCOD9262957
Probable space group: C 2/C
;
_chemical_formula_sum "Si O2"
_cell_formula_units_Z 40
_cell_length_a 21.418461
_cell_length_b 11.342512
_cell_length_c 10.507162
_cell_angle_alpha 90.000000
_cell_angle_beta 70.511016
_cell_angle_gamma 90.000000
_cell_volume 2406.351407
_symmetry_space_group_name_H-M "C 2/C"
_symmetry_group_IT_number 15
_symmetry_cell_setting 'monoclinic'
loop_
_space_group_symop_operation_xyz
x,y,z
-x,y,1/2-z
-x,-y,-z
x,-y,1/2+z
1/2+x,1/2+y,z
1/2-x,1/2+y,1/2-z
1/2-x,1/2-y,-z
1/2+x,1/2-y,1/2+z
loop_
_atom_site_type_symbol
_atom_site_label
_atom_site_fract_x
_atom_site_fract_y
_atom_site_fract_z
Si Si1 0.128228 0.473172 0.399440
Si Si2 0.576480 0.878109 0.696572
Si Si3 0.193369 0.193401 0.627359
Si Si4 0.287182 0.803457 0.296003
Si Si5 0.762236 0.938658 0.931362
O O1 0.092675 0.547421 0.313524
O O2 0.199386 0.530594 0.385365
O O3 0.149807 0.347326 0.325869
O O4 0.090790 0.453631 0.558200
O O5 0.500000 0.842832 0.750000
O O6 0.626790 0.767677 0.659171
O O7 0.807417 0.945308 0.405318
O O8 0.250000 0.250000 0.500000
O O9 0.223728 0.205365 0.747527
O O10 0.269238 0.902033 0.412606
O O11 0.297493 0.677948 0.355113
#
# Coordination Sequence:
#
# PCOD9262957 Si02
#       5
#     8   8   8   8   8
#     4  11  20  37  57  82 117 146 191 231 286 328
#     4  12  24  38  56  83 117 153 189 230 282 339
#     4  11  20  33  57  81 110 143 189 228 277 327
#     4  10  19  33  58  86 113 140 181 240 282 330
#     4  10  20  32  57  89 114 139 183 236 289 327
#
# _framework density 16.622675999999998
#
# number of rings (size 3 to 8) (size 9 to 14) (size 15 to 20)
#    0.000    1.200    8.000    0.600    2.800    0.000 
#    0.000    0.000    0.000    6.000    0.000    0.000 
#    0.000    0.000    0.000    0.000    0.000    0.000 
#
# Total GULP energy -111531.926078 kJ/mol
# GULP energy per Si atom -5576.596304 kJ/mol
# Density = 1.658484 g / cm^3
# Si number density = 16.622676 Si / 1000 Ang^3
#
#
#
# Elastic Constant Matrix: (Units=GPa)
#
#
# Indices 1 2 3 4 5 6 
#
# 1 99.6528 40.7732 47.4945 0.0000 -10.0012 0.0000
# 2 40.7732 97.3525 42.4742 0.0000 -1.3363 0.0000
# 3 47.4945 42.4742 79.4898 0.0000 13.8613 0.0000
# 4 0.0000 0.0000 0.0000 27.0842 0.0000 5.2558
# 5 -10.0012 -1.3363 13.8613 0.0000 29.6547 0.0000
# 6 0.0000 0.0000 0.0000 5.2558 0.0000 19.3561
#
#
#
# Elastic Compliance Matrix: (Units=1/GPa)
#
#
# Indices 1 2 3 4 5 6 
#
# 1 0.017319 -0.002296 -0.011020 0.000000 0.010888 0.000000
# 2 -0.002296 0.014222 -0.006755 0.000000 0.003024 0.000000
# 3 -0.011020 -0.006755 0.025558 0.000000 -0.015967 0.000000
# 4 0.000000 0.000000 0.000000 0.038976 0.000000 -0.010583
# 5 0.010888 0.003024 -0.015967 0.000000 0.044993 0.000000
# 6 0.000000 0.000000 0.000000 -0.010583 0.000000 0.054537
#
#
# Mechanical properties :
#
#
# Convention : Reuss Voigt Hill
#
# Bulk Modulus (GPa) = 58.96942 59.77543 59.37243
# Shear Modulus (GPa) = 20.71255 24.93589 22.82422
#
# Velocity S-wave (km/s) = 3.53376 3.87733 3.70953
# Velocity P-wave (km/s) = 7.22511 7.48887 7.35817
#
# Compressibility (1/GPa) = 0.01695794
#
# Stress axis : x y z
#
# Youngs Moduli (GPa) = 57.73961 70.31254 39.12659
#
# Poissons Ratio (x) = 0.16146 0.43116
# Poissons Ratio (y) = 0.13259 0.26429
# Poissons Ratio (z) = 0.63628 0.47494
#
# Static dielectric constant tensor:
#      x y z
#    x 1.541780 0.000000 0.034450 
#    y 0.000000 1.590750 0.000000 
#    z 0.034450 0.000000 1.598490 
# 
# From -- ./inp_files/103562.got.cif
#   From: 2010.05.17/outbox.cif.g08.bks.cpg/sg15_52_cif.got.tgz:103562.got - 2010.06.03 18:47:42.
