data_PCOD9262809
_publ_section_title
;
Structure prediction by ZEFSAII (Michael W. Deem and Ramdas Pophale) SiO2 
 PCOD9262809
Probable space group: C 2/C
;
_chemical_formula_sum "Si O2"
_cell_formula_units_Z 52
_cell_length_a 9.795904
_cell_length_b 15.786323
_cell_length_c 22.757322
_cell_angle_alpha 90.000000
_cell_angle_beta 133.569864
_cell_angle_gamma 90.000000
_cell_volume 2549.797663
_symmetry_space_group_name_H-M "C 2/C"
_symmetry_group_IT_number 15
_symmetry_cell_setting 'monoclinic'
loop_
_space_group_symop_operation_xyz
x,y,z
-x,y,1/2-z
-x,-y,-z
x,-y,1/2+z
1/2+x,1/2+y,z
1/2-x,1/2+y,1/2-z
1/2-x,1/2-y,-z
1/2+x,1/2-y,1/2+z
loop_
_atom_site_type_symbol
_atom_site_label
_atom_site_fract_x
_atom_site_fract_y
_atom_site_fract_z
Si Si1 0.481095 0.752441 0.867114
Si Si2 0.142675 0.193643 0.338212
Si Si3 0.220419 0.569576 0.025194
Si Si4 0.617616 0.381400 0.583561
Si Si5 0.539954 0.781801 0.420716
Si Si6 0.000000 0.653632 0.250000
Si Si7 0.263545 0.615137 0.510613
O O1 0.287843 0.748727 0.845669
O O2 0.455949 0.789356 0.794349
O O3 0.593707 0.665004 0.905013
O O4 0.604259 0.820529 0.940679
O O5 0.251402 0.120802 0.406133
O O6 0.027498 0.251887 0.350068
O O7 0.000000 0.153278 0.250000
O O8 0.427700 0.582736 0.056123
O O9 0.187089 0.470168 0.016646
O O10 0.058056 0.619924 0.940963
O O11 0.596357 0.278004 0.581876
O O12 0.633470 0.406556 0.520670
O O13 0.812273 0.398777 0.676071
O O14 0.750000 0.750000 0.500000
#
# Coordination Sequence:
#
# PCOD9262809 Si02
#       7
#     8   8   8   8   8   4   8
#     4  10  20  36  54  77 102 147 187 215 268 332
#     4  10  19  34  57  77 110 144 179 216 270 328
#     4  10  19  33  56  84 106 137 176 236 268 304
#     4   9  17  33  56  78 106 141 178 214 270 328
#     4   8  16  31  55  80 101 135 182 219 262 310
#     4  10  20  34  56  70 104 144 178 214 264 328
#     4  10  20  33  56  80 106 140 180 228 266 315
#
# _framework density 20.393775999999999
#
# number of rings (size 3 to 8) (size 9 to 14) (size 15 to 20)
#    0.000    2.769    0.000    5.077    0.000    0.615 
#    1.385    0.000   25.385    0.000    0.000    0.000 
#    0.000    0.000    0.000    0.000    0.000    0.000 
#
# Total GULP energy -144942.654725 kJ/mol
# GULP energy per Si atom -5574.717489 kJ/mol
# Density = 2.034736 g / cm^3
# Si number density = 20.393776 Si / 1000 Ang^3
#
#
#
# Elastic Constant Matrix: (Units=GPa)
#
#
# Indices 1 2 3 4 5 6 
#
# 1 57.8688 7.4192 13.8765 0.0000 -11.3230 0.0000
# 2 7.4192 112.3068 17.3551 0.0000 -7.3155 0.0000
# 3 13.8765 17.3551 72.2852 0.0000 -19.1237 0.0000
# 4 0.0000 0.0000 0.0000 7.3478 0.0000 6.0575
# 5 -11.3230 -7.3155 -19.1237 0.0000 30.8719 0.0000
# 6 0.0000 0.0000 0.0000 6.0575 0.0000 17.8276
#
#
#
# Elastic Compliance Matrix: (Units=1/GPa)
#
#
# Indices 1 2 3 4 5 6 
#
# 1 0.018926 -0.000576 -0.002027 0.000000 0.005550 0.000000
# 2 -0.000576 0.009289 -0.001906 0.000000 0.000810 0.000000
# 3 -0.002027 -0.001906 0.017180 0.000000 0.009447 0.000000
# 4 0.000000 0.000000 0.000000 0.189051 0.000000 -0.064236
# 5 0.005550 0.000810 0.009447 0.000000 0.040471 0.000000
# 6 0.000000 0.000000 0.000000 -0.064236 0.000000 0.077919
#
#
# Mechanical properties :
#
#
# Convention : Reuss Voigt Hill
#
# Bulk Modulus (GPa) = 27.48790 35.52917 31.50853
# Shear Modulus (GPa) = 13.36968 24.79679 19.08323
#
# Velocity S-wave (km/s) = 2.56320 3.49076 3.06230
# Velocity P-wave (km/s) = 4.71888 5.80574 5.29029
#
# Compressibility (1/GPa) = 0.03637965
#
# Stress axis : x y z
#
# Youngs Moduli (GPa) = 52.83692 107.64927 58.20698
#
# Poissons Ratio (x) = 0.06196 0.11797
# Poissons Ratio (y) = 0.03041 0.11092
# Poissons Ratio (z) = 0.10709 0.20514
#
# Static dielectric constant tensor:
#      x y z
#    x 1.788770 0.000000 0.015200 
#    y 0.000000 1.757290 0.000000 
#    z 0.015200 0.000000 1.679470 
# 
# From -- ./inp_files/269985.got.cif
#   From: 2010.05.17/outbox.cif.g08.bks.cpg/sg15_135_cif.got.tgz:269985.got - 2010.06.03 18:47:42.
