data_PCOD9262409
_publ_section_title
;
Structure prediction by ZEFSAII (Michael W. Deem and Ramdas Pophale) SiO2 
 PCOD9262409
Probable space group: C 2/C
;
_chemical_formula_sum "Si O2"
_cell_formula_units_Z 40
_cell_length_a 25.444038
_cell_length_b 5.002834
_cell_length_c 14.724048
_cell_angle_alpha 90.000000
_cell_angle_beta 122.818168
_cell_angle_gamma 90.000000
_cell_volume 1575.116585
_symmetry_space_group_name_H-M "C 2/C"
_symmetry_group_IT_number 15
_symmetry_cell_setting 'monoclinic'
loop_
_space_group_symop_operation_xyz
x,y,z
-x,y,1/2-z
-x,-y,-z
x,-y,1/2+z
1/2+x,1/2+y,z
1/2-x,1/2+y,1/2-z
1/2-x,1/2-y,-z
1/2+x,1/2-y,1/2+z
loop_
_atom_site_type_symbol
_atom_site_label
_atom_site_fract_x
_atom_site_fract_y
_atom_site_fract_z
Si Si1 0.042957 0.296705 0.356670
Si Si2 0.325205 0.417782 0.565896
Si Si3 0.554510 0.491424 0.125371
Si Si4 0.614959 0.002618 0.603750
Si Si5 0.276822 0.078382 0.917286
O O1 0.101515 0.126636 0.374239
O O2 0.073086 0.452446 0.472304
O O3 0.000000 0.480103 0.250000
O O4 0.987772 0.096587 0.333562
O O5 0.300815 0.627604 0.466798
O O6 0.296542 0.531709 0.633068
O O7 0.301917 0.120203 0.520024
O O8 0.588866 0.210061 0.151186
O O9 0.603067 0.712494 0.136109
O O10 0.500000 0.500000 0.000000
O O11 0.687044 0.983905 0.638694
#
# Coordination Sequence:
#
# PCOD9262409 Si02
#       5
#     8   8   8   8   8
#     4  10  20  34  52  78 109 135 165 212 268 314
#     4   9  18  30  48  75 100 128 165 211 252 290
#     4  10  19  33  51  73 101 134 172 206 247 306
#     4  10  19  34  53  74  98 134 174 210 249 299
#     4   9  16  31  52  72  96 127 173 213 241 287
#
# _framework density 25.394945
#
# number of rings (size 3 to 8) (size 9 to 14) (size 15 to 20)
#    0.000    2.400    0.000    6.000    0.000    1.600 
#    0.000   25.000    0.000    2.400    0.000    0.000 
#    0.000    0.000    0.000    0.000    0.000    0.000 
#
# Total GULP energy -111530.893391 kJ/mol
# GULP energy per Si atom -5576.544670 kJ/mol
# Density = 2.533714 g / cm^3
# Si number density = 25.394945 Si / 1000 Ang^3
#
#
#
# Elastic Constant Matrix: (Units=GPa)
#
#
# Indices 1 2 3 4 5 6 
#
# 1 157.8176 -3.5855 12.9986 0.0000 -34.6363 0.0000
# 2 -3.5855 85.5965 4.5395 0.0003 1.0166 -0.0002
# 3 12.9986 4.5395 61.6958 0.0000 19.7450 0.0000
# 4 0.0000 0.0003 0.0000 5.5910 0.0000 -5.2041
# 5 -34.6363 1.0166 19.7450 0.0000 -4.0063 0.0000
# 6 0.0000 -0.0002 0.0000 -5.2041 0.0000 32.6346
#
#
#
# Elastic Compliance Matrix: (Units=1/GPa)
#
#
# Indices 1 2 3 4 5 6 
#
# 1 0.003325 0.000113 0.003291 0.000000 -0.012498 0.000000
# 2 0.000113 0.011730 -0.000592 -0.000001 -0.000921 0.000000
# 3 0.003291 -0.000592 0.009589 0.000000 0.018655 0.000000
# 4 0.000000 -0.000001 0.000000 0.210036 0.000000 0.033494
# 5 -0.012498 -0.000921 0.018655 0.000000 -0.049850 0.000000
# 6 0.000000 0.000000 0.000000 0.033494 0.000000 0.035983
#
#
# Mechanical properties :
#
#
# Convention : Reuss Voigt Hill
#
# Bulk Modulus (GPa) = 33.03906 37.00165 35.02036
# Shear Modulus (GPa) = 22.19477 26.25435 24.22456
#
# Velocity S-wave (km/s) = 2.95953 3.21883 3.09190
# Velocity P-wave (km/s) = 4.97159 5.33072 5.15429
#
# Compressibility (1/GPa) = 0.03026721
#
# Stress axis : x y z
#
# Youngs Moduli (GPa) = 300.75165 85.25290 104.29155
#
# Poissons Ratio (x) = -0.00965 -0.34322
# Poissons Ratio (y) = -0.03404 0.06176
# Poissons Ratio (z) = -0.98977 0.05049
#
# Static dielectric constant tensor:
#      x y z
#    x 2.115000 0.000000 -0.161550 
#    y 0.000000 1.965630 0.000000 
#    z -0.161550 0.000000 2.189780 
# 
# From -- ./inp_files/217335.got.cif
#   From: 2010.05.17/outbox.cif.g08.bks.cpg/sg15_109_cif.got.tgz:217335.got - 2010.06.03 18:47:42.
