data_PCOD9262002
_publ_section_title
;
Structure prediction by ZEFSAII (Michael W. Deem and Ramdas Pophale) SiO2 
 PCOD9262002
Probable space group: C 2/C
;
_chemical_formula_sum "Si O2"
_cell_formula_units_Z 64
_cell_length_a 15.646015
_cell_length_b 24.590671
_cell_length_c 10.277246
_cell_angle_alpha 90.000000
_cell_angle_beta 94.842671
_cell_angle_gamma 90.000000
_cell_volume 3940.014166
_symmetry_space_group_name_H-M "C 2/C"
_symmetry_group_IT_number 15
_symmetry_cell_setting 'monoclinic'
loop_
_space_group_symop_operation_xyz
x,y,z
-x,y,1/2-z
-x,-y,-z
x,-y,1/2+z
1/2+x,1/2+y,z
1/2-x,1/2+y,1/2-z
1/2-x,1/2-y,-z
1/2+x,1/2-y,1/2+z
loop_
_atom_site_type_symbol
_atom_site_label
_atom_site_fract_x
_atom_site_fract_y
_atom_site_fract_z
Si Si1 0.208938 0.700210 0.407735
Si Si2 0.985734 0.281470 0.598599
Si Si3 0.170861 0.298880 0.601447
Si Si4 0.152716 0.892128 0.551516
Si Si5 0.598530 0.389882 0.248069
Si Si6 0.326699 0.326134 0.472103
Si Si7 0.440656 0.492263 0.864468
Si Si8 0.999831 0.185602 0.106405
O O1 0.250000 0.750000 0.500000
O O2 0.108408 0.693321 0.429426
O O3 0.206010 0.711391 0.251876
O O4 0.262561 0.644615 0.426833
O O5 0.986554 0.230518 0.502225
O O6 0.000000 0.262980 0.750000
O O7 0.071450 0.317215 0.586674
O O8 0.236733 0.336447 0.530930
O O9 0.167748 0.239182 0.536815
O O10 0.134141 0.897023 0.396216
O O11 0.136569 0.950774 0.614180
O O12 0.076509 0.856322 0.603140
O O13 0.500000 0.369488 0.250000
O O14 0.656337 0.350923 0.167098
O O15 0.592523 0.448211 0.178483
O O16 0.408966 0.343199 0.567473
O O17 0.500000 0.473731 0.750000
O O18 0.500000 0.500000 0.000000
O O19 0.000000 0.210396 0.250000
#
# Coordination Sequence:
#
# PCOD9262002 Si02
#       8
#     8   8   8   8   8   8   8   8
#     4  11  20  33  52  80 109 140 189 227 265 331
#     4   9  20  36  53  71 110 149 181 225 271 323
#     4   9  20  34  49  76 108 145 183 223 273 327
#     4  12  22  34  55  79 110 149 180 227 275 321
#     4  11  21  36  54  75 107 148 185 215 277 323
#     4  10  19  32  52  72 108 145 184 221 266 340
#     4  11  21  38  54  78 113 145 187 228 268 331
#     4  11  20  29  48  79 108 142 184 217 267 315
#
# _framework density 16.243596
#
# number of rings (size 3 to 8) (size 9 to 14) (size 15 to 20)
#    0.000    1.500    5.000    1.875    3.500    1.000 
#    2.250    0.000    0.000    0.000    0.000    0.875 
#    0.000    0.000    0.000    0.000    0.000    0.000 
#
# Total GULP energy -178288.429242 kJ/mol
# GULP energy per Si atom -5571.513414 kJ/mol
# Density = 1.620663 g / cm^3
# Si number density = 16.243596 Si / 1000 Ang^3
#
#
#
# Elastic Constant Matrix: (Units=GPa)
#
#
# Indices 1 2 3 4 5 6 
#
# 1 127.1604 41.4115 33.0741 0.0000 -9.9034 0.0000
# 2 41.4115 45.1168 5.4224 0.0000 -4.9707 0.0000
# 3 33.0741 5.4224 66.5205 0.0000 -7.4688 0.0000
# 4 0.0000 0.0000 0.0000 25.5181 0.0000 -8.1082
# 5 -9.9034 -4.9707 -7.4688 0.0000 27.8311 0.0000
# 6 0.0000 0.0000 0.0000 -8.1082 0.0000 18.9201
#
#
#
# Elastic Compliance Matrix: (Units=1/GPa)
#
#
# Indices 1 2 3 4 5 6 
#
# 1 0.012996 -0.011147 -0.005421 0.000000 0.001179 0.000000
# 2 -0.011147 0.032304 0.003208 0.000000 0.002664 0.000000
# 3 -0.005421 0.003208 0.017852 0.000000 0.003435 0.000000
# 4 0.000000 0.000000 0.000000 0.045365 0.000000 0.019441
# 5 0.001179 0.002664 0.003435 0.000000 0.037748 0.000000
# 6 0.000000 0.000000 0.000000 0.019441 0.000000 0.061185
#
#
# Mechanical properties :
#
#
# Convention : Reuss Voigt Hill
#
# Bulk Modulus (GPa) = 27.44731 44.29039 35.86885
# Shear Modulus (GPa) = 20.29917 25.04649 22.67283
#
# Velocity S-wave (km/s) = 3.53891 3.93100 3.74010
# Velocity P-wave (km/s) = 5.79935 6.92310 6.38599
#
# Compressibility (1/GPa) = 0.03643344
#
# Stress axis : x y z
#
# Youngs Moduli (GPa) = 76.94618 30.95545 56.01525
#
# Poissons Ratio (x) = 0.34507 0.30364
# Poissons Ratio (y) = 0.85775 -0.17972
# Poissons Ratio (z) = 0.41710 -0.09932
#
# Static dielectric constant tensor:
#      x y z
#    x 1.604770 0.000000 -0.016380 
#    y 0.000000 1.519250 0.000000 
#    z -0.016380 0.000000 1.582100 
# 
# From -- ./inp_files/43547.got.cif
#   From: 2010.05.17/outbox.cif.g08.bks.cpg/sg15_22_cif.got.tgz:43547.got - 2010.06.03 18:47:42.
