data_PCOD9262237
_publ_section_title
;
Structure prediction by ZEFSAII (Michael W. Deem and Ramdas Pophale) SiO2 
 PCOD9262237
Probable space group: C 2/C
;
_chemical_formula_sum "Si O2"
_cell_formula_units_Z 60
_cell_length_a 11.157715
_cell_length_b 15.647946
_cell_length_c 26.182031
_cell_angle_alpha 90.000000
_cell_angle_beta 41.615104
_cell_angle_gamma 90.000000
_cell_volume 3035.880453
_symmetry_space_group_name_H-M "C 2/C"
_symmetry_group_IT_number 15
_symmetry_cell_setting 'monoclinic'
loop_
_space_group_symop_operation_xyz
x,y,z
-x,y,1/2-z
-x,-y,-z
x,-y,1/2+z
1/2+x,1/2+y,z
1/2-x,1/2+y,1/2-z
1/2-x,1/2-y,-z
1/2+x,1/2-y,1/2+z
loop_
_atom_site_type_symbol
_atom_site_label
_atom_site_fract_x
_atom_site_fract_y
_atom_site_fract_z
Si Si1 0.345918 0.286622 0.681330
Si Si2 0.055572 0.575823 0.118948
Si Si3 0.995444 0.301043 0.042271
Si Si4 0.500000 0.882048 0.750000
Si Si5 0.161662 0.134582 0.128263
Si Si6 0.126765 0.477418 0.411360
Si Si7 0.121420 0.817832 0.012186
Si Si8 0.817449 0.745475 0.166464
O O1 0.486696 0.237667 0.600927
O O2 0.462642 0.362103 0.669317
O O3 0.277667 0.231067 0.750683
O O4 0.175668 0.322831 0.704502
O O5 0.034678 0.566306 0.186451
O O6 0.976408 0.502191 0.108031
O O7 0.942397 0.662441 0.140986
O O8 0.260192 0.599081 0.037258
O O9 0.847283 0.376913 0.090904
O O10 0.938507 0.228229 0.020804
O O11 0.183015 0.341286 0.962845
O O12 0.190526 0.206354 0.162827
O O13 0.207603 0.041962 0.136222
O O14 0.000000 0.500000 0.500000
O O15 0.942905 0.819719 0.103696
O O16 0.250000 0.750000 0.000000
#
# Coordination Sequence:
#
# PCOD9262237 Si02
#       8
#     8   8   8   4   8   8   8   8
#     4  11  19  32  53  81 112 135 187 229 269 327
#     4   9  16  31  54  76 106 145 185 220 268 339
#     4  10  19  32  56  85 110 134 180 236 278 311
#     4  10  20  32  54  80 104 150 188 224 276 326
#     4   9  18  33  54  80 105 148 180 216 274 335
#     4   9  18  34  56  84 108 142 180 229 282 318
#     4   9  15  29  51  79 105 141 180 221 265 320
#     4   8  17  28  50  76 106 137 182 226 268 308
#
# _framework density 19.763625000000001
#
# number of rings (size 3 to 8) (size 9 to 14) (size 15 to 20)
#    0.000    2.667    1.333    3.200    0.000    0.000 
#    0.000    0.000   11.733    4.800    6.933    0.000 
#    0.000    0.000    0.000    0.000    0.000    0.000 
#
# Total GULP energy -167082.505447 kJ/mol
# GULP energy per Si atom -5569.416848 kJ/mol
# Density = 1.971864 g / cm^3
# Si number density = 19.763625 Si / 1000 Ang^3
#
#
#
# Elastic Constant Matrix: (Units=GPa)
#
#
# Indices 1 2 3 4 5 6 
#
# 1 81.4296 13.4824 40.5654 0.0000 -0.3844 0.0000
# 2 13.4824 11.5786 6.8677 -0.0001 0.7464 0.0000
# 3 40.5654 6.8677 104.6542 -0.0001 27.1208 -0.0001
# 4 0.0000 -0.0001 -0.0001 9.2623 0.0000 -0.1634
# 5 -0.3844 0.7464 27.1208 0.0000 40.0174 0.0000
# 6 0.0000 0.0000 -0.0001 -0.1634 0.0000 11.0346
#
#
#
# Elastic Compliance Matrix: (Units=1/GPa)
#
#
# Indices 1 2 3 4 5 6 
#
# 1 0.019154 -0.018089 -0.007730 0.000000 0.005760 0.000000
# 2 -0.018089 0.107211 0.000654 0.000001 -0.002617 0.000000
# 3 -0.007730 0.000654 0.015201 0.000000 -0.010388 0.000000
# 4 0.000000 0.000001 0.000000 0.107993 0.000000 0.001599
# 5 0.005760 -0.002617 -0.010388 0.000000 0.032134 0.000000
# 6 0.000000 0.000000 0.000000 0.001599 0.000000 0.090648
#
#
# Mechanical properties :
#
#
# Convention : Reuss Voigt Hill
#
# Bulk Modulus (GPa) = 10.96065 35.49925 23.22995
# Shear Modulus (GPa) = 11.03556 21.17932 16.10744
#
# Velocity S-wave (km/s) = 2.36556 3.27713 2.85792
# Velocity P-wave (km/s) = 3.60820 5.68510 4.76127
#
# Compressibility (1/GPa) = 0.09123545
#
# Stress axis : x y z
#
# Youngs Moduli (GPa) = 52.20973 9.32742 65.78684
#
# Poissons Ratio (x) = 0.16873 0.50852
# Poissons Ratio (y) = 0.94444 -0.04305
# Poissons Ratio (z) = 0.40357 -0.00610
#
# Static dielectric constant tensor:
#      x y z
#    x 1.769100 0.000000 0.004470 
#    y 0.000000 1.709080 0.000000 
#    z 0.004470 0.000000 1.752970 
# 
# From -- ./inp_files/293350.got.cif
#   From: 2010.05.17/outbox.cif.g08.bks.cpg/sg15_147_cif.got.tgz:293350.got - 2010.06.03 18:47:42.
