data_PCOD9262052
_publ_section_title
;
Structure prediction by ZEFSAII (Michael W. Deem and Ramdas Pophale) SiO2 
 PCOD9262052
Probable space group: C 2/C
;
_chemical_formula_sum "Si O2"
_cell_formula_units_Z 56
_cell_length_a 14.965030
_cell_length_b 17.653232
_cell_length_c 13.706033
_cell_angle_alpha 90.000000
_cell_angle_beta 51.026852
_cell_angle_gamma 90.000000
_cell_volume 2815.016393
_symmetry_space_group_name_H-M "C 2/C"
_symmetry_group_IT_number 15
_symmetry_cell_setting 'monoclinic'
loop_
_space_group_symop_operation_xyz
x,y,z
-x,y,1/2-z
-x,-y,-z
x,-y,1/2+z
1/2+x,1/2+y,z
1/2-x,1/2+y,1/2-z
1/2-x,1/2-y,-z
1/2+x,1/2-y,1/2+z
loop_
_atom_site_type_symbol
_atom_site_label
_atom_site_fract_x
_atom_site_fract_y
_atom_site_fract_z
Si Si1 0.671245 0.098015 0.779183
Si Si2 0.923537 0.927700 0.519890
Si Si3 0.000000 0.457313 0.250000
Si Si4 0.367397 0.485634 0.356987
Si Si5 0.121191 0.837150 0.284617
Si Si6 0.738752 0.064909 0.288742
Si Si7 0.500000 0.211552 0.250000
Si Si8 0.522614 0.909706 0.578987
O O1 0.596332 0.094854 0.733352
O O2 0.765375 0.163365 0.727079
O O3 0.736092 0.017389 0.737698
O O4 0.593904 0.093492 0.930624
O O5 0.851473 0.960449 0.478291
O O6 0.841178 0.895586 0.660027
O O7 0.009947 0.863342 0.421996
O O8 0.000000 0.000000 0.500000
O O9 0.964260 0.514078 0.363969
O O10 0.500000 0.511838 0.250000
O O11 0.359231 0.407233 0.302772
O O12 0.280441 0.545456 0.369241
O O13 0.091373 0.764323 0.242050
O O14 0.611839 0.096419 0.359390
O O15 0.445821 0.157607 0.369338
#
# Coordination Sequence:
#
# PCOD9262052 Si02
#       8
#     8   8   4   8   8   8   4   8
#     4  10  20  36  56  83 118 149 192 238 293 348
#     4  11  17  31  53  87 115 140 185 238 295 340
#     4   9  18  36  58  86 116 147 182 244 298 337
#     4   9  16  29  51  82 115 138 177 232 295 336
#     4  10  20  37  55  83 113 148 190 235 283 346
#     4  10  19  32  52  81 121 143 181 243 286 346
#     4  11  22  44  58  80 122 155 202 234 286 349
#     4  10  23  37  53  88 118 154 196 228 287 353
#
# _framework density 19.893312999999999
#
# number of rings (size 3 to 8) (size 9 to 14) (size 15 to 20)
#    0.000    2.000    6.429    1.714    0.000    9.714 
#    2.571    0.000    0.000    0.857    1.857    0.000 
#    0.000    0.000    0.000    0.000    0.000    0.000 
#
# Total GULP energy -156125.193699 kJ/mol
# GULP energy per Si atom -5575.899775 kJ/mol
# Density = 1.984803 g / cm^3
# Si number density = 19.893313 Si / 1000 Ang^3
#
#
#
# Elastic Constant Matrix: (Units=GPa)
#
#
# Indices 1 2 3 4 5 6 
#
# 1 155.1300 36.9084 33.8240 0.0000 1.8909 0.0000
# 2 36.9084 47.4114 20.0604 0.0000 -1.2722 0.0000
# 3 33.8240 20.0604 96.7371 0.0000 -2.3652 0.0000
# 4 0.0000 0.0000 0.0000 10.0751 0.0000 9.8599
# 5 1.8909 -1.2722 -2.3652 0.0000 21.3329 0.0000
# 6 0.0000 0.0000 0.0000 9.8599 0.0000 33.4180
#
#
#
# Elastic Compliance Matrix: (Units=1/GPa)
#
#
# Indices 1 2 3 4 5 6 
#
# 1 0.008187 -0.005681 -0.001715 0.000000 -0.001255 0.000000
# 2 -0.005681 0.027079 -0.003587 0.000000 0.001721 0.000000
# 3 -0.001715 -0.003587 0.011711 0.000000 0.001237 0.000000
# 4 0.000000 0.000000 0.000000 0.139548 0.000000 -0.041173
# 5 -0.001255 0.001721 0.001237 0.000000 0.047227 0.000000
# 6 0.000000 0.000000 0.000000 -0.041173 0.000000 0.042072
#
#
# Mechanical properties :
#
#
# Convention : Reuss Voigt Hill
#
# Bulk Modulus (GPa) = 39.98375 53.42934 46.70654
# Shear Modulus (GPa) = 16.33310 26.86426 21.59868
#
# Velocity S-wave (km/s) = 2.86848 3.67879 3.29861
# Velocity P-wave (km/s) = 5.57796 6.70529 6.16743
#
# Compressibility (1/GPa) = 0.02501016
#
# Stress axis : x y z
#
# Youngs Moduli (GPa) = 122.14192 36.92955 85.38976
#
# Poissons Ratio (x) = 0.20981 0.14646
# Poissons Ratio (y) = 0.69394 0.30627
# Poissons Ratio (z) = 0.20949 0.13246
#
# Static dielectric constant tensor:
#      x y z
#    x 1.800690 0.000000 -0.030970 
#    y 0.000000 1.687760 0.000000 
#    z -0.030970 0.000000 1.752090 
# 
# From -- ./inp_files/155168.got.cif
#   From: 2010.05.17/outbox.cif.g08.bks.cpg/sg15_78_cif.got.tgz:155168.got - 2010.06.03 18:47:42.
