data_PCOD9262716
_publ_section_title
;
Structure prediction by ZEFSAII (Michael W. Deem and Ramdas Pophale) SiO2 
 PCOD9262716
Probable space group: C 2/C
;
_chemical_formula_sum "Si O2"
_cell_formula_units_Z 56
_cell_length_a 8.503776
_cell_length_b 24.947405
_cell_length_c 14.013868
_cell_angle_alpha 90.000000
_cell_angle_beta 112.673628
_cell_angle_gamma 90.000000
_cell_volume 2743.235437
_symmetry_space_group_name_H-M "C 2/C"
_symmetry_group_IT_number 15
_symmetry_cell_setting 'monoclinic'
loop_
_space_group_symop_operation_xyz
x,y,z
-x,y,1/2-z
-x,-y,-z
x,-y,1/2+z
1/2+x,1/2+y,z
1/2-x,1/2+y,1/2-z
1/2-x,1/2-y,-z
1/2+x,1/2-y,1/2+z
loop_
_atom_site_type_symbol
_atom_site_label
_atom_site_fract_x
_atom_site_fract_y
_atom_site_fract_z
Si Si1 0.178759 0.505391 0.794966
Si Si2 0.353532 0.070713 0.516441
Si Si3 0.689716 0.692322 0.778019
Si Si4 0.001824 0.773383 0.857800
Si Si5 0.957348 0.990764 0.601007
Si Si6 0.217916 0.820488 0.065745
Si Si7 0.776168 0.579187 0.875324
O O1 0.170793 0.533337 0.896261
O O2 0.356238 0.475635 0.817281
O O3 0.181596 0.553113 0.717741
O O4 0.000000 0.474130 0.750000
O O5 0.196434 0.050342 0.416264
O O6 0.319941 0.130908 0.542360
O O7 0.548006 0.067447 0.525872
O O8 0.500000 0.713317 0.750000
O O9 0.683539 0.669103 0.668647
O O10 0.736692 0.641551 0.854781
O O11 0.829344 0.738671 0.825217
O O12 0.156134 0.730334 0.897351
O O13 0.000000 0.798062 0.750000
O O14 0.052861 0.810035 0.960162
O O15 0.884836 0.047185 0.622000
O O16 0.000000 0.000000 0.500000
#
# Coordination Sequence:
#
# PCOD9262716 Si02
#       7
#     8   8   8   8   8   8   8
#     4   9  18  31  53  75 105 143 183 239 288 341
#     4  10  19  33  55  81 112 150 191 244 302 348
#     4  11  21  32  59  91 120 155 200 252 306 352
#     4   9  20  37  59  85 119 155 199 249 302 366
#     4  10  21  33  48  78 116 149 185 237 302 353
#     4  10  19  37  60  86 118 155 199 248 301 362
#     4  11  19  33  54  83 113 144 199 250 290 350
#
# _framework density 20.413851999999999
#
# number of rings (size 3 to 8) (size 9 to 14) (size 15 to 20)
#    0.000    2.000    2.857    1.714    2.000    0.571 
#    0.000    1.429    0.000    0.857    0.000    0.000 
#    0.000    0.000    0.000    0.000    0.000    0.000 
#
# Total GULP energy -155953.619475 kJ/mol
# GULP energy per Si atom -5569.772124 kJ/mol
# Density = 2.036739 g / cm^3
# Si number density = 20.413852 Si / 1000 Ang^3
#
#
#
# Elastic Constant Matrix: (Units=GPa)
#
#
# Indices 1 2 3 4 5 6 
#
# 1 130.7529 3.1191 39.3648 0.0000 34.4184 0.0000
# 2 3.1191 7.7030 11.9070 0.0000 -1.1246 0.0000
# 3 39.3648 11.9070 73.3884 0.0000 21.1103 0.0000
# 4 0.0000 0.0000 0.0000 20.6459 0.0000 5.3325
# 5 34.4184 -1.1246 21.1103 0.0000 36.2989 0.0000
# 6 0.0000 0.0000 0.0000 5.3325 0.0000 16.2657
#
#
#
# Elastic Compliance Matrix: (Units=1/GPa)
#
#
# Indices 1 2 3 4 5 6 
#
# 1 0.010872 -0.000446 -0.003350 0.000000 -0.008374 0.000000
# 2 -0.000446 0.196625 -0.040273 0.000000 0.029936 0.000000
# 3 -0.003350 -0.040273 0.025702 0.000000 -0.013018 0.000000
# 4 0.000000 0.000000 0.000000 0.052916 0.000000 -0.017348
# 5 -0.008374 0.029936 -0.013018 0.000000 0.043987 0.000000
# 6 0.000000 0.000000 0.000000 -0.017348 0.000000 0.067166
#
#
# Mechanical properties :
#
#
# Convention : Reuss Voigt Hill
#
# Bulk Modulus (GPa) = 6.89375 35.62511 21.25943
# Shear Modulus (GPa) = 9.36749 25.13900 17.25325
#
# Velocity S-wave (km/s) = 2.14447 3.51303 2.91034
# Velocity P-wave (km/s) = 3.08480 5.82619 4.66157
#
# Compressibility (1/GPa) = 0.14505897
#
# Stress axis : x y z
#
# Youngs Moduli (GPa) = 91.98339 5.08584 38.90718
#
# Poissons Ratio (x) = 0.00227 0.13035
# Poissons Ratio (y) = 0.04101 1.56693
# Poissons Ratio (z) = 0.30818 0.20482
#
# Static dielectric constant tensor:
#      x y z
#    x 1.776000 0.000000 0.059050 
#    y 0.000000 1.715600 0.000000 
#    z 0.059050 0.000000 1.880850 
# 
# From -- ./inp_files/138281.got.cif
#   From: 2010.05.17/outbox.cif.g08.bks.cpg/sg15_70_cif.got.tgz:138281.got - 2010.06.03 18:47:42.
