data_PCOD9262876
_publ_section_title
;
Structure prediction by ZEFSAII (Michael W. Deem and Ramdas Pophale) SiO2 
 PCOD9262876
Probable space group: C 2/C
;
_chemical_formula_sum "Si O2"
_cell_formula_units_Z 64
_cell_length_a 8.181079
_cell_length_b 21.313028
_cell_length_c 21.230160
_cell_angle_alpha 90.000000
_cell_angle_beta 69.209346
_cell_angle_gamma 90.000000
_cell_volume 3460.720656
_symmetry_space_group_name_H-M "C 2/C"
_symmetry_group_IT_number 15
_symmetry_cell_setting 'monoclinic'
loop_
_space_group_symop_operation_xyz
x,y,z
-x,y,1/2-z
-x,-y,-z
x,-y,1/2+z
1/2+x,1/2+y,z
1/2-x,1/2+y,1/2-z
1/2-x,1/2-y,-z
1/2+x,1/2-y,1/2+z
loop_
_atom_site_type_symbol
_atom_site_label
_atom_site_fract_x
_atom_site_fract_y
_atom_site_fract_z
Si Si1 0.231365 0.884447 0.820476
Si Si2 0.639139 0.000600 0.925402
Si Si3 0.874919 0.355527 0.065693
Si Si4 0.064014 0.768521 0.889387
Si Si5 0.054400 0.823707 0.018771
Si Si6 0.658865 0.798506 0.931226
Si Si7 0.391905 0.896328 0.670628
Si Si8 0.466116 0.444362 0.955508
O O1 0.143197 0.815865 0.828515
O O2 0.259083 0.908789 0.746105
O O3 0.421963 0.878712 0.825214
O O4 0.116657 0.925709 0.884609
O O5 0.645097 0.073886 0.907593
O O6 0.585343 0.958027 0.874462
O O7 0.808106 0.967804 0.933494
O O8 0.500000 0.000000 0.000000
O O9 0.891089 0.304319 0.118956
O O10 0.704523 0.345313 0.045377
O O11 0.043768 0.338471 0.998005
O O12 0.857012 0.781958 0.923499
O O13 0.143457 0.791531 0.945487
O O14 0.936784 0.768440 0.063475
O O15 0.950523 0.882742 0.002662
O O16 0.665516 0.840537 0.867886
O O17 0.500000 0.500000 0.000000
#
# Coordination Sequence:
#
# PCOD9262876 Si02
#       8
#     8   8   8   8   8   8   8   8
#     4  10  23  41  64  82 113 157 203 255 294 362
#     4  12  24  34  59  90 125 160 196 245 296 363
#     4  11  20  35  54  86 123 151 190 238 299 342
#     4  10  21  34  57  85 114 148 193 245 297 339
#     4  10  19  33  57  82 116 149 186 240 289 339
#     4  11  20  34  57  87 114 149 192 248 291 347
#     4  11  22  41  62  85 115 158 205 243 305 358
#     4  11  21  38  58  91 121 154 200 243 299 352
#
# _framework density 18.493257
#
# number of rings (size 3 to 8) (size 9 to 14) (size 15 to 20)
#    0.000    1.250    2.500    7.500    1.750    2.000 
#    0.000    0.000    2.750    0.000    0.000    0.000 
#    0.000    0.000    0.000    0.000    0.000    0.000 
#
# Total GULP energy -178479.245374 kJ/mol
# GULP energy per Si atom -5577.476418 kJ/mol
# Density = 1.845117 g / cm^3
# Si number density = 18.493257 Si / 1000 Ang^3
#
#
#
# Elastic Constant Matrix: (Units=GPa)
#
#
# Indices 1 2 3 4 5 6 
#
# 1 66.5212 35.1629 20.5131 0.0000 -12.0453 0.0000
# 2 35.1629 157.6834 43.1983 0.0000 -0.8847 0.0000
# 3 20.5131 43.1983 95.0243 0.0000 -2.8735 0.0000
# 4 0.0000 0.0000 0.0000 23.7753 0.0000 1.9257
# 5 -12.0453 -0.8847 -2.8735 0.0000 17.2276 0.0000
# 6 0.0000 0.0000 0.0000 1.9257 0.0000 31.1653
#
#
#
# Elastic Compliance Matrix: (Units=1/GPa)
#
#
# Indices 1 2 3 4 5 6 
#
# 1 0.020188 -0.003820 -0.002212 0.000000 0.013550 0.000000
# 2 -0.003820 0.007967 -0.002880 0.000000 -0.002742 0.000000
# 3 -0.002212 -0.002880 0.012321 0.000000 0.000361 0.000000
# 4 0.000000 0.000000 0.000000 0.042272 0.000000 -0.002612
# 5 0.013550 -0.002742 0.000361 0.000000 0.067439 0.000000
# 6 0.000000 0.000000 0.000000 -0.002612 0.000000 0.032248
#
#
# Mechanical properties :
#
#
# Convention : Reuss Voigt Hill
#
# Bulk Modulus (GPa) = 44.14504 57.44194 50.79349
# Shear Modulus (GPa) = 24.06039 29.12395 26.59217
#
# Velocity S-wave (km/s) = 3.61090 3.97273 3.79613
# Velocity P-wave (km/s) = 6.42709 7.22301 6.83665
#
# Compressibility (1/GPa) = 0.02265260
#
# Stress axis : x y z
#
# Youngs Moduli (GPa) = 49.53559 125.51270 81.15981
#
# Poissons Ratio (x) = 0.47944 0.17950
# Poissons Ratio (y) = 0.18922 0.23376
# Poissons Ratio (z) = 0.10956 0.36151
#
# Static dielectric constant tensor:
#      x y z
#    x 1.676270 0.000000 -0.007070 
#    y 0.000000 1.713450 0.000000 
#    z -0.007070 0.000000 1.638300 
# 
# From -- ./inp_files/233848.got.cif
#   From: 2010.05.17/outbox.cif.g08.bks.cpg/sg15_117_cif.got.tgz:233848.got - 2010.06.03 18:47:42.
