data_PCOD9262457
_publ_section_title
;
Structure prediction by ZEFSAII (Michael W. Deem and Ramdas Pophale) SiO2 
 PCOD9262457
Probable space group: C 2/C
;
_chemical_formula_sum "Si O2"
_cell_formula_units_Z 48
_cell_length_a 5.297719
_cell_length_b 26.872381
_cell_length_c 18.201911
_cell_angle_alpha 90.000000
_cell_angle_beta 51.691138
_cell_angle_gamma 90.000000
_cell_volume 2033.316166
_symmetry_space_group_name_H-M "C 2/C"
_symmetry_group_IT_number 15
_symmetry_cell_setting 'monoclinic'
loop_
_space_group_symop_operation_xyz
x,y,z
-x,y,1/2-z
-x,-y,-z
x,-y,1/2+z
1/2+x,1/2+y,z
1/2-x,1/2+y,1/2-z
1/2-x,1/2-y,-z
1/2+x,1/2-y,1/2+z
loop_
_atom_site_type_symbol
_atom_site_label
_atom_site_fract_x
_atom_site_fract_y
_atom_site_fract_z
Si Si1 0.198044 0.918894 0.360267
Si Si2 0.750550 0.247301 0.135805
Si Si3 0.756902 0.915645 0.854239
Si Si4 0.262486 0.367909 0.635083
Si Si5 0.749591 0.804298 0.135840
Si Si6 0.903220 0.476259 0.094927
O O1 0.500000 0.921629 0.250000
O O2 0.162102 0.861688 0.390191
O O3 0.314116 0.952112 0.408177
O O4 0.886752 0.938823 0.372576
O O5 0.500000 0.248082 0.250000
O O6 0.839535 0.189723 0.110022
O O7 0.553323 0.271468 0.104985
O O8 0.054107 0.280068 0.104598
O O9 0.417321 0.890065 0.902770
O O10 0.000000 0.893571 0.750000
O O11 0.931532 0.900949 0.897687
O O12 0.716102 0.973512 0.844166
O O13 0.000000 0.371512 0.750000
O O14 0.500000 0.803130 0.250000
O O15 0.000000 0.500000 0.000000
#
# Coordination Sequence:
#
# PCOD9262457 Si02
#       6
#     8   8   8   8   8   8
#     4  11  22  39  61  86 114 150 192 236 283 339
#     4   9  15  26  44  75 112 138 166 219 279 327
#     4  10  19  33  52  77 106 142 184 227 274 331
#     4   9  17  28  48  77 109 140 175 221 276 327
#     4   9  17  28  48  77 109 140 175 221 276 326
#     4  12  25  40  58  84 115 152 193 240 292 340
#
# _framework density 23.606757000000002
#
# number of rings (size 3 to 8) (size 9 to 14) (size 15 to 20)
#    0.000    2.000    0.000    5.000    0.000    8.000 
#    0.000    0.000    0.000    0.000    0.000   23.333 
#    0.000    0.000    0.000    0.000    0.000    0.000 
#
# Total GULP energy -134254.943821 kJ/mol
# GULP energy per Si atom -5593.955993 kJ/mol
# Density = 2.355303 g / cm^3
# Si number density = 23.606757 Si / 1000 Ang^3
#
#
#
# Elastic Constant Matrix: (Units=GPa)
#
#
# Indices 1 2 3 4 5 6 
#
# 1 157.1221 56.0883 -15.6354 0.0000 -13.6858 0.0000
# 2 56.0883 135.0069 -17.8387 0.0000 -11.2279 0.0000
# 3 -15.6354 -17.8387 54.8206 0.0000 7.3582 0.0000
# 4 0.0000 0.0000 0.0000 -34.5315 0.0000 34.3864
# 5 -13.6858 -11.2279 7.3582 0.0000 8.3270 0.0000
# 6 0.0000 0.0000 0.0000 34.3864 0.0000 29.6340
#
#
#
# Elastic Compliance Matrix: (Units=1/GPa)
#
#
# Indices 1 2 3 4 5 6 
#
# 1 0.008144 -0.002545 0.000180 0.000000 0.009794 0.000000
# 2 -0.002545 0.009229 0.001326 0.000000 0.007090 0.000000
# 3 0.000180 0.001326 0.020926 0.000000 -0.016408 0.000000
# 4 0.000000 0.000000 0.000000 -0.013435 0.000000 0.015590
# 5 0.009794 0.007090 -0.016408 0.000000 0.160247 0.000000
# 6 0.000000 0.000000 0.000000 0.015590 0.000000 0.015655
#
#
# Mechanical properties :
#
#
# Convention : Reuss Voigt Hill
#
# Bulk Modulus (GPa) = 27.60855 43.57536 35.59195
# Shear Modulus (GPa) = 23.26456 22.30826 22.78641
#
# Velocity S-wave (km/s) = 3.14268 3.07741 3.11022
# Velocity P-wave (km/s) = 4.98890 5.57909 5.29223
#
# Compressibility (1/GPa) = 0.03622067
#
# Stress axis : x y z
#
# Youngs Moduli (GPa) = 122.78936 108.35205 47.78658
#
# Poissons Ratio (x) = 0.27577 -0.00860
# Poissons Ratio (y) = 0.31251 -0.06335
# Poissons Ratio (z) = -0.02210 -0.14364
#
# Static dielectric constant tensor:
#      x y z
#    x 1.835240 0.000000 -0.063960 
#    y 0.000000 1.859890 0.000000 
#    z -0.063960 0.000000 1.640260 
# 
# From -- ./inp_files/228017.got.cif
#   From: 2010.05.17/outbox.cif.g08.bks.cpg/sg15_115_cif.got.tgz:228017.got - 2010.06.03 18:47:42.
