data_PCOD9262144
_publ_section_title
;
Structure prediction by ZEFSAII (Michael W. Deem and Ramdas Pophale) SiO2 
 PCOD9262144
Probable space group: C 2/C
;
_chemical_formula_sum "Si O2"
_cell_formula_units_Z 52
_cell_length_a 13.939266
_cell_length_b 19.571395
_cell_length_c 9.176247
_cell_angle_alpha 90.000000
_cell_angle_beta 69.286674
_cell_angle_gamma 90.000000
_cell_volume 2341.566032
_symmetry_space_group_name_H-M "C 2/C"
_symmetry_group_IT_number 15
_symmetry_cell_setting 'monoclinic'
loop_
_space_group_symop_operation_xyz
x,y,z
-x,y,1/2-z
-x,-y,-z
x,-y,1/2+z
1/2+x,1/2+y,z
1/2-x,1/2+y,1/2-z
1/2-x,1/2-y,-z
1/2+x,1/2-y,1/2+z
loop_
_atom_site_type_symbol
_atom_site_label
_atom_site_fract_x
_atom_site_fract_y
_atom_site_fract_z
Si Si1 0.156791 0.324939 0.699355
Si Si2 0.395861 0.513388 0.143723
Si Si3 0.316069 0.024645 0.400517
Si Si4 0.898167 0.836961 0.590891
Si Si5 0.515684 0.203047 0.997595
Si Si6 0.000000 0.901985 0.250000
Si Si7 0.925094 0.446235 0.119381
O O1 0.142796 0.407096 0.702447
O O2 0.278947 0.316921 0.630977
O O3 0.096533 0.297299 0.590645
O O4 0.097277 0.295844 0.870778
O O5 0.296954 0.508354 0.094676
O O6 0.407700 0.452833 0.252750
O O7 0.500000 0.500000 0.000000
O O8 0.398186 0.593554 0.187450
O O9 0.327027 0.042404 0.563697
O O10 0.388755 0.965516 0.299756
O O11 0.957243 0.769597 0.609321
O O12 0.955500 0.858499 0.408664
O O13 0.535371 0.130435 0.913039
O O14 0.000000 0.500000 0.000000
#
# Coordination Sequence:
#
# PCOD9262144 Si02
#       7
#     8   8   8   8   8   4   8
#     4   9  18  33  50  80 112 144 187 245 296 336
#     4   9  21  36  55  83 113 149 196 243 293 355
#     4  10  21  35  59  85 119 153 199 245 297 348
#     4  10  20  35  53  83 114 145 195 245 302 346
#     4  10  19  32  54  81 115 149 188 248 293 341
#     4  10  20  36  62  82 110 154 194 248 302 352
#     4  11  21  37  59  89 119 158 198 244 294 360
#
# _framework density 22.207360000000001
#
# number of rings (size 3 to 8) (size 9 to 14) (size 15 to 20)
#    0.000    2.154    1.538    1.846    8.615    0.000 
#    2.769    0.000    3.385    0.000    0.000    8.615 
#    0.000    0.000    0.000    0.000    0.000    0.000 
#
# Total GULP energy -145081.261052 kJ/mol
# GULP energy per Si atom -5580.048502 kJ/mol
# Density = 2.215682 g / cm^3
# Si number density = 22.207360 Si / 1000 Ang^3
#
#
#
# Elastic Constant Matrix: (Units=GPa)
#
#
# Indices 1 2 3 4 5 6 
#
# 1 99.0899 29.8212 24.0654 0.0000 -18.9022 0.0000
# 2 29.8212 136.2698 30.0700 0.0000 -12.0996 0.0000
# 3 24.0654 30.0700 70.4255 0.0000 -12.4498 0.0000
# 4 0.0000 0.0000 0.0000 18.3725 0.0000 -8.0040
# 5 -18.9022 -12.0996 -12.4498 0.0000 35.5073 0.0000
# 6 0.0000 0.0000 0.0000 -8.0040 0.0000 22.3518
#
#
#
# Elastic Compliance Matrix: (Units=1/GPa)
#
#
# Indices 1 2 3 4 5 6 
#
# 1 0.012169 -0.001651 -0.002567 0.000000 0.005015 0.000000
# 2 -0.001651 0.008418 -0.002855 0.000000 0.000988 0.000000
# 3 -0.002567 -0.002855 0.016931 0.000000 0.003597 0.000000
# 4 0.000000 0.000000 0.000000 0.064490 0.000000 0.023093
# 5 0.005015 0.000988 0.003597 0.000000 0.032431 0.000000
# 6 0.000000 0.000000 0.000000 0.023093 0.000000 0.053009
#
#
# Mechanical properties :
#
#
# Convention : Reuss Voigt Hill
#
# Bulk Modulus (GPa) = 42.78658 52.63315 47.70986
# Shear Modulus (GPa) = 23.87954 30.03490 26.95722
#
# Velocity S-wave (km/s) = 3.28273 3.68159 3.48787
# Velocity P-wave (km/s) = 5.80320 6.46718 6.14416
#
# Compressibility (1/GPa) = 0.02337181
#
# Stress axis : x y z
#
# Youngs Moduli (GPa) = 82.17679 118.79972 59.06178
#
# Poissons Ratio (x) = 0.19618 0.15159
# Poissons Ratio (y) = 0.13570 0.16863
# Poissons Ratio (z) = 0.21091 0.33918
#
# Static dielectric constant tensor:
#      x y z
#    x 1.888090 0.000000 0.060060 
#    y 0.000000 1.845860 0.000000 
#    z 0.060060 0.000000 1.883730 
# 
# From -- ./inp_files/99331.got.cif
#   From: 2010.05.17/outbox.cif.g08.bks.cpg/sg15_50_cif.got.tgz:99331.got - 2010.06.03 18:47:42.
