data_PCOD9262361
_publ_section_title
;
Structure prediction by ZEFSAII (Michael W. Deem and Ramdas Pophale) SiO2 
 PCOD9262361
Probable space group: C 2/C
;
_chemical_formula_sum "Si O2"
_cell_formula_units_Z 48
_cell_length_a 14.755774
_cell_length_b 18.298063
_cell_length_c 21.816587
_cell_angle_alpha 90.000000
_cell_angle_beta 156.439018
_cell_angle_gamma 90.000000
_cell_volume 2354.589105
_symmetry_space_group_name_H-M "C 2/C"
_symmetry_group_IT_number 15
_symmetry_cell_setting 'monoclinic'
loop_
_space_group_symop_operation_xyz
x,y,z
-x,y,1/2-z
-x,-y,-z
x,-y,1/2+z
1/2+x,1/2+y,z
1/2-x,1/2+y,1/2-z
1/2-x,1/2-y,-z
1/2+x,1/2-y,1/2+z
loop_
_atom_site_type_symbol
_atom_site_label
_atom_site_fract_x
_atom_site_fract_y
_atom_site_fract_z
Si Si1 0.810147 0.358185 0.679404
Si Si2 0.599819 0.239748 0.640155
Si Si3 0.858822 0.609440 0.015911
Si Si4 0.017576 0.118098 0.628528
Si Si5 0.225254 0.666820 0.147216
Si Si6 0.768673 0.997347 0.656822
O O1 0.691740 0.295399 0.645270
O O2 0.624485 0.395463 0.521109
O O3 0.000000 0.328486 0.750000
O O4 0.948281 0.407617 0.813843
O O5 0.609197 0.284186 0.709221
O O6 0.367341 0.206244 0.470684
O O7 0.783328 0.175135 0.759326
O O8 0.996419 0.652535 0.048208
O O9 0.660145 0.649594 0.930628
O O10 0.729632 0.540267 0.906665
O O11 0.121016 0.045093 0.721342
O O12 0.327902 0.587485 0.196927
O O13 0.500000 0.000000 0.500000
#
# Coordination Sequence:
#
# PCOD9262361 Si02
#       6
#     8   8   8   8   8   8
#     4   9  20  29  44  74 105 128 159 204 249 301
#     4  11  19  30  48  70 104 137 165 196 249 294
#     4   9  19  32  49  73 101 129 170 203 243 296
#     4  11  19  31  51  74  99 135 167 206 250 292
#     4  10  21  33  47  73 106 134 169 199 247 300
#     4  10  19  33  48  69 102 135 173 202 237 300
#
# _framework density 20.385722000000001
#
# number of rings (size 3 to 8) (size 9 to 14) (size 15 to 20)
#    0.000    2.000    5.000    0.500    2.333    2.000 
#    0.000    9.167    0.000    0.000    0.000    4.667 
#    0.000    0.000    0.000    0.000    0.000    0.000 
#
# Total GULP energy -133785.316849 kJ/mol
# GULP energy per Si atom -5574.388202 kJ/mol
# Density = 2.033932 g / cm^3
# Si number density = 20.385722 Si / 1000 Ang^3
#
#
#
# Elastic Constant Matrix: (Units=GPa)
#
#
# Indices 1 2 3 4 5 6 
#
# 1 28.8536 12.7004 20.6523 0.0024 -11.3415 0.0117
# 2 12.7004 117.3811 73.8570 -0.0502 -35.2242 -0.0073
# 3 20.6523 73.8570 149.8635 -0.1358 -50.7840 0.0218
# 4 0.0024 -0.0502 -0.1358 9.5042 -0.0036 -3.8294
# 5 -11.3415 -35.2242 -50.7840 -0.0036 29.8087 0.0256
# 6 0.0117 -0.0073 0.0218 -3.8294 0.0256 13.3073
#
#
#
# Elastic Compliance Matrix: (Units=1/GPa)
#
#
# Indices 1 2 3 4 5 6 
#
# 1 0.040822 0.000557 -0.000979 -0.000046 0.014522 -0.000075
# 2 0.000557 0.013757 -0.003019 0.000034 0.011325 0.000000
# 3 -0.000979 -0.003019 0.016468 0.000225 0.024115 -0.000009
# 4 -0.000046 0.000034 0.000225 0.119019 0.000390 0.034249
# 5 0.014522 0.011325 0.024115 0.000390 0.093540 -0.000114
# 6 -0.000075 0.000000 -0.000009 0.034249 -0.000114 0.085003
#
#
# Mechanical properties :
#
#
# Convention : Reuss Voigt Hill
#
# Bulk Modulus (GPa) = 15.58499 56.72419 36.15459
# Shear Modulus (GPa) = 12.59835 23.11661 17.85748
#
# Velocity S-wave (km/s) = 2.48865 3.37109 2.96291
# Velocity P-wave (km/s) = 3.98993 6.56035 5.42944
#
# Compressibility (1/GPa) = 0.06416431
#
# Stress axis : x y z
#
# Youngs Moduli (GPa) = 24.49687 72.69049 60.72535
#
# Poissons Ratio (x) = -0.04049 0.05945
# Poissons Ratio (y) = -0.01364 0.18332
# Poissons Ratio (z) = 0.02398 0.21944
#
# Static dielectric constant tensor:
#      x y z
#    x 1.804200 0.000000 0.013950 
#    y 0.000000 1.728300 0.000000 
#    z 0.013950 0.000000 1.741540 
# 
# From -- ./inp_files/56244.got.cif
#   From: 2010.05.17/outbox.cif.g08.bks.cpg/sg15_29_cif.got.tgz:56244.got - 2010.06.03 18:47:42.
