data_PCOD9262834
_publ_section_title
;
Structure prediction by ZEFSAII (Michael W. Deem and Ramdas Pophale) SiO2 
 PCOD9262834
Probable space group: C 2/C
;
_chemical_formula_sum "Si O2"
_cell_formula_units_Z 56
_cell_length_a 24.791769
_cell_length_b 10.335782
_cell_length_c 13.949742
_cell_angle_alpha 90.000000
_cell_angle_beta 116.914018
_cell_angle_gamma 90.000000
_cell_volume 3187.347210
_symmetry_space_group_name_H-M "C 2/C"
_symmetry_group_IT_number 15
_symmetry_cell_setting 'monoclinic'
loop_
_space_group_symop_operation_xyz
x,y,z
-x,y,1/2-z
-x,-y,-z
x,-y,1/2+z
1/2+x,1/2+y,z
1/2-x,1/2+y,1/2-z
1/2-x,1/2-y,-z
1/2+x,1/2-y,1/2+z
loop_
_atom_site_type_symbol
_atom_site_label
_atom_site_fract_x
_atom_site_fract_y
_atom_site_fract_z
Si Si1 0.826044 0.140648 0.508949
Si Si2 0.451711 0.551788 0.574641
Si Si3 0.690977 0.807585 0.508033
Si Si4 0.567856 0.294851 0.827198
Si Si5 0.728970 0.907212 0.094564
Si Si6 0.804975 0.913170 0.336750
Si Si7 0.421887 0.490438 0.834906
O O1 0.897487 0.124749 0.582887
O O2 0.786996 0.116948 0.572402
O O3 0.811928 0.281568 0.455993
O O4 0.807285 0.029408 0.416657
O O5 0.442244 0.400984 0.596436
O O6 0.521433 0.576846 0.653529
O O7 0.441964 0.569917 0.453414
O O8 0.750000 0.750000 0.500000
O O9 0.626456 0.788245 0.402695
O O10 0.689322 0.720371 0.602177
O O11 0.701152 0.957332 0.538927
O O12 0.500000 0.239770 0.750000
O O13 0.587032 0.379798 0.750437
O O14 0.747942 0.916461 0.220730
O O15 0.862109 0.933808 0.313441
#
# Coordination Sequence:
#
# PCOD9262834 Si02
#       7
#     8   8   8   8   8   8   8
#     4  10  20  38  54  79 114 146 186 231 285 331
#     4   9  16  32  50  81 104 139 187 227 270 327
#     4  12  21  37  58  87 115 146 195 235 278 338
#     4  10  19  33  56  86 116 147 186 237 282 328
#     4  11  23  35  56  81 117 151 181 236 285 332
#     4  11  20  36  58  84 111 144 190 233 284 330
#     4   9  17  28  55  81 106 138 180 234 271 316
#
# _framework density 17.569469999999999
#
# number of rings (size 3 to 8) (size 9 to 14) (size 15 to 20)
#    0.000    1.714    4.286    2.571    0.000    1.143 
#    0.000    0.000    0.000    6.857    0.000    0.000 
#    0.000    0.000    0.000    0.000    0.000    0.000 
#
# Total GULP energy -156046.000434 kJ/mol
# GULP energy per Si atom -5573.071444 kJ/mol
# Density = 1.752948 g / cm^3
# Si number density = 17.569470 Si / 1000 Ang^3
#
#
#
# Elastic Constant Matrix: (Units=GPa)
#
#
# Indices 1 2 3 4 5 6 
#
# 1 55.0266 11.9727 5.9177 0.0000 23.4815 0.0000
# 2 11.9727 92.9225 29.6386 0.0000 12.7780 0.0000
# 3 5.9177 29.6386 90.0949 0.0000 13.6805 0.0000
# 4 0.0000 0.0000 0.0000 8.5094 0.0000 2.6065
# 5 23.4815 12.7780 13.6805 0.0000 28.5934 0.0000
# 6 0.0000 0.0000 0.0000 2.6065 0.0000 19.8657
#
#
#
# Elastic Compliance Matrix: (Units=1/GPa)
#
#
# Indices 1 2 3 4 5 6 
#
# 1 0.028333 -0.001046 0.002098 0.000000 -0.023804 0.000000
# 2 -0.001046 0.012447 -0.003571 0.000000 -0.002995 0.000000
# 3 0.002098 -0.003571 0.013108 0.000000 -0.006398 0.000000
# 4 0.000000 0.000000 0.000000 0.122438 0.000000 -0.016065
# 5 -0.023804 -0.002995 -0.006398 0.000000 0.058921 0.000000
# 6 0.000000 0.000000 0.000000 -0.016065 0.000000 0.052446
#
#
# Mechanical properties :
#
#
# Convention : Reuss Voigt Hill
#
# Bulk Modulus (GPa) = 20.47160 37.01135 28.74148
# Shear Modulus (GPa) = 16.18043 24.09469 20.13756
#
# Velocity S-wave (km/s) = 3.03799 3.70725 3.38918
# Velocity P-wave (km/s) = 4.89724 6.27984 5.63114
#
# Compressibility (1/GPa) = 0.04884816
#
# Stress axis : x y z
#
# Youngs Moduli (GPa) = 35.29476 80.33807 76.28896
#
# Poissons Ratio (x) = 0.08406 -0.16003
# Poissons Ratio (y) = 0.03693 0.27246
# Poissons Ratio (z) = -0.07404 0.28692
#
# Static dielectric constant tensor:
#      x y z
#    x 1.648880 0.000000 0.009200 
#    y 0.000000 1.556520 0.000000 
#    z 0.009200 0.000000 1.642780 
# 
# From -- ./inp_files/176668.got.cif
#   From: 2010.05.17/outbox.cif.g08.bks.cpg/sg15_89_cif.got.tgz:176668.got - 2010.06.03 18:47:42.
