data_PCOD9262634
_publ_section_title
;
Structure prediction by ZEFSAII (Michael W. Deem and Ramdas Pophale) SiO2 
 PCOD9262634
Probable space group: C 2/C
;
_chemical_formula_sum "Si O2"
_cell_formula_units_Z 48
_cell_length_a 12.961580
_cell_length_b 23.112786
_cell_length_c 10.881847
_cell_angle_alpha 90.000000
_cell_angle_beta 40.781229
_cell_angle_gamma 90.000000
_cell_volume 2129.319315
_symmetry_space_group_name_H-M "C 2/C"
_symmetry_group_IT_number 15
_symmetry_cell_setting 'monoclinic'
loop_
_space_group_symop_operation_xyz
x,y,z
-x,y,1/2-z
-x,-y,-z
x,-y,1/2+z
1/2+x,1/2+y,z
1/2-x,1/2+y,1/2-z
1/2-x,1/2-y,-z
1/2+x,1/2-y,1/2+z
loop_
_atom_site_type_symbol
_atom_site_label
_atom_site_fract_x
_atom_site_fract_y
_atom_site_fract_z
Si Si1 0.047682 0.637451 0.421497
Si Si2 0.181936 0.685718 0.542155
Si Si3 0.325885 0.764349 0.060781
Si Si4 0.402853 0.982931 0.712214
Si Si5 0.227470 0.092795 0.846568
Si Si6 0.970567 0.163140 0.629468
O O1 0.160845 0.661711 0.424281
O O2 0.124634 0.586009 0.273760
O O3 0.972573 0.691611 0.417930
O O4 0.890792 0.610098 0.628048
O O5 0.250000 0.750000 0.500000
O O6 0.273129 0.636676 0.537881
O O7 0.000000 0.688752 0.750000
O O8 0.186713 0.797861 0.253932
O O9 0.250000 0.750000 0.000000
O O10 0.392708 0.703641 0.046739
O O11 0.500000 0.993689 0.750000
O O12 0.500000 0.000000 0.500000
O O13 0.254027 0.025730 0.853564
O O14 0.076724 0.105121 0.897066
O O15 0.000000 0.156036 0.750000
#
# Coordination Sequence:
#
# PCOD9262634 Si02
#       6
#     8   8   8   8   8   8
#     4   9  18  31  49  78 108 144 190 237 292 355
#     4  10  19  33  55  84 116 150 191 247 311 374
#     4   9  17  29  46  73 105 135 173 228 289 356
#     4  10  19  33  54  81 114 154 203 258 304 356
#     4   9  17  31  50  74 106 144 187 238 295 349
#     4   9  17  29  47  72 102 137 175 224 288 354
#
# _framework density 22.542417
#
# number of rings (size 3 to 8) (size 9 to 14) (size 15 to 20)
#    0.000    2.667    0.000    3.500    0.000    2.000 
#    0.000    0.000    0.000    1.000    0.000   31.500 
#    0.000    0.000    0.000    0.000    0.000    0.000 
#
# Total GULP energy -133873.732482 kJ/mol
# GULP energy per Si atom -5578.072187 kJ/mol
# Density = 2.249111 g / cm^3
# Si number density = 22.542417 Si / 1000 Ang^3
#
#
#
# Elastic Constant Matrix: (Units=GPa)
#
#
# Indices 1 2 3 4 5 6 
#
# 1 151.4584 79.8650 26.2388 0.0000 5.9312 0.0000
# 2 79.8650 150.2135 17.2140 0.0000 0.5725 0.0000
# 3 26.2388 17.2140 39.4056 0.0000 6.9828 0.0000
# 4 0.0000 0.0000 0.0000 27.3921 0.0000 -0.6796
# 5 5.9312 0.5725 6.9828 0.0000 16.2822 0.0000
# 6 0.0000 0.0000 0.0000 -0.6796 0.0000 32.6278
#
#
#
# Elastic Compliance Matrix: (Units=1/GPa)
#
#
# Indices 1 2 3 4 5 6 
#
# 1 0.009922 -0.004784 -0.004227 0.000000 -0.001633 0.000000
# 2 -0.004784 0.009335 -0.001237 0.000000 0.001945 0.000000
# 3 -0.004227 -0.001237 0.030791 0.000000 -0.011622 0.000000
# 4 0.000000 0.000000 0.000000 0.036526 0.000000 0.000761
# 5 -0.001633 0.001945 -0.011622 0.000000 0.066928 0.000000
# 6 0.000000 0.000000 0.000000 0.000761 0.000000 0.030665
#
#
# Mechanical properties :
#
#
# Convention : Reuss Voigt Hill
#
# Bulk Modulus (GPa) = 33.83908 65.30146 49.57027
# Shear Modulus (GPa) = 23.30855 29.77772 26.54313
#
# Velocity S-wave (km/s) = 3.21905 3.63845 3.43516
# Velocity P-wave (km/s) = 5.37218 6.83244 6.14583
#
# Compressibility (1/GPa) = 0.02955163
#
# Stress axis : x y z
#
# Youngs Moduli (GPa) = 100.79031 107.12009 32.47654
#
# Poissons Ratio (x) = 0.51251 0.13728
# Poissons Ratio (y) = 0.48223 0.04017
# Poissons Ratio (z) = 0.42604 0.13250
#
# Static dielectric constant tensor:
#      x y z
#    x 1.797170 0.000000 -0.013230 
#    y 0.000000 1.913570 0.000000 
#    z -0.013230 0.000000 1.895830 
# 
# From -- ./inp_files/90650.got.cif
#   From: 2010.05.17/outbox.cif.g08.bks.cpg/sg15_46_cif.got.tgz:90650.got - 2010.06.03 18:47:42.
