data_PCOD9262485
_publ_section_title
;
Structure prediction by ZEFSAII (Michael W. Deem and Ramdas Pophale) SiO2 
 PCOD9262485
Probable space group: C 2/C
;
_chemical_formula_sum "Si O2"
_cell_formula_units_Z 56
_cell_length_a 5.143454
_cell_length_b 26.461708
_cell_length_c 20.535980
_cell_angle_alpha 90.000000
_cell_angle_beta 111.073761
_cell_angle_gamma 90.000000
_cell_volume 2608.103803
_symmetry_space_group_name_H-M "C 2/C"
_symmetry_group_IT_number 15
_symmetry_cell_setting 'monoclinic'
loop_
_space_group_symop_operation_xyz
x,y,z
-x,y,1/2-z
-x,-y,-z
x,-y,1/2+z
1/2+x,1/2+y,z
1/2-x,1/2+y,1/2-z
1/2-x,1/2-y,-z
1/2+x,1/2-y,1/2+z
loop_
_atom_site_type_symbol
_atom_site_label
_atom_site_fract_x
_atom_site_fract_y
_atom_site_fract_z
Si Si1 0.194747 0.858565 0.044847
Si Si2 0.252018 0.248789 0.578909
Si Si3 0.692437 0.299849 0.703414
Si Si4 0.327168 0.948339 0.906754
Si Si5 0.271931 0.969050 0.048428
Si Si6 0.808514 0.082114 0.296794
Si Si7 0.932699 0.653458 0.049456
O O1 0.200906 0.809618 0.091756
O O2 0.210451 0.914974 0.075734
O O3 0.434245 0.850763 0.011522
O O4 0.895177 0.854904 0.982590
O O5 0.250000 0.250000 0.500000
O O6 0.539709 0.267945 0.634561
O O7 0.028266 0.291126 0.580922
O O8 0.500000 0.297243 0.750000
O O9 0.708752 0.358941 0.684974
O O10 0.000000 0.282680 0.750000
O O11 0.998137 0.948857 0.864597
O O12 0.506005 0.994892 0.896111
O O13 0.393534 0.951847 0.989287
O O14 0.432256 0.892427 0.897248
O O15 0.000000 0.000000 0.000000
O O16 0.500000 0.064610 0.250000
O O17 0.000000 0.079354 0.250000
#
# Coordination Sequence:
#
# PCOD9262485 Si02
#       7
#     8   8   8   8   8   8   8
#     4  10  21  33  52  83 116 150 192 232 292 352
#     4  10  21  38  60  91 121 156 197 251 300 359
#     4  10  22  39  59  86 124 160 194 237 307 375
#     4  10  20  35  56  83 118 151 192 241 297 358
#     4  10  20  34  56  84 116 156 186 245 304 346
#     4  10  22  37  57  87 117 156 193 236 297 365
#     4  10  19  33  52  83 118 147 179 241 298 343
#
# _framework density 21.471540000000001
#
# number of rings (size 3 to 8) (size 9 to 14) (size 15 to 20)
#    0.000    2.000    2.857    0.429    2.000    4.571 
#    0.000    0.000    0.000    0.857    0.000    0.000 
#    0.000    0.000    0.000    0.000    0.000    0.000 
#
# Total GULP energy -156313.566435 kJ/mol
# GULP energy per Si atom -5582.627373 kJ/mol
# Density = 2.142267 g / cm^3
# Si number density = 21.471540 Si / 1000 Ang^3
#
#
#
# Elastic Constant Matrix: (Units=GPa)
#
#
# Indices 1 2 3 4 5 6 
#
# 1 81.1846 22.7112 36.5779 0.0000 19.2697 0.0000
# 2 22.7112 178.9906 38.4518 0.0000 21.2343 0.0000
# 3 36.5779 38.4518 107.1792 0.0000 34.3501 0.0000
# 4 0.0000 0.0000 0.0000 29.5317 0.0000 17.0452
# 5 19.2697 21.2343 34.3501 0.0000 37.6689 0.0000
# 6 0.0000 0.0000 0.0000 17.0452 0.0000 17.9392
#
#
#
# Elastic Compliance Matrix: (Units=1/GPa)
#
#
# Indices 1 2 3 4 5 6 
#
# 1 0.015093 -0.000657 -0.003616 0.000000 -0.004053 0.000000
# 2 -0.000657 0.006193 -0.001394 0.000000 -0.001884 0.000000
# 3 -0.003616 -0.001394 0.014440 0.000000 -0.010532 0.000000
# 4 0.000000 0.000000 0.000000 0.074985 0.000000 -0.071248
# 5 -0.004053 -0.001884 -0.010532 0.000000 0.039286 0.000000
# 6 0.000000 0.000000 0.000000 -0.071248 0.000000 0.123442
#
#
# Mechanical properties :
#
#
# Convention : Reuss Voigt Hill
#
# Bulk Modulus (GPa) = 40.99863 62.53736 51.76800
# Shear Modulus (GPa) = 17.07047 35.00221 26.03634
#
# Velocity S-wave (km/s) = 2.82268 4.04191 3.48602
# Velocity P-wave (km/s) = 5.45520 7.13945 6.35338
#
# Compressibility (1/GPa) = 0.02439106
#
# Stress axis : x y z
#
# Youngs Moduli (GPa) = 66.25724 161.46714 69.25347
#
# Poissons Ratio (x) = 0.10615 0.25043
# Poissons Ratio (y) = 0.04356 0.09652
# Poissons Ratio (z) = 0.23959 0.22504
#
# Static dielectric constant tensor:
#      x y z
#    x 1.888940 0.000000 -0.044560 
#    y 0.000000 1.894720 0.000000 
#    z -0.044560 0.000000 1.802130 
# 
# From -- ./inp_files/262017.got.cif
#   From: 2010.05.17/outbox.cif.g08.bks.cpg/sg15_132_cif.got.tgz:262017.got - 2010.06.03 18:47:42.
