data_PCOD9262352
_publ_section_title
;
Structure prediction by ZEFSAII (Michael W. Deem and Ramdas Pophale) SiO2 
 PCOD9262352
Probable space group: C 2/C
;
_chemical_formula_sum "Si O2"
_cell_formula_units_Z 64
_cell_length_a 28.292606
_cell_length_b 25.715848
_cell_length_c 5.512184
_cell_angle_alpha 90.000000
_cell_angle_beta 106.365342
_cell_angle_gamma 90.000000
_cell_volume 3848.003960
_symmetry_space_group_name_H-M "C 2/C"
_symmetry_group_IT_number 15
_symmetry_cell_setting 'monoclinic'
loop_
_space_group_symop_operation_xyz
x,y,z
-x,y,1/2-z
-x,-y,-z
x,-y,1/2+z
1/2+x,1/2+y,z
1/2-x,1/2+y,1/2-z
1/2-x,1/2-y,-z
1/2+x,1/2-y,1/2+z
loop_
_atom_site_type_symbol
_atom_site_label
_atom_site_fract_x
_atom_site_fract_y
_atom_site_fract_z
Si Si1 0.381131 0.375517 0.226195
Si Si2 0.026900 0.790105 0.541780
Si Si3 0.510824 0.594561 0.512511
Si Si4 0.138646 0.215541 0.125773
Si Si5 0.231051 0.723294 0.721870
Si Si6 0.772989 0.979122 0.498147
Si Si7 0.702978 0.633078 0.532609
Si Si8 0.884525 0.018834 0.554559
O O1 0.434338 0.381997 0.419136
O O2 0.336190 0.389554 0.333462
O O3 0.381710 0.419115 0.016319
O O4 0.371725 0.316816 0.133942
O O5 0.084040 0.774566 0.643120
O O6 0.000000 0.773610 0.750000
O O7 0.023599 0.853409 0.529205
O O8 0.000000 0.773504 0.250000
O O9 0.500000 0.567076 0.750000
O O10 0.500000 0.565675 0.250000
O O11 0.172645 0.265776 0.140478
O O12 0.171154 0.173822 0.326801
O O13 0.250000 0.750000 0.500000
O O14 0.254184 0.666038 0.773702
O O15 0.250000 0.750000 0.000000
O O16 0.774800 0.917768 0.561749
O O17 0.750937 0.009060 0.698990
O O18 0.829391 0.998240 0.531619
O O19 0.907920 0.992827 0.352443
#
# Coordination Sequence:
#
# PCOD9262352 Si02
#       8
#     8   8   8   8   8   8   8   8
#     4  12  20  30  56  65  89 124 151 206 243 269
#     4  10  19  33  47  69  89 115 160 200 230 282
#     4  10  20  32  43  68  83 106 153 192 230 281
#     4  11  21  33  51  72  97 126 155 198 242 282
#     4  10  22  34  47  73 103 125 158 184 236 304
#     4  10  19  33  47  70  89 114 161 200 227 281
#     4  11  21  32  52  71  97 126 155 196 243 282
#     4  10  20  32  44  69  84 109 156 196 235 287
#
# _framework density 16.631999
#
# number of rings (size 3 to 8) (size 9 to 14) (size 15 to 20)
#    0.000    1.500    6.250    3.000    0.000    0.000 
#    0.000    0.000    0.000    2.250    0.000    0.000 
#    0.000    0.000    0.000    0.000    0.000    3.750 
#
# Total GULP energy -178360.018802 kJ/mol
# GULP energy per Si atom -5573.750588 kJ/mol
# Density = 1.659414 g / cm^3
# Si number density = 16.631999 Si / 1000 Ang^3
#
#
#
# Elastic Constant Matrix: (Units=GPa)
#
#
# Indices 1 2 3 4 5 6 
#
# 1 52.3790 14.0942 10.4404 0.0000 -3.6717 0.0000
# 2 14.0942 31.6342 5.2484 0.0000 7.8767 0.0000
# 3 10.4404 5.2484 93.9152 0.0000 -20.7063 0.0000
# 4 0.0000 0.0000 0.0000 17.7273 0.0000 2.5465
# 5 -3.6717 7.8767 -20.7063 0.0000 22.2961 0.0000
# 6 0.0000 0.0000 0.0000 2.5465 0.0000 13.7227
#
#
#
# Elastic Compliance Matrix: (Units=1/GPa)
#
#
# Indices 1 2 3 4 5 6 
#
# 1 0.022956 -0.012199 -0.000109 0.000000 0.007989 0.000000
# 2 -0.012199 0.043882 -0.006233 0.000000 -0.023301 0.000000
# 3 -0.000109 -0.006233 0.014448 0.000000 0.015602 0.000000
# 4 0.000000 0.000000 0.000000 0.057955 0.000000 -0.010755
# 5 0.007989 -0.023301 0.015602 0.000000 0.068888 0.000000
# 6 0.000000 0.000000 0.000000 -0.010755 0.000000 0.074868
#
#
# Mechanical properties :
#
#
# Convention : Reuss Voigt Hill
#
# Bulk Modulus (GPa) = 22.62234 26.38828 24.50531
# Shear Modulus (GPa) = 14.93365 20.62557 17.77961
#
# Velocity S-wave (km/s) = 2.99973 3.52535 3.27310
# Velocity P-wave (km/s) = 5.06251 5.69835 5.38981
#
# Compressibility (1/GPa) = 0.04420410
#
# Stress axis : x y z
#
# Youngs Moduli (GPa) = 43.56197 22.78828 69.21197
#
# Poissons Ratio (x) = 0.27799 0.00754
# Poissons Ratio (y) = 0.53140 0.43143
# Poissons Ratio (z) = 0.00474 0.14205
#
# Static dielectric constant tensor:
#      x y z
#    x 1.568800 0.000000 -0.009420 
#    y 0.000000 1.705220 0.000000 
#    z -0.009420 0.000000 1.751660 
# 
# From -- ./inp_files/16367.got.cif
#   From: 2010.05.17/outbox.cif.g08.bks.cpg/sg15_9_cif.got.tgz:16367.got - 2010.06.03 18:47:42.
