data_PCOD9262050
_publ_section_title
;
Structure prediction by ZEFSAII (Michael W. Deem and Ramdas Pophale) SiO2 
 PCOD9262050
Probable space group: C 2/C
;
_chemical_formula_sum "Si O2"
_cell_formula_units_Z 60
_cell_length_a 16.890762
_cell_length_b 12.340433
_cell_length_c 15.845077
_cell_angle_alpha 90.000000
_cell_angle_beta 64.756594
_cell_angle_gamma 90.000000
_cell_volume 2987.339616
_symmetry_space_group_name_H-M "C 2/C"
_symmetry_group_IT_number 15
_symmetry_cell_setting 'monoclinic'
loop_
_space_group_symop_operation_xyz
x,y,z
-x,y,1/2-z
-x,-y,-z
x,-y,1/2+z
1/2+x,1/2+y,z
1/2-x,1/2+y,1/2-z
1/2-x,1/2-y,-z
1/2+x,1/2-y,1/2+z
loop_
_atom_site_type_symbol
_atom_site_label
_atom_site_fract_x
_atom_site_fract_y
_atom_site_fract_z
Si Si1 0.710671 0.407900 0.569577
Si Si2 0.010251 0.893551 0.599599
Si Si3 0.764541 0.594444 0.861090
Si Si4 0.768620 0.155020 0.111963
Si Si5 0.500000 0.334915 0.250000
Si Si6 0.674041 0.366747 0.093950
Si Si7 0.933266 0.135195 0.607841
Si Si8 0.355055 0.277312 0.745889
O O1 0.609864 0.409382 0.583329
O O2 0.762977 0.374339 0.461706
O O3 0.737710 0.531655 0.579329
O O4 0.703852 0.338152 0.656674
O O5 0.021049 0.839236 0.502263
O O6 0.952237 0.823004 0.689481
O O7 0.962183 0.010013 0.612628
O O8 0.769042 0.464413 0.855320
O O9 0.671666 0.631238 0.860552
O O10 0.842942 0.653407 0.777755
O O11 0.702748 0.248834 0.111936
O O12 0.813615 0.198024 0.174485
O O13 0.834433 0.139867 0.003030
O O14 0.586835 0.396103 0.183077
O O15 0.533176 0.292592 0.327737
#
# Coordination Sequence:
#
# PCOD9262050 Si02
#       8
#     8   8   8   8   4   8   8   8
#     4  10  21  36  57  83 112 144 185 237 285 329
#     4  10  19  33  53  82 110 141 180 237 282 320
#     4  10  22  38  52  81 119 150 183 224 285 342
#     4  10  22  37  54  81 118 149 181 230 276 345
#     4  12  18  28  56  84 106 140 180 234 274 320
#     4  10  21  36  56  84 113 144 184 232 288 324
#     4  10  19  32  52  81 113 139 178 236 282 318
#     4  12  21  32  56  84 112 147 185 228 284 339
#
# _framework density 20.084761
#
# number of rings (size 3 to 8) (size 9 to 14) (size 15 to 20)
#    0.000    1.600    2.667    3.200    1.867    0.000 
#    0.000    0.000    2.933    0.000    0.000    3.733 
#    0.000    0.000    0.000    0.000    0.000    0.000 
#
# Total GULP energy -167106.577046 kJ/mol
# GULP energy per Si atom -5570.219235 kJ/mol
# Density = 2.003905 g / cm^3
# Si number density = 20.084761 Si / 1000 Ang^3
#
#
#
# Elastic Constant Matrix: (Units=GPa)
#
#
# Indices 1 2 3 4 5 6 
#
# 1 27.1726 14.1236 21.5913 0.0000 7.8806 0.0000
# 2 14.1236 81.8936 43.9091 0.0000 1.2983 0.0000
# 3 21.5913 43.9091 126.5960 0.0000 7.2721 0.0000
# 4 0.0000 0.0000 0.0000 29.2046 0.0000 -1.3479
# 5 7.8806 1.2983 7.2721 0.0000 34.0164 0.0000
# 6 0.0000 0.0000 0.0000 -1.3479 0.0000 9.7576
#
#
#
# Elastic Compliance Matrix: (Units=1/GPa)
#
#
# Indices 1 2 3 4 5 6 
#
# 1 0.046581 -0.004808 -0.005738 0.000000 -0.009381 0.000000
# 2 -0.004808 0.015507 -0.004645 0.000000 0.001515 0.000000
# 3 -0.005738 -0.004645 0.010532 0.000000 -0.000745 0.000000
# 4 0.000000 0.000000 0.000000 0.034461 0.000000 0.004760
# 5 -0.009381 0.001515 -0.000745 0.000000 0.031672 0.000000
# 6 0.000000 0.000000 0.000000 0.004760 0.000000 0.103142
#
#
# Mechanical properties :
#
#
# Convention : Reuss Voigt Hill
#
# Bulk Modulus (GPa) = 23.67619 43.87889 33.77754
# Shear Modulus (GPa) = 17.46071 24.99827 21.22949
#
# Velocity S-wave (km/s) = 2.95167 3.53177 3.25467
# Velocity P-wave (km/s) = 4.84048 6.20689 5.56578
#
# Compressibility (1/GPa) = 0.04223653
#
# Stress axis : x y z
#
# Youngs Moduli (GPa) = 21.46798 64.48717 94.95048
#
# Poissons Ratio (x) = 0.31007 0.54482
# Poissons Ratio (y) = 0.10322 0.44109
# Poissons Ratio (z) = 0.12318 0.29957
#
# Static dielectric constant tensor:
#      x y z
#    x 1.752660 0.000000 0.027420 
#    y 0.000000 1.749100 0.000000 
#    z 0.027420 0.000000 1.751070 
# 
# From -- ./inp_files/161321.got.cif
#   From: 2010.05.17/outbox.cif.g08.bks.cpg/sg15_81_cif.got.tgz:161321.got - 2010.06.03 18:47:42.
