data_PCOD9262181
_publ_section_title
;
Structure prediction by ZEFSAII (Michael W. Deem and Ramdas Pophale) SiO2 
 PCOD9262181
Probable space group: C 2/C
;
_chemical_formula_sum "Si O2"
_cell_formula_units_Z 48
_cell_length_a 11.726527
_cell_length_b 16.166443
_cell_length_c 22.219034
_cell_angle_alpha 90.000000
_cell_angle_beta 146.300105
_cell_angle_gamma 90.000000
_cell_volume 2337.109668
_symmetry_space_group_name_H-M "C 2/C"
_symmetry_group_IT_number 15
_symmetry_cell_setting 'monoclinic'
loop_
_space_group_symop_operation_xyz
x,y,z
-x,y,1/2-z
-x,-y,-z
x,-y,1/2+z
1/2+x,1/2+y,z
1/2-x,1/2+y,1/2-z
1/2-x,1/2-y,-z
1/2+x,1/2-y,1/2+z
loop_
_atom_site_type_symbol
_atom_site_label
_atom_site_fract_x
_atom_site_fract_y
_atom_site_fract_z
Si Si1 0.195576 0.771706 0.907279
Si Si2 0.866443 0.560605 0.510421
Si Si3 0.071212 0.377897 0.217916
Si Si4 0.109365 0.723387 0.360315
Si Si5 0.790612 0.085812 0.623787
Si Si6 0.455808 0.700625 0.909644
O O1 0.348473 0.735549 0.923411
O O2 0.986277 0.720618 0.807825
O O3 0.250000 0.750000 0.000000
O O4 0.215460 0.870231 0.915402
O O5 0.760668 0.472977 0.454539
O O6 0.932590 0.580656 0.606972
O O7 0.087301 0.571777 0.574707
O O8 0.316412 0.374153 0.322533
O O9 0.000000 0.412542 0.250000
O O10 0.184720 0.817820 0.380409
O O11 0.315677 0.675997 0.469439
O O12 0.000000 0.696130 0.250000
O O13 0.976261 0.734333 0.362980
O O14 0.000000 0.061384 0.750000
#
# Coordination Sequence:
#
# PCOD9262181 Si02
#       6
#     8   8   8   8   8   8
#     4   9  18  32  54  81 107 137 176 231 273 314
#     4  10  19  35  53  80 110 137 185 222 266 326
#     4   9  18  32  55  79 103 142 174 228 271 314
#     4  10  20  34  54  79 114 146 176 224 263 331
#     4  10  20  33  55  77 108 148 175 222 267 320
#     4  10  19  32  55  81 106 142 181 220 277 320
#
# _framework density 20.538188999999999
#
# number of rings (size 3 to 8) (size 9 to 14) (size 15 to 20)
#    0.000    2.333    1.667    2.000    2.333    2.000 
#    0.000    0.000    0.000   20.000    0.000    0.000 
#    0.000    0.000    0.000    0.000    0.000    0.000 
#
# Total GULP energy -133604.268077 kJ/mol
# GULP energy per Si atom -5566.844503 kJ/mol
# Density = 2.049144 g / cm^3
# Si number density = 20.538189 Si / 1000 Ang^3
#
#
#
# Elastic Constant Matrix: (Units=GPa)
#
#
# Indices 1 2 3 4 5 6 
#
# 1 93.8910 -5.8161 32.7579 0.0000 -13.3655 0.0000
# 2 -5.8161 32.0828 30.1671 0.0001 -0.5747 0.0000
# 3 32.7579 30.1671 120.9222 0.0001 -15.6216 0.0002
# 4 0.0000 0.0001 0.0001 19.1916 0.0000 -4.4124
# 5 -13.3655 -0.5747 -15.6216 0.0000 38.2220 0.0000
# 6 0.0000 0.0000 0.0002 -4.4124 0.0000 9.3182
#
#
#
# Elastic Compliance Matrix: (Units=1/GPa)
#
#
# Indices 1 2 3 4 5 6 
#
# 1 0.013231 0.007174 -0.005028 0.000000 0.002679 0.000000
# 2 0.007174 0.045124 -0.013502 0.000000 -0.002331 0.000000
# 3 -0.005028 -0.013502 0.013457 0.000000 0.003539 0.000000
# 4 0.000000 0.000000 0.000000 0.058472 0.000000 0.027688
# 5 0.002679 -0.002331 0.003539 0.000000 0.028511 0.000000
# 6 0.000000 0.000000 0.000000 0.027688 0.000000 0.120428
#
#
# Mechanical properties :
#
#
# Convention : Reuss Voigt Hill
#
# Bulk Modulus (GPa) = 20.36632 40.12375 30.24504
# Shear Modulus (GPa) = 15.70839 25.99883 20.85361
#
# Velocity S-wave (km/s) = 2.76857 3.56178 3.18992
# Velocity P-wave (km/s) = 4.48975 6.04099 5.32219
#
# Compressibility (1/GPa) = 0.04910067
#
# Stress axis : x y z
#
# Youngs Moduli (GPa) = 75.58214 22.16122 74.30854
#
# Poissons Ratio (x) = -0.15899 0.37361
# Poissons Ratio (y) = -0.54223 1.00331
# Poissons Ratio (z) = 0.38001 0.29922
#
# Static dielectric constant tensor:
#      x y z
#    x 1.798670 0.000000 -0.002100 
#    y 0.000000 1.762030 0.000000 
#    z -0.002100 0.000000 1.827270 
# 
# From -- ./inp_files/270659.got.cif
#   From: 2010.05.17/outbox.cif.g08.bks.cpg/sg15_136_cif.got.tgz:270659.got - 2010.06.03 18:47:42.
