data_PCOD9262738
_publ_section_title
;
Structure prediction by ZEFSAII (Michael W. Deem and Ramdas Pophale) SiO2 
 PCOD9262738
Probable space group: C 2/C
;
_chemical_formula_sum "Si O2"
_cell_formula_units_Z 56
_cell_length_a 8.693801
_cell_length_b 27.622888
_cell_length_c 14.256431
_cell_angle_alpha 90.000000
_cell_angle_beta 120.983807
_cell_angle_gamma 90.000000
_cell_volume 2935.140640
_symmetry_space_group_name_H-M "C 2/C"
_symmetry_group_IT_number 15
_symmetry_cell_setting 'monoclinic'
loop_
_space_group_symop_operation_xyz
x,y,z
-x,y,1/2-z
-x,-y,-z
x,-y,1/2+z
1/2+x,1/2+y,z
1/2-x,1/2+y,1/2-z
1/2-x,1/2-y,-z
1/2+x,1/2-y,1/2+z
loop_
_atom_site_type_symbol
_atom_site_label
_atom_site_fract_x
_atom_site_fract_y
_atom_site_fract_z
Si Si1 0.622319 0.305363 0.552569
Si Si2 0.693660 0.288804 0.356048
Si Si3 0.425482 0.537224 0.402108
Si Si4 0.318567 0.614228 0.973266
Si Si5 0.129576 0.607710 0.373706
Si Si6 0.577181 0.883352 0.075230
Si Si7 0.804006 0.454451 0.234630
O O1 0.645887 0.293738 0.450633
O O2 0.664398 0.254695 0.616409
O O3 0.443137 0.337803 0.508384
O O4 0.786487 0.340833 0.628376
O O5 0.500000 0.280547 0.250000
O O6 0.790097 0.338935 0.360411
O O7 0.500000 0.500000 0.500000
O O8 0.583057 0.575109 0.426937
O O9 0.289869 0.570025 0.418706
O O10 0.315494 0.503045 0.296638
O O11 0.290197 0.585365 0.864940
O O12 0.120153 0.626021 0.946014
O O13 0.061554 0.610468 0.458371
O O14 0.000000 0.592851 0.250000
O O15 0.657637 0.929899 0.153590
O O16 0.000000 0.465178 0.250000
#
# Coordination Sequence:
#
# PCOD9262738 Si02
#       7
#     8   8   8   8   8   8   8
#     4   9  19  34  55  79 112 148 182 225 271 325
#     4  10  19  33  55  84 110 146 190 223 265 328
#     4   9  18  35  54  74 106 145 180 220 273 326
#     4   9  18  35  55  81 115 145 177 228 282 326
#     4  10  20  37  56  75 106 147 187 229 274 329
#     4  10  21  35  57  84 110 142 186 232 278 328
#     4   9  17  33  55  80 110 142 180 227 272 322
#
# _framework density 19.079153000000002
#
# number of rings (size 3 to 8) (size 9 to 14) (size 15 to 20)
#    0.000    2.571    0.000    1.714    0.000    1.714 
#    0.000   15.714    0.000    5.143    0.000    0.000 
#    0.000    0.000    0.000    0.000    0.000    0.000 
#
# Total GULP energy -155894.510719 kJ/mol
# GULP energy per Si atom -5567.661097 kJ/mol
# Density = 1.903573 g / cm^3
# Si number density = 19.079153 Si / 1000 Ang^3
#
#
#
# Elastic Constant Matrix: (Units=GPa)
#
#
# Indices 1 2 3 4 5 6 
#
# 1 45.0453 19.5737 20.1369 0.0000 16.3820 0.0000
# 2 19.5737 89.2073 23.7164 0.0000 10.4228 0.0000
# 3 20.1369 23.7164 36.7672 0.0000 19.1607 0.0000
# 4 0.0000 0.0000 0.0000 296.1849 0.0000 90.2649
# 5 16.3820 10.4228 19.1607 0.0000 25.4004 0.0000
# 6 0.0000 0.0000 0.0000 90.2649 0.0000 43.7153
#
#
#
# Elastic Compliance Matrix: (Units=1/GPa)
#
#
# Indices 1 2 3 4 5 6 
#
# 1 0.032217 -0.003203 -0.008956 0.000000 -0.012708 0.000000
# 2 -0.003203 0.013893 -0.008755 0.000000 0.002969 0.000000
# 3 -0.008956 -0.008755 0.054159 0.000000 -0.031486 0.000000
# 4 0.000000 0.000000 0.000000 0.009107 0.000000 -0.018805
# 5 -0.012708 0.002969 -0.031486 0.000000 0.070098 0.000000
# 6 0.000000 0.000000 0.000000 -0.018805 0.000000 0.061705
#
#
# Mechanical properties :
#
#
# Convention : Reuss Voigt Hill
#
# Bulk Modulus (GPa) = 17.11119 33.09710 25.10415
# Shear Modulus (GPa) = 16.52960 80.23296 48.38128
#
# Velocity S-wave (km/s) = 2.94661 6.49184 5.04115
# Velocity P-wave (km/s) = 4.53483 8.57770 6.86081
#
# Compressibility (1/GPa) = 0.05844129
#
# Stress axis : x y z
#
# Youngs Moduli (GPa) = 31.03930 71.97726 18.46424
#
# Poissons Ratio (x) = 0.23056 0.16537
# Poissons Ratio (y) = 0.09943 0.16165
# Poissons Ratio (z) = 0.27799 0.63014
#
# Static dielectric constant tensor:
#      x y z
#    x 1.655350 0.000000 0.046770 
#    y 0.000000 1.741190 0.000000 
#    z 0.046770 0.000000 1.671440 
# 
# From -- ./inp_files/137956.got.cif
#   From: 2010.05.17/outbox.cif.g08.bks.cpg/sg15_69_cif.got.tgz:137956.got - 2010.06.03 18:47:42.
