data_PCOD9262617
_publ_section_title
;
Structure prediction by ZEFSAII (Michael W. Deem and Ramdas Pophale) SiO2 
 PCOD9262617
Probable space group: C 2/C
;
_chemical_formula_sum "Si O2"
_cell_formula_units_Z 48
_cell_length_a 18.866554
_cell_length_b 14.776100
_cell_length_c 11.137836
_cell_angle_alpha 90.000000
_cell_angle_beta 48.392817
_cell_angle_gamma 90.000000
_cell_volume 2321.609806
_symmetry_space_group_name_H-M "C 2/C"
_symmetry_group_IT_number 15
_symmetry_cell_setting 'monoclinic'
loop_
_space_group_symop_operation_xyz
x,y,z
-x,y,1/2-z
-x,-y,-z
x,-y,1/2+z
1/2+x,1/2+y,z
1/2-x,1/2+y,1/2-z
1/2-x,1/2-y,-z
1/2+x,1/2-y,1/2+z
loop_
_atom_site_type_symbol
_atom_site_label
_atom_site_fract_x
_atom_site_fract_y
_atom_site_fract_z
Si Si1 0.890142 0.995493 0.345764
Si Si2 0.231380 0.252047 0.164312
Si Si3 0.374913 0.636083 0.651163
Si Si4 0.607105 0.783718 0.664252
Si Si5 0.230737 0.136538 0.383648
Si Si6 0.550941 0.682689 0.303702
O O1 0.858912 0.946507 0.258330
O O2 0.828098 0.954169 0.523489
O O3 0.000000 0.970853 0.250000
O O4 0.887515 0.101686 0.323377
O O5 0.288159 0.332344 0.165477
O O6 0.256957 0.163519 0.217936
O O7 0.117273 0.250739 0.299293
O O8 0.250000 0.250000 0.000000
O O9 0.396759 0.719052 0.715771
O O10 0.471737 0.629769 0.467872
O O11 0.500000 0.808190 0.750000
O O12 0.678929 0.861189 0.628622
O O13 0.662893 0.719928 0.505819
O O14 0.500000 0.730853 0.250000
#
# Coordination Sequence:
#
# PCOD9262617 Si02
#       6
#     8   8   8   8   8   8
#     4  10  20  34  56  85 114 142 176 235 291 334
#     4  11  21  35  51  75 114 149 187 222 265 338
#     4  10  19  33  54  80 112 145 185 226 279 331
#     4   9  16  29  52  79 104 139 186 234 274 319
#     4   9  18  31  50  77 108 142 183 229 278 325
#     4  11  21  34  53  83 114 149 180 222 284 336
#
# _framework density 20.675308999999999
#
# number of rings (size 3 to 8) (size 9 to 14) (size 15 to 20)
#    0.000    2.000    1.667    5.500    0.000    1.333 
#    0.000    0.000    0.000    0.000    4.333    3.500 
#    0.000    0.000    0.000    0.000    0.000    0.000 
#
# Total GULP energy -133761.344257 kJ/mol
# GULP energy per Si atom -5573.389344 kJ/mol
# Density = 2.062825 g / cm^3
# Si number density = 20.675309 Si / 1000 Ang^3
#
#
#
# Elastic Constant Matrix: (Units=GPa)
#
#
# Indices 1 2 3 4 5 6 
#
# 1 173.7374 33.4970 36.2381 0.0000 -5.3637 0.0000
# 2 33.4970 46.4593 26.3524 0.0000 -5.7038 0.0000
# 3 36.2381 26.3524 77.3682 0.0000 12.9275 0.0000
# 4 0.0000 0.0000 0.0000 25.5042 0.0000 -1.6202
# 5 -5.3637 -5.7038 12.9275 0.0000 43.6425 0.0000
# 6 0.0000 0.0000 0.0000 -1.6202 0.0000 24.6431
#
#
#
# Elastic Compliance Matrix: (Units=1/GPa)
#
#
# Indices 1 2 3 4 5 6 
#
# 1 0.006945 -0.003643 -0.002183 0.000000 0.001024 0.000000
# 2 -0.003643 0.030466 -0.009743 0.000000 0.006420 0.000000
# 3 -0.002183 -0.009743 0.018436 0.000000 -0.007003 0.000000
# 4 0.000000 0.000000 0.000000 0.039374 0.000000 0.002589
# 5 0.001024 0.006420 -0.007003 0.000000 0.025953 0.000000
# 6 0.000000 0.000000 0.000000 0.002589 0.000000 0.040750
#
#
# Mechanical properties :
#
#
# Convention : Reuss Voigt Hill
#
# Bulk Modulus (GPa) = 40.47274 54.41556 47.44415
# Shear Modulus (GPa) = 24.83869 32.18978 28.51423
#
# Velocity S-wave (km/s) = 3.46984 3.95006 3.71771
# Velocity P-wave (km/s) = 5.97251 6.86879 6.43627
#
# Compressibility (1/GPa) = 0.02470799
#
# Stress axis : x y z
#
# Youngs Moduli (GPa) = 143.98303 32.82374 54.24025
#
# Poissons Ratio (x) = 0.11959 0.11842
# Poissons Ratio (y) = 0.52460 0.52847
# Poissons Ratio (z) = 0.31434 0.31981
#
# Static dielectric constant tensor:
#      x y z
#    x 1.818790 0.000000 0.029970 
#    y 0.000000 1.736150 0.000000 
#    z 0.029970 0.000000 1.892000 
# 
# From -- ./inp_files/106277.got.cif
#   From: 2010.05.17/outbox.cif.g08.bks.cpg/sg15_54_cif.got.tgz:106277.got - 2010.06.03 18:47:42.
