data_PCOD9262736
_publ_section_title
;
Structure prediction by ZEFSAII (Michael W. Deem and Ramdas Pophale) SiO2 
 PCOD9262736
Probable space group: C 2/C
;
_chemical_formula_sum "Si O2"
_cell_formula_units_Z 48
_cell_length_a 30.500696
_cell_length_b 8.999558
_cell_length_c 8.229671
_cell_angle_alpha 90.000000
_cell_angle_beta 88.025171
_cell_angle_gamma 90.000000
_cell_volume 2257.643597
_symmetry_space_group_name_H-M "C 2/C"
_symmetry_group_IT_number 15
_symmetry_cell_setting 'monoclinic'
loop_
_space_group_symop_operation_xyz
x,y,z
-x,y,1/2-z
-x,-y,-z
x,-y,1/2+z
1/2+x,1/2+y,z
1/2-x,1/2+y,1/2-z
1/2-x,1/2-y,-z
1/2+x,1/2-y,1/2+z
loop_
_atom_site_type_symbol
_atom_site_label
_atom_site_fract_x
_atom_site_fract_y
_atom_site_fract_z
Si Si1 0.046838 0.432443 0.044712
Si Si2 0.912662 0.339183 0.149632
Si Si3 0.330053 0.967937 0.764598
Si Si4 0.294921 0.204674 0.577735
Si Si5 0.636847 0.418777 0.769151
Si Si6 0.121662 0.779055 0.418456
O O1 0.049359 0.372346 0.226114
O O2 0.074196 0.305744 0.938909
O O3 0.077211 0.577853 0.016760
O O4 0.000000 0.500000 0.000000
O O5 0.870874 0.417146 0.243220
O O6 0.902460 0.168061 0.133893
O O7 0.322403 0.879495 0.931729
O O8 0.342400 0.844895 0.629004
O O9 0.290520 0.076562 0.716227
O O10 0.250000 0.250000 0.500000
O O11 0.320005 0.347565 0.650731
O O12 0.632668 0.362121 0.585318
O O13 0.628114 0.592131 0.785391
#
# Coordination Sequence:
#
# PCOD9262736 Si02
#       6
#     8   8   8   8   8   8
#     4  10  19  33  55  84 109 142 188 235 286 341
#     4   9  18  34  57  78 108 146 185 230 279 350
#     4  10  20  39  59  81 111 155 199 232 288 358
#     4  11  23  38  59  87 119 155 198 252 296 343
#     4  10  20  37  56  84 114 151 197 238 292 353
#     4  10  21  37  61  84 114 155 196 243 291 359
#
# _framework density 21.261106000000002
#
# number of rings (size 3 to 8) (size 9 to 14) (size 15 to 20)
#    0.000    2.000    0.000    6.500    0.000    4.000 
#    0.000    3.333    0.000    6.000    0.000    0.000 
#    0.000    0.000    0.000    0.000    0.000    0.000 
#
# Total GULP energy -133663.250968 kJ/mol
# GULP energy per Si atom -5569.302124 kJ/mol
# Density = 2.121271 g / cm^3
# Si number density = 21.261106 Si / 1000 Ang^3
#
#
#
# Elastic Constant Matrix: (Units=GPa)
#
#
# Indices 1 2 3 4 5 6 
#
# 1 86.6318 22.7054 6.1013 0.0000 26.5601 0.0000
# 2 22.7054 115.6423 7.2917 0.0000 6.2670 0.0000
# 3 6.1013 7.2917 48.5038 0.0000 6.1748 0.0000
# 4 0.0000 0.0000 0.0000 36.7719 0.0000 6.5871
# 5 26.5601 6.2670 6.1748 0.0000 30.0470 0.0000
# 6 0.0000 0.0000 0.0000 6.5871 0.0000 28.1499
#
#
#
# Elastic Compliance Matrix: (Units=1/GPa)
#
#
# Indices 1 2 3 4 5 6 
#
# 1 0.016508 -0.002483 0.000091 0.000000 -0.014093 0.000000
# 2 -0.002483 0.009179 -0.001133 0.000000 0.000513 0.000000
# 3 0.000091 -0.001133 0.021314 0.000000 -0.004224 0.000000
# 4 0.000000 0.000000 0.000000 0.028384 0.000000 -0.006642
# 5 -0.014093 0.000513 -0.004224 0.000000 0.046500 0.000000
# 6 0.000000 0.000000 0.000000 -0.006642 0.000000 0.037078
#
#
# Mechanical properties :
#
#
# Convention : Reuss Voigt Hill
#
# Bulk Modulus (GPa) = 25.03123 35.88607 30.45865
# Shear Modulus (GPa) = 27.88151 33.30573 30.59362
#
# Velocity S-wave (km/s) = 3.62523 3.96221 3.79746
# Velocity P-wave (km/s) = 5.41497 6.15203 5.79523
#
# Compressibility (1/GPa) = 0.03995009
#
# Stress axis : x y z
#
# Youngs Moduli (GPa) = 60.57537 108.94999 46.91844
#
# Poissons Ratio (x) = 0.27055 -0.00426
# Poissons Ratio (y) = 0.15042 0.05315
# Poissons Ratio (z) = -0.00551 0.12342
#
# Static dielectric constant tensor:
#      x y z
#    x 1.866340 0.000000 0.038110 
#    y 0.000000 1.780210 0.000000 
#    z 0.038110 0.000000 1.894390 
# 
# From -- ./inp_files/68548.got.cif
#   From: 2010.05.17/outbox.cif.g08.bks.cpg/sg15_35_cif.got.tgz:68548.got - 2010.06.03 18:47:42.
