data_PCOD9262397
_publ_section_title
;
Structure prediction by ZEFSAII (Michael W. Deem and Ramdas Pophale) SiO2 
 PCOD9262397
Probable space group: C 2/C
;
_chemical_formula_sum "Si O2"
_cell_formula_units_Z 56
_cell_length_a 13.302266
_cell_length_b 25.380916
_cell_length_c 13.085882
_cell_angle_alpha 90.000000
_cell_angle_beta 135.209219
_cell_angle_gamma 90.000000
_cell_volume 3112.642652
_symmetry_space_group_name_H-M "C 2/C"
_symmetry_group_IT_number 15
_symmetry_cell_setting 'monoclinic'
loop_
_space_group_symop_operation_xyz
x,y,z
-x,y,1/2-z
-x,-y,-z
x,-y,1/2+z
1/2+x,1/2+y,z
1/2-x,1/2+y,1/2-z
1/2-x,1/2-y,-z
1/2+x,1/2-y,1/2+z
loop_
_atom_site_type_symbol
_atom_site_label
_atom_site_fract_x
_atom_site_fract_y
_atom_site_fract_z
Si Si1 0.825928 0.952421 0.949497
Si Si2 0.294685 0.029821 0.917131
Si Si3 0.936619 0.747925 0.817573
Si Si4 0.879392 0.064841 0.906308
Si Si5 0.321981 0.187461 0.412693
Si Si6 0.662700 0.855388 0.351592
Si Si7 0.112265 0.427996 0.614109
O O1 0.697810 0.941574 0.778953
O O2 0.880876 0.012430 0.976340
O O3 0.771569 0.949888 0.025461
O O4 0.960850 0.918280 0.008581
O O5 0.195687 0.047862 0.752944
O O6 0.318684 0.966403 0.923100
O O7 0.449737 0.054771 0.010942
O O8 0.816005 0.791332 0.746382
O O9 0.860295 0.691602 0.745360
O O10 0.000000 0.759386 0.750000
O O11 0.061748 0.734388 0.987669
O O12 0.779335 0.105556 0.892719
O O13 0.289702 0.170468 0.506956
O O14 0.377774 0.133478 0.404097
O O15 0.500000 0.877885 0.250000
#
# Coordination Sequence:
#
# PCOD9262397 Si02
#       7
#     8   8   8   8   8   8   8
#     4  10  21  33  48  76 109 136 171 218 254 299
#     4  10  19  36  54  74 106 143 175 214 250 303
#     4   9  18  31  49  73 103 134 163 205 263 314
#     4  10  20  33  51  77 105 138 175 206 261 311
#     4  10  19  33  50  77 108 134 166 211 258 314
#     4   9  17  31  52  76 103 135 170 209 252 314
#     4  10  21  33  54  79 103 140 180 206 256 312
#
# _framework density 17.991143000000001
#
# number of rings (size 3 to 8) (size 9 to 14) (size 15 to 20)
#    0.000    2.571    0.000    5.143    0.000    4.571 
#    0.000    2.857    0.000    0.000    0.000   18.000 
#    0.000    0.000    0.000    0.000    0.000    0.000 
#
# Total GULP energy -156041.787917 kJ/mol
# GULP energy per Si atom -5572.920997 kJ/mol
# Density = 1.795019 g / cm^3
# Si number density = 17.991143 Si / 1000 Ang^3
#
#
#
# Elastic Constant Matrix: (Units=GPa)
#
#
# Indices 1 2 3 4 5 6 
#
# 1 -289.4394 -13.5477 -208.9872 0.0000 -90.6707 0.0000
# 2 -13.5477 40.3105 -12.3392 0.0000 -0.4234 0.0000
# 3 -208.9872 -12.3392 -94.5167 0.0000 -51.9152 0.0000
# 4 0.0000 0.0000 0.0000 11.5383 0.0000 10.9966
# 5 -90.6707 -0.4234 -51.9152 0.0000 -1.4255 0.0000
# 6 0.0000 0.0000 0.0000 10.9966 0.0000 21.0285
#
#
#
# Elastic Compliance Matrix: (Units=1/GPa)
#
#
# Indices 1 2 3 4 5 6 
#
# 1 0.006686 -0.001336 -0.011511 0.000000 -0.005640 0.000000
# 2 -0.001336 0.025000 0.002258 0.000000 -0.004675 0.000000
# 3 -0.011511 0.002258 0.020376 0.000000 -0.010556 0.000000
# 4 0.000000 0.000000 0.000000 0.172780 0.000000 -0.090353
# 5 -0.005640 -0.004675 -0.010556 0.000000 0.043032 0.000000
# 6 0.000000 0.000000 0.000000 -0.090353 0.000000 0.094804
#
#
# Mechanical properties :
#
#
# Convention : Reuss Voigt Hill
#
# Bulk Modulus (GPa) = 32.38000 -90.37709 -28.99855
# Shear Modulus (GPa) = 12.68547 -1.02318 5.83114
#
# Velocity S-wave (km/s) = 2.65824 -0.75495 1.80226
# Velocity P-wave (km/s) = 5.24009 7.14865 3.43836
#
# Compressibility (1/GPa) = 0.03088326
#
# Stress axis : x y z
#
# Youngs Moduli (GPa) = 149.56611 39.99936 49.07637
#
# Poissons Ratio (x) = 0.05343 0.56494
# Poissons Ratio (y) = 0.19980 -0.11079
# Poissons Ratio (z) = 1.72173 -0.09030
#
# Static dielectric constant tensor:
#      x y z
#    x 1.627260 0.000000 0.033970 
#    y 0.000000 1.643580 0.000000 
#    z 0.033970 0.000000 1.633180 
# 
# From -- ./inp_files/92108.got.cif
#   From: 2010.05.17/outbox.cif.g08.bks.cpg/sg15_47_cif.got.tgz:92108.got - 2010.06.03 18:47:42.
