data_PCOD9262473
_publ_section_title
;
Structure prediction by ZEFSAII (Michael W. Deem and Ramdas Pophale) SiO2 
 PCOD9262473
Probable space group: C 2/C
;
_chemical_formula_sum "Si O2"
_cell_formula_units_Z 64
_cell_length_a 7.217382
_cell_length_b 26.208821
_cell_length_c 15.136932
_cell_angle_alpha 90.000000
_cell_angle_beta 102.998368
_cell_angle_gamma 90.000000
_cell_volume 2789.920483
_symmetry_space_group_name_H-M "C 2/C"
_symmetry_group_IT_number 15
_symmetry_cell_setting 'monoclinic'
loop_
_space_group_symop_operation_xyz
x,y,z
-x,y,1/2-z
-x,-y,-z
x,-y,1/2+z
1/2+x,1/2+y,z
1/2-x,1/2+y,1/2-z
1/2-x,1/2-y,-z
1/2+x,1/2-y,1/2+z
loop_
_atom_site_type_symbol
_atom_site_label
_atom_site_fract_x
_atom_site_fract_y
_atom_site_fract_z
Si Si1 0.754495 0.257102 0.605955
Si Si2 0.783865 0.353904 0.327281
Si Si3 0.719669 0.070031 0.521306
Si Si4 0.747057 0.115405 0.169084
Si Si5 0.756485 0.369420 0.121048
Si Si6 0.262659 0.954119 0.987009
Si Si7 0.855116 0.200301 0.044072
Si Si8 0.180450 0.367154 0.850557
O O1 0.750000 0.250000 0.500000
O O2 0.786277 0.202428 0.652769
O O3 0.547198 0.278908 0.606216
O O4 0.872402 0.307112 0.645332
O O5 0.721005 0.399234 0.385213
O O6 0.723271 0.365127 0.221023
O O7 0.016811 0.354506 0.362761
O O8 0.490906 0.058320 0.503945
O O9 0.772505 0.108235 0.447188
O O10 0.792016 0.012964 0.515462
O O11 0.817982 0.070844 0.111985
O O12 0.524350 0.105815 0.166276
O O13 0.808711 0.124016 0.277247
O O14 0.760148 0.164856 0.107628
O O15 0.637330 0.332008 0.045444
O O16 0.716886 0.424037 0.072098
O O17 0.750000 0.250000 0.000000
#
# Coordination Sequence:
#
# PCOD9262473 Si02
#       8
#     8   8   8   8   8   8   8   8
#     4  12  23  36  54  80 114 148 182 225 273 328
#     4  10  19  33  52  81 113 138 183 222 274 321
#     4   9  16  31  52  78 112 147 172 227 278 326
#     4   9  20  36  54  82 112 142 186 229 268 331
#     4   9  19  34  53  81 106 141 182 230 263 330
#     4   8  16  31  54  79 109 141 182 224 279 318
#     4  11  21  36  56  75 109 148 185 220 269 325
#     4  10  20  34  54  82 116 143 183 225 277 324
#
# _framework density 22.939722
#
# number of rings (size 3 to 8) (size 9 to 14) (size 15 to 20)
#    0.000    2.250    2.500    1.500    1.750    1.500 
#    0.000    5.000    0.000    3.000    0.000    3.500 
#    0.000    0.000    0.000    0.000    0.000    0.000 
#
# Total GULP energy -178523.146085 kJ/mol
# GULP energy per Si atom -5578.848315 kJ/mol
# Density = 2.288751 g / cm^3
# Si number density = 22.939722 Si / 1000 Ang^3
#
#
#
# Elastic Constant Matrix: (Units=GPa)
#
#
# Indices 1 2 3 4 5 6 
#
# 1 43.0537 5.3921 13.8599 0.0000 -0.1822 0.0000
# 2 5.3921 196.9580 107.4668 0.0000 -16.6228 0.0000
# 3 13.8599 107.4668 183.8777 0.0000 -36.2946 0.0000
# 4 0.0000 0.0000 0.0000 4.3385 0.0000 -0.7869
# 5 -0.1822 -16.6228 -36.2946 0.0000 31.5120 0.0000
# 6 0.0000 0.0000 0.0000 -0.7869 0.0000 20.0497
#
#
#
# Elastic Compliance Matrix: (Units=1/GPa)
#
#
# Indices 1 2 3 4 5 6 
#
# 1 0.024001 0.000574 -0.002663 0.000000 -0.002625 0.000000
# 2 0.000574 0.007517 -0.004728 0.000000 -0.001477 0.000000
# 3 -0.002663 -0.004728 0.010233 0.000000 0.009277 0.000000
# 4 0.000000 0.000000 0.000000 0.232148 0.000000 0.009111
# 5 -0.002625 -0.001477 0.009277 0.000000 0.041625 0.000000
# 6 0.000000 0.000000 0.000000 0.009111 0.000000 0.050234
#
#
# Mechanical properties :
#
#
# Convention : Reuss Voigt Hill
#
# Bulk Modulus (GPa) = 35.56432 75.25858 55.41145
# Shear Modulus (GPa) = 12.86129 30.99140 21.92635
#
# Velocity S-wave (km/s) = 2.37039 3.67957 3.09500
# Velocity P-wave (km/s) = 4.79882 7.13657 6.08109
#
# Compressibility (1/GPa) = 0.02811807
#
# Stress axis : x y z
#
# Youngs Moduli (GPa) = 41.66492 133.04043 97.71841
#
# Poissons Ratio (x) = -0.07641 0.26022
# Poissons Ratio (y) = -0.02393 0.46200
# Poissons Ratio (z) = 0.11095 0.62900
#
# Static dielectric constant tensor:
#      x y z
#    x 2.146980 0.000000 0.189200 
#    y 0.000000 2.053810 0.000000 
#    z 0.189200 0.000000 2.012520 
# 
# From -- ./inp_files/138643.got.cif
#   From: 2010.05.17/outbox.cif.g08.bks.cpg/sg15_70_cif.got.tgz:138643.got - 2010.06.03 18:47:42.
