data_PCOD9262609
_publ_section_title
;
Structure prediction by ZEFSAII (Michael W. Deem and Ramdas Pophale) SiO2 
 PCOD9262609
Probable space group: C 2/C
;
_chemical_formula_sum "Si O2"
_cell_formula_units_Z 48
_cell_length_a 15.937929
_cell_length_b 25.196804
_cell_length_c 5.326808
_cell_angle_alpha 90.000000
_cell_angle_beta 88.435307
_cell_angle_gamma 90.000000
_cell_volume 2138.367887
_symmetry_space_group_name_H-M "C 2/C"
_symmetry_group_IT_number 15
_symmetry_cell_setting 'monoclinic'
loop_
_space_group_symop_operation_xyz
x,y,z
-x,y,1/2-z
-x,-y,-z
x,-y,1/2+z
1/2+x,1/2+y,z
1/2-x,1/2+y,1/2-z
1/2-x,1/2-y,-z
1/2+x,1/2-y,1/2+z
loop_
_atom_site_type_symbol
_atom_site_label
_atom_site_fract_x
_atom_site_fract_y
_atom_site_fract_z
Si Si1 0.092168 0.981095 0.668061
Si Si2 0.333188 0.184880 0.571490
Si Si3 0.118921 0.137756 0.073238
Si Si4 0.318721 0.876373 0.567909
Si Si5 0.963865 0.559649 0.002676
Si Si6 0.369265 0.299425 0.423459
O O1 0.080961 0.920766 0.581582
O O2 0.000000 0.003125 0.750000
O O3 0.135014 0.013571 0.438656
O O4 0.352796 0.162852 0.846645
O O5 0.382756 0.237691 0.485552
O O6 0.232613 0.196665 0.588760
O O7 0.340550 0.143398 0.344289
O O8 0.102568 0.166766 0.337946
O O9 0.218848 0.125176 0.052223
O O10 0.097595 0.175092 0.838103
O O11 0.364282 0.932461 0.516943
O O12 0.000000 0.585273 0.250000
O O13 0.000000 0.585183 0.750000
O O14 0.000000 0.500000 0.000000
#
# Coordination Sequence:
#
# PCOD9262609 Si02
#       6
#     8   8   8   8   8   8
#     4  10  21  38  56  77 107 146 177 206 267 328
#     4   9  17  30  52  81 110 142 172 221 273 330
#     4  10  19  33  54  83 109 138 178 229 265 314
#     4  10  19  33  54  80 106 138 188 227 268 316
#     4  10  21  38  54  72 101 144 189 227 280 329
#     4   9  17  30  52  81 114 138 172 217 278 324
#
# _framework density 22.447026999999999
#
# number of rings (size 3 to 8) (size 9 to 14) (size 15 to 20)
#    0.000    2.333    0.000    3.000    0.000    4.000 
#    6.000    0.000    0.000   10.000    0.000    0.000 
#    0.000    0.000    0.000    0.000    0.000    0.000 
#
# Total GULP energy -133801.972767 kJ/mol
# GULP energy per Si atom -5575.082199 kJ/mol
# Density = 2.239594 g / cm^3
# Si number density = 22.447027 Si / 1000 Ang^3
#
#
#
# Elastic Constant Matrix: (Units=GPa)
#
#
# Indices 1 2 3 4 5 6 
#
# 1 24.9101 -4.4761 -8.4726 0.0000 -2.3376 0.0000
# 2 -4.4761 47.4282 -10.5157 0.0000 -11.9050 0.0000
# 3 -8.4726 -10.5157 153.9913 0.0000 -1.8677 0.0000
# 4 0.0000 0.0000 0.0000 -21.4368 0.0000 70.0563
# 5 -2.3376 -11.9050 -1.8677 0.0000 12.3717 0.0000
# 6 0.0000 0.0000 0.0000 70.0563 0.0000 -177.2378
#
#
#
# Elastic Compliance Matrix: (Units=1/GPa)
#
#
# Indices 1 2 3 4 5 6 
#
# 1 0.044677 0.009491 0.003326 0.000000 0.018077 0.000000
# 2 0.009491 0.030599 0.002996 0.000000 0.031691 0.000000
# 3 0.003326 0.002996 0.006937 0.000000 0.004559 0.000000
# 4 0.000000 0.000000 0.000000 0.159894 0.000000 0.063201
# 5 0.018077 0.031691 0.004559 0.000000 0.115428 0.000000
# 6 0.000000 0.000000 0.000000 0.063201 0.000000 0.019339
#
#
# Mechanical properties :
#
#
# Convention : Reuss Voigt Hill
#
# Bulk Modulus (GPa) = 8.78432 19.93343 14.35888
# Shear Modulus (GPa) = 13.04820 -20.60765 -3.77972
#
# Velocity S-wave (km/s) = 2.41361 -3.03323 -1.29904
# Velocity P-wave (km/s) = 3.41895 1.83517 2.03977
#
# Compressibility (1/GPa) = 0.11383919
#
# Stress axis : x y z
#
# Youngs Moduli (GPa) = 22.38270 32.68059 144.16017
#
# Poissons Ratio (x) = -0.31018 -0.47941
# Poissons Ratio (y) = -0.21244 -0.43192
# Poissons Ratio (z) = -0.07443 -0.09791
#
# Static dielectric constant tensor:
#      x y z
#    x 1.879160 0.000000 0.027630 
#    y 0.000000 1.826820 0.000000 
#    z 0.027630 0.000000 1.903020 
# 
# From -- ./inp_files/10681.got.cif
#   From: 2010.05.17/outbox.cif.g08.bks.cpg/sg15_6_cif.got.tgz:10681.got - 2010.06.03 18:47:42.
