data_PCOD9262113
_publ_section_title
;
Structure prediction by ZEFSAII (Michael W. Deem and Ramdas Pophale) SiO2 
 PCOD9262113
Probable space group: C 2/C
;
_chemical_formula_sum "Si O2"
_cell_formula_units_Z 48
_cell_length_a 11.217184
_cell_length_b 17.642750
_cell_length_c 18.256439
_cell_angle_alpha 90.000000
_cell_angle_beta 32.481335
_cell_angle_gamma 90.000000
_cell_volume 1940.262822
_symmetry_space_group_name_H-M "C 2/C"
_symmetry_group_IT_number 15
_symmetry_cell_setting 'monoclinic'
loop_
_space_group_symop_operation_xyz
x,y,z
-x,y,1/2-z
-x,-y,-z
x,-y,1/2+z
1/2+x,1/2+y,z
1/2-x,1/2+y,1/2-z
1/2-x,1/2-y,-z
1/2+x,1/2-y,1/2+z
loop_
_atom_site_type_symbol
_atom_site_label
_atom_site_fract_x
_atom_site_fract_y
_atom_site_fract_z
Si Si1 0.275405 0.978276 0.277565
Si Si2 0.758927 0.333698 0.898540
Si Si3 0.183196 0.296231 0.247506
Si Si4 0.417266 0.323289 0.364886
Si Si5 0.631060 0.310693 0.504215
Si Si6 0.227039 0.021072 0.978119
O O1 0.299502 0.887161 0.258305
O O2 0.523193 0.004602 0.122417
O O3 0.249223 0.993422 0.378551
O O4 0.035742 0.001954 0.366522
O O5 0.762891 0.243032 0.912928
O O6 0.000000 0.356176 0.750000
O O7 0.694483 0.367509 0.010794
O O8 0.583504 0.346710 0.926989
O O9 0.383626 0.277242 0.198979
O O10 0.239821 0.278211 0.134013
O O11 0.970698 0.252587 0.389098
O O12 0.500000 0.366664 0.250000
O O13 0.733709 0.386697 0.484805
#
# Coordination Sequence:
#
# PCOD9262113 Si02
#       6
#     8   8   8   8   8   8
#     4   9  19  38  59  84 117 154 199 249 297 353
#     4   9  15  25  40  69 112 143 178 224 271 337
#     4  10  19  32  54  87 118 150 194 245 299 350
#     4   9  15  25  41  69 111 144 178 223 272 334
#     4  10  19  32  53  87 119 151 193 246 299 353
#     4   9  19  38  58  85 117 155 200 246 299 352
#
# _framework density 24.738917000000001
#
# number of rings (size 3 to 8) (size 9 to 14) (size 15 to 20)
#    0.000    2.667    3.333    0.000    0.000    0.667 
#   12.000    0.000    0.000    1.000    0.000    0.000 
#    0.000    0.000    0.000    0.000    0.000    0.000 
#
# Total GULP energy -133716.457545 kJ/mol
# GULP energy per Si atom -5571.519064 kJ/mol
# Density = 2.468261 g / cm^3
# Si number density = 24.738917 Si / 1000 Ang^3
#
#
#
# Elastic Constant Matrix: (Units=GPa)
#
#
# Indices 1 2 3 4 5 6 
#
# 1 66.7544 14.4738 55.9170 0.0136 2.8852 0.0016
# 2 14.4738 69.1259 40.0432 0.0111 -4.8887 -0.0048
# 3 55.9170 40.0432 232.7985 -0.0205 -19.2214 -0.0073
# 4 0.0136 0.0111 -0.0205 38.8159 -0.0156 -7.7712
# 5 2.8852 -4.8887 -19.2214 -0.0156 57.6910 0.0030
# 6 0.0016 -0.0048 -0.0073 -7.7712 0.0030 28.0807
#
#
#
# Elastic Compliance Matrix: (Units=1/GPa)
#
#
# Indices 1 2 3 4 5 6 
#
# 1 0.019265 -0.001570 -0.004574 -0.000011 -0.002620 -0.000005
# 2 -0.001570 0.016207 -0.002356 -0.000005 0.000667 0.000001
# 3 -0.004574 -0.002356 0.005966 0.000007 0.002017 0.000003
# 4 -0.000011 -0.000005 0.000007 0.027274 0.000009 0.007548
# 5 -0.002620 0.000667 0.002017 0.000009 0.018193 0.000001
# 6 -0.000005 0.000001 0.000003 0.007548 0.000001 0.037701
#
#
# Mechanical properties :
#
#
# Convention : Reuss Voigt Hill
#
# Bulk Modulus (GPa) = 40.91696 65.50518 53.21107
# Shear Modulus (GPa) = 33.38905 42.13385 37.76145
#
# Velocity S-wave (km/s) = 3.67775 4.13139 3.91115
# Velocity P-wave (km/s) = 5.88302 7.02096 6.47703
#
# Compressibility (1/GPa) = 0.02443975
#
# Stress axis : x y z
#
# Youngs Moduli (GPa) = 51.90738 61.70277 167.62062
#
# Poissons Ratio (x) = 0.09685 0.76665
# Poissons Ratio (y) = 0.08147 0.39485
# Poissons Ratio (z) = 0.23741 0.14535
#
# Static dielectric constant tensor:
#      x y z
#    x 2.050500 -0.000010 -0.098490 
#    y -0.000010 2.052020 0.000020 
#    z -0.098490 0.000020 2.103670 
# 
# From -- ./inp_files/240893.got.cif
#   From: 2010.05.17/outbox.cif.g08.bks.cpg/sg15_121_cif.got.tgz:240893.got - 2010.06.03 18:47:42.
