data_PCOD9262459
_publ_section_title
;
Structure prediction by ZEFSAII (Michael W. Deem and Ramdas Pophale) SiO2 
 PCOD9262459
Probable space group: C 2/C
;
_chemical_formula_sum "Si O2"
_cell_formula_units_Z 48
_cell_length_a 29.361383
_cell_length_b 5.027708
_cell_length_c 22.217033
_cell_angle_alpha 90.000000
_cell_angle_beta 133.284295
_cell_angle_gamma 90.000000
_cell_volume 2387.484487
_symmetry_space_group_name_H-M "C 2/C"
_symmetry_group_IT_number 15
_symmetry_cell_setting 'monoclinic'
loop_
_space_group_symop_operation_xyz
x,y,z
-x,y,1/2-z
-x,-y,-z
x,-y,1/2+z
1/2+x,1/2+y,z
1/2-x,1/2+y,1/2-z
1/2-x,1/2-y,-z
1/2+x,1/2-y,1/2+z
loop_
_atom_site_type_symbol
_atom_site_label
_atom_site_fract_x
_atom_site_fract_y
_atom_site_fract_z
Si Si1 0.130565 0.749968 0.741050
Si Si2 0.014775 0.290024 0.067003
Si Si3 0.817843 0.745360 0.275608
Si Si4 0.603383 0.509608 0.554806
Si Si5 0.741224 0.826849 0.423200
Si Si6 0.705301 0.169626 0.595211
O O1 0.059118 0.658149 0.664881
O O2 0.166459 0.555480 0.726968
O O3 0.168640 0.700662 0.836850
O O4 0.144534 0.055251 0.735656
O O5 0.060422 0.093798 0.070938
O O6 0.000000 0.500000 0.000000
O O7 0.948282 0.176253 0.027719
O O8 0.843094 0.816627 0.364220
O O9 0.746839 0.805515 0.193677
O O10 0.636433 0.273325 0.548947
O O11 0.750000 0.750000 0.500000
O O12 0.782125 0.616182 0.421725
O O13 0.765087 0.116714 0.424808
#
# Coordination Sequence:
#
# PCOD9262459 Si02
#       6
#     8   8   8   8   8   8
#     4   9  18  33  53  78 104 144 185 217 273 333
#     4  10  19  33  52  77 117 153 183 210 263 344
#     4   9  18  32  48  77 113 139 172 216 273 339
#     4  10  21  32  51  82 115 152 178 217 272 343
#     4  10  21  39  59  81 105 142 192 250 292 323
#     4  10  22  34  56  84 111 142 185 233 287 337
#
# _framework density 20.104842000000001
#
# number of rings (size 3 to 8) (size 9 to 14) (size 15 to 20)
#    0.000    2.333    1.667    0.500    2.333    6.667 
#    0.000    0.000    0.000    1.000    0.000    0.000 
#    0.000    0.000    0.000    0.000    0.000    0.000 
#
# Total GULP energy -133768.652698 kJ/mol
# GULP energy per Si atom -5573.693862 kJ/mol
# Density = 2.005908 g / cm^3
# Si number density = 20.104842 Si / 1000 Ang^3
#
#
#
# Elastic Constant Matrix: (Units=GPa)
#
#
# Indices 1 2 3 4 5 6 
#
# 1 55.4173 7.9209 40.8934 0.0022 15.8004 0.0161
# 2 7.9209 60.1771 15.0487 0.0072 0.3385 0.0597
# 3 40.8934 15.0487 135.5252 -0.0009 13.3713 0.0160
# 4 0.0022 0.0072 -0.0009 25.5262 -0.0029 6.4868
# 5 15.8004 0.3385 13.3713 -0.0029 28.3068 0.0041
# 6 0.0161 0.0597 0.0160 6.4868 0.0041 21.2340
#
#
#
# Elastic Compliance Matrix: (Units=1/GPa)
#
#
# Indices 1 2 3 4 5 6 
#
# 1 0.026531 -0.001761 -0.006661 -0.000001 -0.011642 -0.000007
# 2 -0.001761 0.017223 -0.001529 0.000008 0.001499 -0.000049
# 3 -0.006661 -0.001529 0.009639 0.000001 -0.000817 0.000002
# 4 -0.000001 0.000008 0.000001 0.042473 0.000007 -0.012975
# 5 -0.011642 0.001499 -0.000817 0.000007 0.042193 -0.000005
# 6 -0.000007 -0.000049 0.000002 -0.012975 -0.000005 0.051058
#
#
# Mechanical properties :
#
#
# Convention : Reuss Voigt Hill
#
# Bulk Modulus (GPa) = 29.85868 42.09394 35.97631
# Shear Modulus (GPa) = 22.70822 27.49717 25.10270
#
# Velocity S-wave (km/s) = 3.36443 3.70224 3.53737
# Velocity P-wave (km/s) = 5.47506 6.26563 5.88364
#
# Compressibility (1/GPa) = 0.03349110
#
# Stress axis : x y z
#
# Youngs Moduli (GPa) = 37.69119 58.06054 103.74424
#
# Poissons Ratio (x) = 0.10224 0.69109
# Poissons Ratio (y) = 0.06637 0.15863
# Poissons Ratio (z) = 0.25108 0.08878
#
# Static dielectric constant tensor:
#      x y z
#    x 1.721490 -0.000020 0.072630 
#    y -0.000020 1.806840 -0.000020 
#    z 0.072630 -0.000020 1.802340 
# 
# From -- ./inp_files/220998.got.cif
#   From: 2010.05.17/outbox.cif.g08.bks.cpg/sg15_111_cif.got.tgz:220998.got - 2010.06.03 18:47:42.
