data_PCOD9262169
_publ_section_title
;
Structure prediction by ZEFSAII (Michael W. Deem and Ramdas Pophale) SiO2 
 PCOD9262169
Probable space group: C 2/C
;
_chemical_formula_sum "Si O2"
_cell_formula_units_Z 56
_cell_length_a 13.260053
_cell_length_b 16.882415
_cell_length_c 15.084403
_cell_angle_alpha 90.000000
_cell_angle_beta 125.555647
_cell_angle_gamma 90.000000
_cell_volume 2747.216065
_symmetry_space_group_name_H-M "C 2/C"
_symmetry_group_IT_number 15
_symmetry_cell_setting 'monoclinic'
loop_
_space_group_symop_operation_xyz
x,y,z
-x,y,1/2-z
-x,-y,-z
x,-y,1/2+z
1/2+x,1/2+y,z
1/2-x,1/2+y,1/2-z
1/2-x,1/2-y,-z
1/2+x,1/2-y,1/2+z
loop_
_atom_site_type_symbol
_atom_site_label
_atom_site_fract_x
_atom_site_fract_y
_atom_site_fract_z
Si Si1 0.676423 0.214078 0.681007
Si Si2 0.948518 0.802826 0.629289
Si Si3 0.723210 0.159858 0.895430
Si Si4 0.121877 0.754062 0.365247
Si Si5 0.873701 0.460728 0.402096
Si Si6 0.255429 0.390655 0.002172
Si Si7 0.641947 0.012451 0.298791
O O1 0.570784 0.279263 0.638287
O O2 0.746615 0.198068 0.810240
O O3 0.772781 0.238175 0.655767
O O4 0.613169 0.129967 0.624244
O O5 0.845363 0.848162 0.518797
O O6 0.876247 0.720338 0.613664
O O7 0.000000 0.835609 0.750000
O O8 0.660956 0.075489 0.847185
O O9 0.153832 0.680731 0.444564
O O10 0.123040 0.838849 0.415715
O O11 0.000000 0.738394 0.250000
O O12 0.779365 0.450567 0.436324
O O13 0.835267 0.509030 0.294700
O O14 0.000000 0.500000 0.500000
O O15 0.238957 0.433520 0.900798
O O16 0.500000 0.036308 0.250000
#
# Coordination Sequence:
#
# PCOD9262169 Si02
#       7
#     8   8   8   8   8   8   8
#     4   9  19  34  55  82 112 152 195 240 301 348
#     4   9  17  33  52  82 118 151 195 238 294 359
#     4   9  18  31  54  84 116 152 185 248 307 350
#     4  10  22  40  60  83 118 158 207 249 296 360
#     4  10  19  32  54  87 113 140 188 246 294 346
#     4  10  22  38  58  88 116 155 200 252 304 348
#     4  11  19  34  57  85 117 149 192 245 303 352
#
# _framework density 20.384270999999998
#
# number of rings (size 3 to 8) (size 9 to 14) (size 15 to 20)
#    0.000    2.286    1.429    2.571    0.000    3.429 
#    0.000    3.571    0.000   12.000    0.000    0.000 
#    0.000    0.000    0.000    0.000    0.000    0.000 
#
# Total GULP energy -156095.490971 kJ/mol
# GULP energy per Si atom -5574.838963 kJ/mol
# Density = 2.033788 g / cm^3
# Si number density = 20.384271 Si / 1000 Ang^3
#
#
#
# Elastic Constant Matrix: (Units=GPa)
#
#
# Indices 1 2 3 4 5 6 
#
# 1 52.1475 9.5963 37.3614 0.0000 -11.2520 0.0000
# 2 9.5963 30.8051 13.4896 0.0000 -10.9707 0.0000
# 3 37.3614 13.4896 117.4227 0.0000 -8.3287 0.0000
# 4 0.0000 0.0000 0.0000 39.9046 0.0000 -2.6100
# 5 -11.2520 -10.9707 -8.3287 0.0000 26.6367 0.0000
# 6 0.0000 0.0000 0.0000 -2.6100 0.0000 12.3880
#
#
#
# Elastic Compliance Matrix: (Units=1/GPa)
#
#
# Indices 1 2 3 4 5 6 
#
# 1 0.026837 -0.002110 -0.007725 0.000000 0.008052 0.000000
# 2 -0.002110 0.039528 -0.002841 0.000000 0.014500 0.000000
# 3 -0.007725 -0.002841 0.011235 0.000000 -0.000921 0.000000
# 4 0.000000 0.000000 0.000000 0.025410 0.000000 0.005353
# 5 0.008052 0.014500 -0.000921 0.000000 0.046628 0.000000
# 6 0.000000 0.000000 0.000000 0.005353 0.000000 0.081851
#
#
# Mechanical properties :
#
#
# Convention : Reuss Voigt Hill
#
# Bulk Modulus (GPa) = 19.13968 35.69664 27.41816
# Shear Modulus (GPa) = 18.23106 25.11439 21.67273
#
# Velocity S-wave (km/s) = 2.99384 3.51386 3.26423
# Velocity P-wave (km/s) = 4.62176 5.83205 5.26182
#
# Compressibility (1/GPa) = 0.05224747
#
# Stress axis : x y z
#
# Youngs Moduli (GPa) = 37.26200 25.29881 89.00413
#
# Poissons Ratio (x) = 0.05337 0.68760
# Poissons Ratio (y) = 0.07861 0.25288
# Poissons Ratio (z) = 0.28787 0.07188
#
# Static dielectric constant tensor:
#      x y z
#    x 1.720390 0.000000 -0.034660 
#    y 0.000000 1.740870 0.000000 
#    z -0.034660 0.000000 1.784030 
# 
# From -- ./inp_files/155236.got.cif
#   From: 2010.05.17/outbox.cif.g08.bks.cpg/sg15_78_cif.got.tgz:155236.got - 2010.06.03 18:47:42.
