data_PCOD9262084
_publ_section_title
;
Structure prediction by ZEFSAII (Michael W. Deem and Ramdas Pophale) SiO2 
 PCOD9262084
Probable space group: C 2/C
;
_chemical_formula_sum "Si O2"
_cell_formula_units_Z 60
_cell_length_a 27.478761
_cell_length_b 19.041204
_cell_length_c 8.617044
_cell_angle_alpha 90.000000
_cell_angle_beta 41.969523
_cell_angle_gamma 90.000000
_cell_volume 3015.116218
_symmetry_space_group_name_H-M "C 2/C"
_symmetry_group_IT_number 15
_symmetry_cell_setting 'monoclinic'
loop_
_space_group_symop_operation_xyz
x,y,z
-x,y,1/2-z
-x,-y,-z
x,-y,1/2+z
1/2+x,1/2+y,z
1/2-x,1/2+y,1/2-z
1/2-x,1/2-y,-z
1/2+x,1/2-y,1/2+z
loop_
_atom_site_type_symbol
_atom_site_label
_atom_site_fract_x
_atom_site_fract_y
_atom_site_fract_z
Si Si1 0.924264 0.905834 0.975452
Si Si2 0.500000 0.348027 0.250000
Si Si3 0.984039 0.710916 0.120982
Si Si4 0.801835 0.838787 0.467936
Si Si5 0.284359 0.359876 0.865330
Si Si6 0.156676 0.305919 0.730119
Si Si7 0.398825 0.548399 0.190997
Si Si8 0.353379 0.226637 0.882820
O O1 0.902377 0.938069 0.863840
O O2 0.000000 0.868454 0.750000
O O3 0.863596 0.861026 0.202385
O O4 0.930435 0.972626 0.074157
O O5 0.462623 0.291508 0.221633
O O6 0.446827 0.396298 0.477110
O O7 0.000000 0.675176 0.250000
O O8 0.920897 0.678791 0.164363
O O9 0.062631 0.716370 0.857318
O O10 0.808195 0.862136 0.628912
O O11 0.808505 0.754539 0.459698
O O12 0.722632 0.860982 0.589659
O O13 0.314368 0.434555 0.852716
O O14 0.324891 0.299574 0.873287
O O15 0.200731 0.333576 0.057207
O O16 0.149801 0.278031 0.923207
#
# Coordination Sequence:
#
# PCOD9262084 Si02
#       8
#     8   4   8   8   8   8   8   8
#     4  12  27  36  57  77 105 146 190 231 271 323
#     4  10  22  34  54  76 110 150 182 222 278 314
#     4  10  20  31  52  80 108 144 176 227 269 326
#     4  10  22  36  52  76 104 143 180 228 277 323
#     4  10  20  36  53  72 111 142 182 226 276 330
#     4  10  20  34  53  76 109 138 181 226 273 334
#     4  12  23  40  52  76 107 149 188 229 271 327
#     4  10  19  32  53  80 103 146 180 223 278 329
#
# _framework density 19.899730000000002
#
# number of rings (size 3 to 8) (size 9 to 14) (size 15 to 20)
#    0.400    1.067    2.000    4.000    3.733    3.200 
#    0.000    0.000    0.000    0.000    0.000    0.933 
#    0.000    0.000    0.000    0.000    0.000    0.000 
#
# Total GULP energy -167184.921833 kJ/mol
# GULP energy per Si atom -5572.830728 kJ/mol
# Density = 1.985444 g / cm^3
# Si number density = 19.899730 Si / 1000 Ang^3
#
#
#
# Elastic Constant Matrix: (Units=GPa)
#
#
# Indices 1 2 3 4 5 6 
#
# 1 142.5367 1.4891 51.2376 0.0000 -15.7048 0.0000
# 2 1.4891 15.8284 12.4135 0.0000 -6.5426 0.0000
# 3 51.2376 12.4135 112.4331 0.0000 -9.2698 0.0000
# 4 0.0000 0.0000 0.0000 18.4935 0.0000 0.4126
# 5 -15.7048 -6.5426 -9.2698 0.0000 33.2687 0.0000
# 6 0.0000 0.0000 0.0000 0.4126 0.0000 20.4964
#
#
#
# Elastic Compliance Matrix: (Units=1/GPa)
#
#
# Indices 1 2 3 4 5 6 
#
# 1 0.008900 0.004027 -0.004185 0.000000 0.003827 0.000000
# 2 0.004027 0.075783 -0.009024 0.000000 0.014290 0.000000
# 3 -0.004185 -0.009024 0.011758 0.000000 -0.000474 0.000000
# 4 0.000000 0.000000 0.000000 0.054097 0.000000 -0.001089
# 5 0.003827 0.014290 -0.000474 0.000000 0.034543 0.000000
# 6 0.000000 0.000000 0.000000 -0.001089 0.000000 0.048811
#
#
# Mechanical properties :
#
#
# Convention : Reuss Voigt Hill
#
# Bulk Modulus (GPa) = 12.80794 44.56430 28.68612
# Shear Modulus (GPa) = 17.96740 28.16224 23.06482
#
# Velocity S-wave (km/s) = 3.00808 3.76601 3.40818
# Velocity P-wave (km/s) = 4.30290 6.43066 5.47122
#
# Compressibility (1/GPa) = 0.07807660
#
# Stress axis : x y z
#
# Youngs Moduli (GPa) = 112.36448 13.19565 85.04512
#
# Poissons Ratio (x) = -0.05313 0.35589
# Poissons Ratio (y) = -0.45244 0.76743
# Poissons Ratio (z) = 0.47021 0.11907
#
# Static dielectric constant tensor:
#      x y z
#    x 1.816320 0.000000 -0.051920 
#    y 0.000000 1.721400 0.000000 
#    z -0.051920 0.000000 1.742730 
# 
# From -- ./inp_files/70765.got.cif
#   From: 2010.05.17/outbox.cif.g08.bks.cpg/sg15_36_cif.got.tgz:70765.got - 2010.06.03 18:47:42.
