data_PCOD9262874
_publ_section_title
;
Structure prediction by ZEFSAII (Michael W. Deem and Ramdas Pophale) SiO2 
 PCOD9262874
Probable space group: C 2/C
;
_chemical_formula_sum "Si O2"
_cell_formula_units_Z 56
_cell_length_a 15.752302
_cell_length_b 20.298108
_cell_length_c 22.439446
_cell_angle_alpha 90.000000
_cell_angle_beta 157.965124
_cell_angle_gamma 90.000000
_cell_volume 2691.788083
_symmetry_space_group_name_H-M "C 2/C"
_symmetry_group_IT_number 15
_symmetry_cell_setting 'monoclinic'
loop_
_space_group_symop_operation_xyz
x,y,z
-x,y,1/2-z
-x,-y,-z
x,-y,1/2+z
1/2+x,1/2+y,z
1/2-x,1/2+y,1/2-z
1/2-x,1/2-y,-z
1/2+x,1/2-y,1/2+z
loop_
_atom_site_type_symbol
_atom_site_label
_atom_site_fract_x
_atom_site_fract_y
_atom_site_fract_z
Si Si1 0.419069 0.175472 0.060983
Si Si2 0.391257 0.536792 0.984104
Si Si3 0.000000 0.623464 0.750000
Si Si4 0.163971 0.210927 0.080706
Si Si5 0.251045 0.906153 0.557585
Si Si6 0.319602 0.364389 0.752159
Si Si7 0.857562 0.768045 0.493418
Si Si8 0.000000 0.154539 0.250000
O O1 0.612680 0.202992 0.232681
O O2 0.270565 0.128032 0.005835
O O3 0.559440 0.137453 0.100877
O O4 0.303724 0.234702 0.949912
O O5 0.159715 0.574748 0.816535
O O6 0.340197 0.480025 0.999271
O O7 0.500000 0.500000 0.000000
O O8 0.561242 0.590420 0.121076
O O9 0.179193 0.674250 0.893815
O O10 0.118634 0.143131 0.015811
O O11 0.959741 0.227344 0.993056
O O12 0.500000 0.909122 0.750000
O O13 0.403718 0.386245 0.742571
O O14 0.423960 0.289892 0.826264
O O15 0.714366 0.701709 0.406081
#
# Coordination Sequence:
#
# PCOD9262874 Si02
#       8
#     8   8   4   8   8   8   8   4
#     4  10  20  36  56  87 114 149 190 236 295 350
#     4  11  20  35  56  83 111 145 192 245 286 338
#     4   9  18  30  50  80 108 139 180 228 284 335
#     4  10  19  35  56  85 118 145 189 237 291 351
#     4  10  19  33  57  82 111 148 187 242 289 338
#     4  10  21  33  55  81 110 150 187 231 289 346
#     4   9  18  32  51  82 110 144 181 225 287 343
#     4  11  18  34  54  74 114 141 182 232 290 337
#
# _framework density 20.804015
#
# number of rings (size 3 to 8) (size 9 to 14) (size 15 to 20)
#    0.000    2.000    2.143    4.286    0.000    0.000 
#    0.000    0.000    3.143    0.857    0.000    0.000 
#    0.000    0.000    0.000    0.000    0.000    0.000 
#
# Total GULP energy -156031.930997 kJ/mol
# GULP energy per Si atom -5572.568964 kJ/mol
# Density = 2.075666 g / cm^3
# Si number density = 20.804015 Si / 1000 Ang^3
#
#
#
# Elastic Constant Matrix: (Units=GPa)
#
#
# Indices 1 2 3 4 5 6 
#
# 1 119.0614 18.9103 15.1400 0.0126 11.8252 -0.0036
# 2 18.9103 48.8492 6.7709 0.0433 0.2969 -0.0044
# 3 15.1400 6.7709 26.8350 -0.0057 7.4838 -0.0088
# 4 0.0126 0.0433 -0.0057 22.2338 -0.0008 10.0306
# 5 11.8252 0.2969 7.4838 -0.0008 23.8816 -0.0092
# 6 -0.0036 -0.0044 -0.0088 10.0306 -0.0092 24.4624
#
#
#
# Elastic Compliance Matrix: (Units=1/GPa)
#
#
# Indices 1 2 3 4 5 6 
#
# 1 0.009741 -0.003241 -0.003664 0.000001 -0.003635 -0.000002
# 2 -0.003241 0.022344 -0.004580 -0.000054 0.002762 0.000025
# 3 -0.003664 -0.004580 0.043793 0.000021 -0.011852 0.000001
# 4 0.000001 -0.000054 0.000021 0.055185 -0.000013 -0.022628
# 5 -0.003635 0.002762 -0.011852 -0.000013 0.047353 0.000019
# 6 -0.000002 0.000025 0.000001 -0.022628 0.000019 0.050158
#
#
# Mechanical properties :
#
#
# Convention : Reuss Voigt Hill
#
# Bulk Modulus (GPa) = 18.90067 30.70978 24.80523
# Shear Modulus (GPa) = 18.57506 24.37719 21.47613
#
# Velocity S-wave (km/s) = 2.99132 3.42680 3.21644
# Velocity P-wave (km/s) = 4.58644 5.51823 5.07377
#
# Compressibility (1/GPa) = 0.05290817
#
# Stress axis : x y z
#
# Youngs Moduli (GPa) = 102.66205 44.75527 22.83472
#
# Poissons Ratio (x) = 0.14504 0.08367
# Poissons Ratio (y) = 0.33271 0.10457
# Poissons Ratio (z) = 0.37618 0.20496
#
# Static dielectric constant tensor:
#      x y z
#    x 1.823390 0.000000 0.002210 
#    y 0.000000 1.763490 -0.000010 
#    z 0.002210 -0.000010 1.787370 
# 
# From -- ./inp_files/299388.got.cif
#   From: 2010.05.17/outbox.cif.g08.bks.cpg/sg15_150_cif.got.tgz:299388.got - 2010.06.03 18:47:42.
