data_PCOD9262196
_publ_section_title
;
Structure prediction by ZEFSAII (Michael W. Deem and Ramdas Pophale) SiO2 
 PCOD9262196
Probable space group: C 2/C
;
_chemical_formula_sum "Si O2"
_cell_formula_units_Z 64
_cell_length_a 13.134366
_cell_length_b 22.113094
_cell_length_c 14.108937
_cell_angle_alpha 90.000000
_cell_angle_beta 136.855609
_cell_angle_gamma 90.000000
_cell_volume 2802.250536
_symmetry_space_group_name_H-M "C 2/C"
_symmetry_group_IT_number 15
_symmetry_cell_setting 'monoclinic'
loop_
_space_group_symop_operation_xyz
x,y,z
-x,y,1/2-z
-x,-y,-z
x,-y,1/2+z
1/2+x,1/2+y,z
1/2-x,1/2+y,1/2-z
1/2-x,1/2-y,-z
1/2+x,1/2-y,1/2+z
loop_
_atom_site_type_symbol
_atom_site_label
_atom_site_fract_x
_atom_site_fract_y
_atom_site_fract_z
Si Si1 0.063445 0.129898 0.010900
Si Si2 0.072885 0.243445 0.894112
Si Si3 0.719247 0.084825 0.952598
Si Si4 0.775404 0.557395 0.032006
Si Si5 0.151192 0.960044 0.246947
Si Si6 0.340025 0.401305 0.731422
Si Si7 0.511952 0.869871 0.585966
Si Si8 0.392082 0.898845 0.315410
O O1 0.042406 0.195923 0.955597
O O2 0.218506 0.102362 0.074254
O O3 0.949990 0.082222 0.886492
O O4 0.064069 0.132551 0.124419
O O5 0.995475 0.307379 0.862859
O O6 0.000000 0.217337 0.750000
O O7 0.250000 0.250000 0.000000
O O8 0.705597 0.118867 0.842820
O O9 0.554821 0.088656 0.886456
O O10 0.828000 0.108061 0.109919
O O11 0.738063 0.012724 0.947801
O O12 0.669829 0.562800 0.867038
O O13 0.933581 0.578975 0.097580
O O14 0.313678 0.957095 0.308294
O O15 0.108669 0.029466 0.221095
O O16 0.171531 0.389898 0.655134
O O17 0.411253 0.858165 0.422042
#
# Coordination Sequence:
#
# PCOD9262196 Si02
#       8
#     8   8   8   8   8   8   8   8
#     4  12  23  36  56  85 128 169 198 244 308 374
#     4  12  25  42  62  91 126 171 213 249 299 368
#     4   9  18  34  58  86 113 148 196 261 311 362
#     4  10  19  32  55  85 122 157 195 243 308 371
#     4  10  20  35  54  85 122 160 199 246 310 379
#     4  10  21  36  55  86 119 156 207 253 306 365
#     4  10  21  37  59  86 118 162 208 255 298 363
#     4   9  18  35  57  84 110 152 199 251 313 348
#
# _framework density 22.838785999999999
#
# number of rings (size 3 to 8) (size 9 to 14) (size 15 to 20)
#    0.000    1.750    1.250    3.750    1.750    4.000 
#    0.000    1.875    0.000    0.750    6.500    0.000 
#    0.000    0.000    0.000    0.000    0.000    0.000 
#
# Total GULP energy -178731.019147 kJ/mol
# GULP energy per Si atom -5585.344348 kJ/mol
# Density = 2.278680 g / cm^3
# Si number density = 22.838786 Si / 1000 Ang^3
#
#
#
# Elastic Constant Matrix: (Units=GPa)
#
#
# Indices 1 2 3 4 5 6 
#
# 1 95.2309 9.6622 20.7323 0.0000 -12.3805 0.0000
# 2 9.6622 58.0079 25.3896 0.0000 -8.2943 0.0000
# 3 20.7323 25.3896 137.1677 0.0000 -36.4587 0.0000
# 4 0.0000 0.0000 0.0000 22.2402 0.0000 -4.9439
# 5 -12.3805 -8.2943 -36.4587 0.0000 45.8596 0.0000
# 6 0.0000 0.0000 0.0000 -4.9439 0.0000 26.5131
#
#
#
# Elastic Compliance Matrix: (Units=1/GPa)
#
#
# Indices 1 2 3 4 5 6 
#
# 1 0.011084 -0.001151 -0.000916 0.000000 0.002056 0.000000
# 2 -0.001151 0.018902 -0.003168 0.000000 0.000589 0.000000
# 3 -0.000916 -0.003168 0.009886 0.000000 0.007039 0.000000
# 4 0.000000 0.000000 0.000000 0.046908 0.000000 0.008747
# 5 0.002056 0.000589 0.007039 0.000000 0.028064 0.000000
# 6 0.000000 0.000000 0.000000 0.008747 0.000000 0.039348
#
#
# Mechanical properties :
#
#
# Convention : Reuss Voigt Hill
#
# Bulk Modulus (GPa) = 34.01162 44.66386 39.33774
# Shear Modulus (GPa) = 28.65933 34.56406 31.61169
#
# Velocity S-wave (km/s) = 3.54623 3.89446 3.72442
# Velocity P-wave (km/s) = 5.62957 6.31039 5.97968
#
# Compressibility (1/GPa) = 0.02940172
#
# Stress axis : x y z
#
# Youngs Moduli (GPa) = 90.21787 52.90526 101.15096
#
# Poissons Ratio (x) = 0.06092 0.09262
# Poissons Ratio (y) = 0.10389 0.32045
# Poissons Ratio (z) = 0.08261 0.16761
#
# Static dielectric constant tensor:
#      x y z
#    x 1.885400 0.000000 0.053530 
#    y 0.000000 1.770960 0.000000 
#    z 0.053530 0.000000 1.963040 
# 
# From -- ./inp_files/156822.got.cif
#   From: 2010.05.17/outbox.cif.g08.bks.cpg/sg15_79_cif.got.tgz:156822.got - 2010.06.03 18:47:42.
