data_PCOD9262884
_publ_section_title
;
Structure prediction by ZEFSAII (Michael W. Deem and Ramdas Pophale) SiO2 
 PCOD9262884
Probable space group: C 2/C
;
_chemical_formula_sum "Si O2"
_cell_formula_units_Z 56
_cell_length_a 25.988154
_cell_length_b 23.400425
_cell_length_c 13.356170
_cell_angle_alpha 90.000000
_cell_angle_beta 19.172125
_cell_angle_gamma 90.000000
_cell_volume 2667.434295
_symmetry_space_group_name_H-M "C 2/C"
_symmetry_group_IT_number 15
_symmetry_cell_setting 'monoclinic'
loop_
_space_group_symop_operation_xyz
x,y,z
-x,y,1/2-z
-x,-y,-z
x,-y,1/2+z
1/2+x,1/2+y,z
1/2-x,1/2+y,1/2-z
1/2-x,1/2-y,-z
1/2+x,1/2-y,1/2+z
loop_
_atom_site_type_symbol
_atom_site_label
_atom_site_fract_x
_atom_site_fract_y
_atom_site_fract_z
Si Si1 0.599269 0.916853 0.766183
Si Si2 0.140499 0.165046 0.924679
Si Si3 0.923871 0.814392 0.644062
Si Si4 0.157582 0.069346 0.257162
Si Si5 0.391111 0.549441 0.592289
Si Si6 0.996351 0.466006 0.375232
Si Si7 0.626168 0.189987 0.844822
O O1 0.759100 0.929992 0.414347
O O2 0.491628 0.968321 0.919196
O O3 0.625526 0.930524 0.835082
O O4 0.510656 0.857118 0.914066
O O5 0.137728 0.095907 0.939921
O O6 0.300305 0.186494 0.678864
O O7 0.000000 0.189797 0.250000
O O8 0.080836 0.178231 0.922541
O O9 0.896226 0.866916 0.618956
O O10 0.926776 0.753461 0.586332
O O11 0.773688 0.820250 0.996529
O O12 0.056727 0.055978 0.342906
O O13 0.129636 0.017817 0.386963
O O14 0.338802 0.063142 0.897826
O O15 0.000000 0.463366 0.250000
#
# Coordination Sequence:
#
# PCOD9262884 Si02
#       7
#     8   8   8   8   8   8   8
#     4  10  21  36  56  89 122 148 200 256 301 346
#     4   9  19  35  57  87 111 153 209 240 295 369
#     4   9  18  36  54  81 114 153 203 241 293 362
#     4   9  17  36  54  80 114 153 186 241 297 359
#     4   9  19  34  60  85 115 151 192 253 308 353
#     4  10  21  37  57  86 121 158 196 246 308 371
#     4  10  19  33  57  83 115 158 194 253 295 350
#
# _framework density 20.993957000000002
#
# number of rings (size 3 to 8) (size 9 to 14) (size 15 to 20)
#    0.000    2.571    1.429    0.000    4.000    0.000 
#    2.571    3.571    0.000    0.000    3.714    0.000 
#    0.000    0.000    0.000    0.000    0.000    0.000 
#
# Total GULP energy -155918.350103 kJ/mol
# GULP energy per Si atom -5568.512504 kJ/mol
# Density = 2.094617 g / cm^3
# Si number density = 20.993957 Si / 1000 Ang^3
#
#
#
# Elastic Constant Matrix: (Units=GPa)
#
#
# Indices 1 2 3 4 5 6 
#
# 1 75.5134 56.7034 34.9021 -0.0009 -4.9610 0.0023
# 2 56.7034 178.4042 26.6846 -0.0126 -18.0510 0.0022
# 3 34.9021 26.6846 34.6218 -0.0208 2.5338 0.0044
# 4 -0.0009 -0.0126 -0.0208 28.2042 0.0025 -0.1347
# 5 -4.9610 -18.0510 2.5338 0.0025 20.9952 -0.0037
# 6 0.0023 0.0022 0.0044 -0.1347 -0.0037 26.5553
#
#
#
# Elastic Compliance Matrix: (Units=1/GPa)
#
#
# Indices 1 2 3 4 5 6 
#
# 1 0.029467 -0.004800 -0.026447 -0.000021 0.006027 0.000003
# 2 -0.004800 0.007996 -0.001760 0.000002 0.005953 0.000001
# 3 -0.026447 -0.001760 0.057981 0.000042 -0.014760 -0.000009
# 4 -0.000021 0.000002 0.000042 0.035457 -0.000013 0.000180
# 5 0.006027 0.005953 -0.014760 -0.000013 0.055954 0.000009
# 6 0.000003 0.000001 -0.000009 0.000180 0.000009 0.037658
#
#
# Mechanical properties :
#
#
# Convention : Reuss Voigt Hill
#
# Bulk Modulus (GPa) = 33.97818 58.34661 46.16240
# Shear Modulus (GPa) = 16.64798 26.50089 21.57444
#
# Velocity S-wave (km/s) = 2.81906 3.55676 3.20918
# Velocity P-wave (km/s) = 5.17842 6.68728 5.98063
#
# Compressibility (1/GPa) = 0.02943065
#
# Stress axis : x y z
#
# Youngs Moduli (GPa) = 33.93675 125.05491 17.24699
#
# Poissons Ratio (x) = 0.60026 0.45613
# Poissons Ratio (y) = 0.16290 0.03036
# Poissons Ratio (z) = 0.89751 0.22011
#
# Static dielectric constant tensor:
#      x y z
#    x 1.815600 0.000000 0.042390 
#    y 0.000000 1.784660 0.000010 
#    z 0.042390 0.000010 1.805120 
# 
# From -- ./inp_files/179192.got.cif
#   From: 2010.05.17/outbox.cif.g08.bks.cpg/sg15_90_cif.got.tgz:179192.got - 2010.06.03 18:47:42.
