data_PCOD9262482
_publ_section_title
;
Structure prediction by ZEFSAII (Michael W. Deem and Ramdas Pophale) SiO2 
 PCOD9262482
Probable space group: C 2/C
;
_chemical_formula_sum "Si O2"
_cell_formula_units_Z 60
_cell_length_a 24.312160
_cell_length_b 18.557643
_cell_length_c 15.478539
_cell_angle_alpha 90.000000
_cell_angle_beta 29.685901
_cell_angle_gamma 90.000000
_cell_volume 3458.568198
_symmetry_space_group_name_H-M "C 2/C"
_symmetry_group_IT_number 15
_symmetry_cell_setting 'monoclinic'
loop_
_space_group_symop_operation_xyz
x,y,z
-x,y,1/2-z
-x,-y,-z
x,-y,1/2+z
1/2+x,1/2+y,z
1/2-x,1/2+y,1/2-z
1/2-x,1/2-y,-z
1/2+x,1/2-y,1/2+z
loop_
_atom_site_type_symbol
_atom_site_label
_atom_site_fract_x
_atom_site_fract_y
_atom_site_fract_z
Si Si1 0.572681 0.411356 0.570044
Si Si2 0.690176 0.938070 0.172621
Si Si3 0.042183 0.840726 0.929906
Si Si4 0.685619 0.926384 0.791225
Si Si5 0.992448 0.687290 0.571073
Si Si6 0.500000 0.813292 0.250000
Si Si7 0.219946 0.588623 0.437867
Si Si8 0.441299 0.419064 0.417477
O O1 0.500000 0.384763 0.750000
O O2 0.699166 0.412867 0.428883
O O3 0.545189 0.368163 0.521748
O O4 0.540577 0.495044 0.597593
O O5 0.601520 0.874041 0.299031
O O6 0.647620 0.008978 0.280691
O O7 0.720384 0.951705 0.029973
O O8 0.035348 0.754857 0.950294
O O9 0.165026 0.867167 0.730597
O O10 0.018286 0.879322 0.052629
O O11 0.700418 0.950873 0.872076
O O12 0.809245 0.906849 0.592078
O O13 0.604586 0.857595 0.900275
O O14 0.995649 0.722731 0.662830
O O15 0.388143 0.860684 0.407737
O O16 0.500000 0.395431 0.250000
#
# Coordination Sequence:
#
# PCOD9262482 Si02
#       8
#     8   8   8   8   8   4   8   8
#     4  10  19  33  52  83 107 135 176 222 273 320
#     4  10  19  34  55  79 112 144 184 222 261 327
#     4  11  21  33  55  80 115 138 177 226 274 335
#     4   9  19  37  56  78 107 142 184 226 266 326
#     4  10  21  33  54  79 111 148 177 218 277 323
#     4   8  18  32  48  76 110 142 174 210 268 336
#     4   9  18  33  53  80 106 144 177 221 280 315
#     4   9  20  38  58  75 102 143 181 227 274 315
#
# _framework density 17.348219
#
# number of rings (size 3 to 8) (size 9 to 14) (size 15 to 20)
#    0.000    2.400    1.333    0.800    0.933    5.333 
#    0.000    0.667    2.933    0.000    0.000    0.000 
#    0.000    0.000    0.000    0.000    0.000    0.000 
#
# Total GULP energy -167098.270679 kJ/mol
# GULP energy per Si atom -5569.942356 kJ/mol
# Density = 1.730873 g / cm^3
# Si number density = 17.348219 Si / 1000 Ang^3
#
#
#
# Elastic Constant Matrix: (Units=GPa)
#
#
# Indices 1 2 3 4 5 6 
#
# 1 93.5742 47.2337 39.2101 0.0000 24.1519 0.0000
# 2 47.2337 76.7858 32.0105 0.0000 21.1138 0.0000
# 3 39.2101 32.0105 83.9387 0.0000 21.3052 0.0000
# 4 0.0000 0.0000 0.0000 10.8421 0.0000 9.5688
# 5 24.1519 21.1138 21.3052 0.0000 22.9045 0.0000
# 6 0.0000 0.0000 0.0000 9.5688 0.0000 19.1538
#
#
#
# Elastic Compliance Matrix: (Units=1/GPa)
#
#
# Indices 1 2 3 4 5 6 
#
# 1 0.018138 -0.007178 -0.003352 0.000000 -0.009392 0.000000
# 2 -0.007178 0.021043 -0.002185 0.000000 -0.009797 0.000000
# 3 -0.003352 -0.002185 0.016892 0.000000 -0.010164 0.000000
# 4 0.000000 0.000000 0.000000 0.164969 0.000000 -0.082415
# 5 -0.009392 -0.009797 -0.010164 0.000000 0.072048 0.000000
# 6 0.000000 0.000000 0.000000 -0.082415 0.000000 0.093382
#
#
# Mechanical properties :
#
#
# Convention : Reuss Voigt Hill
#
# Bulk Modulus (GPa) = 32.63286 54.57861 43.60573
# Shear Modulus (GPa) = 11.84502 19.63636 15.74069
#
# Velocity S-wave (km/s) = 2.61584 3.36801 3.01547
# Velocity P-wave (km/s) = 5.28912 6.83035 6.10854
#
# Compressibility (1/GPa) = 0.03064396
#
# Stress axis : x y z
#
# Youngs Moduli (GPa) = 55.13147 47.52072 59.19805
#
# Poissons Ratio (x) = 0.34110 0.19842
# Poissons Ratio (y) = 0.39572 0.12938
# Poissons Ratio (z) = 0.18479 0.10386
#
# Static dielectric constant tensor:
#      x y z
#    x 1.617030 0.000000 0.001030 
#    y 0.000000 1.577210 0.000000 
#    z 0.001030 0.000000 1.586270 
# 
# From -- ./inp_files/174096.got.cif
#   From: 2010.05.17/outbox.cif.g08.bks.cpg/sg15_88_cif.got.tgz:174096.got - 2010.06.03 18:47:42.
