data_PCOD9262689
_publ_section_title
;
Structure prediction by ZEFSAII (Michael W. Deem and Ramdas Pophale) SiO2 
 PCOD9262689
Probable space group: C 2/C
;
_chemical_formula_sum "Si O2"
_cell_formula_units_Z 32
_cell_length_a 6.568412
_cell_length_b 34.685759
_cell_length_c 8.939212
_cell_angle_alpha 90.000000
_cell_angle_beta 35.478227
_cell_angle_gamma 90.000000
_cell_volume 1182.043328
_symmetry_space_group_name_H-M "C 2/C"
_symmetry_group_IT_number 15
_symmetry_cell_setting 'monoclinic'
loop_
_space_group_symop_operation_xyz
x,y,z
-x,y,1/2-z
-x,-y,-z
x,-y,1/2+z
1/2+x,1/2+y,z
1/2-x,1/2+y,1/2-z
1/2-x,1/2-y,-z
1/2+x,1/2-y,1/2+z
loop_
_atom_site_type_symbol
_atom_site_label
_atom_site_fract_x
_atom_site_fract_y
_atom_site_fract_z
Si Si1 0.662254 0.847221 0.348885
Si Si2 0.089714 0.040652 0.520553
Si Si3 0.160489 0.733264 0.348779
Si Si4 0.849508 0.119319 0.147174
O O1 0.505750 0.806917 0.499042
O O2 0.351332 0.877297 0.574878
O O3 0.000000 0.856731 0.250000
O O4 0.858334 0.848767 0.071677
O O5 0.967188 0.079024 0.507454
O O6 0.000000 0.041610 0.750000
O O7 0.500000 0.043522 0.250000
O O8 0.000000 0.000000 0.500000
O O9 0.500000 0.740880 0.250000
O O10 0.854340 0.764037 0.572630
O O11 0.500000 0.124697 0.250000
#
# Coordination Sequence:
#
# PCOD9262689 Si02
#       4
#     8   8   8   8
#     4  10  19  33  55  79 103 138 186 232 277 333
#     4  11  22  39  62  88 121 159 199 242 295 354
#     4  10  21  36  52  73 106 144 178 221 284 344
#     4   9  18  34  55  80 111 146 183 231 289 340
#
# _framework density 27.071763000000001
#
# number of rings (size 3 to 8) (size 9 to 14) (size 15 to 20)
#    0.000    2.000    0.000    6.000    0.000    1.000 
#    0.000    3.750    0.000    0.000    0.000    0.000 
#    0.000    0.000    0.000    0.000    0.000    0.000 
#
# Total GULP energy -89451.691634 kJ/mol
# GULP energy per Si atom -5590.730727 kJ/mol
# Density = 2.701015 g / cm^3
# Si number density = 27.071763 Si / 1000 Ang^3
#
#
#
# Elastic Constant Matrix: (Units=GPa)
#
#
# Indices 1 2 3 4 5 6 
#
# 1 70.9385 9.4674 60.6016 0.0000 30.8368 0.0000
# 2 9.4674 182.5001 97.8247 0.0000 13.5347 0.0000
# 3 60.6016 97.8247 298.4896 0.0000 23.8532 0.0000
# 4 0.0000 0.0000 0.0000 58.1384 0.0000 -3.8387
# 5 30.8368 13.5347 23.8532 0.0000 71.3581 0.0000
# 6 0.0000 0.0000 0.0000 -3.8387 0.0000 38.1625
#
#
#
# Elastic Compliance Matrix: (Units=1/GPa)
#
#
# Indices 1 2 3 4 5 6 
#
# 1 0.020895 0.001746 -0.004178 0.000000 -0.007964 0.000000
# 2 0.001746 0.006814 -0.002491 0.000000 -0.001215 0.000000
# 3 -0.004178 -0.002491 0.004965 0.000000 0.000618 0.000000
# 4 0.000000 0.000000 0.000000 0.017315 0.000000 0.001742
# 5 -0.007964 -0.001215 0.000618 0.000000 0.017479 0.000000
# 6 0.000000 0.000000 0.000000 0.001742 0.000000 0.026379
#
#
# Mechanical properties :
#
#
# Convention : Reuss Voigt Hill
#
# Bulk Modulus (GPa) = 43.80330 98.63507 71.21919
# Shear Modulus (GPa) = 44.92258 59.13409 52.02833
#
# Velocity S-wave (km/s) = 4.07798 4.67877 4.38867
# Velocity P-wave (km/s) = 6.19587 8.10565 7.21424
#
# Compressibility (1/GPa) = 0.02282933
#
# Stress axis : x y z
#
# Youngs Moduli (GPa) = 47.85831 146.75712 201.39590
#
# Poissons Ratio (x) = -0.25628 0.84146
# Poissons Ratio (y) = -0.08357 0.50161
# Poissons Ratio (z) = 0.19996 0.36552
#
# Static dielectric constant tensor:
#      x y z
#    x 2.413500 0.000000 0.105570 
#    y 0.000000 2.397300 0.000000 
#    z 0.105570 0.000000 2.048920 
# 
# From -- ./inp_files/148473.got.cif
#   From: 2010.05.17/outbox.cif.g08.bks.cpg/sg15_75_cif.got.tgz:148473.got - 2010.06.03 18:47:42.
