data_PCOD9262781
_publ_section_title
;
Structure prediction by ZEFSAII (Michael W. Deem and Ramdas Pophale) SiO2 
 PCOD9262781
Probable space group: C 2/C
;
_chemical_formula_sum "Si O2"
_cell_formula_units_Z 40
_cell_length_a 16.250284
_cell_length_b 10.285372
_cell_length_c 20.806799
_cell_angle_alpha 90.000000
_cell_angle_beta 140.918331
_cell_angle_gamma 90.000000
_cell_volume 2192.407975
_symmetry_space_group_name_H-M "C 2/C"
_symmetry_group_IT_number 15
_symmetry_cell_setting 'monoclinic'
loop_
_space_group_symop_operation_xyz
x,y,z
-x,y,1/2-z
-x,-y,-z
x,-y,1/2+z
1/2+x,1/2+y,z
1/2-x,1/2+y,1/2-z
1/2-x,1/2-y,-z
1/2+x,1/2-y,1/2+z
loop_
_atom_site_type_symbol
_atom_site_label
_atom_site_fract_x
_atom_site_fract_y
_atom_site_fract_z
Si Si1 0.799076 0.915783 0.072971
Si Si2 0.143176 0.159839 0.307709
Si Si3 0.531689 0.500700 0.127654
Si Si4 0.347232 0.861848 0.643701
Si Si5 0.181396 0.088456 0.600556
O O1 0.800805 0.788072 0.118172
O O2 0.937549 0.920413 0.118535
O O3 0.793691 0.048408 0.109279
O O4 0.689678 0.904161 0.951718
O O5 0.229597 0.287292 0.356858
O O6 0.000000 0.189705 0.250000
O O7 0.117793 0.095292 0.223221
O O8 0.617635 0.414355 0.132180
O O9 0.434016 0.580714 0.022082
O O10 0.500000 0.871103 0.750000
O O11 0.265834 0.957828 0.639937
#
# Coordination Sequence:
#
# PCOD9262781 Si02
#       5
#     8   8   8   8   8
#     4   9  20  36  55  77 105 142 177 211 260 316
#     4  10  20  35  56  79 105 138 176 217 259 308
#     4   9  20  37  54  75 110 142 168 212 270 313
#     4  10  19  33  56  80 105 137 178 218 257 308
#     4  10  21  35  55  80 105 137 177 217 260 310
#
# _framework density 18.244779999999999
#
# number of rings (size 3 to 8) (size 9 to 14) (size 15 to 20)
#    0.000    2.400    0.000    2.400    0.000   12.000 
#    0.000    0.000    0.000   21.600    0.000    0.000 
#    0.000    0.000    0.000    0.000    0.000    0.000 
#
# Total GULP energy -111618.531600 kJ/mol
# GULP energy per Si atom -5580.926580 kJ/mol
# Density = 1.820325 g / cm^3
# Si number density = 18.244780 Si / 1000 Ang^3
#
#
#
# Elastic Constant Matrix: (Units=GPa)
#
#
# Indices 1 2 3 4 5 6 
#
# 1 53.7596 59.2023 24.4453 0.0000 -8.6857 0.0000
# 2 59.2023 136.7275 36.1753 0.0000 4.0665 0.0000
# 3 24.4453 36.1753 68.9889 0.0000 14.9745 0.0000
# 4 0.0000 0.0000 0.0000 17.5844 0.0000 5.7287
# 5 -8.6857 4.0665 14.9745 0.0000 17.9952 0.0000
# 6 0.0000 0.0000 0.0000 5.7287 0.0000 9.7855
#
#
#
# Elastic Compliance Matrix: (Units=1/GPa)
#
#
# Indices 1 2 3 4 5 6 
#
# 1 0.061952 -0.022700 -0.021544 0.000000 0.052960 0.000000
# 2 -0.022700 0.016880 0.002927 0.000000 -0.017207 0.000000
# 3 -0.021544 0.002927 0.028064 0.000000 -0.034413 0.000000
# 4 0.000000 0.000000 0.000000 0.070271 0.000000 -0.041139
# 5 0.052960 -0.017207 -0.034413 0.000000 0.113657 0.000000
# 6 0.000000 0.000000 0.000000 -0.041139 0.000000 0.126276
#
#
# Mechanical properties :
#
#
# Convention : Reuss Voigt Hill
#
# Bulk Modulus (GPa) = 41.21712 55.45797 48.33755
# Shear Modulus (GPa) = 9.84597 18.38322 14.11460
#
# Velocity S-wave (km/s) = 2.32558 3.17770 2.78443
# Velocity P-wave (km/s) = 5.46363 6.62769 6.07361
#
# Compressibility (1/GPa) = 0.02426176
#
# Stress axis : x y z
#
# Youngs Moduli (GPa) = 16.14144 59.24121 35.63315
#
# Poissons Ratio (x) = 1.34477 0.76769
# Poissons Ratio (y) = 0.36641 -0.10429
# Poissons Ratio (z) = 0.34775 -0.17339
#
# Static dielectric constant tensor:
#      x y z
#    x 1.623380 0.000000 -0.007470 
#    y 0.000000 1.612360 0.000000 
#    z -0.007470 0.000000 1.633790 
# 
# From -- ./inp_files/102810.got.cif
#   From: 2010.05.17/outbox.cif.g08.bks.cpg/sg15_52_cif.got.tgz:102810.got - 2010.06.03 18:47:42.
