data_PCOD9262628
_publ_section_title
;
Structure prediction by ZEFSAII (Michael W. Deem and Ramdas Pophale) SiO2 
 PCOD9262628
Probable space group: C 2/C
;
_chemical_formula_sum "Si O2"
_cell_formula_units_Z 48
_cell_length_a 25.899632
_cell_length_b 7.115723
_cell_length_c 16.678757
_cell_angle_alpha 90.000000
_cell_angle_beta 148.647272
_cell_angle_gamma 90.000000
_cell_volume 1599.316803
_symmetry_space_group_name_H-M "C 2/C"
_symmetry_group_IT_number 15
_symmetry_cell_setting 'monoclinic'
loop_
_space_group_symop_operation_xyz
x,y,z
-x,y,1/2-z
-x,-y,-z
x,-y,1/2+z
1/2+x,1/2+y,z
1/2-x,1/2+y,1/2-z
1/2-x,1/2-y,-z
1/2+x,1/2-y,1/2+z
loop_
_atom_site_type_symbol
_atom_site_label
_atom_site_fract_x
_atom_site_fract_y
_atom_site_fract_z
Si Si1 0.223714 0.026456 0.967921
Si Si2 0.566768 0.902586 0.412665
Si Si3 0.753647 0.521783 0.256218
Si Si4 0.098823 0.103001 0.661235
Si Si5 0.404930 0.347356 0.069780
Si Si6 0.895934 0.530391 0.793024
O O1 0.326696 0.928831 0.123342
O O2 0.250000 0.250000 0.000000
O O3 0.149112 0.980156 0.798680
O O4 0.169099 0.022036 0.978665
O O5 0.500000 0.828914 0.250000
O O6 0.586086 0.122709 0.418231
O O7 0.498884 0.873699 0.403020
O O8 0.678613 0.859404 0.589907
O O9 0.698138 0.366009 0.239406
O O10 0.832229 0.452904 0.290991
O O11 0.647957 0.608668 0.085218
O O12 0.075209 0.306635 0.668348
O O13 0.000000 0.000000 0.500000
O O14 0.500000 0.396567 0.250000
#
# Coordination Sequence:
#
# PCOD9262628 Si02
#       6
#     8   8   8   8   8   8
#     4   9  16  30  50  76 105 134 177 232 275 315
#     4  11  20  36  60  84 113 151 189 235 288 340
#     4  11  21  33  54  85 117 147 181 232 290 339
#     4  11  20  33  56  84 111 148 192 235 284 337
#     4  10  19  33  54  81 109 139 185 240 281 325
#     4  10  21  35  53  82 116 147 187 236 283 336
#
# _framework density 30.012816999999998
#
# number of rings (size 3 to 8) (size 9 to 14) (size 15 to 20)
#    0.000    1.667    0.000   10.500    0.000    0.000 
#    0.000    0.000    0.000   12.000    0.000   37.333 
#    0.000    0.000    0.000    0.000    0.000    0.000 
#
# Total GULP energy -133694.171260 kJ/mol
# GULP energy per Si atom -5570.590469 kJ/mol
# Density = 2.994451 g / cm^3
# Si number density = 30.012817 Si / 1000 Ang^3
#
#
#
# Elastic Constant Matrix: (Units=GPa)
#
#
# Indices 1 2 3 4 5 6 
#
# 1 124.2284 30.3598 68.4488 0.0000 12.8842 0.0000
# 2 30.3598 67.0508 16.5823 0.0001 7.1813 0.0001
# 3 68.4488 16.5823 274.5982 0.0000 8.3932 0.0000
# 4 0.0000 0.0001 0.0000 21.3410 0.0000 -2.5969
# 5 12.8842 7.1813 8.3932 0.0000 43.4162 0.0000
# 6 0.0000 0.0001 0.0000 -2.5969 0.0000 20.3768
#
#
#
# Elastic Compliance Matrix: (Units=1/GPa)
#
#
# Indices 1 2 3 4 5 6 
#
# 1 0.010505 -0.003968 -0.002317 0.000000 -0.002013 0.000000
# 2 -0.003968 0.016879 0.000019 0.000000 -0.001618 0.000000
# 3 -0.002317 0.000019 0.004222 0.000000 -0.000132 0.000000
# 4 0.000000 0.000000 0.000000 0.047596 0.000000 0.006066
# 5 -0.002013 -0.001618 -0.000132 0.000000 0.023923 0.000000
# 6 0.000000 0.000000 0.000000 0.006066 0.000000 0.049849
#
#
# Mechanical properties :
#
#
# Convention : Reuss Voigt Hill
#
# Bulk Modulus (GPa) = 52.42631 77.40657 64.91644
# Shear Modulus (GPa) = 29.09260 40.39256 34.74258
#
# Velocity S-wave (km/s) = 3.11680 3.67255 3.40603
# Velocity P-wave (km/s) = 5.51892 6.62048 6.09464
#
# Compressibility (1/GPa) = 0.01907439
#
# Stress axis : x y z
#
# Youngs Moduli (GPa) = 95.19223 59.24450 236.84247
#
# Poissons Ratio (x) = 0.23507 0.54887
# Poissons Ratio (y) = 0.37771 -0.00455
# Poissons Ratio (z) = 0.22060 -0.00114
#
# Static dielectric constant tensor:
#      x y z
#    x 2.462190 0.000000 0.004930 
#    y 0.000000 2.550490 0.000000 
#    z 0.004930 0.000000 2.527730 
# 
# From -- ./inp_files/177896.got.cif
#   From: 2010.05.17/outbox.cif.g08.bks.cpg/sg15_89_cif.got.tgz:177896.got - 2010.06.03 18:47:42.
