data_PCOD9262241
_publ_section_title
;
Structure prediction by ZEFSAII (Michael W. Deem and Ramdas Pophale) SiO2 
 PCOD9262241
Probable space group: C 2/C
;
_chemical_formula_sum "Si O2"
_cell_formula_units_Z 64
_cell_length_a 9.386801
_cell_length_b 29.695633
_cell_length_c 24.288202
_cell_angle_alpha 90.000000
_cell_angle_beta 151.445001
_cell_angle_gamma 90.000000
_cell_volume 3236.200310
_symmetry_space_group_name_H-M "C 2/C"
_symmetry_group_IT_number 15
_symmetry_cell_setting 'monoclinic'
loop_
_space_group_symop_operation_xyz
x,y,z
-x,y,1/2-z
-x,-y,-z
x,-y,1/2+z
1/2+x,1/2+y,z
1/2-x,1/2+y,1/2-z
1/2-x,1/2-y,-z
1/2+x,1/2-y,1/2+z
loop_
_atom_site_type_symbol
_atom_site_label
_atom_site_fract_x
_atom_site_fract_y
_atom_site_fract_z
Si Si1 0.426106 0.875490 0.448356
Si Si2 0.740941 0.003737 0.531289
Si Si3 0.876127 0.645764 0.266199
Si Si4 0.309980 0.302318 0.527094
Si Si5 0.579318 0.596249 0.649052
Si Si6 0.095211 0.432288 0.400200
Si Si7 0.979793 0.140061 0.984625
Si Si8 0.523913 0.429327 0.819844
O O1 0.556642 0.827105 0.476885
O O2 0.442714 0.905134 0.398705
O O3 0.668848 0.901150 0.568945
O O4 0.106734 0.877049 0.367703
O O5 0.628170 0.981897 0.436187
O O6 0.983346 0.968940 0.638030
O O7 0.500000 0.000000 0.500000
O O8 0.872576 0.052751 0.566338
O O9 0.625425 0.682624 0.163128
O O10 0.722309 0.607243 0.249231
O O11 0.000000 0.628083 0.250000
O O12 0.180894 0.657697 0.400685
O O13 0.250000 0.250000 0.500000
O O14 0.309602 0.324826 0.466081
O O15 0.617029 0.628747 0.609908
O O16 0.880860 0.575690 0.776070
O O17 0.406151 0.407221 0.491594
O O18 0.500000 0.447118 0.750000
#
# Coordination Sequence:
#
# PCOD9262241 Si02
#       8
#     8   8   8   8   8   8   8   8
#     4   9  19  35  57  86 115 156 204 243 306 382
#     4  11  23  34  54  86 121 160 218 266 297 352
#     4   9  18  35  62  86 117 154 187 239 305 367
#     4   9  19  40  66  91 119 149 188 246 309 384
#     4  12  22  36  61  84 121 165 208 264 307 356
#     4  10  22  40  55  81 122 170 211 255 310 361
#     4  10  22  40  59  87 122 157 204 243 305 378
#     4  10  19  32  56  85 116 154 203 254 305 344
#
# _framework density 19.77628
#
# number of rings (size 3 to 8) (size 9 to 14) (size 15 to 20)
#    0.000    2.000    2.500    3.750    1.750    0.500 
#    0.000   10.625    0.000   15.000    0.000    0.000 
#    0.000    0.000    0.000    0.000    0.000    0.000 
#
# Total GULP energy -178330.923545 kJ/mol
# GULP energy per Si atom -5572.841361 kJ/mol
# Density = 1.973127 g / cm^3
# Si number density = 19.776280 Si / 1000 Ang^3
#
#
#
# Elastic Constant Matrix: (Units=GPa)
#
#
# Indices 1 2 3 4 5 6 
#
# 1 52.1127 23.9087 35.4707 0.0060 -4.5322 0.0014
# 2 23.9087 102.9761 35.5597 -0.0012 4.3601 -0.0006
# 3 35.4707 35.5597 82.0474 0.0110 -11.5314 0.0024
# 4 0.0060 -0.0012 0.0110 12.8969 0.0051 -2.7669
# 5 -4.5322 4.3601 -11.5314 0.0051 33.2651 0.0014
# 6 0.0014 -0.0006 0.0024 -2.7669 0.0014 18.7786
#
#
#
# Elastic Compliance Matrix: (Units=1/GPa)
#
#
# Indices 1 2 3 4 5 6 
#
# 1 0.027825 -0.002757 -0.010776 -0.000005 0.000417 -0.000001
# 2 -0.002757 0.012066 -0.004534 0.000008 -0.003529 0.000003
# 3 -0.010776 -0.004534 0.019646 -0.000015 0.005936 -0.000005
# 4 -0.000005 0.000008 -0.000015 0.080069 -0.000020 0.011798
# 5 0.000417 -0.003529 0.005936 -0.000020 0.032639 -0.000006
# 6 -0.000001 0.000003 -0.000005 0.011798 -0.000006 0.054990
#
#
# Mechanical properties :
#
#
# Convention : Reuss Voigt Hill
#
# Bulk Modulus (GPa) = 42.72720 47.44603 45.08661
# Shear Modulus (GPa) = 18.43871 22.46793 20.45332
#
# Velocity S-wave (km/s) = 3.05678 3.37427 3.21944
# Velocity P-wave (km/s) = 5.84044 6.26294 6.05537
#
# Compressibility (1/GPa) = 0.02340429
#
# Stress axis : x y z
#
# Youngs Moduli (GPa) = 35.93911 82.87751 50.90133
#
# Poissons Ratio (x) = 0.22848 0.54850
# Poissons Ratio (y) = 0.09908 0.23076
# Poissons Ratio (z) = 0.38727 0.37573
#
# Static dielectric constant tensor:
#      x y z
#    x 1.735240 0.000000 -0.002220 
#    y 0.000000 1.676780 0.000000 
#    z -0.002220 0.000000 1.812020 
# 
# From -- ./inp_files/266759.got.cif
#   From: 2010.05.17/outbox.cif.g08.bks.cpg/sg15_134_cif.got.tgz:266759.got - 2010.06.03 18:47:42.
