data_PCOD9262655
_publ_section_title
;
Structure prediction by ZEFSAII (Michael W. Deem and Ramdas Pophale) SiO2 
 PCOD9262655
Probable space group: C 2/C
;
_chemical_formula_sum "Si O2"
_cell_formula_units_Z 64
_cell_length_a 22.404165
_cell_length_b 26.691361
_cell_length_c 5.656093
_cell_angle_alpha 90.000000
_cell_angle_beta 73.640340
_cell_angle_gamma 90.000000
_cell_volume 3245.388336
_symmetry_space_group_name_H-M "C 2/C"
_symmetry_group_IT_number 15
_symmetry_cell_setting 'monoclinic'
loop_
_space_group_symop_operation_xyz
x,y,z
-x,y,1/2-z
-x,-y,-z
x,-y,1/2+z
1/2+x,1/2+y,z
1/2-x,1/2+y,1/2-z
1/2-x,1/2-y,-z
1/2+x,1/2-y,1/2+z
loop_
_atom_site_type_symbol
_atom_site_label
_atom_site_fract_x
_atom_site_fract_y
_atom_site_fract_z
Si Si1 0.755466 0.690576 0.345566
Si Si2 0.975114 0.360121 0.029157
Si Si3 0.168205 0.226365 0.831659
Si Si4 0.307399 0.976314 0.866999
Si Si5 0.977099 0.244574 0.524641
Si Si6 0.712943 0.624028 0.019907
Si Si7 0.164483 0.986234 0.530111
Si Si8 0.666509 0.874408 0.424316
O O1 0.791092 0.726430 0.122347
O O2 0.698957 0.717456 0.540153
O O3 0.808668 0.674098 0.467550
O O4 0.727164 0.640304 0.269511
O O5 0.900935 0.365067 0.105088
O O6 0.000000 0.381820 0.250000
O O7 0.000000 0.381358 0.750000
O O8 0.997332 0.301844 0.003923
O O9 0.097123 0.241559 0.900623
O O10 0.180610 0.173678 0.947711
O O11 0.328138 0.993586 0.582057
O O12 0.330774 0.920735 0.897585
O O13 0.231934 0.984540 0.949715
O O14 0.000000 0.222265 0.750000
O O15 0.000000 0.221544 0.250000
O O16 0.780001 0.614891 0.826184
O O17 0.676405 0.573074 0.029125
O O18 0.133887 0.998303 0.312259
#
# Coordination Sequence:
#
# PCOD9262655 Si02
#       8
#     8   8   8   8   8   8   8   8
#     4  10  21  36  55  84 126 156 189 249 306 369
#     4  10  23  39  56  82 104 149 208 255 280 333
#     4  10  23  37  53  88 121 159 201 244 305 354
#     4  10  19  33  54  85 111 150 188 239 297 364
#     4  10  22  39  60  77 110 160 204 246 279 334
#     4  11  22  33  60  88 120 158 189 245 302 372
#     4  10  19  35  54  85 119 152 188 228 294 368
#     4  11  22  34  61  85 112 156 205 241 304 359
#
# _framework density 19.720289000000001
#
# number of rings (size 3 to 8) (size 9 to 14) (size 15 to 20)
#    0.000    1.750    2.500    3.375    8.750    0.000 
#    0.000    0.000    0.000    2.250    0.000    0.000 
#    0.000    3.000    0.000    0.000    0.000    0.000 
#
# Total GULP energy -178358.195217 kJ/mol
# GULP energy per Si atom -5573.693601 kJ/mol
# Density = 1.967540 g / cm^3
# Si number density = 19.720289 Si / 1000 Ang^3
#
#
#
# Elastic Constant Matrix: (Units=GPa)
#
#
# Indices 1 2 3 4 5 6 
#
# 1 73.4289 9.8178 31.7836 0.0000 -10.5969 0.0000
# 2 9.8178 72.2426 7.7145 0.0000 0.9192 0.0000
# 3 31.7836 7.7145 112.7588 0.0000 19.3589 0.0000
# 4 0.0000 0.0000 0.0000 20.0334 0.0000 5.6811
# 5 -10.5969 0.9192 19.3589 0.0000 24.7710 0.0000
# 6 0.0000 0.0000 0.0000 5.6811 0.0000 9.9589
#
#
#
# Elastic Compliance Matrix: (Units=1/GPa)
#
#
# Indices 1 2 3 4 5 6 
#
# 1 0.019342 -0.001980 -0.007796 0.000000 0.014440 0.000000
# 2 -0.001980 0.014148 -0.000201 0.000000 -0.001215 0.000000
# 3 -0.007796 -0.000201 0.013456 0.000000 -0.013844 0.000000
# 4 0.000000 0.000000 0.000000 0.059550 0.000000 -0.033971
# 5 0.014440 -0.001215 -0.013844 0.000000 0.057411 0.000000
# 6 0.000000 0.000000 0.000000 -0.033971 0.000000 0.119792
#
#
# Mechanical properties :
#
#
# Convention : Reuss Voigt Hill
#
# Bulk Modulus (GPa) = 37.04699 39.67355 38.36027
# Shear Modulus (GPa) = 15.99231 24.89361 20.44296
#
# Velocity S-wave (km/s) = 2.85082 3.55679 3.22319
# Velocity P-wave (km/s) = 5.44640 6.08519 5.77463
#
# Compressibility (1/GPa) = 0.02699275
#
# Stress axis : x y z
#
# Youngs Moduli (GPa) = 51.70221 70.68007 74.31432
#
# Poissons Ratio (x) = 0.13993 0.57932
# Poissons Ratio (y) = 0.10236 0.01497
# Poissons Ratio (z) = 0.40305 0.01423
#
# Static dielectric constant tensor:
#      x y z
#    x 1.670820 0.000000 0.037440 
#    y 0.000000 1.756780 0.000000 
#    z 0.037440 0.000000 1.807790 
# 
# From -- ./inp_files/16217.got.cif
#   From: 2010.05.17/outbox.cif.g08.bks.cpg/sg15_9_cif.got.tgz:16217.got - 2010.06.03 18:47:42.
