data_PCOD9262755
_publ_section_title
;
Structure prediction by ZEFSAII (Michael W. Deem and Ramdas Pophale) SiO2 
 PCOD9262755
Probable space group: C 2/C
;
_chemical_formula_sum "Si O2"
_cell_formula_units_Z 64
_cell_length_a 32.161268
_cell_length_b 13.539661
_cell_length_c 23.380190
_cell_angle_alpha 90.000000
_cell_angle_beta 16.396084
_cell_angle_gamma 90.000000
_cell_volume 2873.841257
_symmetry_space_group_name_H-M "C 2/C"
_symmetry_group_IT_number 15
_symmetry_cell_setting 'monoclinic'
loop_
_space_group_symop_operation_xyz
x,y,z
-x,y,1/2-z
-x,-y,-z
x,-y,1/2+z
1/2+x,1/2+y,z
1/2-x,1/2+y,1/2-z
1/2-x,1/2-y,-z
1/2+x,1/2-y,1/2+z
loop_
_atom_site_type_symbol
_atom_site_label
_atom_site_fract_x
_atom_site_fract_y
_atom_site_fract_z
Si Si1 0.645492 0.142878 0.899640
Si Si2 0.518645 0.477850 0.659929
Si Si3 0.719319 0.058638 0.261192
Si Si4 0.053110 0.836824 0.957855
Si Si5 0.959965 0.290464 0.744137
Si Si6 0.427415 0.249359 0.784104
Si Si7 0.175299 0.116426 0.655124
Si Si8 0.056529 0.748293 0.498501
O O1 0.568712 0.229027 0.965254
O O2 0.815102 0.170813 0.665738
O O3 0.620210 0.032941 0.911156
O O4 0.590882 0.160512 0.035953
O O5 0.500000 0.509133 0.750000
O O6 0.671953 0.520030 0.432131
O O7 0.491343 0.360974 0.695761
O O8 0.393017 0.522940 0.785668
O O9 0.825740 0.093134 0.173231
O O10 0.627977 0.157512 0.368711
O O11 0.895877 0.877372 0.187857
O O12 0.065279 0.810285 0.875416
O O13 0.889756 0.210795 0.794079
O O14 0.000000 0.236164 0.750000
O O15 0.846460 0.372395 0.916937
O O16 0.500000 0.213945 0.750000
O O17 0.503831 0.201844 0.627385
O O18 0.250000 0.250000 0.000000
#
# Coordination Sequence:
#
# PCOD9262755 Si02
#       8
#     8   8   8   8   8   8   8   8
#     4  10  21  38  58  89 126 164 220 277 338 414
#     4  10  21  41  67  94 129 175 230 273 340 417
#     4  10  22  40  64  94 126 175 223 284 349 406
#     4   9  21  37  61  91 126 166 213 273 344 411
#     4  10  19  33  55  85 130 168 205 272 341 406
#     4  11  27  48  74  98 136 186 236 294 344 409
#     4   9  19  35  56  89 126 163 215 261 340 411
#     4  11  23  42  66  93 132 171 229 285 343 416
#
# _framework density 22.269846000000001
#
# number of rings (size 3 to 8) (size 9 to 14) (size 15 to 20)
#    0.000    2.000    1.250    1.875    3.500    5.000 
#    2.250    1.250    0.000    0.000    0.000    0.000 
#    0.000    0.000    0.000    0.000    0.000    0.000 
#
# Total GULP energy -178229.356581 kJ/mol
# GULP energy per Si atom -5569.667393 kJ/mol
# Density = 2.221916 g / cm^3
# Si number density = 22.269846 Si / 1000 Ang^3
#
#
#
# Elastic Constant Matrix: (Units=GPa)
#
#
# Indices 1 2 3 4 5 6 
#
# 1 92.5232 -10.7150 35.4855 -0.0014 20.1843 0.0012
# 2 -10.7150 48.2382 -12.1930 -0.0017 8.5290 0.0020
# 3 35.4855 -12.1930 78.6144 -0.0007 12.9715 0.0009
# 4 -0.0014 -0.0017 -0.0007 16.7209 0.0011 6.1651
# 5 20.1843 8.5290 12.9715 0.0011 27.5359 -0.0010
# 6 0.0012 0.0020 0.0009 6.1651 -0.0010 12.4412
#
#
#
# Elastic Compliance Matrix: (Units=1/GPa)
#
#
# Indices 1 2 3 4 5 6 
#
# 1 0.015278 0.004062 -0.004566 0.000004 -0.010306 -0.000005
# 2 0.004062 0.024905 0.004113 0.000007 -0.012629 -0.000009
# 3 -0.004566 0.004113 0.016348 0.000002 -0.005628 -0.000003
# 4 0.000004 0.000007 0.000002 0.073175 -0.000010 -0.036261
# 5 -0.010306 -0.012629 -0.005628 -0.000010 0.050434 0.000013
# 6 -0.000005 -0.000009 -0.000003 -0.036261 0.000013 0.098347
#
#
# Mechanical properties :
#
#
# Convention : Reuss Voigt Hill
#
# Bulk Modulus (GPa) = 15.68633 27.17008 21.42820
# Shear Modulus (GPa) = 17.09292 25.12616 21.10954
#
# Velocity S-wave (km/s) = 2.77345 3.36260 3.08214
# Velocity P-wave (km/s) = 4.16114 5.22523 4.72324
#
# Compressibility (1/GPa) = 0.06374978
#
# Stress axis : x y z
#
# Youngs Moduli (GPa) = 65.45375 40.15204 61.17009
#
# Poissons Ratio (x) = -0.16309 0.27929
# Poissons Ratio (y) = -0.26586 -0.25160
# Poissons Ratio (z) = 0.29884 -0.16515
#
# Static dielectric constant tensor:
#      x y z
#    x 1.951270 0.000000 -0.002860 
#    y 0.000000 1.806330 0.000000 
#    z -0.002860 0.000000 1.863310 
# 
# From -- ./inp_files/259432.got.cif
#   From: 2010.05.17/outbox.cif.g08.bks.cpg/sg15_130_cif.got.tgz:259432.got - 2010.06.03 18:47:42.
