data_PCOD9262578
_publ_section_title
;
Structure prediction by ZEFSAII (Michael W. Deem and Ramdas Pophale) SiO2 
 PCOD9262578
Probable space group: C 2/C
;
_chemical_formula_sum "Si O2"
_cell_formula_units_Z 64
_cell_length_a 12.755142
_cell_length_b 14.027299
_cell_length_c 20.107539
_cell_angle_alpha 90.000000
_cell_angle_beta 129.371777
_cell_angle_gamma 90.000000
_cell_volume 2781.145350
_symmetry_space_group_name_H-M "C 2/C"
_symmetry_group_IT_number 15
_symmetry_cell_setting 'monoclinic'
loop_
_space_group_symop_operation_xyz
x,y,z
-x,y,1/2-z
-x,-y,-z
x,-y,1/2+z
1/2+x,1/2+y,z
1/2-x,1/2+y,1/2-z
1/2-x,1/2-y,-z
1/2+x,1/2-y,1/2+z
loop_
_atom_site_type_symbol
_atom_site_label
_atom_site_fract_x
_atom_site_fract_y
_atom_site_fract_z
Si Si1 0.073967 0.513437 0.599388
Si Si2 0.620315 0.510619 0.749999
Si Si3 0.879868 0.243856 0.750002
Si Si4 0.878786 0.760835 0.401486
Si Si5 0.424187 0.760833 0.401485
Si Si6 0.897528 0.516274 0.647528
Si Si7 0.124809 0.013435 0.599388
Si Si8 0.103665 0.740424 0.853664
O O1 0.229393 0.480094 0.666266
O O2 0.085261 0.626549 0.617142
O O3 0.000000 0.500000 0.500000
O O4 0.974359 0.473292 0.615671
O O5 0.500000 0.476049 0.750000
O O6 0.614954 0.627127 0.749999
O O7 0.603137 0.480092 0.666265
O O8 0.895253 0.273944 0.832964
O O9 0.729327 0.273945 0.667041
O O10 0.000000 0.278240 0.750000
O O11 0.850975 0.873453 0.382856
O O12 0.748780 0.719804 0.388928
O O13 0.010470 0.750004 0.500001
O O14 0.529078 0.719803 0.388927
O O15 0.756983 0.473290 0.615671
O O16 0.871277 0.628184 0.621278
O O17 0.000000 0.514929 0.750000
O O18 0.000000 0.000000 0.500000
O O19 0.000000 0.745697 0.750000
#
# Coordination Sequence:
#
# PCOD9262578 Si02
#       8
#     8   8   8   8   8   8   8   8
#     4  10  20  33  53  77 101 131 167 207 249 295
#     4   9  18  33  52  73  99 134 172 204 239 294
#     4   9  18  33  52  71  97 138 176 200 233 292
#     4  10  19  33  54  77 101 129 165 209 250 295
#     4  10  19  33  54  77 101 129 165 209 250 295
#     4   9  16  31  53  74  97 132 173 203 236 293
#     4  10  20  33  53  77 101 131 167 207 249 295
#     4   9  15  29  55  78  97 128 166 203 247 295
#
# _framework density 23.012101999999999
#
# number of rings (size 3 to 8) (size 9 to 14) (size 15 to 20)
#    0.000    2.500    2.500    0.375    1.750    0.500 
#    0.000    1.250    0.000    0.000    0.000    0.000 
#    0.000    0.000    0.000    0.000    0.000    0.000 
#
# Total GULP energy -178839.785116 kJ/mol
# GULP energy per Si atom -5588.743285 kJ/mol
# Density = 2.295973 g / cm^3
# Si number density = 23.012102 Si / 1000 Ang^3
#
#
#
# Elastic Constant Matrix: (Units=GPa)
#
#
# Indices 1 2 3 4 5 6 
#
# 1 273.6609 18.5970 146.4832 0.0000 -1.3551 0.0000
# 2 18.5970 78.7368 -18.0277 0.0000 -0.5551 0.0000
# 3 146.4832 -18.0277 178.7811 0.0000 -0.0954 0.0000
# 4 0.0000 0.0000 0.0000 14.5520 0.0000 0.2617
# 5 -1.3551 -0.5551 -0.0954 0.0000 19.0594 0.0000
# 6 0.0000 0.0000 0.0000 0.2617 0.0000 -2.7148
#
#
#
# Elastic Compliance Matrix: (Units=1/GPa)
#
#
# Indices 1 2 3 4 5 6 
#
# 1 0.007189 -0.003116 -0.006204 0.000000 0.000389 0.000000
# 2 -0.003116 0.014354 0.004000 0.000000 0.000217 0.000000
# 3 -0.006204 0.004000 0.011080 0.000000 -0.000269 0.000000
# 4 0.000000 0.000000 0.000000 0.068600 0.000000 0.006612
# 5 0.000389 0.000217 -0.000269 0.000000 0.052500 0.000000
# 6 0.000000 0.000000 0.000000 0.006612 0.000000 -0.367716
#
#
# Mechanical properties :
#
#
# Convention : Reuss Voigt Hill
#
# Bulk Modulus (GPa) = 45.48812 91.69821 68.59316
# Shear Modulus (GPa) = -25.50661 31.78775 3.14057
#
# Velocity S-wave (km/s) = -3.33288 3.72068 1.16949
# Velocity P-wave (km/s) = 2.23589 7.64149 5.62990
#
# Compressibility (1/GPa) = 0.02198376
#
# Stress axis : x y z
#
# Youngs Moduli (GPa) = 139.10969 69.66773 90.25463
#
# Poissons Ratio (x) = 0.21706 0.55993
# Poissons Ratio (y) = 0.43341 -0.36104
# Poissons Ratio (z) = 0.86302 -0.27869
#
# Static dielectric constant tensor:
#      x y z
#    x 1.855750 0.000000 -0.000910 
#    y 0.000000 1.911910 0.000000 
#    z -0.000910 0.000000 1.795890 
# 
# From -- ./inp_files/200399.got.cif
#   From: 2010.05.17/outbox.cif.g08.bks.cpg/sg15_101_cif.got.tgz:200399.got - 2010.06.03 18:47:42.
