data_PCOD9262984
_publ_section_title
;
Structure prediction by ZEFSAII (Michael W. Deem and Ramdas Pophale) SiO2 
 PCOD9262984
Probable space group: C 2/C
;
_chemical_formula_sum "Si O2"
_cell_formula_units_Z 60
_cell_length_a 23.513208
_cell_length_b 8.413169
_cell_length_c 18.315884
_cell_angle_alpha 90.000000
_cell_angle_beta 124.446026
_cell_angle_gamma 90.000000
_cell_volume 2987.954584
_symmetry_space_group_name_H-M "C 2/C"
_symmetry_group_IT_number 15
_symmetry_cell_setting 'monoclinic'
loop_
_space_group_symop_operation_xyz
x,y,z
-x,y,1/2-z
-x,-y,-z
x,-y,1/2+z
1/2+x,1/2+y,z
1/2-x,1/2+y,1/2-z
1/2-x,1/2-y,-z
1/2+x,1/2-y,1/2+z
loop_
_atom_site_type_symbol
_atom_site_label
_atom_site_fract_x
_atom_site_fract_y
_atom_site_fract_z
Si Si1 0.000000 0.767905 0.250000
Si Si2 0.552816 0.241445 0.662562
Si Si3 0.913177 0.061393 0.045064
Si Si4 0.056899 0.507597 0.385221
Si Si5 0.611422 0.766805 0.048193
Si Si6 0.391240 0.513885 0.701266
Si Si7 0.248513 0.341748 0.077827
Si Si8 0.685734 0.818918 0.497480
O O1 0.053176 0.656405 0.329498
O O2 0.042947 0.880970 0.228468
O O3 0.484564 0.343534 0.592105
O O4 0.516126 0.083485 0.667696
O O5 0.595236 0.207753 0.620633
O O6 0.599283 0.347634 0.750424
O O7 0.849663 0.181273 0.979353
O O8 0.897581 0.017143 0.118718
O O9 0.916688 0.902271 0.000600
O O10 0.076492 0.588671 0.476871
O O11 0.117695 0.387320 0.407009
O O12 0.692607 0.756535 0.087819
O O13 0.324283 0.622452 0.663048
O O14 0.250000 0.250000 0.000000
O O15 0.217609 0.519813 0.051520
O O16 0.750000 0.750000 0.500000
#
# Coordination Sequence:
#
# PCOD9262984 Si02
#       8
#     4   8   8   8   8   8   8   8
#     4  12  22  36  60  92 122 158 206 270 316 364
#     4  11  24  37  61  91 128 162 201 265 327 380
#     4  11  20  37  64  88 121 158 213 258 313 376
#     4  10  23  36  60  90 124 161 207 258 317 380
#     4  11  21  43  60  89 124 171 206 254 318 394
#     4  12  21  39  60  91 122 159 209 264 318 375
#     4  11  21  39  64  86 120 163 213 263 307 379
#     4  10  19  33  58  92 113 151 205 260 302 369
#
# _framework density 20.080628000000001
#
# number of rings (size 3 to 8) (size 9 to 14) (size 15 to 20)
#    0.000    1.067    5.333    1.600    3.733    0.000 
#    0.000    2.667    0.000    0.000    0.000    0.000 
#    0.000    0.000    0.000    0.000    0.000    0.000 
#
# Total GULP energy -167217.824101 kJ/mol
# GULP energy per Si atom -5573.927470 kJ/mol
# Density = 2.003492 g / cm^3
# Si number density = 20.080628 Si / 1000 Ang^3
#
#
#
# Elastic Constant Matrix: (Units=GPa)
#
#
# Indices 1 2 3 4 5 6 
#
# 1 98.0050 7.3900 19.7560 0.0000 5.3425 0.0000
# 2 7.3900 88.5444 12.6489 0.0000 1.5471 0.0000
# 3 19.7560 12.6489 42.4973 0.0000 0.2208 0.0000
# 4 0.0000 0.0000 0.0000 33.9045 0.0000 12.7553
# 5 5.3425 1.5471 0.2208 0.0000 27.0953 0.0000
# 6 0.0000 0.0000 0.0000 12.7553 0.0000 32.6327
#
#
#
# Elastic Compliance Matrix: (Units=1/GPa)
#
#
# Indices 1 2 3 4 5 6 
#
# 1 0.011391 -0.000165 -0.005235 0.000000 -0.002194 0.000000
# 2 -0.000165 0.011809 -0.003435 0.000000 -0.000614 0.000000
# 3 -0.005235 -0.003435 0.026982 0.000000 0.001009 0.000000
# 4 0.000000 0.000000 0.000000 0.034580 0.000000 -0.013516
# 5 -0.002194 -0.000614 0.001009 0.000000 0.037366 0.000000
# 6 0.000000 0.000000 0.000000 -0.013516 0.000000 0.035927
#
#
# Mechanical properties :
#
#
# Convention : Reuss Voigt Hill
#
# Bulk Modulus (GPa) = 30.75765 34.29294 32.52529
# Shear Modulus (GPa) = 26.80085 31.34329 29.07207
#
# Velocity S-wave (km/s) = 3.65727 3.95507 3.80908
# Velocity P-wave (km/s) = 5.76060 6.16210 5.96473
#
# Compressibility (1/GPa) = 0.03251224
#
# Stress axis : x y z
#
# Youngs Moduli (GPa) = 87.78983 84.68154 37.06212
#
# Poissons Ratio (x) = 0.01393 0.19402
# Poissons Ratio (y) = 0.01444 0.12731
# Poissons Ratio (z) = 0.45958 0.29089
#
# Static dielectric constant tensor:
#      x y z
#    x 1.739120 0.000000 0.044750 
#    y 0.000000 1.780280 0.000000 
#    z 0.044750 0.000000 1.734740 
# 
# From -- ./inp_files/213970.got.cif
#   From: 2010.05.17/outbox.cif.g08.bks.cpg/sg15_107_cif.got.tgz:213970.got - 2010.06.03 18:47:42.
