data_PCOD9262925
_publ_section_title
;
Structure prediction by ZEFSAII (Michael W. Deem and Ramdas Pophale) SiO2 
 PCOD9262925
Probable space group: C 2/C
;
_chemical_formula_sum "Si O2"
_cell_formula_units_Z 36
_cell_length_a 9.965986
_cell_length_b 18.404491
_cell_length_c 8.400114
_cell_angle_alpha 90.000000
_cell_angle_beta 112.521151
_cell_angle_gamma 90.000000
_cell_volume 1423.240087
_symmetry_space_group_name_H-M "C 2/C"
_symmetry_group_IT_number 15
_symmetry_cell_setting 'monoclinic'
loop_
_space_group_symop_operation_xyz
x,y,z
-x,y,1/2-z
-x,-y,-z
x,-y,1/2+z
1/2+x,1/2+y,z
1/2-x,1/2+y,1/2-z
1/2-x,1/2-y,-z
1/2+x,1/2-y,1/2+z
loop_
_atom_site_type_symbol
_atom_site_label
_atom_site_fract_x
_atom_site_fract_y
_atom_site_fract_z
Si Si1 0.660426 0.085969 0.250648
Si Si2 0.825985 0.891066 0.411800
Si Si3 0.070095 0.731081 0.104470
Si Si4 0.313715 0.482601 0.109712
Si Si5 0.000000 0.655139 0.750000
O O1 0.500000 0.087833 0.250000
O O2 0.685548 0.166008 0.189512
O O3 0.675585 0.021495 0.131916
O O4 0.769418 0.066914 0.441740
O O5 0.872048 0.808086 0.426845
O O6 0.886895 0.944389 0.574859
O O7 0.649610 0.889145 0.333267
O O8 0.873933 0.932265 0.274422
O O9 0.000000 0.741586 0.250000
O O10 0.983615 0.699506 0.910506
#
# Coordination Sequence:
#
# PCOD9262925 Si02
#       5
#     8   8   8   8   4
#     4  10  19  33  57  92 126 163 207 260 326 380
#     4  11  24  43  63 100 129 168 220 263 331 385
#     4  11  25  45  65  96 131 176 222 261 314 390
#     4  10  22  34  63  90 134 164 202 274 324 382
#     4  12  24  40  72  98 130 172 204 280 326 382
#
# _framework density 25.294397
#
# number of rings (size 3 to 8) (size 9 to 14) (size 15 to 20)
#    0.000    1.333    2.222    4.000    6.222    3.556 
#    4.000    1.111    0.000    0.000    0.000    0.000 
#    0.000    0.000    0.000    0.000    0.000    0.000 
#
# Total GULP energy -100558.575116 kJ/mol
# GULP energy per Si atom -5586.587506 kJ/mol
# Density = 2.523683 g / cm^3
# Si number density = 25.294397 Si / 1000 Ang^3
#
#
#
# Elastic Constant Matrix: (Units=GPa)
#
#
# Indices 1 2 3 4 5 6 
#
# 1 80.3396 14.9622 27.2619 0.0000 -11.8793 0.0000
# 2 14.9622 176.6090 54.7856 0.0000 -3.0347 0.0000
# 3 27.2619 54.7856 173.4879 0.0000 -14.0251 0.0000
# 4 0.0000 0.0000 0.0000 28.2710 0.0000 -5.3063
# 5 -11.8793 -3.0347 -14.0251 0.0000 27.8020 0.0000
# 6 0.0000 0.0000 0.0000 -5.3063 0.0000 3.6221
#
#
#
# Elastic Compliance Matrix: (Units=1/GPa)
#
#
# Indices 1 2 3 4 5 6 
#
# 1 0.013841 -0.000596 -0.001578 0.000000 0.005053 0.000000
# 2 -0.000596 0.006306 -0.001942 0.000000 -0.000546 0.000000
# 3 -0.001578 -0.001942 0.006832 0.000000 0.002560 0.000000
# 4 0.000000 0.000000 0.000000 0.048786 0.000000 0.071470
# 5 0.005053 -0.000546 0.002560 0.000000 0.039360 0.000000
# 6 0.000000 0.000000 0.000000 0.071470 0.000000 0.380783
#
#
# Mechanical properties :
#
#
# Convention : Reuss Voigt Hill
#
# Bulk Modulus (GPa) = 53.34316 69.38397 61.36356
# Shear Modulus (GPa) = 9.79645 34.16747 21.98196
#
# Velocity S-wave (km/s) = 1.97012 3.67930 2.95115
# Velocity P-wave (km/s) = 5.12932 6.74832 5.99373
#
# Compressibility (1/GPa) = 0.01874655
#
# Stress axis : x y z
#
# Youngs Moduli (GPa) = 72.24993 158.58687 146.36477
#
# Poissons Ratio (x) = 0.09455 0.23099
# Poissons Ratio (y) = 0.04307 0.28420
# Poissons Ratio (z) = 0.11403 0.30793
#
# Static dielectric constant tensor:
#      x y z
#    x 2.138670 0.000000 -0.020290 
#    y 0.000000 1.945310 0.000000 
#    z -0.020290 0.000000 2.011470 
# 
# From -- ./inp_files/28823.got.cif
#   From: 2010.05.17/outbox.cif.g08.bks.cpg/sg15_15_cif.got.tgz:28823.got - 2010.06.03 18:47:42.
