data_PCOD9262626
_publ_section_title
;
Structure prediction by ZEFSAII (Michael W. Deem and Ramdas Pophale) SiO2 
 PCOD9262626
Probable space group: C 2/C
;
_chemical_formula_sum "Si O2"
_cell_formula_units_Z 56
_cell_length_a 13.538871
_cell_length_b 8.345108
_cell_length_c 24.548517
_cell_angle_alpha 90.000000
_cell_angle_beta 108.736219
_cell_angle_gamma 90.000000
_cell_volume 2626.594635
_symmetry_space_group_name_H-M "C 2/C"
_symmetry_group_IT_number 15
_symmetry_cell_setting 'monoclinic'
loop_
_space_group_symop_operation_xyz
x,y,z
-x,y,1/2-z
-x,-y,-z
x,-y,1/2+z
1/2+x,1/2+y,z
1/2-x,1/2+y,1/2-z
1/2-x,1/2-y,-z
1/2+x,1/2-y,1/2+z
loop_
_atom_site_type_symbol
_atom_site_label
_atom_site_fract_x
_atom_site_fract_y
_atom_site_fract_z
Si Si1 0.240839 0.078126 0.027287
Si Si2 0.792410 0.530332 0.209933
Si Si3 0.380417 0.535528 0.089045
Si Si4 0.912332 0.328139 0.631449
Si Si5 0.097757 0.471897 0.165201
Si Si6 0.577286 0.743689 0.306160
Si Si7 0.389673 0.658260 0.391435
O O1 0.346328 0.053019 0.080053
O O2 0.156428 0.100777 0.059772
O O3 0.250000 0.250000 0.000000
O O4 0.203671 0.957299 0.974195
O O5 0.869201 0.641231 0.185349
O O6 0.812301 0.529847 0.277903
O O7 0.833513 0.353779 0.203206
O O8 0.678155 0.575074 0.168712
O O9 0.390955 0.351731 0.109449
O O10 0.363811 0.635597 0.140356
O O11 0.491421 0.604486 0.089116
O O12 0.031496 0.370758 0.641223
O O13 0.126966 0.349219 0.122360
O O14 0.008972 0.364489 0.181714
O O15 0.500000 0.654491 0.250000
#
# Coordination Sequence:
#
# PCOD9262626 Si02
#       7
#     8   8   8   8   8   8   8
#     4   9  19  37  54  73 103 141 180 218 262 316
#     4   9  18  35  53  74 107 142 170 208 265 324
#     4  10  19  33  54  81 105 133 175 222 264 309
#     4   9  18  34  55  75 102 139 175 210 258 318
#     4   9  18  34  53  76 107 140 172 215 266 312
#     4   8  16  32  53  75 103 135 171 213 261 319
#     4  10  20  35  54  78 108 138 175 224 266 308
#
# _framework density 21.320381999999999
#
# number of rings (size 3 to 8) (size 9 to 14) (size 15 to 20)
#    0.000    2.857    0.000    1.714    0.000    2.286 
#    0.000   31.429    0.000    0.000    0.000    0.000 
#    0.000    0.000    0.000    0.000    0.000    0.000 
#
# Total GULP energy -155975.995402 kJ/mol
# GULP energy per Si atom -5570.571264 kJ/mol
# Density = 2.127186 g / cm^3
# Si number density = 21.320382 Si / 1000 Ang^3
#
#
#
# Elastic Constant Matrix: (Units=GPa)
#
#
# Indices 1 2 3 4 5 6 
#
# 1 12.5440 -6.9287 -1.2221 0.0000 3.9193 0.0000
# 2 -6.9287 31.8089 7.1306 0.0000 -0.3231 0.0000
# 3 -1.2221 7.1306 43.6677 0.0000 -6.2025 0.0000
# 4 0.0000 0.0000 0.0000 36.4356 0.0000 -1.4926
# 5 3.9193 -0.3231 -6.2025 0.0000 17.6884 0.0000
# 6 0.0000 0.0000 0.0000 -1.4926 0.0000 16.4181
#
#
#
# Elastic Compliance Matrix: (Units=1/GPa)
#
#
# Indices 1 2 3 4 5 6 
#
# 1 0.098740 0.022198 -0.004116 0.000000 -0.022916 0.000000
# 2 0.022198 0.037653 -0.006449 0.000000 -0.006492 0.000000
# 3 -0.004116 -0.006449 0.025206 0.000000 0.009633 0.000000
# 4 0.000000 0.000000 0.000000 0.027548 0.000000 0.002504
# 5 -0.022916 -0.006492 0.009633 0.000000 0.064871 0.000000
# 6 0.000000 0.000000 0.000000 0.002504 0.000000 0.061136
#
#
# Mechanical properties :
#
#
# Convention : Reuss Voigt Hill
#
# Bulk Modulus (GPa) = 5.40941 9.55334 7.48138
# Shear Modulus (GPa) = 14.14383 20.04448 17.09415
#
# Velocity S-wave (km/s) = 2.57844 3.06952 2.83464
# Velocity P-wave (km/s) = 3.37745 4.12955 3.77229
#
# Compressibility (1/GPa) = 0.18486320
#
# Stress axis : x y z
#
# Youngs Moduli (GPa) = 10.12764 26.55849 39.67251
#
# Poissons Ratio (x) = -0.58954 0.16331
# Poissons Ratio (y) = -0.22481 0.25586
# Poissons Ratio (z) = 0.04169 0.17128
#
# Static dielectric constant tensor:
#      x y z
#    x 1.825840 0.000000 -0.029400 
#    y 0.000000 1.792540 0.000000 
#    z -0.029400 0.000000 1.831040 
# 
# From -- ./inp_files/272851.got.cif
#   From: 2010.05.17/outbox.cif.g08.bks.cpg/sg15_137_cif.got.tgz:272851.got - 2010.06.03 18:47:42.
