data_PCOD9262955
_publ_section_title
;
Structure prediction by ZEFSAII (Michael W. Deem and Ramdas Pophale) SiO2 
 PCOD9262955
Probable space group: C 2/C
;
_chemical_formula_sum "Si O2"
_cell_formula_units_Z 36
_cell_length_a 8.057667
_cell_length_b 16.904980
_cell_length_c 15.815010
_cell_angle_alpha 90.000000
_cell_angle_beta 133.460373
_cell_angle_gamma 90.000000
_cell_volume 1563.653406
_symmetry_space_group_name_H-M "C 2/C"
_symmetry_group_IT_number 15
_symmetry_cell_setting 'monoclinic'
loop_
_space_group_symop_operation_xyz
x,y,z
-x,y,1/2-z
-x,-y,-z
x,-y,1/2+z
1/2+x,1/2+y,z
1/2-x,1/2+y,1/2-z
1/2-x,1/2-y,-z
1/2+x,1/2-y,1/2+z
loop_
_atom_site_type_symbol
_atom_site_label
_atom_site_fract_x
_atom_site_fract_y
_atom_site_fract_z
Si Si1 0.814835 0.756609 0.353113
Si Si2 0.329286 0.653684 0.612146
Si Si3 0.500000 0.389994 0.750000
Si Si4 0.772907 0.490647 0.977485
Si Si5 0.553379 0.158315 0.890722
O O1 0.707137 0.670226 0.302069
O O2 0.652490 0.816217 0.242067
O O3 0.762458 0.788767 0.428836
O O4 0.053389 0.772260 0.391964
O O5 0.500000 0.630408 0.750000
O O6 0.313963 0.579848 0.542208
O O7 0.077883 0.667834 0.564557
O O8 0.583866 0.442995 0.857024
O O9 0.855534 0.431694 0.079678
O O10 0.000000 0.500000 0.000000
#
# Coordination Sequence:
#
# PCOD9262955 Si02
#       5
#     8   8   4   8   8
#     4   9  19  33  55  80 115 148 180 234 280 331
#     4   9  16  32  55  78 109 149 184 221 279 328
#     4  10  20  36  56  86 114 146 196 236 282 340
#     4  10  19  33  58  85 111 152 191 232 284 343
#     4   8  17  32  52  79 108 144 184 222 279 326
#
# _framework density 23.023005000000001
#
# number of rings (size 3 to 8) (size 9 to 14) (size 15 to 20)
#    0.000    3.111    1.111    0.000    0.000    4.444 
#    0.000    4.444    0.000   37.333    0.000    1.556 
#    0.000    0.000    0.000    0.000    0.000    0.000 
#
# Total GULP energy -100219.497722 kJ/mol
# GULP energy per Si atom -5567.749873 kJ/mol
# Density = 2.297060 g / cm^3
# Si number density = 23.023005 Si / 1000 Ang^3
#
#
#
# Elastic Constant Matrix: (Units=GPa)
#
#
# Indices 1 2 3 4 5 6 
#
# 1 83.8876 37.6183 -7.0028 0.0001 4.8719 0.0004
# 2 37.6183 90.2587 22.6334 0.0000 8.0608 -0.0002
# 3 -7.0028 22.6334 59.8201 0.0000 13.4324 0.0000
# 4 0.0001 0.0000 0.0000 -46.7107 0.0000 -309.4947
# 5 4.8719 8.0608 13.4324 0.0000 33.0389 0.0001
# 6 0.0004 -0.0002 0.0000 -309.4947 0.0001-1207.0853
#
#
#
# Elastic Compliance Matrix: (Units=1/GPa)
#
#
# Indices 1 2 3 4 5 6 
#
# 1 0.016028 -0.007803 0.005427 0.000000 -0.002666 0.000000
# 2 -0.007803 0.016084 -0.007017 0.000000 0.000079 0.000000
# 3 0.005427 -0.007017 0.021792 0.000000 -0.007948 0.000000
# 4 0.000000 0.000000 0.000000 0.030634 0.000000 -0.007855
# 5 -0.002666 0.000079 -0.007948 0.000000 0.033873 0.000000
# 6 0.000000 0.000000 0.000000 -0.007855 0.000000 0.001185
#
#
# Mechanical properties :
#
#
# Convention : Reuss Voigt Hill
#
# Bulk Modulus (GPa) = 28.47499 37.82935 33.15217
# Shear Modulus (GPa) = 33.31417 -232.10358 -99.39471
#
# Velocity S-wave (km/s) = 3.80807 -10.05150 -6.57766
# Velocity P-wave (km/s) = 5.63294 10.87398 6.57698
#
# Compressibility (1/GPa) = 0.03511854
#
# Stress axis : x y z
#
# Youngs Moduli (GPa) = 62.39190 62.17426 45.88916
#
# Poissons Ratio (x) = 0.48514 -0.24905
# Poissons Ratio (y) = 0.48684 0.32199
# Poissons Ratio (z) = -0.33862 0.43626
#
# Static dielectric constant tensor:
#      x y z
#    x 1.932600 0.000000 -0.007210 
#    y 0.000000 1.882540 0.000000 
#    z -0.007210 0.000000 2.086830 
# 
# From -- ./inp_files/132930.got.cif
#   From: 2010.05.17/outbox.cif.g08.bks.cpg/sg15_67_cif.got.tgz:132930.got - 2010.06.03 18:47:42.
