data_PCOD9262883
_publ_section_title
;
Structure prediction by ZEFSAII (Michael W. Deem and Ramdas Pophale) SiO2 
 PCOD9262883
Probable space group: C 2/C
;
_chemical_formula_sum "Si O2"
_cell_formula_units_Z 64
_cell_length_a 14.106548
_cell_length_b 18.856102
_cell_length_c 13.306940
_cell_angle_alpha 90.000000
_cell_angle_beta 99.692570
_cell_angle_gamma 90.000000
_cell_volume 3489.046652
_symmetry_space_group_name_H-M "C 2/C"
_symmetry_group_IT_number 15
_symmetry_cell_setting 'monoclinic'
loop_
_space_group_symop_operation_xyz
x,y,z
-x,y,1/2-z
-x,-y,-z
x,-y,1/2+z
1/2+x,1/2+y,z
1/2-x,1/2+y,1/2-z
1/2-x,1/2-y,-z
1/2+x,1/2-y,1/2+z
loop_
_atom_site_type_symbol
_atom_site_label
_atom_site_fract_x
_atom_site_fract_y
_atom_site_fract_z
Si Si1 0.750849 0.369695 0.516351
Si Si2 0.588414 0.699284 0.457953
Si Si3 0.982772 0.954314 0.596694
Si Si4 0.386990 0.786392 0.232468
Si Si5 0.260858 0.485490 0.592073
Si Si6 0.807006 0.970456 0.812686
Si Si7 0.249103 0.887132 0.092088
Si Si8 0.608830 0.754892 0.032632
O O1 0.759651 0.432888 0.436902
O O2 0.732813 0.414115 0.614501
O O3 0.660474 0.315261 0.496330
O O4 0.843774 0.320112 0.518886
O O5 0.528638 0.628076 0.428769
O O6 0.624750 0.726245 0.355939
O O7 0.676150 0.674684 0.543402
O O8 0.507373 0.751159 0.489437
O O9 0.876763 0.978929 0.607744
O O10 0.078600 0.958896 0.680060
O O11 0.000000 0.000000 0.500000
O O12 0.500000 0.803418 0.250000
O O13 0.327378 0.851870 0.177656
O O14 0.363657 0.763205 0.342871
O O15 0.241867 0.465895 0.702789
O O16 0.219086 0.429540 0.503652
O O17 0.801145 0.049743 0.855913
#
# Coordination Sequence:
#
# PCOD9262883 Si02
#       8
#     8   8   8   8   8   8   8   8
#     4  10  20  34  52  80 114 153 193 224 278 343
#     4  10  19  33  57  83 115 146 182 237 284 331
#     4  11  17  33  51  82 120 145 186 238 289 342
#     4  10  22  37  59  87 108 150 196 228 285 346
#     4  10  21  32  56  83 112 152 191 243 287 329
#     4  11  20  33  57  82 115 153 190 231 289 348
#     4  10  21  36  56  87 116 140 186 247 281 331
#     4  10  20  34  56  77 117 155 186 227 273 353
#
# _framework density 18.343119999999999
#
# number of rings (size 3 to 8) (size 9 to 14) (size 15 to 20)
#    0.000    1.750    5.000    1.500    3.500    2.000 
#    0.000    0.000    0.000   18.750    0.000    0.000 
#    0.000    0.000    0.000    0.000    0.000    0.000 
#
# Total GULP energy -178171.575240 kJ/mol
# GULP energy per Si atom -5567.861726 kJ/mol
# Density = 1.830137 g / cm^3
# Si number density = 18.343120 Si / 1000 Ang^3
#
#
#
# Elastic Constant Matrix: (Units=GPa)
#
#
# Indices 1 2 3 4 5 6 
#
# 1 30.4210 26.8020 -0.2443 0.0000 2.4115 0.0000
# 2 26.8020 76.7900 6.6803 0.0000 -0.2010 0.0000
# 3 -0.2443 6.6803 26.7349 0.0000 8.4464 0.0000
# 4 0.0000 0.0000 0.0000 9.1822 0.0000 13.7377
# 5 2.4115 -0.2010 8.4464 0.0000 21.4045 0.0000
# 6 0.0000 0.0000 0.0000 13.7377 0.0000 18.4447
#
#
#
# Elastic Compliance Matrix: (Units=1/GPa)
#
#
# Indices 1 2 3 4 5 6 
#
# 1 0.049447 -0.017952 0.007712 0.000000 -0.008783 0.000000
# 2 -0.017952 0.019880 -0.006660 0.000000 0.004837 0.000000
# 3 0.007712 -0.006660 0.045049 0.000000 -0.018708 0.000000
# 4 0.000000 0.000000 0.000000 -0.952689 0.000000 0.709566
# 5 -0.008783 0.004837 -0.018708 0.000000 0.055137 0.000000
# 6 0.000000 0.000000 0.000000 0.709566 0.000000 -0.474272
#
#
# Mechanical properties :
#
#
# Convention : Reuss Voigt Hill
#
# Bulk Modulus (GPa) = 12.41048 22.26912 17.33980
# Shear Modulus (GPa) = -4.17785 16.52013 6.17114
#
# Velocity S-wave (km/s) = -1.51081 3.00428 1.83619
# Velocity P-wave (km/s) = 1.93314 4.91945 3.73751
#
# Compressibility (1/GPa) = 0.08057708
#
# Stress axis : x y z
#
# Youngs Moduli (GPa) = 20.22375 50.30059 22.19783
#
# Poissons Ratio (x) = 0.90301 -0.17120
# Poissons Ratio (y) = 0.36306 0.14784
# Poissons Ratio (z) = -0.15597 0.33500
#
# Static dielectric constant tensor:
#      x y z
#    x 1.603360 0.000000 -0.070900 
#    y 0.000000 1.650770 0.000000 
#    z -0.070900 0.000000 1.637410 
# 
# From -- ./inp_files/154873.got.cif
#   From: 2010.05.17/outbox.cif.g08.bks.cpg/sg15_78_cif.got.tgz:154873.got - 2010.06.03 18:47:42.
