data_PCOD9262138
_publ_section_title
;
Structure prediction by ZEFSAII (Michael W. Deem and Ramdas Pophale) SiO2 
 PCOD9262138
Probable space group: C 2/C
;
_chemical_formula_sum "Si O2"
_cell_formula_units_Z 48
_cell_length_a 25.842771
_cell_length_b 4.938042
_cell_length_c 15.057855
_cell_angle_alpha 90.000000
_cell_angle_beta 86.957702
_cell_angle_gamma 90.000000
_cell_volume 1918.865146
_symmetry_space_group_name_H-M "C 2/C"
_symmetry_group_IT_number 15
_symmetry_cell_setting 'monoclinic'
loop_
_space_group_symop_operation_xyz
x,y,z
-x,y,1/2-z
-x,-y,-z
x,-y,1/2+z
1/2+x,1/2+y,z
1/2-x,1/2+y,1/2-z
1/2-x,1/2-y,-z
1/2+x,1/2-y,1/2+z
loop_
_atom_site_type_symbol
_atom_site_label
_atom_site_fract_x
_atom_site_fract_y
_atom_site_fract_z
Si Si1 0.777923 0.233167 0.141555
Si Si2 0.360586 0.110025 0.512097
Si Si3 0.818530 0.725832 0.241184
Si Si4 0.084407 0.591395 0.169988
Si Si5 0.980786 0.888722 0.873369
Si Si6 0.924982 0.129076 0.557089
O O1 0.801655 0.345433 0.047941
O O2 0.805153 0.424619 0.211888
O O3 0.717640 0.275011 0.168585
O O4 0.798216 0.935405 0.168018
O O5 0.374983 0.012193 0.412328
O O6 0.386606 0.401475 0.523331
O O7 0.390909 0.897430 0.572625
O O8 0.878482 0.722810 0.260052
O O9 0.046398 0.336028 0.186173
O O10 0.047650 0.830096 0.141285
O O11 0.965585 0.792135 0.974706
O O12 0.040690 0.977614 0.871794
#
# Coordination Sequence:
#
# PCOD9262138 Si02
#       6
#     8   8   8   8   8   8
#     4  10  21  37  55  75 104 143 180 217 271 331
#     4  10  19  32  54  81 105 135 178 223 262 306
#     4  10  21  37  55  75 104 143 180 217 271 331
#     4  10  19  32  54  81 105 135 178 223 262 306
#     4   9  17  30  50  78 109 137 169 212 262 316
#     4   9  17  30  50  78 109 137 169 212 262 316
#
# _framework density 25.014786999999998
#
# number of rings (size 3 to 8) (size 9 to 14) (size 15 to 20)
#    0.000    2.333    0.000    3.000    0.000    4.667 
#    0.000    0.000    0.000   27.000    0.000    0.000 
#    0.000    0.000    0.000    0.000    0.000    0.000 
#
# Total GULP energy -133966.878563 kJ/mol
# GULP energy per Si atom -5581.953273 kJ/mol
# Density = 2.495785 g / cm^3
# Si number density = 25.014787 Si / 1000 Ang^3
#
#
#
# Elastic Constant Matrix: (Units=GPa)
#
#
# Indices 1 2 3 4 5 6 
#
# 1 74.4509 12.7345 12.4814 0.0000 -9.8968 0.0000
# 2 12.7345 109.3441 -8.3841 0.0000 -7.9061 0.0000
# 3 12.4814 -8.3841 76.7239 0.0000 -27.4504 0.0000
# 4 0.0000 0.0000 0.0000 -3.8774 0.0000 -10.0844
# 5 -9.8968 -7.9061 -27.4504 0.0000 26.8861 0.0000
# 6 0.0000 0.0000 0.0000 -10.0844 0.0000 31.0111
#
#
#
# Elastic Compliance Matrix: (Units=1/GPa)
#
#
# Indices 1 2 3 4 5 6 
#
# 1 0.014372 -0.001505 -0.001210 0.000000 0.003612 0.000000
# 2 -0.001505 0.010014 0.003457 0.000000 0.005921 0.000000
# 3 -0.001210 0.003457 0.021762 0.000000 0.022790 0.000000
# 4 0.000000 0.000000 0.000000 -0.139729 0.000000 -0.045438
# 5 0.003612 0.005921 0.022790 0.000000 0.063533 0.000000
# 6 0.000000 0.000000 0.000000 -0.045438 0.000000 0.017471
#
#
# Mechanical properties :
#
#
# Convention : Reuss Voigt Hill
#
# Bulk Modulus (GPa) = 20.99429 32.68695 26.84062
# Shear Modulus (GPa) = 2751.15377 27.04978 1389.10177
#
# Velocity S-wave (km/s) = 33.19938 3.29196 23.59063
# Velocity P-wave (km/s) = 38.44488 5.24831 27.43678
#
# Compressibility (1/GPa) = 0.04763200
#
# Stress axis : x y z
#
# Youngs Moduli (GPa) = 69.57868 99.86064 45.95092
#
# Poissons Ratio (x) = 0.15034 0.05561
# Poissons Ratio (y) = 0.10475 -0.15887
# Poissons Ratio (z) = 0.08421 -0.34526
#
# Static dielectric constant tensor:
#      x y z
#    x 2.016190 0.000000 -0.049480 
#    y 0.000000 1.875570 0.000000 
#    z -0.049480 0.000000 2.140160 
# 
# From -- ./inp_files/217484.got.cif
#   From: 2010.05.17/outbox.cif.g08.bks.cpg/sg15_109_cif.got.tgz:217484.got - 2010.06.03 18:47:42.
