data_PCOD9262137
_publ_section_title
;
Structure prediction by ZEFSAII (Michael W. Deem and Ramdas Pophale) SiO2 
 PCOD9262137
Probable space group: C 2/C
;
_chemical_formula_sum "Si O2"
_cell_formula_units_Z 48
_cell_length_a 19.507633
_cell_length_b 7.644845
_cell_length_c 14.023570
_cell_angle_alpha 90.000000
_cell_angle_beta 73.273698
_cell_angle_gamma 90.000000
_cell_volume 2002.889628
_symmetry_space_group_name_H-M "C 2/C"
_symmetry_group_IT_number 15
_symmetry_cell_setting 'monoclinic'
loop_
_space_group_symop_operation_xyz
x,y,z
-x,y,1/2-z
-x,-y,-z
x,-y,1/2+z
1/2+x,1/2+y,z
1/2-x,1/2+y,1/2-z
1/2-x,1/2-y,-z
1/2+x,1/2-y,1/2+z
loop_
_atom_site_type_symbol
_atom_site_label
_atom_site_fract_x
_atom_site_fract_y
_atom_site_fract_z
Si Si1 0.851980 0.932330 0.848550
Si Si2 0.098685 0.012024 0.367155
Si Si3 0.460267 0.345689 0.423290
Si Si4 0.848209 0.420604 0.988735
Si Si5 0.290166 0.229860 0.122663
Si Si6 0.236637 0.709917 0.146579
O O1 0.884647 0.880978 0.734123
O O2 0.914746 0.995026 0.893356
O O3 0.810591 0.114728 0.848132
O O4 0.787304 0.800063 0.896742
O O5 0.169581 0.915782 0.380831
O O6 0.042357 0.858891 0.360344
O O7 0.052201 0.121060 0.459901
O O8 0.422408 0.159532 0.422353
O O9 0.844885 0.600036 0.047359
O O10 0.812807 0.277124 0.075854
O O11 0.796511 0.420715 0.917452
O O12 0.273352 0.166060 0.238546
#
# Coordination Sequence:
#
# PCOD9262137 Si02
#       6
#     8   8   8   8   8   8
#     4   9  18  33  54  75 100 139 180 216 260 317
#     4  10  21  35  52  78 107 136 176 222 269 317
#     4  10  20  35  53  73 106 146 174 208 269 338
#     4   9  17  32  53  73 102 141 178 215 264 322
#     4  10  19  32  54  81 103 130 180 232 263 303
#     4   8  16  31  50  76 105 135 173 219 267 313
#
# _framework density 23.965373
#
# number of rings (size 3 to 8) (size 9 to 14) (size 15 to 20)
#    0.000    2.667    0.000    2.500    0.000    1.333 
#    0.000    5.000    0.000    0.000    0.000    0.000 
#    0.000    0.000    0.000    0.000    0.000    0.000 
#
# Total GULP energy -133925.977750 kJ/mol
# GULP energy per Si atom -5580.249073 kJ/mol
# Density = 2.391083 g / cm^3
# Si number density = 23.965373 Si / 1000 Ang^3
#
#
#
# Elastic Constant Matrix: (Units=GPa)
#
#
# Indices 1 2 3 4 5 6 
#
# 1 99.7917 -1.9170 12.0174 0.0000 -11.3463 0.0000
# 2 -1.9170 64.6610 13.8293 0.0000 10.8511 0.0000
# 3 12.0174 13.8293 85.7622 0.0000 4.0263 0.0000
# 4 0.0000 0.0000 0.0000 38.2784 0.0000 -0.8768
# 5 -11.3463 10.8511 4.0263 0.0000 30.8708 0.0000
# 6 0.0000 0.0000 0.0000 -0.8768 0.0000 27.1416
#
#
#
# Elastic Compliance Matrix: (Units=1/GPa)
#
#
# Indices 1 2 3 4 5 6 
#
# 1 0.010697 -0.000019 -0.001691 0.000000 0.004159 0.000000
# 2 -0.000019 0.016938 -0.002464 0.000000 -0.005639 0.000000
# 3 -0.001691 -0.002464 0.012359 0.000000 -0.001367 0.000000
# 4 0.000000 0.000000 0.000000 0.026144 0.000000 0.000845
# 5 0.004159 -0.005639 -0.001367 0.000000 0.036082 0.000000
# 6 0.000000 0.000000 0.000000 0.000845 0.000000 0.036871
#
#
# Mechanical properties :
#
#
# Convention : Reuss Voigt Hill
#
# Bulk Modulus (GPa) = 31.59996 33.11933 32.35965
# Shear Modulus (GPa) = 31.64813 34.34386 32.99600
#
# Velocity S-wave (km/s) = 3.63792 3.78969 3.71458
# Velocity P-wave (km/s) = 5.55520 5.74444 5.65061
#
# Compressibility (1/GPa) = 0.03164561
#
# Stress axis : x y z
#
# Youngs Moduli (GPa) = 93.48406 59.03866 80.91526
#
# Poissons Ratio (x) = 0.00113 0.13683
# Poissons Ratio (y) = 0.00179 0.19936
# Poissons Ratio (z) = 0.15809 0.14546
#
# Static dielectric constant tensor:
#      x y z
#    x 2.021890 0.000000 0.025140 
#    y 0.000000 1.955120 0.000000 
#    z 0.025140 0.000000 1.942000 
# 
# From -- ./inp_files/166145.got.cif
#   From: 2010.05.17/outbox.cif.g08.bks.cpg/sg15_84_cif.got.tgz:166145.got - 2010.06.03 18:47:42.
