data_PCOD9262788
_publ_section_title
;
Structure prediction by ZEFSAII (Michael W. Deem and Ramdas Pophale) SiO2 
 PCOD9262788
Probable space group: C 2/C
;
_chemical_formula_sum "Si O2"
_cell_formula_units_Z 64
_cell_length_a 8.708616
_cell_length_b 32.441992
_cell_length_c 13.754186
_cell_angle_alpha 90.000000
_cell_angle_beta 57.436004
_cell_angle_gamma 90.000000
_cell_volume 3275.000171
_symmetry_space_group_name_H-M "C 2/C"
_symmetry_group_IT_number 15
_symmetry_cell_setting 'monoclinic'
loop_
_space_group_symop_operation_xyz
x,y,z
-x,y,1/2-z
-x,-y,-z
x,-y,1/2+z
1/2+x,1/2+y,z
1/2-x,1/2+y,1/2-z
1/2-x,1/2-y,-z
1/2+x,1/2-y,1/2+z
loop_
_atom_site_type_symbol
_atom_site_label
_atom_site_fract_x
_atom_site_fract_y
_atom_site_fract_z
Si Si1 0.073134 0.645681 0.945051
Si Si2 0.312150 0.856233 0.872753
Si Si3 0.083941 0.715742 0.624563
Si Si4 0.607348 0.442618 0.914633
Si Si5 0.413766 0.474614 0.173128
Si Si6 0.528029 0.696024 0.076800
Si Si7 0.294496 0.107350 0.782216
Si Si8 0.194512 0.885621 0.530369
O O1 0.215368 0.633869 0.812128
O O2 0.988222 0.689381 0.941797
O O3 0.149611 0.645160 0.025800
O O4 0.902162 0.613906 0.993959
O O5 0.500000 0.849760 0.750000
O O6 0.231858 0.901873 0.875803
O O7 0.160609 0.821369 0.900771
O O8 0.302604 0.710891 0.550176
O O9 0.009620 0.761994 0.642530
O O10 0.000000 0.696470 0.750000
O O11 0.671445 0.482447 0.834072
O O12 0.423917 0.426538 0.921436
O O13 0.555404 0.459088 0.040478
O O14 0.500000 0.478602 0.250000
O O15 0.268483 0.438134 0.223286
O O16 0.605373 0.655419 0.105353
O O17 0.500000 0.106060 0.750000
O O18 0.187088 0.121969 0.915068
#
# Coordination Sequence:
#
# PCOD9262788 Si02
#       8
#     8   8   8   8   8   8   8   8
#     4  10  19  34  57  83 110 143 188 235 280 339
#     4  11  24  39  55  80 119 160 192 231 288 349
#     4  10  20  38  64  89 112 144 192 242 286 337
#     4   9  20  37  53  77 112 146 190 240 285 348
#     4  10  19  33  56  81 106 142 190 244 296 337
#     4   9  20  37  57  82 116 151 188 230 278 339
#     4   9  17  32  55  81 109 140 180 235 293 341
#     4   8  16  34  56  78 107 145 186 226 278 340
#
# _framework density 19.541983999999999
#
# number of rings (size 3 to 8) (size 9 to 14) (size 15 to 20)
#    0.000    2.500    0.000    2.625    0.000    5.000 
#    0.000    8.125    0.000    7.500    0.000    0.000 
#    0.000    0.000    0.000    0.000    0.000    0.000 
#
# Total GULP energy -178207.519013 kJ/mol
# GULP energy per Si atom -5568.984969 kJ/mol
# Density = 1.949751 g / cm^3
# Si number density = 19.541984 Si / 1000 Ang^3
#
#
#
# Elastic Constant Matrix: (Units=GPa)
#
#
# Indices 1 2 3 4 5 6 
#
# 1 78.5262 55.8004 41.7987 0.0000 2.2173 0.0000
# 2 55.8004 122.4823 43.6771 0.0000 10.2178 0.0000
# 3 41.7987 43.6771 59.0335 0.0000 2.4683 0.0000
# 4 0.0000 0.0000 0.0000 21.7489 0.0000 2.5273
# 5 2.2173 10.2178 2.4683 0.0000 20.4375 0.0000
# 6 0.0000 0.0000 0.0000 2.5273 0.0000 22.5910
#
#
#
# Elastic Compliance Matrix: (Units=1/GPa)
#
#
# Indices 1 2 3 4 5 6 
#
# 1 0.023870 -0.006795 -0.011968 0.000000 0.002253 0.000000
# 2 -0.006795 0.013468 -0.004927 0.000000 -0.005401 0.000000
# 3 -0.011968 -0.004927 0.029049 0.000000 0.000254 0.000000
# 4 0.000000 0.000000 0.000000 0.046585 0.000000 -0.005212
# 5 0.002253 -0.005401 0.000254 0.000000 0.051355 0.000000
# 6 0.000000 0.000000 0.000000 -0.005212 0.000000 0.044849
#
#
# Mechanical properties :
#
#
# Convention : Reuss Voigt Hill
#
# Bulk Modulus (GPa) = 52.61602 60.28824 56.45213
# Shear Modulus (GPa) = 19.01938 20.87320 19.94629
#
# Velocity S-wave (km/s) = 3.12309 3.27176 3.19829
# Velocity P-wave (km/s) = 6.32361 6.72236 6.52603
#
# Compressibility (1/GPa) = 0.01900562
#
# Stress axis : x y z
#
# Youngs Moduli (GPa) = 41.89410 74.25186 34.42513
#
# Poissons Ratio (x) = 0.50452 0.41200
# Poissons Ratio (y) = 0.28466 0.16963
# Poissons Ratio (z) = 0.50139 0.36588
#
# Static dielectric constant tensor:
#      x y z
#    x 1.669760 0.000000 -0.022930 
#    y 0.000000 1.707440 0.000000 
#    z -0.022930 0.000000 1.766030 
# 
# From -- ./inp_files/139510.got.cif
#   From: 2010.05.17/outbox.cif.g08.bks.cpg/sg15_70_cif.got.tgz:139510.got - 2010.06.03 18:47:42.
