data_PCOD9262183
_publ_section_title
;
Structure prediction by ZEFSAII (Michael W. Deem and Ramdas Pophale) SiO2 
 PCOD9262183
Probable space group: C 2/C
;
_chemical_formula_sum "Si O2"
_cell_formula_units_Z 56
_cell_length_a 17.143413
_cell_length_b 14.836927
_cell_length_c 10.657214
_cell_angle_alpha 90.000000
_cell_angle_beta 54.885118
_cell_angle_gamma 90.000000
_cell_volume 2217.371277
_symmetry_space_group_name_H-M "C 2/C"
_symmetry_group_IT_number 15
_symmetry_cell_setting 'monoclinic'
loop_
_space_group_symop_operation_xyz
x,y,z
-x,y,1/2-z
-x,-y,-z
x,-y,1/2+z
1/2+x,1/2+y,z
1/2-x,1/2+y,1/2-z
1/2-x,1/2-y,-z
1/2+x,1/2-y,1/2+z
loop_
_atom_site_type_symbol
_atom_site_label
_atom_site_fract_x
_atom_site_fract_y
_atom_site_fract_z
Si Si1 0.413442 0.494988 0.735736
Si Si2 0.960176 0.351147 0.971369
Si Si3 0.713931 0.281168 0.362211
Si Si4 0.012710 0.845988 0.512604
Si Si5 0.849601 0.585324 0.118369
Si Si6 0.729676 0.919009 0.394054
Si Si7 0.599712 0.145241 0.694196
O O1 0.500000 0.495006 0.750000
O O2 0.424717 0.395285 0.664188
O O3 0.442861 0.573073 0.610555
O O4 0.314955 0.531142 0.889662
O O5 0.873707 0.383613 0.963704
O O6 0.925115 0.383102 0.141802
O O7 0.977703 0.243317 0.968823
O O8 0.061806 0.399833 0.871418
O O9 0.607441 0.312684 0.500864
O O10 0.707896 0.177250 0.332510
O O11 0.732497 0.332477 0.214246
O O12 0.800545 0.305048 0.374111
O O13 0.786619 0.498220 0.194573
O O14 0.884254 0.579313 0.938762
O O15 0.500000 0.193850 0.750000
#
# Coordination Sequence:
#
# PCOD9262183 Si02
#       7
#     8   8   8   8   8   8   8
#     4  10  22  37  57  87 119 150 199 241 285 350
#     4   9  19  37  57  80 115 148 195 236 290 350
#     4   9  19  34  51  79 114 147 191 235 287 351
#     4   9  20  38  59  81 113 156 191 246 295 335
#     4  10  19  32  55  82 113 147 189 245 292 337
#     4  10  21  34  54  83 112 152 191 228 293 348
#     4   9  18  30  51  85 113 145 187 238 294 343
#
# _framework density 25.255129
#
# number of rings (size 3 to 8) (size 9 to 14) (size 15 to 20)
#    0.000    2.571    0.000    0.857    6.000    2.857 
#    0.000    0.714    0.000   12.857    0.000    0.000 
#    0.000    0.000    0.000    0.000    0.000    0.000 
#
# Total GULP energy -155893.964818 kJ/mol
# GULP energy per Si atom -5567.641601 kJ/mol
# Density = 2.519765 g / cm^3
# Si number density = 25.255129 Si / 1000 Ang^3
#
#
#
# Elastic Constant Matrix: (Units=GPa)
#
#
# Indices 1 2 3 4 5 6 
#
# 1 73.2385 26.6071 20.7639 0.0000 -49.7099 0.0000
# 2 26.6071 140.2737 0.9030 0.0000 -17.5065 0.0000
# 3 20.7639 0.9030 44.6132 0.0000 8.3681 0.0000
# 4 0.0000 0.0000 0.0000 4.9742 0.0000 -14.3446
# 5 -49.7099 -17.5065 8.3681 0.0000 23.1101 0.0000
# 6 0.0000 0.0000 0.0000 -14.3446 0.0000 29.0421
#
#
#
# Elastic Compliance Matrix: (Units=1/GPa)
#
#
# Indices 1 2 3 4 5 6 
#
# 1 -0.013823 -0.001957 0.013227 0.000000 -0.036005 0.000000
# 2 -0.001957 0.007675 0.000487 0.000000 0.001429 0.000000
# 3 0.013227 0.000487 0.011633 0.000000 0.024607 0.000000
# 4 0.000000 0.000000 0.000000 -0.473705 0.000000 -0.233975
# 5 -0.036005 0.001429 0.024607 0.000000 -0.042004 0.000000
# 6 0.000000 0.000000 0.000000 -0.233975 0.000000 -0.081134
#
#
# Mechanical properties :
#
#
# Convention : Reuss Voigt Hill
#
# Bulk Modulus (GPa) = 34.48251 39.40813 36.94532
# Shear Modulus (GPa) = -8.26168 25.41536 8.57684
#
# Velocity S-wave (km/s) = -1.81063 3.17573 1.84484
# Velocity P-wave (km/s) = 3.05158 5.39305 4.38161
#
# Compressibility (1/GPa) = 0.02900021
#
# Stress axis : x y z
#
# Youngs Moduli (GPa) = -72.34271 130.28876 85.95868
#
# Poissons Ratio (x) = 0.25494 -1.13695
# Poissons Ratio (y) = -0.14155 -0.04189
# Poissons Ratio (z) = 0.95685 -0.06349
#
# Static dielectric constant tensor:
#      x y z
#    x 2.124970 0.000000 0.003830 
#    y 0.000000 2.020530 0.000000 
#    z 0.003830 0.000000 2.165530 
# 
# From -- ./inp_files/161866.got.cif
#   From: 2010.05.17/outbox.cif.g08.bks.cpg/sg15_81_cif.got.tgz:161866.got - 2010.06.03 18:47:42.
