data_PCOD9262074
_publ_section_title
;
Structure prediction by ZEFSAII (Michael W. Deem and Ramdas Pophale) SiO2 
 PCOD9262074
Probable space group: C 2/C
;
_chemical_formula_sum "Si O2"
_cell_formula_units_Z 40
_cell_length_a 15.797866
_cell_length_b 7.389998
_cell_length_c 14.147480
_cell_angle_alpha 90.000000
_cell_angle_beta 98.234729
_cell_angle_gamma 90.000000
_cell_volume 1634.635176
_symmetry_space_group_name_H-M "C 2/C"
_symmetry_group_IT_number 15
_symmetry_cell_setting 'monoclinic'
loop_
_space_group_symop_operation_xyz
x,y,z
-x,y,1/2-z
-x,-y,-z
x,-y,1/2+z
1/2+x,1/2+y,z
1/2-x,1/2+y,1/2-z
1/2-x,1/2-y,-z
1/2+x,1/2-y,1/2+z
loop_
_atom_site_type_symbol
_atom_site_label
_atom_site_fract_x
_atom_site_fract_y
_atom_site_fract_z
Si Si1 0.239199 0.032246 0.064641
Si Si2 0.234449 0.364514 0.640211
Si Si3 0.395348 0.273789 0.053160
Si Si4 0.947534 0.351008 0.830197
Si Si5 0.588292 0.530073 0.275124
O O1 0.323059 0.153908 0.095887
O O2 0.231375 0.849804 0.121085
O O3 0.153454 0.154735 0.047260
O O4 0.252984 0.961412 0.958878
O O5 0.143569 0.435396 0.662530
O O6 0.317038 0.392767 0.718998
O O7 0.485353 0.169190 0.072383
O O8 0.412980 0.451973 0.118156
O O9 0.000000 0.429537 0.750000
O O10 0.923356 0.147849 0.791039
O O11 0.500000 0.640245 0.250000
#
# Coordination Sequence:
#
# PCOD9262074 Si02
#       5
#     8   8   8   8   8
#     4   9  18  32  53  78 102 129 166 211 256 301
#     4  10  19  32  53  79 103 129 168 214 253 295
#     4   8  16  34  53  73 102 134 165 202 256 308
#     4   9  19  33  51  71 101 138 172 203 244 299
#     4   8  17  35  52  69 100 136 170 206 250 303
#
# _framework density 24.470293000000002
#
# number of rings (size 3 to 8) (size 9 to 14) (size 15 to 20)
#    0.000    3.600    0.000    0.000    0.000    4.800 
#    0.000    6.000    0.000    0.000    0.000    0.000 
#    0.000    0.000    0.000    0.000    0.000    0.000 
#
# Total GULP energy -111488.057802 kJ/mol
# GULP energy per Si atom -5574.402890 kJ/mol
# Density = 2.441460 g / cm^3
# Si number density = 24.470293 Si / 1000 Ang^3
#
#
#
# Elastic Constant Matrix: (Units=GPa)
#
#
# Indices 1 2 3 4 5 6 
#
# 1 220.8232 22.5497 57.1232 0.0000 41.3724 0.0000
# 2 22.5497 66.9538 19.6379 0.0000 8.0199 0.0000
# 3 57.1232 19.6379 56.7777 0.0000 23.3852 0.0000
# 4 0.0000 0.0000 0.0000 9.3518 0.0000 -6.2268
# 5 41.3724 8.0199 23.3852 0.0000 42.9986 0.0000
# 6 0.0000 0.0000 0.0000 -6.2268 0.0000 9.2533
#
#
#
# Elastic Compliance Matrix: (Units=1/GPa)
#
#
# Indices 1 2 3 4 5 6 
#
# 1 0.006507 -0.000306 -0.005007 0.000000 -0.003481 0.000000
# 2 -0.000306 0.016636 -0.005528 0.000000 0.000198 0.000000
# 3 -0.005007 -0.005528 0.028548 0.000000 -0.009677 0.000000
# 4 0.000000 0.000000 0.000000 0.193740 0.000000 0.130374
# 5 -0.003481 0.000198 -0.009677 0.000000 0.031832 0.000000
# 6 0.000000 0.000000 0.000000 0.130374 0.000000 0.195803
#
#
# Mechanical properties :
#
#
# Convention : Reuss Voigt Hill
#
# Bulk Modulus (GPa) = 33.32278 60.35292 46.83785
# Shear Modulus (GPa) = 9.90586 28.67032 19.28809
#
# Velocity S-wave (km/s) = 2.01418 3.42663 2.81058
# Velocity P-wave (km/s) = 4.36537 6.35398 5.45112
#
# Compressibility (1/GPa) = 0.03000950
#
# Stress axis : x y z
#
# Youngs Moduli (GPa) = 153.67566 60.10938 35.02872
#
# Poissons Ratio (x) = 0.01839 0.17540
# Poissons Ratio (y) = 0.04702 0.19363
# Poissons Ratio (z) = 0.76951 0.33227
#
# Static dielectric constant tensor:
#      x y z
#    x 2.064410 0.000000 -0.019630 
#    y 0.000000 1.968070 0.000000 
#    z -0.019630 0.000000 1.998960 
# 
# From -- ./inp_files/202304.got.cif
#   From: 2010.05.17/outbox.cif.g08.bks.cpg/sg15_102_cif.got.tgz:202304.got - 2010.06.03 18:47:42.
