data_PCOD9262156
_publ_section_title
;
Structure prediction by ZEFSAII (Michael W. Deem and Ramdas Pophale) SiO2 
 PCOD9262156
Probable space group: C 2/C
;
_chemical_formula_sum "Si O2"
_cell_formula_units_Z 64
_cell_length_a 11.071985
_cell_length_b 22.050747
_cell_length_c 17.467614
_cell_angle_alpha 90.000000
_cell_angle_beta 136.962392
_cell_angle_gamma 90.000000
_cell_volume 2910.524130
_symmetry_space_group_name_H-M "C 2/C"
_symmetry_group_IT_number 15
_symmetry_cell_setting 'monoclinic'
loop_
_space_group_symop_operation_xyz
x,y,z
-x,y,1/2-z
-x,-y,-z
x,-y,1/2+z
1/2+x,1/2+y,z
1/2-x,1/2+y,1/2-z
1/2-x,1/2-y,-z
1/2+x,1/2-y,1/2+z
loop_
_atom_site_type_symbol
_atom_site_label
_atom_site_fract_x
_atom_site_fract_y
_atom_site_fract_z
Si Si1 0.685730 0.891550 0.669589
Si Si2 0.216765 0.654518 0.346610
Si Si3 0.775538 0.399212 0.498707
Si Si4 0.288940 0.290404 0.143706
Si Si5 0.667093 0.125553 0.722697
Si Si6 0.720863 0.165832 0.908839
Si Si7 0.201472 0.483847 0.120747
Si Si8 0.168178 0.189609 0.377643
O O1 0.763227 0.862844 0.782047
O O2 0.486061 0.909346 0.599521
O O3 0.674684 0.843456 0.595406
O O4 0.778690 0.952284 0.683070
O O5 0.285050 0.608001 0.442443
O O6 0.280513 0.722223 0.395895
O O7 0.000000 0.655868 0.250000
O O8 0.750396 0.334804 0.444854
O O9 0.705478 0.450292 0.408021
O O10 0.500000 0.287721 0.250000
O O11 0.215410 0.320872 0.186574
O O12 0.770434 0.135744 0.850777
O O13 0.462011 0.134122 0.649840
O O14 0.696381 0.063939 0.688564
O O15 0.686962 0.237891 0.881544
O O16 0.840091 0.166238 0.039708
O O17 0.000000 0.500000 0.000000
O O18 0.000000 0.171750 0.250000
#
# Coordination Sequence:
#
# PCOD9262156 Si02
#       8
#     8   8   8   8   8   8   8   8
#     4  10  20  37  53  81 113 148 187 233 288 341
#     4   9  18  31  50  78 109 134 177 225 275 332
#     4   9  18  35  54  78 109 146 189 229 277 340
#     4  10  19  32  54  83 115 147 180 226 293 347
#     4  10  19  38  58  86 116 150 202 248 284 352
#     4  10  21  37  60  90 114 152 201 244 301 349
#     4   9  18  34  57  80 111 149 197 238 288 333
#     4  11  21  37  57  85 120 151 190 239 304 360
#
# _framework density 21.989165
#
# number of rings (size 3 to 8) (size 9 to 14) (size 15 to 20)
#    0.000    2.250    1.250    3.375    0.000    0.000 
#   15.750    2.500    0.000    0.750    0.000    0.000 
#    0.000    0.000    0.000    0.000    0.000    0.000 
#
# Total GULP energy -178588.895109 kJ/mol
# GULP energy per Si atom -5580.902972 kJ/mol
# Density = 2.193912 g / cm^3
# Si number density = 21.989165 Si / 1000 Ang^3
#
#
#
# Elastic Constant Matrix: (Units=GPa)
#
#
# Indices 1 2 3 4 5 6 
#
# 1 39.7578 4.4448 34.5724 0.0000 -19.2745 0.0000
# 2 4.4448 88.2245 34.5085 0.0000 -18.9003 0.0000
# 3 34.5724 34.5085 108.6569 -0.0001 -45.4702 -0.0001
# 4 0.0000 0.0000 -0.0001 13.1559 0.0000 0.2793
# 5 -19.2745 -18.9003 -45.4702 0.0000 43.5568 0.0000
# 6 0.0000 0.0000 -0.0001 0.2793 0.0000 14.3490
#
#
#
# Elastic Compliance Matrix: (Units=1/GPa)
#
#
# Indices 1 2 3 4 5 6 
#
# 1 0.036904 0.003576 -0.009579 0.000000 0.007882 0.000000
# 2 0.003576 0.013426 -0.004087 0.000000 0.003142 0.000000
# 3 -0.009579 -0.004087 0.019592 0.000000 0.014440 0.000000
# 4 0.000000 0.000000 0.000000 0.076043 0.000000 -0.001480
# 5 0.007882 0.003142 0.014440 0.000000 0.042885 0.000000
# 6 0.000000 0.000000 0.000000 -0.001480 0.000000 0.069720
#
#
# Mechanical properties :
#
#
# Convention : Reuss Voigt Hill
#
# Bulk Modulus (GPa) = 20.10387 42.63227 31.36807
# Shear Modulus (GPa) = 16.93016 25.08657 21.00836
#
# Velocity S-wave (km/s) = 2.77777 3.38133 3.09430
# Velocity P-wave (km/s) = 4.41027 5.88850 5.20216
#
# Compressibility (1/GPa) = 0.04974166
#
# Stress axis : x y z
#
# Youngs Moduli (GPa) = 27.09757 74.48076 51.04061
#
# Poissons Ratio (x) = -0.26636 0.48893
# Poissons Ratio (y) = -0.09691 0.20861
# Poissons Ratio (z) = 0.25958 0.30442
#
# Static dielectric constant tensor:
#      x y z
#    x 1.866280 0.000000 0.036820 
#    y 0.000000 1.792680 0.000000 
#    z 0.036820 0.000000 1.782740 
# 
# From -- ./inp_files/200384.got.cif
#   From: 2010.05.17/outbox.cif.g08.bks.cpg/sg15_101_cif.got.tgz:200384.got - 2010.06.03 18:47:42.
