data_PCOD9262827
_publ_section_title
;
Structure prediction by ZEFSAII (Michael W. Deem and Ramdas Pophale) SiO2 
 PCOD9262827
Probable space group: C 2/C
;
_chemical_formula_sum "Si O2"
_cell_formula_units_Z 40
_cell_length_a 16.612697
_cell_length_b 9.593708
_cell_length_c 16.849832
_cell_angle_alpha 90.000000
_cell_angle_beta 36.167189
_cell_angle_gamma 90.000000
_cell_volume 1584.819519
_symmetry_space_group_name_H-M "C 2/C"
_symmetry_group_IT_number 15
_symmetry_cell_setting 'monoclinic'
loop_
_space_group_symop_operation_xyz
x,y,z
-x,y,1/2-z
-x,-y,-z
x,-y,1/2+z
1/2+x,1/2+y,z
1/2-x,1/2+y,1/2-z
1/2-x,1/2-y,-z
1/2+x,1/2-y,1/2+z
loop_
_atom_site_type_symbol
_atom_site_label
_atom_site_fract_x
_atom_site_fract_y
_atom_site_fract_z
Si Si1 0.348390 0.294100 0.032795
Si Si2 0.332941 0.016996 0.711466
Si Si3 0.080692 0.146454 0.450453
Si Si4 0.145340 0.517217 0.991404
Si Si5 0.116137 0.072765 0.592844
O O1 0.234061 0.365414 0.178988
O O2 0.308240 0.144335 0.032911
O O3 0.482655 0.255850 0.978488
O O4 0.388991 0.414156 0.938307
O O5 0.481936 0.979546 0.625357
O O6 0.232426 0.883985 0.800687
O O7 0.322809 0.054522 0.626039
O O8 0.086494 0.166790 0.539412
O O9 0.000000 0.000000 0.500000
O O10 0.237451 0.593580 0.982924
O O11 0.000000 0.091285 0.750000
#
# Coordination Sequence:
#
# PCOD9262827 Si02
#       5
#     8   8   8   8   8
#     4  10  21  35  57  84 114 154 186 227 289 348
#     4   9  21  36  52  79 117 148 188 232 283 340
#     4   8  17  35  52  76 111 155 176 219 283 346
#     4  11  21  34  57  88 109 149 192 241 277 330
#     4  10  19  33  56  85 118 140 184 235 290 336
#
# _framework density 25.239466
#
# number of rings (size 3 to 8) (size 9 to 14) (size 15 to 20)
#    0.000    2.800    0.000    4.200    5.600    3.200 
#    0.000    0.000    0.000    4.800   31.200    0.000 
#    0.000    0.000    0.000    0.000    0.000    0.000 
#
# Total GULP energy -111934.594744 kJ/mol
# GULP energy per Si atom -5596.729737 kJ/mol
# Density = 2.518202 g / cm^3
# Si number density = 25.239466 Si / 1000 Ang^3
#
#
#
# Elastic Constant Matrix: (Units=GPa)
#
#
# Indices 1 2 3 4 5 6 
#
# 1 230.1727 18.6935 68.4807 0.0000 -17.2452 0.0000
# 2 18.6935 68.9335 -12.2689 0.0000 -11.0484 0.0000
# 3 68.4807 -12.2689 141.9283 0.0000 -17.5510 0.0000
# 4 0.0000 0.0000 0.0000 14.2057 0.0000 -0.5181
# 5 -17.2452 -11.0484 -17.5510 0.0000 33.2594 0.0000
# 6 0.0000 0.0000 0.0000 -0.5181 0.0000 49.0971
#
#
#
# Elastic Compliance Matrix: (Units=1/GPa)
#
#
# Indices 1 2 3 4 5 6 
#
# 1 0.005331 -0.001788 -0.002630 0.000000 0.000782 0.000000
# 2 -0.001788 0.016525 0.003055 0.000000 0.006174 0.000000
# 3 -0.002630 0.003055 0.009132 0.000000 0.004470 0.000000
# 4 0.000000 0.000000 0.000000 0.070421 0.000000 0.000743
# 5 0.000782 0.006174 0.004470 0.000000 0.034882 0.000000
# 6 0.000000 0.000000 0.000000 0.000743 0.000000 0.020376
#
#
# Mechanical properties :
#
#
# Convention : Reuss Voigt Hill
#
# Bulk Modulus (GPa) = 35.38509 65.64945 50.51727
# Shear Modulus (GPa) = 29.61841 43.72104 36.66973
#
# Velocity S-wave (km/s) = 3.42935 4.16655 3.81579
# Velocity P-wave (km/s) = 5.45259 7.01526 6.28270
#
# Compressibility (1/GPa) = 0.02826049
#
# Stress axis : x y z
#
# Youngs Moduli (GPa) = 187.58571 60.51439 109.50929
#
# Poissons Ratio (x) = 0.10822 0.28801
# Poissons Ratio (y) = 0.33548 -0.33454
# Poissons Ratio (z) = 0.49336 -0.18487
#
# Static dielectric constant tensor:
#      x y z
#    x 1.978280 0.000000 0.007460 
#    y 0.000000 2.372390 0.000000 
#    z 0.007460 0.000000 1.954330 
# 
# From -- ./inp_files/153735.got.cif
#   From: 2010.05.17/outbox.cif.g08.bks.cpg/sg15_77_cif.got.tgz:153735.got - 2010.06.03 18:47:42.
