data_PCOD9262162
_publ_section_title
;
Structure prediction by ZEFSAII (Michael W. Deem and Ramdas Pophale) SiO2 
 PCOD9262162
Probable space group: C 2/C
;
_chemical_formula_sum "Si O2"
_cell_formula_units_Z 56
_cell_length_a 28.468216
_cell_length_b 6.773026
_cell_length_c 14.276667
_cell_angle_alpha 90.000000
_cell_angle_beta 126.186885
_cell_angle_gamma 90.000000
_cell_volume 2221.747706
_symmetry_space_group_name_H-M "C 2/C"
_symmetry_group_IT_number 15
_symmetry_cell_setting 'monoclinic'
loop_
_space_group_symop_operation_xyz
x,y,z
-x,y,1/2-z
-x,-y,-z
x,-y,1/2+z
1/2+x,1/2+y,z
1/2-x,1/2+y,1/2-z
1/2-x,1/2-y,-z
1/2+x,1/2-y,1/2+z
loop_
_atom_site_type_symbol
_atom_site_label
_atom_site_fract_x
_atom_site_fract_y
_atom_site_fract_z
Si Si1 0.451745 0.549960 0.054934
Si Si2 0.191751 0.895287 0.768122
Si Si3 0.333050 0.506522 0.976599
Si Si4 0.567138 0.693977 0.149545
Si Si5 0.388105 0.921406 0.886198
Si Si6 0.208230 0.444294 0.855770
Si Si7 0.682553 0.025599 0.025858
O O1 0.402245 0.477073 0.068851
O O2 0.453495 0.383023 0.976967
O O3 0.425972 0.745265 0.972025
O O4 0.516101 0.622062 0.157622
O O5 0.129049 0.908988 0.744508
O O6 0.207053 0.664891 0.807970
O O7 0.250189 0.005282 0.867352
O O8 0.180219 0.946350 0.646762
O O9 0.276344 0.408935 0.957229
O O10 0.326038 0.738422 0.988528
O O11 0.579681 0.926184 0.145415
O O12 0.361421 0.038083 0.944482
O O13 0.331339 0.831951 0.766277
O O14 0.173469 0.448054 0.911583
#
# Coordination Sequence:
#
# PCOD9262162 Si02
#       7
#     8   8   8   8   8   8   8
#     4   9  18  32  54  82 111 151 194 237 290 350
#     4   9  16  29  51  78 114 149 187 235 289 357
#     4   9  16  29  51  78 114 149 187 235 289 357
#     4   9  18  32  54  82 111 151 194 237 290 350
#     4  10  19  34  60  84 111 148 202 242 294 356
#     4  10  19  32  54  84 117 152 192 245 307 358
#     4  10  19  32  54  84 117 152 192 245 307 358
#
# _framework density 25.205380000000002
#
# number of rings (size 3 to 8) (size 9 to 14) (size 15 to 20)
#    0.000    2.571    1.429    2.143    0.000    0.000 
#    0.000    0.000    0.000   87.429    0.000   32.000 
#    0.000    0.000    0.000    0.000    0.000    0.000 
#
# Total GULP energy -156254.989083 kJ/mol
# GULP energy per Si atom -5580.535324 kJ/mol
# Density = 2.514801 g / cm^3
# Si number density = 25.205380 Si / 1000 Ang^3
#
#
#
# Elastic Constant Matrix: (Units=GPa)
#
#
# Indices 1 2 3 4 5 6 
#
# 1 109.7577 9.2846 29.8425 0.0000 15.1527 0.0000
# 2 9.2846 98.5817 11.3796 0.0000 5.3940 0.0000
# 3 29.8425 11.3796 49.7897 0.0000 -4.8476 0.0000
# 4 0.0000 0.0000 0.0000 22.1656 0.0000 10.9420
# 5 15.1527 5.3940 -4.8476 0.0000 50.1696 0.0000
# 6 0.0000 0.0000 0.0000 10.9420 0.0000 22.1335
#
#
#
# Elastic Compliance Matrix: (Units=1/GPa)
#
#
# Indices 1 2 3 4 5 6 
#
# 1 0.011722 -0.000012 -0.007438 0.000000 -0.004258 0.000000
# 2 -0.000012 0.010512 -0.002528 0.000000 -0.001371 0.000000
# 3 -0.007438 -0.002528 0.025606 0.000000 0.004992 0.000000
# 4 0.000000 0.000000 0.000000 0.059679 0.000000 -0.029503
# 5 -0.004258 -0.001371 0.004992 0.000000 0.021848 0.000000
# 6 0.000000 0.000000 0.000000 -0.029503 0.000000 0.059766
#
#
# Mechanical properties :
#
#
# Convention : Reuss Voigt Hill
#
# Bulk Modulus (GPa) = 35.86389 39.90472 37.88431
# Shear Modulus (GPa) = 22.89532 32.73521 27.81527
#
# Velocity S-wave (km/s) = 3.01716 3.60771 3.32557
# Velocity P-wave (km/s) = 5.13782 5.76371 5.45974
#
# Compressibility (1/GPa) = 0.02788320
#
# Stress axis : x y z
#
# Youngs Moduli (GPa) = 85.30916 95.13010 39.05286
#
# Poissons Ratio (x) = 0.00119 0.29046
# Poissons Ratio (y) = 0.00107 0.09875
# Poissons Ratio (z) = 0.63449 0.24054
#
# Static dielectric constant tensor:
#      x y z
#    x 2.084410 0.000000 0.035950 
#    y 0.000000 2.095690 0.000000 
#    z 0.035950 0.000000 1.947820 
# 
# From -- ./inp_files/176235.got.cif
#   From: 2010.05.17/outbox.cif.g08.bks.cpg/sg15_89_cif.got.tgz:176235.got - 2010.06.03 18:47:42.
