data_PCOD9262278
_publ_section_title
;
Structure prediction by ZEFSAII (Michael W. Deem and Ramdas Pophale) SiO2 
 PCOD9262278
Probable space group: C 2/C
;
_chemical_formula_sum "Si O2"
_cell_formula_units_Z 48
_cell_length_a 13.417860
_cell_length_b 13.420606
_cell_length_c 16.038687
_cell_angle_alpha 90.000000
_cell_angle_beta 37.063587
_cell_angle_gamma 90.000000
_cell_volume 1740.708670
_symmetry_space_group_name_H-M "C 2/C"
_symmetry_group_IT_number 15
_symmetry_cell_setting 'monoclinic'
loop_
_space_group_symop_operation_xyz
x,y,z
-x,y,1/2-z
-x,-y,-z
x,-y,1/2+z
1/2+x,1/2+y,z
1/2-x,1/2+y,1/2-z
1/2-x,1/2-y,-z
1/2+x,1/2-y,1/2+z
loop_
_atom_site_type_symbol
_atom_site_label
_atom_site_fract_x
_atom_site_fract_y
_atom_site_fract_z
Si Si1 0.560493 0.389857 0.495908
Si Si2 0.500000 0.554575 0.750000
Si Si3 0.000000 0.597663 0.250000
Si Si4 0.740729 0.731998 0.604460
Si Si5 0.197076 0.063301 0.225459
Si Si6 0.159039 0.411955 0.054829
Si Si7 0.661526 0.861746 0.308653
O O1 0.500000 0.500000 0.500000
O O2 0.387470 0.358684 0.656357
O O3 0.711484 0.378604 0.461511
O O4 0.655400 0.339958 0.352392
O O5 0.647291 0.628072 0.663389
O O6 0.478412 0.489378 0.683707
O O7 0.871754 0.674236 0.292139
O O8 0.897753 0.523102 0.377768
O O9 0.750000 0.750000 0.500000
O O10 0.877219 0.695264 0.578938
O O11 0.318008 0.981748 0.185551
O O12 0.266369 0.091820 0.088712
O O13 0.012380 0.352589 0.343043
#
# Coordination Sequence:
#
# PCOD9262278 Si02
#       7
#     8   4   4   8   8   8   8
#     4  10  20  35  57  94 138 176 226 288 359 419
#     4   9  16  32  52  78 126 171 216 265 350 408
#     4  11  22  36  64  96 138 175 234 293 352 416
#     4  10  22  37  55  86 139 194 226 282 364 437
#     4  10  19  32  57  88 133 177 219 286 360 414
#     4  12  20  37  63 101 135 171 237 306 341 419
#     4  10  21  36  57  90 138 180 234 289 358 419
#
# _framework density 27.574974000000001
#
# number of rings (size 3 to 8) (size 9 to 14) (size 15 to 20)
#    0.000    1.667    3.333    2.500    0.000    0.000 
#    0.000    0.000    0.000    0.000    0.000    1.167 
#   35.000    5.167    0.000    0.000    0.000    0.000 
#
# Total GULP energy -133646.716767 kJ/mol
# GULP energy per Si atom -5568.613199 kJ/mol
# Density = 2.751221 g / cm^3
# Si number density = 27.574974 Si / 1000 Ang^3
#
#
#
# Elastic Constant Matrix: (Units=GPa)
#
#
# Indices 1 2 3 4 5 6 
#
# 1 162.2560 22.5028 17.3205 -0.0005 33.6424 0.0003
# 2 22.5028 48.6165 7.6133 -0.0003 3.1362 0.0003
# 3 17.3205 7.6133 185.2065 -0.0005 -8.0477 0.0001
# 4 -0.0005 -0.0003 -0.0005 22.9642 0.0005 -3.7509
# 5 33.6424 3.1362 -8.0477 0.0005 28.7630 -0.0002
# 6 0.0003 0.0003 0.0001 -3.7509 -0.0002 -3.5471
#
#
#
# Elastic Compliance Matrix: (Units=1/GPa)
#
#
# Indices 1 2 3 4 5 6 
#
# 1 0.008886 -0.003265 -0.001147 0.000000 -0.010358 0.000000
# 2 -0.003265 0.022085 -0.000548 0.000000 0.001258 0.000001
# 3 -0.001147 -0.000548 0.005659 0.000000 0.002985 0.000000
# 4 0.000000 0.000000 0.000000 0.037132 -0.000001 -0.039266
# 5 -0.010358 0.001258 0.002985 -0.000001 0.047581 -0.000002
# 6 0.000000 0.000001 0.000000 -0.039266 -0.000002 -0.240398
#
#
# Mechanical properties :
#
#
# Convention : Reuss Voigt Hill
#
# Bulk Modulus (GPa) = 37.43897 54.55026 45.99462
# Shear Modulus (GPa) = -49.88435 32.87884 -8.50275
#
# Velocity S-wave (km/s) = -4.25790 3.45678 -1.75790
# Velocity P-wave (km/s) = 3.25059 5.97979 3.54905
#
# Compressibility (1/GPa) = 0.02671013
#
# Stress axis : x y z
#
# Youngs Moduli (GPa) = 112.53513 45.27927 176.71461
#
# Poissons Ratio (x) = 0.14785 0.20267
# Poissons Ratio (y) = 0.36746 0.09681
# Poissons Ratio (z) = 0.12907 0.02481
#
# Static dielectric constant tensor:
#      x y z
#    x 2.018070 0.000000 -0.363340 
#    y 0.000000 2.087300 0.000000 
#    z -0.363340 0.000000 1.724450 
# 
# From -- ./inp_files/168243.got.cif
#   From: 2010.05.17/outbox.cif.g08.bks.cpg/sg15_85_cif.got.tgz:168243.got - 2010.06.03 18:47:42.
