data_PCOD9262906
_publ_section_title
;
Structure prediction by ZEFSAII (Michael W. Deem and Ramdas Pophale) SiO2 
 PCOD9262906
Probable space group: C 2/C
;
_chemical_formula_sum "Si O2"
_cell_formula_units_Z 40
_cell_length_a 11.356314
_cell_length_b 22.570799
_cell_length_c 18.882468
_cell_angle_alpha 90.000000
_cell_angle_beta 156.096432
_cell_angle_gamma 90.000000
_cell_volume 1961.150545
_symmetry_space_group_name_H-M "C 2/C"
_symmetry_group_IT_number 15
_symmetry_cell_setting 'monoclinic'
loop_
_space_group_symop_operation_xyz
x,y,z
-x,y,1/2-z
-x,-y,-z
x,-y,1/2+z
1/2+x,1/2+y,z
1/2-x,1/2+y,1/2-z
1/2-x,1/2-y,-z
1/2+x,1/2-y,1/2+z
loop_
_atom_site_type_symbol
_atom_site_label
_atom_site_fract_x
_atom_site_fract_y
_atom_site_fract_z
Si Si1 0.154734 0.941969 0.056695
Si Si2 0.638967 0.269405 0.751420
Si Si3 0.236565 0.197421 0.936832
Si Si4 0.334680 0.385900 0.583872
Si Si5 0.808721 0.140818 0.793242
O O1 0.500000 0.951184 0.250000
O O2 0.103598 0.887852 0.083553
O O3 0.072368 0.927186 0.930496
O O4 0.000000 0.000000 0.000000
O O5 0.500000 0.252520 0.750000
O O6 0.418379 0.319382 0.602562
O O7 0.709630 0.209089 0.749920
O O8 0.946512 0.304905 0.923824
O O9 0.000000 0.215689 0.750000
O O10 0.087575 0.141970 0.894845
O O11 0.250000 0.250000 0.000000
O O12 0.500000 0.394480 0.750000
O O13 0.984046 0.390152 0.396850
#
# Coordination Sequence:
#
# PCOD9262906 Si02
#       5
#     8   8   8   8   8
#     4  10  23  43  63  85 118 163 210 249 294 353
#     4  10  19  33  57  87 121 158 195 241 301 363
#     4  10  21  34  50  80 120 158 197 243 296 355
#     4  10  20  36  61  90 117 152 199 249 300 360
#     4  10  21  38  57  84 122 161 199 246 299 361
#
# _framework density 20.396190000000001
#
# number of rings (size 3 to 8) (size 9 to 14) (size 15 to 20)
#    0.000    2.000    0.000    4.800    0.000   11.200 
#    0.000    6.000    0.000    0.000    0.000    0.000 
#    0.000    0.000    0.000    0.000    0.000    0.000 
#
# Total GULP energy -111452.953520 kJ/mol
# GULP energy per Si atom -5572.647676 kJ/mol
# Density = 2.034977 g / cm^3
# Si number density = 20.396190 Si / 1000 Ang^3
#
#
#
# Elastic Constant Matrix: (Units=GPa)
#
#
# Indices 1 2 3 4 5 6 
#
# 1 129.7245 32.6948 58.3430 0.1428 -9.4785 -0.0629
# 2 32.6948 58.7598 6.5082 -0.2096 -13.6573 0.0648
# 3 58.3430 6.5082 92.2684 -0.0274 7.8782 0.0811
# 4 0.1428 -0.2096 -0.0274 18.5853 -0.0548 7.3588
# 5 -9.4785 -13.6573 7.8782 -0.0548 41.2358 0.0562
# 6 -0.0629 0.0648 0.0811 7.3588 0.0562 39.2440
#
#
#
# Elastic Compliance Matrix: (Units=1/GPa)
#
#
# Indices 1 2 3 4 5 6 
#
# 1 0.012936 -0.005705 -0.008000 -0.000200 0.002612 0.000080
# 2 -0.005705 0.021272 0.001644 0.000350 0.005420 -0.000121
# 3 -0.008000 0.001644 0.016155 0.000116 -0.004380 -0.000064
# 4 -0.000200 0.000350 0.000116 0.058128 0.000140 -0.010901
# 5 0.002612 0.005420 -0.004380 0.000140 0.027484 -0.000061
# 6 0.000080 -0.000121 -0.000064 -0.010901 -0.000061 0.027526
#
#
# Mechanical properties :
#
#
# Convention : Reuss Voigt Hill
#
# Bulk Modulus (GPa) = 38.10902 52.87163 45.49032
# Shear Modulus (GPa) = 25.46226 32.02681 28.74454
#
# Velocity S-wave (km/s) = 3.53708 3.96692 3.75815
# Velocity P-wave (km/s) = 5.95031 6.85277 6.41742
#
# Compressibility (1/GPa) = 0.02624051
#
# Stress axis : x y z
#
# Youngs Moduli (GPa) = 77.30539 47.01027 61.90131
#
# Poissons Ratio (x) = 0.26820 0.49522
# Poissons Ratio (y) = 0.44104 -0.10180
# Poissons Ratio (z) = 0.61846 -0.07731
#
# Static dielectric constant tensor:
#      x y z
#    x 1.745920 0.000030 0.044360 
#    y 0.000030 1.732710 -0.000080 
#    z 0.044360 -0.000080 1.755930 
# 
# From -- ./inp_files/240830.got.cif
#   From: 2010.05.17/outbox.cif.g08.bks.cpg/sg15_121_cif.got.tgz:240830.got - 2010.06.03 18:47:42.
