data_PCOD9262916
_publ_section_title
;
Structure prediction by ZEFSAII (Michael W. Deem and Ramdas Pophale) SiO2 
 PCOD9262916
Probable space group: C 2/C
;
_chemical_formula_sum "Si O2"
_cell_formula_units_Z 60
_cell_length_a 9.160651
_cell_length_b 16.232500
_cell_length_c 21.875517
_cell_angle_alpha 90.000000
_cell_angle_beta 116.439792
_cell_angle_gamma 90.000000
_cell_volume 2912.651313
_symmetry_space_group_name_H-M "C 2/C"
_symmetry_group_IT_number 15
_symmetry_cell_setting 'monoclinic'
loop_
_space_group_symop_operation_xyz
x,y,z
-x,y,1/2-z
-x,-y,-z
x,-y,1/2+z
1/2+x,1/2+y,z
1/2-x,1/2+y,1/2-z
1/2-x,1/2-y,-z
1/2+x,1/2-y,1/2+z
loop_
_atom_site_type_symbol
_atom_site_label
_atom_site_fract_x
_atom_site_fract_y
_atom_site_fract_z
Si Si1 0.178127 0.343838 0.919236
Si Si2 0.398930 0.033021 0.333461
Si Si3 0.192359 0.295394 0.380009
Si Si4 0.370470 0.421126 0.170621
Si Si5 0.500000 0.093744 0.750000
Si Si6 0.959565 0.834404 0.067969
Si Si7 0.324509 0.669230 0.223610
Si Si8 0.647131 0.239596 0.647082
O O1 0.078051 0.259641 0.916399
O O2 0.283417 0.314591 0.880030
O O3 0.061828 0.423305 0.889547
O O4 0.308773 0.357559 0.997028
O O5 0.313110 0.107662 0.282565
O O6 0.261777 0.995672 0.353870
O O7 0.426048 0.962756 0.289014
O O8 0.365954 0.329563 0.432969
O O9 0.216871 0.209041 0.349215
O O10 0.128019 0.353267 0.312848
O O11 0.042580 0.284467 0.398959
O O12 0.500000 0.429581 0.250000
O O13 0.462847 0.398675 0.124883
O O14 0.260431 0.339205 0.159113
O O15 0.500000 0.627367 0.250000
O O16 0.344566 0.735480 0.280582
#
# Coordination Sequence:
#
# PCOD9262916 Si02
#       8
#     8   8   8   8   4   8   8   8
#     4  10  23  39  60  90 120 169 212 255 296 367
#     4  12  22  36  58  93 128 154 200 268 313 362
#     4  11  19  39  63  87 120 162 199 260 309 376
#     4  11  22  37  63  92 122 162 205 252 327 381
#     4  12  22  36  60  94 124 154 194 256 328 358
#     4  10  22  41  63  85 122 167 217 245 299 384
#     4  10  19  33  57  89 118 151 200 255 311 355
#     4  10  20  37  61  87 122 163 207 250 315 379
#
# _framework density 20.599788
#
# number of rings (size 3 to 8) (size 9 to 14) (size 15 to 20)
#    0.000    1.333    4.667    2.800    1.867    1.067 
#    0.000    0.667    0.000    0.000    0.000    0.000 
#    0.000    0.000    0.000    0.000    0.000    0.000 
#
# Total GULP energy -167228.050137 kJ/mol
# GULP energy per Si atom -5574.268338 kJ/mol
# Density = 2.055290 g / cm^3
# Si number density = 20.599788 Si / 1000 Ang^3
#
#
#
# Elastic Constant Matrix: (Units=GPa)
#
#
# Indices 1 2 3 4 5 6 
#
# 1 101.2178 18.7622 26.5802 0.0000 26.5479 0.0000
# 2 18.7622 60.9366 16.9519 0.0000 11.5856 0.0000
# 3 26.5802 16.9519 53.7980 0.0000 20.7903 0.0000
# 4 0.0000 0.0000 0.0000 9.8606 0.0000 7.1440
# 5 26.5479 11.5856 20.7903 0.0000 27.5599 0.0000
# 6 0.0000 0.0000 0.0000 7.1440 0.0000 17.0818
#
#
#
# Elastic Compliance Matrix: (Units=1/GPa)
#
#
# Indices 1 2 3 4 5 6 
#
# 1 0.013548 -0.001545 -0.001997 0.000000 -0.010895 0.000000
# 2 -0.001545 0.018593 -0.003741 0.000000 -0.003507 0.000000
# 3 -0.001997 -0.003741 0.027386 0.000000 -0.017163 0.000000
# 4 0.000000 0.000000 0.000000 0.145502 0.000000 -0.060853
# 5 -0.010895 -0.003507 -0.017163 0.000000 0.061201 0.000000
# 6 0.000000 0.000000 0.000000 -0.060853 0.000000 0.083992
#
#
# Mechanical properties :
#
#
# Convention : Reuss Voigt Hill
#
# Bulk Modulus (GPa) = 22.24003 37.83788 30.03895
# Shear Modulus (GPa) = 13.16572 21.14433 17.15502
#
# Velocity S-wave (km/s) = 2.53082 3.20728 2.88892
# Velocity P-wave (km/s) = 4.39997 5.66776 5.07362
#
# Compressibility (1/GPa) = 0.04496397
#
# Stress axis : x y z
#
# Youngs Moduli (GPa) = 73.81231 53.78272 36.51504
#
# Poissons Ratio (x) = 0.08307 0.07291
# Poissons Ratio (y) = 0.11400 0.13658
# Poissons Ratio (z) = 0.14737 0.20117
#
# Static dielectric constant tensor:
#      x y z
#    x 1.832320 0.000000 -0.000820 
#    y 0.000000 1.752160 0.000000 
#    z -0.000820 0.000000 1.727940 
# 
# From -- ./inp_files/265568.got.cif
#   From: 2010.05.17/outbox.cif.g08.bks.cpg/sg15_133_cif.got.tgz:265568.got - 2010.06.03 18:47:42.
