data_PCOD9262367
_publ_section_title
;
Structure prediction by ZEFSAII (Michael W. Deem and Ramdas Pophale) SiO2 
 PCOD9262367
Probable space group: C 2/C
;
_chemical_formula_sum "Si O2"
_cell_formula_units_Z 32
_cell_length_a 11.023493
_cell_length_b 25.306541
_cell_length_c 5.227001
_cell_angle_alpha 90.000000
_cell_angle_beta 102.569654
_cell_angle_gamma 90.000000
_cell_volume 1423.209161
_symmetry_space_group_name_H-M "C 2/C"
_symmetry_group_IT_number 15
_symmetry_cell_setting 'monoclinic'
loop_
_space_group_symop_operation_xyz
x,y,z
-x,y,1/2-z
-x,-y,-z
x,-y,1/2+z
1/2+x,1/2+y,z
1/2-x,1/2+y,1/2-z
1/2-x,1/2-y,-z
1/2+x,1/2-y,1/2+z
loop_
_atom_site_type_symbol
_atom_site_label
_atom_site_fract_x
_atom_site_fract_y
_atom_site_fract_z
Si Si1 0.640603 0.965200 0.356381
Si Si2 0.203556 0.864175 0.181253
Si Si3 0.391474 0.797255 0.544943
Si Si4 0.866236 0.187048 0.354780
O O1 0.500000 0.943476 0.250000
O O2 0.746285 0.921783 0.359472
O O3 0.651202 0.989534 0.644197
O O4 0.329178 0.829877 0.288881
O O5 0.134113 0.856279 0.419472
O O6 0.123610 0.839005 0.916577
O O7 0.500000 0.825398 0.750000
O O8 0.277360 0.791385 0.691844
O O9 0.436286 0.740273 0.468294
#
# Coordination Sequence:
#
# PCOD9262367 Si02
#       4
#     8   8   8   8
#     4  10  21  32  46  70  96 124 167 204 230 283
#     4  10  19  33  49  64 101 131 159 192 243 278
#     4   9  20  31  50  71  99 132 160 195 236 286
#     4   9  20  33  45  73  97 128 164 199 225 291
#
# _framework density 22.484397000000001
#
# number of rings (size 3 to 8) (size 9 to 14) (size 15 to 20)
#    1.500    1.000    0.000    2.250    3.500    1.000 
#    0.000    0.000    0.000    0.000    0.000    0.000 
#    0.000   20.000    0.000    0.000    0.000    0.000 
#
# Total GULP energy -89251.557391 kJ/mol
# GULP energy per Si atom -5578.222337 kJ/mol
# Density = 2.243322 g / cm^3
# Si number density = 22.484397 Si / 1000 Ang^3
#
#
#
# Elastic Constant Matrix: (Units=GPa)
#
#
# Indices 1 2 3 4 5 6 
#
# 1 42.3566 7.7725 19.8303 0.0000 -6.4750 0.0000
# 2 7.7725 38.2798 -3.9099 0.0000 1.2994 0.0000
# 3 19.8303 -3.9099 129.0495 0.0000 0.8378 0.0000
# 4 0.0000 0.0000 0.0000 19.3640 0.0000 0.5192
# 5 -6.4750 1.2994 0.8378 0.0000 46.8262 0.0000
# 6 0.0000 0.0000 0.0000 0.5192 0.0000 28.9951
#
#
#
# Elastic Compliance Matrix: (Units=1/GPa)
#
#
# Indices 1 2 3 4 5 6 
#
# 1 0.027430 -0.006159 -0.004428 0.000000 0.004043 0.000000
# 2 -0.006159 0.027613 0.001794 0.000000 -0.001650 0.000000
# 3 -0.004428 0.001794 0.008489 0.000000 -0.000814 0.000000
# 4 0.000000 0.000000 0.000000 0.051667 0.000000 -0.000925
# 5 0.004043 -0.001650 -0.000814 0.000000 0.021975 0.000000
# 6 0.000000 0.000000 0.000000 -0.000925 0.000000 0.034505
#
#
# Mechanical properties :
#
#
# Convention : Reuss Voigt Hill
#
# Bulk Modulus (GPa) = 21.76466 28.56354 25.16410
# Shear Modulus (GPa) = 24.44013 31.43659 27.93836
#
# Velocity S-wave (km/s) = 3.30052 3.74324 3.52883
# Velocity P-wave (km/s) = 4.92194 5.60480 5.27443
#
# Compressibility (1/GPa) = 0.04594604
#
# Stress axis : x y z
#
# Youngs Moduli (GPa) = 36.45597 36.21455 117.79945
#
# Poissons Ratio (x) = 0.22305 0.52161
# Poissons Ratio (y) = 0.22454 -0.21130
# Poissons Ratio (z) = 0.16142 -0.06496
#
# Static dielectric constant tensor:
#      x y z
#    x 1.965080 0.000000 -0.023140 
#    y 0.000000 1.803690 0.000000 
#    z -0.023140 0.000000 1.843780 
# 
# From -- ./inp_files/4437.got.cif
#   From: 2010.05.17/outbox.cif.g08.bks.cpg/sg15_3_cif.got.tgz:4437.got - 2010.06.03 18:47:42.
