data_PCOD9262908
_publ_section_title
;
Structure prediction by ZEFSAII (Michael W. Deem and Ramdas Pophale) SiO2 
 PCOD9262908
Probable space group: C 2/C
;
_chemical_formula_sum "Si O2"
_cell_formula_units_Z 60
_cell_length_a 8.780510
_cell_length_b 32.948941
_cell_length_c 8.476421
_cell_angle_alpha 90.000000
_cell_angle_beta 110.771686
_cell_angle_gamma 90.000000
_cell_volume 2292.903716
_symmetry_space_group_name_H-M "C 2/C"
_symmetry_group_IT_number 15
_symmetry_cell_setting 'monoclinic'
loop_
_space_group_symop_operation_xyz
x,y,z
-x,y,1/2-z
-x,-y,-z
x,-y,1/2+z
1/2+x,1/2+y,z
1/2-x,1/2+y,1/2-z
1/2-x,1/2-y,-z
1/2+x,1/2-y,1/2+z
loop_
_atom_site_type_symbol
_atom_site_label
_atom_site_fract_x
_atom_site_fract_y
_atom_site_fract_z
Si Si1 0.000000 0.438523 0.250000
Si Si2 0.452217 0.207418 0.555191
Si Si3 0.370917 0.661540 0.046435
Si Si4 0.791367 0.920280 0.562345
Si Si5 0.597542 0.280179 0.471600
Si Si6 0.252596 0.351077 0.152826
Si Si7 0.400266 0.430291 0.053822
Si Si8 0.188516 0.505449 0.610905
O O1 0.894617 0.414955 0.080370
O O2 0.845354 0.464595 0.255534
O O3 0.500000 0.221795 0.750000
O O4 0.269385 0.193591 0.480328
O O5 0.466600 0.244450 0.438614
O O6 0.571426 0.168154 0.575327
O O7 0.335161 0.623750 0.148814
O O8 0.536654 0.687351 0.084612
O O9 0.317864 0.641374 0.854950
O O10 0.766490 0.961236 0.654592
O O11 0.959333 0.928497 0.525543
O O12 0.750000 0.250000 0.500000
O O13 0.643738 0.312328 0.357553
O O14 0.296625 0.389234 0.057085
O O15 0.500000 0.437819 0.250000
O O16 0.279368 0.468510 0.010857
O O17 0.000000 0.500000 0.500000
#
# Coordination Sequence:
#
# PCOD9262908 Si02
#       8
#     4   8   8   8   8   8   8   8
#     4  10  20  38  56  84 122 152 190 236 286 338
#     4   9  21  32  53  79 112 143 178 222 277 334
#     4  11  19  32  55  86 111 138 182 229 282 325
#     4  11  22  34  59  88 116 149 190 239 281 339
#     4  10  19  34  50  78 111 141 176 220 279 332
#     4  10  19  33  57  88 109 137 177 235 281 331
#     4  12  19  35  58  85 117 147 188 235 290 333
#     4  10  23  36  55  85 118 153 186 235 289 338
#
# _framework density 26.167693
#
# number of rings (size 3 to 8) (size 9 to 14) (size 15 to 20)
#    0.000    1.600    4.000    1.200    6.533    0.000 
#    0.000    0.000    0.000    4.000    6.933    0.000 
#    0.000    0.000    0.000    0.000    0.000    0.000 
#
# Total GULP energy -167034.318335 kJ/mol
# GULP energy per Si atom -5567.810611 kJ/mol
# Density = 2.610813 g / cm^3
# Si number density = 26.167693 Si / 1000 Ang^3
#
#
#
# Elastic Constant Matrix: (Units=GPa)
#
#
# Indices 1 2 3 4 5 6 
#
# 1 156.5484 73.7637 20.8190 0.0000 -0.2320 0.0000
# 2 73.7637 184.2059 18.2285 0.0000 0.7485 0.0000
# 3 20.8190 18.2285 45.6361 0.0000 9.0067 0.0000
# 4 0.0000 0.0000 0.0000 21.1318 0.0000 -21.8749
# 5 -0.2320 0.7485 9.0067 0.0000 33.9414 0.0000
# 6 0.0000 0.0000 0.0000 -21.8749 0.0000 61.9433
#
#
#
# Elastic Compliance Matrix: (Units=1/GPa)
#
#
# Indices 1 2 3 4 5 6 
#
# 1 0.008163 -0.003006 -0.002688 0.000000 0.000835 0.000000
# 2 -0.003006 0.006767 -0.001370 0.000000 0.000194 0.000000
# 3 -0.002688 -0.001370 0.024992 0.000000 -0.006620 0.000000
# 4 0.000000 0.000000 0.000000 0.074589 0.000000 0.026341
# 5 0.000835 0.000194 -0.006620 0.000000 0.031221 0.000000
# 6 0.000000 0.000000 0.000000 0.026341 0.000000 0.025446
#
#
# Mechanical properties :
#
#
# Convention : Reuss Voigt Hill
#
# Bulk Modulus (GPa) = 38.76794 68.00142 53.38468
# Shear Modulus (GPa) = 25.78588 41.64191 33.71390
#
# Velocity S-wave (km/s) = 3.14253 3.99350 3.59329
# Velocity P-wave (km/s) = 5.29289 6.87803 6.13685
#
# Compressibility (1/GPa) = 0.02579451
#
# Stress axis : x y z
#
# Youngs Moduli (GPa) = 122.50400 147.76964 40.01210
#
# Poissons Ratio (x) = 0.44423 0.10755
# Poissons Ratio (y) = 0.36827 0.05481
# Poissons Ratio (z) = 0.32929 0.20243
#
# Static dielectric constant tensor:
#      x y z
#    x 2.177130 0.000000 0.390990 
#    y 0.000000 2.124420 0.000000 
#    z 0.390990 0.000000 2.892070 
# 
# From -- ./inp_files/138264.got.cif
#   From: 2010.05.17/outbox.cif.g08.bks.cpg/sg15_70_cif.got.tgz:138264.got - 2010.06.03 18:47:42.
