data_PCOD9262993
_publ_section_title
;
Structure prediction by ZEFSAII (Michael W. Deem and Ramdas Pophale) SiO2 
 PCOD9262993
Probable space group: C 2/C
;
_chemical_formula_sum "Si O2"
_cell_formula_units_Z 44
_cell_length_a 25.148942
_cell_length_b 5.948340
_cell_length_c 15.020943
_cell_angle_alpha 90.000000
_cell_angle_beta 112.367488
_cell_angle_gamma 90.000000
_cell_volume 2077.986556
_symmetry_space_group_name_H-M "C 2/C"
_symmetry_group_IT_number 15
_symmetry_cell_setting 'monoclinic'
loop_
_space_group_symop_operation_xyz
x,y,z
-x,y,1/2-z
-x,-y,-z
x,-y,1/2+z
1/2+x,1/2+y,z
1/2-x,1/2+y,1/2-z
1/2-x,1/2-y,-z
1/2+x,1/2-y,1/2+z
loop_
_atom_site_type_symbol
_atom_site_label
_atom_site_fract_x
_atom_site_fract_y
_atom_site_fract_z
Si Si1 0.159445 0.159607 0.937519
Si Si2 0.361655 0.271459 0.429229
Si Si3 0.740210 0.056270 0.068125
Si Si4 0.000000 0.822795 0.750000
Si Si5 0.031312 0.877113 0.103776
Si Si6 0.939255 0.466005 0.602385
O O1 0.098941 0.271761 0.877372
O O2 0.196353 0.047253 0.881994
O O3 0.200100 0.358662 0.002111
O O4 0.146718 0.977036 0.006603
O O5 0.298058 0.165473 0.378175
O O6 0.401523 0.348526 0.374344
O O7 0.401869 0.082579 0.501587
O O8 0.750000 0.250000 0.000000
O O9 0.951771 0.658470 0.680666
O O10 0.978066 0.969754 0.816949
O O11 0.997029 0.645881 0.101178
O O12 0.000000 0.000000 0.000000
#
# Coordination Sequence:
#
# PCOD9262993 Si02
#       6
#     8   8   8   4   8   8
#     4   9  16  31  52  84 124 145 196 255 303 367
#     4  10  19  33  59  83 121 162 197 252 319 364
#     4   8  16  28  50  85 121 144 201 249 302 372
#     4  12  26  36  54  88 128 164 218 248 316 396
#     4  12  23  40  58  85 131 164 206 259 314 389
#     4  11  21  36  57  84 126 162 199 255 319 383
#
# _framework density 21.174341999999999
#
# number of rings (size 3 to 8) (size 9 to 14) (size 15 to 20)
#    0.000    1.818    3.636    1.091    0.000    0.000 
#    0.000    0.000    0.000    0.000    0.000    0.000 
#  878.182    0.000    0.000    0.182    0.000    0.000 
#
# Total GULP energy -122727.527353 kJ/mol
# GULP energy per Si atom -5578.523971 kJ/mol
# Density = 2.112615 g / cm^3
# Si number density = 21.174342 Si / 1000 Ang^3
#
#
#
# Elastic Constant Matrix: (Units=GPa)
#
#
# Indices 1 2 3 4 5 6 
#
# 1 180.2464 57.6227 32.7501 0.0000 -41.8850 0.0000
# 2 57.6227 101.9407 21.6316 0.0000 -22.4246 0.0000
# 3 32.7501 21.6316 54.8840 0.0000 -23.9658 0.0000
# 4 0.0000 0.0000 0.0000 19.8647 0.0000 12.9514
# 5 -41.8850 -22.4246 -23.9658 0.0000 18.9159 0.0000
# 6 0.0000 0.0000 0.0000 12.9514 0.0000 54.6569
#
#
#
# Elastic Compliance Matrix: (Units=1/GPa)
#
#
# Indices 1 2 3 4 5 6 
#
# 1 0.014166 -0.000453 0.011612 0.000000 0.045542 0.000000
# 2 -0.000453 0.013623 0.003391 0.000000 0.019443 0.000000
# 3 0.011612 0.003391 0.051342 0.000000 0.094781 0.000000
# 4 0.000000 0.000000 0.000000 0.059539 0.000000 -0.014108
# 5 0.045542 0.019443 0.094781 0.000000 0.296843 0.000000
# 6 0.000000 0.000000 0.000000 -0.014108 0.000000 0.021639
#
#
# Mechanical properties :
#
#
# Convention : Reuss Voigt Hill
#
# Bulk Modulus (GPa) = 9.23947 62.34222 35.79084
# Shear Modulus (GPa) = 10.77288 33.69196 22.23242
#
# Velocity S-wave (km/s) = 2.25804 3.99327 3.24384
# Velocity P-wave (km/s) = 3.34235 7.12516 5.56503
#
# Compressibility (1/GPa) = 0.10823136
#
# Stress axis : x y z
#
# Youngs Moduli (GPa) = 70.59221 73.40399 19.47720
#
# Poissons Ratio (x) = 0.03327 -0.22617
# Poissons Ratio (y) = 0.03200 -0.06605
# Poissons Ratio (z) = -0.81973 -0.24892
#
# Static dielectric constant tensor:
#      x y z
#    x 1.823030 0.000000 0.006210 
#    y 0.000000 1.820600 0.000000 
#    z 0.006210 0.000000 1.758550 
# 
# From -- ./inp_files/170826.got.cif
#   From: 2010.05.17/outbox.cif.g08.bks.cpg/sg15_86_cif.got.tgz:170826.got - 2010.06.03 18:47:42.
