data_PCOD9262273
_publ_section_title
;
Structure prediction by ZEFSAII (Michael W. Deem and Ramdas Pophale) SiO2 
 PCOD9262273
Probable space group: C 2/C
;
_chemical_formula_sum "Si O2"
_cell_formula_units_Z 36
_cell_length_a 5.268311
_cell_length_b 24.764141
_cell_length_c 17.572709
_cell_angle_alpha 90.000000
_cell_angle_beta 54.975467
_cell_angle_gamma 90.000000
_cell_volume 1877.446808
_symmetry_space_group_name_H-M "C 2/C"
_symmetry_group_IT_number 15
_symmetry_cell_setting 'monoclinic'
loop_
_space_group_symop_operation_xyz
x,y,z
-x,y,1/2-z
-x,-y,-z
x,-y,1/2+z
1/2+x,1/2+y,z
1/2-x,1/2+y,1/2-z
1/2-x,1/2-y,-z
1/2+x,1/2-y,1/2+z
loop_
_atom_site_type_symbol
_atom_site_label
_atom_site_fract_x
_atom_site_fract_y
_atom_site_fract_z
Si Si1 0.461124 0.627413 0.500640
Si Si2 0.383623 0.059488 0.539673
Si Si3 0.000000 0.091257 0.750000
Si Si4 0.116001 0.237173 0.439712
Si Si5 0.051996 0.687253 0.818864
O O1 0.686002 0.586933 0.506234
O O2 0.645035 0.672939 0.421138
O O3 0.187031 0.596089 0.504370
O O4 0.272331 0.664184 0.593586
O O5 0.161850 0.059693 0.652861
O O6 0.500000 0.000000 0.500000
O O7 0.741292 0.133328 0.766799
O O8 0.250000 0.250000 0.500000
O O9 0.222415 0.277886 0.354870
O O10 0.750000 0.250000 0.500000
O O11 0.000000 0.719401 0.750000
#
# Coordination Sequence:
#
# PCOD9262273 Si02
#       5
#     8   8   4   8   8
#     4  10  20  37  54  85 118 147 194 240 293 352
#     4  11  22  37  61  84 111 158 202 248 297 336
#     4  10  20  36  56  86 118 142 204 256 288 346
#     4  10  20  33  54  83 117 151 176 228 299 357
#     4  10  19  32  57  86 118 149 194 244 294 350
#
# _framework density 19.174977999999999
#
# number of rings (size 3 to 8) (size 9 to 14) (size 15 to 20)
#    0.000    1.778    2.222    4.667    3.111    0.000 
#    0.000    0.000    2.444    0.000    0.000    0.000 
#    0.000    0.000    0.000    0.000    0.000    0.000 
#
# Total GULP energy -100280.485534 kJ/mol
# GULP energy per Si atom -5571.138085 kJ/mol
# Density = 1.913133 g / cm^3
# Si number density = 19.174978 Si / 1000 Ang^3
#
#
#
# Elastic Constant Matrix: (Units=GPa)
#
#
# Indices 1 2 3 4 5 6 
#
# 1 129.8501 32.8859 24.7998 0.0000 7.9272 0.0000
# 2 32.8859 117.8903 52.8498 0.0000 -4.3393 0.0000
# 3 24.7998 52.8498 70.5326 0.0000 9.5515 0.0000
# 4 0.0000 0.0000 0.0000 11.4790 0.0000 7.2588
# 5 7.9272 -4.3393 9.5515 0.0000 26.0791 0.0000
# 6 0.0000 0.0000 0.0000 7.2588 0.0000 33.8537
#
#
#
# Elastic Compliance Matrix: (Units=1/GPa)
#
#
# Indices 1 2 3 4 5 6 
#
# 1 0.008577 -0.001931 -0.001234 0.000000 -0.002476 0.000000
# 2 -0.001931 0.014141 -0.010853 0.000000 0.006915 0.000000
# 3 -0.001234 -0.010853 0.024135 0.000000 -0.010270 0.000000
# 4 0.000000 0.000000 0.000000 0.100780 0.000000 -0.021609
# 5 -0.002476 0.006915 -0.010270 0.000000 0.044010 0.000000
# 6 0.000000 0.000000 0.000000 -0.021609 0.000000 0.034172
#
#
# Mechanical properties :
#
#
# Convention : Reuss Voigt Hill
#
# Bulk Modulus (GPa) = 53.14266 59.92711 56.53488
# Shear Modulus (GPa) = 19.22167 28.13152 23.67660
#
# Velocity S-wave (km/s) = 3.16956 3.83442 3.51773
# Velocity P-wave (km/s) = 6.41635 7.13613 6.78579
#
# Compressibility (1/GPa) = 0.01881727
#
# Stress axis : x y z
#
# Youngs Moduli (GPa) = 116.59141 70.71577 41.43385
#
# Poissons Ratio (x) = 0.13653 0.05112
# Poissons Ratio (y) = 0.22510 0.44970
# Poissons Ratio (z) = 0.14384 0.76751
#
# Static dielectric constant tensor:
#      x y z
#    x 1.743430 0.000000 0.055080 
#    y 0.000000 1.682020 0.000000 
#    z 0.055080 0.000000 1.815810 
# 
# From -- ./inp_files/128896.got.cif
#   From: 2010.05.17/outbox.cif.g08.bks.cpg/sg15_65_cif.got.tgz:128896.got - 2010.06.03 18:47:42.
