data_PCOD9262737
_publ_section_title
;
Structure prediction by ZEFSAII (Michael W. Deem and Ramdas Pophale) SiO2 
 PCOD9262737
Probable space group: C 2/C
;
_chemical_formula_sum "Si O2"
_cell_formula_units_Z 64
_cell_length_a 9.113671
_cell_length_b 21.734353
_cell_length_c 17.001960
_cell_angle_alpha 90.000000
_cell_angle_beta 80.831634
_cell_angle_gamma 90.000000
_cell_volume 3324.718872
_symmetry_space_group_name_H-M "C 2/C"
_symmetry_group_IT_number 15
_symmetry_cell_setting 'monoclinic'
loop_
_space_group_symop_operation_xyz
x,y,z
-x,y,1/2-z
-x,-y,-z
x,-y,1/2+z
1/2+x,1/2+y,z
1/2-x,1/2+y,1/2-z
1/2-x,1/2-y,-z
1/2+x,1/2-y,1/2+z
loop_
_atom_site_type_symbol
_atom_site_label
_atom_site_fract_x
_atom_site_fract_y
_atom_site_fract_z
Si Si1 0.217293 0.574069 0.634931
Si Si2 0.170409 0.822418 0.261807
Si Si3 0.729174 0.033623 0.463740
Si Si4 0.155180 0.439333 0.698586
Si Si5 0.903289 0.409976 0.966672
Si Si6 0.141088 0.098223 0.183524
Si Si7 0.942275 0.658118 0.617093
Si Si8 0.378864 0.733487 0.330379
O O1 0.308877 0.620023 0.681236
O O2 0.271472 0.568378 0.540370
O O3 0.222807 0.505431 0.669244
O O4 0.048051 0.602300 0.641512
O O5 0.293183 0.833713 0.181836
O O6 0.232343 0.763688 0.305097
O O7 0.000000 0.816160 0.250000
O O8 0.569086 0.060885 0.450742
O O9 0.838343 0.045968 0.382953
O O10 0.701359 0.963047 0.487792
O O11 0.143087 0.400398 0.619283
O O12 0.232811 0.402739 0.761392
O O13 0.000000 0.456514 0.750000
O O14 0.905972 0.355967 0.029778
O O15 0.142792 0.164051 0.140047
O O16 0.000000 0.088742 0.250000
O O17 0.046614 0.718038 0.616945
O O18 0.500000 0.729195 0.250000
#
# Coordination Sequence:
#
# PCOD9262737 Si02
#       8
#     8   8   8   8   8   8   8   8
#     4   9  19  34  56  83 109 149 190 227 274 351
#     4  10  19  33  55  84 110 140 189 245 289 322
#     4   9  18  35  56  81 115 146 187 232 276 344
#     4  11  20  34  57  84 115 148 191 227 281 343
#     4   9  18  34  57  87 111 142 192 241 270 331
#     4  11  23  38  57  82 118 155 186 227 294 348
#     4   9  17  35  61  79 108 151 194 234 279 334
#     4   8  18  38  59  75 105 156 197 228 271 346
#
# _framework density 19.249745999999998
#
# number of rings (size 3 to 8) (size 9 to 14) (size 15 to 20)
#    0.000    2.500    1.250    2.625    1.750    1.000 
#    2.250    6.875    0.000    2.250    0.000    0.000 
#    0.000    0.000    0.000    0.000    0.000    0.000 
#
# Total GULP energy -178354.219662 kJ/mol
# GULP energy per Si atom -5573.569364 kJ/mol
# Density = 1.920593 g / cm^3
# Si number density = 19.249746 Si / 1000 Ang^3
#
#
#
# Elastic Constant Matrix: (Units=GPa)
#
#
# Indices 1 2 3 4 5 6 
#
# 1 68.6187 13.0757 25.1721 0.0000 3.7997 0.0000
# 2 13.0757 38.7497 32.4641 0.0000 -0.8830 0.0000
# 3 25.1721 32.4641 103.6182 0.0000 2.9049 0.0000
# 4 0.0000 0.0000 0.0000 -3.3709 0.0000 -8.9378
# 5 3.7997 -0.8830 2.9049 0.0000 17.2471 0.0000
# 6 0.0000 0.0000 0.0000 -8.9378 0.0000 2.4062
#
#
#
# Elastic Compliance Matrix: (Units=1/GPa)
#
#
# Indices 1 2 3 4 5 6 
#
# 1 0.016427 -0.003189 -0.002899 0.000000 -0.003294 0.000000
# 2 -0.003189 0.035841 -0.010576 0.000000 0.004319 0.000000
# 3 -0.002899 -0.010576 0.013731 0.000000 -0.002215 0.000000
# 4 0.000000 0.000000 0.000000 -0.027344 0.000000 -0.101571
# 5 -0.003294 0.004319 -0.002215 0.000000 0.059301 0.000000
# 6 0.000000 0.000000 0.000000 -0.101571 0.000000 0.038308
#
#
# Mechanical properties :
#
#
# Convention : Reuss Voigt Hill
#
# Bulk Modulus (GPa) = 30.60827 39.15672 34.88250
# Shear Modulus (GPa) = 27.70372 12.60813 20.15592
#
# Velocity S-wave (km/s) = 3.79776 2.56203 3.23936
# Velocity P-wave (km/s) = 5.93007 5.39792 5.67024
#
# Compressibility (1/GPa) = 0.03267091
#
# Stress axis : x y z
#
# Youngs Moduli (GPa) = 60.87568 27.90069 72.83028
#
# Poissons Ratio (x) = 0.08899 0.21113
# Poissons Ratio (y) = 0.19416 0.77022
# Poissons Ratio (z) = 0.17648 0.29507
#
# Static dielectric constant tensor:
#      x y z
#    x 1.678120 0.000000 -0.005460 
#    y 0.000000 1.693650 0.000000 
#    z -0.005460 0.000000 1.658590 
# 
# From -- ./inp_files/192942.got.cif
#   From: 2010.05.17/outbox.cif.g08.bks.cpg/sg15_97_cif.got.tgz:192942.got - 2010.06.03 18:47:42.
