data_PCOD9262839
_publ_section_title
;
Structure prediction by ZEFSAII (Michael W. Deem and Ramdas Pophale) SiO2 
 PCOD9262839
Probable space group: C 2/C
;
_chemical_formula_sum "Si O2"
_cell_formula_units_Z 60
_cell_length_a 9.928651
_cell_length_b 24.445674
_cell_length_c 23.200218
_cell_angle_alpha 90.000000
_cell_angle_beta 38.006654
_cell_angle_gamma 90.000000
_cell_volume 3467.295480
_symmetry_space_group_name_H-M "C 2/C"
_symmetry_group_IT_number 15
_symmetry_cell_setting 'monoclinic'
loop_
_space_group_symop_operation_xyz
x,y,z
-x,y,1/2-z
-x,-y,-z
x,-y,1/2+z
1/2+x,1/2+y,z
1/2-x,1/2+y,1/2-z
1/2-x,1/2-y,-z
1/2+x,1/2-y,1/2+z
loop_
_atom_site_type_symbol
_atom_site_label
_atom_site_fract_x
_atom_site_fract_y
_atom_site_fract_z
Si Si1 0.500000 0.042884 0.250000
Si Si2 0.251801 0.706039 0.949869
Si Si3 0.036549 0.591346 0.054977
Si Si4 0.649723 0.755438 0.755259
Si Si5 0.714911 0.379905 0.765180
Si Si6 0.241889 0.000781 0.944763
Si Si7 0.275369 0.093039 0.030606
Si Si8 0.047534 0.289056 0.057569
O O1 0.672094 0.084133 0.222285
O O2 0.601414 0.006365 0.164198
O O3 0.494827 0.714373 0.843082
O O4 0.077181 0.723063 0.960098
O O5 0.250000 0.750000 0.000000
O O6 0.173012 0.647019 0.998095
O O7 0.193614 0.549698 0.035418
O O8 0.829329 0.601154 0.167231
O O9 0.938116 0.572974 0.026610
O O10 0.500000 0.768055 0.750000
O O11 0.724767 0.815240 0.752083
O O12 0.866536 0.722711 0.666276
O O13 0.458169 0.392058 0.860986
O O14 0.259916 0.052065 0.981997
O O15 0.000000 0.000000 0.000000
O O16 0.372374 0.149306 0.973526
O O17 0.250000 0.250000 0.000000
#
# Coordination Sequence:
#
# PCOD9262839 Si02
#       8
#     4   8   8   8   8   8   8   8
#     4  10  22  38  60  98 106 152 202 256 294 346
#     4  10  20  36  57  85 120 154 192 240 299 349
#     4  10  23  38  59  92 120 154 198 250 302 354
#     4  10  19  33  56  86 121 160 195 238 295 353
#     4  11  18  33  64  88 119 147 204 246 291 350
#     4  11  23  42  66  83 116 153 204 248 301 361
#     4  11  22  39  60  87 123 157 195 250 305 353
#     4  10  21  35  56  84 119 156 196 241 294 356
#
# _framework density 17.304552999999999
#
# number of rings (size 3 to 8) (size 9 to 14) (size 15 to 20)
#    0.000    1.600    4.667    0.800    0.000    1.067 
#    2.400    0.667    0.000    0.000    0.000    0.000 
#    0.000    0.000    0.000    0.000    0.000    0.000 
#
# Total GULP energy -167108.285213 kJ/mol
# GULP energy per Si atom -5570.276174 kJ/mol
# Density = 1.726517 g / cm^3
# Si number density = 17.304553 Si / 1000 Ang^3
#
#
#
# Elastic Constant Matrix: (Units=GPa)
#
#
# Indices 1 2 3 4 5 6 
#
# 1 117.6880 73.2856 70.1986 0.0001 -2.8128 -0.0006
# 2 73.2856 90.6064 68.4700 0.0001 1.2527 -0.0001
# 3 70.1986 68.4700 118.2310 0.0000 -9.9963 -0.0001
# 4 0.0001 0.0001 0.0000 28.7864 0.0000 3.3180
# 5 -2.8128 1.2527 -9.9963 0.0000 29.9200 0.0001
# 6 -0.0006 -0.0001 -0.0001 3.3180 0.0001 29.6988
#
#
#
# Elastic Compliance Matrix: (Units=1/GPa)
#
#
# Indices 1 2 3 4 5 6 
#
# 1 0.018168 -0.011759 -0.003901 0.000000 0.000897 0.000000
# 2 -0.011759 0.027916 -0.009650 0.000000 -0.005498 0.000000
# 3 -0.003901 -0.009650 0.016842 0.000000 0.005664 0.000000
# 4 0.000000 0.000000 0.000000 0.035192 0.000000 -0.003932
# 5 0.000897 -0.005498 0.005664 0.000000 0.035629 0.000000
# 6 0.000000 0.000000 0.000000 -0.003932 0.000000 0.034111
#
#
# Mechanical properties :
#
#
# Convention : Reuss Voigt Hill
#
# Bulk Modulus (GPa) = 81.26549 83.38153 82.32351
# Shear Modulus (GPa) = 22.46375 25.31910 23.89142
#
# Velocity S-wave (km/s) = 3.60688 3.82926 3.71973
# Velocity P-wave (km/s) = 8.02558 8.23652 8.13174
#
# Compressibility (1/GPa) = 0.01230535
#
# Stress axis : x y z
#
# Youngs Moduli (GPa) = 55.04130 35.82128 59.37642
#
# Poissons Ratio (x) = 0.42123 0.23165
# Poissons Ratio (y) = 0.64725 0.57297
# Poissons Ratio (z) = 0.21473 0.34567
#
# Static dielectric constant tensor:
#      x y z
#    x 1.570880 0.000000 0.006260 
#    y 0.000000 1.536830 0.000000 
#    z 0.006260 0.000000 1.619230 
# 
# From -- ./inp_files/234761.got.cif
#   From: 2010.05.17/outbox.cif.g08.bks.cpg/sg15_118_cif.got.tgz:234761.got - 2010.06.03 18:47:42.
