data_PCOD9262560
_publ_section_title
;
Structure prediction by ZEFSAII (Michael W. Deem and Ramdas Pophale) SiO2 
 PCOD9262560
Probable space group: C 2/C
;
_chemical_formula_sum "Si O2"
_cell_formula_units_Z 64
_cell_length_a 10.107810
_cell_length_b 30.160461
_cell_length_c 16.855257
_cell_angle_alpha 90.000000
_cell_angle_beta 142.994835
_cell_angle_gamma 90.000000
_cell_volume 3092.754146
_symmetry_space_group_name_H-M "C 2/C"
_symmetry_group_IT_number 15
_symmetry_cell_setting 'monoclinic'
loop_
_space_group_symop_operation_xyz
x,y,z
-x,y,1/2-z
-x,-y,-z
x,-y,1/2+z
1/2+x,1/2+y,z
1/2-x,1/2+y,1/2-z
1/2-x,1/2-y,-z
1/2+x,1/2-y,1/2+z
loop_
_atom_site_type_symbol
_atom_site_label
_atom_site_fract_x
_atom_site_fract_y
_atom_site_fract_z
Si Si1 0.034881 0.949221 0.113758
Si Si2 0.724369 0.209409 0.304930
Si Si3 0.205497 0.960412 0.028771
Si Si4 0.346216 0.428508 0.754151
Si Si5 0.416424 0.349572 0.029256
Si Si6 0.612665 0.981990 0.132783
Si Si7 0.472834 0.844980 0.921282
Si Si8 0.724135 0.311790 0.304134
O O1 0.171134 0.951268 0.260762
O O2 0.938845 0.902314 0.045061
O O3 0.201242 0.959688 0.120877
O O4 0.864501 0.989609 0.030741
O O5 0.500000 0.209795 0.250000
O O6 0.877830 0.175212 0.427169
O O7 0.674216 0.192636 0.192029
O O8 0.795557 0.260411 0.336679
O O9 0.025984 0.925788 0.909889
O O10 0.433059 0.954546 0.094364
O O11 0.500000 0.436770 0.750000
O O12 0.205617 0.471668 0.711235
O O13 0.175958 0.388979 0.657479
O O14 0.630322 0.329432 0.175850
O O15 0.191886 0.343171 0.971883
O O16 0.500000 0.000000 0.000000
O O17 0.575642 0.837518 0.057507
O O18 0.500000 0.314775 0.250000
#
# Coordination Sequence:
#
# PCOD9262560 Si02
#       8
#     8   8   8   8   8   8   8   8
#     4  10  22  35  57  81 113 146 185 234 279 338
#     4   9  17  32  54  78 112 149 179 220 282 344
#     4  10  21  40  54  79 110 148 189 228 279 336
#     4  11  22  36  55  79 106 143 187 232 283 334
#     4  10  19  33  53  85 114 146 185 228 283 336
#     4  11  22  37  57  77 108 147 187 229 280 331
#     4  10  20  33  53  81 111 146 184 232 280 338
#     4   9  18  31  51  83 117 144 180 226 279 341
#
# _framework density 20.693529000000002
#
# number of rings (size 3 to 8) (size 9 to 14) (size 15 to 20)
#    0.000    2.000    1.250    2.625    1.750    3.000 
#    2.250    3.750    0.000    0.750    0.000    3.500 
#    0.000    0.000    0.000    0.000    0.000    0.000 
#
# Total GULP energy -178207.865643 kJ/mol
# GULP energy per Si atom -5568.995801 kJ/mol
# Density = 2.064643 g / cm^3
# Si number density = 20.693529 Si / 1000 Ang^3
#
#
#
# Elastic Constant Matrix: (Units=GPa)
#
#
# Indices 1 2 3 4 5 6 
#
# 1 28.2149 -13.5830 18.5843 0.0000 -4.6447 0.0000
# 2 -13.5830 84.7155 47.8592 0.0000 -1.0283 0.0000
# 3 18.5843 47.8592 146.6910 0.0000 -17.1770 0.0000
# 4 0.0000 0.0000 0.0000 35.9993 0.0000 2.2988
# 5 -4.6447 -1.0283 -17.1770 0.0000 15.9933 0.0000
# 6 0.0000 0.0000 0.0000 2.2988 0.0000 6.9374
#
#
#
# Elastic Compliance Matrix: (Units=1/GPa)
#
#
# Indices 1 2 3 4 5 6 
#
# 1 0.049566 0.013812 -0.010290 0.000000 0.004231 0.000000
# 2 0.013812 0.018641 -0.008260 0.000000 -0.003662 0.000000
# 3 -0.010290 -0.008260 0.011900 0.000000 0.009261 0.000000
# 4 0.000000 0.000000 0.000000 0.028379 0.000000 -0.009404
# 5 0.004231 -0.003662 0.009261 0.000000 0.073466 0.000000
# 6 0.000000 0.000000 0.000000 -0.009404 0.000000 0.147263
#
#
# Mechanical properties :
#
#
# Convention : Reuss Voigt Hill
#
# Bulk Modulus (GPa) = 14.15833 40.59360 27.37597
# Shear Modulus (GPa) = 13.80315 25.57004 19.68659
#
# Velocity S-wave (km/s) = 2.58549 3.51900 3.08773
# Velocity P-wave (km/s) = 3.97112 6.01418 5.09608
#
# Compressibility (1/GPa) = 0.07062980
#
# Stress axis : x y z
#
# Youngs Moduli (GPa) = 20.17506 53.64513 84.03161
#
# Poissons Ratio (x) = -0.74095 0.86472
# Poissons Ratio (y) = -0.27866 0.69414
# Poissons Ratio (z) = 0.20761 0.44313
#
# Static dielectric constant tensor:
#      x y z
#    x 1.787740 0.000000 -0.023390 
#    y 0.000000 1.740450 0.000000 
#    z -0.023390 0.000000 1.832160 
# 
# From -- ./inp_files/241015.got.cif
#   From: 2010.05.17/outbox.cif.g08.bks.cpg/sg15_121_cif.got.tgz:241015.got - 2010.06.03 18:47:42.
