data_PCOD9262431
_publ_section_title
;
Structure prediction by ZEFSAII (Michael W. Deem and Ramdas Pophale) SiO2 
 PCOD9262431
Probable space group: C 2/C
;
_chemical_formula_sum "Si O2"
_cell_formula_units_Z 48
_cell_length_a 6.759073
_cell_length_b 18.285918
_cell_length_c 14.926306
_cell_angle_alpha 90.000000
_cell_angle_beta 103.208015
_cell_angle_gamma 90.000000
_cell_volume 1796.028178
_symmetry_space_group_name_H-M "C 2/C"
_symmetry_group_IT_number 15
_symmetry_cell_setting 'monoclinic'
loop_
_space_group_symop_operation_xyz
x,y,z
-x,y,1/2-z
-x,-y,-z
x,-y,1/2+z
1/2+x,1/2+y,z
1/2-x,1/2+y,1/2-z
1/2-x,1/2-y,-z
1/2+x,1/2-y,1/2+z
loop_
_atom_site_type_symbol
_atom_site_label
_atom_site_fract_x
_atom_site_fract_y
_atom_site_fract_z
Si Si1 0.279800 0.082209 0.634503
Si Si2 0.195973 0.369017 0.015120
Si Si3 0.766807 0.253301 0.834968
Si Si4 0.742789 0.726486 0.127078
Si Si5 0.251851 0.469087 0.176774
Si Si6 0.763133 0.896775 0.566234
O O1 0.292100 0.170062 0.650501
O O2 0.185335 0.050741 0.716153
O O3 0.505411 0.046253 0.653121
O O4 0.178054 0.075062 0.526369
O O5 0.148689 0.293647 0.062957
O O6 0.310402 0.415719 0.100897
O O7 0.301310 0.346852 0.933150
O O8 0.982964 0.403222 0.966052
O O9 0.697947 0.272557 0.726940
O O10 0.696827 0.313163 0.900412
O O11 0.012963 0.259801 0.856882
O O12 0.313672 0.549320 0.152173
#
# Coordination Sequence:
#
# PCOD9262431 Si02
#       6
#     8   8   8   8   8   8
#     4  10  19  33  53  79 108 140 175 222 273 321
#     4   9  16  32  49  77 105 134 180 220 263 310
#     4  10  19  33  51  83 106 144 180 220 263 330
#     4   9  18  29  52  76 104 142 178 220 257 318
#     4  10  20  33  54  80 104 142 175 227 275 316
#     4  10  21  33  54  81 110 136 179 227 274 314
#
# _framework density 26.725639000000001
#
# number of rings (size 3 to 8) (size 9 to 14) (size 15 to 20)
#    0.000    2.333    1.667    2.500    0.000    6.667 
#    0.000    0.000    0.000    4.000    8.667    0.000 
#    0.000    0.000    0.000    0.000    0.000    0.000 
#
# Total GULP energy -134416.956987 kJ/mol
# GULP energy per Si atom -5600.706541 kJ/mol
# Density = 2.666481 g / cm^3
# Si number density = 26.725639 Si / 1000 Ang^3
#
#
#
# Elastic Constant Matrix: (Units=GPa)
#
#
# Indices 1 2 3 4 5 6 
#
# 1 98.4097 6.9649 43.9682 0.0000 -14.9172 0.0000
# 2 6.9649 117.7525 69.1386 0.0000 -7.4902 0.0000
# 3 43.9682 69.1386 212.7432 0.0000 -12.9783 0.0000
# 4 0.0000 0.0000 0.0000 57.2217 0.0000 -0.6536
# 5 -14.9172 -7.4902 -12.9783 0.0000 57.4498 0.0000
# 6 0.0000 0.0000 0.0000 -0.6536 0.0000 31.2287
#
#
#
# Elastic Compliance Matrix: (Units=1/GPa)
#
#
# Indices 1 2 3 4 5 6 
#
# 1 0.011628 0.000982 -0.002566 0.000000 0.002568 0.000000
# 2 0.000982 0.010599 -0.003597 0.000000 0.000824 0.000000
# 3 -0.002566 -0.003597 0.006419 0.000000 0.000315 0.000000
# 4 0.000000 0.000000 0.000000 0.017480 0.000000 0.000366
# 5 0.002568 0.000824 0.000315 0.000000 0.018252 0.000000
# 6 0.000000 0.000000 0.000000 0.000366 0.000000 0.032029
#
#
# Mechanical properties :
#
#
# Convention : Reuss Voigt Hill
#
# Bulk Modulus (GPa) = 54.69312 74.33875 64.51594
# Shear Modulus (GPa) = 44.30159 49.76896 47.03527
#
# Velocity S-wave (km/s) = 4.07583 4.32002 4.19970
# Velocity P-wave (km/s) = 6.53138 7.26357 6.90718
#
# Compressibility (1/GPa) = 0.01828384
#
# Stress axis : x y z
#
# Youngs Moduli (GPa) = 86.00237 94.35036 155.78823
#
# Poissons Ratio (x) = -0.09265 0.39969
# Poissons Ratio (y) = -0.08445 0.56039
# Poissons Ratio (z) = 0.22065 0.33939
#
# Static dielectric constant tensor:
#      x y z
#    x 2.260160 0.000000 0.004670 
#    y 0.000000 2.030720 0.000000 
#    z 0.004670 0.000000 2.028000 
# 
# From -- ./inp_files/145194.got.cif
#   From: 2010.05.17/outbox.cif.g08.bks.cpg/sg15_73_cif.got.tgz:145194.got - 2010.06.03 18:47:42.
