data_PCOD9262380
_publ_section_title
;
Structure prediction by ZEFSAII (Michael W. Deem and Ramdas Pophale) SiO2 
 PCOD9262380
Probable space group: C 2/C
;
_chemical_formula_sum "Si O2"
_cell_formula_units_Z 64
_cell_length_a 18.439518
_cell_length_b 18.623968
_cell_length_c 16.411390
_cell_angle_alpha 90.000000
_cell_angle_beta 34.423029
_cell_angle_gamma 90.000000
_cell_volume 3185.994746
_symmetry_space_group_name_H-M "C 2/C"
_symmetry_group_IT_number 15
_symmetry_cell_setting 'monoclinic'
loop_
_space_group_symop_operation_xyz
x,y,z
-x,y,1/2-z
-x,-y,-z
x,-y,1/2+z
1/2+x,1/2+y,z
1/2-x,1/2+y,1/2-z
1/2-x,1/2-y,-z
1/2+x,1/2-y,1/2+z
loop_
_atom_site_type_symbol
_atom_site_label
_atom_site_fract_x
_atom_site_fract_y
_atom_site_fract_z
Si Si1 0.107138 0.481302 0.265473
Si Si2 0.230033 0.658039 0.940939
Si Si3 0.667735 0.003128 0.518569
Si Si4 0.388630 0.465895 0.696238
Si Si5 0.785003 0.375063 0.764411
Si Si6 0.642453 0.413186 0.406943
Si Si7 0.883889 0.803824 0.439287
Si Si8 0.121809 0.778289 0.337885
O O1 0.148394 0.488947 0.132731
O O2 0.128553 0.557516 0.290190
O O3 0.210949 0.427652 0.206774
O O4 0.957486 0.461767 0.407297
O O5 0.359204 0.654858 0.876925
O O6 0.259611 0.689474 0.824530
O O7 0.165240 0.581571 0.001332
O O8 0.144727 0.720976 0.058921
O O9 0.800597 0.030677 0.357479
O O10 0.321684 0.408157 0.697401
O O11 0.538328 0.447154 0.565134
O O12 0.381770 0.542347 0.654876
O O13 0.858826 0.305349 0.662496
O O14 0.718129 0.344048 0.907780
O O15 0.612290 0.329993 0.423527
O O16 0.004201 0.794522 0.386871
#
# Coordination Sequence:
#
# PCOD9262380 Si02
#       8
#     8   8   8   8   8   8   8   8
#     4  10  23  38  58  84 117 152 194 246 291 352
#     4  10  20  31  52  83 113 159 196 228 281 354
#     4  11  21  39  57  81 116 155 195 239 300 341
#     4  10  21  38  57  82 116 154 196 243 286 346
#     4  10  20  35  55  82 115 154 189 236 290 343
#     4  10  21  38  57  83 117 154 200 243 285 345
#     4  10  19  33  49  79 122 153 193 230 278 345
#     4  11  20  35  55  82 118 158 195 239 288 344
#
# _framework density 20.087917999999998
#
# number of rings (size 3 to 8) (size 9 to 14) (size 15 to 20)
#    0.000    1.750    3.750    1.125    0.000    2.500 
#    6.750    0.000    0.000    0.750    0.000    0.000 
#    0.000    0.000    0.000    0.000    0.000    0.000 
#
# Total GULP energy -178405.863941 kJ/mol
# GULP energy per Si atom -5575.183248 kJ/mol
# Density = 2.004220 g / cm^3
# Si number density = 20.087918 Si / 1000 Ang^3
#
#
#
# Elastic Constant Matrix: (Units=GPa)
#
#
# Indices 1 2 3 4 5 6 
#
# 1 52.0512 26.4718 -8.9136 0.0001 -20.8858 0.0000
# 2 26.4718 65.9182 3.5889 0.0002 -4.6103 -0.0001
# 3 -8.9136 3.5889 47.0785 0.0003 -5.4729 -0.0002
# 4 0.0001 0.0002 0.0003 16.4179 -0.0001 1.7252
# 5 -20.8858 -4.6103 -5.4729 -0.0001 25.9255 0.0000
# 6 0.0000 -0.0001 -0.0002 1.7252 0.0000 18.5624
#
#
#
# Elastic Compliance Matrix: (Units=1/GPa)
#
#
# Indices 1 2 3 4 5 6 
#
# 1 0.043772 -0.015849 0.013601 0.000000 0.035316 0.000000
# 2 -0.015849 0.021135 -0.005802 0.000000 -0.010234 0.000000
# 3 0.013601 -0.005802 0.026052 0.000000 0.015425 0.000000
# 4 0.000000 0.000000 0.000000 0.061510 0.000000 -0.005717
# 5 0.035316 -0.010234 0.015425 0.000000 0.068459 0.000000
# 6 0.000000 0.000000 0.000000 -0.005717 0.000000 0.054404
#
#
# Mechanical properties :
#
#
# Convention : Reuss Voigt Hill
#
# Bulk Modulus (GPa) = 13.35821 23.03802 18.19811
# Shear Modulus (GPa) = 15.80364 21.77456 18.78910
#
# Velocity S-wave (km/s) = 2.80790 3.29593 3.06166
# Velocity P-wave (km/s) = 4.14448 5.09683 4.64513
#
# Compressibility (1/GPa) = 0.07486035
#
# Stress axis : x y z
#
# Youngs Moduli (GPa) = 22.84567 47.31476 38.38524
#
# Poissons Ratio (x) = 0.74988 -0.52208
# Poissons Ratio (y) = 0.36207 0.22270
# Poissons Ratio (z) = -0.31073 0.27450
#
# Static dielectric constant tensor:
#      x y z
#    x 1.762170 0.000000 -0.064590 
#    y 0.000000 1.725560 0.000000 
#    z -0.064590 0.000000 1.828210 
# 
# From -- ./inp_files/163240.got.cif
#   From: 2010.05.17/outbox.cif.g08.bks.cpg/sg15_82_cif.got.tgz:163240.got - 2010.06.03 18:47:42.
