data_PCOD9262481
_publ_section_title
;
Structure prediction by ZEFSAII (Michael W. Deem and Ramdas Pophale) SiO2 
 PCOD9262481
Probable space group: C 2/C
;
_chemical_formula_sum "Si O2"
_cell_formula_units_Z 56
_cell_length_a 27.150130
_cell_length_b 20.838074
_cell_length_c 13.119174
_cell_angle_alpha 90.000000
_cell_angle_beta 25.475685
_cell_angle_gamma 90.000000
_cell_volume 3192.520673
_symmetry_space_group_name_H-M "C 2/C"
_symmetry_group_IT_number 15
_symmetry_cell_setting 'monoclinic'
loop_
_space_group_symop_operation_xyz
x,y,z
-x,y,1/2-z
-x,-y,-z
x,-y,1/2+z
1/2+x,1/2+y,z
1/2-x,1/2+y,1/2-z
1/2-x,1/2-y,-z
1/2+x,1/2-y,1/2+z
loop_
_atom_site_type_symbol
_atom_site_label
_atom_site_fract_x
_atom_site_fract_y
_atom_site_fract_z
Si Si1 0.934136 0.978332 0.968746
Si Si2 0.735547 0.676361 0.556305
Si Si3 0.521752 0.179503 0.325871
Si Si4 0.370903 0.656718 0.529383
Si Si5 0.958098 0.833128 0.217479
Si Si6 0.382264 0.415189 0.718877
Si Si7 0.278971 0.185161 0.880855
O O1 0.860224 0.920531 0.059469
O O2 0.000000 0.008886 0.750000
O O3 0.032055 0.944618 0.856140
O O4 0.866895 0.028076 0.165104
O O5 0.750000 0.750000 0.500000
O O6 0.664465 0.643788 0.597475
O O7 0.860895 0.649851 0.349188
O O8 0.658209 0.678079 0.802386
O O9 0.500000 0.156968 0.250000
O O10 0.542981 0.256143 0.278986
O O11 0.411678 0.174470 0.604597
O O12 0.500000 0.669699 0.250000
O O13 0.286162 0.688177 0.606453
O O14 0.000000 0.853001 0.250000
O O15 0.048541 0.859571 0.968179
O O16 0.273955 0.378372 0.967125
O O17 0.250000 0.250000 0.000000
#
# Coordination Sequence:
#
# PCOD9262481 Si02
#       7
#     8   8   8   8   8   8   8
#     4  10  20  35  57  87 115 155 198 250 308 354
#     4  10  20  33  53  79 117 161 196 236 297 370
#     4  10  20  33  51  80 116 159 194 227 296 372
#     4  11  20  37  57  84 119 155 197 242 310 360
#     4  10  19  33  52  82 119 148 191 248 296 350
#     4  11  20  34  57  88 117 147 200 248 305 352
#     4  12  22  35  58  88 125 155 194 254 307 367
#
# _framework density 17.540997999999998
#
# number of rings (size 3 to 8) (size 9 to 14) (size 15 to 20)
#    0.000    1.429    7.143    0.429    2.000    0.000 
#    0.000    0.000    0.000    0.857    0.000    0.000 
#    0.000    0.000    0.000    0.000    0.000    0.000 
#
# Total GULP energy -155927.512358 kJ/mol
# GULP energy per Si atom -5568.839727 kJ/mol
# Density = 1.750107 g / cm^3
# Si number density = 17.540998 Si / 1000 Ang^3
#
#
#
# Elastic Constant Matrix: (Units=GPa)
#
#
# Indices 1 2 3 4 5 6 
#
# 1 131.8654 21.7247 55.7963 0.0000 -2.2742 0.0000
# 2 21.7247 47.5464 14.9525 0.0000 10.0562 0.0000
# 3 55.7963 14.9525 122.4468 0.0001 -0.6787 0.0000
# 4 0.0000 0.0000 0.0001 30.9523 0.0000 13.0003
# 5 -2.2742 10.0562 -0.6787 0.0000 31.8107 0.0000
# 6 0.0000 0.0000 0.0000 13.0003 0.0000 18.5390
#
#
#
# Elastic Compliance Matrix: (Units=1/GPa)
#
#
# Indices 1 2 3 4 5 6 
#
# 1 0.009937 -0.003634 -0.004074 0.000000 0.001772 0.000000
# 2 -0.003634 0.024865 -0.001426 0.000000 -0.008151 0.000000
# 3 -0.004074 -0.001426 0.010200 0.000000 0.000377 0.000000
# 4 0.000000 0.000000 0.000000 0.045796 0.000000 -0.032114
# 5 0.001772 -0.008151 0.000377 0.000000 0.034147 0.000000
# 6 0.000000 0.000000 0.000000 -0.032114 0.000000 0.076460
#
#
# Mechanical properties :
#
#
# Convention : Reuss Voigt Hill
#
# Bulk Modulus (GPa) = 37.40650 54.08950 45.74800
# Shear Modulus (GPa) = 21.87389 30.21942 26.04666
#
# Velocity S-wave (km/s) = 3.53514 4.15515 3.85762
# Velocity P-wave (km/s) = 6.16721 7.34325 6.78077
#
# Compressibility (1/GPa) = 0.02673332
#
# Stress axis : x y z
#
# Youngs Moduli (GPa) = 100.63701 40.21779 98.04307
#
# Poissons Ratio (x) = 0.14614 0.39946
# Poissons Ratio (y) = 0.36569 0.13978
# Poissons Ratio (z) = 0.41003 0.05734
#
# Static dielectric constant tensor:
#      x y z
#    x 1.676450 0.000000 0.001070 
#    y 0.000000 1.605690 0.000000 
#    z 0.001070 0.000000 1.627170 
# 
# From -- ./inp_files/120131.got.cif
#   From: 2010.05.17/outbox.cif.g08.bks.cpg/sg15_61_cif.got.tgz:120131.got - 2010.06.03 18:47:42.
