data_PCOD9262604
_publ_section_title
;
Structure prediction by ZEFSAII (Michael W. Deem and Ramdas Pophale) SiO2 
 PCOD9262604
Probable space group: C 2/C
;
_chemical_formula_sum "Si O2"
_cell_formula_units_Z 40
_cell_length_a 20.668839
_cell_length_b 10.585269
_cell_length_c 21.277066
_cell_angle_alpha 90.000000
_cell_angle_beta 160.020607
_cell_angle_gamma 90.000000
_cell_volume 1590.567173
_symmetry_space_group_name_H-M "C 2/C"
_symmetry_group_IT_number 15
_symmetry_cell_setting 'monoclinic'
loop_
_space_group_symop_operation_xyz
x,y,z
-x,y,1/2-z
-x,-y,-z
x,-y,1/2+z
1/2+x,1/2+y,z
1/2-x,1/2+y,1/2-z
1/2-x,1/2-y,-z
1/2+x,1/2-y,1/2+z
loop_
_atom_site_type_symbol
_atom_site_label
_atom_site_fract_x
_atom_site_fract_y
_atom_site_fract_z
Si Si1 0.933976 0.575938 0.812292
Si Si2 0.782607 0.833039 0.698871
Si Si3 0.873325 0.889845 0.916009
Si Si4 0.037055 0.086056 0.687600
Si Si5 0.326617 0.087506 0.054815
O O1 0.812121 0.701543 0.689911
O O2 0.805108 0.459986 0.715703
O O3 0.065489 0.534960 0.874291
O O4 0.075464 0.613094 0.997287
O O5 0.815505 0.810334 0.802704
O O6 0.914007 0.943762 0.790694
O O7 0.000000 0.000000 0.000000
O O8 0.992164 0.836890 0.083272
O O9 0.848164 0.074633 0.557196
O O10 0.216608 0.134771 0.891680
O O11 0.500000 0.155557 0.250000
#
# Coordination Sequence:
#
# PCOD9262604 Si02
#       5
#     8   8   8   8   8
#     4  11  21  35  53  81 113 152 186 227 282 328
#     4  10  21  34  53  78 115 154 189 228 273 335
#     4  10  19  35  54  73 113 149 190 233 271 331
#     4   9  19  34  50  80 109 151 185 226 273 327
#     4  10  19  33  54  79 115 149 187 221 277 344
#
# _framework density 25.148261000000002
#
# number of rings (size 3 to 8) (size 9 to 14) (size 15 to 20)
#    0.000    2.000    2.000    3.000    0.000    0.800 
#    3.600    0.000    0.000    0.000    0.000    0.000 
#    0.000  195.200    0.000    0.000    0.000    0.000 
#
# Total GULP energy -111748.063687 kJ/mol
# GULP energy per Si atom -5587.403184 kJ/mol
# Density = 2.509102 g / cm^3
# Si number density = 25.148261 Si / 1000 Ang^3
#
#
#
# Elastic Constant Matrix: (Units=GPa)
#
#
# Indices 1 2 3 4 5 6 
#
# 1 125.2477 33.4670 73.7309 0.0009 -23.0042 -0.0008
# 2 33.4670 90.9909 22.4753 0.0023 6.4905 0.0025
# 3 73.7309 22.4753 193.4122 -0.0011 -27.4634 0.0017
# 4 0.0009 0.0023 -0.0011 9.4083 0.0009 26.0305
# 5 -23.0042 6.4905 -27.4634 0.0009 51.5364 0.0007
# 6 -0.0008 0.0025 0.0017 26.0305 0.0007 36.2698
#
#
#
# Elastic Compliance Matrix: (Units=1/GPa)
#
#
# Indices 1 2 3 4 5 6 
#
# 1 0.011748 -0.003731 -0.003498 0.000003 0.003850 -0.000001
# 2 -0.003731 0.012758 -0.000568 0.000000 -0.003575 -0.000001
# 3 -0.003498 -0.000568 0.006879 -0.000002 0.002176 0.000001
# 4 0.000003 0.000000 -0.000002 -0.107833 0.000001 0.077391
# 5 0.003850 -0.003575 0.002176 0.000001 0.022732 -0.000001
# 6 -0.000001 -0.000001 0.000001 0.077391 -0.000001 -0.027972
#
#
# Mechanical properties :
#
#
# Convention : Reuss Voigt Hill
#
# Bulk Modulus (GPa) = 63.33214 74.33303 68.83258
# Shear Modulus (GPa) = -82.19395 38.10805 -22.04295
#
# Velocity S-wave (km/s) = -5.72317 3.89695 -2.96382
# Velocity P-wave (km/s) = 4.29357 7.06190 3.96457
#
# Compressibility (1/GPa) = 0.01578977
#
# Stress axis : x y z
#
# Youngs Moduli (GPa) = 85.12435 78.38378 145.37613
#
# Poissons Ratio (x) = 0.29248 0.50854
# Poissons Ratio (y) = 0.31763 0.08253
# Poissons Ratio (z) = 0.29777 0.04450
#
# Static dielectric constant tensor:
#      x y z
#    x 1.972670 0.000000 -0.061510 
#    y 0.000000 1.946770 0.000000 
#    z -0.061510 0.000000 2.068120 
# 
# From -- ./inp_files/54657.got.cif
#   From: 2010.05.17/outbox.cif.g08.bks.cpg/sg15_28_cif.got.tgz:54657.got - 2010.06.03 18:47:42.
