data_PCOD9262757
_publ_section_title
;
Structure prediction by ZEFSAII (Michael W. Deem and Ramdas Pophale) SiO2 
 PCOD9262757
Probable space group: C 2/C
;
_chemical_formula_sum "Si O2"
_cell_formula_units_Z 60
_cell_length_a 21.526422
_cell_length_b 17.010079
_cell_length_c 18.819565
_cell_angle_alpha 90.000000
_cell_angle_beta 155.261165
_cell_angle_gamma 90.000000
_cell_volume 2883.801319
_symmetry_space_group_name_H-M "C 2/C"
_symmetry_group_IT_number 15
_symmetry_cell_setting 'monoclinic'
loop_
_space_group_symop_operation_xyz
x,y,z
-x,y,1/2-z
-x,-y,-z
x,-y,1/2+z
1/2+x,1/2+y,z
1/2-x,1/2+y,1/2-z
1/2-x,1/2-y,-z
1/2+x,1/2-y,1/2+z
loop_
_atom_site_type_symbol
_atom_site_label
_atom_site_fract_x
_atom_site_fract_y
_atom_site_fract_z
Si Si1 0.075342 0.838959 0.625295
Si Si2 0.987303 0.640864 0.813673
Si Si3 0.326983 0.955221 0.875029
Si Si4 0.804342 0.781672 0.434770
Si Si5 0.966206 0.421581 0.870613
Si Si6 0.500000 0.928457 0.750000
Si Si7 0.825001 0.285248 0.509906
Si Si8 0.455623 0.732707 0.859523
O O1 0.165009 0.920483 0.722254
O O2 0.027341 0.815097 0.496894
O O3 0.927489 0.830812 0.519334
O O4 0.196141 0.772851 0.774297
O O5 0.816763 0.665487 0.650208
O O6 0.000000 0.598185 0.750000
O O7 0.093175 0.718674 0.916417
O O8 0.058450 0.596279 0.955982
O O9 0.362491 0.948562 0.828283
O O10 0.371975 0.042815 0.943156
O O11 0.927598 0.454415 0.751187
O O12 0.960530 0.327500 0.872306
O O13 0.380364 0.870008 0.590588
O O14 0.750000 0.250000 0.500000
O O15 0.712068 0.290277 0.327785
O O16 0.951695 0.225465 0.616265
#
# Coordination Sequence:
#
# PCOD9262757 Si02
#       8
#     8   8   8   8   8   4   8   8
#     4  10  19  34  56  89 115 160 195 252 297 359
#     4  10  19  33  55  86 113 152 192 251 301 361
#     4  10  22  36  57  81 118 147 208 242 292 361
#     4   9  18  32  53  82 121 142 200 251 304 345
#     4  10  20  37  55  84 112 160 194 246 285 365
#     4  10  22  34  62  82 118 152 198 242 304 344
#     4  11  18  32  48  86 111 144 186 245 283 349
#     4  11  20  31  59  80 118 149 195 240 302 342
#
# _framework density 20.805872000000001
#
# number of rings (size 3 to 8) (size 9 to 14) (size 15 to 20)
#    0.000    1.867    2.667    4.400    0.933    1.067 
#    0.000    0.000    0.000   23.200    0.000    0.000 
#    0.000    0.000    0.000    0.000    0.000    0.000 
#
# Total GULP energy -167028.623528 kJ/mol
# GULP energy per Si atom -5567.620784 kJ/mol
# Density = 2.075852 g / cm^3
# Si number density = 20.805872 Si / 1000 Ang^3
#
#
#
# Elastic Constant Matrix: (Units=GPa)
#
#
# Indices 1 2 3 4 5 6 
#
# 1 124.6539 18.8479 43.2376 0.0012 -3.5918 0.0001
# 2 18.8479 38.5098 24.4134 0.0025 1.1677 0.0007
# 3 43.2376 24.4134 117.6669 0.0025 9.6326 0.0005
# 4 0.0012 0.0025 0.0025 21.5700 0.0011 0.1999
# 5 -3.5918 1.1677 9.6326 0.0011 36.6061 0.0002
# 6 0.0001 0.0007 0.0005 0.1999 0.0002 22.7022
#
#
#
# Elastic Compliance Matrix: (Units=1/GPa)
#
#
# Indices 1 2 3 4 5 6 
#
# 1 0.009567 -0.002780 -0.003089 0.000000 0.001840 0.000000
# 2 -0.002780 0.030725 -0.005366 -0.000003 0.000159 -0.000001
# 3 -0.003089 -0.005366 0.010995 0.000000 -0.003025 0.000000
# 4 0.000000 -0.000003 0.000000 0.046365 -0.000001 -0.000408
# 5 0.001840 0.000159 -0.003025 -0.000001 0.028289 0.000000
# 6 0.000000 -0.000001 0.000000 -0.000408 0.000000 0.044052
#
#
# Mechanical properties :
#
#
# Convention : Reuss Voigt Hill
#
# Bulk Modulus (GPa) = 34.70295 50.42536 42.56416
# Shear Modulus (GPa) = 24.74393 29.13110 26.93751
#
# Velocity S-wave (km/s) = 3.45233 3.74590 3.60211
# Velocity P-wave (km/s) = 5.71026 6.55727 6.14837
#
# Compressibility (1/GPa) = 0.02881599
#
# Stress axis : x y z
#
# Youngs Moduli (GPa) = 104.52441 32.54665 90.95144
#
# Poissons Ratio (x) = 0.09047 0.28099
# Poissons Ratio (y) = 0.29055 0.48808
# Poissons Ratio (z) = 0.32292 0.17466
#
# Static dielectric constant tensor:
#      x y z
#    x 1.733420 0.000000 0.222130 
#    y 0.000000 1.824220 0.000010 
#    z 0.222130 0.000010 0.474090 
# 
# From -- ./inp_files/256122.got.cif
#   From: 2010.05.17/outbox.cif.g08.bks.cpg/sg15_129_cif.got.tgz:256122.got - 2010.06.03 18:47:42.
