data_PCOD9262937
_publ_section_title
;
Structure prediction by ZEFSAII (Michael W. Deem and Ramdas Pophale) SiO2 
 PCOD9262937
Probable space group: C 2/C
;
_chemical_formula_sum "Si O2"
_cell_formula_units_Z 48
_cell_length_a 15.672806
_cell_length_b 9.299496
_cell_length_c 26.671619
_cell_angle_alpha 90.000000
_cell_angle_beta 32.138274
_cell_angle_gamma 90.000000
_cell_volume 2067.940662
_symmetry_space_group_name_H-M "C 2/C"
_symmetry_group_IT_number 15
_symmetry_cell_setting 'monoclinic'
loop_
_space_group_symop_operation_xyz
x,y,z
-x,y,1/2-z
-x,-y,-z
x,-y,1/2+z
1/2+x,1/2+y,z
1/2-x,1/2+y,1/2-z
1/2-x,1/2-y,-z
1/2+x,1/2-y,1/2+z
loop_
_atom_site_type_symbol
_atom_site_label
_atom_site_fract_x
_atom_site_fract_y
_atom_site_fract_z
Si Si1 0.538000 0.999730 0.623893
Si Si2 0.254574 0.208216 0.622582
Si Si3 0.324592 0.492775 0.684913
Si Si4 0.751959 0.460870 0.390564
Si Si5 0.974879 0.728046 0.945196
Si Si6 0.529393 0.313754 0.153395
O O1 0.349960 0.997277 0.703803
O O2 0.583436 0.044401 0.658629
O O3 0.606965 0.116321 0.551465
O O4 0.584795 0.833054 0.599286
O O5 0.292721 0.369477 0.583834
O O6 0.416707 0.151553 0.566256
O O7 0.115054 0.223111 0.734855
O O8 0.170523 0.127067 0.618595
O O9 0.282783 0.558494 0.651108
O O10 0.394760 0.331745 0.647110
O O11 0.455206 0.581529 0.650037
O O12 0.642973 0.343960 0.472006
#
# Coordination Sequence:
#
# PCOD9262937 Si02
#       6
#     8   8   8   8   8   8
#     4  11  19  36  57  84 108 148 183 225 268 328
#     4   9  17  34  55  77 107 140 186 214 270 323
#     4  11  19  36  58  83 108 142 190 227 267 319
#     4  10  21  35  57  82 112 149 181 221 270 339
#     4  11  21  36  58  83 112 142 184 228 274 322
#     4  10  19  33  58  82 103 141 186 231 262 319
#
# _framework density 23.211497000000001
#
# number of rings (size 3 to 8) (size 9 to 14) (size 15 to 20)
#    0.000    1.667    5.000    3.000    0.000    0.000 
#    0.000   10.000    3.667    0.000    0.000    0.000 
#    0.000    0.000    0.000    0.000    0.000    0.000 
#
# Total GULP energy -133837.755505 kJ/mol
# GULP energy per Si atom -5576.573146 kJ/mol
# Density = 2.315867 g / cm^3
# Si number density = 23.211497 Si / 1000 Ang^3
#
#
#
# Elastic Constant Matrix: (Units=GPa)
#
#
# Indices 1 2 3 4 5 6 
#
# 1 198.6199 57.6720 -0.6109 0.0000 -8.5176 0.0000
# 2 57.6720 65.4439 20.5412 0.0000 9.9996 0.0001
# 3 -0.6109 20.5412 28.9502 -0.0001 0.0915 0.0000
# 4 0.0000 0.0000 -0.0001 18.8971 0.0000 -6.7969
# 5 -8.5176 9.9996 0.0915 0.0000 16.2407 0.0000
# 6 0.0000 0.0001 0.0000 -6.7969 0.0000 28.6924
#
#
#
# Elastic Compliance Matrix: (Units=1/GPa)
#
#
# Indices 1 2 3 4 5 6 
#
# 1 0.009556 -0.013508 0.009744 0.000000 0.013274 0.000000
# 2 -0.013508 0.041419 -0.029571 0.000000 -0.032420 0.000000
# 3 0.009744 -0.029571 0.055657 0.000000 0.023004 0.000000
# 4 0.000000 0.000000 0.000000 0.057847 0.000000 0.013703
# 5 0.013274 -0.032420 0.023004 0.000000 0.088367 0.000000
# 6 0.000000 0.000000 0.000000 0.013703 0.000000 0.038099
#
#
# Mechanical properties :
#
#
# Convention : Reuss Voigt Hill
#
# Bulk Modulus (GPa) = 25.02357 49.80207 37.41282
# Shear Modulus (GPa) = 13.47941 27.12682 20.30311
#
# Velocity S-wave (km/s) = 2.41243 3.42231 2.96074
# Velocity P-wave (km/s) = 4.30858 6.09250 5.27648
#
# Compressibility (1/GPa) = 0.03996232
#
# Stress axis : x y z
#
# Youngs Moduli (GPa) = 104.64435 24.14326 17.96725
#
# Poissons Ratio (x) = 0.32613 -0.17507
# Poissons Ratio (y) = 1.41353 0.53131
# Poissons Ratio (z) = -1.01967 0.71395
#
# Static dielectric constant tensor:
#      x y z
#    x 1.940360 0.000000 -0.009450 
#    y 0.000000 1.842890 0.000000 
#    z -0.009450 0.000000 1.999650 
# 
# From -- ./inp_files/203642.got.cif
#   From: 2010.05.17/outbox.cif.g08.bks.cpg/sg15_102_cif.got.tgz:203642.got - 2010.06.03 18:47:42.
