data_PCOD9262918
_publ_section_title
;
Structure prediction by ZEFSAII (Michael W. Deem and Ramdas Pophale) SiO2 
 PCOD9262918
Probable space group: C 2/C
;
_chemical_formula_sum "Si O2"
_cell_formula_units_Z 56
_cell_length_a 19.254294
_cell_length_b 12.798204
_cell_length_c 10.654795
_cell_angle_alpha 90.000000
_cell_angle_beta 110.373406
_cell_angle_gamma 90.000000
_cell_volume 2461.313370
_symmetry_space_group_name_H-M "C 2/C"
_symmetry_group_IT_number 15
_symmetry_cell_setting 'monoclinic'
loop_
_space_group_symop_operation_xyz
x,y,z
-x,y,1/2-z
-x,-y,-z
x,-y,1/2+z
1/2+x,1/2+y,z
1/2-x,1/2+y,1/2-z
1/2-x,1/2-y,-z
1/2+x,1/2-y,1/2+z
loop_
_atom_site_type_symbol
_atom_site_label
_atom_site_fract_x
_atom_site_fract_y
_atom_site_fract_z
Si Si1 0.303760 0.453112 0.318028
Si Si2 0.916759 0.635942 0.411350
Si Si3 0.918895 0.168469 0.745920
Si Si4 0.306355 0.890108 0.474639
Si Si5 0.675076 0.894298 0.420937
Si Si6 0.551674 0.908714 0.167537
Si Si7 0.677318 0.331606 0.558117
O O1 0.378859 0.391602 0.334671
O O2 0.248449 0.437881 0.165104
O O3 0.256349 0.409253 0.408790
O O4 0.326373 0.574381 0.346914
O O5 0.918036 0.711856 0.293080
O O6 0.846540 0.659050 0.460019
O O7 0.916110 0.513918 0.373630
O O8 0.994460 0.648197 0.537221
O O9 0.870154 0.143189 0.593999
O O10 0.000000 0.139772 0.750000
O O11 0.342253 0.789291 0.432570
O O12 0.262125 0.841183 0.564835
O O13 0.348410 0.985783 0.563111
O O14 0.618396 0.851083 0.282082
O O15 0.500000 0.943451 0.250000
#
# Coordination Sequence:
#
# PCOD9262918 Si02
#       7
#     8   8   8   8   8   8   8
#     4  10  22  39  60  90 122 156 203 253 298 346
#     4  10  20  34  57  89 126 161 196 236 293 365
#     4  11  24  41  63  85 113 161 211 250 297 357
#     4   9  18  34  61  91 120 157 194 237 298 362
#     4  10  19  33  57  89 129 159 188 243 305 355
#     4   9  18  32  54  88 130 163 187 229 292 358
#     4   9  20  39  61  88 118 153 202 246 289 354
#
# _framework density 22.752081
#
# number of rings (size 3 to 8) (size 9 to 14) (size 15 to 20)
#    0.000    2.286    0.000    2.143    0.000    9.143 
#    0.000    2.857    0.000    2.571    0.000    1.000 
#    0.000    0.000    0.000    0.000    0.000    0.000 
#
# Total GULP energy -155962.915764 kJ/mol
# GULP energy per Si atom -5570.104134 kJ/mol
# Density = 2.270030 g / cm^3
# Si number density = 22.752081 Si / 1000 Ang^3
#
#
#
# Elastic Constant Matrix: (Units=GPa)
#
#
# Indices 1 2 3 4 5 6 
#
# 1 134.3096 7.6261 25.3328 0.0000 -17.2729 0.0000
# 2 7.6261 57.8834 -2.4228 0.0000 1.6319 0.0000
# 3 25.3328 -2.4228 39.6985 0.0000 -7.7432 0.0000
# 4 0.0000 0.0000 0.0000 30.7180 0.0000 -1.0903
# 5 -17.2729 1.6319 -7.7432 0.0000 31.4314 0.0000
# 6 0.0000 0.0000 0.0000 -1.0903 0.0000 19.7980
#
#
#
# Elastic Compliance Matrix: (Units=1/GPa)
#
#
# Indices 1 2 3 4 5 6 
#
# 1 0.008973 -0.001501 -0.005085 0.000000 0.003756 0.000000
# 2 -0.001501 0.017585 0.001777 0.000000 -0.001300 0.000000
# 3 -0.005085 0.001777 0.029392 0.000000 0.004354 0.000000
# 4 0.000000 0.000000 0.000000 0.032618 0.000000 0.001796
# 5 0.003756 -0.001300 0.004354 0.000000 0.035020 0.000000
# 6 0.000000 0.000000 0.000000 0.001796 0.000000 0.050609
#
#
# Mechanical properties :
#
#
# Convention : Reuss Voigt Hill
#
# Bulk Modulus (GPa) = 21.58259 32.55151 27.06705
# Shear Modulus (GPa) = 25.09312 29.81319 27.45315
#
# Velocity S-wave (km/s) = 3.32459 3.62380 3.47741
# Velocity P-wave (km/s) = 4.92379 5.64335 5.29581
#
# Compressibility (1/GPa) = 0.04633364
#
# Stress axis : x y z
#
# Youngs Moduli (GPa) = 111.44743 56.86698 34.02239
#
# Poissons Ratio (x) = 0.08535 0.17300
# Poissons Ratio (y) = 0.16727 -0.06047
# Poissons Ratio (z) = 0.56669 -0.10108
#
# Static dielectric constant tensor:
#      x y z
#    x 1.948830 0.000000 -0.040050 
#    y 0.000000 1.890380 0.000000 
#    z -0.040050 0.000000 1.852350 
# 
# From -- ./inp_files/111685.got.cif
#   From: 2010.05.17/outbox.cif.g08.bks.cpg/sg15_56_cif.got.tgz:111685.got - 2010.06.03 18:47:42.
