data_PCOD9262826
_publ_section_title
;
Structure prediction by ZEFSAII (Michael W. Deem and Ramdas Pophale) SiO2 
 PCOD9262826
Probable space group: C 2/C
;
_chemical_formula_sum "Si O2"
_cell_formula_units_Z 52
_cell_length_a 22.745681
_cell_length_b 8.000458
_cell_length_c 13.443875
_cell_angle_alpha 90.000000
_cell_angle_beta 59.374155
_cell_angle_gamma 90.000000
_cell_volume 2105.209652
_symmetry_space_group_name_H-M "C 2/C"
_symmetry_group_IT_number 15
_symmetry_cell_setting 'monoclinic'
loop_
_space_group_symop_operation_xyz
x,y,z
-x,y,1/2-z
-x,-y,-z
x,-y,1/2+z
1/2+x,1/2+y,z
1/2-x,1/2+y,1/2-z
1/2-x,1/2-y,-z
1/2+x,1/2-y,1/2+z
loop_
_atom_site_type_symbol
_atom_site_label
_atom_site_fract_x
_atom_site_fract_y
_atom_site_fract_z
Si Si1 0.250000 0.250000 0.000000
Si Si2 0.023629 0.022545 0.364031
Si Si3 0.227254 0.174988 0.252495
Si Si4 0.595023 0.269951 0.577180
Si Si5 0.988329 0.429808 0.863515
Si Si6 0.591696 0.152175 0.877363
Si Si7 0.855179 0.831253 0.184938
O O1 0.248707 0.310545 0.882376
O O2 0.333302 0.275555 0.929822
O O3 0.064817 0.197155 0.332374
O O4 0.954161 0.068797 0.365584
O O5 0.082341 0.883836 0.298196
O O6 0.000000 0.000000 0.500000
O O7 0.171967 0.322738 0.318831
O O8 0.293740 0.205001 0.264562
O O9 0.186603 0.003079 0.304504
O O10 0.555183 0.096354 0.627563
O O11 0.610662 0.271079 0.446124
O O12 0.000000 0.339688 0.750000
O O13 0.058503 0.490148 0.854923
O O14 0.944004 0.335840 0.984153
#
# Coordination Sequence:
#
# PCOD9262826 Si02
#       7
#     4   8   8   8   8   8   8
#     4  10  20  32  54  90 114 154 206 250 298 364
#     4   8  15  33  56  79 107 153 201 243 291 366
#     4  10  20  35  56  83 120 155 205 248 302 369
#     4   9  18  33  57  81 116 152 200 247 295 360
#     4  10  19  33  56  85 117 156 196 248 307 365
#     4   9  19  32  53  83 114 151 199 244 303 362
#     4   9  19  33  56  84 112 157 200 240 300 362
#
# _framework density 24.700626
#
# number of rings (size 3 to 8) (size 9 to 14) (size 15 to 20)
#    0.000    2.769    0.000    0.923    4.308    0.000 
#    0.000    0.000    0.000   64.615    0.000    0.000 
#    0.000    0.000    0.000    0.000    0.000    0.000 
#
# Total GULP energy -144772.831176 kJ/mol
# GULP energy per Si atom -5568.185814 kJ/mol
# Density = 2.464441 g / cm^3
# Si number density = 24.700626 Si / 1000 Ang^3
#
#
#
# Elastic Constant Matrix: (Units=GPa)
#
#
# Indices 1 2 3 4 5 6 
#
# 1 200.7734 43.4562 21.1269 0.0000 -26.2204 0.0000
# 2 43.4562 86.1153 11.2350 0.0000 -5.2753 0.0000
# 3 21.1269 11.2350 111.1348 0.0000 -6.4082 0.0000
# 4 0.0000 0.0000 0.0000 22.8262 0.0000 -10.2562
# 5 -26.2204 -5.2753 -6.4082 0.0000 41.6979 0.0000
# 6 0.0000 0.0000 0.0000 -10.2562 0.0000 28.9861
#
#
#
# Elastic Compliance Matrix: (Units=1/GPa)
#
#
# Indices 1 2 3 4 5 6 
#
# 1 0.006095 -0.002780 -0.000683 0.000000 0.003376 0.000000
# 2 -0.002780 0.013108 -0.000809 0.000000 -0.000214 0.000000
# 3 -0.000683 -0.000809 0.009261 0.000000 0.000891 0.000000
# 4 0.000000 0.000000 0.000000 0.052091 0.000000 0.018431
# 5 0.003376 -0.000214 0.000891 0.000000 0.026215 0.000000
# 6 0.000000 0.000000 0.000000 0.018431 0.000000 0.041021
#
#
# Mechanical properties :
#
#
# Convention : Reuss Voigt Hill
#
# Bulk Modulus (GPa) = 50.20043 61.07330 55.63687
# Shear Modulus (GPa) = 30.67965 40.18241 35.43103
#
# Velocity S-wave (km/s) = 3.52811 4.03771 3.79148
# Velocity P-wave (km/s) = 6.07984 6.82030 6.46069
#
# Compressibility (1/GPa) = 0.01992015
#
# Stress axis : x y z
#
# Youngs Moduli (GPa) = 164.06316 76.29173 107.97852
#
# Poissons Ratio (x) = 0.21208 0.07375
# Poissons Ratio (y) = 0.45608 0.08735
# Poissons Ratio (z) = 0.11206 0.06172
#
# Static dielectric constant tensor:
#      x y z
#    x 1.929160 0.000000 -0.005940 
#    y 0.000000 2.074650 0.000000 
#    z -0.005940 0.000000 1.959480 
# 
# From -- ./inp_files/171754.got.cif
#   From: 2010.05.17/outbox.cif.g08.bks.cpg/sg15_86_cif.got.tgz:171754.got - 2010.06.03 18:47:42.
