data_PCOD9262573
_publ_section_title
;
Structure prediction by ZEFSAII (Michael W. Deem and Ramdas Pophale) SiO2 
 PCOD9262573
Probable space group: C 2/C
;
_chemical_formula_sum "Si O2"
_cell_formula_units_Z 40
_cell_length_a 5.068532
_cell_length_b 25.636137
_cell_length_c 15.552647
_cell_angle_alpha 90.000000
_cell_angle_beta 90.639990
_cell_angle_gamma 90.000000
_cell_volume 2020.747257
_symmetry_space_group_name_H-M "C 2/C"
_symmetry_group_IT_number 15
_symmetry_cell_setting 'monoclinic'
loop_
_space_group_symop_operation_xyz
x,y,z
-x,y,1/2-z
-x,-y,-z
x,-y,1/2+z
1/2+x,1/2+y,z
1/2-x,1/2+y,1/2-z
1/2-x,1/2-y,-z
1/2+x,1/2-y,1/2+z
loop_
_atom_site_type_symbol
_atom_site_label
_atom_site_fract_x
_atom_site_fract_y
_atom_site_fract_z
Si Si1 0.751780 0.326680 0.313222
Si Si2 0.632475 0.995924 0.408016
Si Si3 0.872794 0.061328 0.654132
Si Si4 0.252268 0.399354 0.812871
Si Si5 0.253075 0.714158 0.313216
O O1 0.500000 0.324003 0.250000
O O2 0.714587 0.379400 0.366549
O O3 0.764140 0.270329 0.359852
O O4 0.000000 0.332998 0.250000
O O5 0.726965 0.052173 0.375745
O O6 0.500000 0.000000 0.500000
O O7 0.391392 0.973215 0.350054
O O8 0.891342 0.959484 0.404896
O O9 0.000000 0.059746 0.750000
O O10 0.500000 0.405277 0.750000
O O11 0.261804 0.342271 0.858056
O O12 0.000000 0.399899 0.750000
O O13 0.500000 0.714648 0.250000
O O14 0.000000 0.713809 0.250000
#
# Coordination Sequence:
#
# PCOD9262573 Si02
#       5
#     8   8   8   8   8
#     4   9  16  28  49  77 102 123 160 216 262 296
#     4  12  24  36  51  76 111 142 172 215 264 306
#     4  11  21  36  57  78 101 135 177 215 255 309
#     4  10  19  33  54  75  99 134 175 212 249 305
#     4   8  15  27  46  74 100 123 159 211 259 294
#
# _framework density 19.794658999999999
#
# number of rings (size 3 to 8) (size 9 to 14) (size 15 to 20)
#    0.000    2.000    0.000    6.600    0.000    0.000 
#    0.000    0.000    0.000    2.400    0.000    0.000 
#    0.000    0.000    0.000    0.000    0.000    0.000 
#
# Total GULP energy -111494.343998 kJ/mol
# GULP energy per Si atom -5574.717200 kJ/mol
# Density = 1.974961 g / cm^3
# Si number density = 19.794659 Si / 1000 Ang^3
#
#
#
# Elastic Constant Matrix: (Units=GPa)
#
#
# Indices 1 2 3 4 5 6 
#
# 1 147.4072 43.5349 13.8411 0.0000 -28.2497 0.0000
# 2 43.5349 234.4888 49.2793 0.0000 -28.3356 0.0000
# 3 13.8411 49.2793 43.4110 0.0000 -20.6068 0.0000
# 4 0.0000 0.0000 0.0000 -4.2454 0.0000 -8.2943
# 5 -28.2497 -28.3356 -20.6068 0.0000 27.1518 0.0000
# 6 0.0000 0.0000 0.0000 -8.2943 0.0000 30.4822
#
#
#
# Elastic Compliance Matrix: (Units=1/GPa)
#
#
# Indices 1 2 3 4 5 6 
#
# 1 0.008827 -0.001079 0.003494 0.000000 0.010710 0.000000
# 2 -0.001079 0.005777 -0.006073 0.000000 0.000297 0.000000
# 3 0.003494 -0.006073 0.043038 0.000000 0.029961 0.000000
# 4 0.000000 0.000000 0.000000 -0.153791 0.000000 -0.041847
# 5 0.010710 0.000297 0.029961 0.000000 0.071022 0.000000
# 6 0.000000 0.000000 0.000000 -0.041847 0.000000 0.021419
#
#
# Mechanical properties :
#
#
# Convention : Reuss Voigt Hill
#
# Bulk Modulus (GPa) = 19.87011 70.95750 45.41380
# Shear Modulus (GPa) = 245.30488 31.92117 138.61303
#
# Velocity S-wave (km/s) = 11.14423 4.02009 8.37720
# Velocity P-wave (km/s) = 13.25336 7.58108 10.79640
#
# Compressibility (1/GPa) = 0.05032685
#
# Stress axis : x y z
#
# Youngs Moduli (GPa) = 113.28917 173.09706 23.23540
#
# Poissons Ratio (x) = 0.18677 -0.08119
# Poissons Ratio (y) = 0.12224 0.14111
# Poissons Ratio (z) = -0.39587 1.05120
#
# Static dielectric constant tensor:
#      x y z
#    x 1.661670 0.000000 0.016240 
#    y 0.000000 1.823170 0.000000 
#    z 0.016240 0.000000 1.650720 
# 
# From -- ./inp_files/129618.got.cif
#   From: 2010.05.17/outbox.cif.g08.bks.cpg/sg15_65_cif.got.tgz:129618.got - 2010.06.03 18:47:42.
