data_PCOD9262837
_publ_section_title
;
Structure prediction by ZEFSAII (Michael W. Deem and Ramdas Pophale) SiO2 
 PCOD9262837
Probable space group: C 2/C
;
_chemical_formula_sum "Si O2"
_cell_formula_units_Z 48
_cell_length_a 18.428971
_cell_length_b 23.515077
_cell_length_c 12.740991
_cell_angle_alpha 90.000000
_cell_angle_beta 26.553062
_cell_angle_gamma 90.000000
_cell_volume 2468.220177
_symmetry_space_group_name_H-M "C 2/C"
_symmetry_group_IT_number 15
_symmetry_cell_setting 'monoclinic'
loop_
_space_group_symop_operation_xyz
x,y,z
-x,y,1/2-z
-x,-y,-z
x,-y,1/2+z
1/2+x,1/2+y,z
1/2-x,1/2+y,1/2-z
1/2-x,1/2-y,-z
1/2+x,1/2-y,1/2+z
loop_
_atom_site_type_symbol
_atom_site_label
_atom_site_fract_x
_atom_site_fract_y
_atom_site_fract_z
Si Si1 0.639804 0.905783 0.916475
Si Si2 0.322044 0.557025 0.796474
Si Si3 0.695640 0.047794 0.557404
Si Si4 0.850966 0.185312 0.789480
Si Si5 0.225100 0.798701 0.868162
Si Si6 0.139471 0.994366 0.969768
O O1 0.661405 0.843417 0.840219
O O2 0.712251 0.950126 0.738430
O O3 0.461537 0.925834 0.183302
O O4 0.737979 0.914371 0.900079
O O5 0.297760 0.623357 0.821474
O O6 0.361729 0.533301 0.631226
O O7 0.479694 0.544781 0.665369
O O8 0.183909 0.515833 0.022472
O O9 0.826075 0.036271 0.478622
O O10 0.784395 0.233631 0.797411
O O11 0.044920 0.193475 0.553278
O O12 0.783013 0.188269 0.996641
#
# Coordination Sequence:
#
# PCOD9262837 Si02
#       6
#     8   8   8   8   8   8
#     4  10  20  37  56  88 128 158 198 251 310 369
#     4  10  20  34  56  87 119 154 199 245 304 363
#     4  10  21  33  57  90 124 158 194 248 312 378
#     4  10  21  38  61  88 114 160 206 255 304 360
#     4  10  21  38  62  85 119 159 206 257 305 351
#     4  10  19  33  56  86 116 158 195 242 304 365
#
# _framework density 19.447213000000001
#
# number of rings (size 3 to 8) (size 9 to 14) (size 15 to 20)
#    0.000    2.000    1.667    2.000    2.333    1.333 
#    0.000   11.667    0.000    9.000    0.000    0.000 
#    0.000    0.000    0.000    0.000    0.000    0.000 
#
# Total GULP energy -133691.856935 kJ/mol
# GULP energy per Si atom -5570.494039 kJ/mol
# Density = 1.940295 g / cm^3
# Si number density = 19.447213 Si / 1000 Ang^3
#
#
#
# Elastic Constant Matrix: (Units=GPa)
#
#
# Indices 1 2 3 4 5 6 
#
# 1 73.0336 32.1496 10.8126 0.0150 11.3072 -0.0088
# 2 32.1496 175.6622 53.7094 0.0216 6.7761 -0.0188
# 3 10.8126 53.7094 80.7580 -0.0104 -1.7949 -0.0068
# 4 0.0150 0.0216 -0.0104 27.2454 -0.0081 6.2506
# 5 11.3072 6.7761 -1.7949 -0.0081 11.6124 0.0097
# 6 -0.0088 -0.0188 -0.0068 6.2506 0.0097 32.1062
#
#
#
# Elastic Compliance Matrix: (Units=1/GPa)
#
#
# Indices 1 2 3 4 5 6 
#
# 1 0.017267 -0.002184 -0.001209 -0.000015 -0.015726 0.000011
# 2 -0.002184 0.007714 -0.004907 -0.000009 -0.003133 0.000006
# 3 -0.001209 -0.004907 0.015953 0.000014 0.006507 -0.000004
# 4 -0.000015 -0.000009 0.000014 0.038419 0.000055 -0.007480
# 5 -0.015726 -0.003133 0.006507 0.000055 0.104262 -0.000047
# 6 0.000011 0.000006 -0.000004 -0.007480 -0.000047 0.032603
#
#
# Mechanical properties :
#
#
# Convention : Reuss Voigt Hill
#
# Bulk Modulus (GPa) = 41.09571 58.08857 49.59214
# Shear Modulus (GPa) = 20.75293 29.71161 25.23227
#
# Velocity S-wave (km/s) = 3.27026 3.91296 3.60596
# Velocity P-wave (km/s) = 5.95292 7.09575 6.54931
#
# Compressibility (1/GPa) = 0.02433344
#
# Stress axis : x y z
#
# Youngs Moduli (GPa) = 57.91230 129.63822 62.68462
#
# Poissons Ratio (x) = 0.28313 0.07578
# Poissons Ratio (y) = 0.12648 0.30762
# Poissons Ratio (z) = 0.07001 0.63618
#
# Static dielectric constant tensor:
#      x y z
#    x 1.725380 0.000000 -0.010600 
#    y 0.000000 1.671130 0.000000 
#    z -0.010600 0.000000 1.777200 
# 
# From -- ./inp_files/108039.got.cif
#   From: 2010.05.17/outbox.cif.g08.bks.cpg/sg15_55_cif.got.tgz:108039.got - 2010.06.03 18:47:42.
