data_PCOD9262017
_publ_section_title
;
Structure prediction by ZEFSAII (Michael W. Deem and Ramdas Pophale) SiO2 
 PCOD9262017
Probable space group: C 2/C
;
_chemical_formula_sum "Si O2"
_cell_formula_units_Z 40
_cell_length_a 9.846769
_cell_length_b 13.770471
_cell_length_c 19.139904
_cell_angle_alpha 90.000000
_cell_angle_beta 143.051494
_cell_angle_gamma 90.000000
_cell_volume 1560.008163
_symmetry_space_group_name_H-M "C 2/C"
_symmetry_group_IT_number 15
_symmetry_cell_setting 'monoclinic'
loop_
_space_group_symop_operation_xyz
x,y,z
-x,y,1/2-z
-x,-y,-z
x,-y,1/2+z
1/2+x,1/2+y,z
1/2-x,1/2+y,1/2-z
1/2-x,1/2-y,-z
1/2+x,1/2-y,1/2+z
loop_
_atom_site_type_symbol
_atom_site_label
_atom_site_fract_x
_atom_site_fract_y
_atom_site_fract_z
Si Si1 0.239364 0.121725 0.618903
Si Si2 0.593560 0.928045 0.454164
Si Si3 0.737042 0.878619 0.066853
Si Si4 0.694961 0.053980 0.273217
Si Si5 0.567831 0.767682 0.657330
O O1 0.500000 0.124042 0.750000
O O2 0.252191 0.121977 0.540910
O O3 0.136271 0.212070 0.615613
O O4 0.153260 0.021540 0.620177
O O5 0.441925 0.865228 0.444153
O O6 0.743152 0.004876 0.560002
O O7 0.409506 0.989602 0.332774
O O8 0.964315 0.816366 0.163233
O O9 0.630177 0.839686 0.949986
O O10 0.500000 0.079891 0.250000
O O11 0.752938 0.159784 0.266119
#
# Coordination Sequence:
#
# PCOD9262017 Si02
#       5
#     8   8   8   8   8
#     4   9  19  35  51  70 103 136 166 210 252 291
#     4   8  16  34  51  71 103 131 160 205 254 291
#     4   9  18  32  53  76 101 132 167 207 250 307
#     4   8  17  33  50  68  98 134 166 203 243 296
#     4  10  19  32  52  77 100 133 173 203 250 307
#
# _framework density 25.640892000000001
#
# number of rings (size 3 to 8) (size 9 to 14) (size 15 to 20)
#    0.000    3.600    0.000    0.000    0.000    4.800 
#    0.000    6.000    0.000    0.000    0.000    0.000 
#    0.000    0.000    0.000    0.000    0.000    0.000 
#
# Total GULP energy -111492.401673 kJ/mol
# GULP energy per Si atom -5574.620084 kJ/mol
# Density = 2.558253 g / cm^3
# Si number density = 25.640892 Si / 1000 Ang^3
#
#
#
# Elastic Constant Matrix: (Units=GPa)
#
#
# Indices 1 2 3 4 5 6 
#
# 1 120.9481 56.3905 14.1945 0.0000 -38.9976 0.0000
# 2 56.3905 124.7682 24.1612 0.0000 -14.4575 0.0000
# 3 14.1945 24.1612 72.4795 0.0000 -13.9238 0.0000
# 4 0.0000 0.0000 0.0000 5.7785 0.0000 5.5455
# 5 -38.9976 -14.4575 -13.9238 0.0000 37.5476 0.0000
# 6 0.0000 0.0000 0.0000 5.5455 0.0000 36.5293
#
#
#
# Elastic Compliance Matrix: (Units=1/GPa)
#
#
# Indices 1 2 3 4 5 6 
#
# 1 0.015298 -0.005565 0.001615 0.000000 0.014345 0.000000
# 2 -0.005565 0.010800 -0.003038 0.000000 -0.002748 0.000000
# 3 0.001615 -0.003038 0.015710 0.000000 0.006333 0.000000
# 4 0.000000 0.000000 0.000000 0.202567 0.000000 -0.030752
# 5 0.014345 -0.002748 0.006333 0.000000 0.042822 0.000000
# 6 0.000000 0.000000 0.000000 -0.030752 0.000000 0.032044
#
#
# Mechanical properties :
#
#
# Convention : Reuss Voigt Hill
#
# Bulk Modulus (GPa) = 35.92981 56.40980 46.16981
# Shear Modulus (GPa) = 14.59874 30.86773 22.73323
#
# Velocity S-wave (km/s) = 2.38870 3.47341 2.98081
# Velocity P-wave (km/s) = 4.65306 6.17526 5.46740
#
# Compressibility (1/GPa) = 0.02783204
#
# Stress axis : x y z
#
# Youngs Moduli (GPa) = 65.36661 92.59394 63.65296
#
# Poissons Ratio (x) = 0.51526 -0.10279
# Poissons Ratio (y) = 0.36375 0.19339
# Poissons Ratio (z) = -0.10555 0.28132
#
# Static dielectric constant tensor:
#      x y z
#    x 2.069370 0.000000 0.041220 
#    y 0.000000 2.126460 0.000000 
#    z 0.041220 0.000000 2.123530 
# 
# From -- ./inp_files/188444.got.cif
#   From: 2010.05.17/outbox.cif.g08.bks.cpg/sg15_95_cif.got.tgz:188444.got - 2010.06.03 18:47:42.
