data_PCOD9262907
_publ_section_title
;
Structure prediction by ZEFSAII (Michael W. Deem and Ramdas Pophale) SiO2 
 PCOD9262907
Probable space group: C 2/C
;
_chemical_formula_sum "Si O2"
_cell_formula_units_Z 48
_cell_length_a 14.003320
_cell_length_b 32.406475
_cell_length_c 14.995488
_cell_angle_alpha 90.000000
_cell_angle_beta 20.149502
_cell_angle_gamma 90.000000
_cell_volume 2344.099126
_symmetry_space_group_name_H-M "C 2/C"
_symmetry_group_IT_number 15
_symmetry_cell_setting 'monoclinic'
loop_
_space_group_symop_operation_xyz
x,y,z
-x,y,1/2-z
-x,-y,-z
x,-y,1/2+z
1/2+x,1/2+y,z
1/2-x,1/2+y,1/2-z
1/2-x,1/2-y,-z
1/2+x,1/2-y,1/2+z
loop_
_atom_site_type_symbol
_atom_site_label
_atom_site_fract_x
_atom_site_fract_y
_atom_site_fract_z
Si Si1 0.276692 0.854329 0.295636
Si Si2 0.182132 0.906617 0.722920
Si Si3 0.918283 0.571053 0.198543
Si Si4 0.303517 0.986082 0.499549
Si Si5 0.188232 0.766019 0.452832
Si Si6 0.536772 0.624342 0.815447
O O1 0.293414 0.810494 0.330216
O O2 0.107856 0.883236 0.512921
O O3 0.105874 0.852381 0.349626
O O4 0.575128 0.874036 0.012882
O O5 0.225685 0.925745 0.781896
O O6 0.220768 0.946275 0.628393
O O7 0.731838 0.594953 0.434683
O O8 0.004883 0.523912 0.136007
O O9 0.194646 0.595920 0.932890
O O10 0.000000 0.005886 0.750000
O O11 0.500000 0.968947 0.250000
O O12 0.250000 0.750000 0.500000
O O13 0.856472 0.764533 0.740648
O O14 0.500000 0.646224 0.750000
#
# Coordination Sequence:
#
# PCOD9262907 Si02
#       6
#     8   8   8   8   8   8
#     4  10  21  39  60  81 118 142 185 245 280 352
#     4  10  22  39  54  81 110 156 188 232 304 326
#     4  10  20  35  57  74 111 153 199 240 271 339
#     4  12  23  36  50  79 113 151 199 242 285 336
#     4  10  21  40  61  89 107 144 191 221 280 343
#     4  10  19  33  57  88 108 146 190 236 294 326
#
# _framework density 20.476949000000001
#
# number of rings (size 3 to 8) (size 9 to 14) (size 15 to 20)
#    0.000    1.667    0.000    5.500    0.000    0.000 
#   18.000    6.667    0.000    1.000    0.000    0.000 
#    0.000    0.000    0.000    0.000    0.000    0.000 
#
# Total GULP energy -133627.095909 kJ/mol
# GULP energy per Si atom -5567.795663 kJ/mol
# Density = 2.043034 g / cm^3
# Si number density = 20.476949 Si / 1000 Ang^3
#
#
#
# Elastic Constant Matrix: (Units=GPa)
#
#
# Indices 1 2 3 4 5 6 
#
# 1 47.3303 37.8066 5.4482 -0.0013 16.0976 -0.0017
# 2 37.8066 82.2173 12.4471 0.0007 15.4275 0.0018
# 3 5.4482 12.4471 120.2477 0.0021 16.4394 0.0133
# 4 -0.0013 0.0007 0.0021 30.3760 0.0024 8.3853
# 5 16.0976 15.4275 16.4394 0.0024 24.3926 0.0011
# 6 -0.0017 0.0018 0.0133 8.3853 0.0011 38.2523
#
#
#
# Elastic Compliance Matrix: (Units=1/GPa)
#
#
# Indices 1 2 3 4 5 6 
#
# 1 0.038723 -0.014825 0.002194 0.000003 -0.017657 0.000001
# 2 -0.014825 0.019484 -0.001099 -0.000001 -0.001798 -0.000001
# 3 0.002194 -0.001099 0.009289 0.000001 -0.007013 -0.000003
# 4 0.000003 -0.000001 0.000001 0.035041 -0.000005 -0.007681
# 5 -0.017657 -0.001798 -0.007013 -0.000005 0.058513 0.000001
# 6 0.000001 -0.000001 -0.000003 -0.007681 0.000001 0.027826
#
#
# Mechanical properties :
#
#
# Convention : Reuss Voigt Hill
#
# Bulk Modulus (GPa) = 24.97786 40.13322 32.55554
# Shear Modulus (GPa) = 21.76919 31.54374 26.65647
#
# Velocity S-wave (km/s) = 3.26407 3.92912 3.61193
# Velocity P-wave (km/s) = 5.14102 6.34237 5.77303
#
# Compressibility (1/GPa) = 0.04003545
#
# Stress axis : x y z
#
# Youngs Moduli (GPa) = 25.82435 51.32416 107.65024
#
# Poissons Ratio (x) = 0.76090 -0.23619
# Poissons Ratio (y) = 0.38285 0.11834
# Poissons Ratio (z) = -0.05666 0.05642
#
# Static dielectric constant tensor:
#      x y z
#    x 1.951050 -0.000010 0.022110 
#    y -0.000010 1.740440 -0.000010 
#    z 0.022110 -0.000010 1.837570 
# 
# From -- ./inp_files/157613.got.cif
#   From: 2010.05.17/outbox.cif.g08.bks.cpg/sg15_79_cif.got.tgz:157613.got - 2010.06.03 18:47:42.
