data_PCOD9262304
_publ_section_title
;
Structure prediction by ZEFSAII (Michael W. Deem and Ramdas Pophale) SiO2 
 PCOD9262304
Probable space group: C 2/C
;
_chemical_formula_sum "Si O2"
_cell_formula_units_Z 60
_cell_length_a 20.503419
_cell_length_b 18.954813
_cell_length_c 14.546418
_cell_angle_alpha 90.000000
_cell_angle_beta 30.692659
_cell_angle_gamma 90.000000
_cell_volume 2885.628255
_symmetry_space_group_name_H-M "C 2/C"
_symmetry_group_IT_number 15
_symmetry_cell_setting 'monoclinic'
loop_
_space_group_symop_operation_xyz
x,y,z
-x,y,1/2-z
-x,-y,-z
x,-y,1/2+z
1/2+x,1/2+y,z
1/2-x,1/2+y,1/2-z
1/2-x,1/2-y,-z
1/2+x,1/2-y,1/2+z
loop_
_atom_site_type_symbol
_atom_site_label
_atom_site_fract_x
_atom_site_fract_y
_atom_site_fract_z
Si Si1 0.834147 0.624192 0.047137
Si Si2 0.610323 0.876254 0.806311
Si Si3 0.098021 0.741595 0.979376
Si Si4 0.500000 0.243104 0.750000
Si Si5 0.430314 0.031088 0.427011
Si Si6 0.186915 0.128880 0.747988
Si Si7 0.059551 0.159683 0.351455
Si Si8 0.669357 0.680483 0.570648
O O1 0.849645 0.637559 0.137585
O O2 0.687499 0.613391 0.194761
O O3 0.909733 0.551696 0.941034
O O4 0.892452 0.690103 0.920733
O O5 0.526682 0.945715 0.890833
O O6 0.734940 0.875424 0.592641
O O7 0.517622 0.813853 0.883236
O O8 0.229315 0.697245 0.823941
O O9 0.088001 0.785800 0.899409
O O10 0.091325 0.790260 0.077476
O O11 0.456398 0.294282 0.720707
O O12 0.500000 0.059138 0.250000
O O13 0.293187 0.067741 0.611117
O O14 0.132093 0.145475 0.712833
O O15 0.070671 0.120370 0.960126
O O16 0.750000 0.750000 0.500000
#
# Coordination Sequence:
#
# PCOD9262304 Si02
#       8
#     8   8   8   4   8   8   8   8
#     4  12  25  44  68  94 128 177 228 277 320 391
#     4  11  21  39  62  98 131 170 217 266 321 388
#     4  10  19  35  62  93 135 164 205 260 331 403
#     4  12  26  46  68  98 130 176 230 282 330 388
#     4  11  23  44  68  94 129 175 225 270 321 392
#     4  10  23  38  65  96 134 174 211 269 338 397
#     4  12  24  43  65  97 134 168 223 277 339 393
#     4  10  19  32  58  98 132 164 199 252 333 396
#
# _framework density 20.792698999999999
#
# number of rings (size 3 to 8) (size 9 to 14) (size 15 to 20)
#    0.000    1.067    4.667    3.200    0.000    3.200 
#    0.000    0.000    0.000    0.000    0.000    0.000 
#    0.000    0.000    0.000    0.000    0.000    0.000 
#
# Total GULP energy -167537.568138 kJ/mol
# GULP energy per Si atom -5584.585605 kJ/mol
# Density = 2.074537 g / cm^3
# Si number density = 20.792699 Si / 1000 Ang^3
#
#
#
# Elastic Constant Matrix: (Units=GPa)
#
#
# Indices 1 2 3 4 5 6 
#
# 1 126.0868 29.4962 47.4903 0.0000 13.2379 0.0000
# 2 29.4962 65.0200 23.8115 0.0000 1.7640 0.0000
# 3 47.4903 23.8115 109.5218 0.0001 0.9250 -0.0001
# 4 0.0000 0.0000 0.0001 19.3993 -0.0001 3.3081
# 5 13.2379 1.7640 0.9250 -0.0001 32.6781 0.0000
# 6 0.0000 0.0000 -0.0001 3.3081 0.0000 21.2887
#
#
#
# Elastic Compliance Matrix: (Units=1/GPa)
#
#
# Indices 1 2 3 4 5 6 
#
# 1 0.010561 -0.003279 -0.003833 0.000000 -0.003993 0.000000
# 2 -0.003279 0.017749 -0.002441 0.000000 0.000439 0.000000
# 3 -0.003833 -0.002441 0.011312 0.000000 0.001364 0.000000
# 4 0.000000 0.000000 0.000000 0.052951 0.000000 -0.008228
# 5 -0.003993 0.000439 0.001364 0.000000 0.032157 0.000000
# 6 0.000000 0.000000 0.000000 -0.008228 0.000000 0.048252
#
#
# Mechanical properties :
#
#
# Convention : Reuss Voigt Hill
#
# Bulk Modulus (GPa) = 48.74055 55.80275 52.27165
# Shear Modulus (GPa) = 25.13497 27.99526 26.56511
#
# Velocity S-wave (km/s) = 3.48060 3.67331 3.57826
# Velocity P-wave (km/s) = 6.29642 6.69977 6.50122
#
# Compressibility (1/GPa) = 0.02051680
#
# Stress axis : x y z
#
# Youngs Moduli (GPa) = 94.68887 56.34005 88.40414
#
# Poissons Ratio (x) = 0.18474 0.33883
# Poissons Ratio (y) = 0.31048 0.21578
# Poissons Ratio (z) = 0.36292 0.13752
#
# Static dielectric constant tensor:
#      x y z
#    x 1.783480 0.000000 -0.070100 
#    y 0.000000 1.729970 0.000000 
#    z -0.070100 0.000000 1.871980 
# 
# From -- ./inp_files/169464.got.cif
#   From: 2010.05.17/outbox.cif.g08.bks.cpg/sg15_85_cif.got.tgz:169464.got - 2010.06.03 18:47:42.
