data_PCOD9262461
_publ_section_title
;
Structure prediction by ZEFSAII (Michael W. Deem and Ramdas Pophale) SiO2 
 PCOD9262461
Probable space group: C 2/C
;
_chemical_formula_sum "Si O2"
_cell_formula_units_Z 64
_cell_length_a 15.489576
_cell_length_b 25.830008
_cell_length_c 9.011469
_cell_angle_alpha 90.000000
_cell_angle_beta 105.221315
_cell_angle_gamma 90.000000
_cell_volume 3478.968301
_symmetry_space_group_name_H-M "C 2/C"
_symmetry_group_IT_number 15
_symmetry_cell_setting 'monoclinic'
loop_
_space_group_symop_operation_xyz
x,y,z
-x,y,1/2-z
-x,-y,-z
x,-y,1/2+z
1/2+x,1/2+y,z
1/2-x,1/2+y,1/2-z
1/2-x,1/2-y,-z
1/2+x,1/2-y,1/2+z
loop_
_atom_site_type_symbol
_atom_site_label
_atom_site_fract_x
_atom_site_fract_y
_atom_site_fract_z
Si Si1 0.905837 0.943841 0.134254
Si Si2 0.095013 0.314310 0.499318
Si Si3 0.720013 0.641330 0.428279
Si Si4 0.602392 0.742012 0.762233
Si Si5 0.781878 0.141937 0.715966
Si Si6 0.905067 0.057347 0.275101
Si Si7 0.393890 0.189124 0.975796
Si Si8 0.099806 0.765973 0.761802
O O1 0.829271 0.905356 0.155043
O O2 0.000000 0.925940 0.250000
O O3 0.890482 0.000769 0.196551
O O4 0.910887 0.945450 0.957025
O O5 0.174657 0.354032 0.557941
O O6 0.109515 0.261502 0.597955
O O7 0.103002 0.290792 0.338982
O O8 0.994562 0.330786 0.493095
O O9 0.709000 0.636206 0.601516
O O10 0.670872 0.595931 0.317417
O O11 0.673405 0.694541 0.351555
O O12 0.500000 0.726806 0.750000
O O13 0.667992 0.694528 0.811048
O O14 0.621088 0.794812 0.861141
O O15 0.680412 0.150896 0.618935
O O16 0.000000 0.075798 0.250000
O O17 0.388689 0.247367 0.901243
O O18 0.000000 0.786665 0.750000
#
# Coordination Sequence:
#
# PCOD9262461 Si02
#       8
#     8   8   8   8   8   8   8   8
#     4  11  24  43  65  87 117 143 180 230 287 342
#     4  10  20  37  52  78 117 160 195 233 279 329
#     4  12  22  34  58  84 114 152 197 237 279 337
#     4  10  21  34  51  77 118 154 194 240 285 331
#     4  12  22  35  56  84 116 152 196 236 282 336
#     4  11  24  43  65  88 114 145 181 229 288 341
#     4  10  22  34  53  80 117 160 195 238 279 332
#     4  10  19  33  52  78 115 154 196 232 277 333
#
# _framework density 18.396259000000001
#
# number of rings (size 3 to 8) (size 9 to 14) (size 15 to 20)
#    0.000    1.250    2.500    5.250    3.500    0.000 
#    0.000    0.000    0.000    0.750    0.000    0.000 
#    0.000    0.000    0.000    0.000    0.000    0.000 
#
# Total GULP energy -178599.979947 kJ/mol
# GULP energy per Si atom -5581.249373 kJ/mol
# Density = 1.835439 g / cm^3
# Si number density = 18.396259 Si / 1000 Ang^3
#
#
#
# Elastic Constant Matrix: (Units=GPa)
#
#
# Indices 1 2 3 4 5 6 
#
# 1 118.5636 61.9372 58.5376 0.0000 15.0380 0.0000
# 2 61.9372 60.9740 32.8237 0.0000 12.8331 0.0000
# 3 58.5376 32.8237 99.1402 0.0000 5.6213 0.0000
# 4 0.0000 0.0000 0.0000 28.5227 0.0000 3.6978
# 5 15.0380 12.8331 5.6213 0.0000 31.9973 0.0000
# 6 0.0000 0.0000 0.0000 3.6978 0.0000 25.4168
#
#
#
# Elastic Compliance Matrix: (Units=1/GPa)
#
#
# Indices 1 2 3 4 5 6 
#
# 1 0.020982 -0.017444 -0.006516 0.000000 -0.001720 0.000000
# 2 -0.017444 0.036097 -0.001308 0.000000 -0.006049 0.000000
# 3 -0.006516 -0.001308 0.014307 0.000000 0.001074 0.000000
# 4 0.000000 0.000000 0.000000 0.035734 0.000000 -0.005199
# 5 -0.001720 -0.006049 0.001074 0.000000 0.034299 0.000000
# 6 0.000000 0.000000 0.000000 -0.005199 0.000000 0.040100
#
#
# Mechanical properties :
#
#
# Convention : Reuss Voigt Hill
#
# Bulk Modulus (GPa) = 47.96323 65.03053 56.49688
# Shear Modulus (GPa) = 20.91998 25.54597 23.23297
#
# Velocity S-wave (km/s) = 3.37588 3.73050 3.55761
# Velocity P-wave (km/s) = 6.42840 7.34725 6.90313
#
# Compressibility (1/GPa) = 0.02084931
#
# Stress axis : x y z
#
# Youngs Moduli (GPa) = 47.65929 27.70276 69.89820
#
# Poissons Ratio (x) = 0.48324 0.45547
# Poissons Ratio (y) = 0.83136 0.09146
# Poissons Ratio (z) = 0.31055 0.03625
#
# Static dielectric constant tensor:
#      x y z
#    x 1.649130 0.000000 0.013920 
#    y 0.000000 1.586690 0.000000 
#    z 0.013920 0.000000 1.659620 
# 
# From -- ./inp_files/43588.got.cif
#   From: 2010.05.17/outbox.cif.g08.bks.cpg/sg15_22_cif.got.tgz:43588.got - 2010.06.03 18:47:42.
