data_PCOD9262597
_publ_section_title
;
Structure prediction by ZEFSAII (Michael W. Deem and Ramdas Pophale) SiO2 
 PCOD9262597
Probable space group: C 2/C
;
_chemical_formula_sum "Si O2"
_cell_formula_units_Z 24
_cell_length_a 15.252042
_cell_length_b 15.491444
_cell_length_c 5.632795
_cell_angle_alpha 90.000000
_cell_angle_beta 134.179414
_cell_angle_gamma 90.000000
_cell_volume 954.466155
_symmetry_space_group_name_H-M "C 2/C"
_symmetry_group_IT_number 15
_symmetry_cell_setting 'monoclinic'
loop_
_space_group_symop_operation_xyz
x,y,z
-x,y,1/2-z
-x,-y,-z
x,-y,1/2+z
1/2+x,1/2+y,z
1/2-x,1/2+y,1/2-z
1/2-x,1/2-y,-z
1/2+x,1/2-y,1/2+z
loop_
_atom_site_type_symbol
_atom_site_label
_atom_site_fract_x
_atom_site_fract_y
_atom_site_fract_z
Si Si1 0.842760 0.979930 0.837879
Si Si2 0.740305 0.198759 0.231270
Si Si3 0.085784 0.580151 0.221574
O O1 0.835723 0.878654 0.885440
O O2 0.894914 0.981424 0.674940
O O3 0.713015 0.036326 0.560502
O O4 0.750000 0.250000 0.500000
O O5 0.621560 0.140398 0.068981
O O6 0.750000 0.250000 0.000000
O O7 0.000000 0.630079 0.250000
O O8 0.000000 0.500000 0.500000
#
# Coordination Sequence:
#
# PCOD9262597 Si02
#       3
#     8   8   8
#     4  10  19  33  54  79 108 153 203 226 288 356
#     4  11  23  35  49  83 132 157 183 254 319 346
#     4  11  20  35  64  88 114 168 211 240 289 384
#
# _framework density 25.144949
#
# number of rings (size 3 to 8) (size 9 to 14) (size 15 to 20)
#    0.000    1.333    6.667    4.000    0.000    0.000 
#    0.000    0.000    0.000    0.000    0.000    0.000 
#    0.000  106.667    0.000    0.000    0.000    0.000 
#
# Total GULP energy -66806.474951 kJ/mol
# GULP energy per Si atom -5567.206246 kJ/mol
# Density = 2.508772 g / cm^3
# Si number density = 25.144949 Si / 1000 Ang^3
#
#
#
# Elastic Constant Matrix: (Units=GPa)
#
#
# Indices 1 2 3 4 5 6 
#
# 1 216.6269 53.6284 75.3443 0.0000 -64.7925 0.0000
# 2 53.6284 142.7593 55.0203 0.0000 -46.3023 0.0000
# 3 75.3443 55.0203 180.1463 0.0000 -40.1809 0.0000
# 4 0.0000 0.0000 0.0000 43.1398 0.0000 -36.7280
# 5 -64.7925 -46.3023 -40.1809 0.0000 68.9205 0.0000
# 6 0.0000 0.0000 0.0000 -36.7280 0.0000 51.7592
#
#
#
# Elastic Compliance Matrix: (Units=1/GPa)
#
#
# Indices 1 2 3 4 5 6 
#
# 1 0.006821 -0.000216 -0.001597 0.000000 0.005337 0.000000
# 2 -0.000216 0.009384 -0.001626 0.000000 0.005153 0.000000
# 3 -0.001597 -0.001626 0.007054 0.000000 0.001519 0.000000
# 4 0.000000 0.000000 0.000000 0.058555 0.000000 0.041550
# 5 0.005337 0.005153 0.001519 0.000000 0.023874 0.000000
# 6 0.000000 0.000000 0.000000 0.041550 0.000000 0.048804
#
#
# Mechanical properties :
#
#
# Convention : Reuss Voigt Hill
#
# Bulk Modulus (GPa) = 61.04447 100.83541 80.93994
# Shear Modulus (GPa) = 29.97037 56.46655 43.21846
#
# Velocity S-wave (km/s) = 3.45614 4.74396 4.15031
# Velocity P-wave (km/s) = 6.34478 8.37828 7.43142
#
# Compressibility (1/GPa) = 0.01638150
#
# Stress axis : x y z
#
# Youngs Moduli (GPa) = 146.60145 106.56265 141.75671
#
# Poissons Ratio (x) = 0.02304 0.22632
# Poissons Ratio (y) = 0.03170 0.23054
# Poissons Ratio (z) = 0.23406 0.17330
#
# Static dielectric constant tensor:
#      x y z
#    x 1.493120 0.000000 -0.252120 
#    y 0.000000 2.070640 0.000000 
#    z -0.252120 0.000000 2.098740 
# 
# From -- ./inp_files/6207.got.cif
#   From: 2010.05.17/outbox.cif.g08.bks.cpg/sg15_4_cif.got.tgz:6207.got - 2010.06.03 18:47:42.
