data_PCOD9262512
_publ_section_title
;
Structure prediction by ZEFSAII (Michael W. Deem and Ramdas Pophale) SiO2 
 PCOD9262512
Probable space group: C 2/C
;
_chemical_formula_sum "Si O2"
_cell_formula_units_Z 60
_cell_length_a 9.265865
_cell_length_b 32.275865
_cell_length_c 10.637949
_cell_angle_alpha 90.000000
_cell_angle_beta 131.092089
_cell_angle_gamma 90.000000
_cell_volume 2397.694561
_symmetry_space_group_name_H-M "C 2/C"
_symmetry_group_IT_number 15
_symmetry_cell_setting 'monoclinic'
loop_
_space_group_symop_operation_xyz
x,y,z
-x,y,1/2-z
-x,-y,-z
x,-y,1/2+z
1/2+x,1/2+y,z
1/2-x,1/2+y,1/2-z
1/2-x,1/2-y,-z
1/2+x,1/2-y,1/2+z
loop_
_atom_site_type_symbol
_atom_site_label
_atom_site_fract_x
_atom_site_fract_y
_atom_site_fract_z
Si Si1 0.733073 0.965332 0.386169
Si Si2 0.772925 0.407353 0.888522
Si Si3 0.271976 0.183687 0.477793
Si Si4 0.750000 0.750000 0.000000
Si Si5 0.233946 0.561189 0.385360
Si Si6 0.689479 0.227765 0.242886
Si Si7 0.736001 0.815743 0.242173
Si Si8 0.259366 0.093619 0.839913
O O1 0.500000 0.965249 0.250000
O O2 0.787206 0.942509 0.546634
O O3 0.795094 0.938549 0.301118
O O4 0.791353 0.013043 0.413585
O O5 0.707612 0.416228 0.709560
O O6 0.713923 0.362362 0.903914
O O7 0.006309 0.407005 0.023449
O O8 0.220031 0.215284 0.336463
O O9 0.206877 0.192670 0.580835
O O10 0.504244 0.183700 0.613272
O O11 0.535298 0.774418 0.891831
O O12 0.806449 0.788615 0.927976
O O13 0.299782 0.580863 0.554116
O O14 0.000000 0.562190 0.250000
O O15 0.701553 0.275786 0.303357
O O16 0.799878 0.860037 0.230459
#
# Coordination Sequence:
#
# PCOD9262512 Si02
#       8
#     8   8   8   4   8   8   8   8
#     4   9  14  24  39  57  95 143 192 229 279 334
#     4   9  16  26  39  64  99 139 187 234 278 331
#     4  10  19  33  53  77 108 146 195 236 284 336
#     4  10  24  40  58  82 112 142 188 230 298 334
#     4   9  16  23  37  63  94 145 195 226 283 334
#     4  11  21  40  58  82 109 151 186 233 282 353
#     4  10  19  33  54  78 106 148 194 236 283 340
#     4   9  16  26  40  64  99 140 187 234 277 331
#
# _framework density 25.024038000000001
#
# number of rings (size 3 to 8) (size 9 to 14) (size 15 to 20)
#    0.000    2.400    2.667    1.200    0.000    4.267 
#    4.800    0.000    0.000    0.000    0.000    0.000 
#    0.000    0.000    0.000   24.000    3.467    1.333 
#
# Total GULP energy -167258.796157 kJ/mol
# GULP energy per Si atom -5575.293205 kJ/mol
# Density = 2.496708 g / cm^3
# Si number density = 25.024038 Si / 1000 Ang^3
#
#
#
# Elastic Constant Matrix: (Units=GPa)
#
#
# Indices 1 2 3 4 5 6 
#
# 1 84.1434 -11.8024 38.1867 0.0000 7.4459 0.0000
# 2 -11.8024 85.5031 16.4165 0.0000 -19.9539 0.0000
# 3 38.1867 16.4165 134.1583 0.0000 -55.6485 0.0000
# 4 0.0000 0.0000 0.0000 -9.2871 0.0000 -16.9764
# 5 7.4459 -19.9539 -55.6485 0.0000 45.2850 0.0000
# 6 0.0000 0.0000 0.0000 -16.9764 0.0000 17.9794
#
#
#
# Elastic Compliance Matrix: (Units=1/GPa)
#
#
# Indices 1 2 3 4 5 6 
#
# 1 0.020510 0.000729 -0.014671 0.000000 -0.021080 0.000000
# 2 0.000729 0.013234 0.001106 0.000000 0.007071 0.000000
# 3 -0.014671 0.001106 0.025898 0.000000 0.034724 0.000000
# 4 0.000000 0.000000 0.000000 -0.039500 0.000000 -0.037297
# 5 -0.021080 0.007071 0.034724 0.000000 0.071335 0.000000
# 6 0.000000 0.000000 0.000000 -0.037297 0.000000 0.020403
#
#
# Mechanical properties :
#
#
# Convention : Reuss Voigt Hill
#
# Bulk Modulus (GPa) = 29.43818 43.26737 36.35277
# Shear Modulus (GPa) = 33.58506 28.19573 30.89040
#
# Velocity S-wave (km/s) = 3.66746 3.36035 3.51726
# Velocity P-wave (km/s) = 5.45190 5.69067 5.57256
#
# Compressibility (1/GPa) = 0.03396950
#
# Stress axis : x y z
#
# Youngs Moduli (GPa) = 48.75646 75.56431 38.61297
#
# Poissons Ratio (x) = -0.05505 0.56649
# Poissons Ratio (y) = -0.03552 -0.04271
# Poissons Ratio (z) = 0.71530 -0.08359
#
# Static dielectric constant tensor:
#      x y z
#    x 2.001940 0.000000 0.017570 
#    y 0.000000 2.027280 0.000000 
#    z 0.017570 0.000000 3.831350 
# 
# From -- ./inp_files/92618.got.cif
#   From: 2010.05.17/outbox.cif.g08.bks.cpg/sg15_47_cif.got.tgz:92618.got - 2010.06.03 18:47:42.
