data_PCOD9262296
_publ_section_title
;
Structure prediction by ZEFSAII (Michael W. Deem and Ramdas Pophale) SiO2 
 PCOD9262296
Probable space group: C 2/C
;
_chemical_formula_sum "Si O2"
_cell_formula_units_Z 48
_cell_length_a 11.367387
_cell_length_b 11.823307
_cell_length_c 14.844737
_cell_angle_alpha 90.000000
_cell_angle_beta 87.786304
_cell_angle_gamma 90.000000
_cell_volume 1993.645285
_symmetry_space_group_name_H-M "C 2/C"
_symmetry_group_IT_number 15
_symmetry_cell_setting 'monoclinic'
loop_
_space_group_symop_operation_xyz
x,y,z
-x,y,1/2-z
-x,-y,-z
x,-y,1/2+z
1/2+x,1/2+y,z
1/2-x,1/2+y,1/2-z
1/2-x,1/2-y,-z
1/2+x,1/2-y,1/2+z
loop_
_atom_site_type_symbol
_atom_site_label
_atom_site_fract_x
_atom_site_fract_y
_atom_site_fract_z
Si Si1 0.508689 0.432516 0.904881
Si Si2 0.581328 0.663234 0.830678
Si Si3 0.957664 0.488437 0.605052
Si Si4 0.756744 0.185869 0.403207
Si Si5 0.343585 0.793511 0.104034
Si Si6 0.388991 0.800800 0.900014
O O1 0.563878 0.530116 0.839873
O O2 0.381830 0.376162 0.886706
O O3 0.596982 0.328020 0.897821
O O4 0.500000 0.500000 0.000000
O O5 0.500000 0.702307 0.750000
O O6 0.710527 0.715094 0.837612
O O7 0.504669 0.724230 0.912393
O O8 0.839855 0.413139 0.605240
O O9 0.923609 0.609797 0.645074
O O10 0.000000 0.500000 0.500000
O O11 0.062831 0.415235 0.646240
O O12 0.750000 0.250000 0.500000
O O13 0.211288 0.775650 0.141155
O O14 0.336410 0.831791 0.999305
#
# Coordination Sequence:
#
# PCOD9262296 Si02
#       6
#     8   8   8   8   8   8
#     4  12  22  37  65  96 127 165 220 268 323 395
#     4  11  24  43  62  89 131 174 216 269 337 394
#     4   9  18  29  52  87 120 147 197 250 315 370
#     4  11  21  38  67  94 124 165 214 271 326 392
#     4  10  19  32  58  91 119 150 204 274 308 369
#     4   9  18  34  57  84 119 161 200 254 322 377
#
# _framework density 24.076499999999999
#
# number of rings (size 3 to 8) (size 9 to 14) (size 15 to 20)
#    0.000    1.667    3.333    3.000    4.667    1.333 
#    3.000    0.000    0.000    1.000    0.000    0.000 
#    0.000    0.000    0.000    0.000    0.000    0.000 
#
# Total GULP energy -133820.471142 kJ/mol
# GULP energy per Si atom -5575.852964 kJ/mol
# Density = 2.402170 g / cm^3
# Si number density = 24.076500 Si / 1000 Ang^3
#
#
#
# Elastic Constant Matrix: (Units=GPa)
#
#
# Indices 1 2 3 4 5 6 
#
# 1 135.7312 63.8273 -6.1735 0.0000 17.0618 0.0000
# 2 63.8273 189.1869 7.1941 0.0000 16.0750 0.0000
# 3 -6.1735 7.1941 56.7778 0.0000 19.3811 0.0000
# 4 0.0000 0.0000 0.0000 8.9271 0.0000 12.3353
# 5 17.0618 16.0750 19.3811 0.0000 19.9393 0.0000
# 6 0.0000 0.0000 0.0000 12.3353 0.0000 52.5197
#
#
#
# Elastic Compliance Matrix: (Units=1/GPa)
#
#
# Indices 1 2 3 4 5 6 
#
# 1 0.010432 -0.002693 0.005659 0.000000 -0.012256 0.000000
# 2 -0.002693 0.006431 -0.000187 0.000000 -0.002699 0.000000
# 3 0.005659 -0.000187 0.029711 0.000000 -0.033571 0.000000
# 4 0.000000 0.000000 0.000000 0.165841 0.000000 -0.038951
# 5 -0.012256 -0.002699 -0.033571 0.000000 0.095446 0.000000
# 6 0.000000 0.000000 0.000000 -0.038951 0.000000 0.028189
#
#
# Mechanical properties :
#
#
# Convention : Reuss Voigt Hill
#
# Bulk Modulus (GPa) = 19.18198 56.82128 38.00163
# Shear Modulus (GPa) = 14.37320 37.40041 25.88681
#
# Velocity S-wave (km/s) = 2.44597 3.94559 3.28257
# Velocity P-wave (km/s) = 3.99517 6.66397 5.49408
#
# Compressibility (1/GPa) = 0.05213226
#
# Stress axis : x y z
#
# Youngs Moduli (GPa) = 95.85854 155.50066 33.65756
#
# Poissons Ratio (x) = 0.41882 -0.19047
# Poissons Ratio (y) = 0.25818 0.00628
# Poissons Ratio (z) = -0.54247 0.02901
#
# Static dielectric constant tensor:
#      x y z
#    x 1.758670 0.000000 -0.248060 
#    y 0.000000 1.949620 0.000000 
#    z -0.248060 0.000000 1.896780 
# 
# From -- ./inp_files/196231.got.cif
#   From: 2010.05.17/outbox.cif.g08.bks.cpg/sg15_99_cif.got.tgz:196231.got - 2010.06.03 18:47:42.
