data_PCOD9262245
_publ_section_title
;
Structure prediction by ZEFSAII (Michael W. Deem and Ramdas Pophale) SiO2 
 PCOD9262245
Probable space group: C 2/C
;
_chemical_formula_sum "Si O2"
_cell_formula_units_Z 56
_cell_length_a 11.324462
_cell_length_b 30.299997
_cell_length_c 9.739719
_cell_angle_alpha 90.000000
_cell_angle_beta 121.188012
_cell_angle_gamma 90.000000
_cell_volume 2858.990485
_symmetry_space_group_name_H-M "C 2/C"
_symmetry_group_IT_number 15
_symmetry_cell_setting 'monoclinic'
loop_
_space_group_symop_operation_xyz
x,y,z
-x,y,1/2-z
-x,-y,-z
x,-y,1/2+z
1/2+x,1/2+y,z
1/2-x,1/2+y,1/2-z
1/2-x,1/2-y,-z
1/2+x,1/2-y,1/2+z
loop_
_atom_site_type_symbol
_atom_site_label
_atom_site_fract_x
_atom_site_fract_y
_atom_site_fract_z
Si Si1 0.353852 0.542443 0.911994
Si Si2 0.847633 0.101895 0.157777
Si Si3 0.007706 0.277450 0.601763
Si Si4 0.324910 0.552891 0.422385
Si Si5 0.629335 0.170463 0.913541
Si Si6 0.246200 0.791053 0.281360
Si Si7 0.666036 0.611894 0.821849
O O1 0.273534 0.496306 0.855791
O O2 0.299039 0.583406 0.791735
O O3 0.359944 0.558198 0.072017
O O4 0.512575 0.541181 0.954022
O O5 0.812650 0.085394 0.287333
O O6 0.000000 0.123086 0.250000
O O7 0.738594 0.134523 0.027064
O O8 0.858413 0.267078 0.445886
O O9 0.000000 0.298821 0.750000
O O10 0.077340 0.306092 0.521731
O O11 0.103925 0.235112 0.684724
O O12 0.275768 0.581086 0.521671
O O13 0.500000 0.151190 0.750000
O O14 0.696508 0.202817 0.839572
O O15 0.224521 0.839390 0.334606
O O16 0.500000 0.616453 0.750000
#
# Coordination Sequence:
#
# PCOD9262245 Si02
#       7
#     8   8   8   8   8   8   8
#     4   9  16  32  50  85 127 160 192 242 304 350
#     4  10  19  33  57  90 118 152 204 246 288 352
#     4  11  25  42  64  89 116 154 198 255 298 355
#     4   9  18  28  53  88 124 157 195 247 297 346
#     4  10  23  42  62  83 118 162 195 236 303 361
#     4  11  23  43  62  89 121 160 200 242 306 356
#     4  10  19  32  56  86 125 163 196 243 298 356
#
# _framework density 19.587333999999998
#
# number of rings (size 3 to 8) (size 9 to 14) (size 15 to 20)
#    0.000    2.000    1.429    2.143    2.000    4.571 
#    0.000    0.000    0.000    0.857    0.000    0.000 
#    0.000    0.000    0.000    0.000    0.000    0.000 
#
# Total GULP energy -156008.463355 kJ/mol
# GULP energy per Si atom -5571.730834 kJ/mol
# Density = 1.954275 g / cm^3
# Si number density = 19.587334 Si / 1000 Ang^3
#
#
#
# Elastic Constant Matrix: (Units=GPa)
#
#
# Indices 1 2 3 4 5 6 
#
# 1 60.2897 33.8681 44.1840 0.0000 -8.4858 0.0000
# 2 33.8681 84.5759 55.3702 0.0000 17.4669 0.0000
# 3 44.1840 55.3702 116.6476 0.0000 -4.7747 0.0000
# 4 0.0000 0.0000 0.0000 1.1701 0.0000 22.7193
# 5 -8.4858 17.4669 -4.7747 0.0000 39.7391 0.0000
# 6 0.0000 0.0000 0.0000 22.7193 0.0000 -12.1053
#
#
#
# Elastic Compliance Matrix: (Units=1/GPa)
#
#
# Indices 1 2 3 4 5 6 
#
# 1 0.027034 -0.009055 -0.005570 0.000000 0.009084 0.000000
# 2 -0.009055 0.023675 -0.008354 0.000000 -0.013343 0.000000
# 3 -0.005570 -0.008354 0.014823 0.000000 0.004264 0.000000
# 4 0.000000 0.000000 0.000000 0.022826 0.000000 0.042840
# 5 0.009084 -0.013343 0.004264 0.000000 0.033481 0.000000
# 6 0.000000 0.000000 0.000000 0.042840 0.000000 -0.002206
#
#
# Mechanical properties :
#
#
# Convention : Reuss Voigt Hill
#
# Bulk Modulus (GPa) = 51.09080 58.70643 54.89861
# Shear Modulus (GPa) = 29.05042 14.30017 21.67529
#
# Velocity S-wave (km/s) = 3.85531 2.70492 3.33016
# Velocity P-wave (km/s) = 6.77924 6.30810 6.54791
#
# Compressibility (1/GPa) = 0.01957300
#
# Stress axis : x y z
#
# Youngs Moduli (GPa) = 36.99082 42.23889 67.46422
#
# Poissons Ratio (x) = 0.38248 0.37576
# Poissons Ratio (y) = 0.33496 0.56361
# Poissons Ratio (z) = 0.20603 0.35287
#
# Static dielectric constant tensor:
#      x y z
#    x 1.757290 0.000000 -0.005570 
#    y 0.000000 1.698440 0.000000 
#    z -0.005570 0.000000 1.691190 
# 
# From -- ./inp_files/35761.got.cif
#   From: 2010.05.17/outbox.cif.g08.bks.cpg/sg15_18_cif.got.tgz:35761.got - 2010.06.03 18:47:42.
