data_PCOD9262495
_publ_section_title
;
Structure prediction by ZEFSAII (Michael W. Deem and Ramdas Pophale) SiO2 
 PCOD9262495
Probable space group: C 2/C
;
_chemical_formula_sum "Si O2"
_cell_formula_units_Z 48
_cell_length_a 11.275696
_cell_length_b 22.667285
_cell_length_c 16.737854
_cell_angle_alpha 90.000000
_cell_angle_beta 146.332472
_cell_angle_gamma 90.000000
_cell_volume 2371.617134
_symmetry_space_group_name_H-M "C 2/C"
_symmetry_group_IT_number 15
_symmetry_cell_setting 'monoclinic'
loop_
_space_group_symop_operation_xyz
x,y,z
-x,y,1/2-z
-x,-y,-z
x,-y,1/2+z
1/2+x,1/2+y,z
1/2-x,1/2+y,1/2-z
1/2-x,1/2-y,-z
1/2+x,1/2-y,1/2+z
loop_
_atom_site_type_symbol
_atom_site_label
_atom_site_fract_x
_atom_site_fract_y
_atom_site_fract_z
Si Si1 0.500000 0.570801 0.250000
Si Si2 0.000000 0.775123 0.250000
Si Si3 0.360284 0.948152 0.323692
Si Si4 0.938276 0.087664 0.505769
Si Si5 0.217851 0.036039 0.526386
Si Si6 0.113022 0.417119 0.621038
Si Si7 0.657154 0.173105 0.444690
O O1 0.623656 0.531472 0.383845
O O2 0.675259 0.608094 0.301545
O O3 0.201642 0.814167 0.395191
O O4 0.021101 0.729008 0.336667
O O5 0.544399 0.940754 0.359666
O O6 0.446316 0.926220 0.456173
O O7 0.139732 0.918164 0.178204
O O8 0.331269 0.018331 0.315266
O O9 0.810321 0.145744 0.461251
O O10 0.061170 0.078450 0.490073
O O11 0.796739 0.028383 0.441383
O O12 0.012010 0.377248 0.630726
#
# Coordination Sequence:
#
# PCOD9262495 Si02
#       7
#     4   4   8   8   8   8   8
#     4  10  20  35  50  84 126 156 195 218 276 380
#     4  10  26  43  62  90 112 148 229 270 302 344
#     4  10  19  33  52  89 127 164 191 220 278 399
#     4  11  21  33  58  84 125 158 192 236 302 352
#     4  10  21  32  49  90 125 161 185 224 277 390
#     4  10  20  33  60  83 124 162 194 235 298 362
#     4  11  23  42  64  90 115 163 203 269 309 337
#
# _framework density 20.239353999999999
#
# number of rings (size 3 to 8) (size 9 to 14) (size 15 to 20)
#    0.000    1.667    3.333    1.500    2.333    0.667 
#    0.000    0.000    0.000    1.000   17.333    0.000 
#    0.000    0.000    0.000    0.000    0.000    0.000 
#
# Total GULP energy -133731.435939 kJ/mol
# GULP energy per Si atom -5572.143164 kJ/mol
# Density = 2.019329 g / cm^3
# Si number density = 20.239354 Si / 1000 Ang^3
#
#
#
# Elastic Constant Matrix: (Units=GPa)
#
#
# Indices 1 2 3 4 5 6 
#
# 1 88.7041 19.7184 12.7132 0.0018 17.3179 0.0013
# 2 19.7184 48.3155 2.2499 0.0006 12.2903 0.0000
# 3 12.7132 2.2499 80.5633 0.0101 -15.1140 0.0077
# 4 0.0018 0.0006 0.0101 19.5637 0.0016 -7.8896
# 5 17.3179 12.2903 -15.1140 0.0016 41.5589 0.0016
# 6 0.0013 0.0000 0.0077 -7.8896 0.0016 6.8563
#
#
#
# Elastic Compliance Matrix: (Units=1/GPa)
#
#
# Indices 1 2 3 4 5 6 
#
# 1 0.013717 -0.004013 -0.003115 0.000003 -0.005662 0.000006
# 2 -0.004013 0.023860 -0.001120 0.000004 -0.005791 0.000008
# 3 -0.003115 -0.001120 0.014211 -0.000027 0.006797 -0.000048
# 4 0.000003 0.000004 -0.000027 0.095373 -0.000020 0.109746
# 5 -0.005662 -0.005791 0.006797 -0.000020 0.030606 -0.000037
# 6 0.000006 0.000008 -0.000048 0.109746 -0.000037 0.272137
#
#
# Mechanical properties :
#
#
# Convention : Reuss Voigt Hill
#
# Bulk Modulus (GPa) = 28.33371 31.88287 30.10829
# Shear Modulus (GPa) = 10.45668 25.78922 18.12295
#
# Velocity S-wave (km/s) = 2.27546 3.57348 2.99562
# Velocity P-wave (km/s) = 4.57530 5.72831 5.18396
#
# Compressibility (1/GPa) = 0.03529365
#
# Stress axis : x y z
#
# Youngs Moduli (GPa) = 72.90041 41.91059 70.37007
#
# Poissons Ratio (x) = 0.16818 0.21919
# Poissons Ratio (y) = 0.29254 0.07878
# Poissons Ratio (z) = 0.22707 0.04692
#
# Static dielectric constant tensor:
#      x y z
#    x 1.766270 0.000000 -0.004370 
#    y 0.000000 1.688300 0.000000 
#    z -0.004370 0.000000 1.834780 
# 
# From -- ./inp_files/201005.got.cif
#   From: 2010.05.17/outbox.cif.g08.bks.cpg/sg15_101_cif.got.tgz:201005.got - 2010.06.03 18:47:42.
