data_PCOD9262058
_publ_section_title
;
Structure prediction by ZEFSAII (Michael W. Deem and Ramdas Pophale) SiO2 
 PCOD9262058
Probable space group: C 2/C
;
_chemical_formula_sum "Si O2"
_cell_formula_units_Z 60
_cell_length_a 25.344685
_cell_length_b 24.663426
_cell_length_c 16.189396
_cell_angle_alpha 90.000000
_cell_angle_beta 18.669524
_cell_angle_gamma 90.000000
_cell_volume 3239.432934
_symmetry_space_group_name_H-M "C 2/C"
_symmetry_group_IT_number 15
_symmetry_cell_setting 'monoclinic'
loop_
_space_group_symop_operation_xyz
x,y,z
-x,y,1/2-z
-x,-y,-z
x,-y,1/2+z
1/2+x,1/2+y,z
1/2-x,1/2+y,1/2-z
1/2-x,1/2-y,-z
1/2+x,1/2-y,1/2+z
loop_
_atom_site_type_symbol
_atom_site_label
_atom_site_fract_x
_atom_site_fract_y
_atom_site_fract_z
Si Si1 0.269128 0.399923 0.106911
Si Si2 0.858733 0.888572 0.715023
Si Si3 0.084759 0.917763 0.043478
Si Si4 0.495446 0.539450 0.374476
Si Si5 0.000000 0.564100 0.750000
Si Si6 0.963519 0.548759 0.991147
Si Si7 0.391590 0.272263 0.727728
Si Si8 0.652928 0.724457 0.963898
O O1 0.086732 0.404245 0.340738
O O2 0.379138 0.427869 0.871681
O O3 0.314896 0.438118 0.117133
O O4 0.319002 0.339525 0.059548
O O5 0.920677 0.881609 0.530150
O O6 0.889079 0.837131 0.727066
O O7 0.949742 0.940949 0.617508
O O8 0.664782 0.900349 0.002071
O O9 0.000000 0.894361 0.250000
O O10 0.998820 0.975969 0.151565
O O11 0.275664 0.932353 0.775774
O O12 0.998532 0.535096 0.661989
O O13 0.000000 0.500000 0.000000
O O14 0.573781 0.260029 0.492818
O O15 0.250000 0.250000 0.000000
O O16 0.321391 0.252172 0.744013
O O17 0.500000 0.740931 0.250000
#
# Coordination Sequence:
#
# PCOD9262058 Si02
#       8
#     8   8   8   8   4   8   8   8
#     4  11  18  32  59  78 117 156 194 232 299 353
#     4  11  22  36  55  84 118 155 193 246 297 356
#     4  11  23  37  55  81 114 163 206 240 291 353
#     4  11  17  34  56  77 113 158 196 232 285 361
#     4  10  24  32  52  84 116 144 194 248 296 342
#     4  11  21  36  54  80 116 153 200 248 295 347
#     4  10  21  32  53  84 120 147 188 233 303 367
#     4  10  19  32  52  83 117 158 181 230 302 372
#
# _framework density 18.52176
#
# number of rings (size 3 to 8) (size 9 to 14) (size 15 to 20)
#    0.000    1.333    6.667    1.200    2.800    1.067 
#    0.000    0.000    0.000    0.000    0.000    3.733 
#    0.000    0.000    0.000    0.000    0.000    0.000 
#
# Total GULP energy -167075.253956 kJ/mol
# GULP energy per Si atom -5569.175132 kJ/mol
# Density = 1.847960 g / cm^3
# Si number density = 18.521760 Si / 1000 Ang^3
#
#
#
# Elastic Constant Matrix: (Units=GPa)
#
#
# Indices 1 2 3 4 5 6 
#
# 1 115.4204 8.2895 41.8332 -0.0067 -13.9408 -0.0081
# 2 8.2895 36.5809 7.0774 -0.0239 -7.9390 -0.0062
# 3 41.8332 7.0774 62.3834 -0.0310 3.7188 -0.0054
# 4 -0.0067 -0.0239 -0.0310 13.8853 0.0077 -5.0120
# 5 -13.9408 -7.9390 3.7188 0.0077 38.1887 0.0025
# 6 -0.0081 -0.0062 -0.0054 -5.0120 0.0025 28.5635
#
#
#
# Elastic Compliance Matrix: (Units=1/GPa)
#
#
# Indices 1 2 3 4 5 6 
#
# 1 0.012460 0.000028 -0.008681 -0.000017 0.005400 -0.000002
# 2 0.000028 0.029467 -0.003749 0.000043 0.006501 0.000013
# 3 -0.008681 -0.003749 0.022643 0.000047 -0.006153 0.000010
# 4 -0.000017 0.000043 0.000047 0.076888 -0.000018 0.013491
# 5 0.005400 0.006501 -0.006153 -0.000018 0.030108 -0.000004
# 6 -0.000002 0.000013 0.000010 0.013491 -0.000004 0.037377
#
#
# Mechanical properties :
#
#
# Convention : Reuss Voigt Hill
#
# Bulk Modulus (GPa) = 25.14710 36.53166 30.83938
# Shear Modulus (GPa) = 20.24266 26.60650 23.42458
#
# Velocity S-wave (km/s) = 3.30951 3.79423 3.56013
# Velocity P-wave (km/s) = 5.31134 6.24190 5.79533
#
# Compressibility (1/GPa) = 0.03976601
#
# Stress axis : x y z
#
# Youngs Moduli (GPa) = 80.25375 33.93669 44.16320
#
# Poissons Ratio (x) = -0.00094 0.38337
# Poissons Ratio (y) = -0.00223 0.16557
# Poissons Ratio (z) = 0.69667 0.12723
#
# Static dielectric constant tensor:
#      x y z
#    x 1.774650 0.000000 -0.025730 
#    y 0.000000 1.663100 0.000000 
#    z -0.025730 0.000000 1.640530 
# 
# From -- ./inp_files/174906.got.cif
#   From: 2010.05.17/outbox.cif.g08.bks.cpg/sg15_88_cif.got.tgz:174906.got - 2010.06.03 18:47:42.
