data_PCOD9262804
_publ_section_title
;
Structure prediction by ZEFSAII (Michael W. Deem and Ramdas Pophale) SiO2 
 PCOD9262804
Probable space group: C 2/C
;
_chemical_formula_sum "Si O2"
_cell_formula_units_Z 32
_cell_length_a 11.366104
_cell_length_b 8.010827
_cell_length_c 24.951642
_cell_angle_alpha 90.000000
_cell_angle_beta 146.504240
_cell_angle_gamma 90.000000
_cell_volume 1253.802254
_symmetry_space_group_name_H-M "C 2/C"
_symmetry_group_IT_number 15
_symmetry_cell_setting 'monoclinic'
loop_
_space_group_symop_operation_xyz
x,y,z
-x,y,1/2-z
-x,-y,-z
x,-y,1/2+z
1/2+x,1/2+y,z
1/2-x,1/2+y,1/2-z
1/2-x,1/2-y,-z
1/2+x,1/2-y,1/2+z
loop_
_atom_site_type_symbol
_atom_site_label
_atom_site_fract_x
_atom_site_fract_y
_atom_site_fract_z
Si Si1 0.774192 0.040813 0.545671
Si Si2 0.912214 0.570115 0.635271
Si Si3 0.863734 0.300895 0.910555
Si Si4 0.306766 0.603060 0.267535
O O1 0.728465 0.972481 0.469505
O O2 0.683228 0.906221 0.553880
O O3 0.024570 0.041722 0.652669
O O4 0.616261 0.197222 0.495716
O O5 0.759244 0.629361 0.624842
O O6 0.082537 0.425290 0.711539
O O7 0.064937 0.725391 0.675497
O O8 0.754771 0.392940 0.818828
#
# Coordination Sequence:
#
# PCOD9262804 Si02
#       4
#     8   8   8   8
#     4   9  17  31  55  82 108 147 189 227 277 337
#     4  10  19  33  56  83 111 148 188 232 282 334
#     4   9  17  31  54  80 109 143 183 229 277 329
#     4  10  19  33  57  81 111 150 186 230 283 333
#
# _framework density 25.522366000000002
#
# number of rings (size 3 to 8) (size 9 to 14) (size 15 to 20)
#    0.000    2.500    0.000    6.000    0.000    0.000 
#    0.000    5.000    0.000   61.500    0.000    0.000 
#    0.000    0.000    0.000    0.000    0.000    0.000 
#
# Total GULP energy -89502.692004 kJ/mol
# GULP energy per Si atom -5593.918250 kJ/mol
# Density = 2.546428 g / cm^3
# Si number density = 25.522366 Si / 1000 Ang^3
#
#
#
# Elastic Constant Matrix: (Units=GPa)
#
#
# Indices 1 2 3 4 5 6 
#
# 1 116.3463 25.8874 71.0752 0.0000 13.4990 0.0000
# 2 25.8874 82.8328 35.9889 0.0000 -0.3159 0.0000
# 3 71.0752 35.9889 169.7122 0.0000 0.8643 0.0000
# 4 0.0000 0.0000 0.0000 29.7809 0.0000 15.5222
# 5 13.4990 -0.3159 0.8643 0.0000 37.2305 0.0000
# 6 0.0000 0.0000 0.0000 15.5222 0.0000 40.8048
#
#
#
# Elastic Compliance Matrix: (Units=1/GPa)
#
#
# Indices 1 2 3 4 5 6 
#
# 1 0.012448 -0.001820 -0.004805 0.000000 -0.004417 0.000000
# 2 -0.001820 0.013565 -0.002119 0.000000 0.000824 0.000000
# 3 -0.004805 -0.002119 0.008346 0.000000 0.001530 0.000000
# 4 0.000000 0.000000 0.000000 0.041883 0.000000 -0.015932
# 5 -0.004417 0.000824 0.001530 0.000000 0.028433 0.000000
# 6 0.000000 0.000000 0.000000 -0.015932 0.000000 0.030568
#
#
# Mechanical properties :
#
#
# Convention : Reuss Voigt Hill
#
# Bulk Modulus (GPa) = 59.26781 70.53269 64.90025
# Shear Modulus (GPa) = 31.57538 37.29256 34.43397
#
# Velocity S-wave (km/s) = 3.52115 3.82667 3.67709
# Velocity P-wave (km/s) = 6.30901 6.87170 6.59636
#
# Compressibility (1/GPa) = 0.01687257
#
# Stress axis : x y z
#
# Youngs Moduli (GPa) = 80.33741 73.72006 119.81771
#
# Poissons Ratio (x) = 0.13413 0.57568
# Poissons Ratio (y) = 0.14617 0.25386
# Poissons Ratio (z) = 0.38599 0.15619
#
# Static dielectric constant tensor:
#      x y z
#    x 1.944310 0.000000 0.058510 
#    y 0.000000 2.119510 0.000000 
#    z 0.058510 0.000000 2.001780 
# 
# From -- ./inp_files/149843.got.cif
#   From: 2010.05.17/outbox.cif.g08.bks.cpg/sg15_75_cif.got.tgz:149843.got - 2010.06.03 18:47:42.
