data_PCOD9262651
_publ_section_title
;
Structure prediction by ZEFSAII (Michael W. Deem and Ramdas Pophale) SiO2 
 PCOD9262651
Probable space group: C 2/C
;
_chemical_formula_sum "Si O2"
_cell_formula_units_Z 64
_cell_length_a 17.024910
_cell_length_b 31.958865
_cell_length_c 5.106482
_cell_angle_alpha 90.000000
_cell_angle_beta 119.636233
_cell_angle_gamma 90.000000
_cell_volume 2414.954197
_symmetry_space_group_name_H-M "C 2/C"
_symmetry_group_IT_number 15
_symmetry_cell_setting 'monoclinic'
loop_
_space_group_symop_operation_xyz
x,y,z
-x,y,1/2-z
-x,-y,-z
x,-y,1/2+z
1/2+x,1/2+y,z
1/2-x,1/2+y,1/2-z
1/2-x,1/2-y,-z
1/2+x,1/2-y,1/2+z
loop_
_atom_site_type_symbol
_atom_site_label
_atom_site_fract_x
_atom_site_fract_y
_atom_site_fract_z
Si Si1 0.094759 0.889985 0.746453
Si Si2 0.175798 0.025082 0.579310
Si Si3 0.639995 0.885081 0.229167
Si Si4 0.105189 0.525236 0.572028
Si Si5 0.720174 0.209379 0.293555
Si Si6 0.772157 0.122647 0.444621
Si Si7 0.941874 0.800800 0.906571
Si Si8 0.619565 0.794289 0.105307
O O1 0.141594 0.928918 0.963544
O O2 0.133157 0.896854 0.507295
O O3 0.117071 0.840229 0.798054
O O4 0.000000 0.890093 0.750000
O O5 0.284614 0.025475 0.746711
O O6 0.145078 0.006509 0.802829
O O7 0.581947 0.927242 0.108822
O O8 0.701087 0.886649 0.592167
O O9 0.586549 0.840856 0.135190
O O10 0.712169 0.885259 0.105186
O O11 0.080240 0.509811 0.243334
O O12 0.750000 0.250000 0.500000
O O13 0.787901 0.172573 0.480605
O O14 0.630370 0.198963 0.310724
O O15 0.701449 0.209417 0.955821
O O16 0.911079 0.754020 0.931338
O O17 0.000000 0.790683 0.750000
O O18 0.000000 0.817239 0.250000
#
# Coordination Sequence:
#
# PCOD9262651 Si02
#       8
#     8   8   8   8   8   8   8   8
#     4  11  25  41  59  79 108 150 199 249 294 338
#     4  10  23  39  58  77 104 145 191 243 299 345
#     4  10  20  36  58  86 112 145 182 235 283 346
#     4  10  19  33  56  82 114 148 181 225 290 351
#     4  10  19  33  54  84 112 143 180 233 290 342
#     4  10  21  34  54  78 109 141 184 236 291 342
#     4  11  25  43  61  84 116 156 196 240 292 343
#     4  10  21  37  59  84 116 148 188 233 281 352
#
# _framework density 26.501536000000002
#
# number of rings (size 3 to 8) (size 9 to 14) (size 15 to 20)
#    0.000    1.750    1.250    2.625    3.500    6.500 
#    0.000    0.000    0.000    0.000    0.000    0.000 
#    0.000    3.000    0.000    0.000    0.000    0.000 
#
# Total GULP energy -178238.684841 kJ/mol
# GULP energy per Si atom -5569.958901 kJ/mol
# Density = 2.644122 g / cm^3
# Si number density = 26.501536 Si / 1000 Ang^3
#
#
#
# Elastic Constant Matrix: (Units=GPa)
#
#
# Indices 1 2 3 4 5 6 
#
# 1 71.9991 18.2439 31.1851 0.0000 -22.0020 0.0000
# 2 18.2439 210.3424 52.2758 0.0000 20.6989 0.0000
# 3 31.1851 52.2758 143.2157 0.0000 -20.2811 0.0000
# 4 0.0000 0.0000 0.0000 39.3663 0.0000 -8.7716
# 5 -22.0020 20.6989 -20.2811 0.0000 29.9245 0.0000
# 6 0.0000 0.0000 0.0000 -8.7716 0.0000 43.8562
#
#
#
# Elastic Compliance Matrix: (Units=1/GPa)
#
#
# Indices 1 2 3 4 5 6 
#
# 1 0.020048 -0.003108 -0.000928 0.000000 0.016261 0.000000
# 2 -0.003108 0.006652 -0.003016 0.000000 -0.008931 0.000000
# 3 -0.000928 -0.003016 0.009385 0.000000 0.007764 0.000000
# 4 0.000000 0.000000 0.000000 0.026587 0.000000 0.005318
# 5 0.016261 -0.008931 0.007764 0.000000 0.056813 0.000000
# 6 0.000000 0.000000 0.000000 0.005318 0.000000 0.023865
#
#
# Mechanical properties :
#
#
# Convention : Reuss Voigt Hill
#
# Bulk Modulus (GPa) = 45.49538 69.88520 57.69029
# Shear Modulus (GPa) = 30.34299 44.21957 37.28128
#
# Velocity S-wave (km/s) = 3.38738 4.08924 3.75475
# Velocity P-wave (km/s) = 5.70118 6.98021 6.37287
#
# Compressibility (1/GPa) = 0.02198025
#
# Stress axis : x y z
#
# Youngs Moduli (GPa) = 49.88043 150.32706 106.55344
#
# Poissons Ratio (x) = 0.46728 0.09888
# Poissons Ratio (y) = 0.15505 0.32136
# Poissons Ratio (z) = 0.04629 0.45339
#
# Static dielectric constant tensor:
#      x y z
#    x 2.291690 0.000000 0.025880 
#    y 0.000000 2.099510 0.000000 
#    z 0.025880 0.000000 2.105310 
# 
# From -- ./inp_files/14666.got.cif
#   From: 2010.05.17/outbox.cif.g08.bks.cpg/sg15_8_cif.got.tgz:14666.got - 2010.06.03 18:47:42.
