data_PCOD9262075
_publ_section_title
;
Structure prediction by ZEFSAII (Michael W. Deem and Ramdas Pophale) SiO2 
 PCOD9262075
Probable space group: C 2/C
;
_chemical_formula_sum "Si O2"
_cell_formula_units_Z 48
_cell_length_a 20.772955
_cell_length_b 19.238060
_cell_length_c 16.600670
_cell_angle_alpha 90.000000
_cell_angle_beta 157.274795
_cell_angle_gamma 90.000000
_cell_volume 2562.850006
_symmetry_space_group_name_H-M "C 2/C"
_symmetry_group_IT_number 15
_symmetry_cell_setting 'monoclinic'
loop_
_space_group_symop_operation_xyz
x,y,z
-x,y,1/2-z
-x,-y,-z
x,-y,1/2+z
1/2+x,1/2+y,z
1/2-x,1/2+y,1/2-z
1/2-x,1/2-y,-z
1/2+x,1/2-y,1/2+z
loop_
_atom_site_type_symbol
_atom_site_label
_atom_site_fract_x
_atom_site_fract_y
_atom_site_fract_z
Si Si1 0.553022 0.200084 0.718232
Si Si2 0.250416 0.793220 0.583670
Si Si3 0.312102 0.417148 0.567130
Si Si4 0.187540 0.166428 0.276017
Si Si5 0.811306 0.074790 0.567984
Si Si6 0.453759 0.326664 0.356704
O O1 0.500000 0.218209 0.750000
O O2 0.381241 0.176852 0.478439
O O3 0.627805 0.265203 0.756792
O O4 0.687567 0.137925 0.881249
O O5 0.250000 0.750000 0.500000
O O6 0.296336 0.871216 0.609711
O O7 0.354523 0.743716 0.762323
O O8 0.074508 0.802799 0.423574
O O9 0.500000 0.411986 0.750000
O O10 0.321160 0.395568 0.670523
O O11 0.248870 0.496405 0.491346
O O12 0.069018 0.152918 0.063856
O O13 0.000000 0.070922 0.750000
O O14 0.838904 0.112160 0.686788
#
# Coordination Sequence:
#
# PCOD9262075 Si02
#       6
#     8   8   8   8   8   8
#     4  10  20  34  51  74 101 133 171 206 245 299
#     4   9  17  33  53  75 100 132 171 203 241 296
#     4  10  19  34  54  72  97 137 175 203 242 300
#     4  11  20  32  52  77 105 129 162 212 256 296
#     4   8  17  33  53  73  99 135 169 202 245 300
#     4  10  19  32  53  79 104 130 162 209 258 295
#
# _framework density 18.729150000000001
#
# number of rings (size 3 to 8) (size 9 to 14) (size 15 to 20)
#    0.000    2.333    0.000    6.000    0.000    0.667 
#    0.000   10.000    0.000   18.000    0.000    0.000 
#    0.000    1.333    0.000    0.000    0.000    0.000 
#
# Total GULP energy -133664.148398 kJ/mol
# GULP energy per Si atom -5569.339517 kJ/mol
# Density = 1.868652 g / cm^3
# Si number density = 18.729150 Si / 1000 Ang^3
#
#
#
# Elastic Constant Matrix: (Units=GPa)
#
#
# Indices 1 2 3 4 5 6 
#
# 1 27.3772 16.0171 -4.0525 0.0000 6.9432 0.0000
# 2 16.0171 102.4508 0.6680 0.0000 8.3155 0.0000
# 3 -4.0525 0.6680 47.6104 0.0000 0.2642 0.0000
# 4 0.0000 0.0000 0.0000 18.9232 0.0000 4.8585
# 5 6.9432 8.3155 0.2642 0.0000 22.7432 0.0000
# 6 0.0000 0.0000 0.0000 4.8585 0.0000 14.4338
#
#
#
# Elastic Compliance Matrix: (Units=1/GPa)
#
#
# Indices 1 2 3 4 5 6 
#
# 1 0.043370 -0.005902 0.003836 0.000000 -0.011127 0.000000
# 2 -0.005902 0.010863 -0.000643 0.000000 -0.002163 0.000000
# 3 0.003836 -0.000643 0.021346 0.000000 -0.001184 0.000000
# 4 0.000000 0.000000 0.000000 0.057844 0.000000 -0.019471
# 5 -0.011127 -0.002163 -0.001184 0.000000 0.048170 0.000000
# 6 0.000000 0.000000 0.000000 -0.019471 0.000000 0.075836
#
#
# Mechanical properties :
#
#
# Convention : Reuss Voigt Hill
#
# Bulk Modulus (GPa) = 14.25297 22.52261 18.38779
# Shear Modulus (GPa) = 17.46821 22.20709 19.83765
#
# Velocity S-wave (km/s) = 3.05729 3.44713 3.25804
# Velocity P-wave (km/s) = 4.48210 5.28159 4.89818
#
# Compressibility (1/GPa) = 0.07016082
#
# Stress axis : x y z
#
# Youngs Moduli (GPa) = 23.05763 92.05341 46.84737
#
# Poissons Ratio (x) = 0.54332 -0.17971
# Poissons Ratio (y) = 0.13609 0.03011
# Poissons Ratio (z) = -0.08845 0.05917
#
# Static dielectric constant tensor:
#      x y z
#    x 1.647630 0.000000 0.044040 
#    y 0.000000 1.674540 0.000000 
#    z 0.044040 0.000000 1.650970 
# 
# From -- ./inp_files/48036.got.cif
#   From: 2010.05.17/outbox.cif.g08.bks.cpg/sg15_25_cif.got.tgz:48036.got - 2010.06.03 18:47:42.
