data_PCOD9262206
_publ_section_title
;
Structure prediction by ZEFSAII (Michael W. Deem and Ramdas Pophale) SiO2 
 PCOD9262206
Probable space group: C 2/C
;
_chemical_formula_sum "Si O2"
_cell_formula_units_Z 48
_cell_length_a 19.440134
_cell_length_b 21.203607
_cell_length_c 5.219012
_cell_angle_alpha 90.000000
_cell_angle_beta 70.104078
_cell_angle_gamma 90.000000
_cell_volume 2022.876813
_symmetry_space_group_name_H-M "C 2/C"
_symmetry_group_IT_number 15
_symmetry_cell_setting 'monoclinic'
loop_
_space_group_symop_operation_xyz
x,y,z
-x,y,1/2-z
-x,-y,-z
x,-y,1/2+z
1/2+x,1/2+y,z
1/2-x,1/2+y,1/2-z
1/2-x,1/2-y,-z
1/2+x,1/2-y,1/2+z
loop_
_atom_site_type_symbol
_atom_site_label
_atom_site_fract_x
_atom_site_fract_y
_atom_site_fract_z
Si Si1 0.153062 0.817284 0.517771
Si Si2 0.063048 0.279195 0.856051
Si Si3 0.068770 0.578443 0.316914
Si Si4 0.327291 0.460133 0.932584
Si Si5 0.659849 0.918321 0.187206
Si Si6 0.303041 0.210299 0.686686
O O1 0.084117 0.773963 0.533358
O O2 0.138813 0.890089 0.588007
O O3 0.220812 0.811914 0.228826
O O4 0.190687 0.779549 0.702613
O O5 0.040161 0.351388 0.938857
O O6 0.138793 0.290435 0.611307
O O7 0.000000 0.253733 0.750000
O O8 0.106007 0.556430 0.534410
O O9 0.000000 0.549615 0.250000
O O10 0.130065 0.577867 0.015187
O O11 0.346483 0.504144 0.147951
O O12 0.239357 0.448547 0.054591
O O13 0.669415 0.842525 0.144168
#
# Coordination Sequence:
#
# PCOD9262206 Si02
#       6
#     8   8   8   8   8   8
#     4  10  20  36  59  84 120 153 194 249 298 356
#     4  10  20  32  54  90 128 157 186 232 299 374
#     4  10  19  32  55  88 123 154 184 225 294 368
#     4  11  25  41  61  84 110 153 204 254 297 341
#     4  10  19  36  57  82 119 151 191 243 293 352
#     4   9  19  33  57  89 117 153 190 241 310 357
#
# _framework density 23.728581999999999
#
# number of rings (size 3 to 8) (size 9 to 14) (size 15 to 20)
#    0.000    2.000    1.667    2.000    2.333    0.667 
#    0.000    0.000    0.000   11.000    0.000    0.000 
#    0.000    0.000    0.000    0.000    0.000    0.000 
#
# Total GULP energy -133998.288246 kJ/mol
# GULP energy per Si atom -5583.262010 kJ/mol
# Density = 2.367457 g / cm^3
# Si number density = 23.728582 Si / 1000 Ang^3
#
#
#
# Elastic Constant Matrix: (Units=GPa)
#
#
# Indices 1 2 3 4 5 6 
#
# 1 55.7973 33.0020 13.5747 0.0000 28.0361 0.0000
# 2 33.0020 174.1776 27.4202 0.0000 30.8662 0.0000
# 3 13.5747 27.4202 95.7691 0.0000 22.8997 0.0000
# 4 0.0000 0.0000 0.0000 260.8651 0.0000 131.8068
# 5 28.0361 30.8662 22.8997 0.0000 36.2580 0.0000
# 6 0.0000 0.0000 0.0000 131.8068 0.0000 96.2412
#
#
#
# Elastic Compliance Matrix: (Units=1/GPa)
#
#
# Indices 1 2 3 4 5 6 
#
# 1 0.030039 -0.001947 0.001716 0.000000 -0.022653 0.000000
# 2 -0.001947 0.006923 -0.000774 0.000000 -0.003899 0.000000
# 3 0.001716 -0.000774 0.012462 0.000000 -0.008539 0.000000
# 4 0.000000 0.000000 0.000000 0.012446 0.000000 -0.017045
# 5 -0.022653 -0.003899 -0.008539 0.000000 0.053809 0.000000
# 6 0.000000 0.000000 0.000000 -0.017045 0.000000 0.033734
#
#
# Mechanical properties :
#
#
# Convention : Reuss Voigt Hill
#
# Bulk Modulus (GPa) = 21.09070 52.63756 36.86413
# Shear Modulus (GPa) = 29.89958 95.45601 62.67779
#
# Velocity S-wave (km/s) = 3.55359 6.34946 5.14508
# Velocity P-wave (km/s) = 5.07395 8.71697 7.13199
#
# Compressibility (1/GPa) = 0.04741426
#
# Stress axis : x y z
#
# Youngs Moduli (GPa) = 33.29037 144.44602 80.24487
#
# Poissons Ratio (x) = 0.28128 -0.13774
# Poissons Ratio (y) = 0.06483 0.06210
# Poissons Ratio (z) = -0.05714 0.11178
#
# Static dielectric constant tensor:
#      x y z
#    x 1.948490 0.000000 -0.027540 
#    y 0.000000 2.015660 0.000000 
#    z -0.027540 0.000000 2.056600 
# 
# From -- ./inp_files/13176.got.cif
#   From: 2010.05.17/outbox.cif.g08.bks.cpg/sg15_7_cif.got.tgz:13176.got - 2010.06.03 18:47:42.
