data_PCOD9262971
_publ_section_title
;
Structure prediction by ZEFSAII (Michael W. Deem and Ramdas Pophale) SiO2 
 PCOD9262971
Probable space group: C 2/C
;
_chemical_formula_sum "Si O2"
_cell_formula_units_Z 64
_cell_length_a 14.942428
_cell_length_b 15.148968
_cell_length_c 15.331542
_cell_angle_alpha 90.000000
_cell_angle_beta 62.473219
_cell_angle_gamma 90.000000
_cell_volume 3077.607612
_symmetry_space_group_name_H-M "C 2/C"
_symmetry_group_IT_number 15
_symmetry_cell_setting 'monoclinic'
loop_
_space_group_symop_operation_xyz
x,y,z
-x,y,1/2-z
-x,-y,-z
x,-y,1/2+z
1/2+x,1/2+y,z
1/2-x,1/2+y,1/2-z
1/2-x,1/2-y,-z
1/2+x,1/2-y,1/2+z
loop_
_atom_site_type_symbol
_atom_site_label
_atom_site_fract_x
_atom_site_fract_y
_atom_site_fract_z
Si Si1 0.314866 0.883469 0.243464
Si Si2 0.162895 0.169818 0.095667
Si Si3 0.482189 0.010856 0.152054
Si Si4 0.984823 0.072608 0.119551
Si Si5 0.078083 0.888351 0.388049
Si Si6 0.208644 0.191895 0.274489
Si Si7 0.557711 0.199603 0.314817
Si Si8 0.360323 0.865689 0.421176
O O1 0.197645 0.897104 0.316857
O O2 0.325254 0.791850 0.186577
O O3 0.367720 0.868414 0.313309
O O4 0.373449 0.967655 0.180614
O O5 0.211768 0.190783 0.167219
O O6 0.130143 0.261273 0.062746
O O7 0.062852 0.114669 0.151402
O O8 0.246858 0.117392 0.003719
O O9 0.500000 0.018462 0.250000
O O10 0.486401 0.111768 0.119641
O O11 0.562989 0.939698 0.080938
O O12 0.876390 0.121079 0.162549
O O13 0.971953 0.969089 0.141395
O O14 0.042308 0.092001 0.002176
O O15 0.050300 0.789569 0.372444
O O16 0.322956 0.179188 0.255284
O O17 0.500000 0.213478 0.250000
#
# Coordination Sequence:
#
# PCOD9262971 Si02
#       8
#     8   8   8   8   8   8   8   8
#     4   9  16  34  55  86 112 143 189 235 282 344
#     4  10  19  33  58  89 119 145 178 246 302 337
#     4   9  17  31  57  80 109 152 194 228 278 345
#     4  11  21  37  60  89 115 151 190 239 287 353
#     4  10  22  37  59  81 115 156 196 231 286 341
#     4  10  21  35  60  87 113 145 193 235 297 343
#     4  10  22  41  58  79 113 162 196 237 277 337
#     4   9  17  30  55  87 115 145 183 233 294 347
#
# _framework density 20.795372
#
# number of rings (size 3 to 8) (size 9 to 14) (size 15 to 20)
#    0.000    2.250    1.250    1.875    1.750    3.000 
#    0.000    1.250    5.500    0.000    0.000    0.000 
#    0.000    0.000    0.000    0.000    0.000    0.000 
#
# Total GULP energy -178405.250565 kJ/mol
# GULP energy per Si atom -5575.164080 kJ/mol
# Density = 2.074804 g / cm^3
# Si number density = 20.795372 Si / 1000 Ang^3
#
#
#
# Elastic Constant Matrix: (Units=GPa)
#
#
# Indices 1 2 3 4 5 6 
#
# 1 95.4047 49.2465 11.8929 0.0000 -15.6999 0.0000
# 2 49.2465 150.8606 35.7381 0.0000 -29.3504 0.0000
# 3 11.8929 35.7381 43.4809 0.0000 -20.3916 0.0000
# 4 0.0000 0.0000 0.0000 35.3192 0.0000 52.1389
# 5 -15.6999 -29.3504 -20.3916 0.0000 22.7487 0.0000
# 6 0.0000 0.0000 0.0000 52.1389 0.0000 230.2957
#
#
#
# Elastic Compliance Matrix: (Units=1/GPa)
#
#
# Indices 1 2 3 4 5 6 
#
# 1 0.013112 -0.003570 0.002470 0.000000 0.006657 0.000000
# 2 -0.003570 0.010107 -0.004090 0.000000 0.006910 0.000000
# 3 0.002470 -0.004090 0.041423 0.000000 0.033558 0.000000
# 4 0.000000 0.000000 0.000000 0.042526 0.000000 -0.009628
# 5 0.006657 0.006910 0.033558 0.000000 0.087549 0.000000
# 6 0.000000 0.000000 0.000000 -0.009628 0.000000 0.006522
#
#
# Mechanical properties :
#
#
# Convention : Reuss Voigt Hill
#
# Bulk Modulus (GPa) = 18.42923 53.72235 36.07579
# Shear Modulus (GPa) = 21.76670 70.53064 46.14867
#
# Velocity S-wave (km/s) = 3.23880 5.83011 4.71593
# Velocity P-wave (km/s) = 4.78203 8.43861 6.85849
#
# Compressibility (1/GPa) = 0.05426161
#
# Stress axis : x y z
#
# Youngs Moduli (GPa) = 76.26494 98.93646 24.14112
#
# Poissons Ratio (x) = 0.35323 -0.05963
# Poissons Ratio (y) = 0.27229 0.09875
# Poissons Ratio (z) = -0.18838 0.40469
#
# Static dielectric constant tensor:
#      x y z
#    x 1.767790 0.000000 0.020170 
#    y 0.000000 1.782240 0.000000 
#    z 0.020170 0.000000 1.770580 
# 
# From -- ./inp_files/205414.got.cif
#   From: 2010.05.17/outbox.cif.g08.bks.cpg/sg15_103_cif.got.tgz:205414.got - 2010.06.03 18:47:42.
