data_PCOD9262325
_publ_section_title
;
Structure prediction by ZEFSAII (Michael W. Deem and Ramdas Pophale) SiO2 
 PCOD9262325
Probable space group: C 2/C
;
_chemical_formula_sum "Si O2"
_cell_formula_units_Z 48
_cell_length_a 16.214328
_cell_length_b 11.336857
_cell_length_c 24.243577
_cell_angle_alpha 90.000000
_cell_angle_beta 156.006116
_cell_angle_gamma 90.000000
_cell_volume 1812.163934
_symmetry_space_group_name_H-M "C 2/C"
_symmetry_group_IT_number 15
_symmetry_cell_setting 'monoclinic'
loop_
_space_group_symop_operation_xyz
x,y,z
-x,y,1/2-z
-x,-y,-z
x,-y,1/2+z
1/2+x,1/2+y,z
1/2-x,1/2+y,1/2-z
1/2-x,1/2-y,-z
1/2+x,1/2-y,1/2+z
loop_
_atom_site_type_symbol
_atom_site_label
_atom_site_fract_x
_atom_site_fract_y
_atom_site_fract_z
Si Si1 0.767790 0.461051 0.518509
Si Si2 0.163771 0.057218 0.219824
Si Si3 0.004558 0.760810 0.959108
Si Si4 0.697862 0.043526 0.806969
Si Si5 0.231448 0.710130 0.388258
Si Si6 0.257373 0.460297 0.608849
O O1 0.567383 0.534311 0.405658
O O2 0.727598 0.339572 0.526014
O O3 0.800871 0.442880 0.473281
O O4 0.954558 0.537277 0.656658
O O5 0.278526 0.036700 0.347218
O O6 0.230674 0.968642 0.212643
O O7 0.149391 0.183793 0.180357
O O8 0.170554 0.856458 0.083005
O O9 0.135273 0.654872 0.015158
O O10 0.875099 0.721779 0.933727
O O11 0.741052 0.917867 0.862220
O O12 0.000000 0.755242 0.250000
O O13 0.500000 0.445082 0.750000
#
# Coordination Sequence:
#
# PCOD9262325 Si02
#       6
#     8   8   8   8   8   8
#     4  10  19  35  54  83 113 145 191 237 290 342
#     4  10  20  38  52  79 120 149 193 237 285 348
#     4  11  20  34  56  84 114 152 195 237 286 342
#     4  10  19  32  61  81 105 154 197 238 279 341
#     4   9  17  34  59  84 106 146 205 242 270 336
#     4  10  25  34  53  86 126 152 175 242 310 341
#
# _framework density 26.487672
#
# number of rings (size 3 to 8) (size 9 to 14) (size 15 to 20)
#    0.000    2.000    3.333    1.000    4.667    2.000 
#    0.000    0.000    0.000   11.000    0.000    0.000 
#    0.000    0.000    0.000    0.000    0.000    0.000 
#
# Total GULP energy -134174.737884 kJ/mol
# GULP energy per Si atom -5590.614079 kJ/mol
# Density = 2.642738 g / cm^3
# Si number density = 26.487672 Si / 1000 Ang^3
#
#
#
# Elastic Constant Matrix: (Units=GPa)
#
#
# Indices 1 2 3 4 5 6 
#
# 1 178.5078 32.4758 34.9800 -0.0053 -28.1064 -0.0052
# 2 32.4758 54.1740 15.6219 -0.0227 -17.2762 -0.0033
# 3 34.9800 15.6219 79.3804 -0.0195 -12.4044 -0.0030
# 4 -0.0053 -0.0227 -0.0195 25.5638 -0.0120 -3.4968
# 5 -28.1064 -17.2762 -12.4044 -0.0120 54.1570 -0.0031
# 6 -0.0052 -0.0033 -0.0030 -3.4968 -0.0031 25.4867
#
#
#
# Elastic Compliance Matrix: (Units=1/GPa)
#
#
# Indices 1 2 3 4 5 6 
#
# 1 0.006875 -0.002810 -0.002136 -0.000002 0.002183 0.000001
# 2 -0.002810 0.022477 -0.002378 0.000021 0.005167 0.000006
# 3 -0.002136 -0.002378 0.014224 0.000009 0.001391 0.000002
# 4 -0.000002 0.000021 0.000009 0.039866 0.000017 0.005470
# 5 0.002183 0.005167 0.001391 0.000017 0.021565 0.000006
# 6 0.000001 0.000006 0.000002 0.005470 0.000006 0.039987
#
#
# Mechanical properties :
#
#
# Convention : Reuss Voigt Hill
#
# Bulk Modulus (GPa) = 34.56624 53.13530 43.85077
# Shear Modulus (GPa) = 29.53630 36.30712 32.92171
#
# Velocity S-wave (km/s) = 3.34293 3.70634 3.52931
# Velocity P-wave (km/s) = 5.28947 6.19837 5.76187
#
# Compressibility (1/GPa) = 0.02892996
#
# Stress axis : x y z
#
# Youngs Moduli (GPa) = 145.44758 44.49004 70.30371
#
# Poissons Ratio (x) = 0.12500 0.15015
# Poissons Ratio (y) = 0.40866 0.16717
# Poissons Ratio (z) = 0.31063 0.10579
#
# Static dielectric constant tensor:
#      x y z
#    x 2.162840 0.000000 -0.064910 
#    y 0.000000 2.109630 0.000000 
#    z -0.064910 0.000000 2.095250 
# 
# From -- ./inp_files/274367.got.cif
#   From: 2010.05.17/outbox.cif.g08.bks.cpg/sg15_138_cif.got.tgz:274367.got - 2010.06.03 18:47:42.
