data_PCOD9262147
_publ_section_title
;
Structure prediction by ZEFSAII (Michael W. Deem and Ramdas Pophale) SiO2 
 PCOD9262147
Probable space group: C 2/C
;
_chemical_formula_sum "Si O2"
_cell_formula_units_Z 56
_cell_length_a 20.240931
_cell_length_b 9.251278
_cell_length_c 17.869426
_cell_angle_alpha 90.000000
_cell_angle_beta 45.856062
_cell_angle_gamma 90.000000
_cell_volume 2401.157563
_symmetry_space_group_name_H-M "C 2/C"
_symmetry_group_IT_number 15
_symmetry_cell_setting 'monoclinic'
loop_
_space_group_symop_operation_xyz
x,y,z
-x,y,1/2-z
-x,-y,-z
x,-y,1/2+z
1/2+x,1/2+y,z
1/2-x,1/2+y,1/2-z
1/2-x,1/2-y,-z
1/2+x,1/2-y,1/2+z
loop_
_atom_site_type_symbol
_atom_site_label
_atom_site_fract_x
_atom_site_fract_y
_atom_site_fract_z
Si Si1 0.153547 0.739006 0.939860
Si Si2 0.317115 0.423896 0.282545
Si Si3 0.393019 0.273348 0.748518
Si Si4 0.736920 0.019461 0.625686
Si Si5 0.582002 0.374736 0.597931
Si Si6 0.889324 0.285670 0.851859
Si Si7 0.512970 0.386880 0.424703
O O1 0.211060 0.609793 0.861578
O O2 0.207463 0.888609 0.878266
O O3 0.145074 0.729835 0.036344
O O4 0.048239 0.753417 0.002549
O O5 0.343256 0.588745 0.252576
O O6 0.350930 0.350197 0.333928
O O7 0.382747 0.345275 0.171447
O O8 0.329649 0.136148 0.784426
O O9 0.499771 0.265324 0.639043
O O10 0.398864 0.324773 0.831814
O O11 0.818988 0.107566 0.519181
O O12 0.664175 0.928368 0.633535
O O13 0.529908 0.528216 0.615516
O O14 0.000000 0.297353 0.750000
O O15 0.500000 0.500000 0.500000
#
# Coordination Sequence:
#
# PCOD9262147 Si02
#       7
#     8   8   8   8   8   8   8
#     4  10  20  37  57  85 115 146 189 239 285 345
#     4  10  19  35  57  83 112 149 186 236 284 347
#     4  10  19  32  54  82 111 144 179 217 289 354
#     4  10  20  33  50  85 116 145 173 216 286 355
#     4   9  19  32  50  72 110 139 175 221 272 334
#     4  11  20  32  56  88 121 146 180 230 294 349
#     4  10  20  37  56  77 106 155 198 233 279 335
#
# _framework density 23.322084
#
# number of rings (size 3 to 8) (size 9 to 14) (size 15 to 20)
#    0.000    2.000    1.429    4.714    4.000    0.000 
#    0.000    5.714    0.000    0.000    0.000   14.000 
#    0.000    0.000    0.000    0.000    0.000    0.000 
#
# Total GULP energy -156055.577948 kJ/mol
# GULP energy per Si atom -5573.413498 kJ/mol
# Density = 2.326900 g / cm^3
# Si number density = 23.322084 Si / 1000 Ang^3
#
#
#
# Elastic Constant Matrix: (Units=GPa)
#
#
# Indices 1 2 3 4 5 6 
#
# 1 43.4380 19.6663 37.5843 0.0000 25.2471 0.0000
# 2 19.6663 63.8658 32.5206 0.0000 -19.6919 0.0001
# 3 37.5843 32.5206 103.0252 0.0000 -25.8476 0.0000
# 4 0.0000 0.0000 0.0000 39.2033 0.0000 -18.5952
# 5 25.2471 -19.6919 -25.8476 0.0000 23.8637 0.0000
# 6 0.0000 0.0001 0.0000 -18.5952 0.0000 10.9683
#
#
#
# Elastic Compliance Matrix: (Units=1/GPa)
#
#
# Indices 1 2 3 4 5 6 
#
# 1 -0.016631 0.011153 0.012729 0.000000 0.040585 0.000000
# 2 0.011153 0.014284 -0.011783 0.000000 -0.012776 0.000000
# 3 0.012729 -0.011783 0.004070 0.000000 -0.018781 0.000000
# 4 0.000000 0.000000 0.000000 0.130247 0.000000 0.220816
# 5 0.040585 -0.012776 -0.018781 0.000000 -0.031918 0.000000
# 6 0.000000 0.000000 0.000000 0.220816 0.000000 0.465534
#
#
# Mechanical properties :
#
#
# Convention : Reuss Voigt Hill
#
# Bulk Modulus (GPa) = 38.57718 43.31903 40.94811
# Shear Modulus (GPa) = 9.09042 22.84426 15.96734
#
# Velocity S-wave (km/s) = 1.97642 3.13311 2.61941
# Velocity P-wave (km/s) = 4.66747 5.63055 5.17148
#
# Compressibility (1/GPa) = 0.02592206
#
# Stress axis : x y z
#
# Youngs Moduli (GPa) = -60.12929 70.00766 245.68041
#
# Poissons Ratio (x) = -0.78083 -3.12720
# Poissons Ratio (y) = 0.67065 2.89484
# Poissons Ratio (z) = 0.76537 0.82490
#
# Static dielectric constant tensor:
#      x y z
#    x 2.034020 0.000000 0.032940 
#    y 0.000000 1.874090 0.000000 
#    z 0.032940 0.000000 1.934150 
# 
# From -- ./inp_files/281444.got.cif
#   From: 2010.05.17/outbox.cif.g08.bks.cpg/sg15_141_cif.got.tgz:281444.got - 2010.06.03 18:47:42.
