data_PCOD9262099
_publ_section_title
;
Structure prediction by ZEFSAII (Michael W. Deem and Ramdas Pophale) SiO2 
 PCOD9262099
Probable space group: C 2/C
;
_chemical_formula_sum "Si O2"
_cell_formula_units_Z 48
_cell_length_a 30.354834
_cell_length_b 14.156526
_cell_length_c 5.230169
_cell_angle_alpha 90.000000
_cell_angle_beta 65.990612
_cell_angle_gamma 90.000000
_cell_volume 2053.046323
_symmetry_space_group_name_H-M "C 2/C"
_symmetry_group_IT_number 15
_symmetry_cell_setting 'monoclinic'
loop_
_space_group_symop_operation_xyz
x,y,z
-x,y,1/2-z
-x,-y,-z
x,-y,1/2+z
1/2+x,1/2+y,z
1/2-x,1/2+y,1/2-z
1/2-x,1/2-y,-z
1/2+x,1/2-y,1/2+z
loop_
_atom_site_type_symbol
_atom_site_label
_atom_site_fract_x
_atom_site_fract_y
_atom_site_fract_z
Si Si1 0.050313 0.558011 0.691300
Si Si2 0.146008 0.642602 0.238477
Si Si3 0.477696 0.393748 0.051624
Si Si4 0.864499 0.131695 0.754298
Si Si5 0.807542 0.132737 0.382184
Si Si6 0.301123 0.862912 0.384000
O O1 0.050204 0.469893 0.489243
O O2 0.096908 0.611214 0.486179
O O3 0.000000 0.608596 0.750000
O O4 0.140037 0.754734 0.225812
O O5 0.186167 0.615357 0.353101
O O6 0.161197 0.604569 0.923617
O O7 0.500000 0.346826 0.250000
O O8 0.419947 0.396635 0.172322
O O9 0.500000 0.346313 0.750000
O O10 0.500000 0.500000 0.000000
O O11 0.843620 0.107471 0.525976
O O12 0.829855 0.098092 0.063772
O O13 0.752448 0.103245 0.556333
O O14 0.803821 0.247788 0.373303
#
# Coordination Sequence:
#
# PCOD9262099 Si02
#       6
#     8   8   8   8   8   8
#     4  10  21  37  54  75 102 145 186 214 266 327
#     4  10  19  32  53  82 108 142 175 229 271 320
#     4  10  21  37  55  78 103 143 188 221 270 333
#     4  10  19  32  53  83 111 135 182 226 277 317
#     4   9  17  30  50  80 113 140 167 224 273 335
#     4   9  17  30  50  80 113 138 174 212 284 330
#
# _framework density 23.37989
#
# number of rings (size 3 to 8) (size 9 to 14) (size 15 to 20)
#    0.000    2.333    0.000    3.000    0.000    4.667 
#    0.000    2.500    0.000    0.000   86.667    0.000 
#    0.000    0.000    0.000    0.000    0.000    0.000 
#
# Total GULP energy -134066.455425 kJ/mol
# GULP energy per Si atom -5586.102309 kJ/mol
# Density = 2.332668 g / cm^3
# Si number density = 23.379890 Si / 1000 Ang^3
#
#
#
# Elastic Constant Matrix: (Units=GPa)
#
#
# Indices 1 2 3 4 5 6 
#
# 1 155.4068 2.6486 53.2756 0.0000 -11.1619 0.0000
# 2 2.6486 59.8227 -5.3186 0.0000 -4.5291 0.0000
# 3 53.2756 -5.3186 156.7402 0.0000 3.3699 0.0000
# 4 0.0000 0.0000 0.0000 212.9637 0.0000 22.2743
# 5 -11.1619 -4.5291 3.3699 0.0000 46.9766 0.0000
# 6 0.0000 0.0000 0.0000 22.2743 0.0000 16.6481
#
#
#
# Elastic Compliance Matrix: (Units=1/GPa)
#
#
# Indices 1 2 3 4 5 6 
#
# 1 0.007469 -0.000416 -0.002594 0.000000 0.001921 0.000000
# 2 -0.000416 0.016907 0.000683 0.000000 0.001482 0.000000
# 3 -0.002594 0.000683 0.007308 0.000000 -0.001075 0.000000
# 4 0.000000 0.000000 0.000000 0.005460 0.000000 -0.007305
# 5 0.001921 0.001482 -0.001075 0.000000 0.021964 0.000000
# 6 0.000000 0.000000 0.000000 -0.007305 0.000000 0.069840
#
#
# Mechanical properties :
#
#
# Convention : Reuss Voigt Hill
#
# Bulk Modulus (GPa) = 36.99473 52.57566 44.78520
# Shear Modulus (GPa) = 35.06021 76.74195 55.90108
#
# Velocity S-wave (km/s) = 3.87665 5.73543 4.89508
# Velocity P-wave (km/s) = 5.99129 8.14841 7.15165
#
# Compressibility (1/GPa) = 0.02703088
#
# Stress axis : x y z
#
# Youngs Moduli (GPa) = 133.88550 59.14556 136.83609
#
# Poissons Ratio (x) = 0.02460 0.35497
# Poissons Ratio (y) = 0.05568 -0.09349
# Poissons Ratio (z) = 0.34732 -0.04041
#
# Static dielectric constant tensor:
#      x y z
#    x 1.831290 0.000000 -0.048050 
#    y 0.000000 1.927140 0.000000 
#    z -0.048050 0.000000 1.760310 
# 
# From -- ./inp_files/15415.got.cif
#   From: 2010.05.17/outbox.cif.g08.bks.cpg/sg15_8_cif.got.tgz:15415.got - 2010.06.03 18:47:42.
