data_PCOD9262009
_publ_section_title
;
Structure prediction by ZEFSAII (Michael W. Deem and Ramdas Pophale) SiO2 
 PCOD9262009
Probable space group: C 2/C
;
_chemical_formula_sum "Si O2"
_cell_formula_units_Z 48
_cell_length_a 26.496799
_cell_length_b 13.721353
_cell_length_c 14.452932
_cell_angle_alpha 90.000000
_cell_angle_beta 19.644052
_cell_angle_gamma 90.000000
_cell_volume 1766.496255
_symmetry_space_group_name_H-M "C 2/C"
_symmetry_group_IT_number 15
_symmetry_cell_setting 'monoclinic'
loop_
_space_group_symop_operation_xyz
x,y,z
-x,y,1/2-z
-x,-y,-z
x,-y,1/2+z
1/2+x,1/2+y,z
1/2-x,1/2+y,1/2-z
1/2-x,1/2-y,-z
1/2+x,1/2-y,1/2+z
loop_
_atom_site_type_symbol
_atom_site_label
_atom_site_fract_x
_atom_site_fract_y
_atom_site_fract_z
Si Si1 0.150607 0.889882 0.345671
Si Si2 0.712465 0.109179 0.084235
Si Si3 0.212465 0.609179 0.584235
Si Si4 0.096203 0.681290 0.963047
Si Si5 0.849393 0.889882 0.654329
Si Si6 0.403797 0.181290 0.036953
O O1 0.314342 0.869881 0.109296
O O2 0.062355 0.795654 0.535024
O O3 0.101667 0.000000 0.454025
O O4 0.168387 0.883936 0.203807
O O5 0.552295 0.126496 0.311611
O O6 0.708358 0.177768 0.180247
O O7 0.719643 1.000000 0.109608
O O8 0.208358 0.677768 0.680247
O O9 0.331613 0.616064 0.296193
O O10 0.052295 0.626496 0.811611
O O11 0.062355 0.795654 0.035024
O O12 0.685658 0.869881 0.890704
#
# Coordination Sequence:
#
# PCOD9262009 Si02
#       6
#     8   8   8   8   8   8
#     4  10  20  33  51  74  99 128 161 199 243 288
#     4  10  19  33  53  74  96 127 166 201 236 283
#     4  10  19  33  53  74  96 127 166 201 236 283
#     4  10  19  32  52  74  99 126 162 203 240 282
#     4  10  20  33  51  74  99 128 161 199 243 288
#     4  10  19  32  52  74  99 126 162 203 240 282
#
# _framework density 27.172432000000001
#
# number of rings (size 3 to 8) (size 9 to 14) (size 15 to 20)
#    0.000    2.000    0.000    6.000    0.000    2.667 
#    0.000    3.333    0.000   20.000    0.000    0.000 
#    0.000    0.000    0.000    0.000    0.000    0.000 
#
# Total GULP energy -134410.568406 kJ/mol
# GULP energy per Si atom -5600.440350 kJ/mol
# Density = 2.711059 g / cm^3
# Si number density = 27.172432 Si / 1000 Ang^3
#
#
#
# Elastic Constant Matrix: (Units=GPa)
#
#
# Indices 1 2 3 4 5 6 
#
# 1 120.7271 1.5664 28.2130 -0.0005 18.6576 0.0005
# 2 1.5664 218.8856 0.5521 -0.0005 8.3400 0.0005
# 3 28.2130 0.5521 100.8684 -0.0004 -1.1009 0.0004
# 4 -0.0005 -0.0005 -0.0004 10.4060 0.0005 -0.6866
# 5 18.6576 8.3400 -1.1009 0.0005 35.6973 -0.0005
# 6 0.0005 0.0005 0.0004 -0.6866 -0.0005 36.2299
#
#
#
# Elastic Compliance Matrix: (Units=1/GPa)
#
#
# Indices 1 2 3 4 5 6 
#
# 1 0.009736 0.000136 -0.002781 0.000001 -0.005206 0.000000
# 2 0.000136 0.004612 -0.000076 0.000000 -0.001151 0.000000
# 3 -0.002781 -0.000076 0.010712 0.000000 0.001801 0.000000
# 4 0.000001 0.000000 0.000000 0.096218 -0.000002 0.001824
# 5 -0.005206 -0.001151 0.001801 -0.000002 0.031059 0.000000
# 6 0.000000 0.000000 0.000000 0.001824 0.000000 0.027636
#
#
# Mechanical properties :
#
#
# Convention : Reuss Voigt Hill
#
# Bulk Modulus (GPa) = 50.97432 55.68265 53.32848
# Shear Modulus (GPa) = 26.04807 43.80998 34.92902
#
# Velocity S-wave (km/s) = 3.09952 4.01970 3.58922
# Velocity P-wave (km/s) = 5.62225 6.48697 6.07003
#
# Compressibility (1/GPa) = 0.01961772
#
# Stress axis : x y z
#
# Youngs Moduli (GPa) = 102.71424 216.84168 93.35552
#
# Poissons Ratio (x) = -0.02943 0.25959
# Poissons Ratio (y) = -0.01394 0.00707
# Poissons Ratio (z) = 0.28561 0.01643
#
# Static dielectric constant tensor:
#      x y z
#    x 2.049980 0.000000 0.001990 
#    y 0.000000 2.023880 0.000000 
#    z 0.001990 0.000000 2.201300 
# 
# From -- ./inp_files/151856.got.cif
#   From: 2010.05.17/outbox.cif.g08.bks.cpg/sg15_76_cif.got.tgz:151856.got - 2010.06.03 18:47:42.
