data_PCOD9262580
_publ_section_title
;
Structure prediction by ZEFSAII (Michael W. Deem and Ramdas Pophale) SiO2 
 PCOD9262580
Probable space group: C 2/C
;
_chemical_formula_sum "Si O2"
_cell_formula_units_Z 40
_cell_length_a 12.226241
_cell_length_b 13.562322
_cell_length_c 13.044682
_cell_angle_alpha 90.000000
_cell_angle_beta 130.293897
_cell_angle_gamma 90.000000
_cell_volume 1649.815728
_symmetry_space_group_name_H-M "C 2/C"
_symmetry_group_IT_number 15
_symmetry_cell_setting 'monoclinic'
loop_
_space_group_symop_operation_xyz
x,y,z
-x,y,1/2-z
-x,-y,-z
x,-y,1/2+z
1/2+x,1/2+y,z
1/2-x,1/2+y,1/2-z
1/2-x,1/2-y,-z
1/2+x,1/2-y,1/2+z
loop_
_atom_site_type_symbol
_atom_site_label
_atom_site_fract_x
_atom_site_fract_y
_atom_site_fract_z
Si Si1 0.333175 0.008123 0.380211
Si Si2 0.850218 0.723234 0.431806
Si Si3 0.430568 0.591226 0.096726
Si Si4 0.701431 0.578727 0.103095
Si Si5 0.805805 0.710255 0.871382
O O1 0.293988 0.111363 0.411267
O O2 0.314255 0.028701 0.247612
O O3 0.500000 0.000000 0.500000
O O4 0.261354 0.903129 0.363201
O O5 0.858421 0.804648 0.525170
O O6 0.755821 0.767111 0.280803
O O7 0.021035 0.710684 0.510385
O O8 0.500000 0.585348 0.250000
O O9 0.562965 0.587524 0.094229
O O10 0.337912 0.496436 0.009201
O O11 0.744791 0.690357 0.100268
#
# Coordination Sequence:
#
# PCOD9262580 Si02
#       5
#     8   8   8   8   8
#     4   9  16  29  53  75 104 138 171 210 265 308
#     4   9  17  29  47  78 102 133 172 207 260 312
#     4  10  19  33  54  77 105 136 176 220 255 306
#     4   9  18  32  52  80 100 135 181 210 257 314
#     4   9  16  29  50  76 102 133 173 214 251 310
#
# _framework density 24.245131000000001
#
# number of rings (size 3 to 8) (size 9 to 14) (size 15 to 20)
#    0.000    2.800    2.000    0.000    0.000    0.000 
#    0.000    9.000    0.000    2.400    0.000    0.000 
#    0.000    0.000    0.000    0.000    0.000    0.000 
#
# Total GULP energy -111565.166197 kJ/mol
# GULP energy per Si atom -5578.258310 kJ/mol
# Density = 2.418995 g / cm^3
# Si number density = 24.245131 Si / 1000 Ang^3
#
#
#
# Elastic Constant Matrix: (Units=GPa)
#
#
# Indices 1 2 3 4 5 6 
#
# 1 28.9323 28.3002 32.6791 0.0000 -3.6616 0.0000
# 2 28.3002 277.4274 108.5473 0.0000 -24.4825 0.0000
# 3 32.6791 108.5473 175.3321 0.0000 8.7052 0.0000
# 4 0.0000 0.0000 0.0000 59.2933 0.0000 -3.8744
# 5 -3.6616 -24.4825 8.7052 0.0000 35.9582 0.0000
# 6 0.0000 0.0000 0.0000 -3.8744 0.0000 11.3527
#
#
#
# Elastic Compliance Matrix: (Units=1/GPa)
#
#
# Indices 1 2 3 4 5 6 
#
# 1 0.045487 -0.000891 -0.008225 0.000000 0.006016 0.000000
# 2 -0.000891 0.005420 -0.003409 0.000000 0.004425 0.000000
# 3 -0.008225 -0.003409 0.009619 0.000000 -0.005487 0.000000
# 4 0.000000 0.000000 0.000000 0.017250 0.000000 0.005887
# 5 0.006016 0.004425 -0.005487 0.000000 0.032764 0.000000
# 6 0.000000 0.000000 0.000000 0.005887 0.000000 0.090094
#
#
# Mechanical properties :
#
#
# Convention : Reuss Voigt Hill
#
# Bulk Modulus (GPa) = 28.18826 91.19389 59.69107
# Shear Modulus (GPa) = 21.05187 42.13186 31.59187
#
# Velocity S-wave (km/s) = 2.94988 4.17315 3.61365
# Velocity P-wave (km/s) = 4.82224 7.80482 6.48726
#
# Compressibility (1/GPa) = 0.03547577
#
# Stress axis : x y z
#
# Youngs Moduli (GPa) = 21.98446 184.51277 103.95663
#
# Poissons Ratio (x) = 0.16438 0.85506
# Poissons Ratio (y) = 0.01959 0.35438
# Poissons Ratio (z) = 0.18083 0.62899
#
# Static dielectric constant tensor:
#      x y z
#    x 2.048730 0.000000 0.000230 
#    y 0.000000 1.995200 0.000000 
#    z 0.000230 0.000000 1.834720 
# 
# From -- ./inp_files/103941.got.cif
#   From: 2010.05.17/outbox.cif.g08.bks.cpg/sg15_52_cif.got.tgz:103941.got - 2010.06.03 18:47:42.
