data_PCOD9262423
_publ_section_title
;
Structure prediction by ZEFSAII (Michael W. Deem and Ramdas Pophale) SiO2 
 PCOD9262423
Probable space group: C 2/C
;
_chemical_formula_sum "Si O2"
_cell_formula_units_Z 56
_cell_length_a 10.995387
_cell_length_b 24.892801
_cell_length_c 11.368486
_cell_angle_alpha 90.000000
_cell_angle_beta 81.199518
_cell_angle_gamma 90.000000
_cell_volume 3074.989768
_symmetry_space_group_name_H-M "C 2/C"
_symmetry_group_IT_number 15
_symmetry_cell_setting 'monoclinic'
loop_
_space_group_symop_operation_xyz
x,y,z
-x,y,1/2-z
-x,-y,-z
x,-y,1/2+z
1/2+x,1/2+y,z
1/2-x,1/2+y,1/2-z
1/2-x,1/2-y,-z
1/2+x,1/2-y,1/2+z
loop_
_atom_site_type_symbol
_atom_site_label
_atom_site_fract_x
_atom_site_fract_y
_atom_site_fract_z
Si Si1 0.855844 0.569781 0.807715
Si Si2 0.585324 0.164455 0.532136
Si Si3 0.819220 0.800708 0.542010
Si Si4 0.929239 0.220615 0.382173
Si Si5 0.677249 0.883269 0.428929
Si Si6 0.363740 0.052435 0.328342
Si Si7 0.767302 0.350359 0.705321
O O1 0.849238 0.614932 0.909784
O O2 0.792018 0.587944 0.696988
O O3 0.821725 0.509210 0.845435
O O4 0.000000 0.567821 0.750000
O O5 0.628488 0.222388 0.572241
O O6 0.439611 0.156259 0.575881
O O7 0.611639 0.160220 0.389625
O O8 0.750000 0.750000 0.500000
O O9 0.790580 0.849913 0.461024
O O10 0.754519 0.814508 0.676194
O O11 0.963400 0.792762 0.541648
O O12 0.839727 0.170601 0.367278
O O13 0.000000 0.231566 0.250000
O O14 0.634821 0.922441 0.541000
O O15 0.500000 0.053748 0.250000
O O16 0.278349 0.089613 0.256552
#
# Coordination Sequence:
#
# PCOD9262423 Si02
#       7
#     8   8   8   8   8   8   8
#     4   9  21  30  53  79 108 144 167 219 272 319
#     4  11  19  33  52  81 111 133 170 217 271 313
#     4  10  20  35  56  75 104 143 176 213 256 316
#     4  10  20  36  53  76 107 140 177 208 258 323
#     4  10  19  33  53  79 105 139 177 212 267 316
#     4  10  19  33  51  79 108 137 176 218 267 314
#     4  10  22  33  54  79 108 140 171 216 262 310
#
# _framework density 18.211441000000001
#
# number of rings (size 3 to 8) (size 9 to 14) (size 15 to 20)
#    0.000    2.000    2.857    1.714    4.000    1.714 
#    0.000    0.000    0.000    0.857    7.429    0.000 
#    0.000    0.000    0.000    0.000    0.000    0.000 
#
# Total GULP energy -155993.052997 kJ/mol
# GULP energy per Si atom -5571.180464 kJ/mol
# Density = 1.816999 g / cm^3
# Si number density = 18.211441 Si / 1000 Ang^3
#
#
#
# Elastic Constant Matrix: (Units=GPa)
#
#
# Indices 1 2 3 4 5 6 
#
# 1 44.8249 46.1453 14.7438 0.0000 22.7745 0.0000
# 2 46.1453 124.2629 40.5348 0.0000 18.2346 0.0000
# 3 14.7438 40.5348 43.3068 0.0000 15.8280 0.0000
# 4 0.0000 0.0000 0.0000 21.3525 0.0000 2.9566
# 5 22.7745 18.2346 15.8280 0.0000 29.5065 0.0000
# 6 0.0000 0.0000 0.0000 2.9566 0.0000 17.1049
#
#
#
# Elastic Compliance Matrix: (Units=1/GPa)
#
#
# Indices 1 2 3 4 5 6 
#
# 1 0.059918 -0.020831 0.014051 0.000000 -0.040912 0.000000
# 2 -0.020831 0.018893 -0.015176 0.000000 0.012543 0.000000
# 3 0.014051 -0.015176 0.041108 0.000000 -0.023518 0.000000
# 4 0.000000 0.000000 0.000000 0.047981 0.000000 -0.008294
# 5 -0.040912 0.012543 -0.023518 0.000000 0.070332 0.000000
# 6 0.000000 0.000000 0.000000 -0.008294 0.000000 0.059896
#
#
# Mechanical properties :
#
#
# Convention : Reuss Voigt Hill
#
# Bulk Modulus (GPa) = 13.15676 46.13805 29.64740
# Shear Modulus (GPa) = 13.61005 20.99084 17.30045
#
# Velocity S-wave (km/s) = 2.73671 3.39871 3.08551
# Velocity P-wave (km/s) = 4.15045 6.38680 5.38598
#
# Compressibility (1/GPa) = 0.07600656
#
# Stress axis : x y z
#
# Youngs Moduli (GPa) = 16.68945 52.93026 24.32645
#
# Poissons Ratio (x) = 1.10257 -0.34181
# Poissons Ratio (y) = 0.34765 0.36918
# Poissons Ratio (z) = -0.23450 0.80328
#
# Static dielectric constant tensor:
#      x y z
#    x 1.645010 0.000000 0.016910 
#    y 0.000000 1.654260 0.000000 
#    z 0.016910 0.000000 1.656560 
# 
# From -- ./inp_files/88950.got.cif
#   From: 2010.05.17/outbox.cif.g08.bks.cpg/sg15_45_cif.got.tgz:88950.got - 2010.06.03 18:47:42.
