data_PCOD9262950
_publ_section_title
;
Structure prediction by ZEFSAII (Michael W. Deem and Ramdas Pophale) SiO2 
 PCOD9262950
Probable space group: C 2/C
;
_chemical_formula_sum "Si O2"
_cell_formula_units_Z 44
_cell_length_a 5.978556
_cell_length_b 25.167873
_cell_length_c 14.491483
_cell_angle_alpha 90.000000
_cell_angle_beta 96.799437
_cell_angle_gamma 90.000000
_cell_volume 2165.161614
_symmetry_space_group_name_H-M "C 2/C"
_symmetry_group_IT_number 15
_symmetry_cell_setting 'monoclinic'
loop_
_space_group_symop_operation_xyz
x,y,z
-x,y,1/2-z
-x,-y,-z
x,-y,1/2+z
1/2+x,1/2+y,z
1/2-x,1/2+y,1/2-z
1/2-x,1/2-y,-z
1/2+x,1/2-y,1/2+z
loop_
_atom_site_type_symbol
_atom_site_label
_atom_site_fract_x
_atom_site_fract_y
_atom_site_fract_z
Si Si1 0.000000 0.301589 0.750000
Si Si2 0.183693 0.165477 0.389666
Si Si3 0.104967 0.924579 0.564212
Si Si4 0.175636 0.474154 0.435948
Si Si5 0.339331 0.757736 0.399694
Si Si6 0.040405 0.628439 0.559712
O O1 0.159426 0.334902 0.691257
O O2 0.154515 0.265848 0.822756
O O3 0.341504 0.151319 0.484420
O O4 0.991740 0.120841 0.375518
O O5 0.063464 0.222321 0.396742
O O6 0.265889 0.894725 0.498427
O O7 0.890776 0.950149 0.500725
O O8 0.235783 0.974596 0.615064
O O9 0.000000 0.500000 0.500000
O O10 0.053697 0.422341 0.388994
O O11 0.250000 0.750000 0.500000
O O12 0.375403 0.819940 0.383156
#
# Coordination Sequence:
#
# PCOD9262950 Si02
#       6
#     4   8   8   8   8   8
#     4  12  26  36  54  86 128 164 214 246 312 392
#     4  11  21  37  56  84 128 158 200 254 316 379
#     4   9  16  31  53  84 123 149 196 254 307 372
#     4   8  16  28  50  85 122 143 199 246 300 366
#     4  12  23  39  58  85 128 164 205 257 314 384
#     4  10  19  33  58  84 121 160 194 255 315 362
#
# _framework density 20.321807
#
# number of rings (size 3 to 8) (size 9 to 14) (size 15 to 20)
#    0.000    1.818    3.636    1.091    0.000    0.000 
#    0.000    0.000    0.000    0.000    0.000    0.000 
#  878.182    0.000    0.000    0.182    0.000    0.000 
#
# Total GULP energy -122718.775786 kJ/mol
# GULP energy per Si atom -5578.126172 kJ/mol
# Density = 2.027555 g / cm^3
# Si number density = 20.321807 Si / 1000 Ang^3
#
#
#
# Elastic Constant Matrix: (Units=GPa)
#
#
# Indices 1 2 3 4 5 6 
#
# 1 93.1439 41.8005 0.1626 0.0000 -11.2509 0.0000
# 2 41.8005 161.5182 -4.0296 0.0000 -20.7063 0.0000
# 3 0.1626 -4.0296 18.5827 0.0000 -0.5188 0.0000
# 4 0.0000 0.0000 0.0000 3.0723 0.0000 1.4528
# 5 -11.2509 -20.7063 -0.5188 0.0000 31.5585 0.0000
# 6 0.0000 0.0000 0.0000 1.4528 0.0000 30.8845
#
#
#
# Elastic Compliance Matrix: (Units=1/GPa)
#
#
# Indices 1 2 3 4 5 6 
#
# 1 0.012335 -0.002890 -0.000665 0.000000 0.002491 0.000000
# 2 -0.002890 0.007484 0.001757 0.000000 0.003909 0.000000
# 3 -0.000665 0.001757 0.054251 0.000000 0.001808 0.000000
# 4 0.000000 0.000000 0.000000 0.332893 0.000000 -0.015659
# 5 0.002491 0.003909 0.001808 0.000000 0.035170 0.000000
# 6 0.000000 0.000000 0.000000 -0.015659 0.000000 0.033115
#
#
# Mechanical properties :
#
#
# Convention : Reuss Voigt Hill
#
# Bulk Modulus (GPa) = 14.18932 38.79019 26.48975
# Shear Modulus (GPa) = 9.95353 28.79047 19.37200
#
# Velocity S-wave (km/s) = 2.21553 3.76803 3.09084
# Velocity P-wave (km/s) = 3.67998 6.16929 5.07949
#
# Compressibility (1/GPa) = 0.07047554
#
# Stress axis : x y z
#
# Youngs Moduli (GPa) = 81.07127 133.61747 18.43285
#
# Poissons Ratio (x) = 0.38609 0.01226
# Poissons Ratio (y) = 0.23426 -0.03239
# Poissons Ratio (z) = 0.05391 -0.23481
#
# Static dielectric constant tensor:
#      x y z
#    x 1.738500 0.000000 -0.024740 
#    y 0.000000 1.768950 0.000000 
#    z -0.024740 0.000000 1.668090 
# 
# From -- ./inp_files/129355.got.cif
#   From: 2010.05.17/outbox.cif.g08.bks.cpg/sg15_65_cif.got.tgz:129355.got - 2010.06.03 18:47:42.
