data_PCOD9262335
_publ_section_title
;
Structure prediction by ZEFSAII (Michael W. Deem and Ramdas Pophale) SiO2 
 PCOD9262335
Probable space group: C 2/C
;
_chemical_formula_sum "Si O2"
_cell_formula_units_Z 52
_cell_length_a 8.629809
_cell_length_b 16.381276
_cell_length_c 19.013516
_cell_angle_alpha 90.000000
_cell_angle_beta 117.982734
_cell_angle_gamma 90.000000
_cell_volume 2373.645369
_symmetry_space_group_name_H-M "C 2/C"
_symmetry_group_IT_number 15
_symmetry_cell_setting 'monoclinic'
loop_
_space_group_symop_operation_xyz
x,y,z
-x,y,1/2-z
-x,-y,-z
x,-y,1/2+z
1/2+x,1/2+y,z
1/2-x,1/2+y,1/2-z
1/2-x,1/2-y,-z
1/2+x,1/2-y,1/2+z
loop_
_atom_site_type_symbol
_atom_site_label
_atom_site_fract_x
_atom_site_fract_y
_atom_site_fract_z
Si Si1 0.615059 0.358116 0.659136
Si Si2 0.365610 0.723597 0.852046
Si Si3 0.500000 0.771553 0.250000
Si Si4 0.500000 0.632272 0.750000
Si Si5 0.640556 0.498635 0.382981
Si Si6 0.000000 0.578730 0.250000
Si Si7 0.958573 0.591988 0.394192
Si Si8 0.367237 0.377228 0.000427
O O1 0.564746 0.283417 0.698033
O O2 0.508634 0.435409 0.666211
O O3 0.575469 0.359683 0.567339
O O4 0.822337 0.371048 0.704433
O O5 0.407435 0.691648 0.784068
O O6 0.362005 0.821066 0.860505
O O7 0.170701 0.686045 0.820109
O O8 0.523385 0.689576 0.932918
O O9 0.375101 0.573889 0.677099
O O10 0.830767 0.541073 0.417807
O O11 0.592049 0.460971 0.448716
O O12 0.977772 0.542282 0.324007
O O13 0.154312 0.618598 0.458935
#
# Coordination Sequence:
#
# PCOD9262335 Si02
#       8
#     8   8   4   4   8   4   8   8
#     4  11  21  40  67  95 128 175 227 275 326 402
#     4  11  23  43  61 101 132 177 220 278 338 395
#     4  12  23  40  69  92 128 172 228 272 325 404
#     4  10  24  40  68  91 143 168 224 292 330 382
#     4  11  21  43  63  98 132 180 224 281 329 397
#     4  10  19  32  61  99 115 166 230 274 307 390
#     4  11  20  39  67  93 131 180 234 262 333 408
#     4  10  25  39  62  98 138 173 218 283 336 391
#
# _framework density 21.907230999999999
#
# number of rings (size 3 to 8) (size 9 to 14) (size 15 to 20)
#    0.000    1.231    3.077    3.231    2.154    0.615 
#    0.000   11.538    0.000    0.000    0.000    0.000 
#    0.000    0.000    0.000    0.000    0.000    0.000 
#
# Total GULP energy -144840.678683 kJ/mol
# GULP energy per Si atom -5570.795334 kJ/mol
# Density = 2.185737 g / cm^3
# Si number density = 21.907231 Si / 1000 Ang^3
#
#
#
# Elastic Constant Matrix: (Units=GPa)
#
#
# Indices 1 2 3 4 5 6 
#
# 1 79.2756 17.9936 30.1559 0.0000 -11.0354 0.0000
# 2 17.9936 54.7083 20.3431 0.0000 -2.7395 0.0000
# 3 30.1559 20.3431 103.5117 0.0000 -7.1348 0.0000
# 4 0.0000 0.0000 0.0000 13.5909 0.0000 15.6017
# 5 -11.0354 -2.7395 -7.1348 0.0000 40.3506 0.0000
# 6 0.0000 0.0000 0.0000 15.6017 0.0000 13.8103
#
#
#
# Elastic Compliance Matrix: (Units=1/GPa)
#
#
# Indices 1 2 3 4 5 6 
#
# 1 0.015210 -0.003532 -0.003510 0.000000 0.003299 0.000000
# 2 -0.003532 0.020558 -0.003018 0.000000 -0.000104 0.000000
# 3 -0.003510 -0.003018 0.011334 0.000000 0.000839 0.000000
# 4 0.000000 0.000000 0.000000 -0.247858 0.000000 0.280009
# 5 0.003299 -0.000104 0.000839 0.000000 0.025826 0.000000
# 6 0.000000 0.000000 0.000000 0.280009 0.000000 -0.243921
#
#
# Mechanical properties :
#
#
# Convention : Reuss Voigt Hill
#
# Bulk Modulus (GPa) = 37.06213 41.60896 39.33554
# Shear Modulus (GPa) = -12.82920 24.81723 5.99402
#
# Velocity S-wave (km/s) = -2.42257 3.36941 1.65591
# Velocity P-wave (km/s) = 3.02148 5.84566 4.65301
#
# Compressibility (1/GPa) = 0.02698172
#
# Stress axis : x y z
#
# Youngs Moduli (GPa) = 65.74493 48.64353 88.22850
#
# Poissons Ratio (x) = 0.17183 0.30964
# Poissons Ratio (y) = 0.23224 0.26630
# Poissons Ratio (z) = 0.23073 0.14682
#
# Static dielectric constant tensor:
#      x y z
#    x 1.829500 0.000000 0.012890 
#    y 0.000000 1.813710 0.000000 
#    z 0.012890 0.000000 1.872740 
# 
# From -- ./inp_files/190534.got.cif
#   From: 2010.05.17/outbox.cif.g08.bks.cpg/sg15_96_cif.got.tgz:190534.got - 2010.06.03 18:47:42.
