data_PCOD9262221
_publ_section_title
;
Structure prediction by ZEFSAII (Michael W. Deem and Ramdas Pophale) SiO2 
 PCOD9262221
Probable space group: C 2/C
;
_chemical_formula_sum "Si O2"
_cell_formula_units_Z 56
_cell_length_a 29.487494
_cell_length_b 9.212092
_cell_length_c 17.558974
_cell_angle_alpha 90.000000
_cell_angle_beta 37.271407
_cell_angle_gamma 90.000000
_cell_volume 2888.517022
_symmetry_space_group_name_H-M "C 2/C"
_symmetry_group_IT_number 15
_symmetry_cell_setting 'monoclinic'
loop_
_space_group_symop_operation_xyz
x,y,z
-x,y,1/2-z
-x,-y,-z
x,-y,1/2+z
1/2+x,1/2+y,z
1/2-x,1/2+y,1/2-z
1/2-x,1/2-y,-z
1/2+x,1/2-y,1/2+z
loop_
_atom_site_type_symbol
_atom_site_label
_atom_site_fract_x
_atom_site_fract_y
_atom_site_fract_z
Si Si1 0.697308 0.570325 0.149501
Si Si2 0.329536 0.293389 0.975714
Si Si3 0.065104 0.721387 0.535817
Si Si4 0.770206 0.507170 0.785147
Si Si5 0.701925 0.319270 0.242262
Si Si6 0.563061 0.932121 0.468934
Si Si7 0.952464 0.145948 0.075839
O O1 0.779104 0.645837 0.044578
O O2 0.697373 0.397454 0.166342
O O3 0.635165 0.617367 0.294653
O O4 0.665215 0.634905 0.113806
O O5 0.405375 0.272915 0.922172
O O6 0.279064 0.404815 0.090533
O O7 0.125548 0.780355 0.391226
O O8 0.066422 0.545709 0.533569
O O9 0.987906 0.779624 0.604140
O O10 0.746874 0.565654 0.733550
O O11 0.758705 0.336474 0.810837
O O12 0.857000 0.548251 0.678758
O O13 0.543096 0.762655 0.498856
O O14 0.500000 0.000000 0.500000
O O15 0.000000 0.000000 0.000000
#
# Coordination Sequence:
#
# PCOD9262221 Si02
#       7
#     8   8   8   8   8   8   8
#     4  11  21  36  54  83 118 149 187 232 285 346
#     4  10  22  37  55  80 116 156 188 227 290 352
#     4   9  19  36  54  83 109 142 195 231 281 335
#     4  10  19  34  56  81 111 146 191 238 291 332
#     4  10  19  32  56  82 109 143 193 244 278 337
#     4   9  18  31  53  80 107 140 180 238 279 325
#     4  11  20  33  57  87 112 142 187 240 282 328
#
# _framework density 19.387111000000001
#
# number of rings (size 3 to 8) (size 9 to 14) (size 15 to 20)
#    0.000    2.000    2.857    2.571    0.000    1.143 
#    0.000    0.000    0.000    0.000    0.000    2.000 
#    0.000    0.000    0.000    0.000    0.000    0.000 
#
# Total GULP energy -155868.127907 kJ/mol
# GULP energy per Si atom -5566.718854 kJ/mol
# Density = 1.934299 g / cm^3
# Si number density = 19.387111 Si / 1000 Ang^3
#
#
#
# Elastic Constant Matrix: (Units=GPa)
#
#
# Indices 1 2 3 4 5 6 
#
# 1 75.2681 33.1277 11.9403 0.0001 -10.8700 -0.0001
# 2 33.1277 140.1279 5.7503 0.0004 6.0657 -0.0002
# 3 11.9403 5.7503 23.6931 0.0002 -5.1017 0.0000
# 4 0.0001 0.0004 0.0002 15.1229 -0.0001 -4.2025
# 5 -10.8700 6.0657 -5.1017 -0.0001 26.1239 0.0000
# 6 -0.0001 -0.0002 0.0000 -4.2025 0.0000 32.6395
#
#
#
# Elastic Compliance Matrix: (Units=1/GPa)
#
#
# Indices 1 2 3 4 5 6 
#
# 1 0.017038 -0.004073 -0.006125 0.000000 0.006839 0.000000
# 2 -0.004073 0.008294 -0.000773 0.000000 -0.003771 0.000000
# 3 -0.006125 -0.000773 0.046945 0.000000 0.006798 0.000000
# 4 0.000000 0.000000 0.000000 0.068579 0.000000 0.008830
# 5 0.006839 -0.003771 0.006798 0.000000 0.043328 0.000000
# 6 0.000000 0.000000 0.000000 0.008830 0.000000 0.031775
#
#
# Mechanical properties :
#
#
# Convention : Reuss Voigt Hill
#
# Bulk Modulus (GPa) = 19.86673 37.85840 28.86256
# Shear Modulus (GPa) = 19.63274 27.32865 23.48070
#
# Velocity S-wave (km/s) = 3.18570 3.75858 3.48393
# Velocity P-wave (km/s) = 4.87865 6.19725 5.57705
#
# Compressibility (1/GPa) = 0.05033542
#
# Stress axis : x y z
#
# Youngs Moduli (GPa) = 58.69378 120.56800 21.30172
#
# Poissons Ratio (x) = 0.49102 0.13048
# Poissons Ratio (y) = 0.23903 0.01646
# Poissons Ratio (z) = 0.35951 0.09316
#
# Static dielectric constant tensor:
#      x y z
#    x 1.727290 0.000000 -0.011360 
#    y 0.000000 1.756130 0.000000 
#    z -0.011360 0.000000 1.693800 
# 
# From -- ./inp_files/224410.got.cif
#   From: 2010.05.17/outbox.cif.g08.bks.cpg/sg15_113_cif.got.tgz:224410.got - 2010.06.03 18:47:42.
