data_PCOD9262870
_publ_section_title
;
Structure prediction by ZEFSAII (Michael W. Deem and Ramdas Pophale) SiO2 
 PCOD9262870
Probable space group: C 2/C
;
_chemical_formula_sum "Si O2"
_cell_formula_units_Z 40
_cell_length_a 9.640941
_cell_length_b 9.799202
_cell_length_c 24.565806
_cell_angle_alpha 90.000000
_cell_angle_beta 54.356997
_cell_angle_gamma 90.000000
_cell_volume 1886.044665
_symmetry_space_group_name_H-M "C 2/C"
_symmetry_group_IT_number 15
_symmetry_cell_setting 'monoclinic'
loop_
_space_group_symop_operation_xyz
x,y,z
-x,y,1/2-z
-x,-y,-z
x,-y,1/2+z
1/2+x,1/2+y,z
1/2-x,1/2+y,1/2-z
1/2-x,1/2-y,-z
1/2+x,1/2-y,1/2+z
loop_
_atom_site_type_symbol
_atom_site_label
_atom_site_fract_x
_atom_site_fract_y
_atom_site_fract_z
Si Si1 0.972114 0.702213 0.402494
Si Si2 0.203367 0.881675 0.198558
Si Si3 0.848318 0.033037 0.993022
Si Si4 0.680291 0.044432 0.432494
Si Si5 0.142589 0.389009 0.758418
O O1 0.895896 0.838768 0.444024
O O2 0.825836 0.584406 0.437972
O O3 0.130448 0.670176 0.406117
O O4 0.045621 0.701984 0.325824
O O5 0.253756 0.724593 0.200823
O O6 0.000000 0.891875 0.250000
O O7 0.260390 0.931626 0.125467
O O8 0.274441 0.988372 0.227028
O O9 0.801472 0.925439 0.956181
O O10 0.000000 0.000000 0.000000
O O11 0.500000 0.000000 0.500000
O O12 0.000000 0.444281 0.750000
#
# Coordination Sequence:
#
# PCOD9262870 Si02
#       5
#     8   8   8   8   8
#     4   9  20  36  52  78 113 142 179 233 283 334
#     4  10  21  38  60  84 114 151 190 235 285 343
#     4  10  19  33  57  82 106 144 188 227 277 340
#     4   9  19  38  56  77 113 147 180 231 285 329
#     4  10  21  37  57  81 112 149 188 234 287 340
#
# _framework density 21.208404000000002
#
# number of rings (size 3 to 8) (size 9 to 14) (size 15 to 20)
#    0.000    2.400    0.000    2.400    0.000    4.800 
#    0.000   10.000    0.000    0.000    0.000    0.000 
#    0.000    0.000    0.000    0.000    0.000    0.000 
#
# Total GULP energy -111425.310389 kJ/mol
# GULP energy per Si atom -5571.265519 kJ/mol
# Density = 2.116013 g / cm^3
# Si number density = 21.208404 Si / 1000 Ang^3
#
#
#
# Elastic Constant Matrix: (Units=GPa)
#
#
# Indices 1 2 3 4 5 6 
#
# 1 148.5911 39.4700 44.7793 0.0000 29.3216 0.0000
# 2 39.4700 44.7724 3.6347 0.0000 9.0289 0.0000
# 3 44.7793 3.6347 81.0235 0.0000 20.2757 0.0000
# 4 0.0000 0.0000 0.0000 7.8243 0.0000 -3.1292
# 5 29.3216 9.0289 20.2757 0.0000 25.4731 0.0000
# 6 0.0000 0.0000 0.0000 -3.1292 0.0000 21.9589
#
#
#
# Elastic Compliance Matrix: (Units=1/GPa)
#
#
# Indices 1 2 3 4 5 6 
#
# 1 0.011677 -0.008537 -0.004326 0.000000 -0.006972 0.000000
# 2 -0.008537 0.030409 0.004486 0.000000 -0.004522 0.000000
# 3 -0.004326 0.004486 0.017087 0.000000 -0.010211 0.000000
# 4 0.000000 0.000000 0.000000 0.135532 0.000000 0.019313
# 5 -0.006972 -0.004522 -0.010211 0.000000 0.057013 0.000000
# 6 0.000000 0.000000 0.000000 0.019313 0.000000 0.048292
#
#
# Mechanical properties :
#
#
# Convention : Reuss Voigt Hill
#
# Bulk Modulus (GPa) = 23.57464 50.01721 36.79592
# Shear Modulus (GPa) = 15.11019 23.48478 19.29748
#
# Velocity S-wave (km/s) = 2.67209 3.33127 3.01972
# Velocity P-wave (km/s) = 4.54532 6.19930 5.43559
#
# Compressibility (1/GPa) = 0.04241847
#
# Stress axis : x y z
#
# Youngs Moduli (GPa) = 85.63895 32.88514 58.52435
#
# Poissons Ratio (x) = 0.28074 0.25317
# Poissons Ratio (y) = 0.73109 -0.26252
# Poissons Ratio (z) = 0.37046 -0.14751
#
# Static dielectric constant tensor:
#      x y z
#    x 1.813760 0.000000 0.035070 
#    y 0.000000 1.871410 0.000000 
#    z 0.035070 0.000000 1.905440 
# 
# From -- ./inp_files/187872.got.cif
#   From: 2010.05.17/outbox.cif.g08.bks.cpg/sg15_94_cif.got.tgz:187872.got - 2010.06.03 18:47:42.
