data_PCOD9262750
_publ_section_title
;
Structure prediction by ZEFSAII (Michael W. Deem and Ramdas Pophale) SiO2 
 PCOD9262750
Probable space group: C 2/C
;
_chemical_formula_sum "Si O2"
_cell_formula_units_Z 56
_cell_length_a 7.552877
_cell_length_b 12.468322
_cell_length_c 34.005601
_cell_angle_alpha 90.000000
_cell_angle_beta 50.556026
_cell_angle_gamma 90.000000
_cell_volume 2473.014451
_symmetry_space_group_name_H-M "C 2/C"
_symmetry_group_IT_number 15
_symmetry_cell_setting 'monoclinic'
loop_
_space_group_symop_operation_xyz
x,y,z
-x,y,1/2-z
-x,-y,-z
x,-y,1/2+z
1/2+x,1/2+y,z
1/2-x,1/2+y,1/2-z
1/2-x,1/2-y,-z
1/2+x,1/2-y,1/2+z
loop_
_atom_site_type_symbol
_atom_site_label
_atom_site_fract_x
_atom_site_fract_y
_atom_site_fract_z
Si Si1 0.398230 0.645049 0.805014
Si Si2 0.763357 0.482697 0.555455
Si Si3 0.669146 0.383469 0.907037
Si Si4 0.808434 0.388870 0.802066
Si Si5 0.889431 0.182203 0.307409
Si Si6 0.012317 0.174470 0.623561
Si Si7 0.933605 0.508239 0.120280
O O1 0.500000 0.599652 0.750000
O O2 0.413814 0.772302 0.798524
O O3 0.522606 0.618641 0.828487
O O4 0.142221 0.606208 0.851896
O O5 0.604494 0.392424 0.557311
O O6 0.613730 0.591995 0.578213
O O7 0.830149 0.466402 0.591926
O O8 0.000000 0.500000 0.500000
O O9 0.737430 0.430091 0.854307
O O10 0.791926 0.268384 0.897988
O O11 0.800579 0.463393 0.917753
O O12 0.592086 0.360846 0.805871
O O13 0.000000 0.449509 0.750000
O O14 0.733746 0.273201 0.349510
O O15 0.000000 0.212407 0.250000
O O16 0.702677 0.087079 0.330512
#
# Coordination Sequence:
#
# PCOD9262750 Si02
#       7
#     8   8   8   8   8   8   8
#     4   9  17  32  53  82 119 154 191 234 292 358
#     4  11  24  44  64  87 119 160 211 270 318 364
#     4  10  21  41  60  87 124 154 202 260 308 371
#     4  10  19  33  55  84 121 165 191 232 304 365
#     4  11  19  34  59  87 126 160 191 241 299 371
#     4   9  22  39  58  93 123 155 210 249 304 386
#     4  10  21  37  60  88 117 155 204 248 301 375
#
# _framework density 22.644428000000001
#
# number of rings (size 3 to 8) (size 9 to 14) (size 15 to 20)
#    0.000    2.000    1.429    3.857    2.000    1.143 
#    0.000    2.857    0.000    0.000    0.000    0.000 
#    0.000    0.000    0.000    0.000    0.000    0.000 
#
# Total GULP energy -156050.125031 kJ/mol
# GULP energy per Si atom -5573.218751 kJ/mol
# Density = 2.259289 g / cm^3
# Si number density = 22.644428 Si / 1000 Ang^3
#
#
#
# Elastic Constant Matrix: (Units=GPa)
#
#
# Indices 1 2 3 4 5 6 
#
# 1 125.1289 12.4566 22.9592 0.0000 -9.1219 0.0000
# 2 12.4566 37.1978 22.3310 0.0000 -10.6553 0.0000
# 3 22.9592 22.3310 55.9441 0.0000 -29.6781 0.0000
# 4 0.0000 0.0000 0.0000 20.0186 0.0000 -3.4403
# 5 -9.1219 -10.6553 -29.6781 0.0000 29.4733 0.0000
# 6 0.0000 0.0000 0.0000 -3.4403 0.0000 26.6555
#
#
#
# Elastic Compliance Matrix: (Units=1/GPa)
#
#
# Indices 1 2 3 4 5 6 
#
# 1 0.008718 -0.000936 -0.004191 0.000000 -0.001861 0.000000
# 2 -0.000936 0.035586 -0.015348 0.000000 -0.002879 0.000000
# 3 -0.004191 -0.015348 0.047421 0.000000 0.040905 0.000000
# 4 0.000000 0.000000 0.000000 0.051087 0.000000 0.006594
# 5 -0.001861 -0.002879 0.040905 0.000000 0.073502 0.000000
# 6 0.000000 0.000000 0.000000 0.006594 0.000000 0.038367
#
#
# Mechanical properties :
#
#
# Convention : Reuss Voigt Hill
#
# Bulk Modulus (GPa) = 19.69469 37.08491 28.38980
# Shear Modulus (GPa) = 15.99711 25.93107 20.96409
#
# Velocity S-wave (km/s) = 2.66079 3.38767 3.04599
# Velocity P-wave (km/s) = 4.26099 5.63155 4.99351
#
# Compressibility (1/GPa) = 0.05077512
#
# Stress axis : x y z
#
# Youngs Moduli (GPa) = 114.70031 28.10105 21.08754
#
# Poissons Ratio (x) = 0.02631 0.08838
# Poissons Ratio (y) = 0.10740 0.32364
# Poissons Ratio (z) = 0.48074 0.43128
#
# Static dielectric constant tensor:
#      x y z
#    x 1.934480 0.000000 -0.004320 
#    y 0.000000 1.943340 0.000000 
#    z -0.004320 0.000000 1.861900 
# 
# From -- ./inp_files/288648.got.cif
#   From: 2010.05.17/outbox.cif.g08.bks.cpg/sg15_145_cif.got.tgz:288648.got - 2010.06.03 18:47:42.
