data_PCOD9262882
_publ_section_title
;
Structure prediction by ZEFSAII (Michael W. Deem and Ramdas Pophale) SiO2 
 PCOD9262882
Probable space group: C 2/C
;
_chemical_formula_sum "Si O2"
_cell_formula_units_Z 40
_cell_length_a 20.267739
_cell_length_b 19.609414
_cell_length_c 5.282481
_cell_angle_alpha 90.000000
_cell_angle_beta 103.508584
_cell_angle_gamma 90.000000
_cell_volume 2041.379513
_symmetry_space_group_name_H-M "C 2/C"
_symmetry_group_IT_number 15
_symmetry_cell_setting 'monoclinic'
loop_
_space_group_symop_operation_xyz
x,y,z
-x,y,1/2-z
-x,-y,-z
x,-y,1/2+z
1/2+x,1/2+y,z
1/2-x,1/2+y,1/2-z
1/2-x,1/2-y,-z
1/2+x,1/2-y,1/2+z
loop_
_atom_site_type_symbol
_atom_site_label
_atom_site_fract_x
_atom_site_fract_y
_atom_site_fract_z
Si Si1 0.805168 0.960150 0.795284
Si Si2 0.186147 0.301977 0.994332
Si Si3 0.042769 0.917705 0.545708
Si Si4 0.270394 0.170147 0.467028
Si Si5 0.456421 0.257222 0.955208
O O1 0.886416 0.956230 0.893361
O O2 0.781818 0.883299 0.702761
O O3 0.782802 0.008481 0.543125
O O4 0.172126 0.328082 0.698378
O O5 0.250000 0.250000 0.000000
O O6 0.211689 0.353405 0.233929
O O7 0.118107 0.272404 0.056582
O O8 0.056328 0.837422 0.597656
O O9 0.000000 0.939848 0.750000
O O10 0.000000 0.920963 0.250000
O O11 0.250000 0.250000 0.500000
O O12 0.500000 0.232789 0.750000
O O13 0.500000 0.248154 0.250000
#
# Coordination Sequence:
#
# PCOD9262882 Si02
#       5
#     8   8   8   8   8
#     4  12  25  39  56  82 118 153 197 251 293 338
#     4  10  19  33  57  83 113 152 196 239 294 353
#     4  10  21  35  52  74 109 162 208 235 272 331
#     4  10  21  37  59  82 109 148 195 241 296 351
#     4  10  20  34  54  85 122 154 195 249 295 341
#
# _framework density 19.594594000000001
#
# number of rings (size 3 to 8) (size 9 to 14) (size 15 to 20)
#    0.000    1.600    0.000    6.000    0.000   12.000 
#    0.000    0.000    0.000    0.000    0.000    0.000 
#    0.000   56.000    0.000    0.000    0.000    0.000 
#
# Total GULP energy -111382.782634 kJ/mol
# GULP energy per Si atom -5569.139132 kJ/mol
# Density = 1.955000 g / cm^3
# Si number density = 19.594594 Si / 1000 Ang^3
#
#
#
# Elastic Constant Matrix: (Units=GPa)
#
#
# Indices 1 2 3 4 5 6 
#
# 1 100.9834 28.2263 36.1997 0.0000 -17.0418 0.0000
# 2 28.2263 70.3163 21.3912 0.0000 0.5723 0.0000
# 3 36.1997 21.3912 134.8097 0.0000 -38.9395 0.0000
# 4 0.0000 0.0000 0.0000 33.0960 0.0000 4.0053
# 5 -17.0418 0.5723 -38.9395 0.0000 34.2268 0.0000
# 6 0.0000 0.0000 0.0000 4.0053 0.0000 28.5929
#
#
#
# Elastic Compliance Matrix: (Units=1/GPa)
#
#
# Indices 1 2 3 4 5 6 
#
# 1 0.012470 -0.004689 -0.001174 0.000000 0.004951 0.000000
# 2 -0.004689 0.017162 -0.003309 0.000000 -0.006386 0.000000
# 3 -0.001174 -0.003309 0.012073 0.000000 0.013205 0.000000
# 4 0.000000 0.000000 0.000000 0.030736 0.000000 -0.004306
# 5 0.004951 -0.006386 0.013205 0.000000 0.046813 0.000000
# 6 0.000000 0.000000 0.000000 -0.004306 0.000000 0.035577
#
#
# Mechanical properties :
#
#
# Convention : Reuss Voigt Hill
#
# Bulk Modulus (GPa) = 42.80637 53.08265 47.94451
# Shear Modulus (GPa) = 27.63038 33.86930 30.74984
#
# Velocity S-wave (km/s) = 3.75921 4.16204 3.96574
# Velocity P-wave (km/s) = 6.38245 7.08844 6.74469
#
# Compressibility (1/GPa) = 0.02336101
#
# Stress axis : x y z
#
# Youngs Moduli (GPa) = 80.19466 58.26795 82.83226
#
# Poissons Ratio (x) = 0.27320 0.09727
# Poissons Ratio (y) = 0.37600 0.27407
# Poissons Ratio (z) = 0.09417 0.19279
#
# Static dielectric constant tensor:
#      x y z
#    x 1.894040 0.000000 0.068340 
#    y 0.000000 1.771940 0.000000 
#    z 0.068340 0.000000 1.837610 
# 
# From -- ./inp_files/9893.got.cif
#   From: 2010.05.17/outbox.cif.g08.bks.cpg/sg15_5_cif.got.tgz:9893.got - 2010.06.03 18:47:42.
