data_PCOD9262310
_publ_section_title
;
Structure prediction by ZEFSAII (Michael W. Deem and Ramdas Pophale) SiO2 
 PCOD9262310
Probable space group: C 2/C
;
_chemical_formula_sum "Si O2"
_cell_formula_units_Z 52
_cell_length_a 14.387124
_cell_length_b 30.706591
_cell_length_c 9.167887
_cell_angle_alpha 90.000000
_cell_angle_beta 135.885419
_cell_angle_gamma 90.000000
_cell_volume 2819.315547
_symmetry_space_group_name_H-M "C 2/C"
_symmetry_group_IT_number 15
_symmetry_cell_setting 'monoclinic'
loop_
_space_group_symop_operation_xyz
x,y,z
-x,y,1/2-z
-x,-y,-z
x,-y,1/2+z
1/2+x,1/2+y,z
1/2-x,1/2+y,1/2-z
1/2-x,1/2-y,-z
1/2+x,1/2-y,1/2+z
loop_
_atom_site_type_symbol
_atom_site_label
_atom_site_fract_x
_atom_site_fract_y
_atom_site_fract_z
Si Si1 0.500000 0.696297 0.250000
Si Si2 0.011071 0.935833 0.104405
Si Si3 0.799712 0.199671 0.452522
Si Si4 0.713478 0.509331 0.674344
Si Si5 0.345743 0.947084 0.042557
Si Si6 0.164502 0.869712 0.748980
Si Si7 0.574315 0.732524 0.638751
O O1 0.387473 0.665734 0.195620
O O2 0.564753 0.723161 0.456220
O O3 0.000000 0.914358 0.250000
O O4 0.152560 0.954715 0.215220
O O5 0.956096 0.902869 0.922242
O O6 0.909030 0.976745 0.999891
O O7 0.800586 0.155822 0.360337
O O8 0.659735 0.224443 0.271528
O O9 0.844415 0.196660 0.672208
O O10 0.921269 0.229235 0.522355
O O11 0.768609 0.531954 0.592808
O O12 0.819140 0.479216 0.876567
O O13 0.500000 0.943851 0.250000
O O14 0.282909 0.900197 0.936746
#
# Coordination Sequence:
#
# PCOD9262310 Si02
#       7
#     4   8   8   8   8   8   8
#     4  10  20  36  56  90 108 146 182 246 274 338
#     4  10  19  32  59  84 104 140 184 242 283 324
#     4   9  19  39  57  83 111 154 184 235 273 355
#     4  10  20  36  58  79 105 143 197 231 275 337
#     4  11  22  39  53  80 114 157 187 233 281 344
#     4  10  22  34  55  82 117 137 186 234 297 322
#     4   9  19  35  61  81 111 145 198 221 285 335
#
# _framework density 18.444192999999999
#
# number of rings (size 3 to 8) (size 9 to 14) (size 15 to 20)
#    0.000    2.154    1.538    1.385    4.308    2.462 
#    4.154    0.000    0.000    0.000    0.000    0.000 
#    0.000    0.000    0.000    0.000    0.000    0.000 
#
# Total GULP energy -144961.023235 kJ/mol
# GULP energy per Si atom -5575.423971 kJ/mol
# Density = 1.840221 g / cm^3
# Si number density = 18.444193 Si / 1000 Ang^3
#
#
#
# Elastic Constant Matrix: (Units=GPa)
#
#
# Indices 1 2 3 4 5 6 
#
# 1 33.2376 17.7783 29.5932 0.0000 -13.8260 0.0000
# 2 17.7783 51.8620 32.4452 0.0000 4.2269 0.0000
# 3 29.5932 32.4452 106.7246 0.0000 -4.1591 0.0000
# 4 0.0000 0.0000 0.0000 13.1685 0.0000 -11.5671
# 5 -13.8260 4.2269 -4.1591 0.0000 36.9815 0.0000
# 6 0.0000 0.0000 0.0000 -11.5671 0.0000 13.2933
#
#
#
# Elastic Compliance Matrix: (Units=1/GPa)
#
#
# Indices 1 2 3 4 5 6 
#
# 1 0.055852 -0.014474 -0.010253 0.000000 0.021382 0.000000
# 2 -0.014474 0.028035 -0.004866 0.000000 -0.009163 0.000000
# 3 -0.010253 -0.004866 0.013624 0.000000 -0.001745 0.000000
# 4 0.000000 0.000000 0.000000 0.322231 0.000000 0.280389
# 5 0.021382 -0.009163 -0.001745 0.000000 0.035886 0.000000
# 6 0.000000 0.000000 0.000000 0.280389 0.000000 0.319206
#
#
# Mechanical properties :
#
#
# Convention : Reuss Voigt Hill
#
# Bulk Modulus (GPa) = 26.09375 39.05085 32.57230
# Shear Modulus (GPa) = 5.90460 20.15582 13.03021
#
# Velocity S-wave (km/s) = 1.79117 3.30934 2.66083
# Velocity P-wave (km/s) = 4.29603 5.98504 5.20944
#
# Compressibility (1/GPa) = 0.03832335
#
# Stress axis : x y z
#
# Youngs Moduli (GPa) = 17.90445 35.66968 73.39733
#
# Poissons Ratio (x) = 0.51629 0.75257
# Poissons Ratio (y) = 0.25915 0.35719
# Poissons Ratio (z) = 0.18358 0.17359
#
# Static dielectric constant tensor:
#      x y z
#    x 1.643440 0.000000 -0.036810 
#    y 0.000000 1.631300 0.000000 
#    z -0.036810 0.000000 1.659500 
# 
# From -- ./inp_files/44923.got.cif
#   From: 2010.05.17/outbox.cif.g08.bks.cpg/sg15_23_cif.got.tgz:44923.got - 2010.06.03 18:47:42.
