data_PCOD9262548
_publ_section_title
;
Structure prediction by ZEFSAII (Michael W. Deem and Ramdas Pophale) SiO2 
 PCOD9262548
Probable space group: C 2/C
;
_chemical_formula_sum "Si O2"
_cell_formula_units_Z 44
_cell_length_a 23.060061
_cell_length_b 16.937821
_cell_length_c 5.188629
_cell_angle_alpha 90.000000
_cell_angle_beta 96.964570
_cell_angle_gamma 90.000000
_cell_volume 2011.658281
_symmetry_space_group_name_H-M "C 2/C"
_symmetry_group_IT_number 15
_symmetry_cell_setting 'monoclinic'
loop_
_space_group_symop_operation_xyz
x,y,z
-x,y,1/2-z
-x,-y,-z
x,-y,1/2+z
1/2+x,1/2+y,z
1/2-x,1/2+y,1/2-z
1/2-x,1/2-y,-z
1/2+x,1/2-y,1/2+z
loop_
_atom_site_type_symbol
_atom_site_label
_atom_site_fract_x
_atom_site_fract_y
_atom_site_fract_z
Si Si1 0.419470 0.282660 0.796263
Si Si2 0.608100 0.450097 0.933992
Si Si3 0.752305 0.953023 0.492976
Si Si4 0.000000 0.555021 0.250000
Si Si5 0.079887 0.699321 0.202663
Si Si6 0.309898 0.795655 0.052111
O O1 0.422122 0.370452 0.684556
O O2 0.444691 0.225085 0.589342
O O3 0.351751 0.253745 0.761321
O O4 0.437576 0.263855 0.094396
O O5 0.594799 0.517077 0.711674
O O6 0.678251 0.433263 0.982050
O O7 0.709504 0.883266 0.386844
O O8 0.742403 0.022586 0.282697
O O9 0.945072 0.615143 0.227830
O O10 0.000000 0.500000 0.500000
O O11 0.149166 0.699061 0.179751
O O12 0.250000 0.750000 0.000000
#
# Coordination Sequence:
#
# PCOD9262548 Si02
#       6
#     8   8   8   4   8   8
#     4  10  21  39  59  90 123 158 222 263 318 410
#     4  10  19  33  53  82 118 161 197 239 304 374
#     4  10  21  32  47  73 113 159 202 242 297 372
#     4  12  26  48  74  96 134 176 226 292 338 388
#     4  10  24  40  63  92 118 167 222 260 337 387
#     4  10  22  38  58  87 127 169 210 266 332 390
#
# _framework density 21.872502000000001
#
# number of rings (size 3 to 8) (size 9 to 14) (size 15 to 20)
#    1.091    0.727    1.818    2.182    2.545    3.636 
#    0.000    0.000    0.000    0.000    0.000   12.727 
#    0.000    0.000    0.000    0.000    0.000    0.000 
#
# Total GULP energy -122627.858971 kJ/mol
# GULP energy per Si atom -5573.993590 kJ/mol
# Density = 2.182272 g / cm^3
# Si number density = 21.872502 Si / 1000 Ang^3
#
#
#
# Elastic Constant Matrix: (Units=GPa)
#
#
# Indices 1 2 3 4 5 6 
#
# 1 88.8775 14.4489 17.8997 0.0000 -6.5605 0.0000
# 2 14.4489 81.5507 4.8061 0.0000 0.4262 0.0000
# 3 17.8997 4.8061 87.8312 0.0000 4.2406 0.0000
# 4 0.0000 0.0000 0.0000 26.1137 0.0000 -4.6132
# 5 -6.5605 0.4262 4.2406 0.0000 24.3333 0.0000
# 6 0.0000 0.0000 0.0000 -4.6132 0.0000 26.7733
#
#
#
# Elastic Compliance Matrix: (Units=1/GPa)
#
#
# Indices 1 2 3 4 5 6 
#
# 1 0.012393 -0.002063 -0.002598 0.000000 0.003830 0.000000
# 2 -0.002063 0.012646 -0.000236 0.000000 -0.000736 0.000000
# 3 -0.002598 -0.000236 0.012063 0.000000 -0.002798 0.000000
# 4 0.000000 0.000000 0.000000 0.039496 0.000000 0.006805
# 5 0.003830 -0.000736 -0.002798 0.000000 0.042629 0.000000
# 6 0.000000 0.000000 0.000000 0.006805 0.000000 0.038523
#
#
# Mechanical properties :
#
#
# Convention : Reuss Voigt Hill
#
# Bulk Modulus (GPa) = 36.61869 36.95209 36.78539
# Shear Modulus (GPa) = 28.30535 30.18439 29.24487
#
# Velocity S-wave (km/s) = 3.60127 3.71889 3.66055
# Velocity P-wave (km/s) = 5.83699 5.94736 5.89243
#
# Compressibility (1/GPa) = 0.02730846
#
# Stress axis : x y z
#
# Youngs Moduli (GPa) = 80.69317 79.07945 82.89887
#
# Poissons Ratio (x) = 0.16311 0.21534
# Poissons Ratio (y) = 0.16644 0.01957
# Poissons Ratio (z) = 0.20961 0.01867
#
# Static dielectric constant tensor:
#      x y z
#    x 2.135040 0.000000 0.205100 
#    y 0.000000 1.804950 0.000000 
#    z 0.205100 0.000000 1.908670 
# 
# From -- ./inp_files/16856.got.cif
#   From: 2010.05.17/outbox.cif.g08.bks.cpg/sg15_9_cif.got.tgz:16856.got - 2010.06.03 18:47:42.
