data_PCOD9262964
_publ_section_title
;
Structure prediction by ZEFSAII (Michael W. Deem and Ramdas Pophale) SiO2 
 PCOD9262964
Probable space group: C 2/C
;
_chemical_formula_sum "Si O2"
_cell_formula_units_Z 44
_cell_length_a 13.041169
_cell_length_b 28.038388
_cell_length_c 5.490899
_cell_angle_alpha 90.000000
_cell_angle_beta 80.607452
_cell_angle_gamma 90.000000
_cell_volume 1980.848330
_symmetry_space_group_name_H-M "C 2/C"
_symmetry_group_IT_number 15
_symmetry_cell_setting 'monoclinic'
loop_
_space_group_symop_operation_xyz
x,y,z
-x,y,1/2-z
-x,-y,-z
x,-y,1/2+z
1/2+x,1/2+y,z
1/2-x,1/2+y,1/2-z
1/2-x,1/2-y,-z
1/2+x,1/2-y,1/2+z
loop_
_atom_site_type_symbol
_atom_site_label
_atom_site_fract_x
_atom_site_fract_y
_atom_site_fract_z
Si Si1 0.000000 0.414243 0.250000
Si Si2 0.000000 0.247941 0.250000
Si Si3 0.500000 0.530791 0.250000
Si Si4 0.311119 0.948388 0.053041
Si Si5 0.086961 0.335252 0.906740
Si Si6 0.228992 0.942432 0.583168
Si Si7 0.277704 0.722152 0.237317
O O1 0.930931 0.445331 0.092877
O O2 0.918672 0.376594 0.393261
O O3 0.097916 0.217384 0.301579
O O4 0.958870 0.285223 0.469323
O O5 0.500000 0.500000 0.500000
O O6 0.391843 0.558949 0.300847
O O7 0.244757 0.925325 0.299703
O O8 0.269821 0.002525 0.042875
O O9 0.292362 0.925573 0.796571
O O10 0.201482 0.322868 0.771589
O O11 0.000000 0.350706 0.750000
O O12 0.250000 0.750000 0.500000
O O13 0.250000 0.750000 0.000000
#
# Coordination Sequence:
#
# PCOD9262964 Si02
#       7
#     4   4   4   8   8   8   8
#     4  11  26  36  54  78 116 169 188 230 286 367
#     4   9  18  34  58  89 112 142 182 238 290 320
#     4  12  16  32  58  91 112 135 174 254 326 321
#     4  10  21  36  52  81 112 149 194 233 295 332
#     4  10  20  36  54  84 118 149 192 230 285 347
#     4  10  20  35  58  86 111 139 195 262 282 337
#     4  10  19  33  58  87 114 140 180 233 280 334
#
# _framework density 22.212703999999999
#
# number of rings (size 3 to 8) (size 9 to 14) (size 15 to 20)
#    0.000    1.818    5.455    0.000    2.545    2.909 
#    0.000    0.000    0.000    1.091    9.455    0.000 
#    0.000    0.000    0.000    0.000    0.000    0.000 
#
# Total GULP energy -122630.979502 kJ/mol
# GULP energy per Si atom -5574.135432 kJ/mol
# Density = 2.216215 g / cm^3
# Si number density = 22.212704 Si / 1000 Ang^3
#
#
#
# Elastic Constant Matrix: (Units=GPa)
#
#
# Indices 1 2 3 4 5 6 
#
# 1 155.5867 31.1506 11.6631 0.0000 -1.0641 0.0000
# 2 31.1506 52.2921 10.6142 0.0000 -6.4169 0.0000
# 3 11.6631 10.6142 140.7511 0.0000 6.4518 0.0000
# 4 0.0000 0.0000 0.0000 18.7366 0.0000 -10.9474
# 5 -1.0641 -6.4169 6.4518 0.0000 38.8847 0.0000
# 6 0.0000 0.0000 0.0000 -10.9474 0.0000 14.8684
#
#
#
# Elastic Compliance Matrix: (Units=1/GPa)
#
#
# Indices 1 2 3 4 5 6 
#
# 1 0.007317 -0.004366 -0.000255 0.000000 -0.000478 0.000000
# 2 -0.004366 0.022503 -0.001511 0.000000 0.003845 0.000000
# 3 -0.000255 -0.001511 0.007307 0.000000 -0.001469 0.000000
# 4 0.000000 0.000000 0.000000 0.093666 0.000000 0.068965
# 5 -0.000478 0.003845 -0.001469 0.000000 0.026582 0.000000
# 6 0.000000 0.000000 0.000000 0.068965 0.000000 0.118035
#
#
# Mechanical properties :
#
#
# Convention : Reuss Voigt Hill
#
# Bulk Modulus (GPa) = 40.22151 50.60953 45.41552
# Shear Modulus (GPa) = 16.89406 34.17808 25.53607
#
# Velocity S-wave (km/s) = 2.76081 3.92685 3.39428
# Velocity P-wave (km/s) = 5.32067 6.58739 5.98762
#
# Compressibility (1/GPa) = 0.02486232
#
# Stress axis : x y z
#
# Youngs Moduli (GPa) = 136.66378 44.43926 136.85145
#
# Poissons Ratio (x) = 0.19401 0.03492
# Poissons Ratio (y) = 0.59664 0.20684
# Poissons Ratio (z) = 0.03488 0.06717
#
# Static dielectric constant tensor:
#      x y z
#    x 1.845860 0.000000 -0.006380 
#    y 0.000000 1.636350 0.000000 
#    z -0.006380 0.000000 1.888320 
# 
# From -- ./inp_files/5829.got.cif
#   From: 2010.05.17/outbox.cif.g08.bks.cpg/sg15_3_cif.got.tgz:5829.got - 2010.06.03 18:47:42.
