data_PCOD9262439
_publ_section_title
;
Structure prediction by ZEFSAII (Michael W. Deem and Ramdas Pophale) SiO2 
 PCOD9262439
Probable space group: C 2/C
;
_chemical_formula_sum "Si O2"
_cell_formula_units_Z 32
_cell_length_a 6.958096
_cell_length_b 36.186122
_cell_length_c 9.398176
_cell_angle_alpha 90.000000
_cell_angle_beta 32.921194
_cell_angle_gamma 90.000000
_cell_volume 1286.066985
_symmetry_space_group_name_H-M "C 2/C"
_symmetry_group_IT_number 15
_symmetry_cell_setting 'monoclinic'
loop_
_space_group_symop_operation_xyz
x,y,z
-x,y,1/2-z
-x,-y,-z
x,-y,1/2+z
1/2+x,1/2+y,z
1/2-x,1/2+y,1/2-z
1/2-x,1/2-y,-z
1/2+x,1/2-y,1/2+z
loop_
_atom_site_type_symbol
_atom_site_label
_atom_site_fract_x
_atom_site_fract_y
_atom_site_fract_z
Si Si1 0.173976 0.961464 0.345100
Si Si2 0.165757 0.574583 0.345238
Si Si3 0.710987 0.228930 0.805007
Si Si4 0.085975 0.647377 0.535740
O O1 0.500000 0.955862 0.250000
O O2 0.866550 0.932038 0.572802
O O3 0.372547 0.955918 0.071528
O O4 0.000000 0.000000 0.500000
O O5 0.500000 0.572198 0.250000
O O6 0.996804 0.614410 0.482077
O O7 0.602068 0.186457 0.863900
O O8 0.000000 0.231320 0.750000
O O9 0.898235 0.244125 0.548613
O O10 0.000000 0.634402 0.750000
O O11 0.500000 0.654167 0.250000
#
# Coordination Sequence:
#
# PCOD9262439 Si02
#       4
#     8   8   8   8
#     4  10  19  33  52  74 102 136 173 213 262 316
#     4   9  18  33  52  74 104 137 168 215 272 315
#     4  10  22  39  56  78 113 150 178 216 278 333
#     4  11  21  35  58  84 107 139 187 231 267 317
#
# _framework density 24.882061
#
# number of rings (size 3 to 8) (size 9 to 14) (size 15 to 20)
#    0.000    2.000    0.000    6.000    0.000    3.000 
#    0.000    2.500    0.000    0.000    0.000    0.000 
#    0.000    0.000    0.000    0.000    0.000    0.000 
#
# Total GULP energy -89522.209281 kJ/mol
# GULP energy per Si atom -5595.138080 kJ/mol
# Density = 2.482543 g / cm^3
# Si number density = 24.882061 Si / 1000 Ang^3
#
#
#
# Elastic Constant Matrix: (Units=GPa)
#
#
# Indices 1 2 3 4 5 6 
#
# 1 60.7748 0.5224 38.8233 0.0000 7.6365 0.0000
# 2 0.5224 180.9103 85.4903 0.0000 -0.6699 0.0000
# 3 38.8233 85.4903 201.9106 0.0000 11.7739 0.0000
# 4 0.0000 0.0000 0.0000 43.6699 0.0000 4.9714
# 5 7.6365 -0.6699 11.7739 0.0000 40.6998 0.0000
# 6 0.0000 0.0000 0.0000 4.9714 0.0000 18.7689
#
#
#
# Elastic Compliance Matrix: (Units=1/GPa)
#
#
# Indices 1 2 3 4 5 6 
#
# 1 0.019611 0.002065 -0.004509 0.000000 -0.002341 0.000000
# 2 0.002065 0.007166 -0.003474 0.000000 0.000735 0.000000
# 3 -0.004509 -0.003474 0.007369 0.000000 -0.001343 0.000000
# 4 0.000000 0.000000 0.000000 0.023611 0.000000 -0.006254
# 5 -0.002341 0.000735 -0.001343 0.000000 0.025410 0.000000
# 6 0.000000 0.000000 0.000000 -0.006254 0.000000 0.054936
#
#
# Mechanical properties :
#
#
# Convention : Reuss Voigt Hill
#
# Bulk Modulus (GPa) = 44.82156 77.02974 60.92565
# Shear Modulus (GPa) = 31.77124 41.87838 36.82481
#
# Velocity S-wave (km/s) = 3.57721 4.10698 3.85122
# Velocity P-wave (km/s) = 5.92576 7.31539 6.65693
#
# Compressibility (1/GPa) = 0.02231069
#
# Stress axis : x y z
#
# Youngs Moduli (GPa) = 50.99232 139.54581 135.70515
#
# Poissons Ratio (x) = -0.28821 0.61185
# Poissons Ratio (y) = -0.10532 0.47146
# Poissons Ratio (z) = 0.22991 0.48481
#
# Static dielectric constant tensor:
#      x y z
#    x 2.055450 0.000000 -0.002860 
#    y 0.000000 1.965940 0.000000 
#    z -0.002860 0.000000 1.932150 
# 
# From -- ./inp_files/148477.got.cif
#   From: 2010.05.17/outbox.cif.g08.bks.cpg/sg15_75_cif.got.tgz:148477.got - 2010.06.03 18:47:42.
