data_PCOD9262204
_publ_section_title
;
Structure prediction by ZEFSAII (Michael W. Deem and Ramdas Pophale) SiO2 
 PCOD9262204
Probable space group: C 2/C
;
_chemical_formula_sum "Si O2"
_cell_formula_units_Z 48
_cell_length_a 32.465947
_cell_length_b 12.512346
_cell_length_c 5.361951
_cell_angle_alpha 90.000000
_cell_angle_beta 109.129602
_cell_angle_gamma 90.000000
_cell_volume 2057.880859
_symmetry_space_group_name_H-M "C 2/C"
_symmetry_group_IT_number 15
_symmetry_cell_setting 'monoclinic'
loop_
_space_group_symop_operation_xyz
x,y,z
-x,y,1/2-z
-x,-y,-z
x,-y,1/2+z
1/2+x,1/2+y,z
1/2-x,1/2+y,1/2-z
1/2-x,1/2-y,-z
1/2+x,1/2-y,1/2+z
loop_
_atom_site_type_symbol
_atom_site_label
_atom_site_fract_x
_atom_site_fract_y
_atom_site_fract_z
Si Si1 0.238413 0.684087 0.727482
Si Si2 0.500000 0.069348 0.750000
Si Si3 0.000000 0.072916 0.250000
Si Si4 0.591509 0.570908 0.349441
Si Si5 0.099272 0.624917 0.929765
Si Si6 0.678519 0.446434 0.177489
Si Si7 0.137522 0.378857 0.006432
O O1 0.250000 0.750000 0.500000
O O2 0.273505 0.590641 0.789593
O O3 0.189317 0.638496 0.629155
O O4 0.250000 0.750000 0.000000
O O5 0.547271 0.123698 0.844901
O O6 0.500000 0.000000 0.500000
O O7 0.046348 0.131487 0.316211
O O8 0.000000 0.000000 0.500000
O O9 0.590858 0.521029 0.069350
O O10 0.638185 0.623080 0.494992
O O11 0.114233 0.671811 0.697962
O O12 0.120182 0.502739 0.964047
O O13 0.120140 0.671779 0.218779
O O14 0.673831 0.456523 0.466263
#
# Coordination Sequence:
#
# PCOD9262204 Si02
#       7
#     8   4   4   8   8   8   8
#     4  12  26  41  56  80 115 156 198 246 299 351
#     4  12  16  30  48  88 131 139 176 240 322 344
#     4   8  12  20  38  64  99 125 142 198 256 316
#     4   8  14  25  42  71  99 122 161 201 262 306
#     4  10  19  32  55  88 112 151 181 253 285 355
#     4  10  21  36  58  82 106 143 182 234 278 335
#     4  10  20  33  52  75 110 143 201 225 291 337
#
# _framework density 23.324967999999998
#
# number of rings (size 3 to 8) (size 9 to 14) (size 15 to 20)
#    0.000    2.000    3.333    2.000    4.667    0.000 
#    0.000    0.000    0.000    0.000    0.000    9.333 
#    0.000    0.000    0.000    0.000    0.000    0.000 
#
# Total GULP energy -133706.395178 kJ/mol
# GULP energy per Si atom -5571.099799 kJ/mol
# Density = 2.327188 g / cm^3
# Si number density = 23.324968 Si / 1000 Ang^3
#
#
#
# Elastic Constant Matrix: (Units=GPa)
#
#
# Indices 1 2 3 4 5 6 
#
# 1 210.7678 14.1692 63.3337 0.0000 28.1120 0.0000
# 2 14.1692 49.8117 23.1365 0.0000 -3.4920 0.0000
# 3 63.3337 23.1365 157.0545 0.0000 -18.6058 0.0000
# 4 0.0000 0.0000 0.0000 14.8821 0.0000 -12.6680
# 5 28.1120 -3.4920 -18.6058 0.0000 78.8773 0.0000
# 6 0.0000 0.0000 0.0000 -12.6680 0.0000 -27.3225
#
#
#
# Elastic Compliance Matrix: (Units=1/GPa)
#
#
# Indices 1 2 3 4 5 6 
#
# 1 0.005949 -0.000665 -0.002629 0.000000 -0.002770 0.000000
# 2 -0.000665 0.021628 -0.002856 0.000000 0.000521 0.000000
# 3 -0.002629 -0.002856 0.008173 0.000000 0.002738 0.000000
# 4 0.000000 0.000000 0.000000 0.048180 0.000000 -0.022338
# 5 -0.002770 0.000521 0.002738 0.000000 0.014334 0.000000
# 6 0.000000 0.000000 0.000000 -0.022338 0.000000 -0.026243
#
#
# Mechanical properties :
#
#
# Convention : Reuss Voigt Hill
#
# Bulk Modulus (GPa) = 42.64671 68.76810 55.70740
# Shear Modulus (GPa) = 54.26697 34.42036 44.34366
#
# Velocity S-wave (km/s) = 4.82868 3.84564 4.36492
# Velocity P-wave (km/s) = 7.02934 7.01891 7.02413
#
# Compressibility (1/GPa) = 0.02344847
#
# Stress axis : x y z
#
# Youngs Moduli (GPa) = 168.10443 46.23647 122.36108
#
# Poissons Ratio (x) = 0.03076 0.32169
# Poissons Ratio (y) = 0.11182 0.34948
# Poissons Ratio (z) = 0.44194 0.13206
#
# Static dielectric constant tensor:
#      x y z
#    x 1.947480 0.000000 0.031310 
#    y 0.000000 1.423170 0.000000 
#    z 0.031310 0.000000 1.896920 
# 
# From -- ./inp_files/18263.got.cif
#   From: 2010.05.17/outbox.cif.g08.bks.cpg/sg15_10_cif.got.tgz:18263.got - 2010.06.03 18:47:42.
