data_PCOD9262833
_publ_section_title
;
Structure prediction by ZEFSAII (Michael W. Deem and Ramdas Pophale) SiO2 
 PCOD9262833
Probable space group: C 2/C
;
_chemical_formula_sum "Si O2"
_cell_formula_units_Z 56
_cell_length_a 13.996858
_cell_length_b 12.762325
_cell_length_c 13.799355
_cell_angle_alpha 90.000000
_cell_angle_beta 105.907328
_cell_angle_gamma 90.000000
_cell_volume 2370.618058
_symmetry_space_group_name_H-M "C 2/C"
_symmetry_group_IT_number 15
_symmetry_cell_setting 'monoclinic'
loop_
_space_group_symop_operation_xyz
x,y,z
-x,y,1/2-z
-x,-y,-z
x,-y,1/2+z
1/2+x,1/2+y,z
1/2-x,1/2+y,1/2-z
1/2-x,1/2-y,-z
1/2+x,1/2-y,1/2+z
loop_
_atom_site_type_symbol
_atom_site_label
_atom_site_fract_x
_atom_site_fract_y
_atom_site_fract_z
Si Si1 0.992788 0.648509 0.849463
Si Si2 0.612593 0.989804 0.486524
Si Si3 0.827380 0.899169 0.860212
Si Si4 0.789183 0.337723 0.381359
Si Si5 0.042724 0.153372 0.475615
Si Si6 0.219465 0.846769 0.873738
Si Si7 0.806620 0.872028 0.333518
O O1 0.017057 0.726901 0.942678
O O2 0.000000 0.707609 0.750000
O O3 0.878494 0.623577 0.834400
O O4 0.073655 0.556943 0.873945
O O5 0.678154 0.095135 0.516199
O O6 0.500000 0.000000 0.500000
O O7 0.681995 0.907205 0.563150
O O8 0.792611 0.787341 0.894458
O O9 0.815486 0.882900 0.741671
O O10 0.942219 0.907523 0.924247
O O11 0.778859 0.012126 0.863918
O O12 0.698240 0.364452 0.284835
O O13 0.133625 0.130096 0.427683
O O14 0.082652 0.144761 0.594695
O O15 0.245439 0.723584 0.866084
#
# Coordination Sequence:
#
# PCOD9262833 Si02
#       7
#     8   8   8   8   8   8   8
#     4  10  19  33  56  86 115 139 185 248 301 333
#     4  10  20  36  55  83 113 152 189 241 289 342
#     4  10  21  37  56  86 119 157 190 236 295 359
#     4   9  20  35  53  80 116 153 192 237 282 346
#     4  11  21  34  55  90 120 144 187 249 303 340
#     4  11  21  36  59  87 116 148 195 248 295 344
#     4  11  20  33  57  89 115 153 195 236 297 356
#
# _framework density 23.622532
#
# number of rings (size 3 to 8) (size 9 to 14) (size 15 to 20)
#    0.000    1.714    2.857    3.857    2.000    0.000 
#    0.000    0.000    0.000    0.857    7.429    0.000 
#    0.000    0.000    0.000    0.000    0.000    0.000 
#
# Total GULP energy -156105.051143 kJ/mol
# GULP energy per Si atom -5575.180398 kJ/mol
# Density = 2.356877 g / cm^3
# Si number density = 23.622532 Si / 1000 Ang^3
#
#
#
# Elastic Constant Matrix: (Units=GPa)
#
#
# Indices 1 2 3 4 5 6 
#
# 1 64.0807 27.1255 26.5709 0.0000 22.4181 0.0000
# 2 27.1255 160.7177 34.2768 0.0000 8.9673 0.0000
# 3 26.5709 34.2768 120.6706 0.0000 37.3014 0.0000
# 4 0.0000 0.0000 0.0000 45.5546 0.0000 11.1432
# 5 22.4181 8.9673 37.3014 0.0000 28.1652 0.0000
# 6 0.0000 0.0000 0.0000 11.1432 0.0000 30.2358
#
#
#
# Elastic Compliance Matrix: (Units=1/GPa)
#
#
# Indices 1 2 3 4 5 6 
#
# 1 0.023156 -0.003219 0.002025 0.000000 -0.020088 0.000000
# 2 -0.003219 0.007078 -0.002366 0.000000 0.003442 0.000000
# 3 0.002025 -0.002366 0.014863 0.000000 -0.020544 0.000000
# 4 0.000000 0.000000 0.000000 0.024127 0.000000 -0.008892
# 5 -0.020088 0.003442 -0.020544 0.000000 0.077606 0.000000
# 6 0.000000 0.000000 0.000000 -0.008892 0.000000 0.036350
#
#
# Mechanical properties :
#
#
# Convention : Reuss Voigt Hill
#
# Bulk Modulus (GPa) = 26.33084 57.93505 42.13294
# Shear Modulus (GPa) = 24.63550 37.95749 31.29649
#
# Velocity S-wave (km/s) = 3.23287 4.01288 3.64381
# Velocity P-wave (km/s) = 5.01058 6.78598 5.96471
#
# Compressibility (1/GPa) = 0.03797828
#
# Stress axis : x y z
#
# Youngs Moduli (GPa) = 43.18524 141.28459 67.27923
#
# Poissons Ratio (x) = 0.45484 -0.13626
# Poissons Ratio (y) = 0.13903 0.15915
# Poissons Ratio (z) = -0.08746 0.33422
#
# Static dielectric constant tensor:
#      x y z
#    x 1.934650 0.000000 -0.011320 
#    y 0.000000 2.005210 0.000000 
#    z -0.011320 0.000000 1.968680 
# 
# From -- ./inp_files/210704.got.cif
#   From: 2010.05.17/outbox.cif.g08.bks.cpg/sg15_106_cif.got.tgz:210704.got - 2010.06.03 18:47:42.
