data_PCOD9262613
_publ_section_title
;
Structure prediction by ZEFSAII (Michael W. Deem and Ramdas Pophale) SiO2 
 PCOD9262613
Probable space group: C 2/C
;
_chemical_formula_sum "Si O2"
_cell_formula_units_Z 64
_cell_length_a 5.622952
_cell_length_b 17.546420
_cell_length_c 31.561857
_cell_angle_alpha 90.000000
_cell_angle_beta 120.328402
_cell_angle_gamma 90.000000
_cell_volume 2687.815028
_symmetry_space_group_name_H-M "C 2/C"
_symmetry_group_IT_number 15
_symmetry_cell_setting 'monoclinic'
loop_
_space_group_symop_operation_xyz
x,y,z
-x,y,1/2-z
-x,-y,-z
x,-y,1/2+z
1/2+x,1/2+y,z
1/2-x,1/2+y,1/2-z
1/2-x,1/2-y,-z
1/2+x,1/2-y,1/2+z
loop_
_atom_site_type_symbol
_atom_site_label
_atom_site_fract_x
_atom_site_fract_y
_atom_site_fract_z
Si Si1 0.317291 0.455885 0.449197
Si Si2 0.095694 0.344009 0.491132
Si Si3 0.743300 0.034842 0.851771
Si Si4 0.107111 0.943293 0.304456
Si Si5 0.460011 0.090499 0.429131
Si Si6 0.879160 0.350583 0.673963
Si Si7 0.146248 0.217513 0.070249
Si Si8 0.078295 0.121873 0.315686
O O1 0.500000 0.500000 0.500000
O O2 0.235364 0.376080 0.461594
O O3 0.421460 0.456241 0.410682
O O4 0.042448 0.507270 0.421544
O O5 0.318251 0.295437 0.538125
O O6 0.058979 0.410314 0.522083
O O7 0.830262 0.296343 0.453039
O O8 0.438362 0.069904 0.832992
O O9 0.683030 0.942640 0.840481
O O10 0.913709 0.072899 0.828290
O O11 0.058271 0.034869 0.299477
O O12 0.000000 0.911498 0.250000
O O13 0.705367 0.149656 0.441397
O O14 0.221818 0.118147 0.375746
O O15 0.751323 0.294691 0.626880
O O16 0.713278 0.339591 0.702092
O O17 0.202779 0.341214 0.696030
#
# Coordination Sequence:
#
# PCOD9262613 Si02
#       8
#     8   8   8   8   8   8   8   8
#     4  12  22  35  51  78 107 156 193 222 278 339
#     4  11  22  31  49  71 102 144 195 231 264 312
#     4  10  20  34  53  76 111 143 184 225 270 351
#     4  10  19  33  54  80 108 139 174 229 293 339
#     4  11  19  35  51  67 103 148 189 223 281 321
#     4   9  15  31  49  68  95 140 172 210 270 314
#     4  10  19  34  46  70 101 139 192 234 263 317
#     4   9  17  28  51  72  97 133 172 216 266 337
#
# _framework density 23.811160999999998
#
# number of rings (size 3 to 8) (size 9 to 14) (size 15 to 20)
#    0.000    1.750    6.250    1.125    1.750    1.000 
#    0.000    0.000    0.000    0.000    0.000    0.000 
#    0.000   20.000    0.000    0.625    0.000    0.000 
#
# Total GULP energy -178370.241561 kJ/mol
# GULP energy per Si atom -5574.070049 kJ/mol
# Density = 2.375697 g / cm^3
# Si number density = 23.811161 Si / 1000 Ang^3
#
#
#
# Elastic Constant Matrix: (Units=GPa)
#
#
# Indices 1 2 3 4 5 6 
#
# 1 162.9593 2.7978 51.8494 0.0000 -19.5157 0.0000
# 2 2.7978 30.2938 6.1585 0.0000 0.6977 0.0000
# 3 51.8494 6.1585 117.1658 0.0000 -30.7027 0.0000
# 4 0.0000 0.0000 0.0000 -1.2279 0.0000 1.0704
# 5 -19.5157 0.6977 -30.7027 0.0000 37.6655 0.0000
# 6 0.0000 0.0000 0.0000 1.0704 0.0000 11.7879
#
#
#
# Elastic Compliance Matrix: (Units=1/GPa)
#
#
# Indices 1 2 3 4 5 6 
#
# 1 0.007204 -0.000129 -0.002801 0.000000 0.001452 0.000000
# 2 -0.000129 0.033571 -0.002401 0.000000 -0.002646 0.000000
# 3 -0.002801 -0.002401 0.012121 0.000000 0.008474 0.000000
# 4 0.000000 0.000000 0.000000 -0.754658 0.000000 0.068528
# 5 0.001452 -0.002646 0.008474 0.000000 0.034258 0.000000
# 6 0.000000 0.000000 0.000000 0.068528 0.000000 0.078610
#
#
# Mechanical properties :
#
#
# Convention : Reuss Voigt Hill
#
# Bulk Modulus (GPa) = 23.67737 48.00336 35.84037
# Shear Modulus (GPa) = -8.86280 26.28599 8.71159
#
# Velocity S-wave (km/s) = -1.93137 3.32616 1.91483
# Velocity P-wave (km/s) = 2.23423 5.91227 4.46915
#
# Compressibility (1/GPa) = 0.04223442
#
# Stress axis : x y z
#
# Youngs Moduli (GPa) = 138.81801 29.78765 82.50213
#
# Poissons Ratio (x) = 0.00385 0.23105
# Poissons Ratio (y) = 0.01796 0.19806
# Poissons Ratio (z) = 0.38877 0.07151
#
# Static dielectric constant tensor:
#      x y z
#    x 2.007840 0.000000 -0.054660 
#    y 0.000000 1.984710 0.000000 
#    z -0.054660 0.000000 1.966370 
# 
# From -- ./inp_files/306003.got.cif
#   From: 2010.05.17/outbox.cif.g08.bks.cpg/sg15_154_cif.got.tgz:306003.got - 2010.06.03 18:47:42.
