data_PCOD9262376
_publ_section_title
;
Structure prediction by ZEFSAII (Michael W. Deem and Ramdas Pophale) SiO2 
 PCOD9262376
Probable space group: C 2/C
;
_chemical_formula_sum "Si O2"
_cell_formula_units_Z 32
_cell_length_a 7.496310
_cell_length_b 11.927486
_cell_length_c 17.577230
_cell_angle_alpha 90.000000
_cell_angle_beta 48.308429
_cell_angle_gamma 90.000000
_cell_volume 1173.583515
_symmetry_space_group_name_H-M "C 2/C"
_symmetry_group_IT_number 15
_symmetry_cell_setting 'monoclinic'
loop_
_space_group_symop_operation_xyz
x,y,z
-x,y,1/2-z
-x,-y,-z
x,-y,1/2+z
1/2+x,1/2+y,z
1/2-x,1/2+y,1/2-z
1/2-x,1/2-y,-z
1/2+x,1/2-y,1/2+z
loop_
_atom_site_type_symbol
_atom_site_label
_atom_site_fract_x
_atom_site_fract_y
_atom_site_fract_z
Si Si1 0.675825 0.408072 0.892826
Si Si2 0.450979 0.845775 0.953107
Si Si3 0.726609 0.840308 0.331955
Si Si4 0.759634 0.643071 0.875704
O O1 0.874032 0.421744 0.904443
O O2 0.743013 0.295557 0.830870
O O3 0.674329 0.530037 0.855550
O O4 0.415736 0.377743 0.000782
O O5 0.686694 0.770837 0.875155
O O6 0.250000 0.750000 0.000000
O O7 0.396995 0.884370 0.054367
O O8 0.534975 0.858244 0.320082
O O9 0.000000 0.880950 0.250000
#
# Coordination Sequence:
#
# PCOD9262376 Si02
#       4
#     8   8   8   8
#     4   9  18  35  54  73  95 129 173 204 235 290
#     4   8  16  33  52  71  94 126 168 202 232 287
#     4  10  19  33  49  74 107 128 156 206 253 292
#     4   9  17  33  55  73  94 131 172 201 238 291
#
# _framework density 27.266912999999999
#
# number of rings (size 3 to 8) (size 9 to 14) (size 15 to 20)
#    0.000    3.500    0.000    3.000    0.000    1.000 
#    0.000   31.250    0.000    1.500    0.000    0.000 
#    0.000    0.000    0.000    0.000    0.000    0.000 
#
# Total GULP energy -89238.251282 kJ/mol
# GULP energy per Si atom -5577.390705 kJ/mol
# Density = 2.720485 g / cm^3
# Si number density = 27.266913 Si / 1000 Ang^3
#
#
#
# Elastic Constant Matrix: (Units=GPa)
#
#
# Indices 1 2 3 4 5 6 
#
# 1 110.6031 22.1766 2.0564 -0.0001 -13.1207 0.0000
# 2 22.1766 73.7777 46.7585 -0.0002 -8.4006 0.0000
# 3 2.0564 46.7585 96.1508 -0.0008 -23.3835 0.0001
# 4 -0.0001 -0.0002 -0.0008 26.9761 0.0003 -1.6129
# 5 -13.1207 -8.4006 -23.3835 0.0003 43.9603 0.0000
# 6 0.0000 0.0000 0.0001 -1.6129 0.0000 27.6430
#
#
#
# Elastic Compliance Matrix: (Units=1/GPa)
#
#
# Indices 1 2 3 4 5 6 
#
# 1 0.010337 -0.004508 0.002885 0.000000 0.003759 0.000000
# 2 -0.004508 0.021648 -0.011201 0.000000 -0.003167 0.000000
# 3 0.002885 -0.011201 0.017774 0.000000 0.008175 0.000000
# 4 0.000000 0.000000 0.000000 0.037200 0.000000 0.002171
# 5 0.003759 -0.003167 0.008175 0.000000 0.027613 0.000000
# 6 0.000000 0.000000 0.000000 0.002171 0.000000 0.036302
#
#
# Mechanical properties :
#
#
# Convention : Reuss Voigt Hill
#
# Bulk Modulus (GPa) = 41.47411 46.94605 44.21008
# Shear Modulus (GPa) = 27.09172 33.68523 30.38847
#
# Velocity S-wave (km/s) = 3.15552 3.51862 3.34201
# Velocity P-wave (km/s) = 5.34040 5.81053 5.58041
#
# Compressibility (1/GPa) = 0.02411143
#
# Stress axis : x y z
#
# Youngs Moduli (GPa) = 96.73579 46.19447 56.26239
#
# Poissons Ratio (x) = 0.20824 -0.16233
# Poissons Ratio (y) = 0.43607 0.63020
# Poissons Ratio (z) = -0.27910 0.51743
#
# Static dielectric constant tensor:
#      x y z
#    x 2.277010 0.000000 0.150270 
#    y 0.000000 2.187410 0.000000 
#    z 0.150270 0.000000 2.290080 
# 
# From -- ./inp_files/288190.got.cif
#   From: 2010.05.17/outbox.cif.g08.bks.cpg/sg15_145_cif.got.tgz:288190.got - 2010.06.03 18:47:42.
