data_PCOD9262285
_publ_section_title
;
Structure prediction by ZEFSAII (Michael W. Deem and Ramdas Pophale) SiO2 
 PCOD9262285
Probable space group: C 2/C
;
_chemical_formula_sum "Si O2"
_cell_formula_units_Z 48
_cell_length_a 15.709728
_cell_length_b 7.696837
_cell_length_c 20.940453
_cell_angle_alpha 90.000000
_cell_angle_beta 112.030779
_cell_angle_gamma 90.000000
_cell_volume 2347.137626
_symmetry_space_group_name_H-M "C 2/C"
_symmetry_group_IT_number 15
_symmetry_cell_setting 'monoclinic'
loop_
_space_group_symop_operation_xyz
x,y,z
-x,y,1/2-z
-x,-y,-z
x,-y,1/2+z
1/2+x,1/2+y,z
1/2-x,1/2+y,1/2-z
1/2-x,1/2-y,-z
1/2+x,1/2-y,1/2+z
loop_
_atom_site_type_symbol
_atom_site_label
_atom_site_fract_x
_atom_site_fract_y
_atom_site_fract_z
Si Si1 0.104669 0.671729 0.273974
Si Si2 0.235708 0.159340 0.903465
Si Si3 0.419304 0.421729 0.773974
Si Si4 0.115588 0.875000 0.481176
Si Si5 0.417757 0.409340 0.403465
Si Si6 0.282000 0.875000 0.814000
O O1 0.171369 0.689731 0.354133
O O2 0.161077 0.581591 0.233606
O O3 0.000000 0.605772 0.250000
O O4 0.093439 0.875000 0.250000
O O5 0.167660 0.059861 0.932691
O O6 0.274902 0.035757 0.860048
O O7 0.319180 0.233501 0.968002
O O8 0.500000 0.355772 0.750000
O O9 0.432764 0.439731 0.854133
O O10 0.322529 0.331591 0.733606
O O11 0.015031 0.809861 0.432692
O O12 0.101177 0.016499 0.531998
O O13 0.335146 0.285756 0.360048
#
# Coordination Sequence:
#
# PCOD9262285 Si02
#       6
#     8   8   8   8   8   8
#     4   9  17  32  55  78 105 141 180 223 273 328
#     4  10  20  35  54  80 107 144 186 219 272 322
#     4   9  17  32  55  78 105 141 180 223 273 328
#     4  10  21  36  55  74 110 153 182 212 256 349
#     4  10  20  35  54  80 107 144 186 219 272 322
#     4  10  19  32  58  84 106 133 183 244 273 305
#
# _framework density 20.450441000000001
#
# number of rings (size 3 to 8) (size 9 to 14) (size 15 to 20)
#    0.000    2.333    0.000    5.000    0.000    1.333 
#    0.000    0.000    0.000   47.000    0.000    0.000 
#    0.000    0.000    0.000    0.000    0.000    0.000 
#
# Total GULP energy -133835.715059 kJ/mol
# GULP energy per Si atom -5576.488127 kJ/mol
# Density = 2.040389 g / cm^3
# Si number density = 20.450441 Si / 1000 Ang^3
#
#
#
# Elastic Constant Matrix: (Units=GPa)
#
#
# Indices 1 2 3 4 5 6 
#
# 1 208.2267 38.4912 76.5573 0.0000 -0.5263 0.0000
# 2 38.4912 27.7782 16.4259 0.0000 -0.1831 0.0000
# 3 76.5573 16.4259 110.4169 0.0000 -0.2850 0.0000
# 4 0.0000 0.0000 0.0000 26.6409 0.0000 0.0785
# 5 -0.5263 -0.1831 -0.2850 0.0000 34.1127 0.0000
# 6 0.0000 0.0000 0.0000 0.0785 0.0000 17.1871
#
#
#
# Elastic Compliance Matrix: (Units=1/GPa)
#
#
# Indices 1 2 3 4 5 6 
#
# 1 0.007927 -0.008480 -0.004235 0.000000 0.000041 0.000000
# 2 -0.008480 0.048544 -0.001342 0.000000 0.000118 0.000000
# 3 -0.004235 -0.001342 0.012192 0.000000 0.000029 0.000000
# 4 0.000000 0.000000 0.000000 0.037537 0.000000 -0.000171
# 5 0.000041 0.000118 0.000029 0.000000 0.029316 0.000000
# 6 0.000000 0.000000 0.000000 -0.000171 0.000000 0.058184
#
#
# Mechanical properties :
#
#
# Convention : Reuss Voigt Hill
#
# Bulk Modulus (GPa) = 24.66042 67.70785 46.18413
# Shear Modulus (GPa) = 21.24684 29.91796 25.58240
#
# Velocity S-wave (km/s) = 3.22676 3.82900 3.54071
# Velocity P-wave (km/s) = 5.09583 7.26144 6.27280
#
# Compressibility (1/GPa) = 0.04055082
#
# Stress axis : x y z
#
# Youngs Moduli (GPa) = 126.15151 20.59996 82.01917
#
# Poissons Ratio (x) = 0.17468 0.34731
# Poissons Ratio (y) = 1.06975 0.11005
# Poissons Ratio (z) = 0.53420 0.02764
#
# Static dielectric constant tensor:
#      x y z
#    x 1.765920 0.000000 0.000090 
#    y 0.000000 1.731170 0.000000 
#    z 0.000090 0.000000 1.777340 
# 
# From -- ./inp_files/231365.got.cif
#   From: 2010.05.17/outbox.cif.g08.bks.cpg/sg15_116_cif.got.tgz:231365.got - 2010.06.03 18:47:42.
