data_PCOD9262869
_publ_section_title
;
Structure prediction by ZEFSAII (Michael W. Deem and Ramdas Pophale) SiO2 
 PCOD9262869
Probable space group: C 2/C
;
_chemical_formula_sum "Si O2"
_cell_formula_units_Z 40
_cell_length_a 10.280489
_cell_length_b 9.156261
_cell_length_c 26.019102
_cell_angle_alpha 90.000000
_cell_angle_beta 39.878972
_cell_angle_gamma 90.000000
_cell_volume 1570.348707
_symmetry_space_group_name_H-M "C 2/C"
_symmetry_group_IT_number 15
_symmetry_cell_setting 'monoclinic'
loop_
_space_group_symop_operation_xyz
x,y,z
-x,y,1/2-z
-x,-y,-z
x,-y,1/2+z
1/2+x,1/2+y,z
1/2-x,1/2+y,1/2-z
1/2-x,1/2-y,-z
1/2+x,1/2-y,1/2+z
loop_
_atom_site_type_symbol
_atom_site_label
_atom_site_fract_x
_atom_site_fract_y
_atom_site_fract_z
Si Si1 0.268746 0.733046 0.300535
Si Si2 0.343867 0.972207 0.752893
Si Si3 0.427841 0.095157 0.474037
Si Si4 0.005140 0.831991 0.980071
Si Si5 0.073145 0.658143 0.595166
O O1 0.500000 0.723650 0.250000
O O2 0.202355 0.903156 0.320530
O O3 0.253553 0.657539 0.249276
O O4 0.114440 0.644896 0.382143
O O5 0.500000 0.924600 0.750000
O O6 0.454948 0.073917 0.675970
O O7 0.345294 0.241246 0.526927
O O8 0.500000 0.000000 0.500000
O O9 0.325945 0.972143 0.469972
O O10 0.773961 0.775089 0.059244
O O11 0.038491 0.768623 0.911377
O O12 0.000000 0.000000 0.000000
#
# Coordination Sequence:
#
# PCOD9262869 Si02
#       5
#     8   8   8   8   8
#     4  10  21  38  61  84 111 152 196 238 285 343
#     4  10  21  37  56  81 115 150 188 237 290 342
#     4   9  19  38  56  78 115 147 179 235 292 332
#     4  10  19  33  57  82 105 143 189 229 280 342
#     4   9  20  36  52  77 113 145 180 233 287 339
#
# _framework density 25.472048999999998
#
# number of rings (size 3 to 8) (size 9 to 14) (size 15 to 20)
#    0.000    2.400    0.000    2.400    0.000    4.800 
#    0.000   10.000    0.000    0.000    0.000    0.000 
#    0.000    0.000    0.000    0.000    0.000    0.000 
#
# Total GULP energy -111476.797208 kJ/mol
# GULP energy per Si atom -5573.839860 kJ/mol
# Density = 2.541407 g / cm^3
# Si number density = 25.472049 Si / 1000 Ang^3
#
#
#
# Elastic Constant Matrix: (Units=GPa)
#
#
# Indices 1 2 3 4 5 6 
#
# 1 146.8525 76.3200 18.8655 0.0000 42.1601 0.0000
# 2 76.3200 158.3282 -4.0698 0.0000 25.1542 0.0000
# 3 18.8655 -4.0698 62.2646 0.0000 30.7497 0.0000
# 4 0.0000 0.0000 0.0000 28.4283 0.0000 13.8238
# 5 42.1601 25.1542 30.7497 0.0000 36.7914 0.0000
# 6 0.0000 0.0000 0.0000 13.8238 0.0000 48.5214
#
#
#
# Elastic Compliance Matrix: (Units=1/GPa)
#
#
# Indices 1 2 3 4 5 6 
#
# 1 0.012407 -0.003631 0.003063 0.000000 -0.014296 0.000000
# 2 -0.003631 0.009133 0.004642 0.000000 -0.005963 0.000000
# 3 0.003063 0.004642 0.031906 0.000000 -0.033351 0.000000
# 4 0.000000 0.000000 0.000000 0.040833 0.000000 -0.011633
# 5 -0.014296 -0.005963 -0.033351 0.000000 0.075514 0.000000
# 6 0.000000 0.000000 0.000000 -0.011633 0.000000 0.023924
#
#
# Mechanical properties :
#
#
# Convention : Reuss Voigt Hill
#
# Bulk Modulus (GPa) = 16.23484 61.07520 38.65502
# Shear Modulus (GPa) = 24.26015 41.17018 32.71517
#
# Velocity S-wave (km/s) = 3.08948 4.02467 3.58768
# Velocity P-wave (km/s) = 4.37195 6.75475 5.68949
#
# Compressibility (1/GPa) = 0.06159594
#
# Stress axis : x y z
#
# Youngs Moduli (GPa) = 80.59925 109.49456 31.34173
#
# Poissons Ratio (x) = 0.39754 -0.09601
# Poissons Ratio (y) = 0.29263 -0.14549
# Poissons Ratio (z) = -0.24691 -0.50828
#
# Static dielectric constant tensor:
#      x y z
#    x 1.975400 0.000000 0.092750 
#    y 0.000000 2.078980 0.000000 
#    z 0.092750 0.000000 2.128510 
# 
# From -- ./inp_files/195065.got.cif
#   From: 2010.05.17/outbox.cif.g08.bks.cpg/sg15_98_cif.got.tgz:195065.got - 2010.06.03 18:47:42.
