data_PCOD9262860
_publ_section_title
;
Structure prediction by ZEFSAII (Michael W. Deem and Ramdas Pophale) SiO2 
 PCOD9262860
Probable space group: C 2/C
;
_chemical_formula_sum "Si O2"
_cell_formula_units_Z 56
_cell_length_a 10.725509
_cell_length_b 28.055325
_cell_length_c 8.987265
_cell_angle_alpha 90.000000
_cell_angle_beta 122.812896
_cell_angle_gamma 90.000000
_cell_volume 2272.845334
_symmetry_space_group_name_H-M "C 2/C"
_symmetry_group_IT_number 15
_symmetry_cell_setting 'monoclinic'
loop_
_space_group_symop_operation_xyz
x,y,z
-x,y,1/2-z
-x,-y,-z
x,-y,1/2+z
1/2+x,1/2+y,z
1/2-x,1/2+y,1/2-z
1/2-x,1/2-y,-z
1/2+x,1/2-y,1/2+z
loop_
_atom_site_type_symbol
_atom_site_label
_atom_site_fract_x
_atom_site_fract_y
_atom_site_fract_z
Si Si1 0.679310 0.907852 0.379249
Si Si2 0.134507 0.926758 0.747230
Si Si3 0.162585 0.763496 0.595112
Si Si4 0.551645 0.189327 0.115204
Si Si5 0.823718 0.480526 0.626889
Si Si6 0.070462 0.858283 0.450728
Si Si7 0.834309 0.611714 0.950385
O O1 0.500000 0.904958 0.250000
O O2 0.769010 0.892440 0.582563
O O3 0.727029 0.883994 0.255913
O O4 0.717331 0.964402 0.414166
O O5 0.242385 0.959988 0.719804
O O6 0.052648 0.894423 0.571951
O O7 0.000000 0.951255 0.750000
O O8 0.250000 0.750000 0.500000
O O9 0.283311 0.787857 0.783988
O O10 0.042309 0.804414 0.477567
O O11 0.063434 0.717315 0.568390
O O12 0.500000 0.200880 0.250000
O O13 0.500243 0.133647 0.063693
O O14 0.804498 0.442988 0.479494
O O15 0.000000 0.480495 0.750000
O O16 0.244739 0.859562 0.517106
O O17 0.000000 0.872999 0.250000
#
# Coordination Sequence:
#
# PCOD9262860 Si02
#       7
#     8   8   8   8   8   8   8
#     4  11  24  41  64  96 134 179 221 281 347 405
#     4  11  25  43  63  96 138 177 220 279 352 405
#     4  10  19  33  59  96 128 159 211 286 332 366
#     4  10  19  33  56  96 129 160 207 282 331 371
#     4  10  22  41  68  96 129 175 235 288 329 392
#     4  11  22  38  64  92 127 172 225 276 331 397
#     4  11  21  35  64  92 129 167 229 269 327 402
#
# _framework density 24.638719999999999
#
# number of rings (size 3 to 8) (size 9 to 14) (size 15 to 20)
#    0.000    1.429    2.857    4.286    4.000    2.857 
#    0.000    3.571    0.000    1.714    0.000    0.000 
#    0.000    0.000    0.000    0.000    0.000    0.000 
#
# Total GULP energy -156140.251804 kJ/mol
# GULP energy per Si atom -5576.437564 kJ/mol
# Density = 2.458264 g / cm^3
# Si number density = 24.638720 Si / 1000 Ang^3
#
#
#
# Elastic Constant Matrix: (Units=GPa)
#
#
# Indices 1 2 3 4 5 6 
#
# 1 104.0308 5.1171 24.6051 0.0000 6.0834 0.0000
# 2 5.1171 77.2297 6.7298 0.0000 -11.0058 0.0000
# 3 24.6051 6.7298 122.4415 0.0000 14.4371 0.0000
# 4 0.0000 0.0000 0.0000 13.4127 0.0000 1.7707
# 5 6.0834 -11.0058 14.4371 0.0000 23.0124 0.0000
# 6 0.0000 0.0000 0.0000 1.7707 0.0000 5.6877
#
#
#
# Elastic Compliance Matrix: (Units=1/GPa)
#
#
# Indices 1 2 3 4 5 6 
#
# 1 0.010186 -0.000800 -0.001771 0.000000 -0.001964 0.000000
# 2 -0.000800 0.014282 -0.001571 0.000000 0.008028 0.000000
# 3 -0.001771 -0.001571 0.009333 0.000000 -0.006138 0.000000
# 4 0.000000 0.000000 0.000000 0.077752 0.000000 -0.024206
# 5 -0.001964 0.008028 -0.006138 0.000000 0.051664 0.000000
# 6 0.000000 0.000000 0.000000 -0.024206 0.000000 0.183354
#
#
# Mechanical properties :
#
#
# Convention : Reuss Voigt Hill
#
# Bulk Modulus (GPa) = 39.19048 41.84510 40.51779
# Shear Modulus (GPa) = 13.76042 26.23923 19.99983
#
# Velocity S-wave (km/s) = 2.36580 3.26691 2.85217
# Velocity P-wave (km/s) = 4.83769 5.59023 5.22752
#
# Compressibility (1/GPa) = 0.02551640
#
# Stress axis : x y z
#
# Youngs Moduli (GPa) = 98.17675 70.01679 107.14440
#
# Poissons Ratio (x) = 0.05605 0.18978
# Poissons Ratio (y) = 0.07859 0.16829
# Poissons Ratio (z) = 0.17390 0.10997
#
# Static dielectric constant tensor:
#      x y z
#    x 2.051940 0.000000 0.074120 
#    y 0.000000 2.035590 0.000000 
#    z 0.074120 0.000000 2.044940 
# 
# From -- ./inp_files/35781.got.cif
#   From: 2010.05.17/outbox.cif.g08.bks.cpg/sg15_18_cif.got.tgz:35781.got - 2010.06.03 18:47:42.
