data_PCOD9262301
_publ_section_title
;
Structure prediction by ZEFSAII (Michael W. Deem and Ramdas Pophale) SiO2 
 PCOD9262301
Probable space group: C 2/C
;
_chemical_formula_sum "Si O2"
_cell_formula_units_Z 48
_cell_length_a 5.224641
_cell_length_b 22.970756
_cell_length_c 23.850198
_cell_angle_alpha 90.000000
_cell_angle_beta 62.051125
_cell_angle_gamma 90.000000
_cell_volume 2528.508893
_symmetry_space_group_name_H-M "C 2/C"
_symmetry_group_IT_number 15
_symmetry_cell_setting 'monoclinic'
loop_
_space_group_symop_operation_xyz
x,y,z
-x,y,1/2-z
-x,-y,-z
x,-y,1/2+z
1/2+x,1/2+y,z
1/2-x,1/2+y,1/2-z
1/2-x,1/2-y,-z
1/2+x,1/2-y,1/2+z
loop_
_atom_site_type_symbol
_atom_site_label
_atom_site_fract_x
_atom_site_fract_y
_atom_site_fract_z
Si Si1 0.188709 0.555970 0.589121
Si Si2 0.926354 0.325938 0.439383
Si Si3 0.115516 0.625833 0.381461
Si Si4 0.543617 0.693690 0.416278
Si Si5 0.170849 0.524643 0.290641
Si Si6 0.845537 0.424796 0.017842
O O1 0.066888 0.545545 0.538690
O O2 0.531066 0.547735 0.554968
O O3 0.130632 0.625394 0.601697
O O4 0.016210 0.518569 0.651376
O O5 0.157635 0.358308 0.456301
O O6 0.641464 0.319831 0.508070
O O7 0.018947 0.262722 0.410234
O O8 0.868841 0.672059 0.390762
O O9 0.968484 0.584009 0.443450
O O10 0.383983 0.657456 0.383851
O O11 0.193318 0.585729 0.321201
O O12 0.500000 0.502574 0.250000
O O13 0.000000 0.531192 0.250000
#
# Coordination Sequence:
#
# PCOD9262301 Si02
#       6
#     8   8   8   8   8   8
#     4  10  20  37  58  87 116 150 191 241 290 348
#     4   8  19  31  58  91 131 141 179 219 303 367
#     4  11  21  37  57  89 119 155 190 233 294 356
#     4  10  19  32  58  92 128 152 171 224 300 373
#     4  12  27  44  61  76 111 165 210 251 283 335
#     4   9  18  33  57  95 118 140 176 236 303 345
#
# _framework density 18.983521
#
# number of rings (size 3 to 8) (size 9 to 14) (size 15 to 20)
#    1.000    1.000    1.667    2.000    2.333    3.333 
#    0.000    0.000    0.000    6.000    0.000    0.000 
#    0.000    0.000    0.000    0.000    0.000    0.000 
#
# Total GULP energy -133900.135889 kJ/mol
# GULP energy per Si atom -5579.172329 kJ/mol
# Density = 1.894031 g / cm^3
# Si number density = 18.983521 Si / 1000 Ang^3
#
#
#
# Elastic Constant Matrix: (Units=GPa)
#
#
# Indices 1 2 3 4 5 6 
#
# 1 90.9448 -1.4922 26.2817 0.0000 -0.2619 0.0000
# 2 -1.4922 93.2540 26.0057 0.0000 9.4342 0.0000
# 3 26.2817 26.0057 70.0068 0.0000 8.7168 0.0000
# 4 0.0000 0.0000 0.0000 9.7561 0.0000 -4.2943
# 5 -0.2619 9.4342 8.7168 0.0000 24.5613 0.0000
# 6 0.0000 0.0000 0.0000 -4.2943 0.0000 22.3304
#
#
#
# Elastic Compliance Matrix: (Units=1/GPa)
#
#
# Indices 1 2 3 4 5 6 
#
# 1 0.012619 0.001589 -0.005512 0.000000 0.001480 0.000000
# 2 0.001589 0.012402 -0.004826 0.000000 -0.003034 0.000000
# 3 -0.005512 -0.004826 0.018751 0.000000 -0.004860 0.000000
# 4 0.000000 0.000000 0.000000 0.111979 0.000000 0.021535
# 5 0.001480 -0.003034 -0.004860 0.000000 0.043620 0.000000
# 6 0.000000 0.000000 0.000000 0.021535 0.000000 0.048923
#
#
# Mechanical properties :
#
#
# Convention : Reuss Voigt Hill
#
# Bulk Modulus (GPa) = 38.05914 39.53290 38.79602
# Shear Modulus (GPa) = 18.21162 24.89024 21.55093
#
# Velocity S-wave (km/s) = 3.10068 3.62491 3.37299
# Velocity P-wave (km/s) = 5.73681 6.19597 5.97080
#
# Compressibility (1/GPa) = 0.02627490
#
# Stress axis : x y z
#
# Youngs Moduli (GPa) = 79.24598 80.63532 53.32926
#
# Poissons Ratio (x) = -0.12815 0.29395
# Poissons Ratio (y) = -0.12595 0.25735
# Poissons Ratio (z) = 0.43681 0.38912
#
# Static dielectric constant tensor:
#      x y z
#    x 1.662620 0.000000 0.006280 
#    y 0.000000 1.719470 0.000000 
#    z 0.006280 0.000000 1.629820 
# 
# From -- ./inp_files/227293.got.cif
#   From: 2010.05.17/outbox.cif.g08.bks.cpg/sg15_114_cif.got.tgz:227293.got - 2010.06.03 18:47:42.
