data_PCOD9262525
_publ_section_title
;
Structure prediction by ZEFSAII (Michael W. Deem and Ramdas Pophale) SiO2 
 PCOD9262525
Probable space group: C 2/C
;
_chemical_formula_sum "Si O2"
_cell_formula_units_Z 48
_cell_length_a 14.960986
_cell_length_b 20.473161
_cell_length_c 15.417539
_cell_angle_alpha 90.000000
_cell_angle_beta 152.692688
_cell_angle_gamma 90.000000
_cell_volume 2166.449226
_symmetry_space_group_name_H-M "C 2/C"
_symmetry_group_IT_number 15
_symmetry_cell_setting 'monoclinic'
loop_
_space_group_symop_operation_xyz
x,y,z
-x,y,1/2-z
-x,-y,-z
x,-y,1/2+z
1/2+x,1/2+y,z
1/2-x,1/2+y,1/2-z
1/2-x,1/2-y,-z
1/2+x,1/2-y,1/2+z
loop_
_atom_site_type_symbol
_atom_site_label
_atom_site_fract_x
_atom_site_fract_y
_atom_site_fract_z
Si Si1 0.873252 0.684553 0.939046
Si Si2 0.213792 0.506804 0.980267
Si Si3 0.513936 0.067402 0.959379
Si Si4 0.286984 0.356895 0.036300
Si Si5 0.555419 0.332592 0.507875
Si Si6 0.412125 0.444484 0.487142
O O1 0.017841 0.630583 0.024322
O O2 0.863907 0.683893 0.035888
O O3 0.658409 0.664520 0.720989
O O4 0.910207 0.757582 0.939466
O O5 0.378523 0.529680 0.054931
O O6 0.000000 0.504180 0.750000
O O7 0.182188 0.554586 0.034273
O O8 0.257642 0.431763 0.041350
O O9 0.308779 0.071638 0.732046
O O10 0.500000 0.000000 0.000000
O O11 0.500000 0.334437 0.250000
O O12 0.294314 0.353851 0.938537
O O13 0.540468 0.381312 0.575765
O O14 0.500000 0.500000 0.500000
#
# Coordination Sequence:
#
# PCOD9262525 Si02
#       6
#     8   8   8   8   8   8
#     4  10  21  35  52  76 108 142 176 216 263 315
#     4  10  20  33  54  83 108 135 174 219 266 314
#     4  10  20  35  55  79 107 139 176 219 263 312
#     4  10  19  33  53  79 109 137 171 219 267 314
#     4  10  21  35  52  76 108 142 176 216 263 315
#     4  10  20  35  55  79 107 139 176 219 263 312
#
# _framework density 22.156068999999999
#
# number of rings (size 3 to 8) (size 9 to 14) (size 15 to 20)
#    0.000    2.000    3.333    0.500    0.000    2.667 
#    0.000    0.833    0.000    0.000    0.000    0.000 
#    0.000    0.000    0.000    0.000    0.000    0.000 
#
# Total GULP energy -134104.379847 kJ/mol
# GULP energy per Si atom -5587.682494 kJ/mol
# Density = 2.210564 g / cm^3
# Si number density = 22.156069 Si / 1000 Ang^3
#
#
#
# Elastic Constant Matrix: (Units=GPa)
#
#
# Indices 1 2 3 4 5 6 
#
# 1 145.4543 69.0744 3.2677 0.0000 27.8069 0.0000
# 2 69.0744 151.2460 -16.9165 0.0000 19.1555 0.0000
# 3 3.2677 -16.9165 70.1307 0.0000 18.4451 0.0000
# 4 0.0000 0.0000 0.0000 18.0240 0.0000 -2.1874
# 5 27.8069 19.1555 18.4451 0.0000 28.0057 0.0000
# 6 0.0000 0.0000 0.0000 -2.1874 0.0000 37.5089
#
#
#
# Elastic Compliance Matrix: (Units=1/GPa)
#
#
# Indices 1 2 3 4 5 6 
#
# 1 0.010066 -0.003466 0.000847 0.000000 -0.008181 0.000000
# 2 -0.003466 0.009317 0.003846 0.000000 -0.005464 0.000000
# 3 0.000847 0.003846 0.019425 0.000000 -0.016265 0.000000
# 4 0.000000 0.000000 0.000000 0.055877 0.000000 0.003259
# 5 -0.008181 -0.005464 -0.016265 0.000000 0.058280 0.000000
# 6 0.000000 0.000000 0.000000 0.003259 0.000000 0.026850
#
#
# Mechanical properties :
#
#
# Convention : Reuss Voigt Hill
#
# Bulk Modulus (GPa) = 24.23598 53.07579 38.65588
# Shear Modulus (GPa) = 26.16196 37.46808 31.81502
#
# Velocity S-wave (km/s) = 3.44001 4.11676 3.79350
# Velocity P-wave (km/s) = 5.17114 6.82674 6.05579
#
# Compressibility (1/GPa) = 0.04126097
#
# Stress axis : x y z
#
# Youngs Moduli (GPa) = 99.34234 107.33027 51.47942
#
# Poissons Ratio (x) = 0.37205 -0.04358
# Poissons Ratio (y) = 0.34436 -0.19799
# Poissons Ratio (z) = -0.08411 -0.41279
#
# Static dielectric constant tensor:
#      x y z
#    x 1.831880 0.000000 -0.002520 
#    y 0.000000 1.773440 0.000000 
#    z -0.002520 0.000000 1.855790 
# 
# From -- ./inp_files/39591.got.cif
#   From: 2010.05.17/outbox.cif.g08.bks.cpg/sg15_20_cif.got.tgz:39591.got - 2010.06.03 18:47:42.
