data_PCOD9262114
_publ_section_title
;
Structure prediction by ZEFSAII (Michael W. Deem and Ramdas Pophale) SiO2 
 PCOD9262114
Probable space group: C 2/C
;
_chemical_formula_sum "Si O2"
_cell_formula_units_Z 64
_cell_length_a 18.457282
_cell_length_b 13.621470
_cell_length_c 14.044181
_cell_angle_alpha 90.000000
_cell_angle_beta 75.033011
_cell_angle_gamma 90.000000
_cell_volume 3411.134868
_symmetry_space_group_name_H-M "C 2/C"
_symmetry_group_IT_number 15
_symmetry_cell_setting 'monoclinic'
loop_
_space_group_symop_operation_xyz
x,y,z
-x,y,1/2-z
-x,-y,-z
x,-y,1/2+z
1/2+x,1/2+y,z
1/2-x,1/2+y,1/2-z
1/2-x,1/2-y,-z
1/2+x,1/2-y,1/2+z
loop_
_atom_site_type_symbol
_atom_site_label
_atom_site_fract_x
_atom_site_fract_y
_atom_site_fract_z
Si Si1 0.934516 0.644481 0.836363
Si Si2 0.017442 0.781075 0.942364
Si Si3 0.021673 0.012524 0.102884
Si Si4 0.041528 0.817878 0.328616
Si Si5 0.178073 0.986034 0.647766
Si Si6 0.852892 0.205529 0.222121
Si Si7 0.791088 0.160846 0.722552
Si Si8 0.266665 0.134932 0.962297
O O1 0.905162 0.730352 0.775283
O O2 0.853335 0.610490 0.905286
O O3 0.000000 0.591071 0.750000
O O4 0.978801 0.685822 0.912042
O O5 0.105428 0.789241 0.892759
O O6 0.986468 0.870854 0.887017
O O7 0.996912 0.790823 0.059088
O O8 0.104919 0.985937 0.109347
O O9 0.964665 0.937479 0.172225
O O10 0.000000 0.000000 0.000000
O O11 0.127678 0.790146 0.300899
O O12 0.000000 0.779059 0.250000
O O13 0.155352 0.901798 0.731224
O O14 0.236178 0.933964 0.556195
O O15 0.210096 0.077390 0.696208
O O16 0.774072 0.260113 0.243662
O O17 0.779927 0.118990 0.619427
O O18 0.250000 0.250000 0.000000
#
# Coordination Sequence:
#
# PCOD9262114 Si02
#       8
#     8   8   8   8   8   8   8   8
#     4   9  17  31  56  88 111 143 202 259 291 347
#     4  10  19  32  57  81 112 154 197 247 302 355
#     4  10  19  32  53  87 122 146 189 242 318 381
#     4  11  21  34  52  79 117 157 189 238 308 379
#     4  12  21  36  62  91 129 161 198 258 315 366
#     4  10  21  35  55  87 122 156 203 249 301 368
#     4  11  23  37  57  91 126 156 206 253 309 368
#     4  11  19  37  62  87 119 161 208 250 302 371
#
# _framework density 18.762083000000001
#
# number of rings (size 3 to 8) (size 9 to 14) (size 15 to 20)
#    0.000    1.500    5.000    3.000    0.000    1.000 
#    0.000    0.625    0.000    6.750    0.000    0.000 
#    0.000    0.000    0.000    0.000    0.000    0.000 
#
# Total GULP energy -178244.231301 kJ/mol
# GULP energy per Si atom -5570.132228 kJ/mol
# Density = 1.871938 g / cm^3
# Si number density = 18.762083 Si / 1000 Ang^3
#
#
#
# Elastic Constant Matrix: (Units=GPa)
#
#
# Indices 1 2 3 4 5 6 
#
# 1 122.6423 19.1299 71.5671 0.0000 -7.6265 0.0000
# 2 19.1299 24.7800 24.1595 0.0000 4.3223 0.0000
# 3 71.5671 24.1595 136.5253 0.0000 -8.0412 0.0000
# 4 0.0000 0.0000 0.0000 28.2415 0.0000 -1.9232
# 5 -7.6265 4.3223 -8.0412 0.0000 33.8573 0.0000
# 6 0.0000 0.0000 0.0000 -1.9232 0.0000 21.2436
#
#
#
# Elastic Compliance Matrix: (Units=1/GPa)
#
#
# Indices 1 2 3 4 5 6 
#
# 1 0.012161 -0.004395 -0.005479 0.000000 0.001999 0.000000
# 2 -0.004395 0.052828 -0.007607 0.000000 -0.009541 0.000000
# 3 -0.005479 -0.007607 0.011691 0.000000 0.002514 0.000000
# 4 0.000000 0.000000 0.000000 0.035629 0.000000 0.003225
# 5 0.001999 -0.009541 0.002514 0.000000 0.031801 0.000000
# 6 0.000000 0.000000 0.000000 0.003225 0.000000 0.047365
#
#
# Mechanical properties :
#
#
# Convention : Reuss Voigt Hill
#
# Bulk Modulus (GPa) = 23.97002 57.07340 40.52171
# Shear Modulus (GPa) = 20.80360 27.94120 24.37240
#
# Velocity S-wave (km/s) = 3.33349 3.86325 3.60811
# Velocity P-wave (km/s) = 5.25545 7.09825 6.24520
#
# Compressibility (1/GPa) = 0.04171877
#
# Stress axis : x y z
#
# Youngs Moduli (GPa) = 82.22940 18.92927 85.53473
#
# Poissons Ratio (x) = 0.08319 0.46869
# Poissons Ratio (y) = 0.36137 0.65064
# Poissons Ratio (z) = 0.45058 0.14399
#
# Static dielectric constant tensor:
#      x y z
#    x 1.678620 0.000000 -0.033830 
#    y 0.000000 1.684130 0.000000 
#    z -0.033830 0.000000 1.704650 
# 
# From -- ./inp_files/161922.got.cif
#   From: 2010.05.17/outbox.cif.g08.bks.cpg/sg15_81_cif.got.tgz:161922.got - 2010.06.03 18:47:42.
