data_PCOD9262383
_publ_section_title
;
Structure prediction by ZEFSAII (Michael W. Deem and Ramdas Pophale) SiO2 
 PCOD9262383
Probable space group: C 2/C
;
_chemical_formula_sum "Si O2"
_cell_formula_units_Z 48
_cell_length_a 25.371264
_cell_length_b 17.015947
_cell_length_c 5.396564
_cell_angle_alpha 90.000000
_cell_angle_beta 59.589093
_cell_angle_gamma 90.000000
_cell_volume 2009.245628
_symmetry_space_group_name_H-M "C 2/C"
_symmetry_group_IT_number 15
_symmetry_cell_setting 'monoclinic'
loop_
_space_group_symop_operation_xyz
x,y,z
-x,y,1/2-z
-x,-y,-z
x,-y,1/2+z
1/2+x,1/2+y,z
1/2-x,1/2+y,1/2-z
1/2-x,1/2-y,-z
1/2+x,1/2-y,1/2+z
loop_
_atom_site_type_symbol
_atom_site_label
_atom_site_fract_x
_atom_site_fract_y
_atom_site_fract_z
Si Si1 0.239511 0.545179 0.095093
Si Si2 0.385433 0.548325 0.726138
Si Si3 0.184863 0.710831 0.156183
Si Si4 0.430855 0.033629 0.665586
Si Si5 0.069745 0.283418 0.225896
Si Si6 0.925621 0.782932 0.286298
O O1 0.230079 0.519268 0.401970
O O2 0.197898 0.618873 0.124811
O O3 0.312343 0.565544 0.903552
O O4 0.398853 0.509163 0.427619
O O5 0.420507 0.629672 0.692609
O O6 0.142002 0.731124 0.491839
O O7 0.142600 0.744949 0.039924
O O8 0.250000 0.750000 0.000000
O O9 0.435081 0.127107 0.673120
O O10 0.500000 0.000000 0.500000
O O11 0.401851 0.003324 0.480904
O O12 0.052103 0.223768 0.486550
O O13 0.046159 0.272433 0.997661
#
# Coordination Sequence:
#
# PCOD9262383 Si02
#       6
#     8   8   8   8   8   8
#     4  10  21  32  45  65  92 129 187 243 279 337
#     4  10  19  33  50  69  96 138 187 237 285 327
#     4  10  22  36  51  72 104 153 196 245 302 340
#     4  10  21  39  63  87 117 158 194 242 302 371
#     4  10  22  35  54  79 108 146 193 241 295 349
#     4  10  21  36  52  76 106 145 192 245 295 353
#
# _framework density 23.889562000000002
#
# number of rings (size 3 to 8) (size 9 to 14) (size 15 to 20)
#    1.000    1.000    1.667    2.000    2.333    3.333 
#    0.000    0.000    0.000    0.000    0.000    0.000 
#    0.000    0.000    0.000  210.000    0.000   13.333 
#
# Total GULP energy -134074.435804 kJ/mol
# GULP energy per Si atom -5586.434825 kJ/mol
# Density = 2.383519 g / cm^3
# Si number density = 23.889562 Si / 1000 Ang^3
#
#
#
# Elastic Constant Matrix: (Units=GPa)
#
#
# Indices 1 2 3 4 5 6 
#
# 1 59.1535 6.7918 13.1714 0.0000 22.7206 0.0000
# 2 6.7918 94.3625 8.5823 0.0000 21.1090 0.0000
# 3 13.1714 8.5823 78.3891 0.0000 22.9310 0.0000
# 4 0.0000 0.0000 0.0000 35.3613 0.0000 -0.0429
# 5 22.7206 21.1090 22.9310 0.0000 30.9006 0.0000
# 6 0.0000 0.0000 0.0000 -0.0429 0.0000 40.7677
#
#
#
# Elastic Compliance Matrix: (Units=1/GPa)
#
#
# Indices 1 2 3 4 5 6 
#
# 1 0.024292 0.002811 0.001785 0.000000 -0.021105 0.000000
# 2 0.002811 0.012963 0.001665 0.000000 -0.012158 0.000000
# 3 0.001785 0.001665 0.016593 0.000000 -0.014763 0.000000
# 4 0.000000 0.000000 0.000000 0.028280 0.000000 0.000030
# 5 -0.021105 -0.012158 -0.014763 0.000000 0.067141 0.000000
# 6 0.000000 0.000000 0.000000 0.000030 0.000000 0.024529
#
#
# Mechanical properties :
#
#
# Convention : Reuss Voigt Hill
#
# Bulk Modulus (GPa) = 15.06733 32.11068 23.58901
# Shear Modulus (GPa) = 27.26266 34.96323 31.11294
#
# Velocity S-wave (km/s) = 3.38182 3.82977 3.61275
# Velocity P-wave (km/s) = 4.64432 5.74688 5.22477
#
# Compressibility (1/GPa) = 0.06636876
#
# Stress axis : x y z
#
# Youngs Moduli (GPa) = 41.16650 77.14017 60.26476
#
# Poissons Ratio (x) = -0.21681 -0.10755
# Poissons Ratio (y) = -0.11570 -0.10034
# Poissons Ratio (z) = -0.07347 -0.12844
#
# Static dielectric constant tensor:
#      x y z
#    x 2.469590 0.000000 0.051000 
#    y 0.000000 1.840980 0.000000 
#    z 0.051000 0.000000 1.951080 
# 
# From -- ./inp_files/18182.got.cif
#   From: 2010.05.17/outbox.cif.g08.bks.cpg/sg15_10_cif.got.tgz:18182.got - 2010.06.03 18:47:42.
