data_PCOD9262518
_publ_section_title
;
Structure prediction by ZEFSAII (Michael W. Deem and Ramdas Pophale) SiO2 
 PCOD9262518
Probable space group: C 2/C
;
_chemical_formula_sum "Si O2"
_cell_formula_units_Z 64
_cell_length_a 8.158587
_cell_length_b 23.484644
_cell_length_c 16.819825
_cell_angle_alpha 90.000000
_cell_angle_beta 127.438787
_cell_angle_gamma 90.000000
_cell_volume 2558.837422
_symmetry_space_group_name_H-M "C 2/C"
_symmetry_group_IT_number 15
_symmetry_cell_setting 'monoclinic'
loop_
_space_group_symop_operation_xyz
x,y,z
-x,y,1/2-z
-x,-y,-z
x,-y,1/2+z
1/2+x,1/2+y,z
1/2-x,1/2+y,1/2-z
1/2-x,1/2-y,-z
1/2+x,1/2-y,1/2+z
loop_
_atom_site_type_symbol
_atom_site_label
_atom_site_fract_x
_atom_site_fract_y
_atom_site_fract_z
Si Si1 0.906459 0.647445 0.423125
Si Si2 0.682626 0.195590 0.367609
Si Si3 0.193999 0.256874 0.390479
Si Si4 0.138715 0.977152 0.211979
Si Si5 0.343778 0.190547 0.864772
Si Si6 0.486112 0.025607 0.408816
Si Si7 0.259721 0.924019 0.644597
Si Si8 0.248188 0.635666 0.810191
O O1 0.084832 0.671008 0.418290
O O2 0.003736 0.650418 0.540226
O O3 0.736117 0.696021 0.365941
O O4 0.855486 0.584199 0.381332
O O5 0.500000 0.203312 0.250000
O O6 0.772369 0.258593 0.400289
O O7 0.816595 0.141257 0.378528
O O8 0.250000 0.250000 0.500000
O O9 0.307387 0.311159 0.384255
O O10 0.957161 0.274091 0.327495
O O11 0.134639 0.924070 0.150390
O O12 0.000000 0.973715 0.250000
O O13 0.370137 0.982129 0.316894
O O14 0.120056 0.035245 0.156547
O O15 0.202947 0.153042 0.766954
O O16 0.695311 0.046717 0.427610
O O17 0.500000 0.000000 0.500000
O O18 0.500000 0.921321 0.750000
O O19 0.000000 0.625949 0.750000
#
# Coordination Sequence:
#
# PCOD9262518 Si02
#       8
#     8   8   8   8   8   8   8   8
#     4  10  20  35  55  82 112 146 189 236 286 345
#     4  10  19  33  53  78 108 146 186 232 288 345
#     4   9  20  36  54  82 114 148 187 231 286 344
#     4  11  23  38  58  87 114 148 201 257 301 347
#     4  10  20  34  55  82 112 147 187 231 288 348
#     4  10  20  38  62  83 113 158 200 235 290 365
#     4   8  18  36  55  76 109 152 193 234 291 358
#     4  10  20  36  57  80 112 153 189 228 287 360
#
# _framework density 25.011355999999999
#
# number of rings (size 3 to 8) (size 9 to 14) (size 15 to 20)
#    0.000    2.250    0.000    3.750    0.000    4.500 
#    0.000    6.875    0.000    0.000    0.000    0.000 
#    0.000    0.000    0.000    0.000    0.000    0.000 
#
# Total GULP energy -178562.479241 kJ/mol
# GULP energy per Si atom -5580.077476 kJ/mol
# Density = 2.495443 g / cm^3
# Si number density = 25.011356 Si / 1000 Ang^3
#
#
#
# Elastic Constant Matrix: (Units=GPa)
#
#
# Indices 1 2 3 4 5 6 
#
# 1 68.0030 25.0855 -0.1234 0.0000 -11.9436 0.0000
# 2 25.0855 118.8432 26.7871 0.0000 -3.0611 0.0000
# 3 -0.1234 26.7871 63.4834 0.0000 -18.2983 0.0000
# 4 0.0000 0.0000 0.0000 21.6448 0.0000 -4.9779
# 5 -11.9436 -3.0611 -18.2983 0.0000 21.7746 0.0000
# 6 0.0000 0.0000 0.0000 -4.9779 0.0000 27.9850
#
#
#
# Elastic Compliance Matrix: (Units=1/GPa)
#
#
# Indices 1 2 3 4 5 6 
#
# 1 0.019362 -0.005199 0.006706 0.000000 0.015525 0.000000
# 2 -0.005199 0.010810 -0.006539 0.000000 -0.006827 0.000000
# 3 0.006706 -0.006539 0.025495 0.000000 0.024184 0.000000
# 4 0.000000 0.000000 0.000000 0.048171 0.000000 0.008569
# 5 0.015525 -0.006827 0.024184 0.000000 0.073804 0.000000
# 6 0.000000 0.000000 0.000000 0.008569 0.000000 0.037258
#
#
# Mechanical properties :
#
#
# Convention : Reuss Voigt Hill
#
# Bulk Modulus (GPa) = 21.92826 39.31423 30.62124
# Shear Modulus (GPa) = 20.81914 27.51958 24.16936
#
# Velocity S-wave (km/s) = 2.88824 3.32065 3.11197
# Velocity P-wave (km/s) = 4.46194 5.51860 5.01816
#
# Compressibility (1/GPa) = 0.04560326
#
# Stress axis : x y z
#
# Youngs Moduli (GPa) = 51.64824 92.50837 39.22321
#
# Poissons Ratio (x) = 0.48091 -0.26303
# Poissons Ratio (y) = 0.26850 0.25649
# Poissons Ratio (z) = -0.34635 0.60493
#
# Static dielectric constant tensor:
#      x y z
#    x 2.061710 0.000000 0.032810 
#    y 0.000000 2.028740 0.000000 
#    z 0.032810 0.000000 2.095800 
# 
# From -- ./inp_files/233892.got.cif
#   From: 2010.05.17/outbox.cif.g08.bks.cpg/sg15_117_cif.got.tgz:233892.got - 2010.06.03 18:47:42.
