data_PCOD9262194
_publ_section_title
;
Structure prediction by ZEFSAII (Michael W. Deem and Ramdas Pophale) SiO2 
 PCOD9262194
Probable space group: C 2/C
;
_chemical_formula_sum "Si O2"
_cell_formula_units_Z 56
_cell_length_a 17.962288
_cell_length_b 11.206187
_cell_length_c 11.792050
_cell_angle_alpha 90.000000
_cell_angle_beta 77.332279
_cell_angle_gamma 90.000000
_cell_volume 2315.829339
_symmetry_space_group_name_H-M "C 2/C"
_symmetry_group_IT_number 15
_symmetry_cell_setting 'monoclinic'
loop_
_space_group_symop_operation_xyz
x,y,z
-x,y,1/2-z
-x,-y,-z
x,-y,1/2+z
1/2+x,1/2+y,z
1/2-x,1/2+y,1/2-z
1/2-x,1/2-y,-z
1/2+x,1/2-y,1/2+z
loop_
_atom_site_type_symbol
_atom_site_label
_atom_site_fract_x
_atom_site_fract_y
_atom_site_fract_z
Si Si1 0.981689 0.122649 0.629796
Si Si2 0.473212 0.655396 0.134679
Si Si3 0.681907 0.307483 0.913868
Si Si4 0.845236 0.759595 0.097872
Si Si5 0.683271 0.850206 0.109101
Si Si6 0.811386 0.553207 0.250036
Si Si7 0.745815 0.440652 0.069750
O O1 0.891188 0.134562 0.637928
O O2 0.000000 0.170446 0.750000
O O3 0.010162 0.190377 0.505076
O O4 0.001114 0.982498 0.623926
O O5 0.500000 0.703664 0.250000
O O6 0.381711 0.670914 0.158539
O O7 0.763930 0.360449 0.848083
O O8 0.694688 0.169456 0.937936
O O9 0.671704 0.384667 0.033648
O O10 0.754656 0.780766 0.138065
O O11 0.863998 0.638258 0.157916
O O12 0.861274 0.737801 0.959049
O O13 0.645151 0.941923 0.207947
O O14 0.724710 0.946652 0.012089
O O15 0.745770 0.493461 0.194802
#
# Coordination Sequence:
#
# PCOD9262194 Si02
#       7
#     8   8   8   8   8   8   8
#     4  10  22  39  59  83 114 156 200 240 288 351
#     4  10  23  38  56  84 118 156 196 241 289 351
#     4  10  20  34  54  80 112 146 182 230 294 345
#     4  10  20  36  58  83 116 153 189 237 299 349
#     4   9  19  33  53  84 112 140 181 235 290 343
#     4  10  19  32  55  84 112 143 183 236 296 352
#     4   9  19  32  51  81 108 136 177 231 284 342
#
# _framework density 24.181401000000001
#
# number of rings (size 3 to 8) (size 9 to 14) (size 15 to 20)
#    0.000    2.286    0.000    2.571    0.000   12.571 
#    0.000    0.000    0.000   11.143    0.000    0.000 
#    0.000    0.000    0.000    0.000    0.000    0.000 
#
# Total GULP energy -155904.285813 kJ/mol
# GULP energy per Si atom -5568.010208 kJ/mol
# Density = 2.412636 g / cm^3
# Si number density = 24.181401 Si / 1000 Ang^3
#
#
#
# Elastic Constant Matrix: (Units=GPa)
#
#
# Indices 1 2 3 4 5 6 
#
# 1 36.2907 -10.2822 24.5052 0.0000 18.7827 0.0000
# 2 -10.2822 71.2207 23.1192 0.0000 6.5778 0.0000
# 3 24.5052 23.1192 140.3994 0.0000 20.8879 0.0000
# 4 0.0000 0.0000 0.0000 48.1235 0.0000 9.3114
# 5 18.7827 6.5778 20.8879 0.0000 35.2266 0.0000
# 6 0.0000 0.0000 0.0000 9.3114 0.0000 15.5768
#
#
#
# Elastic Compliance Matrix: (Units=1/GPa)
#
#
# Indices 1 2 3 4 5 6 
#
# 1 0.047256 0.011124 -0.006605 0.000000 -0.023357 0.000000
# 2 0.011124 0.017520 -0.003792 0.000000 -0.006954 0.000000
# 3 -0.006605 -0.003792 0.009071 0.000000 -0.001149 0.000000
# 4 0.000000 0.000000 0.000000 0.023498 0.000000 -0.014046
# 5 -0.023357 -0.006954 -0.001149 0.000000 0.042821 0.000000
# 6 0.000000 0.000000 0.000000 -0.014046 0.000000 0.072595
#
#
# Mechanical properties :
#
#
# Convention : Reuss Voigt Hill
#
# Bulk Modulus (GPa) = 13.28019 35.84390 24.56204
# Shear Modulus (GPa) = 21.15007 33.82328 27.48667
#
# Velocity S-wave (km/s) = 2.96064 3.74402 3.37514
# Velocity P-wave (km/s) = 4.14621 5.79183 5.03668
#
# Compressibility (1/GPa) = 0.07530014
#
# Stress axis : x y z
#
# Youngs Moduli (GPa) = 21.16153 57.07783 110.24594
#
# Poissons Ratio (x) = -0.63491 0.72814
# Poissons Ratio (y) = -0.23539 0.41804
# Poissons Ratio (z) = 0.13976 0.21643
#
# Static dielectric constant tensor:
#      x y z
#    x 1.990250 0.000000 -0.069150 
#    y 0.000000 1.926090 0.000000 
#    z -0.069150 0.000000 2.200370 
# 
# From -- ./inp_files/111128.got.cif
#   From: 2010.05.17/outbox.cif.g08.bks.cpg/sg15_56_cif.got.tgz:111128.got - 2010.06.03 18:47:42.
