data_PCOD9262917
_publ_section_title
;
Structure prediction by ZEFSAII (Michael W. Deem and Ramdas Pophale) SiO2 
 PCOD9262917
Probable space group: C 2/C
;
_chemical_formula_sum "Si O2"
_cell_formula_units_Z 56
_cell_length_a 24.163738
_cell_length_b 11.446318
_cell_length_c 11.931288
_cell_angle_alpha 90.000000
_cell_angle_beta 59.959701
_cell_angle_gamma 90.000000
_cell_volume 2856.744400
_symmetry_space_group_name_H-M "C 2/C"
_symmetry_group_IT_number 15
_symmetry_cell_setting 'monoclinic'
loop_
_space_group_symop_operation_xyz
x,y,z
-x,y,1/2-z
-x,-y,-z
x,-y,1/2+z
1/2+x,1/2+y,z
1/2-x,1/2+y,1/2-z
1/2-x,1/2-y,-z
1/2+x,1/2-y,1/2+z
loop_
_atom_site_type_symbol
_atom_site_label
_atom_site_fract_x
_atom_site_fract_y
_atom_site_fract_z
Si Si1 0.807839 0.219276 0.784672
Si Si2 0.699527 0.679375 0.972957
Si Si3 0.548683 0.766068 0.793417
Si Si4 0.959126 0.619653 0.545224
Si Si5 0.760262 0.441892 0.969998
Si Si6 0.100446 0.521742 0.098687
Si Si7 0.931183 0.722063 0.809482
O O1 0.800036 0.215150 0.658671
O O2 0.882628 0.213045 0.746265
O O3 0.778291 0.339470 0.864282
O O4 0.771520 0.117459 0.889006
O O5 0.716889 0.543093 0.963857
O O6 0.750000 0.750000 0.000000
O O7 0.629340 0.704202 0.093825
O O8 0.500000 0.712587 0.750000
O O9 0.566240 0.894911 0.724458
O O10 0.506777 0.783974 0.946272
O O11 0.903844 0.594713 0.510660
O O12 0.928010 0.665463 0.689538
O O13 0.000000 0.500000 0.500000
O O14 0.827480 0.498228 0.937888
O O15 0.067821 0.396353 0.116951
O O16 0.000000 0.782189 0.750000
#
# Coordination Sequence:
#
# PCOD9262917 Si02
#       7
#     8   8   8   8   8   8   8
#     4  10  24  45  70  94 136 175 222 281 328 406
#     4  12  27  41  66 102 136 175 222 278 332 402
#     4   9  18  37  60  93 122 167 221 269 336 394
#     4  11  19  30  58  87 126 166 206 278 332 385
#     4  10  24  45  67  94 129 181 224 268 341 398
#     4  10  19  33  57  89 124 163 216 269 334 388
#     4  12  22  36  57  94 133 168 215 269 340 386
#
# _framework density 19.602733000000001
#
# number of rings (size 3 to 8) (size 9 to 14) (size 15 to 20)
#    0.000    1.429    4.286    1.286    4.000    0.000 
#    0.000    0.714    0.000    2.571    0.000    0.000 
#    0.000    0.000    0.000    0.000    0.000    0.000 
#
# Total GULP energy -156242.225610 kJ/mol
# GULP energy per Si atom -5580.079486 kJ/mol
# Density = 1.955812 g / cm^3
# Si number density = 19.602733 Si / 1000 Ang^3
#
#
#
# Elastic Constant Matrix: (Units=GPa)
#
#
# Indices 1 2 3 4 5 6 
#
# 1 114.0656 28.9991 70.1577 0.0000 -11.8167 0.0000
# 2 28.9991 43.5740 34.4645 0.0000 -4.3778 0.0000
# 3 70.1577 34.4645 145.4260 0.0000 6.7255 0.0000
# 4 0.0000 0.0000 0.0000 17.4225 0.0000 -6.0192
# 5 -11.8167 -4.3778 6.7255 0.0000 33.7621 0.0000
# 6 0.0000 0.0000 0.0000 -6.0192 0.0000 22.6992
#
#
#
# Elastic Compliance Matrix: (Units=1/GPa)
#
#
# Indices 1 2 3 4 5 6 
#
# 1 0.014143 -0.003988 -0.006139 0.000000 0.005656 0.000000
# 2 -0.003988 0.030245 -0.005410 0.000000 0.003604 0.000000
# 3 -0.006139 -0.005410 0.011357 0.000000 -0.005113 0.000000
# 4 0.000000 0.000000 0.000000 0.063186 0.000000 0.016755
# 5 0.005656 0.003604 -0.005113 0.000000 0.033084 0.000000
# 6 0.000000 0.000000 0.000000 0.016755 0.000000 0.048497
#
#
# Mechanical properties :
#
#
# Convention : Reuss Voigt Hill
#
# Bulk Modulus (GPa) = 40.53696 63.36755 51.95225
# Shear Modulus (GPa) = 20.84980 26.07306 23.46143
#
# Velocity S-wave (km/s) = 3.26485 3.65097 3.46330
# Velocity P-wave (km/s) = 5.91071 7.08300 6.52324
#
# Compressibility (1/GPa) = 0.02466884
#
# Stress axis : x y z
#
# Youngs Moduli (GPa) = 70.70753 33.06329 88.05322
#
# Poissons Ratio (x) = 0.13186 0.54058
# Poissons Ratio (y) = 0.28199 0.47640
# Poissons Ratio (z) = 0.43409 0.17889
#
# Static dielectric constant tensor:
#      x y z
#    x 1.726510 0.000000 0.015460 
#    y 0.000000 1.672700 0.000000 
#    z 0.015460 0.000000 1.711140 
# 
# From -- ./inp_files/117490.got.cif
#   From: 2010.05.17/outbox.cif.g08.bks.cpg/sg15_59_cif.got.tgz:117490.got - 2010.06.03 18:47:42.
