data_PCOD9262764
_publ_section_title
;
Structure prediction by ZEFSAII (Michael W. Deem and Ramdas Pophale) SiO2 
 PCOD9262764
Probable space group: C 2/C
;
_chemical_formula_sum "Si O2"
_cell_formula_units_Z 48
_cell_length_a 18.883565
_cell_length_b 20.380016
_cell_length_c 9.925771
_cell_angle_alpha 90.000000
_cell_angle_beta 43.492285
_cell_angle_gamma 90.000000
_cell_volume 2629.077153
_symmetry_space_group_name_H-M "C 2/C"
_symmetry_group_IT_number 15
_symmetry_cell_setting 'monoclinic'
loop_
_space_group_symop_operation_xyz
x,y,z
-x,y,1/2-z
-x,-y,-z
x,-y,1/2+z
1/2+x,1/2+y,z
1/2-x,1/2+y,1/2-z
1/2-x,1/2-y,-z
1/2+x,1/2-y,1/2+z
loop_
_atom_site_type_symbol
_atom_site_label
_atom_site_fract_x
_atom_site_fract_y
_atom_site_fract_z
Si Si1 0.106088 0.459993 0.364582
Si Si2 0.014705 0.321522 0.565112
Si Si3 0.779860 0.544004 0.513579
Si Si4 0.576653 0.683254 0.515378
Si Si5 0.464289 0.556997 0.644261
Si Si6 0.713252 0.816369 0.628626
O O1 0.069594 0.384209 0.423573
O O2 0.179476 0.489360 0.147205
O O3 0.165699 0.471915 0.421435
O O4 0.000000 0.500000 0.500000
O O5 0.079736 0.255647 0.451087
O O6 0.000000 0.330387 0.750000
O O7 0.901912 0.305841 0.658715
O O8 0.657880 0.551349 0.691075
O O9 0.806674 0.618156 0.431206
O O10 0.500000 0.690927 0.750000
O O11 0.518478 0.624568 0.520106
O O12 0.691723 0.666167 0.404536
O O13 0.500000 0.549237 0.750000
O O14 0.500000 0.500000 0.500000
O O15 0.750000 0.750000 0.500000
#
# Coordination Sequence:
#
# PCOD9262764 Si02
#       6
#     8   8   8   8   8   8
#     4  12  23  38  55  87 123 158 199 241 297 364
#     4  11  19  33  55  83 118 154 193 251 298 346
#     4  12  23  36  59  87 119 156 196 241 303 356
#     4  10  19  33  55  88 113 147 201 258 292 342
#     4  11  22  39  60  87 117 153 196 251 301 354
#     4  12  18  32  57  87 116 146 198 250 303 337
#
# _framework density 18.257358
#
# number of rings (size 3 to 8) (size 9 to 14) (size 15 to 20)
#    0.000    0.667   10.000    1.500    0.000    0.000 
#    0.000    0.000    0.000    3.000    0.000    0.000 
#    0.000    0.000    0.000    0.000    0.000    0.000 
#
# Total GULP energy -133645.600228 kJ/mol
# GULP energy per Si atom -5568.566676 kJ/mol
# Density = 1.821580 g / cm^3
# Si number density = 18.257358 Si / 1000 Ang^3
#
#
#
# Elastic Constant Matrix: (Units=GPa)
#
#
# Indices 1 2 3 4 5 6 
#
# 1 133.1983 46.6938 47.0439 0.0000 -33.8866 0.0000
# 2 46.6938 163.4339 43.5492 0.0000 1.8932 0.0000
# 3 47.0439 43.5492 41.5385 0.0000 -19.4696 0.0000
# 4 0.0000 0.0000 0.0000 29.8822 0.0000 -12.5758
# 5 -33.8866 1.8932 -19.4696 0.0000 32.0153 0.0000
# 6 0.0000 0.0000 0.0000 -12.5758 0.0000 25.8516
#
#
#
# Elastic Compliance Matrix: (Units=1/GPa)
#
#
# Indices 1 2 3 4 5 6 
#
# 1 0.013704 -0.001271 -0.010286 0.000000 0.008325 0.000000
# 2 -0.001271 0.010530 -0.014718 0.000000 -0.010918 0.000000
# 3 -0.010286 -0.014718 0.064981 0.000000 0.029501 0.000000
# 4 0.000000 0.000000 0.000000 0.042079 0.000000 0.020470
# 5 0.008325 -0.010918 0.029501 0.000000 0.058632 0.000000
# 6 0.000000 0.000000 0.000000 0.020470 0.000000 0.048640
#
#
# Mechanical properties :
#
#
# Convention : Reuss Voigt Hill
#
# Bulk Modulus (GPa) = 27.27372 68.08272 47.67822
# Shear Modulus (GPa) = 16.48327 30.94209 23.71268
#
# Velocity S-wave (km/s) = 3.00797 4.12123 3.60780
# Velocity P-wave (km/s) = 5.19950 7.74710 6.59744
#
# Compressibility (1/GPa) = 0.03666533
#
# Stress axis : x y z
#
# Youngs Moduli (GPa) = 72.97244 94.96593 15.38917
#
# Poissons Ratio (x) = 0.12069 0.15829
# Poissons Ratio (y) = 0.09274 0.22650
# Poissons Ratio (z) = 0.75057 1.39771
#
# Static dielectric constant tensor:
#      x y z
#    x 2.017510 0.000000 -0.427340 
#    y 0.000000 1.796030 0.000000 
#    z -0.427340 0.000000 2.070070 
# 
# From -- ./inp_files/113402.got.cif
#   From: 2010.05.17/outbox.cif.g08.bks.cpg/sg15_57_cif.got.tgz:113402.got - 2010.06.03 18:47:42.
