data_PCOD9262267
_publ_section_title
;
Structure prediction by ZEFSAII (Michael W. Deem and Ramdas Pophale) SiO2 
 PCOD9262267
Probable space group: C 2/C
;
_chemical_formula_sum "Si O2"
_cell_formula_units_Z 40
_cell_length_a 9.289942
_cell_length_b 23.867542
_cell_length_c 7.986956
_cell_angle_alpha 90.000000
_cell_angle_beta 78.803574
_cell_angle_gamma 90.000000
_cell_volume 1737.226746
_symmetry_space_group_name_H-M "C 2/C"
_symmetry_group_IT_number 15
_symmetry_cell_setting 'monoclinic'
loop_
_space_group_symop_operation_xyz
x,y,z
-x,y,1/2-z
-x,-y,-z
x,-y,1/2+z
1/2+x,1/2+y,z
1/2-x,1/2+y,1/2-z
1/2-x,1/2-y,-z
1/2+x,1/2-y,1/2+z
loop_
_atom_site_type_symbol
_atom_site_label
_atom_site_fract_x
_atom_site_fract_y
_atom_site_fract_z
Si Si1 0.296848 0.579559 0.608193
Si Si2 0.000000 0.463766 0.750000
Si Si3 0.584374 0.698723 0.909994
Si Si4 0.500000 0.131922 0.750000
Si Si5 0.276536 0.029522 0.555846
Si Si6 0.155210 0.265562 0.358927
O O1 0.379824 0.635596 0.540421
O O2 0.124390 0.596236 0.630768
O O3 0.318140 0.567782 0.801134
O O4 0.314309 0.521208 0.506849
O O5 0.105461 0.500037 0.847047
O O6 0.124428 0.437356 0.602141
O O7 0.500000 0.695217 0.750000
O O8 0.730598 0.733465 0.822189
O O9 0.486300 0.727371 0.073616
O O10 0.413986 0.172369 0.641605
O O11 0.250000 0.250000 0.500000
#
# Coordination Sequence:
#
# PCOD9262267 Si02
#       6
#     8   4   8   4   8   8
#     4  10  19  32  57  83 120 159 200 234 302 347
#     4   8  13  24  46  68 108 148 184 234 287 312
#     4   9  19  38  64  84 117 155 195 243 305 354
#     4  10  19  32  62  88 116 158 198 240 313 352
#     4   9  16  28  49  78 116 155 194 244 281 342
#     4   9  19  36  61  88 118 149 193 250 299 359
#
# _framework density 23.025203000000001
#
# number of rings (size 3 to 8) (size 9 to 14) (size 15 to 20)
#    0.000    2.800    0.000    3.600    0.000    3.200 
#    0.000    1.000  134.200    0.000    0.000    0.000 
#    0.000    0.000    0.000    0.200    0.000    0.000 
#
# Total GULP energy -111401.670059 kJ/mol
# GULP energy per Si atom -5570.083503 kJ/mol
# Density = 2.297280 g / cm^3
# Si number density = 23.025203 Si / 1000 Ang^3
#
#
#
# Elastic Constant Matrix: (Units=GPa)
#
#
# Indices 1 2 3 4 5 6 
#
# 1 81.4723 32.5145 33.7952 0.0000 -13.8667 0.0000
# 2 32.5145 107.0061 57.6242 0.0000 -21.6178 0.0000
# 3 33.7952 57.6242 113.0731 0.0000 -11.4734 0.0000
# 4 0.0000 0.0000 0.0000 27.2136 0.0000 18.9028
# 5 -13.8667 -21.6178 -11.4734 0.0000 34.9029 0.0000
# 6 0.0000 0.0000 0.0000 18.9028 0.0000 27.3900
#
#
#
# Elastic Compliance Matrix: (Units=1/GPa)
#
#
# Indices 1 2 3 4 5 6 
#
# 1 0.015015 -0.002225 -0.002988 0.000000 0.003605 0.000000
# 2 -0.002225 0.014561 -0.006135 0.000000 0.006118 0.000000
# 3 -0.002988 -0.006135 0.012784 0.000000 -0.000784 0.000000
# 4 0.000000 0.000000 0.000000 0.070581 0.000000 -0.048711
# 5 0.003605 0.006118 -0.000784 0.000000 0.033615 0.000000
# 6 0.000000 0.000000 0.000000 -0.048711 0.000000 0.070127
#
#
# Mechanical properties :
#
#
# Convention : Reuss Voigt Hill
#
# Bulk Modulus (GPa) = 50.85387 61.04658 55.95023
# Shear Modulus (GPa) = 20.33076 29.74247 25.03661
#
# Velocity S-wave (km/s) = 2.97472 3.59797 3.30109
# Velocity P-wave (km/s) = 5.82518 6.62050 6.23553
#
# Compressibility (1/GPa) = 0.01966419
#
# Stress axis : x y z
#
# Youngs Moduli (GPa) = 66.59960 68.67668 78.22487
#
# Poissons Ratio (x) = 0.15281 0.23373
# Poissons Ratio (y) = 0.14819 0.47989
# Poissons Ratio (z) = 0.19900 0.42131
#
# Static dielectric constant tensor:
#      x y z
#    x 1.714460 0.000000 -0.035490 
#    y 0.000000 1.846580 0.000000 
#    z -0.035490 0.000000 1.893380 
# 
# From -- ./inp_files/31787.got.cif
#   From: 2010.05.17/outbox.cif.g08.bks.cpg/sg15_16_cif.got.tgz:31787.got - 2010.06.03 18:47:42.
