data_PCOD9262358
_publ_section_title
;
Structure prediction by ZEFSAII (Michael W. Deem and Ramdas Pophale) SiO2 
 PCOD9262358
Probable space group: C 2/C
;
_chemical_formula_sum "Si O2"
_cell_formula_units_Z 40
_cell_length_a 31.188394
_cell_length_b 5.455497
_cell_length_c 16.339391
_cell_angle_alpha 90.000000
_cell_angle_beta 148.043724
_cell_angle_gamma 90.000000
_cell_volume 1471.438346
_symmetry_space_group_name_H-M "C 2/C"
_symmetry_group_IT_number 15
_symmetry_cell_setting 'monoclinic'
loop_
_space_group_symop_operation_xyz
x,y,z
-x,y,1/2-z
-x,-y,-z
x,-y,1/2+z
1/2+x,1/2+y,z
1/2-x,1/2+y,1/2-z
1/2-x,1/2-y,-z
1/2+x,1/2-y,1/2+z
loop_
_atom_site_type_symbol
_atom_site_label
_atom_site_fract_x
_atom_site_fract_y
_atom_site_fract_z
Si Si1 0.916337 0.872209 0.274832
Si Si2 0.646846 0.600054 0.642979
Si Si3 0.789321 0.140570 0.983460
Si Si4 0.955567 0.371546 0.263369
Si Si5 0.677272 0.896319 0.143412
O O1 0.885035 0.907714 0.316562
O O2 0.956072 0.610312 0.322054
O O3 0.968700 0.112881 0.333480
O O4 0.837345 0.896353 0.088222
O O5 0.627961 0.355887 0.560250
O O6 0.746056 0.602188 0.793436
O O7 0.624865 0.860013 0.567843
O O8 0.723355 0.111890 0.806839
O O9 0.750000 0.250000 0.000000
O O10 0.862383 0.325409 0.083977
O O11 0.000000 0.408158 0.250000
#
# Coordination Sequence:
#
# PCOD9262358 Si02
#       5
#     8   8   8   8   8
#     4  10  20  33  57  74 105 140 176 215 259 312
#     4  10  19  33  47  79 110 143 165 210 269 322
#     4  10  20  33  57  83 106 133 176 227 262 306
#     4  10  22  36  54  78 106 141 178 219 263 313
#     4  10  20  30  50  76 116 136 167 213 269 314
#
# _framework density 27.184286
#
# number of rings (size 3 to 8) (size 9 to 14) (size 15 to 20)
#    1.200    0.800    2.000    3.000    2.800    1.600 
#    0.000    0.000    0.000    2.400    0.000    0.000 
#    0.000    0.000    0.000    0.000    0.000    0.000 
#
# Total GULP energy -111922.466043 kJ/mol
# GULP energy per Si atom -5596.123302 kJ/mol
# Density = 2.712241 g / cm^3
# Si number density = 27.184286 Si / 1000 Ang^3
#
#
#
# Elastic Constant Matrix: (Units=GPa)
#
#
# Indices 1 2 3 4 5 6 
#
# 1 216.9878 62.9315 14.6689 -0.0001 28.0085 -0.0001
# 2 62.9315 253.9806 -2.3129 -0.0005 19.4191 0.0002
# 3 14.6689 -2.3129 63.5074 0.0000 -8.9878 0.0001
# 4 -0.0001 -0.0005 0.0000 23.1206 -0.0001 3.4607
# 5 28.0085 19.4191 -8.9878 -0.0001 40.6159 -0.0001
# 6 -0.0001 0.0002 0.0001 3.4607 -0.0001 40.3880
#
#
#
# Elastic Compliance Matrix: (Units=1/GPa)
#
#
# Indices 1 2 3 4 5 6 
#
# 1 0.005530 -0.001105 -0.001840 0.000000 -0.003692 0.000000
# 2 -0.001105 0.004308 0.000236 0.000000 -0.001246 0.000000
# 3 -0.001840 0.000236 0.016872 0.000000 0.004890 0.000000
# 4 0.000000 0.000000 0.000000 0.043813 0.000000 -0.003754
# 5 -0.003692 -0.001246 0.004890 0.000000 0.028845 0.000000
# 6 0.000000 0.000000 0.000000 -0.003754 0.000000 0.025082
#
#
# Mechanical properties :
#
#
# Convention : Reuss Voigt Hill
#
# Bulk Modulus (GPa) = 46.96569 76.11675 61.54122
# Shear Modulus (GPa) = 36.50553 51.43745 43.97149
#
# Velocity S-wave (km/s) = 3.66852 4.35463 4.02622
# Velocity P-wave (km/s) = 5.93788 7.30376 6.65595
#
# Compressibility (1/GPa) = 0.02129214
#
# Stress axis : x y z
#
# Youngs Moduli (GPa) = 180.83379 232.10280 59.27043
#
# Poissons Ratio (x) = 0.25639 0.10906
# Poissons Ratio (y) = 0.19976 -0.01397
# Poissons Ratio (z) = 0.33275 -0.05471
#
# Static dielectric constant tensor:
#      x y z
#    x 2.070430 0.000000 -0.011620 
#    y 0.000000 2.298160 0.000000 
#    z -0.011620 0.000000 2.217860 
# 
# From -- ./inp_files/253900.got.cif
#   From: 2010.05.17/outbox.cif.g08.bks.cpg/sg15_127_cif.got.tgz:253900.got - 2010.06.03 18:47:42.
