data_PCOD9262288
_publ_section_title
;
Structure prediction by ZEFSAII (Michael W. Deem and Ramdas Pophale) SiO2 
 PCOD9262288
Probable space group: C 2/C
;
_chemical_formula_sum "Si O2"
_cell_formula_units_Z 64
_cell_length_a 27.538061
_cell_length_b 20.061750
_cell_length_c 5.394623
_cell_angle_alpha 90.000000
_cell_angle_beta 97.171466
_cell_angle_gamma 90.000000
_cell_volume 2957.007492
_symmetry_space_group_name_H-M "C 2/C"
_symmetry_group_IT_number 15
_symmetry_cell_setting 'monoclinic'
loop_
_space_group_symop_operation_xyz
x,y,z
-x,y,1/2-z
-x,-y,-z
x,-y,1/2+z
1/2+x,1/2+y,z
1/2-x,1/2+y,1/2-z
1/2-x,1/2-y,-z
1/2+x,1/2-y,1/2+z
loop_
_atom_site_type_symbol
_atom_site_label
_atom_site_fract_x
_atom_site_fract_y
_atom_site_fract_z
Si Si1 0.274455 0.820381 0.771559
Si Si2 0.792169 0.536890 0.458022
Si Si3 0.901917 0.482969 0.479926
Si Si4 0.424856 0.666226 0.226353
Si Si5 0.863942 0.664232 0.994522
Si Si6 0.054027 0.754346 0.252522
Si Si7 0.825228 0.221667 0.150643
Si Si8 0.944842 0.022712 0.033833
O O1 0.277896 0.885302 0.952351
O O2 0.310024 0.842567 0.575164
O O3 0.217878 0.802994 0.695494
O O4 0.297814 0.752515 0.897160
O O5 0.774789 0.498732 0.693329
O O6 0.851483 0.526949 0.475078
O O7 0.928892 0.493094 0.754303
O O8 0.885040 0.407079 0.445096
O O9 0.438068 0.693278 0.510801
O O10 0.366035 0.665868 0.152106
O O11 0.444006 0.594014 0.165448
O O12 0.444166 0.713033 0.017098
O O13 0.856061 0.715352 0.767633
O O14 0.902312 0.701338 0.197335
O O15 0.000000 0.724658 0.250000
O O16 0.922250 0.976860 0.240396
O O17 0.000000 0.000000 0.000000
#
# Coordination Sequence:
#
# PCOD9262288 Si02
#       8
#     8   8   8   8   8   8   8   8
#     4  11  20  37  59  88 124 159 210 252 305 375
#     4  10  19  33  54  83 112 151 203 243 284 346
#     4  10  19  32  58  85 112 154 202 244 285 348
#     4  11  23  43  62  89 126 157 210 253 316 371
#     4  11  21  38  61  87 127 157 209 253 311 373
#     4  11  25  39  65  93 121 160 196 262 313 367
#     4  10  23  37  58  89 121 169 198 258 315 366
#     4  10  22  37  61  90 114 157 207 259 303 370
#
# _framework density 21.643505000000001
#
# number of rings (size 3 to 8) (size 9 to 14) (size 15 to 20)
#    0.000    1.500    3.750    3.000    5.250    0.000 
#    0.000    1.250    0.000    0.750    0.000    0.000 
#    0.000    0.000    0.000    0.000    0.000    0.000 
#
# Total GULP energy -178439.658115 kJ/mol
# GULP energy per Si atom -5576.239316 kJ/mol
# Density = 2.159424 g / cm^3
# Si number density = 21.643505 Si / 1000 Ang^3
#
#
#
# Elastic Constant Matrix: (Units=GPa)
#
#
# Indices 1 2 3 4 5 6 
#
# 1 77.0202 12.5422 2.9974 0.0000 -9.7028 0.0000
# 2 12.5422 91.4018 20.1513 0.0000 -1.3501 0.0000
# 3 2.9974 20.1513 128.2306 0.0000 -14.2913 0.0000
# 4 0.0000 0.0000 0.0000 7.2927 0.0000 8.3753
# 5 -9.7028 -1.3501 -14.2913 0.0000 12.9196 0.0000
# 6 0.0000 0.0000 0.0000 8.3753 0.0000 12.6602
#
#
#
# Elastic Compliance Matrix: (Units=1/GPa)
#
#
# Indices 1 2 3 4 5 6 
#
# 1 0.014850 -0.002158 0.001380 0.000000 0.012454 0.000000
# 2 -0.002158 0.011656 -0.002083 0.000000 -0.002707 0.000000
# 3 0.001380 -0.002083 0.009336 0.000000 0.011146 0.000000
# 4 0.000000 0.000000 0.000000 0.570761 0.000000 -0.377584
# 5 0.012454 -0.002707 0.011146 0.000000 0.098801 0.000000
# 6 0.000000 0.000000 0.000000 -0.377584 0.000000 0.328776
#
#
# Mechanical properties :
#
#
# Convention : Reuss Voigt Hill
#
# Bulk Modulus (GPa) = 33.20061 40.89271 37.04666
# Shear Modulus (GPa) = 4.76217 23.97196 14.36706
#
# Velocity S-wave (km/s) = 1.48494 3.33165 2.57924
# Velocity P-wave (km/s) = 4.27938 5.80815 5.10136
#
# Compressibility (1/GPa) = 0.03011993
#
# Stress axis : x y z
#
# Youngs Moduli (GPa) = 67.33924 85.79220 107.11549
#
# Poissons Ratio (x) = 0.18514 -0.14782
# Poissons Ratio (y) = 0.14532 0.22312
# Poissons Ratio (z) = -0.09293 0.17870
#
# Static dielectric constant tensor:
#      x y z
#    x 1.793710 0.000000 0.028980 
#    y 0.000000 1.826760 0.000000 
#    z 0.028980 0.000000 1.947940 
# 
# From -- ./inp_files/17455.got.cif
#   From: 2010.05.17/outbox.cif.g08.bks.cpg/sg15_9_cif.got.tgz:17455.got - 2010.06.03 18:47:42.
