data_PCOD9262761
_publ_section_title
;
Structure prediction by ZEFSAII (Michael W. Deem and Ramdas Pophale) SiO2 
 PCOD9262761
Probable space group: C 2/C
;
_chemical_formula_sum "Si O2"
_cell_formula_units_Z 56
_cell_length_a 13.982153
_cell_length_b 33.331629
_cell_length_c 8.807632
_cell_angle_alpha 90.000000
_cell_angle_beta 132.158938
_cell_angle_gamma 90.000000
_cell_volume 3042.814201
_symmetry_space_group_name_H-M "C 2/C"
_symmetry_group_IT_number 15
_symmetry_cell_setting 'monoclinic'
loop_
_space_group_symop_operation_xyz
x,y,z
-x,y,1/2-z
-x,-y,-z
x,-y,1/2+z
1/2+x,1/2+y,z
1/2-x,1/2+y,1/2-z
1/2-x,1/2-y,-z
1/2+x,1/2-y,1/2+z
loop_
_atom_site_type_symbol
_atom_site_label
_atom_site_fract_x
_atom_site_fract_y
_atom_site_fract_z
Si Si1 0.144163 0.132400 0.467533
Si Si2 0.853725 0.778423 0.530796
Si Si3 0.640730 0.374674 0.326811
Si Si4 0.349615 0.550786 0.123991
Si Si5 0.640184 0.719950 0.824745
Si Si6 0.280342 0.000528 0.277036
Si Si7 0.861309 0.561141 0.125744
O O1 0.199617 0.176305 0.502961
O O2 0.137866 0.121734 0.639727
O O3 0.205772 0.095767 0.441327
O O4 0.000000 0.136425 0.250000
O O5 0.750000 0.750000 0.500000
O O6 0.865798 0.773977 0.362594
O O7 0.000000 0.773954 0.750000
O O8 0.500000 0.383109 0.250000
O O9 0.669937 0.327411 0.388884
O O10 0.746162 0.406407 0.499655
O O11 0.500000 0.553261 0.250000
O O12 0.327068 0.526944 0.253033
O O13 0.281127 0.526391 0.918351
O O14 0.500000 0.727973 0.750000
O O15 0.750000 0.750000 0.000000
O O16 0.365271 0.033946 0.281943
O O17 0.339457 0.970932 0.465691
O O18 0.000000 0.581172 0.250000
#
# Coordination Sequence:
#
# PCOD9262761 Si02
#       7
#     8   8   8   8   8   8   8
#     4   9  19  35  58  81 120 149 183 230 293 337
#     4  10  20  37  61  87 116 157 195 237 287 349
#     4  10  22  38  61  88 118 150 194 241 292 341
#     4  10  19  33  55  87 115 146 187 239 288 335
#     4  10  21  39  62  91 122 158 193 242 296 355
#     4  10  22  36  56  79 113 152 196 236 288 344
#     4  11  23  40  58  81 115 157 196 239 291 345
#
# _framework density 18.404017
#
# number of rings (size 3 to 8) (size 9 to 14) (size 15 to 20)
#    0.000    2.000    1.429    1.714    4.000    4.000 
#    0.000    0.000    0.000    0.000    0.000    0.000 
#    0.000    0.000    0.000    0.000    0.000    0.000 
#
# Total GULP energy -156045.633898 kJ/mol
# GULP energy per Si atom -5573.058353 kJ/mol
# Density = 1.836213 g / cm^3
# Si number density = 18.404017 Si / 1000 Ang^3
#
#
#
# Elastic Constant Matrix: (Units=GPa)
#
#
# Indices 1 2 3 4 5 6 
#
# 1 88.4428 65.4635 23.7361 0.0000 19.0256 0.0000
# 2 65.4635 129.6944 40.6586 0.0000 10.7280 0.0000
# 3 23.7361 40.6586 46.5995 0.0000 6.9426 0.0000
# 4 0.0000 0.0000 0.0000 18.2703 0.0000 3.3809
# 5 19.0256 10.7280 6.9426 0.0000 23.5150 0.0000
# 6 0.0000 0.0000 0.0000 3.3809 0.0000 27.7910
#
#
#
# Elastic Compliance Matrix: (Units=1/GPa)
#
#
# Indices 1 2 3 4 5 6 
#
# 1 0.021196 -0.009441 -0.000675 0.000000 -0.012643 0.000000
# 2 -0.009441 0.014929 -0.008724 0.000000 0.003403 0.000000
# 3 -0.000675 -0.008724 0.030063 0.000000 -0.004349 0.000000
# 4 0.000000 0.000000 0.000000 0.055994 0.000000 -0.006812
# 5 -0.012643 0.003403 -0.004349 0.000000 0.052486 0.000000
# 6 0.000000 0.000000 0.000000 -0.006812 0.000000 0.036812
#
#
# Mechanical properties :
#
#
# Convention : Reuss Voigt Hill
#
# Bulk Modulus (GPa) = 35.07869 58.27256 46.67563
# Shear Modulus (GPa) = 19.33009 22.90715 21.11862
#
# Velocity S-wave (km/s) = 3.24438 3.53183 3.39115
# Velocity P-wave (km/s) = 5.75642 6.95439 6.38357
#
# Compressibility (1/GPa) = 0.02850733
#
# Stress axis : x y z
#
# Youngs Moduli (GPa) = 47.17941 66.98244 33.26312
#
# Poissons Ratio (x) = 0.63239 0.02246
# Poissons Ratio (y) = 0.44543 0.29019
# Poissons Ratio (z) = 0.03186 0.58436
#
# Static dielectric constant tensor:
#      x y z
#    x 1.641400 0.000000 -0.000720 
#    y 0.000000 1.667150 0.000000 
#    z -0.000720 0.000000 1.644310 
# 
# From -- ./inp_files/44582.got.cif
#   From: 2010.05.17/outbox.cif.g08.bks.cpg/sg15_23_cif.got.tgz:44582.got - 2010.06.03 18:47:42.
