data_PCOD9262734
_publ_section_title
;
Structure prediction by ZEFSAII (Michael W. Deem and Ramdas Pophale) SiO2 
 PCOD9262734
Probable space group: C 2/C
;
_chemical_formula_sum "Si O2"
_cell_formula_units_Z 60
_cell_length_a 5.083717
_cell_length_b 19.281821
_cell_length_c 30.152451
_cell_angle_alpha 90.000000
_cell_angle_beta 104.983312
_cell_angle_gamma 90.000000
_cell_volume 2855.154970
_symmetry_space_group_name_H-M "C 2/C"
_symmetry_group_IT_number 15
_symmetry_cell_setting 'monoclinic'
loop_
_space_group_symop_operation_xyz
x,y,z
-x,y,1/2-z
-x,-y,-z
x,-y,1/2+z
1/2+x,1/2+y,z
1/2-x,1/2+y,1/2-z
1/2-x,1/2-y,-z
1/2+x,1/2-y,1/2+z
loop_
_atom_site_type_symbol
_atom_site_label
_atom_site_fract_x
_atom_site_fract_y
_atom_site_fract_z
Si Si1 0.780593 0.506618 0.779729
Si Si2 0.409096 0.799617 0.471338
Si Si3 0.000000 0.269032 0.250000
Si Si4 0.987401 0.820025 0.387412
Si Si5 0.942730 0.655113 0.105255
Si Si6 0.128289 0.644914 0.206954
Si Si7 0.398189 0.139666 0.831080
Si Si8 0.365393 0.338608 0.554408
O O1 0.500000 0.538189 0.750000
O O2 0.717762 0.428189 0.792027
O O3 0.895362 0.557985 0.821311
O O4 0.000000 0.503757 0.750000
O O5 0.250000 0.750000 0.500000
O O6 0.567169 0.744805 0.446020
O O7 0.642113 0.844061 0.505847
O O8 0.182150 0.844654 0.436163
O O9 0.196071 0.215075 0.284811
O O10 0.113951 0.318298 0.216104
O O11 0.676075 0.841563 0.368813
O O12 0.017532 0.737878 0.395091
O O13 0.139382 0.840529 0.348915
O O14 0.670426 0.631799 0.068132
O O15 0.923786 0.642268 0.156785
O O16 0.214399 0.632712 0.091515
O O17 0.000000 0.644963 0.250000
#
# Coordination Sequence:
#
# PCOD9262734 Si02
#       8
#     8   8   4   8   8   8   8   8
#     4  11  24  44  63  84 120 172 215 251 302 367
#     4  10  19  33  55  83 124 157 192 243 323 372
#     4  12  24  38  62  90 120 166 202 262 300 360
#     4  11  22  35  57  88 121 153 198 253 300 370
#     4  11  21  35  55  86 123 151 199 249 304 354
#     4  11  25  40  62  90 124 165 212 258 300 365
#     4  12  25  38  59  88 125 161 202 246 313 356
#     4  10  20  32  53  83 120 157 187 243 314 371
#
# _framework density 21.014620000000001
#
# number of rings (size 3 to 8) (size 9 to 14) (size 15 to 20)
#    0.000    1.067    5.333    3.200    3.733    0.000 
#    0.000    0.000    0.000    0.000    0.000    5.600 
#    0.000    0.000    0.000    0.000    0.000    0.000 
#
# Total GULP energy -167229.607716 kJ/mol
# GULP energy per Si atom -5574.320257 kJ/mol
# Density = 2.096679 g / cm^3
# Si number density = 21.014620 Si / 1000 Ang^3
#
#
#
# Elastic Constant Matrix: (Units=GPa)
#
#
# Indices 1 2 3 4 5 6 
#
# 1 83.2309 8.7354 12.2137 0.0000 4.2481 0.0000
# 2 8.7354 44.2333 10.1534 0.0000 3.3472 0.0000
# 3 12.2137 10.1534 78.3530 0.0000 11.1279 0.0000
# 4 0.0000 0.0000 0.0000 -1.2850 0.0000 5.9498
# 5 4.2481 3.3472 11.1279 0.0000 49.8915 0.0000
# 6 0.0000 0.0000 0.0000 5.9498 0.0000 5.0021
#
#
#
# Elastic Compliance Matrix: (Units=1/GPa)
#
#
# Indices 1 2 3 4 5 6 
#
# 1 0.012495 -0.002057 -0.001600 0.000000 -0.000569 0.000000
# 2 -0.002057 0.023680 -0.002630 0.000000 -0.000827 0.000000
# 3 -0.001600 -0.002630 0.013744 0.000000 -0.002753 0.000000
# 4 0.000000 0.000000 0.000000 -0.119586 0.000000 0.142245
# 5 -0.000569 -0.000827 -0.002753 0.000000 0.020761 0.000000
# 6 0.000000 0.000000 0.000000 0.142245 0.000000 0.030721
#
#
# Mechanical properties :
#
#
# Convention : Reuss Voigt Hill
#
# Bulk Modulus (GPa) = 26.77889 29.78024 28.27956
# Shear Modulus (GPa) = 731.15091 22.36936 376.76013
#
# Velocity S-wave (km/s) = 18.67298 3.26616 13.40425
# Velocity P-wave (km/s) = 21.85584 5.33157 15.90760
#
# Compressibility (1/GPa) = 0.03734285
#
# Stress axis : x y z
#
# Youngs Moduli (GPa) = 80.03498 42.22967 72.75881
#
# Poissons Ratio (x) = 0.08687 0.11643
# Poissons Ratio (y) = 0.16464 0.19139
# Poissons Ratio (z) = 0.12808 0.11108
#
# Static dielectric constant tensor:
#      x y z
#    x 1.870240 0.000000 -0.041140 
#    y 0.000000 1.744000 0.000000 
#    z -0.041140 0.000000 1.991390 
# 
# From -- ./inp_files/286430.got.cif
#   From: 2010.05.17/outbox.cif.g08.bks.cpg/sg15_144_cif.got.tgz:286430.got - 2010.06.03 18:47:42.
