data_PCOD9262669
_publ_section_title
;
Structure prediction by ZEFSAII (Michael W. Deem and Ramdas Pophale) SiO2 
 PCOD9262669
Probable space group: C 2/C
;
_chemical_formula_sum "Si O2"
_cell_formula_units_Z 64
_cell_length_a 22.246948
_cell_length_b 9.404495
_cell_length_c 21.051923
_cell_angle_alpha 90.000000
_cell_angle_beta 143.013473
_cell_angle_gamma 90.000000
_cell_volume 2649.873619
_symmetry_space_group_name_H-M "C 2/C"
_symmetry_group_IT_number 15
_symmetry_cell_setting 'monoclinic'
loop_
_space_group_symop_operation_xyz
x,y,z
-x,y,1/2-z
-x,-y,-z
x,-y,1/2+z
1/2+x,1/2+y,z
1/2-x,1/2+y,1/2-z
1/2-x,1/2-y,-z
1/2+x,1/2-y,1/2+z
loop_
_atom_site_type_symbol
_atom_site_label
_atom_site_fract_x
_atom_site_fract_y
_atom_site_fract_z
Si Si1 0.929881 0.524370 0.770015
Si Si2 0.549095 0.700298 0.710607
Si Si3 0.652416 0.444125 0.616572
Si Si4 0.353535 0.012295 0.343586
Si Si5 0.834785 0.858261 0.014567
Si Si6 0.837601 0.549361 0.569400
Si Si7 0.960958 0.218304 0.948149
Si Si8 0.242897 0.563416 0.608727
O O1 0.911625 0.356519 0.736770
O O2 0.897095 0.552701 0.814790
O O3 0.869242 0.613641 0.665570
O O4 0.048738 0.529814 0.860226
O O5 0.438813 0.655499 0.641522
O O6 0.525427 0.722992 0.615982
O O7 0.638729 0.588682 0.788909
O O8 0.757792 0.401749 0.734547
O O9 0.653148 0.440874 0.541323
O O10 0.625103 0.604542 0.611745
O O11 0.561607 0.344801 0.562772
O O12 0.430695 0.123603 0.439156
O O13 0.307198 0.930443 0.364077
O O14 0.749442 0.941351 0.979751
O O15 0.804146 0.700969 0.966290
O O16 0.785869 0.576696 0.456494
#
# Coordination Sequence:
#
# PCOD9262669 Si02
#       8
#     8   8   8   8   8   8   8   8
#     4  10  21  37  56  79 123 171 202 240 314 391
#     4  10  19  33  54  88 116 162 199 240 308 377
#     4  10  19  37  63  83 118 166 204 249 306 370
#     4  11  22  40  61  89 127 160 209 262 306 376
#     4  11  21  36  59  89 127 163 201 252 317 376
#     4  11  22  35  55  87 126 165 199 252 321 378
#     4   9  20  38  58  87 119 162 208 251 303 370
#     4  12  23  35  58  92 130 158 201 259 316 367
#
# _framework density 24.152096
#
# number of rings (size 3 to 8) (size 9 to 14) (size 15 to 20)
#    0.000    1.500    5.000    1.125    0.000    1.000 
#    0.000    0.000    0.000    0.750    0.000    0.000 
#    0.000    0.000    0.000    0.000    0.000    0.000 
#
# Total GULP energy -178309.516101 kJ/mol
# GULP energy per Si atom -5572.172378 kJ/mol
# Density = 2.409712 g / cm^3
# Si number density = 24.152096 Si / 1000 Ang^3
#
#
#
# Elastic Constant Matrix: (Units=GPa)
#
#
# Indices 1 2 3 4 5 6 
#
# 1 136.2174 9.5140 14.7310 0.0000 17.0577 0.0000
# 2 9.5140 23.3606 6.5401 0.0000 14.2064 0.0000
# 3 14.7310 6.5401 108.8448 0.0000 26.3948 0.0000
# 4 0.0000 0.0000 0.0000 14.6247 0.0000 4.7073
# 5 17.0577 14.2064 26.3948 0.0000 26.0919 0.0000
# 6 0.0000 0.0000 0.0000 4.7073 0.0000 18.7635
#
#
#
# Elastic Compliance Matrix: (Units=1/GPa)
#
#
# Indices 1 2 3 4 5 6 
#
# 1 0.008001 0.000008 0.000247 0.000000 -0.005484 0.000000
# 2 0.000008 0.067209 0.006408 0.000000 -0.043080 0.000000
# 3 0.000247 0.006408 0.012792 0.000000 -0.016591 0.000000
# 4 0.000000 0.000000 0.000000 0.074384 0.000000 -0.018661
# 5 -0.005484 -0.043080 -0.016591 0.000000 0.082151 0.000000
# 6 0.000000 0.000000 0.000000 -0.018661 0.000000 0.057976
#
#
# Mechanical properties :
#
#
# Convention : Reuss Voigt Hill
#
# Bulk Modulus (GPa) = 9.86919 36.66589 23.26754
# Shear Modulus (GPa) = 15.48160 27.73855 21.61008
#
# Velocity S-wave (km/s) = 2.53455 3.39262 2.99448
# Velocity P-wave (km/s) = 3.55815 5.52817 4.64872
#
# Compressibility (1/GPa) = 0.10132548
#
# Stress axis : x y z
#
# Youngs Moduli (GPa) = 124.98822 14.87903 78.17227
#
# Poissons Ratio (x) = -0.00011 -0.01928
# Poissons Ratio (y) = -0.00095 -0.50090
# Poissons Ratio (z) = -0.03083 -0.09534
#
# Static dielectric constant tensor:
#      x y z
#    x 2.004870 0.000000 -0.021740 
#    y 0.000000 2.020990 0.000000 
#    z -0.021740 0.000000 2.063200 
# 
# From -- ./inp_files/252579.got.cif
#   From: 2010.05.17/outbox.cif.g08.bks.cpg/sg15_127_cif.got.tgz:252579.got - 2010.06.03 18:47:42.
