data_PCOD9262927
_publ_section_title
;
Structure prediction by ZEFSAII (Michael W. Deem and Ramdas Pophale) SiO2 
 PCOD9262927
Probable space group: C 2/C
;
_chemical_formula_sum "Si O2"
_cell_formula_units_Z 56
_cell_length_a 14.213033
_cell_length_b 14.319948
_cell_length_c 23.269494
_cell_angle_alpha 90.000000
_cell_angle_beta 145.837859
_cell_angle_gamma 90.000000
_cell_volume 2659.459181
_symmetry_space_group_name_H-M "C 2/C"
_symmetry_group_IT_number 15
_symmetry_cell_setting 'monoclinic'
loop_
_space_group_symop_operation_xyz
x,y,z
-x,y,1/2-z
-x,-y,-z
x,-y,1/2+z
1/2+x,1/2+y,z
1/2-x,1/2+y,1/2-z
1/2-x,1/2-y,-z
1/2+x,1/2-y,1/2+z
loop_
_atom_site_type_symbol
_atom_site_label
_atom_site_fract_x
_atom_site_fract_y
_atom_site_fract_z
Si Si1 0.016017 0.903040 0.885688
Si Si2 0.934804 0.749713 0.066934
Si Si3 0.444792 0.951221 0.532812
Si Si4 0.594380 0.859266 0.437327
Si Si5 0.054955 0.799574 0.013953
Si Si6 0.605545 0.254774 0.752071
Si Si7 0.952838 0.093867 0.659947
O O1 0.881078 0.833430 0.789699
O O2 0.984485 0.003677 0.843375
O O3 0.203739 0.867385 0.962442
O O4 0.026177 0.888419 0.958992
O O5 0.011920 0.648276 0.089943
O O6 0.019295 0.817542 0.156642
O O7 0.922131 0.796252 0.997811
O O8 0.750000 0.750000 0.000000
O O9 0.247182 0.926178 0.435612
O O10 0.500000 0.000000 0.500000
O O11 0.475367 0.037234 0.590276
O O12 0.549497 0.789902 0.467716
O O13 0.515670 0.819663 0.339538
O O14 0.229634 0.789748 0.137127
O O15 0.500000 0.301262 0.750000
O O16 0.000000 0.100929 0.750000
#
# Coordination Sequence:
#
# PCOD9262927 Si02
#       7
#     8   8   8   8   8   8   8
#     4  10  20  34  59  92 123 159 196 250 321 372
#     4  10  23  43  60  82 118 167 210 257 304 363
#     4  10  20  38  66  82 112 158 211 248 303 364
#     4  10  19  33  57  93 118 155 194 253 315 370
#     4  11  20  35  60  90 123 159 200 253 316 367
#     4  11  18  31  55  91 132 146 191 254 314 368
#     4  10  23  40  63  86 124 164 207 252 305 377
#
# _framework density 21.056913000000002
#
# number of rings (size 3 to 8) (size 9 to 14) (size 15 to 20)
#    0.000    1.714    4.286    1.286    2.000    1.714 
#    2.571    0.714    3.143    0.000    0.000    0.000 
#    0.000    0.000    0.000    0.000    0.000    0.000 
#
# Total GULP energy -155900.038124 kJ/mol
# GULP energy per Si atom -5567.858504 kJ/mol
# Density = 2.100899 g / cm^3
# Si number density = 21.056913 Si / 1000 Ang^3
#
#
#
# Elastic Constant Matrix: (Units=GPa)
#
#
# Indices 1 2 3 4 5 6 
#
# 1 109.9124 29.6725 18.6945 0.0000 -30.9392 0.0000
# 2 29.6725 144.7609 50.2000 0.0000 -31.3372 0.0000
# 3 18.6945 50.2000 94.9352 0.0000 -35.1731 0.0000
# 4 0.0000 0.0000 0.0000 12.7626 0.0000 -10.2960
# 5 -30.9392 -31.3372 -35.1731 0.0000 28.0893 0.0000
# 6 0.0000 0.0000 0.0000 -10.2960 0.0000 28.1384
#
#
#
# Elastic Compliance Matrix: (Units=1/GPa)
#
#
# Indices 1 2 3 4 5 6 
#
# 1 0.014720 0.000072 0.005783 0.000000 0.023535 0.000000
# 2 0.000072 0.009308 -0.001976 0.000000 0.007989 0.000000
# 3 0.005783 -0.001976 0.022353 0.000000 0.032155 0.000000
# 4 0.000000 0.000000 0.000000 0.111170 0.000000 0.040678
# 5 0.023535 0.007989 0.032155 0.000000 0.110702 0.000000
# 6 0.000000 0.000000 0.000000 0.040678 0.000000 0.050423
#
#
# Mechanical properties :
#
#
# Convention : Reuss Voigt Hill
#
# Bulk Modulus (GPa) = 18.47092 60.74918 39.61005
# Shear Modulus (GPa) = 15.19921 30.53414 22.86667
#
# Velocity S-wave (km/s) = 2.68958 3.81212 3.29894
# Velocity P-wave (km/s) = 4.29372 6.94903 5.77603
#
# Compressibility (1/GPa) = 0.05413914
#
# Stress axis : x y z
#
# Youngs Moduli (GPa) = 67.93450 107.43594 44.73652
#
# Poissons Ratio (x) = -0.00775 -0.25871
# Poissons Ratio (y) = -0.00490 0.08840
# Poissons Ratio (z) = -0.39286 0.21230
#
# Static dielectric constant tensor:
#      x y z
#    x 1.868670 0.000000 0.024430 
#    y 0.000000 2.041770 0.000000 
#    z 0.024430 0.000000 1.815560 
# 
# From -- ./inp_files/244553.got.cif
#   From: 2010.05.17/outbox.cif.g08.bks.cpg/sg15_123_cif.got.tgz:244553.got - 2010.06.03 18:47:42.
