data_PCOD9262784
_publ_section_title
;
Structure prediction by ZEFSAII (Michael W. Deem and Ramdas Pophale) SiO2 
 PCOD9262784
Probable space group: C 2/C
;
_chemical_formula_sum "Si O2"
_cell_formula_units_Z 60
_cell_length_a 10.060061
_cell_length_b 27.863328
_cell_length_c 10.933384
_cell_angle_alpha 90.000000
_cell_angle_beta 111.532416
_cell_angle_gamma 90.000000
_cell_volume 2850.816328
_symmetry_space_group_name_H-M "C 2/C"
_symmetry_group_IT_number 15
_symmetry_cell_setting 'monoclinic'
loop_
_space_group_symop_operation_xyz
x,y,z
-x,y,1/2-z
-x,-y,-z
x,-y,1/2+z
1/2+x,1/2+y,z
1/2-x,1/2+y,1/2-z
1/2-x,1/2-y,-z
1/2+x,1/2-y,1/2+z
loop_
_atom_site_type_symbol
_atom_site_label
_atom_site_fract_x
_atom_site_fract_y
_atom_site_fract_z
Si Si1 0.495125 0.580301 0.528750
Si Si2 0.759405 0.373288 0.970075
Si Si3 0.547523 0.680684 0.938450
Si Si4 0.500000 0.760023 0.750000
Si Si5 0.152138 0.523644 0.031354
Si Si6 0.286607 0.300151 0.759202
Si Si7 0.776659 0.712271 0.617983
Si Si8 0.184361 0.005476 0.163058
O O1 0.623760 0.603293 0.493033
O O2 0.438341 0.624641 0.590446
O O3 0.381861 0.556701 0.398116
O O4 0.561432 0.535162 0.622103
O O5 0.853364 0.418533 0.964473
O O6 0.699860 0.340377 0.840296
O O7 0.843650 0.335892 0.086292
O O8 0.593567 0.723228 0.864084
O O9 0.380232 0.694101 0.894983
O O10 0.631143 0.684839 0.092735
O O11 0.616547 0.792400 0.721494
O O12 0.247232 0.507906 0.180084
O O13 0.214398 0.508719 0.918741
O O14 0.000000 0.500000 0.000000
O O15 0.343168 0.247072 0.740908
O O16 0.750000 0.750000 0.500000
#
# Coordination Sequence:
#
# PCOD9262784 Si02
#       8
#     8   8   8   4   8   8   8   8
#     4   9  20  37  63  94 115 148 205 265 320 355
#     4   9  19  37  61  87 115 151 202 252 302 371
#     4  10  19  33  56  80 112 155 190 244 299 360
#     4  10  22  36  50  78 126 156 194 242 294 368
#     4  11  23  41  62  85 130 171 205 246 309 379
#     4  10  19  35  58  82 115 156 199 246 300 365
#     4   8  17  32  55  81 112 135 186 247 292 341
#     4  10  22  39  64  93 124 158 207 266 309 364
#
# _framework density 21.046602
#
# number of rings (size 3 to 8) (size 9 to 14) (size 15 to 20)
#    0.000    2.400    0.000    1.600    0.000   13.867 
#    4.800    0.000   55.733    0.000    0.000    0.000 
#    0.000    0.000    0.000    0.000    0.000    0.000 
#
# Total GULP energy -167243.079118 kJ/mol
# GULP energy per Si atom -5574.769304 kJ/mol
# Density = 2.099870 g / cm^3
# Si number density = 21.046602 Si / 1000 Ang^3
#
#
#
# Elastic Constant Matrix: (Units=GPa)
#
#
# Indices 1 2 3 4 5 6 
#
# 1 39.2724 15.1227 1.5601 0.0000 -3.2082 0.0000
# 2 15.1227 130.3998 36.1455 0.0000 3.1342 0.0000
# 3 1.5601 36.1455 69.3939 0.0000 -5.5762 0.0000
# 4 0.0000 0.0000 0.0000 15.4418 0.0000 -3.4646
# 5 -3.2082 3.1342 -5.5762 0.0000 22.5278 0.0000
# 6 0.0000 0.0000 0.0000 -3.4646 0.0000 24.8550
#
#
#
# Elastic Compliance Matrix: (Units=1/GPa)
#
#
# Indices 1 2 3 4 5 6 
#
# 1 0.027235 -0.003754 0.001731 0.000000 0.004829 0.000000
# 2 -0.003754 0.009615 -0.005177 0.000000 -0.003154 0.000000
# 3 0.001731 -0.005177 0.017494 0.000000 0.005297 0.000000
# 4 0.000000 0.000000 0.000000 0.066850 0.000000 0.009318
# 5 0.004829 -0.003154 0.005297 0.000000 0.046827 0.000000
# 6 0.000000 0.000000 0.000000 0.009318 0.000000 0.041532
#
#
# Mechanical properties :
#
#
# Convention : Reuss Voigt Hill
#
# Bulk Modulus (GPa) = 25.03572 38.30251 31.66912
# Shear Modulus (GPa) = 21.07324 24.98080 23.02702
#
# Velocity S-wave (km/s) = 3.16771 3.44892 3.31130
# Velocity P-wave (km/s) = 5.02995 5.83939 5.44972
#
# Compressibility (1/GPa) = 0.03994292
#
# Stress axis : x y z
#
# Youngs Moduli (GPa) = 36.71797 104.00400 57.16276
#
# Poissons Ratio (x) = 0.39048 -0.09897
# Poissons Ratio (y) = 0.13786 0.29595
# Poissons Ratio (z) = -0.06357 0.53845
#
# Static dielectric constant tensor:
#      x y z
#    x 1.851620 0.000000 -0.075600 
#    y 0.000000 1.801790 0.000000 
#    z -0.075600 0.000000 1.806340 
# 
# From -- ./inp_files/92056.got.cif
#   From: 2010.05.17/outbox.cif.g08.bks.cpg/sg15_47_cif.got.tgz:92056.got - 2010.06.03 18:47:42.
