data_PCOD9262093
_publ_section_title
;
Structure prediction by ZEFSAII (Michael W. Deem and Ramdas Pophale) SiO2 
 PCOD9262093
Probable space group: C 2/C
;
_chemical_formula_sum "Si O2"
_cell_formula_units_Z 48
_cell_length_a 21.599789
_cell_length_b 7.501124
_cell_length_c 19.830068
_cell_angle_alpha 90.000000
_cell_angle_beta 46.866652
_cell_angle_gamma 90.000000
_cell_volume 2344.675629
_symmetry_space_group_name_H-M "C 2/C"
_symmetry_group_IT_number 15
_symmetry_cell_setting 'monoclinic'
loop_
_space_group_symop_operation_xyz
x,y,z
-x,y,1/2-z
-x,-y,-z
x,-y,1/2+z
1/2+x,1/2+y,z
1/2-x,1/2+y,1/2-z
1/2-x,1/2-y,-z
1/2+x,1/2-y,1/2+z
loop_
_atom_site_type_symbol
_atom_site_label
_atom_site_fract_x
_atom_site_fract_y
_atom_site_fract_z
Si Si1 0.645213 0.440042 0.270563
Si Si2 0.090516 0.428498 0.452955
Si Si3 0.221971 0.977944 0.945834
Si Si4 0.962776 0.049963 0.954989
Si Si5 0.234220 0.458901 0.438117
Si Si6 0.294502 0.966546 0.752197
O O1 0.545099 0.470518 0.347241
O O2 0.685180 0.492569 0.169415
O O3 0.664962 0.230428 0.271015
O O4 0.701897 0.537690 0.285540
O O5 0.066355 0.250942 0.510438
O O6 0.152363 0.530647 0.458734
O O7 0.146155 0.422390 0.342935
O O8 0.000000 0.500000 0.500000
O O9 0.227123 0.759109 0.943091
O O10 0.277811 0.036660 0.840017
O O11 0.124598 0.036432 0.005436
O O12 0.255323 0.028708 0.994505
O O13 0.000000 0.000000 0.000000
#
# Coordination Sequence:
#
# PCOD9262093 Si02
#       6
#     8   8   8   8   8   8
#     4  10  19  32  53  81 105 141 176 218 269 316
#     4  10  19  34  54  79 105 135 181 224 260 311
#     4   9  17  33  51  77 107 136 173 219 265 317
#     4  11  20  32  53  83 106 136 180 220 262 314
#     4   8  18  32  51  77 108 134 172 219 270 309
#     4  10  19  33  54  77 108 142 178 216 270 316
#
# _framework density 20.471914000000002
#
# number of rings (size 3 to 8) (size 9 to 14) (size 15 to 20)
#    0.000    2.333    3.333    1.000    0.000    0.667 
#    0.000    0.833    0.000    9.000    4.333    0.000 
#    0.000    0.000    0.000    0.000    0.000    0.000 
#
# Total GULP energy -133737.415493 kJ/mol
# GULP energy per Si atom -5572.392312 kJ/mol
# Density = 2.042532 g / cm^3
# Si number density = 20.471914 Si / 1000 Ang^3
#
#
#
# Elastic Constant Matrix: (Units=GPa)
#
#
# Indices 1 2 3 4 5 6 
#
# 1 140.7531 -3.7307 106.8831 0.0003 -2.5812 -0.0004
# 2 -3.7307 24.1594 1.5974 0.0013 -9.1343 -0.0029
# 3 106.8831 1.5974 140.6359 0.0008 1.6027 -0.0015
# 4 0.0003 0.0013 0.0008 13.2832 -0.0004 -0.9807
# 5 -2.5812 -9.1343 1.6027 -0.0004 43.7590 0.0007
# 6 -0.0004 -0.0029 -0.0015 -0.9807 0.0007 16.1362
#
#
#
# Elastic Compliance Matrix: (Units=1/GPa)
#
#
# Indices 1 2 3 4 5 6 
#
# 1 0.017328 0.004475 -0.013248 0.000000 0.002441 0.000000
# 2 0.004475 0.046148 -0.004040 -0.000004 0.010045 0.000007
# 3 -0.013248 -0.004040 0.017251 0.000000 -0.002256 0.000001
# 4 0.000000 -0.000004 0.000000 0.075622 0.000000 0.004596
# 5 0.002441 0.010045 -0.002256 0.000000 0.025176 0.000001
# 6 0.000000 0.000007 0.000001 0.004596 0.000001 0.062252
#
#
# Mechanical properties :
#
#
# Convention : Reuss Voigt Hill
#
# Bulk Modulus (GPa) = 18.14846 57.22756 37.68801
# Shear Modulus (GPa) = 17.37505 28.02224 22.69865
#
# Velocity S-wave (km/s) = 2.91645 3.70376 3.33343
# Velocity P-wave (km/s) = 4.49725 6.80480 5.76761
#
# Compressibility (1/GPa) = 0.05510110
#
# Stress axis : x y z
#
# Youngs Moduli (GPa) = 57.70976 21.66954 57.96896
#
# Poissons Ratio (x) = -0.09697 0.76797
# Poissons Ratio (y) = -0.25824 0.23417
# Poissons Ratio (z) = 0.76454 0.08753
#
# Static dielectric constant tensor:
#      x y z
#    x 1.746840 0.000000 0.011990 
#    y 0.000000 1.782330 0.000000 
#    z 0.011990 0.000000 1.726860 
# 
# From -- ./inp_files/213264.got.cif
#   From: 2010.05.17/outbox.cif.g08.bks.cpg/sg15_107_cif.got.tgz:213264.got - 2010.06.03 18:47:42.
