data_PCOD9262795
_publ_section_title
;
Structure prediction by ZEFSAII (Michael W. Deem and Ramdas Pophale) SiO2 
 PCOD9262795
Probable space group: C 2/C
;
_chemical_formula_sum "Si O2"
_cell_formula_units_Z 48
_cell_length_a 17.170743
_cell_length_b 6.351869
_cell_length_c 25.420843
_cell_angle_alpha 90.000000
_cell_angle_beta 45.571706
_cell_angle_gamma 90.000000
_cell_volume 1979.958432
_symmetry_space_group_name_H-M "C 2/C"
_symmetry_group_IT_number 15
_symmetry_cell_setting 'monoclinic'
loop_
_space_group_symop_operation_xyz
x,y,z
-x,y,1/2-z
-x,-y,-z
x,-y,1/2+z
1/2+x,1/2+y,z
1/2-x,1/2+y,1/2-z
1/2-x,1/2-y,-z
1/2+x,1/2-y,1/2+z
loop_
_atom_site_type_symbol
_atom_site_label
_atom_site_fract_x
_atom_site_fract_y
_atom_site_fract_z
Si Si1 0.130307 0.345383 0.919605
Si Si2 0.420520 0.126201 0.644703
Si Si3 0.278630 0.377490 0.038982
Si Si4 0.786459 0.204705 0.892194
Si Si5 0.566763 0.336268 0.664374
Si Si6 0.745636 0.035425 0.191919
O O1 0.049314 0.466958 0.917761
O O2 0.114536 0.194395 0.978630
O O3 0.198934 0.534201 0.913625
O O4 0.201750 0.187977 0.849435
O O5 0.507213 0.231099 0.643033
O O6 0.338061 0.998395 0.721561
O O7 0.348241 0.318269 0.657442
O O8 0.268463 0.627342 0.042815
O O9 0.173104 0.305039 0.122241
O O10 0.250000 0.250000 0.000000
O O11 0.888037 0.072761 0.866488
O O12 0.813868 0.333788 0.826303
O O13 0.500000 0.336244 0.750000
#
# Coordination Sequence:
#
# PCOD9262795 Si02
#       6
#     8   8   8   8   8   8
#     4   9  19  35  56  86 114 159 213 251 308 383
#     4  11  20  33  56  85 124 164 208 258 317 389
#     4  10  22  43  66  87 121 172 217 261 323 386
#     4   9  20  37  58  84 118 156 199 260 306 381
#     4  11  24  36  57  97 130 155 209 271 327 378
#     4  10  19  33  56  81 120 169 201 245 319 388
#
# _framework density 24.242933000000001
#
# number of rings (size 3 to 8) (size 9 to 14) (size 15 to 20)
#    0.000    2.000    1.667    3.000    2.333    6.000 
#    0.000    0.833    0.000   10.000    0.000    0.000 
#    0.000    0.000    0.000    0.000    0.000    0.000 
#
# Total GULP energy -133791.475707 kJ/mol
# GULP energy per Si atom -5574.644821 kJ/mol
# Density = 2.418776 g / cm^3
# Si number density = 24.242933 Si / 1000 Ang^3
#
#
#
# Elastic Constant Matrix: (Units=GPa)
#
#
# Indices 1 2 3 4 5 6 
#
# 1 133.9412 55.7054 22.4047 -0.0007 28.8201 0.0012
# 2 55.7054 140.4375 27.5941 -0.0064 20.0045 -0.0122
# 3 22.4047 27.5941 65.1501 -0.0006 16.1174 -0.0014
# 4 -0.0007 -0.0064 -0.0006 40.9532 -0.0007 8.5496
# 5 28.8201 20.0045 16.1174 -0.0007 35.6787 -0.0005
# 6 0.0012 -0.0122 -0.0014 8.5496 -0.0005 56.0585
#
#
#
# Elastic Compliance Matrix: (Units=1/GPa)
#
#
# Indices 1 2 3 4 5 6 
#
# 1 0.010172 -0.003015 -0.000683 0.000000 -0.006218 -0.000001
# 2 -0.003015 0.009006 -0.002399 0.000001 -0.001530 0.000002
# 3 -0.000683 -0.002399 0.018160 0.000000 -0.006307 0.000000
# 4 0.000000 0.000001 0.000000 0.025221 0.000000 -0.003847
# 5 -0.006218 -0.001530 -0.006307 0.000000 0.036758 0.000000
# 6 -0.000001 0.000002 0.000000 -0.003847 0.000000 0.018425
#
#
# Mechanical properties :
#
#
# Convention : Reuss Voigt Hill
#
# Bulk Modulus (GPa) = 39.77014 61.21526 50.49270
# Shear Modulus (GPa) = 36.14879 42.12637 39.13758
#
# Velocity S-wave (km/s) = 3.86567 4.17307 4.02231
# Velocity P-wave (km/s) = 6.03034 6.96598 6.51498
#
# Compressibility (1/GPa) = 0.02514449
#
# Stress axis : x y z
#
# Youngs Moduli (GPa) = 98.30966 111.03885 55.06488
#
# Poissons Ratio (x) = 0.33477 0.03761
# Poissons Ratio (y) = 0.29639 0.13210
# Poissons Ratio (z) = 0.06714 0.26638
#
# Static dielectric constant tensor:
#      x y z
#    x 1.991120 0.000000 0.042930 
#    y 0.000000 1.974870 0.000000 
#    z 0.042930 0.000000 2.011290 
# 
# From -- ./inp_files/297421.got.cif
#   From: 2010.05.17/outbox.cif.g08.bks.cpg/sg15_149_cif.got.tgz:297421.got - 2010.06.03 18:47:42.
