data_PCOD9262218
_publ_section_title
;
Structure prediction by ZEFSAII (Michael W. Deem and Ramdas Pophale) SiO2 
 PCOD9262218
Probable space group: C 2/C
;
_chemical_formula_sum "Si O2"
_cell_formula_units_Z 52
_cell_length_a 25.723887
_cell_length_b 21.423385
_cell_length_c 5.051267
_cell_angle_alpha 90.000000
_cell_angle_beta 91.918385
_cell_angle_gamma 90.000000
_cell_volume 2782.156344
_symmetry_space_group_name_H-M "C 2/C"
_symmetry_group_IT_number 15
_symmetry_cell_setting 'monoclinic'
loop_
_space_group_symop_operation_xyz
x,y,z
-x,y,1/2-z
-x,-y,-z
x,-y,1/2+z
1/2+x,1/2+y,z
1/2-x,1/2+y,1/2-z
1/2-x,1/2-y,-z
1/2+x,1/2-y,1/2+z
loop_
_atom_site_type_symbol
_atom_site_label
_atom_site_fract_x
_atom_site_fract_y
_atom_site_fract_z
Si Si1 0.370468 0.043426 0.902339
Si Si2 0.937196 0.340607 0.249154
Si Si3 0.437129 0.766985 0.751484
Si Si4 0.646107 0.542936 0.878033
Si Si5 0.000000 0.952722 0.750000
Si Si6 0.742932 0.957971 0.223363
Si Si7 0.942661 0.872648 0.373828
O O1 0.412798 0.095166 0.843227
O O2 0.312576 0.072088 0.849596
O O3 0.374781 0.986736 0.692343
O O4 0.921277 0.286599 0.454775
O O5 0.000000 0.345332 0.250000
O O6 0.919583 0.319374 0.956017
O O7 0.500000 0.768283 0.750000
O O8 0.423920 0.698563 0.858058
O O9 0.644161 0.485005 0.670808
O O10 0.702433 0.574370 0.834368
O O11 0.598223 0.585807 0.791408
O O12 0.953668 0.905134 0.659559
O O13 0.000000 0.000000 0.500000
O O14 0.743394 0.981919 0.524939
O O15 0.000000 0.873328 0.250000
#
# Coordination Sequence:
#
# PCOD9262218 Si02
#       7
#     8   8   8   8   4   8   8
#     4  10  19  32  56  81 106 132 162 205 262 315
#     4  10  20  35  52  77 105 135 169 212 249 303
#     4   9  21  35  52  69 100 142 183 206 240 299
#     4  10  21  33  50  73 103 133 167 214 262 305
#     4  12  24  34  48  76 108 130 164 220 268 298
#     4   8  16  32  49  72  99 133 168 198 247 316
#     4  11  24  35  54  73 104 143 179 215 255 307
#
# _framework density 18.690539000000001
#
# number of rings (size 3 to 8) (size 9 to 14) (size 15 to 20)
#    0.000    2.154    0.769    1.846    7.538    0.615 
#    0.000    0.000    0.000    1.846    0.000    0.000 
#    0.000    0.000    0.000    0.000    0.000    0.000 
#
# Total GULP energy -144905.996250 kJ/mol
# GULP energy per Si atom -5573.307548 kJ/mol
# Density = 1.864800 g / cm^3
# Si number density = 18.690539 Si / 1000 Ang^3
#
#
#
# Elastic Constant Matrix: (Units=GPa)
#
#
# Indices 1 2 3 4 5 6 
#
# 1 68.0787 25.5567 10.1327 0.0000 -5.0584 0.0000
# 2 25.5567 54.7669 3.7971 0.0000 -2.8917 0.0000
# 3 10.1327 3.7971 83.1595 0.0000 -4.9141 0.0000
# 4 0.0000 0.0000 0.0000 19.1661 0.0000 -10.0849
# 5 -5.0584 -2.8917 -4.9141 0.0000 20.2191 0.0000
# 6 0.0000 0.0000 0.0000 -10.0849 0.0000 4.5691
#
#
#
# Elastic Compliance Matrix: (Units=1/GPa)
#
#
# Indices 1 2 3 4 5 6 
#
# 1 0.018254 -0.008245 -0.001672 0.000000 0.002981 0.000000
# 2 -0.008245 0.022162 0.000059 0.000000 0.001121 0.000000
# 3 -0.001672 0.000059 0.012380 0.000000 0.002599 0.000000
# 4 0.000000 0.000000 0.000000 -0.323279 0.000000 -0.713546
# 5 0.002981 0.001121 0.002599 0.000000 0.050996 0.000000
# 6 0.000000 0.000000 0.000000 -0.713546 0.000000 -1.356084
#
#
# Mechanical properties :
#
#
# Convention : Reuss Voigt Hill
#
# Bulk Modulus (GPa) = 30.22920 31.66421 30.94671
# Shear Modulus (GPa) = -3.23660 19.89211 8.32775
#
# Velocity S-wave (km/s) = -1.31736 3.26588 2.11312
# Velocity P-wave (km/s) = 3.72756 5.58564 4.74837
#
# Compressibility (1/GPa) = 0.03308060
#
# Stress axis : x y z
#
# Youngs Moduli (GPa) = 54.78141 45.12270 80.77776
#
# Poissons Ratio (x) = 0.37204 0.13503
# Poissons Ratio (y) = 0.45167 -0.00476
# Poissons Ratio (z) = 0.09157 -0.00266
#
# Static dielectric constant tensor:
#      x y z
#    x 1.714510 0.000000 -0.023170 
#    y 0.000000 1.631180 0.000000 
#    z -0.023170 0.000000 1.681780 
# 
# From -- ./inp_files/17096.got.cif
#   From: 2010.05.17/outbox.cif.g08.bks.cpg/sg15_9_cif.got.tgz:17096.got - 2010.06.03 18:47:42.
