data_PCOD9262343
_publ_section_title
;
Structure prediction by ZEFSAII (Michael W. Deem and Ramdas Pophale) SiO2 
 PCOD9262343
Probable space group: C 2/C
;
_chemical_formula_sum "Si O2"
_cell_formula_units_Z 52
_cell_length_a 29.905463
_cell_length_b 16.336909
_cell_length_c 8.714581
_cell_angle_alpha 90.000000
_cell_angle_beta 140.975103
_cell_angle_gamma 90.000000
_cell_volume 2680.844826
_symmetry_space_group_name_H-M "C 2/C"
_symmetry_group_IT_number 15
_symmetry_cell_setting 'monoclinic'
loop_
_space_group_symop_operation_xyz
x,y,z
-x,y,1/2-z
-x,-y,-z
x,-y,1/2+z
1/2+x,1/2+y,z
1/2-x,1/2+y,1/2-z
1/2-x,1/2-y,-z
1/2+x,1/2-y,1/2+z
loop_
_atom_site_type_symbol
_atom_site_label
_atom_site_fract_x
_atom_site_fract_y
_atom_site_fract_z
Si Si1 0.886050 0.987254 0.192812
Si Si2 0.000000 0.552851 0.750000
Si Si3 0.835209 0.399185 0.243279
Si Si4 0.400095 0.047538 0.222584
Si Si5 0.823107 0.107558 0.279530
Si Si6 0.983148 0.126150 0.364979
Si Si7 0.572542 0.252956 0.528813
O O1 0.947125 0.920907 0.389812
O O2 0.859676 0.041774 0.263015
O O3 0.925271 0.054167 0.190147
O O4 0.823406 0.938583 0.942897
O O5 0.946619 0.593297 0.480462
O O6 0.952776 0.497267 0.740321
O O7 0.855763 0.481256 0.203885
O O8 0.850234 0.405524 0.467133
O O9 0.886832 0.328659 0.319352
O O10 0.754562 0.375926 0.991743
O O11 0.872811 0.187854 0.417065
O O12 0.952719 0.191164 0.399560
O O13 0.000000 0.166785 0.250000
O O14 0.500000 0.230649 0.250000
#
# Coordination Sequence:
#
# PCOD9262343 Si02
#       7
#     8   4   8   8   8   8   8
#     4  10  19  32  63  90 119 154 196 254 294 356
#     4   8  16  32  56  84 108 134 188 254 282 330
#     4  11  23  39  60  88 121 161 202 249 306 367
#     4   9  19  36  60  85 113 148 208 252 295 345
#     4  11  21  38  59  89 126 159 194 246 310 363
#     4  10  19  36  58  92 121 150 200 253 301 349
#     4  11  24  38  59  87 121 164 202 247 301 358
#
# _framework density 19.39687
#
# number of rings (size 3 to 8) (size 9 to 14) (size 15 to 20)
#    0.000    1.846    3.077    1.385    6.462    0.000 
#    1.385    0.000    0.000    0.923    0.000    0.000 
#    0.000    0.000    0.000    0.000    0.000    0.000 
#
# Total GULP energy -144832.874136 kJ/mol
# GULP energy per Si atom -5570.495159 kJ/mol
# Density = 1.935272 g / cm^3
# Si number density = 19.396870 Si / 1000 Ang^3
#
#
#
# Elastic Constant Matrix: (Units=GPa)
#
#
# Indices 1 2 3 4 5 6 
#
# 1 42.4917 3.7017 7.0945 0.0000 2.3240 0.0000
# 2 3.7017 41.5607 14.6446 0.0000 14.7203 0.0000
# 3 7.0945 14.6446 96.0911 0.0000 25.7481 0.0000
# 4 0.0000 0.0000 0.0000 19.3338 0.0000 -10.7410
# 5 2.3240 14.7203 25.7481 0.0000 26.7450 0.0000
# 6 0.0000 0.0000 0.0000 -10.7410 0.0000 9.9135
#
#
#
# Elastic Compliance Matrix: (Units=1/GPa)
#
#
# Indices 1 2 3 4 5 6 
#
# 1 0.023930 -0.001710 -0.001619 0.000000 0.000420 0.000000
# 2 -0.001710 0.030013 -0.000083 0.000000 -0.016291 0.000000
# 3 -0.001619 -0.000083 0.014136 0.000000 -0.013423 0.000000
# 4 0.000000 0.000000 0.000000 0.129934 0.000000 0.140780
# 5 0.000420 -0.016291 -0.013423 0.000000 0.059242 0.000000
# 6 0.000000 0.000000 0.000000 0.140780 0.000000 0.253404
#
#
# Mechanical properties :
#
#
# Convention : Reuss Voigt Hill
#
# Bulk Modulus (GPa) = 16.32491 25.66945 20.99718
# Shear Modulus (GPa) = 9.29542 21.51196 15.40369
#
# Velocity S-wave (km/s) = 2.19149 3.33384 2.82109
# Velocity P-wave (km/s) = 3.85202 5.29923 4.63249
#
# Compressibility (1/GPa) = 0.06125609
#
# Stress axis : x y z
#
# Youngs Moduli (GPa) = 41.78810 33.31937 70.74371
#
# Poissons Ratio (x) = 0.05697 0.11452
# Poissons Ratio (y) = 0.07145 0.00584
# Poissons Ratio (z) = 0.06765 0.00275
#
# Static dielectric constant tensor:
#      x y z
#    x 1.684210 0.000000 -0.012760 
#    y 0.000000 1.676680 0.000000 
#    z -0.012760 0.000000 1.744630 
# 
# From -- ./inp_files/70211.got.cif
#   From: 2010.05.17/outbox.cif.g08.bks.cpg/sg15_36_cif.got.tgz:70211.got - 2010.06.03 18:47:42.
