data_PCOD9262026
_publ_section_title
;
Structure prediction by ZEFSAII (Michael W. Deem and Ramdas Pophale) SiO2 
 PCOD9262026
Probable space group: C 2/C
;
_chemical_formula_sum "Si O2"
_cell_formula_units_Z 56
_cell_length_a 17.674901
_cell_length_b 27.215418
_cell_length_c 5.465546
_cell_angle_alpha 90.000000
_cell_angle_beta 98.846478
_cell_angle_gamma 90.000000
_cell_volume 2597.814822
_symmetry_space_group_name_H-M "C 2/C"
_symmetry_group_IT_number 15
_symmetry_cell_setting 'monoclinic'
loop_
_space_group_symop_operation_xyz
x,y,z
-x,y,1/2-z
-x,-y,-z
x,-y,1/2+z
1/2+x,1/2+y,z
1/2-x,1/2+y,1/2-z
1/2-x,1/2-y,-z
1/2+x,1/2-y,1/2+z
loop_
_atom_site_type_symbol
_atom_site_label
_atom_site_fract_x
_atom_site_fract_y
_atom_site_fract_z
Si Si1 0.500000 0.031485 0.250000
Si Si2 0.912954 0.295453 0.597789
Si Si3 0.405895 0.314797 0.190858
Si Si4 0.711644 0.026699 0.995889
Si Si5 0.885612 0.391639 0.837952
Si Si6 0.895752 0.973581 0.591071
Si Si7 0.500000 0.840123 0.250000
Si Si8 0.912875 0.140502 0.193106
O O1 0.573934 0.066821 0.304160
O O2 0.500000 0.000000 0.500000
O O3 0.882923 0.241628 0.636348
O O4 0.866969 0.341880 0.681575
O O5 0.000000 0.297084 0.750000
O O6 0.933301 0.305968 0.327259
O O7 0.500000 0.317176 0.250000
O O8 0.376486 0.334557 0.436102
O O9 0.379965 0.346784 0.943688
O O10 0.679733 0.080687 0.043885
O O11 0.803399 0.026195 0.042309
O O12 0.687931 0.992428 0.215775
O O13 0.955016 0.375176 0.046122
O O14 0.917306 0.917208 0.642952
O O15 0.920676 0.995157 0.341289
O O16 0.000000 0.160039 0.250000
#
# Coordination Sequence:
#
# PCOD9262026 Si02
#       8
#     4   8   8   8   8   8   4   8
#     4  12  23  32  46  70 104 136 168 229 282 308
#     4   9  19  31  51  75 109 146 181 222 270 326
#     4   9  19  32  53  82 113 144 171 214 266 324
#     4  10  23  39  56  76 102 145 190 225 266 324
#     4  11  21  34  50  76 105 142 189 229 276 321
#     4  10  21  39  60  81 109 145 181 215 262 327
#     4  10  19  32  52  78 108 142 180 229 278 314
#     4  10  20  34  56  88 115 137 172 217 270 319
#
# _framework density 21.556577999999998
#
# number of rings (size 3 to 8) (size 9 to 14) (size 15 to 20)
#    0.000    2.000    2.143    2.143    9.000    0.571 
#    0.000    0.000    0.000    1.714    0.000    0.000 
#    0.000    0.000    0.000    0.000    0.000    0.000 
#
# Total GULP energy -156180.378415 kJ/mol
# GULP energy per Si atom -5577.870658 kJ/mol
# Density = 2.150751 g / cm^3
# Si number density = 21.556578 Si / 1000 Ang^3
#
#
#
# Elastic Constant Matrix: (Units=GPa)
#
#
# Indices 1 2 3 4 5 6 
#
# 1 25.9030 5.2301 19.4211 0.0000 -4.2435 0.0000
# 2 5.2301 122.1567 72.6126 0.0000 -8.6949 0.0000
# 3 19.4211 72.6126 156.2939 0.0000 -18.6717 0.0000
# 4 0.0000 0.0000 0.0000 31.7091 0.0000 -13.9717
# 5 -4.2435 -8.6949 -18.6717 0.0000 19.5296 0.0000
# 6 0.0000 0.0000 0.0000 -13.9717 0.0000 -9.8459
#
#
#
# Elastic Compliance Matrix: (Units=1/GPa)
#
#
# Indices 1 2 3 4 5 6 
#
# 1 0.043266 0.001857 -0.005664 0.000000 0.004813 0.000000
# 2 0.001857 0.011389 -0.005496 0.000000 0.000220 0.000000
# 3 -0.005664 -0.005496 0.010404 0.000000 0.006270 0.000000
# 4 0.000000 0.000000 0.000000 0.019404 0.000000 -0.027535
# 5 0.004813 0.000220 0.006270 0.000000 0.058342 0.000000
# 6 0.000000 0.000000 0.000000 -0.027535 0.000000 -0.062492
#
#
# Mechanical properties :
#
#
# Convention : Reuss Voigt Hill
#
# Bulk Modulus (GPa) = 21.52688 55.43126 38.47907
# Shear Modulus (GPa) = 43.70470 22.08453 32.89462
#
# Velocity S-wave (km/s) = 4.50760 3.20424 3.91060
# Velocity P-wave (km/s) = 6.09091 6.28169 6.18704
#
# Compressibility (1/GPa) = 0.04645355
#
# Stress axis : x y z
#
# Youngs Moduli (GPa) = 23.11297 87.80286 96.11397
#
# Poissons Ratio (x) = -0.16304 0.54439
# Poissons Ratio (y) = -0.04292 0.52822
# Poissons Ratio (z) = 0.13091 0.48254
#
# Static dielectric constant tensor:
#      x y z
#    x 1.830960 0.000000 -0.068980 
#    y 0.000000 1.785650 0.000000 
#    z -0.068980 0.000000 1.977520 
# 
# From -- ./inp_files/13755.got.cif
#   From: 2010.05.17/outbox.cif.g08.bks.cpg/sg15_7_cif.got.tgz:13755.got - 2010.06.03 18:47:42.
