data_PCOD9262861
_publ_section_title
;
Structure prediction by ZEFSAII (Michael W. Deem and Ramdas Pophale) SiO2 
 PCOD9262861
Probable space group: C 2/C
;
_chemical_formula_sum "Si O2"
_cell_formula_units_Z 56
_cell_length_a 24.382961
_cell_length_b 9.730793
_cell_length_c 12.578283
_cell_angle_alpha 90.000000
_cell_angle_beta 78.056387
_cell_angle_gamma 90.000000
_cell_volume 2919.786270
_symmetry_space_group_name_H-M "C 2/C"
_symmetry_group_IT_number 15
_symmetry_cell_setting 'monoclinic'
loop_
_space_group_symop_operation_xyz
x,y,z
-x,y,1/2-z
-x,-y,-z
x,-y,1/2+z
1/2+x,1/2+y,z
1/2-x,1/2+y,1/2-z
1/2-x,1/2-y,-z
1/2+x,1/2-y,1/2+z
loop_
_atom_site_type_symbol
_atom_site_label
_atom_site_fract_x
_atom_site_fract_y
_atom_site_fract_z
Si Si1 0.948882 0.607748 0.097319
Si Si2 0.229586 0.432941 0.691712
Si Si3 0.126393 0.611280 0.779689
Si Si4 0.659424 0.595687 0.215923
Si Si5 0.293217 0.638140 0.526128
Si Si6 0.960116 0.580724 0.857841
Si Si7 0.854629 0.209156 0.719488
O O1 0.911096 0.467348 0.118261
O O2 0.912839 0.712342 0.180421
O O3 0.007693 0.560335 0.123658
O O4 0.955032 0.653698 0.973212
O O5 0.188765 0.550593 0.755939
O O6 0.278781 0.401282 0.755389
O O7 0.259739 0.501820 0.577982
O O8 0.189158 0.301094 0.694611
O O9 0.127249 0.775311 0.779911
O O10 0.098737 0.567215 0.677688
O O11 0.636315 0.444775 0.245999
O O12 0.665189 0.613506 0.087804
O O13 0.250000 0.750000 0.500000
O O14 0.325197 0.696052 0.615863
O O15 0.000000 0.645337 0.750000
#
# Coordination Sequence:
#
# PCOD9262861 Si02
#       7
#     8   8   8   8   8   8   8
#     4   9  19  35  58  82 107 134 179 246 282 327
#     4  10  20  33  51  81 112 152 195 232 259 324
#     4  10  19  33  57  78 106 151 186 220 274 344
#     4  11  20  34  52  82 117 151 193 224 274 333
#     4  11  19  33  56  76 115 167 192 221 271 334
#     4   9  18  35  60  84  98 130 187 230 280 347
#     4  10  21  35  52  82 118 146 188 240 279 317
#
# _framework density 19.179487000000002
#
# number of rings (size 3 to 8) (size 9 to 14) (size 15 to 20)
#    0.000    2.000    2.857    1.714    0.000    0.571 
#    0.000    8.571    0.000   20.571    0.000    0.000 
#    0.000    0.000    0.000    0.000    0.000    0.000 
#
# Total GULP energy -156044.461421 kJ/mol
# GULP energy per Si atom -5573.016479 kJ/mol
# Density = 1.913583 g / cm^3
# Si number density = 19.179487 Si / 1000 Ang^3
#
#
#
# Elastic Constant Matrix: (Units=GPa)
#
#
# Indices 1 2 3 4 5 6 
#
# 1 57.9367 17.8251 -4.5275 0.0000 4.2402 0.0000
# 2 17.8251 121.4455 11.2438 0.0000 -12.4294 0.0000
# 3 -4.5275 11.2438 50.5827 0.0000 -3.5829 0.0000
# 4 0.0000 0.0000 0.0000 22.2456 0.0000 -1.8597
# 5 4.2402 -12.4294 -3.5829 0.0000 22.6285 0.0000
# 6 0.0000 0.0000 0.0000 -1.8597 0.0000 11.4070
#
#
#
# Elastic Compliance Matrix: (Units=1/GPa)
#
#
# Indices 1 2 3 4 5 6 
#
# 1 0.018873 -0.003489 0.002102 0.000000 -0.005120 0.000000
# 2 -0.003489 0.009502 -0.002031 0.000000 0.005552 0.000000
# 3 0.002102 -0.002031 0.020533 0.000000 0.001741 0.000000
# 4 0.000000 0.000000 0.000000 0.045574 0.000000 0.007430
# 5 -0.005120 0.005552 0.001741 0.000000 0.048477 0.000000
# 6 0.000000 0.000000 0.000000 0.007430 0.000000 0.088877
#
#
# Mechanical properties :
#
#
# Convention : Reuss Voigt Hill
#
# Bulk Modulus (GPa) = 23.76884 31.00529 27.38707
# Shear Modulus (GPa) = 19.78672 24.95111 22.36892
#
# Velocity S-wave (km/s) = 3.21543 3.61075 3.41881
# Velocity P-wave (km/s) = 5.11909 5.79520 5.46760
#
# Compressibility (1/GPa) = 0.04207188
#
# Stress axis : x y z
#
# Youngs Moduli (GPa) = 52.98711 105.23631 48.70301
#
# Poissons Ratio (x) = 0.36713 -0.10238
# Poissons Ratio (y) = 0.18485 0.09893
# Poissons Ratio (z) = -0.11138 0.21376
#
# Static dielectric constant tensor:
#      x y z
#    x 1.702970 0.000000 -0.018610 
#    y 0.000000 1.692450 0.000000 
#    z -0.018610 0.000000 1.691520 
# 
# From -- ./inp_files/180356.got.cif
#   From: 2010.05.17/outbox.cif.g08.bks.cpg/sg15_91_cif.got.tgz:180356.got - 2010.06.03 18:47:42.
