data_PCOD9262272
_publ_section_title
;
Structure prediction by ZEFSAII (Michael W. Deem and Ramdas Pophale) SiO2 
 PCOD9262272
Probable space group: C 2/C
;
_chemical_formula_sum "Si O2"
_cell_formula_units_Z 48
_cell_length_a 30.420631
_cell_length_b 8.105359
_cell_length_c 17.976005
_cell_angle_alpha 90.000000
_cell_angle_beta 151.662493
_cell_angle_gamma 90.000000
_cell_volume 2103.877229
_symmetry_space_group_name_H-M "C 2/C"
_symmetry_group_IT_number 15
_symmetry_cell_setting 'monoclinic'
loop_
_space_group_symop_operation_xyz
x,y,z
-x,y,1/2-z
-x,-y,-z
x,-y,1/2+z
1/2+x,1/2+y,z
1/2-x,1/2+y,1/2-z
1/2-x,1/2-y,-z
1/2+x,1/2-y,1/2+z
loop_
_atom_site_type_symbol
_atom_site_label
_atom_site_fract_x
_atom_site_fract_y
_atom_site_fract_z
Si Si1 0.609746 0.358898 0.563059
Si Si2 0.396306 0.157236 0.392733
Si Si3 0.283037 0.964554 0.336946
Si Si4 0.599336 0.819548 0.198284
Si Si5 0.208023 0.497597 0.974634
Si Si6 0.108795 0.172894 0.767622
O O1 0.675321 0.518154 0.650039
O O2 0.615100 0.317682 0.659395
O O3 0.499670 0.367239 0.380914
O O4 0.658695 0.201992 0.594617
O O5 0.328570 0.110715 0.356988
O O6 0.495945 0.198899 0.573569
O O7 0.376815 0.286498 0.298538
O O8 0.399951 0.986723 0.350283
O O9 0.291903 0.008121 0.436704
O O10 0.666254 0.852134 0.365936
O O11 0.310720 0.457847 0.095882
O O12 0.141548 0.339659 0.857719
#
# Coordination Sequence:
#
# PCOD9262272 Si02
#       6
#     8   8   8   8   8   8
#     4  10  22  38  57  79 113 153 186 222 278 338
#     4   8  15  31  52  74 105 144 180 212 265 336
#     4  11  21  34  57  86 112 142 187 236 274 319
#     4   8  16  32  52  75 106 143 178 217 271 328
#     4  10  19  32  57  86 110 137 187 238 273 318
#     4   9  19  37  57  79 110 153 188 218 271 344
#
# _framework density 22.815021000000002
#
# number of rings (size 3 to 8) (size 9 to 14) (size 15 to 20)
#    0.000    2.667    0.000    4.000    0.000    5.333 
#    0.000    0.000    0.000    6.000    0.000    0.000 
#    0.000    0.000    0.000    0.000    0.000    0.000 
#
# Total GULP energy -133900.769770 kJ/mol
# GULP energy per Si atom -5579.198740 kJ/mol
# Density = 2.276309 g / cm^3
# Si number density = 22.815021 Si / 1000 Ang^3
#
#
#
# Elastic Constant Matrix: (Units=GPa)
#
#
# Indices 1 2 3 4 5 6 
#
# 1 87.7622 10.4900 68.4524 0.0000 19.6927 0.0000
# 2 10.4900 57.4641 24.1233 0.0000 14.6185 0.0000
# 3 68.4524 24.1233 154.4542 0.0000 23.6035 0.0000
# 4 0.0000 0.0000 0.0000 26.2083 0.0000 -4.3836
# 5 19.6927 14.6185 23.6035 0.0000 24.4416 0.0000
# 6 0.0000 0.0000 0.0000 -4.3836 0.0000 7.3962
#
#
#
# Elastic Compliance Matrix: (Units=1/GPa)
#
#
# Indices 1 2 3 4 5 6 
#
# 1 0.018938 0.001992 -0.007262 0.000000 -0.009437 0.000000
# 2 0.001992 0.021060 -0.002349 0.000000 -0.011933 0.000000
# 3 -0.007262 -0.002349 0.010501 0.000000 -0.002885 0.000000
# 4 0.000000 0.000000 0.000000 0.042354 0.000000 0.025103
# 5 -0.009437 -0.011933 -0.002885 0.000000 0.058440 0.000000
# 6 0.000000 0.000000 0.000000 0.025103 0.000000 0.150082
#
#
# Mechanical properties :
#
#
# Convention : Reuss Voigt Hill
#
# Bulk Modulus (GPa) = 28.35933 56.20135 42.28034
# Shear Modulus (GPa) = 15.22689 24.71687 19.97188
#
# Velocity S-wave (km/s) = 2.58622 3.29501 2.96190
# Velocity P-wave (km/s) = 4.62333 6.25804 5.50174
#
# Compressibility (1/GPa) = 0.03526176
#
# Stress axis : x y z
#
# Youngs Moduli (GPa) = 52.80344 47.48303 95.23287
#
# Poissons Ratio (x) = -0.09460 0.69160
# Poissons Ratio (y) = -0.10520 0.22366
# Poissons Ratio (z) = 0.38347 0.11152
#
# Static dielectric constant tensor:
#      x y z
#    x 1.833650 0.000000 0.054620 
#    y 0.000000 1.984710 0.000000 
#    z 0.054620 0.000000 1.862520 
# 
# From -- ./inp_files/177897.got.cif
#   From: 2010.05.17/outbox.cif.g08.bks.cpg/sg15_89_cif.got.tgz:177897.got - 2010.06.03 18:47:42.
