data_PCOD9262782
_publ_section_title
;
Structure prediction by ZEFSAII (Michael W. Deem and Ramdas Pophale) SiO2 
 PCOD9262782
Probable space group: C 2/C
;
_chemical_formula_sum "Si O2"
_cell_formula_units_Z 48
_cell_length_a 21.430203
_cell_length_b 16.196755
_cell_length_c 5.288902
_cell_angle_alpha 90.000000
_cell_angle_beta 98.269122
_cell_angle_gamma 90.000000
_cell_volume 1816.690792
_symmetry_space_group_name_H-M "C 2/C"
_symmetry_group_IT_number 15
_symmetry_cell_setting 'monoclinic'
loop_
_space_group_symop_operation_xyz
x,y,z
-x,y,1/2-z
-x,-y,-z
x,-y,1/2+z
1/2+x,1/2+y,z
1/2-x,1/2+y,1/2-z
1/2-x,1/2-y,-z
1/2+x,1/2-y,1/2+z
loop_
_atom_site_type_symbol
_atom_site_label
_atom_site_fract_x
_atom_site_fract_y
_atom_site_fract_z
Si Si1 0.311887 0.549249 0.760536
Si Si2 0.298642 0.125511 0.027327
Si Si3 0.434272 0.444372 0.163814
Si Si4 0.201627 0.790217 0.772452
Si Si5 0.566692 0.140664 0.339772
Si Si6 0.933272 0.752492 0.658852
O O1 0.321341 0.518054 0.046443
O O2 0.239947 0.579018 0.710168
O O3 0.370872 0.605815 0.698328
O O4 0.242436 0.133659 0.195737
O O5 0.366748 0.092796 0.140916
O O6 0.308231 0.220128 0.946762
O O7 0.500000 0.397829 0.250000
O O8 0.435380 0.515422 0.385813
O O9 0.131516 0.802012 0.836717
O O10 0.250000 0.750000 0.000000
O O11 0.500000 0.095838 0.250000
O O12 0.565604 0.181691 0.618776
O O13 0.568766 0.208958 0.115970
O O14 0.000000 0.797244 0.750000
#
# Coordination Sequence:
#
# PCOD9262782 Si02
#       6
#     8   8   8   8   8   8
#     4  10  22  36  55  79 105 139 178 221 264 310
#     4  10  21  34  55  81 109 140 179 222 266 321
#     4   8  14  28  50  71  94 129 172 210 250 303
#     4  10  19  33  56  80 109 143 175 220 271 315
#     4   9  17  30  50  76 101 138 177 209 256 321
#     4   9  17  30  49  74 107 139 173 209 256 319
#
# _framework density 26.421669000000001
#
# number of rings (size 3 to 8) (size 9 to 14) (size 15 to 20)
#    0.000    2.667    1.667    0.000    2.333    0.000 
#    0.000    0.000    3.667    2.000    0.000    0.000 
#    0.000    0.000    0.000    0.000    0.000    0.000 
#
# Total GULP energy -133919.102746 kJ/mol
# GULP energy per Si atom -5579.962614 kJ/mol
# Density = 2.636153 g / cm^3
# Si number density = 26.421669 Si / 1000 Ang^3
#
#
#
# Elastic Constant Matrix: (Units=GPa)
#
#
# Indices 1 2 3 4 5 6 
#
# 1 286.6758 13.0925 13.7708 0.0000 28.8748 0.0000
# 2 13.0925 6.0247 15.5351 0.0000 -1.6860 0.0000
# 3 13.7708 15.5351 144.4127 0.0000 5.3695 0.0000
# 4 0.0000 0.0000 0.0000 38.6406 0.0000 3.3856
# 5 28.8748 -1.6860 5.3695 0.0000 44.6313 0.0000
# 6 0.0000 0.0000 0.0000 3.3856 0.0000 13.1342
#
#
#
# Elastic Compliance Matrix: (Units=1/GPa)
#
#
# Indices 1 2 3 4 5 6 
#
# 1 0.004405 -0.013568 0.001170 0.000000 -0.003503 0.000000
# 2 -0.013568 0.277745 -0.029432 0.000000 0.022811 0.000000
# 3 0.001170 -0.029432 0.010094 0.000000 -0.003083 0.000000
# 4 0.000000 0.000000 0.000000 0.026478 0.000000 -0.006825
# 5 -0.003503 0.022811 -0.003083 0.000000 0.025905 0.000000
# 6 0.000000 0.000000 0.000000 -0.006825 0.000000 0.077896
#
#
# Mechanical properties :
#
#
# Convention : Reuss Voigt Hill
#
# Bulk Modulus (GPa) = 4.79429 57.98999 31.39214
# Shear Modulus (GPa) = 8.68491 45.59556 27.14023
#
# Velocity S-wave (km/s) = 1.81499 4.15865 3.20847
# Velocity P-wave (km/s) = 2.49213 6.71228 5.06287
#
# Compressibility (1/GPa) = 0.20858157
#
# Stress axis : x y z
#
# Youngs Moduli (GPa) = 227.03750 3.60042 99.07023
#
# Poissons Ratio (x) = 0.04885 -0.11590
# Poissons Ratio (y) = 3.08054 2.91588
# Poissons Ratio (z) = -0.26560 0.10597
#
# Static dielectric constant tensor:
#      x y z
#    x 2.304370 0.000000 0.074940 
#    y 0.000000 2.129680 0.000000 
#    z 0.074940 0.000000 2.174330 
# 
# From -- ./inp_files/13210.got.cif
#   From: 2010.05.17/outbox.cif.g08.bks.cpg/sg15_7_cif.got.tgz:13210.got - 2010.06.03 18:47:42.
