data_PCOD9262503
_publ_section_title
;
Structure prediction by ZEFSAII (Michael W. Deem and Ramdas Pophale) SiO2 
 PCOD9262503
Probable space group: C 2/C
;
_chemical_formula_sum "Si O2"
_cell_formula_units_Z 48
_cell_length_a 28.080651
_cell_length_b 5.257670
_cell_length_c 15.917208
_cell_angle_alpha 90.000000
_cell_angle_beta 54.303396
_cell_angle_gamma 90.000000
_cell_volume 1908.475478
_symmetry_space_group_name_H-M "C 2/C"
_symmetry_group_IT_number 15
_symmetry_cell_setting 'monoclinic'
loop_
_space_group_symop_operation_xyz
x,y,z
-x,y,1/2-z
-x,-y,-z
x,-y,1/2+z
1/2+x,1/2+y,z
1/2-x,1/2+y,1/2-z
1/2-x,1/2-y,-z
1/2+x,1/2-y,1/2+z
loop_
_atom_site_type_symbol
_atom_site_label
_atom_site_fract_x
_atom_site_fract_y
_atom_site_fract_z
Si Si1 0.281901 0.504984 0.929484
Si Si2 0.278926 0.301385 0.247593
Si Si3 0.118368 0.223153 0.573330
Si Si4 0.119611 0.727365 0.472075
Si Si5 0.521145 0.237964 0.907567
Si Si6 0.503807 0.743637 0.871592
O O1 0.277338 0.538264 0.834883
O O2 0.250000 0.750000 0.000000
O O3 0.348806 0.584623 0.884518
O O4 0.250000 0.250000 0.000000
O O5 0.254489 0.528691 0.211908
O O6 0.342649 0.207987 0.150516
O O7 0.136661 0.502868 0.520390
O O8 0.047409 0.239256 0.644382
O O9 0.132073 0.010468 0.489969
O O10 0.049489 0.719663 0.533996
O O11 0.540070 0.488409 0.840998
O O12 0.543687 0.990971 0.836762
O O13 0.527914 0.252505 0.000983
#
# Coordination Sequence:
#
# PCOD9262503 Si02
#       6
#     8   8   8   8   8   8
#     4  12  24  38  55  76 104 138 177 220 268 320
#     4  12  24  38  55  76 104 138 177 220 268 320
#     4  10  19  33  53  76 103 134 171 213 258 308
#     4  10  19  33  53  76 103 134 171 213 258 308
#     4   8  14  25  44  71  99 127 162 204 247 297
#     4   8  14  25  44  71  99 127 162 204 247 297
#
# _framework density 25.150964999999999
#
# number of rings (size 3 to 8) (size 9 to 14) (size 15 to 20)
#    0.000    2.000    0.000    6.000    0.000    0.000 
#    0.000    0.000    0.000    1.000    0.000    0.000 
#    0.000   32.000    0.000    0.000    0.000    6.167 
#
# Total GULP energy -133766.003769 kJ/mol
# GULP energy per Si atom -5573.583490 kJ/mol
# Density = 2.509372 g / cm^3
# Si number density = 25.150965 Si / 1000 Ang^3
#
#
#
# Elastic Constant Matrix: (Units=GPa)
#
#
# Indices 1 2 3 4 5 6 
#
# 1 74.3283 12.0056 21.7489 0.0005 2.1965 0.0073
# 2 12.0056 208.2571 5.0201 -0.0111 -6.7314 0.0209
# 3 21.7489 5.0201 67.7650 0.0041 -23.3884 0.0038
# 4 0.0005 -0.0111 0.0041 18.6956 -0.0004 8.6678
# 5 2.1965 -6.7314 -23.3884 -0.0004 28.3943 0.0036
# 6 0.0073 0.0209 0.0038 8.6678 0.0036 24.7068
#
#
#
# Elastic Compliance Matrix: (Units=1/GPa)
#
#
# Indices 1 2 3 4 5 6 
#
# 1 0.016149 -0.000999 -0.007855 0.000002 -0.007956 -0.000002
# 2 -0.000999 0.004901 0.000538 0.000006 0.001682 -0.000006
# 3 -0.007855 0.000538 0.024440 -0.000002 0.020866 -0.000004
# 4 0.000002 0.000006 -0.000002 0.063879 0.000003 -0.022410
# 5 -0.007956 0.001682 0.020866 0.000003 0.053420 -0.000011
# 6 -0.000002 -0.000006 -0.000004 -0.022410 -0.000011 0.048337
#
#
# Mechanical properties :
#
#
# Convention : Reuss Voigt Hill
#
# Bulk Modulus (GPa) = 34.65207 47.54441 41.09824
# Shear Modulus (GPa) = 21.06371 35.13104 28.09738
#
# Velocity S-wave (km/s) = 2.89708 3.74144 3.34600
# Velocity P-wave (km/s) = 4.99983 6.13263 5.59498
#
# Compressibility (1/GPa) = 0.02885831
#
# Stress axis : x y z
#
# Youngs Moduli (GPa) = 61.92485 204.05083 40.91698
#
# Poissons Ratio (x) = 0.20380 0.32139
# Poissons Ratio (y) = 0.06185 -0.02202
# Poissons Ratio (z) = 0.48641 -0.10981
#
# Static dielectric constant tensor:
#      x y z
#    x 2.201780 0.000000 0.092950 
#    y 0.000000 2.163430 -0.000020 
#    z 0.092950 -0.000020 2.036470 
# 
# From -- ./inp_files/179649.got.cif
#   From: 2010.05.17/outbox.cif.g08.bks.cpg/sg15_90_cif.got.tgz:179649.got - 2010.06.03 18:47:42.
