data_PCOD9262379
_publ_section_title
;
Structure prediction by ZEFSAII (Michael W. Deem and Ramdas Pophale) SiO2 
 PCOD9262379
Probable space group: C 2/C
;
_chemical_formula_sum "Si O2"
_cell_formula_units_Z 56
_cell_length_a 15.216663
_cell_length_b 21.726102
_cell_length_c 9.922794
_cell_angle_alpha 90.000000
_cell_angle_beta 87.139291
_cell_angle_gamma 90.000000
_cell_volume 3276.375457
_symmetry_space_group_name_H-M "C 2/C"
_symmetry_group_IT_number 15
_symmetry_cell_setting 'monoclinic'
loop_
_space_group_symop_operation_xyz
x,y,z
-x,y,1/2-z
-x,-y,-z
x,-y,1/2+z
1/2+x,1/2+y,z
1/2-x,1/2+y,1/2-z
1/2-x,1/2-y,-z
1/2+x,1/2-y,1/2+z
loop_
_atom_site_type_symbol
_atom_site_label
_atom_site_fract_x
_atom_site_fract_y
_atom_site_fract_z
Si Si1 0.036957 0.783026 0.396255
Si Si2 0.365030 0.840374 0.519297
Si Si3 0.996018 0.440124 0.092303
Si Si4 0.765958 0.321327 0.784260
Si Si5 0.921560 0.781329 0.648636
Si Si6 0.783468 0.180999 0.690839
Si Si7 0.165136 0.349675 0.424049
O O1 0.073744 0.718904 0.455389
O O2 0.119715 0.829025 0.376073
O O3 0.000000 0.771863 0.250000
O O4 0.961576 0.804270 0.504309
O O5 0.424711 0.893918 0.453546
O O6 0.315972 0.857575 0.662393
O O7 0.289146 0.820793 0.420818
O O8 0.905852 0.403236 0.074089
O O9 0.000000 0.455310 0.250000
O O10 0.000000 0.500000 0.000000
O O11 0.660117 0.321818 0.792801
O O12 0.789215 0.250026 0.750823
O O13 0.800576 0.338120 0.928571
O O14 0.882786 0.712923 0.624274
O O15 0.000000 0.778391 0.750000
O O16 0.745820 0.140032 0.814785
#
# Coordination Sequence:
#
# PCOD9262379 Si02
#       7
#     8   8   8   8   8   8   8
#     4  11  19  28  50  80 113 147 183 216 262 332
#     4  11  21  36  52  74 112 150 186 225 279 318
#     4  12  27  42  61  80 106 149 199 240 273 320
#     4  10  21  30  51  79 108 151 183 222 266 345
#     4  11  18  30  50  77 114 148 185 211 265 333
#     4  10  19  33  49  75 109 150 189 213 273 337
#     4  11  20  36  52  74 113 149 186 229 279 318
#
# _framework density 17.092058000000002
#
# number of rings (size 3 to 8) (size 9 to 14) (size 15 to 20)
#    0.000    1.143    2.857    9.000    2.000    0.000 
#    0.000    0.000    0.000    0.000    0.000    0.000 
#    0.000   22.857    0.000    0.000    0.000    0.000 
#
# Total GULP energy -156327.419869 kJ/mol
# GULP energy per Si atom -5583.122138 kJ/mol
# Density = 1.705316 g / cm^3
# Si number density = 17.092058 Si / 1000 Ang^3
#
#
#
# Elastic Constant Matrix: (Units=GPa)
#
#
# Indices 1 2 3 4 5 6 
#
# 1 85.7780 25.9906 32.8999 0.0000 -15.4235 0.0000
# 2 25.9906 45.8793 20.8449 0.0000 -2.1634 0.0000
# 3 32.8999 20.8449 114.0642 0.0000 -0.1857 0.0000
# 4 0.0000 0.0000 0.0000 19.0028 0.0000 -1.4346
# 5 -15.4235 -2.1634 -0.1857 0.0000 48.6031 0.0000
# 6 0.0000 0.0000 0.0000 -1.4346 0.0000 8.1472
#
#
#
# Elastic Compliance Matrix: (Units=1/GPa)
#
#
# Indices 1 2 3 4 5 6 
#
# 1 0.015987 -0.007352 -0.003260 0.000000 0.004734 0.000000
# 2 -0.007352 0.027204 -0.002853 0.000000 -0.001133 0.000000
# 3 -0.003260 -0.002853 0.010227 0.000000 -0.001122 0.000000
# 4 0.000000 0.000000 0.000000 0.053333 0.000000 0.009391
# 5 0.004734 -0.001133 -0.001122 0.000000 0.022022 0.000000
# 6 0.000000 0.000000 0.000000 0.009391 0.000000 0.124394
#
#
# Mechanical properties :
#
#
# Convention : Reuss Voigt Hill
#
# Bulk Modulus (GPa) = 37.75277 45.02138 41.38707
# Shear Modulus (GPa) = 17.30542 26.21639 21.76091
#
# Velocity S-wave (km/s) = 3.18541 3.92067 3.57201
# Velocity P-wave (km/s) = 5.97201 6.84786 6.42488
#
# Compressibility (1/GPa) = 0.02648812
#
# Stress axis : x y z
#
# Youngs Moduli (GPa) = 62.54991 36.75916 97.78293
#
# Poissons Ratio (x) = 0.27027 0.31876
# Poissons Ratio (y) = 0.45990 0.27894
# Poissons Ratio (z) = 0.20391 0.10486
#
# Static dielectric constant tensor:
#      x y z
#    x 1.625950 0.000000 -0.049290 
#    y 0.000000 1.533830 0.000000 
#    z -0.049290 0.000000 1.599710 
# 
# From -- ./inp_files/41230.got.cif
#   From: 2010.05.17/outbox.cif.g08.bks.cpg/sg15_21_cif.got.tgz:41230.got - 2010.06.03 18:47:42.
