data_PCOD9262150
_publ_section_title
;
Structure prediction by ZEFSAII (Michael W. Deem and Ramdas Pophale) SiO2 
 PCOD9262150
Probable space group: C 2/C
;
_chemical_formula_sum "Si O2"
_cell_formula_units_Z 52
_cell_length_a 11.483672
_cell_length_b 20.046596
_cell_length_c 13.906492
_cell_angle_alpha 90.000000
_cell_angle_beta 121.431223
_cell_angle_gamma 90.000000
_cell_volume 2731.642305
_symmetry_space_group_name_H-M "C 2/C"
_symmetry_group_IT_number 15
_symmetry_cell_setting 'monoclinic'
loop_
_space_group_symop_operation_xyz
x,y,z
-x,y,1/2-z
-x,-y,-z
x,-y,1/2+z
1/2+x,1/2+y,z
1/2-x,1/2+y,1/2-z
1/2-x,1/2-y,-z
1/2+x,1/2-y,1/2+z
loop_
_atom_site_type_symbol
_atom_site_label
_atom_site_fract_x
_atom_site_fract_y
_atom_site_fract_z
Si Si1 0.434170 0.572838 0.903807
Si Si2 0.787910 0.807916 0.398208
Si Si3 0.807913 0.029935 0.204294
Si Si4 0.716537 0.522312 0.019758
Si Si5 0.500000 0.120832 0.750000
Si Si6 0.854022 0.820726 0.650870
Si Si7 0.983977 0.497726 0.878355
O O1 0.377551 0.646919 0.865008
O O2 0.407137 0.516559 0.810728
O O3 0.340479 0.543299 0.949912
O O4 0.595836 0.573704 0.994613
O O5 0.635485 0.837824 0.328662
O O6 0.846553 0.817647 0.531472
O O7 0.766385 0.729614 0.368530
O O8 0.844040 0.105009 0.189923
O O9 0.664537 0.033758 0.199065
O O10 0.790135 0.991151 0.096639
O O11 0.877500 0.533678 0.105903
O O12 0.477018 0.071489 0.830342
O O13 0.000000 0.795460 0.750000
O O14 0.000000 0.500000 0.000000
#
# Coordination Sequence:
#
# PCOD9262150 Si02
#       7
#     8   8   8   8   4   8   8
#     4  11  20  34  58  84 121 152 195 251 296 359
#     4  11  22  38  59  86 122 160 191 248 309 363
#     4  11  20  34  56  85 118 152 194 247 297 348
#     4  10  20  32  51  89 115 147 196 245 296 343
#     4  12  18  38  56  90 120 152 202 238 306 356
#     4  11  23  38  58  87 126 152 197 252 304 362
#     4  10  19  32  54  82 119 153 193 249 292 349
#
# _framework density 19.036166999999999
#
# number of rings (size 3 to 8) (size 9 to 14) (size 15 to 20)
#    0.000    1.231    5.385    2.308    2.154    0.000 
#    0.000    0.000    0.000    0.923   12.000    0.000 
#    0.000    0.000    0.000    0.000    0.000    0.000 
#
# Total GULP energy -144816.387217 kJ/mol
# GULP energy per Si atom -5569.861047 kJ/mol
# Density = 1.899284 g / cm^3
# Si number density = 19.036167 Si / 1000 Ang^3
#
#
#
# Elastic Constant Matrix: (Units=GPa)
#
#
# Indices 1 2 3 4 5 6 
#
# 1 107.4586 1.4192 11.9166 0.0000 29.1145 0.0000
# 2 1.4192 74.9512 2.7961 0.0000 10.2284 0.0000
# 3 11.9166 2.7961 73.8835 0.0000 3.4487 0.0000
# 4 0.0000 0.0000 0.0000 6.3228 0.0000 -2.6644
# 5 29.1145 10.2284 3.4487 0.0000 44.9291 0.0000
# 6 0.0000 0.0000 0.0000 -2.6644 0.0000 24.2931
#
#
#
# Elastic Compliance Matrix: (Units=1/GPa)
#
#
# Indices 1 2 3 4 5 6 
#
# 1 0.011507 0.000868 -0.001537 0.000000 -0.007536 0.000000
# 2 0.000868 0.013846 -0.000492 0.000000 -0.003677 0.000000
# 3 -0.001537 -0.000492 0.013799 0.000000 0.000049 0.000000
# 4 0.000000 0.000000 0.000000 0.165822 0.000000 0.018187
# 5 -0.007536 -0.003677 0.000049 0.000000 0.027974 0.000000
# 6 0.000000 0.000000 0.000000 0.018187 0.000000 0.043159
#
#
# Mechanical properties :
#
#
# Convention : Reuss Voigt Hill
#
# Bulk Modulus (GPa) = 27.15286 32.06191 29.60738
# Shear Modulus (GPa) = 17.19957 31.11974 24.15965
#
# Velocity S-wave (km/s) = 3.00912 4.04761 3.56637
# Velocity P-wave (km/s) = 5.13497 6.22282 5.70488
#
# Compressibility (1/GPa) = 0.03682854
#
# Stress axis : x y z
#
# Youngs Moduli (GPa) = 86.90605 72.22459 72.46866
#
# Poissons Ratio (x) = -0.06268 0.11138
# Poissons Ratio (y) = -0.07542 0.03568
# Poissons Ratio (z) = 0.13357 0.03556
#
# Static dielectric constant tensor:
#      x y z
#    x 1.695380 0.000000 0.019530 
#    y 0.000000 1.696750 0.000000 
#    z 0.019530 0.000000 1.719440 
# 
# From -- ./inp_files/146823.got.cif
#   From: 2010.05.17/outbox.cif.g08.bks.cpg/sg15_74_cif.got.tgz:146823.got - 2010.06.03 18:47:42.
