data_PCOD9262492
_publ_section_title
;
Structure prediction by ZEFSAII (Michael W. Deem and Ramdas Pophale) SiO2 
 PCOD9262492
Probable space group: C 2/C
;
_chemical_formula_sum "Si O2"
_cell_formula_units_Z 52
_cell_length_a 10.648783
_cell_length_b 32.447991
_cell_length_c 12.082910
_cell_angle_alpha 90.000000
_cell_angle_beta 39.796072
_cell_angle_gamma 90.000000
_cell_volume 2672.255629
_symmetry_space_group_name_H-M "C 2/C"
_symmetry_group_IT_number 15
_symmetry_cell_setting 'monoclinic'
loop_
_space_group_symop_operation_xyz
x,y,z
-x,y,1/2-z
-x,-y,-z
x,-y,1/2+z
1/2+x,1/2+y,z
1/2-x,1/2+y,1/2-z
1/2-x,1/2-y,-z
1/2+x,1/2-y,1/2+z
loop_
_atom_site_type_symbol
_atom_site_label
_atom_site_fract_x
_atom_site_fract_y
_atom_site_fract_z
Si Si1 0.568077 0.703553 0.332373
Si Si2 0.664651 0.794003 0.234654
Si Si3 0.500000 0.072602 0.250000
Si Si4 0.845037 0.017055 0.955081
Si Si5 0.251864 0.617044 0.266498
Si Si6 0.603847 0.436247 0.461253
Si Si7 0.945448 0.381616 0.157380
O O1 0.500000 0.700708 0.250000
O O2 0.656258 0.748905 0.293939
O O3 0.373153 0.699359 0.536696
O O4 0.711850 0.665910 0.259245
O O5 0.500000 0.791562 0.250000
O O6 0.615512 0.835110 0.335949
O O7 0.354959 0.043161 0.419980
O O8 0.628992 0.100472 0.244953
O O9 0.000000 0.016975 0.750000
O O10 0.958386 0.039324 0.978736
O O11 0.802488 0.970256 0.021445
O O12 0.465704 0.595874 0.119315
O O13 0.127127 0.605689 0.459269
O O14 0.763283 0.412533 0.279804
O O15 0.000000 0.379742 0.250000
#
# Coordination Sequence:
#
# PCOD9262492 Si02
#       7
#     8   8   4   8   8   8   8
#     4  11  19  33  57  87 123 156 195 246 294 356
#     4  10  19  33  52  87 125 158 191 230 307 363
#     4  10  24  44  62  84 114 166 208 242 292 356
#     4  10  22  40  62  81 116 156 198 246 298 351
#     4  11  23  39  61  86 120 160 202 245 292 348
#     4  10  23  38  56  91 114 152 201 244 298 353
#     4  11  22  35  57  90 123 152 191 243 304 360
#
# _framework density 19.459216000000001
#
# number of rings (size 3 to 8) (size 9 to 14) (size 15 to 20)
#    0.000    1.538    1.538    5.538    3.231    0.000 
#    0.000    4.615    0.000    3.692    0.000    0.000 
#    0.000    0.000    0.000    0.000    0.000    0.000 
#
# Total GULP energy -145153.317507 kJ/mol
# GULP energy per Si atom -5582.819904 kJ/mol
# Density = 1.941493 g / cm^3
# Si number density = 19.459216 Si / 1000 Ang^3
#
#
#
# Elastic Constant Matrix: (Units=GPa)
#
#
# Indices 1 2 3 4 5 6 
#
# 1 31.8915 15.8425 -1.3061 0.0000 -9.7148 0.0000
# 2 15.8425 112.0684 15.7633 0.0000 -12.7721 0.0000
# 3 -1.3061 15.7633 116.3689 0.0000 -17.1271 0.0000
# 4 0.0000 0.0000 0.0000 17.5361 0.0000 -7.8113
# 5 -9.7148 -12.7721 -17.1271 0.0000 27.4809 0.0000
# 6 0.0000 0.0000 0.0000 -7.8113 0.0000 -19.2696
#
#
#
# Elastic Compliance Matrix: (Units=1/GPa)
#
#
# Indices 1 2 3 4 5 6 
#
# 1 0.037580 -0.004226 0.002929 0.000000 0.013146 0.000000
# 2 -0.004226 0.009949 -0.001029 0.000000 0.002489 0.000000
# 3 0.002929 -0.001029 0.009741 0.000000 0.006628 0.000000
# 4 0.000000 0.000000 0.000000 0.048303 0.000000 -0.019581
# 5 0.013146 0.002489 0.006628 0.000000 0.046324 0.000000
# 6 0.000000 0.000000 0.000000 -0.019581 0.000000 -0.043958
#
#
# Mechanical properties :
#
#
# Convention : Reuss Voigt Hill
#
# Bulk Modulus (GPa) = 19.00470 35.65868 27.33169
# Shear Modulus (GPa) = 38.42275 20.48475 29.45375
#
# Velocity S-wave (km/s) = 4.44839 3.24806 3.89474
# Velocity P-wave (km/s) = 6.01430 5.69483 5.85674
#
# Compressibility (1/GPa) = 0.05261855
#
# Stress axis : x y z
#
# Youngs Moduli (GPa) = 26.60963 100.51356 102.65717
#
# Poissons Ratio (x) = 0.42480 -0.30070
# Poissons Ratio (y) = 0.11246 0.10562
# Poissons Ratio (z) = -0.07794 0.10341
#
# Static dielectric constant tensor:
#      x y z
#    x 1.673370 0.000000 -0.013030 
#    y 0.000000 1.730040 0.000000 
#    z -0.013030 0.000000 1.676800 
# 
# From -- ./inp_files/92558.got.cif
#   From: 2010.05.17/outbox.cif.g08.bks.cpg/sg15_47_cif.got.tgz:92558.got - 2010.06.03 18:47:42.
