data_PCOD9262063
_publ_section_title
;
Structure prediction by ZEFSAII (Michael W. Deem and Ramdas Pophale) SiO2 
 PCOD9262063
Probable space group: C 2/C
;
_chemical_formula_sum "Si O2"
_cell_formula_units_Z 36
_cell_length_a 8.774752
_cell_length_b 19.655883
_cell_length_c 9.512413
_cell_angle_alpha 90.000000
_cell_angle_beta 86.664433
_cell_angle_gamma 90.000000
_cell_volume 1637.878721
_symmetry_space_group_name_H-M "C 2/C"
_symmetry_group_IT_number 15
_symmetry_cell_setting 'monoclinic'
loop_
_space_group_symop_operation_xyz
x,y,z
-x,y,1/2-z
-x,-y,-z
x,-y,1/2+z
1/2+x,1/2+y,z
1/2-x,1/2+y,1/2-z
1/2-x,1/2-y,-z
1/2+x,1/2-y,1/2+z
loop_
_atom_site_type_symbol
_atom_site_label
_atom_site_fract_x
_atom_site_fract_y
_atom_site_fract_z
Si Si1 0.500000 0.017595 0.250000
Si Si2 0.426294 0.801548 0.052922
Si Si3 0.669671 0.245602 0.223986
Si Si4 0.657229 0.078814 0.520612
Si Si5 0.399841 0.663686 0.388232
O O1 0.380637 0.975697 0.355655
O O2 0.597674 0.055517 0.367663
O O3 0.290739 0.801777 0.172224
O O4 0.498967 0.725863 0.057960
O O5 0.350007 0.806621 0.904746
O O6 0.548596 0.858568 0.068279
O O7 0.500000 0.272472 0.250000
O O8 0.747295 0.203038 0.342404
O O9 0.830235 0.106301 0.492485
O O10 0.500000 0.638027 0.250000
#
# Coordination Sequence:
#
# PCOD9262063 Si02
#       5
#     4   8   8   8   8
#     4  10  26  38  64  86 114 182 212 254 296 346
#     4  10  21  33  60  91 126 159 191 255 321 371
#     4  10  19  32  52  94 131 151 186 238 330 371
#     4  11  21  42  60  88 123 162 223 250 297 379
#     4  10  21  36  63  95 125 159 191 265 331 363
#
# _framework density 21.979649999999999
#
# number of rings (size 3 to 8) (size 9 to 14) (size 15 to 20)
#    0.000    1.778    2.222    2.000    4.667    0.000 
#    0.000    1.111    0.000    5.333    0.000    0.000 
#    0.000    0.000    0.000    0.000    0.000    0.000 
#
# Total GULP energy -100397.876333 kJ/mol
# GULP energy per Si atom -5577.659796 kJ/mol
# Density = 2.192962 g / cm^3
# Si number density = 21.979650 Si / 1000 Ang^3
#
#
#
# Elastic Constant Matrix: (Units=GPa)
#
#
# Indices 1 2 3 4 5 6 
#
# 1 119.8896 31.9380 40.2205 0.0000 -32.4079 0.0000
# 2 31.9380 46.5631 26.6224 0.0000 -23.0335 0.0000
# 3 40.2205 26.6224 108.5376 0.0000 -16.1125 0.0000
# 4 0.0000 0.0000 0.0000 32.4641 0.0000 -8.1109
# 5 -32.4079 -23.0335 -16.1125 0.0000 52.9046 0.0000
# 6 0.0000 0.0000 0.0000 -8.1109 0.0000 17.7928
#
#
#
# Elastic Compliance Matrix: (Units=1/GPa)
#
#
# Indices 1 2 3 4 5 6 
#
# 1 0.011534 -0.004247 -0.002575 0.000000 0.004432 0.000000
# 2 -0.004247 0.032028 -0.004816 0.000000 0.009876 0.000000
# 3 -0.002575 -0.004816 0.011315 0.000000 -0.000228 0.000000
# 4 0.000000 0.000000 0.000000 0.034762 0.000000 0.015847
# 5 0.004432 0.009876 -0.000228 0.000000 0.025848 0.000000
# 6 0.000000 0.000000 0.000000 0.015847 0.000000 0.063426
#
#
# Mechanical properties :
#
#
# Convention : Reuss Voigt Hill
#
# Bulk Modulus (GPa) = 31.64316 52.50579 42.07447
# Shear Modulus (GPa) = 23.50482 32.37961 27.94222
#
# Velocity S-wave (km/s) = 3.27370 3.84234 3.56936
# Velocity P-wave (km/s) = 5.35885 6.60493 6.01425
#
# Compressibility (1/GPa) = 0.03160240
#
# Stress axis : x y z
#
# Youngs Moduli (GPa) = 86.69872 31.22255 88.37892
#
# Poissons Ratio (x) = 0.13260 0.22753
# Poissons Ratio (y) = 0.36819 0.42564
# Poissons Ratio (z) = 0.22321 0.15037
#
# Static dielectric constant tensor:
#      x y z
#    x 1.820780 0.000000 -0.032060 
#    y 0.000000 1.822550 0.000000 
#    z -0.032060 0.000000 1.949090 
# 
# From -- ./inp_files/77311.got.cif
#   From: 2010.05.17/outbox.cif.g08.bks.cpg/sg15_39_cif.got.tgz:77311.got - 2010.06.03 18:47:42.
