data_PCOD9262913
_publ_section_title
;
Structure prediction by ZEFSAII (Michael W. Deem and Ramdas Pophale) SiO2 
 PCOD9262913
Probable space group: C 2/C
;
_chemical_formula_sum "Si O2"
_cell_formula_units_Z 40
_cell_length_a 12.480458
_cell_length_b 22.502757
_cell_length_c 9.440533
_cell_angle_alpha 90.000000
_cell_angle_beta 125.410221
_cell_angle_gamma 90.000000
_cell_volume 2160.893697
_symmetry_space_group_name_H-M "C 2/C"
_symmetry_group_IT_number 15
_symmetry_cell_setting 'monoclinic'
loop_
_space_group_symop_operation_xyz
x,y,z
-x,y,1/2-z
-x,-y,-z
x,-y,1/2+z
1/2+x,1/2+y,z
1/2-x,1/2+y,1/2-z
1/2-x,1/2-y,-z
1/2+x,1/2-y,1/2+z
loop_
_atom_site_type_symbol
_atom_site_label
_atom_site_fract_x
_atom_site_fract_y
_atom_site_fract_z
Si Si1 0.360030 0.700361 0.568031
Si Si2 0.192181 0.031073 0.294819
Si Si3 0.192905 0.100578 0.753695
Si Si4 0.524820 0.648269 0.114867
Si Si5 0.142887 0.473771 0.294470
O O1 0.500000 0.715928 0.750000
O O2 0.250000 0.750000 0.500000
O O3 0.311467 0.640338 0.610366
O O4 0.388753 0.686713 0.426292
O O5 0.095922 0.085060 0.194901
O O6 0.257287 0.034272 0.498721
O O7 0.130416 0.964920 0.233036
O O8 0.306778 0.028543 0.262933
O O9 0.333253 0.081614 0.794718
O O10 0.108939 0.134727 0.571884
O O11 0.500000 0.675284 0.250000
O O12 0.000000 0.479729 0.250000
#
# Coordination Sequence:
#
# PCOD9262913 Si02
#       5
#     8   8   8   8   8
#     4  10  23  45  62  86 116 158 203 248 290 345
#     4  10  19  33  57  88 121 154 186 233 305 345
#     4   9  21  35  59  85 121 151 192 243 287 355
#     4  11  19  37  62  90 114 144 196 245 293 351
#     4  10  20  33  48  81 124 161 190 225 280 357
#
# _framework density 18.510859
#
# number of rings (size 3 to 8) (size 9 to 14) (size 15 to 20)
#    1.200    0.800    2.000    2.400    0.000    2.400 
#    3.600    6.000    0.000    0.000    0.000    0.000 
#    0.000    0.000    0.000    0.000    0.000    0.000 
#
# Total GULP energy -111392.178646 kJ/mol
# GULP energy per Si atom -5569.608932 kJ/mol
# Density = 1.846873 g / cm^3
# Si number density = 18.510859 Si / 1000 Ang^3
#
#
#
# Elastic Constant Matrix: (Units=GPa)
#
#
# Indices 1 2 3 4 5 6 
#
# 1 131.3713 35.8042 32.0557 0.0000 -35.1979 0.0000
# 2 35.8042 54.3629 21.3442 0.0000 -12.5287 0.0000
# 3 32.0557 21.3442 67.3746 0.0000 -33.8774 0.0000
# 4 0.0000 0.0000 0.0000 8.0544 0.0000 -1.3860
# 5 -35.1979 -12.5287 -33.8774 0.0000 30.8517 0.0000
# 6 0.0000 0.0000 0.0000 -1.3860 0.0000 33.0413
#
#
#
# Elastic Compliance Matrix: (Units=1/GPa)
#
#
# Indices 1 2 3 4 5 6 
#
# 1 0.012748 -0.006235 0.004354 0.000000 0.016793 0.000000
# 2 -0.006235 0.024161 -0.007437 0.000000 -0.005469 0.000000
# 3 0.004354 -0.007437 0.035962 0.000000 0.041435 0.000000
# 4 0.000000 0.000000 0.000000 0.125058 0.000000 0.005246
# 5 0.016793 -0.005469 0.041435 0.000000 0.094850 0.000000
# 6 0.000000 0.000000 0.000000 0.005246 0.000000 0.030485
#
#
# Mechanical properties :
#
#
# Convention : Reuss Voigt Hill
#
# Bulk Modulus (GPa) = 18.43900 47.94634 33.19267
# Shear Modulus (GPa) = 13.88965 25.31646 19.60305
#
# Velocity S-wave (km/s) = 2.74223 3.70219 3.25776
# Velocity P-wave (km/s) = 4.47317 6.65079 5.66755
#
# Compressibility (1/GPa) = 0.05423288
#
# Stress axis : x y z
#
# Youngs Moduli (GPa) = 78.44163 41.38831 27.80738
#
# Poissons Ratio (x) = 0.25808 -0.12106
# Poissons Ratio (y) = 0.48912 0.20682
# Poissons Ratio (z) = -0.34151 0.30783
#
# Static dielectric constant tensor:
#      x y z
#    x 1.683110 0.000000 -0.018430 
#    y 0.000000 1.620320 0.000000 
#    z -0.018430 0.000000 1.652590 
# 
# From -- ./inp_files/33169.got.cif
#   From: 2010.05.17/outbox.cif.g08.bks.cpg/sg15_17_cif.got.tgz:33169.got - 2010.06.03 18:47:42.
