data_PCOD9262966
_publ_section_title
;
Structure prediction by ZEFSAII (Michael W. Deem and Ramdas Pophale) SiO2 
 PCOD9262966
Probable space group: C 2/C
;
_chemical_formula_sum "Si O2"
_cell_formula_units_Z 64
_cell_length_a 13.055314
_cell_length_b 24.620164
_cell_length_c 22.261468
_cell_angle_alpha 90.000000
_cell_angle_beta 153.305579
_cell_angle_gamma 90.000000
_cell_volume 3214.420985
_symmetry_space_group_name_H-M "C 2/C"
_symmetry_group_IT_number 15
_symmetry_cell_setting 'monoclinic'
loop_
_space_group_symop_operation_xyz
x,y,z
-x,y,1/2-z
-x,-y,-z
x,-y,1/2+z
1/2+x,1/2+y,z
1/2-x,1/2+y,1/2-z
1/2-x,1/2-y,-z
1/2+x,1/2-y,1/2+z
loop_
_atom_site_type_symbol
_atom_site_label
_atom_site_fract_x
_atom_site_fract_y
_atom_site_fract_z
Si Si1 0.645965 0.418271 0.406760
Si Si2 0.819108 0.963375 0.578268
Si Si3 0.737632 0.141644 0.742510
Si Si4 0.077318 0.417637 0.723016
Si Si5 0.000496 0.406931 0.007866
Si Si6 0.845059 0.136031 0.267212
Si Si7 0.086899 0.460814 0.229153
Si Si8 0.982298 0.744476 0.665713
O O1 0.546085 0.479848 0.356282
O O2 0.480524 0.368388 0.336755
O O3 0.764423 0.417341 0.403573
O O4 0.852908 0.417723 0.563409
O O5 0.659792 0.956465 0.553996
O O6 0.635688 0.962400 0.429113
O O7 0.971912 0.910178 0.653083
O O8 0.554848 0.127360 0.595287
O O9 0.734957 0.090240 0.786517
O O10 0.646121 0.196296 0.725590
O O11 0.253927 0.376139 0.786223
O O12 0.186273 0.478285 0.777488
O O13 0.000000 0.406450 0.750000
O O14 0.857495 0.373937 0.885197
O O15 0.921846 0.196277 0.296815
O O16 0.000000 0.451939 0.250000
O O17 0.000000 0.737749 0.750000
O O18 0.750000 0.750000 0.500000
#
# Coordination Sequence:
#
# PCOD9262966 Si02
#       8
#     8   8   8   8   8   8   8   8
#     4  10  21  35  56  88 120 151 194 242 298 364
#     4  10  19  33  58  87 115 153 195 243 298 357
#     4  11  22  37  58  85 116 156 198 247 298 351
#     4   9  20  37  56  82 119 153 186 233 295 366
#     4  10  21  38  57  84 122 155 190 241 305 365
#     4  11  22  39  60  83 112 155 200 243 296 360
#     4   9  18  34  54  82 117 150 187 237 295 354
#     4  12  26  45  66  91 120 155 205 258 302 353
#
# _framework density 19.910273
#
# number of rings (size 3 to 8) (size 9 to 14) (size 15 to 20)
#    0.000    1.750    0.000    5.250    0.000    6.000 
#    0.000    7.500    0.000    0.000    0.000    0.000 
#    0.000    0.000    0.000    0.000    0.000    0.000 
#
# Total GULP energy -178204.724920 kJ/mol
# GULP energy per Si atom -5568.897654 kJ/mol
# Density = 1.986496 g / cm^3
# Si number density = 19.910273 Si / 1000 Ang^3
#
#
#
# Elastic Constant Matrix: (Units=GPa)
#
#
# Indices 1 2 3 4 5 6 
#
# 1 142.4616 79.3807 36.9568 0.0225 -7.6445 -0.0162
# 2 79.3807 129.5389 25.8122 0.0112 13.4749 -0.0066
# 3 36.9568 25.8122 34.8474 0.3940 3.7063 -0.0190
# 4 0.0225 0.0112 0.3940 -252.4875 0.0350 39.9280
# 5 -7.6445 13.4749 3.7063 0.0350 33.6346 -0.0188
# 6 -0.0162 -0.0066 -0.0190 39.9280 -0.0188 19.6182
#
#
#
# Elastic Compliance Matrix: (Units=1/GPa)
#
#
# Indices 1 2 3 4 5 6 
#
# 1 0.014248 -0.007426 -0.010393 -0.000010 0.007358 0.000027
# 2 -0.007426 0.013220 -0.001188 -0.000003 -0.006853 -0.000003
# 3 -0.010393 -0.001188 0.041282 0.000050 -0.006435 -0.000077
# 4 -0.000010 -0.000003 0.000050 -0.002996 0.000000 0.006098
# 5 0.007358 -0.006853 -0.006435 0.000000 0.034858 0.000031
# 6 0.000027 -0.000003 -0.000077 0.006098 0.000031 0.038562
#
#
# Mechanical properties :
#
#
# Convention : Reuss Voigt Hill
#
# Bulk Modulus (GPa) = 32.53392 65.68304 49.10848
# Shear Modulus (GPa) = 26.67632 -28.86707 -1.09538
#
# Velocity S-wave (km/s) = 3.66434 -3.81183 -0.74253
# Velocity P-wave (km/s) = 5.85482 3.69969 4.89728
#
# Compressibility (1/GPa) = 0.03073715
#
# Stress axis : x y z
#
# Youngs Moduli (GPa) = 70.18571 75.64485 24.22358
#
# Poissons Ratio (x) = 0.56171 0.25174
# Poissons Ratio (y) = 0.52117 0.02878
# Poissons Ratio (z) = 0.72941 0.08987
#
# Static dielectric constant tensor:
#      x y z
#    x 1.775260 0.000010 0.113720 
#    y 0.000010 1.696840 0.000070 
#    z 0.113720 0.000070 3.354130 
# 
# From -- ./inp_files/241011.got.cif
#   From: 2010.05.17/outbox.cif.g08.bks.cpg/sg15_121_cif.got.tgz:241011.got - 2010.06.03 18:47:42.
