data_PCOD9262136
_publ_section_title
;
Structure prediction by ZEFSAII (Michael W. Deem and Ramdas Pophale) SiO2 
 PCOD9262136
Probable space group: C 2/C
;
_chemical_formula_sum "Si O2"
_cell_formula_units_Z 56
_cell_length_a 27.292617
_cell_length_b 7.917587
_cell_length_c 16.201496
_cell_angle_alpha 90.000000
_cell_angle_beta 124.677210
_cell_angle_gamma 90.000000
_cell_volume 2879.125658
_symmetry_space_group_name_H-M "C 2/C"
_symmetry_group_IT_number 15
_symmetry_cell_setting 'monoclinic'
loop_
_space_group_symop_operation_xyz
x,y,z
-x,y,1/2-z
-x,-y,-z
x,-y,1/2+z
1/2+x,1/2+y,z
1/2-x,1/2+y,1/2-z
1/2-x,1/2-y,-z
1/2+x,1/2-y,1/2+z
loop_
_atom_site_type_symbol
_atom_site_label
_atom_site_fract_x
_atom_site_fract_y
_atom_site_fract_z
Si Si1 0.699016 0.867630 0.858150
Si Si2 0.376832 0.369342 0.315902
Si Si3 0.590000 0.888079 0.239120
Si Si4 0.900308 0.793743 0.928511
Si Si5 0.981336 0.639322 0.416604
Si Si6 0.930336 0.963570 0.700130
Si Si7 0.330756 0.344107 0.007299
O O1 0.681623 0.731009 0.770171
O O2 0.684779 0.770921 0.929453
O O3 0.652634 0.020405 0.812369
O O4 0.767453 0.923477 0.921274
O O5 0.376504 0.521466 0.379911
O O6 0.422400 0.230190 0.392205
O O7 0.408345 0.443565 0.263022
O O8 0.595382 0.805064 0.153250
O O9 0.576375 0.736747 0.288650
O O10 0.539501 0.034754 0.184158
O O11 0.854930 0.732819 0.954667
O O12 0.965398 0.774566 0.032963
O O13 0.000000 0.500000 0.500000
O O14 0.000000 0.000645 0.750000
O O15 0.883883 0.030038 0.586508
#
# Coordination Sequence:
#
# PCOD9262136 Si02
#       7
#     8   8   8   8   8   8   8
#     4   9  20  39  53  72 106 143 176 212 266 315
#     4   9  18  34  53  71 103 139 168 212 259 310
#     4   9  20  36  54  76 109 142 172 217 265 315
#     4  10  19  32  54  81 102 134 177 217 261 306
#     4   9  17  30  50  76 104 132 166 209 258 306
#     4  10  20  34  53  78 104 136 174 213 266 318
#     4  10  21  35  55  77 103 139 179 219 259 316
#
# _framework density 19.45035
#
# number of rings (size 3 to 8) (size 9 to 14) (size 15 to 20)
#    0.000    2.571    0.000    1.286    0.000    5.143 
#    0.000    4.286    0.000    0.000    0.000    0.000 
#    0.000    0.000    0.000    0.000    0.000    0.000 
#
# Total GULP energy -155870.239980 kJ/mol
# GULP energy per Si atom -5566.794285 kJ/mol
# Density = 1.940608 g / cm^3
# Si number density = 19.450350 Si / 1000 Ang^3
#
#
#
# Elastic Constant Matrix: (Units=GPa)
#
#
# Indices 1 2 3 4 5 6 
#
# 1 69.5000 7.3048 50.6585 0.0000 24.3235 0.0000
# 2 7.3048 64.1926 33.2523 0.0000 15.4047 0.0000
# 3 50.6585 33.2523 87.8464 0.0000 30.9924 0.0000
# 4 0.0000 0.0000 0.0000 8.5202 0.0000 5.6534
# 5 24.3235 15.4047 30.9924 0.0000 30.9185 0.0000
# 6 0.0000 0.0000 0.0000 5.6534 0.0000 16.7288
#
#
#
# Elastic Compliance Matrix: (Units=1/GPa)
#
#
# Indices 1 2 3 4 5 6 
#
# 1 0.028689 0.007355 -0.015584 0.000000 -0.010613 0.000000
# 2 0.007355 0.021520 -0.010154 0.000000 -0.006330 0.000000
# 3 -0.015584 -0.010154 0.028009 0.000000 -0.010757 0.000000
# 4 0.000000 0.000000 0.000000 0.151293 0.000000 -0.051128
# 5 -0.010613 -0.006330 -0.010757 0.000000 0.054628 0.000000
# 6 0.000000 0.000000 0.000000 -0.051128 0.000000 0.077056
#
#
# Mechanical properties :
#
#
# Convention : Reuss Voigt Hill
#
# Bulk Modulus (GPa) = 24.12471 44.88560 34.50516
# Shear Modulus (GPa) = 12.14248 19.92173 16.03210
#
# Velocity S-wave (km/s) = 2.50127 3.20384 2.87410
# Velocity P-wave (km/s) = 4.55763 6.06739 5.36587
#
# Compressibility (1/GPa) = 0.04145128
#
# Stress axis : x y z
#
# Youngs Moduli (GPa) = 34.85710 46.46835 35.70289
#
# Poissons Ratio (x) = -0.34176 0.55638
# Poissons Ratio (y) = -0.25636 0.36253
# Poissons Ratio (z) = 0.54320 0.47184
#
# Static dielectric constant tensor:
#      x y z
#    x 1.684110 0.000000 0.008180 
#    y 0.000000 1.717410 0.000000 
#    z 0.008180 0.000000 1.730380 
# 
# From -- ./inp_files/172504.got.cif
#   From: 2010.05.17/outbox.cif.g08.bks.cpg/sg15_87_cif.got.tgz:172504.got - 2010.06.03 18:47:42.
