data_PCOD9262896
_publ_section_title
;
Structure prediction by ZEFSAII (Michael W. Deem and Ramdas Pophale) SiO2 
 PCOD9262896
Probable space group: C 2/C
;
_chemical_formula_sum "Si O2"
_cell_formula_units_Z 56
_cell_length_a 8.064388
_cell_length_b 16.595635
_cell_length_c 18.040330
_cell_angle_alpha 90.000000
_cell_angle_beta 83.599127
_cell_angle_gamma 90.000000
_cell_volume 2399.352170
_symmetry_space_group_name_H-M "C 2/C"
_symmetry_group_IT_number 15
_symmetry_cell_setting 'monoclinic'
loop_
_space_group_symop_operation_xyz
x,y,z
-x,y,1/2-z
-x,-y,-z
x,-y,1/2+z
1/2+x,1/2+y,z
1/2-x,1/2+y,1/2-z
1/2-x,1/2-y,-z
1/2+x,1/2-y,1/2+z
loop_
_atom_site_type_symbol
_atom_site_label
_atom_site_fract_x
_atom_site_fract_y
_atom_site_fract_z
Si Si1 0.742360 0.863535 0.899507
Si Si2 0.110804 0.352232 0.556599
Si Si3 0.549056 0.283255 0.952353
Si Si4 0.974807 0.881569 0.106164
Si Si5 0.356866 0.878817 0.302886
Si Si6 0.174165 0.017213 0.698915
Si Si7 0.693735 0.036714 0.553215
O O1 0.557660 0.832661 0.890603
O O2 0.789775 0.932529 0.840152
O O3 0.888056 0.798916 0.909313
O O4 0.712906 0.910725 0.978941
O O5 0.279213 0.320004 0.586333
O O6 0.088161 0.305455 0.479977
O O7 0.132155 0.447262 0.544130
O O8 0.514359 0.330035 0.031960
O O9 0.826927 0.843990 0.165331
O O10 0.878950 0.961927 0.080743
O O11 0.135379 0.911901 0.141571
O O12 0.500000 0.832063 0.250000
O O13 0.310059 0.951787 0.249801
O O14 0.587651 0.916986 0.121461
O O15 0.000000 0.009799 0.750000
#
# Coordination Sequence:
#
# PCOD9262896 Si02
#       7
#     8   8   8   8   8   8   8
#     4  11  21  37  59  86 116 145 192 246 287 336
#     4  11  21  34  57  86 112 152 190 230 295 340
#     4  10  22  37  54  84 118 150 186 240 279 354
#     4   8  18  35  54  78 116 141 184 236 294 321
#     4   9  18  32  53  84 114 142 182 240 289 337
#     4  10  19  33  57  86 108 147 183 237 290 338
#     4   9  19  33  57  88 112 140 189 248 284 325
#
# _framework density 23.339632999999999
#
# number of rings (size 3 to 8) (size 9 to 14) (size 15 to 20)
#    0.857    1.429    0.000    3.429    0.000    3.429 
#    0.000    0.000    0.000    8.571    3.714    0.000 
#    0.000    0.000    0.000    0.000    0.000    0.000 
#
# Total GULP energy -156216.254995 kJ/mol
# GULP energy per Si atom -5579.151964 kJ/mol
# Density = 2.328651 g / cm^3
# Si number density = 23.339633 Si / 1000 Ang^3
#
#
#
# Elastic Constant Matrix: (Units=GPa)
#
#
# Indices 1 2 3 4 5 6 
#
# 1 118.8969 23.9626 18.4958 0.0000 -18.9742 0.0000
# 2 23.9626 56.4838 3.8348 0.0000 1.3898 0.0000
# 3 18.4958 3.8348 63.3479 0.0000 -4.5079 0.0000
# 4 0.0000 0.0000 0.0000 16.7596 0.0000 -1.5772
# 5 -18.9742 1.3898 -4.5079 0.0000 30.3944 0.0000
# 6 0.0000 0.0000 0.0000 -1.5772 0.0000 27.3868
#
#
#
# Elastic Compliance Matrix: (Units=1/GPa)
#
#
# Indices 1 2 3 4 5 6 
#
# 1 0.010750 -0.004559 -0.002396 0.000000 0.006564 0.000000
# 2 -0.004559 0.019740 -0.000132 0.000000 -0.003768 0.000000
# 3 -0.002396 -0.000132 0.016562 0.000000 0.000967 0.000000
# 4 0.000000 0.000000 0.000000 0.059992 0.000000 0.003455
# 5 0.006564 -0.003768 0.000967 0.000000 0.037314 0.000000
# 6 0.000000 0.000000 0.000000 0.003455 0.000000 0.036713
#
#
# Mechanical properties :
#
#
# Convention : Reuss Voigt Hill
#
# Bulk Modulus (GPa) = 30.41516 36.81276 33.61396
# Shear Modulus (GPa) = 24.24780 27.73718 25.99249
#
# Velocity S-wave (km/s) = 3.22671 3.45108 3.34078
# Velocity P-wave (km/s) = 5.19057 5.62910 5.41428
#
# Compressibility (1/GPa) = 0.03287834
#
# Stress axis : x y z
#
# Youngs Moduli (GPa) = 93.02605 50.65827 60.37897
#
# Poissons Ratio (x) = 0.23097 0.14464
# Poissons Ratio (y) = 0.42413 0.00797
# Poissons Ratio (z) = 0.22284 0.00668
#
# Static dielectric constant tensor:
#      x y z
#    x 2.005810 0.000000 -0.045910 
#    y 0.000000 1.874270 0.000000 
#    z -0.045910 0.000000 1.894530 
# 
# From -- ./inp_files/232608.got.cif
#   From: 2010.05.17/outbox.cif.g08.bks.cpg/sg15_117_cif.got.tgz:232608.got - 2010.06.03 18:47:42.
