data_PCOD9262096
_publ_section_title
;
Structure prediction by ZEFSAII (Michael W. Deem and Ramdas Pophale) SiO2 
 PCOD9262096
Probable space group: C 2/C
;
_chemical_formula_sum "Si O2"
_cell_formula_units_Z 64
_cell_length_a 23.348091
_cell_length_b 19.750024
_cell_length_c 16.052048
_cell_angle_alpha 90.000000
_cell_angle_beta 157.254621
_cell_angle_gamma 90.000000
_cell_volume 2861.886454
_symmetry_space_group_name_H-M "C 2/C"
_symmetry_group_IT_number 15
_symmetry_cell_setting 'monoclinic'
loop_
_space_group_symop_operation_xyz
x,y,z
-x,y,1/2-z
-x,-y,-z
x,-y,1/2+z
1/2+x,1/2+y,z
1/2-x,1/2+y,1/2-z
1/2-x,1/2-y,-z
1/2+x,1/2-y,1/2+z
loop_
_atom_site_type_symbol
_atom_site_label
_atom_site_fract_x
_atom_site_fract_y
_atom_site_fract_z
Si Si1 0.265366 0.533979 0.187784
Si Si2 0.747781 0.157542 0.065059
Si Si3 0.441299 0.620639 0.083202
Si Si4 0.120872 0.599005 0.475538
Si Si5 0.822187 0.696404 0.715038
Si Si6 0.662889 0.657241 0.874499
Si Si7 0.999156 0.970902 0.369367
Si Si8 0.439445 0.791299 0.835401
O O1 0.184086 0.595917 0.033670
O O2 0.375582 0.500561 0.267174
O O3 0.368278 0.561222 0.399538
O O4 0.178046 0.467358 0.099940
O O5 0.740875 0.231326 0.095717
O O6 0.926117 0.141817 0.299828
O O7 0.683443 0.162563 0.884679
O O8 0.500000 0.647532 0.250000
O O9 0.436042 0.539488 0.082368
O O10 0.280337 0.652690 0.859583
O O11 0.241829 0.637223 0.580425
O O12 0.000000 0.568874 0.250000
O O13 0.035254 0.655022 0.412349
O O14 0.984864 0.707194 0.972337
O O15 0.584336 0.587308 0.791977
O O16 0.555991 0.717467 0.701261
O O17 0.770616 0.684555 0.091781
#
# Coordination Sequence:
#
# PCOD9262096 Si02
#       8
#     8   8   8   8   8   8   8   8
#     4   9  16  29  52  76  99 134 178 218 256 305
#     4   9  19  34  52  78 109 142 179 218 262 315
#     4   9  18  33  53  77 108 141 174 218 266 314
#     4   9  18  33  53  77 108 141 174 218 266 314
#     4  10  19  32  53  81 112 144 177 217 267 317
#     4   9  19  34  52  78 109 142 179 218 262 315
#     4   9  16  29  52  76  99 134 178 218 256 305
#     4  10  19  32  53  81 112 144 177 217 267 317
#
# _framework density 22.362873
#
# number of rings (size 3 to 8) (size 9 to 14) (size 15 to 20)
#    0.000    2.750    0.000    1.500    0.000    3.000 
#    0.000    6.250    0.000   23.250    0.000    0.000 
#    0.000    0.000    0.000    0.000    0.000    0.000 
#
# Total GULP energy -178375.427846 kJ/mol
# GULP energy per Si atom -5574.232120 kJ/mol
# Density = 2.231197 g / cm^3
# Si number density = 22.362873 Si / 1000 Ang^3
#
#
#
# Elastic Constant Matrix: (Units=GPa)
#
#
# Indices 1 2 3 4 5 6 
#
# 1 23.7522 15.4051 7.9035 0.0000 -0.3701 0.0000
# 2 15.4051 143.4812 40.5099 0.0000 4.9260 0.0000
# 3 7.9035 40.5099 101.8655 0.0000 -21.6786 0.0000
# 4 0.0000 0.0000 0.0000 31.0941 0.0000 -6.0167
# 5 -0.3701 4.9260 -21.6786 0.0000 17.8386 0.0000
# 6 0.0000 0.0000 0.0000 -6.0167 0.0000 18.3064
#
#
#
# Elastic Compliance Matrix: (Units=1/GPa)
#
#
# Indices 1 2 3 4 5 6 
#
# 1 0.045540 -0.004381 -0.001797 0.000000 -0.000030 0.000000
# 2 -0.004381 0.009232 -0.005252 0.000000 -0.009023 0.000000
# 3 -0.001797 -0.005252 0.016652 0.000000 0.021650 0.000000
# 4 0.000000 0.000000 0.000000 0.034345 0.000000 0.011288
# 5 -0.000030 -0.009023 0.021650 0.000000 0.084859 0.000000
# 6 0.000000 0.000000 0.000000 0.011288 0.000000 0.058335
#
#
# Mechanical properties :
#
#
# Convention : Reuss Voigt Hill
#
# Bulk Modulus (GPa) = 20.59114 44.08177 32.33646
# Shear Modulus (GPa) = 17.36030 27.13320 22.24675
#
# Velocity S-wave (km/s) = 2.78924 3.48705 3.15748
# Velocity P-wave (km/s) = 4.42729 5.99729 5.27107
#
# Compressibility (1/GPa) = 0.04856457
#
# Stress axis : x y z
#
# Youngs Moduli (GPa) = 21.95851 108.31330 60.05174
#
# Poissons Ratio (x) = 0.47452 0.10794
# Poissons Ratio (y) = 0.09620 0.31538
# Poissons Ratio (z) = 0.03947 0.56884
#
# Static dielectric constant tensor:
#      x y z
#    x 1.881610 0.000000 0.010540 
#    y 0.000000 1.801680 0.000000 
#    z 0.010540 0.000000 1.910750 
# 
# From -- ./inp_files/223165.got.cif
#   From: 2010.05.17/outbox.cif.g08.bks.cpg/sg15_112_cif.got.tgz:223165.got - 2010.06.03 18:47:42.
