data_PCOD9262483
_publ_section_title
;
Structure prediction by ZEFSAII (Michael W. Deem and Ramdas Pophale) SiO2 
 PCOD9262483
Probable space group: C 2/C
;
_chemical_formula_sum "Si O2"
_cell_formula_units_Z 48
_cell_length_a 18.262181
_cell_length_b 15.645278
_cell_length_c 18.459565
_cell_angle_alpha 90.000000
_cell_angle_beta 151.428560
_cell_angle_gamma 90.000000
_cell_volume 2522.412679
_symmetry_space_group_name_H-M "C 2/C"
_symmetry_group_IT_number 15
_symmetry_cell_setting 'monoclinic'
loop_
_space_group_symop_operation_xyz
x,y,z
-x,y,1/2-z
-x,-y,-z
x,-y,1/2+z
1/2+x,1/2+y,z
1/2-x,1/2+y,1/2-z
1/2-x,1/2-y,-z
1/2+x,1/2-y,1/2+z
loop_
_atom_site_type_symbol
_atom_site_label
_atom_site_fract_x
_atom_site_fract_y
_atom_site_fract_z
Si Si1 0.350850 0.838519 0.898779
Si Si2 0.000000 0.339197 0.250000
Si Si3 0.000000 0.933690 0.750000
Si Si4 0.039512 0.646406 0.416443
Si Si5 0.832250 0.471005 0.009033
Si Si6 0.524927 0.707140 0.149393
Si Si7 0.147056 0.781874 0.343149
O O1 0.358388 0.921651 0.956417
O O2 0.171631 0.821520 0.731037
O O3 0.449791 0.853999 0.913822
O O4 0.411179 0.756743 0.997145
O O5 0.122489 0.400959 0.392291
O O6 0.068312 0.278529 0.247455
O O7 0.847316 0.986425 0.634526
O O8 0.025357 0.871751 0.842587
O O9 0.063386 0.554519 0.399763
O O10 0.938303 0.708029 0.276909
O O11 0.217186 0.674519 0.584630
O O12 0.250000 0.750000 0.500000
O O13 0.000000 0.830289 0.250000
#
# Coordination Sequence:
#
# PCOD9262483 Si02
#       7
#     8   4   4   8   8   8   8
#     4  10  19  33  52  83 109 146 171 214 270 323
#     4   9  18  32  52  83 102 148 178 219 264 302
#     4   9  18  34  52  83 106 146 174 221 264 302
#     4  11  21  36  56  76 109 139 177 225 271 324
#     4  10  21  32  54  80 113 138 178 219 271 320
#     4   9  17  32  56  76 113 138 185 214 251 328
#     4   9  21  38  56  76  94 134 186 227 263 303
#
# _framework density 19.029399999999999
#
# number of rings (size 3 to 8) (size 9 to 14) (size 15 to 20)
#    0.000    2.333    0.000    2.500    4.667    4.000 
#    0.000    0.000    0.000    0.000    0.000   18.667 
#    0.000    0.000    0.000    0.000    0.000    0.000 
#
# Total GULP energy -133623.519128 kJ/mol
# GULP energy per Si atom -5567.646630 kJ/mol
# Density = 1.898609 g / cm^3
# Si number density = 19.029400 Si / 1000 Ang^3
#
#
#
# Elastic Constant Matrix: (Units=GPa)
#
#
# Indices 1 2 3 4 5 6 
#
# 1 125.7004 13.1950 43.3052 0.0005 32.9955 0.0001
# 2 13.1950 49.7210 17.0543 0.0006 11.7796 -0.0001
# 3 43.3052 17.0543 67.8445 0.0014 21.6584 0.0001
# 4 0.0005 0.0006 0.0014 20.4271 0.0005 11.4017
# 5 32.9955 11.7796 21.6584 0.0005 33.9161 0.0000
# 6 0.0001 -0.0001 0.0001 11.4017 0.0000 6.6835
#
#
#
# Elastic Compliance Matrix: (Units=1/GPa)
#
#
# Indices 1 2 3 4 5 6 
#
# 1 0.011857 0.000591 -0.004985 0.000006 -0.008557 -0.000010
# 2 0.000591 0.022784 -0.004264 -0.000008 -0.005765 0.000014
# 3 -0.004985 -0.004264 0.021318 -0.000019 -0.007283 0.000032
# 4 0.000006 -0.000008 -0.000019 1.024297 -0.000005 -1.747406
# 5 -0.008557 -0.005765 -0.007283 -0.000005 0.044462 0.000008
# 6 -0.000010 0.000014 0.000032 -1.747406 0.000008 3.130621
#
#
# Mechanical properties :
#
#
# Convention : Reuss Voigt Hill
#
# Bulk Modulus (GPa) = 25.87837 43.37497 34.62667
# Shear Modulus (GPa) = 1.16672 23.51943 12.34307
#
# Velocity S-wave (km/s) = 0.78386 3.51943 2.54959
# Velocity P-wave (km/s) = 3.80104 6.27362 5.18682
#
# Compressibility (1/GPa) = 0.03864231
#
# Stress axis : x y z
#
# Youngs Moduli (GPa) = 84.33865 43.89086 46.90788
#
# Poissons Ratio (x) = -0.02592 0.23384
# Poissons Ratio (y) = -0.04980 0.20001
# Poissons Ratio (z) = 0.42044 0.18714
#
# Static dielectric constant tensor:
#      x y z
#    x 1.676660 0.000000 0.016060 
#    y 0.000000 1.679140 0.000000 
#    z 0.016060 0.000000 1.678480 
# 
# From -- ./inp_files/96228.got.cif
#   From: 2010.05.17/outbox.cif.g08.bks.cpg/sg15_49_cif.got.tgz:96228.got - 2010.06.03 18:47:42.
