data_PCOD9262441
_publ_section_title
;
Structure prediction by ZEFSAII (Michael W. Deem and Ramdas Pophale) SiO2 
 PCOD9262441
Probable space group: C 2/C
;
_chemical_formula_sum "Si O2"
_cell_formula_units_Z 56
_cell_length_a 8.403406
_cell_length_b 30.225280
_cell_length_c 18.459437
_cell_angle_alpha 90.000000
_cell_angle_beta 41.797681
_cell_angle_gamma 90.000000
_cell_volume 3124.969486
_symmetry_space_group_name_H-M "C 2/C"
_symmetry_group_IT_number 15
_symmetry_cell_setting 'monoclinic'
loop_
_space_group_symop_operation_xyz
x,y,z
-x,y,1/2-z
-x,-y,-z
x,-y,1/2+z
1/2+x,1/2+y,z
1/2-x,1/2+y,1/2-z
1/2-x,1/2-y,-z
1/2+x,1/2-y,1/2+z
loop_
_atom_site_type_symbol
_atom_site_label
_atom_site_fract_x
_atom_site_fract_y
_atom_site_fract_z
Si Si1 0.539884 0.596437 0.317045
Si Si2 0.548695 0.136038 0.509764
Si Si3 0.071044 0.389648 0.605157
Si Si4 0.958124 0.949557 0.533608
Si Si5 0.168957 0.375658 0.124331
Si Si6 0.201394 0.781490 0.120230
Si Si7 0.579251 0.692399 0.499934
O O1 0.500000 0.577513 0.250000
O O2 0.334966 0.633387 0.398931
O O3 0.517985 0.561507 0.389210
O O4 0.806257 0.615293 0.226371
O O5 0.445295 0.108586 0.476886
O O6 0.522759 0.118025 0.599678
O O7 0.412627 0.182458 0.554453
O O8 0.202005 0.432035 0.593529
O O9 0.227542 0.346889 0.570747
O O10 0.150258 0.916908 0.430742
O O11 0.000000 0.000000 0.500000
O O12 0.000000 0.372584 0.250000
O O13 0.330378 0.331128 0.064317
O O14 0.326671 0.733608 0.078113
O O15 0.000000 0.786104 0.250000
O O16 0.079432 0.790434 0.083169
#
# Coordination Sequence:
#
# PCOD9262441 Si02
#       7
#     8   8   8   8   8   8   8
#     4   9  18  35  57  80 107 140 175 217 267 313
#     4   9  19  34  53  79 106 137 179 218 260 318
#     4   9  18  36  58  76 104 141 174 218 269 316
#     4  10  21  36  55  82 107 134 177 219 261 324
#     4  10  20  36  53  72 105 142 175 218 272 321
#     4  10  19  33  52  74 105 141 178 222 266 312
#     4   9  20  34  50  77 104 136 185 222 260 322
#
# _framework density 17.920175
#
# number of rings (size 3 to 8) (size 9 to 14) (size 15 to 20)
#    0.000    2.571    0.000    1.286    0.000    5.143 
#    0.000   14.286    0.000    0.000    0.000    0.000 
#    0.000    0.000    0.000    0.000    0.000    0.000 
#
# Total GULP energy -156012.055509 kJ/mol
# GULP energy per Si atom -5571.859125 kJ/mol
# Density = 1.787939 g / cm^3
# Si number density = 17.920175 Si / 1000 Ang^3
#
#
#
# Elastic Constant Matrix: (Units=GPa)
#
#
# Indices 1 2 3 4 5 6 
#
# 1 82.3691 35.7368 53.6652 0.0000 1.3424 0.0000
# 2 35.7368 95.6784 48.9360 0.0000 -1.5542 0.0000
# 3 53.6652 48.9360 118.2539 0.0000 8.5487 0.0000
# 4 0.0000 0.0000 0.0000 13.5646 0.0000 0.6950
# 5 1.3424 -1.5542 8.5487 0.0000 18.2646 0.0000
# 6 0.0000 0.0000 0.0000 0.6950 0.0000 15.3328
#
#
#
# Elastic Compliance Matrix: (Units=1/GPa)
#
#
# Indices 1 2 3 4 5 6 
#
# 1 0.018039 -0.003121 -0.007017 0.000000 0.001693 0.000000
# 2 -0.003121 0.014061 -0.004663 0.000000 0.003609 0.000000
# 3 -0.007017 -0.004663 0.014037 0.000000 -0.006451 0.000000
# 4 0.000000 0.000000 0.000000 0.073893 0.000000 -0.003349
# 5 0.001693 0.003609 -0.006451 0.000000 0.057953 0.000000
# 6 0.000000 0.000000 0.000000 -0.003349 0.000000 0.065371
#
#
# Mechanical properties :
#
#
# Convention : Reuss Voigt Hill
#
# Bulk Modulus (GPa) = 60.48160 63.66414 62.07287
# Shear Modulus (GPa) = 17.95540 19.96331 18.95936
#
# Velocity S-wave (km/s) = 3.16882 3.34130 3.25620
# Velocity P-wave (km/s) = 6.87113 7.10559 6.98934
#
# Compressibility (1/GPa) = 0.01653395
#
# Stress axis : x y z
#
# Youngs Moduli (GPa) = 55.43614 71.11782 71.24087
#
# Poissons Ratio (x) = 0.22197 0.49990
# Poissons Ratio (y) = 0.17303 0.33221
# Poissons Ratio (z) = 0.38900 0.33164
#
# Static dielectric constant tensor:
#      x y z
#    x 1.655850 0.000000 0.013860 
#    y 0.000000 1.573900 0.000000 
#    z 0.013860 0.000000 1.621600 
# 
# From -- ./inp_files/82153.got.cif
#   From: 2010.05.17/outbox.cif.g08.bks.cpg/sg15_42_cif.got.tgz:82153.got - 2010.06.03 18:47:42.
