data_PCOD9262060
_publ_section_title
;
Structure prediction by ZEFSAII (Michael W. Deem and Ramdas Pophale) SiO2 
 PCOD9262060
Probable space group: C 2/C
;
_chemical_formula_sum "Si O2"
_cell_formula_units_Z 56
_cell_length_a 9.609186
_cell_length_b 28.092295
_cell_length_c 14.535474
_cell_angle_alpha 90.000000
_cell_angle_beta 44.237479
_cell_angle_gamma 90.000000
_cell_volume 2737.351699
_symmetry_space_group_name_H-M "C 2/C"
_symmetry_group_IT_number 15
_symmetry_cell_setting 'monoclinic'
loop_
_space_group_symop_operation_xyz
x,y,z
-x,y,1/2-z
-x,-y,-z
x,-y,1/2+z
1/2+x,1/2+y,z
1/2-x,1/2+y,1/2-z
1/2-x,1/2-y,-z
1/2+x,1/2-y,1/2+z
loop_
_atom_site_type_symbol
_atom_site_label
_atom_site_fract_x
_atom_site_fract_y
_atom_site_fract_z
Si Si1 0.514826 0.478616 0.392740
Si Si2 0.542954 0.812410 0.073612
Si Si3 0.392105 0.941685 0.952011
Si Si4 0.040347 0.545611 0.862828
Si Si5 0.500000 0.122766 0.750000
Si Si6 0.000000 0.061319 0.250000
Si Si7 0.999904 0.205994 0.138356
Si Si8 0.172274 0.634708 0.333470
O O1 0.500000 0.500000 0.500000
O O2 0.342487 0.440805 0.452569
O O3 0.729382 0.455330 0.276190
O O4 0.479948 0.524057 0.342667
O O5 0.419499 0.840897 0.209909
O O6 0.477102 0.757660 0.104345
O O7 0.553021 0.836022 0.968497
O O8 0.778731 0.812653 0.992308
O O9 0.515966 0.897955 0.854030
O O10 0.460583 0.992880 0.882548
O O11 0.446574 0.944220 0.034875
O O12 0.915259 0.584082 0.864105
O O13 0.819863 0.096824 0.313307
O O14 0.819434 0.169471 0.207934
O O15 0.000000 0.212340 0.250000
#
# Coordination Sequence:
#
# PCOD9262060 Si02
#       8
#     8   8   8   8   4   4   8   8
#     4  12  25  38  60  83 127 169 212 262 304 361
#     4  10  19  32  52  86 125 154 204 249 320 371
#     4  11  21  40  57  81 119 171 208 252 304 375
#     4  11  22  36  54  83 123 163 207 253 300 366
#     4  12  22  31  54  88 126 160 201 258 308 376
#     4  12  20  39  56  88 124 170 207 246 310 370
#     4   9  18  32  53  83 122 157 196 263 313 372
#     4  11  20  35  61  83 122 167 203 252 327 373
#
# _framework density 20.457729
#
# number of rings (size 3 to 8) (size 9 to 14) (size 15 to 20)
#    0.000    1.143    7.143    1.714    2.000    0.000 
#    0.000    0.000    0.000    0.000    0.000    1.000 
#   17.143    0.143    0.000    0.000    0.000    0.000 
#
# Total GULP energy -156112.184404 kJ/mol
# GULP energy per Si atom -5575.435157 kJ/mol
# Density = 2.041117 g / cm^3
# Si number density = 20.457729 Si / 1000 Ang^3
#
#
#
# Elastic Constant Matrix: (Units=GPa)
#
#
# Indices 1 2 3 4 5 6 
#
# 1 31.8017 29.8155 35.9900 0.0000 -1.4204 0.0000
# 2 29.8155 126.4357 35.8075 0.0000 -6.6024 0.0000
# 3 35.9900 35.8075 77.9699 0.0000 -8.8221 0.0000
# 4 0.0000 0.0000 0.0000 47.9892 0.0000 -4.3740
# 5 -1.4204 -6.6024 -8.8221 0.0000 37.4321 0.0000
# 6 0.0000 0.0000 0.0000 -4.3740 0.0000 19.5485
#
#
#
# Elastic Compliance Matrix: (Units=1/GPa)
#
#
# Indices 1 2 3 4 5 6 
#
# 1 0.074945 -0.009195 -0.031061 0.000000 -0.006098 0.000000
# 2 -0.009195 0.010235 -0.000299 0.000000 0.001386 0.000000
# 3 -0.031061 -0.000299 0.027905 0.000000 0.005345 0.000000
# 4 0.000000 0.000000 0.000000 0.021272 0.000000 0.004760
# 5 -0.006098 0.001386 0.005345 0.000000 0.027988 0.000000
# 6 0.000000 0.000000 0.000000 0.004760 0.000000 0.052220
#
#
# Mechanical properties :
#
#
# Convention : Reuss Voigt Hill
#
# Bulk Modulus (GPa) = 31.27503 48.82591 40.05047
# Shear Modulus (GPa) = 16.32218 29.96693 23.14455
#
# Velocity S-wave (km/s) = 2.82769 3.83145 3.36718
# Velocity P-wave (km/s) = 5.09724 6.59484 5.89380
#
# Compressibility (1/GPa) = 0.03197439
#
# Stress axis : x y z
#
# Youngs Moduli (GPa) = 13.34317 97.70844 35.83585
#
# Poissons Ratio (x) = 0.89842 1.11309
# Poissons Ratio (y) = 0.12269 0.01072
# Poissons Ratio (z) = 0.41445 0.02923
#
# Static dielectric constant tensor:
#      x y z
#    x 1.726460 0.000000 -0.021920 
#    y 0.000000 1.753270 0.000000 
#    z -0.021920 0.000000 1.800500 
# 
# From -- ./inp_files/139495.got.cif
#   From: 2010.05.17/outbox.cif.g08.bks.cpg/sg15_70_cif.got.tgz:139495.got - 2010.06.03 18:47:42.
