data_PCOD9262706
_publ_section_title
;
Structure prediction by ZEFSAII (Michael W. Deem and Ramdas Pophale) SiO2 
 PCOD9262706
Probable space group: C 2/C
;
_chemical_formula_sum "Si O2"
_cell_formula_units_Z 64
_cell_length_a 23.191356
_cell_length_b 11.865388
_cell_length_c 18.325739
_cell_angle_alpha 90.000000
_cell_angle_beta 134.252597
_cell_angle_gamma 90.000000
_cell_volume 3611.989975
_symmetry_space_group_name_H-M "C 2/C"
_symmetry_group_IT_number 15
_symmetry_cell_setting 'monoclinic'
loop_
_space_group_symop_operation_xyz
x,y,z
-x,y,1/2-z
-x,-y,-z
x,-y,1/2+z
1/2+x,1/2+y,z
1/2-x,1/2+y,1/2-z
1/2-x,1/2-y,-z
1/2+x,1/2-y,1/2+z
loop_
_atom_site_type_symbol
_atom_site_label
_atom_site_fract_x
_atom_site_fract_y
_atom_site_fract_z
Si Si1 0.345872 0.602476 0.508503
Si Si2 0.161995 0.440688 0.122940
Si Si3 0.456361 0.259967 0.991806
Si Si4 0.641828 0.197431 0.133027
Si Si5 0.206799 0.920628 0.150738
Si Si6 0.430926 0.535770 0.379958
Si Si7 0.278500 0.271483 0.152053
Si Si8 0.421604 0.406902 0.222433
O O1 0.416901 0.666998 0.524117
O O2 0.311414 0.500345 0.431740
O O3 0.274840 0.694512 0.447357
O O4 0.371239 0.551322 0.608088
O O5 0.085090 0.361396 0.046385
O O6 0.143608 0.572838 0.101345
O O7 0.203761 0.423120 0.238802
O O8 0.226734 0.383423 0.125151
O O9 0.430105 0.331249 0.896446
O O10 0.552145 0.239045 0.077017
O O11 0.675888 0.294659 0.110760
O O12 0.703177 0.205109 0.256205
O O13 0.150037 0.975117 0.164106
O O14 0.500000 0.500000 0.500000
O O15 0.441857 0.492760 0.306610
O O16 0.365601 0.307715 0.202156
O O17 0.500000 0.363682 0.250000
#
# Coordination Sequence:
#
# PCOD9262706 Si02
#       8
#     8   8   8   8   8   8   8   8
#     4  10  21  35  54  83 114 145 183 231 284 344
#     4  10  20  33  56  84 109 150 185 226 285 335
#     4  10  21  34  56  85 117 140 186 238 281 330
#     4  11  18  33  57  82 115 142 186 232 280 333
#     4  10  19  33  55  80 112 141 182 231 278 323
#     4  11  19  36  55  81 112 138 179 234 276 322
#     4  10  20  36  52  80 117 147 184 236 279 335
#     4  12  22  32  55  85 111 148 185 230 291 330
#
# _framework density 17.718765000000001
#
# number of rings (size 3 to 8) (size 9 to 14) (size 15 to 20)
#    0.000    1.500    5.000    3.000    1.750    0.000 
#    0.000    0.000    0.000    3.000    0.000    0.875 
#    0.000    0.000    0.000    0.000    0.000    0.000 
#
# Total GULP energy -178158.199753 kJ/mol
# GULP energy per Si atom -5567.443742 kJ/mol
# Density = 1.767844 g / cm^3
# Si number density = 17.718765 Si / 1000 Ang^3
#
#
#
# Elastic Constant Matrix: (Units=GPa)
#
#
# Indices 1 2 3 4 5 6 
#
# 1 54.0849 25.6895 24.4841 0.0000 -6.8993 0.0000
# 2 25.6895 113.7790 24.8938 0.0000 -4.9755 0.0000
# 3 24.4841 24.8938 91.4417 0.0000 -9.1376 0.0000
# 4 0.0000 0.0000 0.0000 22.9720 0.0000 6.7423
# 5 -6.8993 -4.9755 -9.1376 0.0000 24.3647 0.0000
# 6 0.0000 0.0000 0.0000 6.7423 0.0000 17.1904
#
#
#
# Elastic Compliance Matrix: (Units=1/GPa)
#
#
# Indices 1 2 3 4 5 6 
#
# 1 0.023010 -0.003999 -0.004678 0.000000 0.003945 0.000000
# 2 -0.003999 0.010064 -0.001638 0.000000 0.000308 0.000000
# 3 -0.004678 -0.001638 0.012954 0.000000 0.003199 0.000000
# 4 0.000000 0.000000 0.000000 0.049194 0.000000 -0.019295
# 5 0.003945 0.000308 0.003199 0.000000 0.043423 0.000000
# 6 0.000000 0.000000 0.000000 -0.019295 0.000000 0.065740
#
#
# Mechanical properties :
#
#
# Convention : Reuss Voigt Hill
#
# Bulk Modulus (GPa) = 39.37485 45.49340 42.43412
# Shear Modulus (GPa) = 21.41501 25.18797 23.30149
#
# Velocity S-wave (km/s) = 3.48027 3.77442 3.63033
# Velocity P-wave (km/s) = 6.19839 6.68775 6.44772
#
# Compressibility (1/GPa) = 0.02539692
#
# Stress axis : x y z
#
# Youngs Moduli (GPa) = 43.45935 99.36585 77.19527
#
# Poissons Ratio (x) = 0.39739 0.36113
# Poissons Ratio (y) = 0.17380 0.12645
# Poissons Ratio (z) = 0.20331 0.16277
#
# Static dielectric constant tensor:
#      x y z
#    x 1.656390 0.000000 0.010000 
#    y 0.000000 1.625290 0.000000 
#    z 0.010000 0.000000 1.654170 
# 
# From -- ./inp_files/219161.got.cif
#   From: 2010.05.17/outbox.cif.g08.bks.cpg/sg15_110_cif.got.tgz:219161.got - 2010.06.03 18:47:42.
