data_PCOD9262364
_publ_section_title
;
Structure prediction by ZEFSAII (Michael W. Deem and Ramdas Pophale) SiO2 
 PCOD9262364
Probable space group: C 2/C
;
_chemical_formula_sum "Si O2"
_cell_formula_units_Z 56
_cell_length_a 26.964556
_cell_length_b 5.124024
_cell_length_c 22.115518
_cell_angle_alpha 90.000000
_cell_angle_beta 115.315466
_cell_angle_gamma 90.000000
_cell_volume 2762.194128
_symmetry_space_group_name_H-M "C 2/C"
_symmetry_group_IT_number 15
_symmetry_cell_setting 'monoclinic'
loop_
_space_group_symop_operation_xyz
x,y,z
-x,y,1/2-z
-x,-y,-z
x,-y,1/2+z
1/2+x,1/2+y,z
1/2-x,1/2+y,1/2-z
1/2-x,1/2-y,-z
1/2+x,1/2-y,1/2+z
loop_
_atom_site_type_symbol
_atom_site_label
_atom_site_fract_x
_atom_site_fract_y
_atom_site_fract_z
Si Si1 0.698613 0.141566 0.936587
Si Si2 0.997674 0.817739 0.175168
Si Si3 0.834984 0.563406 0.311930
Si Si4 0.432522 0.804338 0.317995
Si Si5 0.260228 0.214515 0.671672
Si Si6 0.643812 0.558810 0.779457
Si Si7 0.127713 0.832327 0.398598
O O1 0.723805 0.080348 0.882971
O O2 0.654127 0.378400 0.913988
O O3 0.668841 0.883569 0.946429
O O4 0.750000 0.250000 0.000000
O O5 0.935674 0.812161 0.117621
O O6 0.000000 0.864134 0.250000
O O7 0.029690 0.549133 0.178834
O O8 0.028102 0.055508 0.157292
O O9 0.887205 0.371867 0.346396
O O10 0.802151 0.705261 0.348118
O O11 0.788272 0.427324 0.244414
O O12 0.861322 0.788524 0.284887
O O13 0.391540 0.705516 0.242990
O O14 0.293082 0.484975 0.682245
O O15 0.625420 0.727649 0.825617
#
# Coordination Sequence:
#
# PCOD9262364 Si02
#       7
#     8   8   8   8   8   8   8
#     4  11  24  42  61  86 117 156 203 246 285 346
#     4  12  22  33  53  82 118 157 190 229 293 361
#     4  11  18  34  52  83 119 155 185 232 299 358
#     4  11  22  32  48  78 120 151 187 226 278 366
#     4  10  21  31  57  82 117 154 193 234 296 354
#     4  10  19  33  48  80 118 151 180 227 285 355
#     4  11  22  38  59  83 116 159 193 242 296 341
#
# _framework density 20.273737000000001
#
# number of rings (size 3 to 8) (size 9 to 14) (size 15 to 20)
#    0.000    1.143    5.714    1.714    4.000    0.000 
#    0.000    0.000    0.000    0.000    0.000    6.000 
#    0.000    0.000    0.000    0.000    0.000    0.000 
#
# Total GULP energy -155931.790642 kJ/mol
# GULP energy per Si atom -5568.992523 kJ/mol
# Density = 2.022759 g / cm^3
# Si number density = 20.273737 Si / 1000 Ang^3
#
#
#
# Elastic Constant Matrix: (Units=GPa)
#
#
# Indices 1 2 3 4 5 6 
#
# 1 124.1710 40.3933 13.3751 0.0000 27.0681 0.0000
# 2 40.3933 103.4372 -6.9398 -0.0002 7.6397 0.0032
# 3 13.3751 -6.9398 13.9657 0.0001 12.6582 0.0004
# 4 0.0000 -0.0002 0.0001 14.3373 0.0001 11.3977
# 5 27.0681 7.6397 12.6582 0.0001 19.2163 0.0001
# 6 0.0000 0.0032 0.0004 11.3977 0.0001 40.0614
#
#
#
# Elastic Compliance Matrix: (Units=1/GPa)
#
#
# Indices 1 2 3 4 5 6 
#
# 1 0.012971 -0.003489 0.002847 0.000000 -0.018759 0.000000
# 2 -0.003489 0.014284 0.027627 0.000002 -0.018963 -0.000002
# 3 0.002847 0.027627 0.238729 0.000004 -0.172249 -0.000005
# 4 0.000000 0.000002 0.000004 0.090134 -0.000004 -0.025644
# 5 -0.018759 -0.018963 -0.172249 -0.000004 0.199466 0.000003
# 6 0.000000 -0.000002 -0.000005 -0.025644 0.000003 0.032258
#
#
# Mechanical properties :
#
#
# Convention : Reuss Voigt Hill
#
# Bulk Modulus (GPa) = 3.12545 37.24789 20.18667
# Shear Modulus (GPa) = 7.80612 27.70602 17.75607
#
# Velocity S-wave (km/s) = 1.96436 3.70076 2.96263
# Velocity P-wave (km/s) = 2.58649 6.05584 4.65635
#
# Compressibility (1/GPa) = 0.31995429
#
# Stress axis : x y z
#
# Youngs Moduli (GPa) = 77.09513 70.00733 4.18885
#
# Poissons Ratio (x) = 0.24424 -0.01192
# Poissons Ratio (y) = 0.26897 -0.11573
# Poissons Ratio (z) = -0.21947 -1.93409
#
# Static dielectric constant tensor:
#      x y z
#    x 1.786480 0.000000 0.031520 
#    y 0.000000 1.807320 0.000000 
#    z 0.031520 0.000000 1.750250 
# 
# From -- ./inp_files/281045.got.cif
#   From: 2010.05.17/outbox.cif.g08.bks.cpg/sg15_141_cif.got.tgz:281045.got - 2010.06.03 18:47:42.
