data_PCOD9262660
_publ_section_title
;
Structure prediction by ZEFSAII (Michael W. Deem and Ramdas Pophale) SiO2 
 PCOD9262660
Probable space group: C 2/C
;
_chemical_formula_sum "Si O2"
_cell_formula_units_Z 60
_cell_length_a 14.947078
_cell_length_b 15.409326
_cell_length_c 25.584438
_cell_angle_alpha 90.000000
_cell_angle_beta 152.803755
_cell_angle_gamma 90.000000
_cell_volume 2693.206730
_symmetry_space_group_name_H-M "C 2/C"
_symmetry_group_IT_number 15
_symmetry_cell_setting 'monoclinic'
loop_
_space_group_symop_operation_xyz
x,y,z
-x,y,1/2-z
-x,-y,-z
x,-y,1/2+z
1/2+x,1/2+y,z
1/2-x,1/2+y,1/2-z
1/2-x,1/2-y,-z
1/2+x,1/2-y,1/2+z
loop_
_atom_site_type_symbol
_atom_site_label
_atom_site_fract_x
_atom_site_fract_y
_atom_site_fract_z
Si Si1 0.206459 0.606785 0.388839
Si Si2 0.415515 0.301419 0.903364
Si Si3 0.264793 0.579036 0.965116
Si Si4 0.994028 0.510201 0.907995
Si Si5 0.278618 0.491092 0.148388
Si Si6 0.000000 0.312743 0.250000
Si Si7 0.533063 0.826904 0.648758
Si Si8 0.831230 0.691801 0.392694
O O1 0.355163 0.644532 0.423814
O O2 0.290861 0.519088 0.458226
O O3 0.000000 0.591141 0.250000
O O4 0.150345 0.671988 0.407278
O O5 0.212842 0.279415 0.770274
O O6 0.539204 0.364686 0.929689
O O7 0.547770 0.223814 0.994047
O O8 0.132574 0.573616 0.947889
O O9 0.136940 0.627881 0.855798
O O10 0.811902 0.547877 0.845570
O O11 0.925787 0.431738 0.835074
O O12 0.137939 0.469210 0.026863
O O13 0.500000 0.469510 0.250000
O O14 0.249093 0.594530 0.141677
O O15 0.141920 0.252695 0.289670
O O16 0.537720 0.798687 0.591126
#
# Coordination Sequence:
#
# PCOD9262660 Si02
#       8
#     8   8   8   8   8   4   8   8
#     4   9  17  35  55  78 111 157 196 253 297 344
#     4  10  21  33  59  86 116 163 198 244 309 360
#     4  10  19  33  54  85 120 147 200 249 302 359
#     4   9  21  36  59  88 111 157 203 249 299 356
#     4  10  20  39  62  83 121 159 198 254 300 358
#     4  10  20  34  52  88 122 150 186 254 300 366
#     4   9  20  38  57  81 118 156 205 250 297 363
#     4  10  21  36  55  84 119 158 198 240 312 367
#
# _framework density 22.278274
#
# number of rings (size 3 to 8) (size 9 to 14) (size 15 to 20)
#    0.000    2.400    1.333    0.400    3.733    1.600 
#    0.000    2.667    0.000   23.200    0.000    0.000 
#    0.000    0.000    0.000    0.000    0.000    0.000 
#
# Total GULP energy -167462.458827 kJ/mol
# GULP energy per Si atom -5582.081961 kJ/mol
# Density = 2.222757 g / cm^3
# Si number density = 22.278274 Si / 1000 Ang^3
#
#
#
# Elastic Constant Matrix: (Units=GPa)
#
#
# Indices 1 2 3 4 5 6 
#
# 1 139.3516 20.5791 3.4081 0.0001 25.3600 -0.0001
# 2 20.5791 33.0732 0.8061 0.0004 8.2206 0.0000
# 3 3.4081 0.8061 31.5642 0.0011 14.9706 -0.0002
# 4 0.0001 0.0004 0.0011 17.3842 -0.0001 1.8855
# 5 25.3600 8.2206 14.9706 -0.0001 37.2103 0.0000
# 6 -0.0001 0.0000 -0.0002 1.8855 0.0000 21.7007
#
#
#
# Elastic Compliance Matrix: (Units=1/GPa)
#
#
# Indices 1 2 3 4 5 6 
#
# 1 0.008798 -0.004060 0.001943 0.000000 -0.005881 0.000000
# 2 -0.004060 0.034119 0.002261 -0.000001 -0.005680 0.000000
# 3 0.001943 0.002261 0.039891 -0.000003 -0.017873 0.000001
# 4 0.000000 -0.000001 -0.000003 0.058071 0.000002 -0.005046
# 5 -0.005881 -0.005680 -0.017873 0.000002 0.039328 0.000000
# 6 0.000000 0.000000 0.000001 -0.005046 0.000000 0.046520
#
#
# Mechanical properties :
#
#
# Convention : Reuss Voigt Hill
#
# Bulk Modulus (GPa) = 12.03424 28.17506 20.10465
# Shear Modulus (GPa) = 19.67435 27.20541 23.43988
#
# Velocity S-wave (km/s) = 2.97495 3.49831 3.24719
# Velocity P-wave (km/s) = 4.14897 5.38441 4.80655
#
# Compressibility (1/GPa) = 0.08309626
#
# Stress axis : x y z
#
# Youngs Moduli (GPa) = 113.65631 29.30909 25.06843
#
# Poissons Ratio (x) = 0.11900 -0.04871
# Poissons Ratio (y) = 0.46147 -0.05668
# Poissons Ratio (z) = -0.22084 -0.06627
#
# Static dielectric constant tensor:
#      x y z
#    x 1.850870 0.000000 0.004040 
#    y 0.000000 1.844920 0.000000 
#    z 0.004040 0.000000 1.785500 
# 
# From -- ./inp_files/296731.got.cif
#   From: 2010.05.17/outbox.cif.g08.bks.cpg/sg15_149_cif.got.tgz:296731.got - 2010.06.03 18:47:42.
