data_PCOD9262810
_publ_section_title
;
Structure prediction by ZEFSAII (Michael W. Deem and Ramdas Pophale) SiO2 
 PCOD9262810
Probable space group: C 2/C
;
_chemical_formula_sum "Si O2"
_cell_formula_units_Z 64
_cell_length_a 27.986441
_cell_length_b 12.743764
_cell_length_c 17.977951
_cell_angle_alpha 90.000000
_cell_angle_beta 29.286664
_cell_angle_gamma 90.000000
_cell_volume 3136.561429
_symmetry_space_group_name_H-M "C 2/C"
_symmetry_group_IT_number 15
_symmetry_cell_setting 'monoclinic'
loop_
_space_group_symop_operation_xyz
x,y,z
-x,y,1/2-z
-x,-y,-z
x,-y,1/2+z
1/2+x,1/2+y,z
1/2-x,1/2+y,1/2-z
1/2-x,1/2-y,-z
1/2+x,1/2-y,1/2+z
loop_
_atom_site_type_symbol
_atom_site_label
_atom_site_fract_x
_atom_site_fract_y
_atom_site_fract_z
Si Si1 0.793145 0.501289 0.880108
Si Si2 0.142989 0.767369 0.921974
Si Si3 0.428023 0.801260 0.682623
Si Si4 0.698226 0.167735 0.514394
Si Si5 0.197137 0.834873 0.401565
Si Si6 0.865803 0.926522 0.690026
Si Si7 0.933952 0.856597 0.048685
Si Si8 0.112303 0.150124 0.623503
O O1 0.871668 0.410677 0.759037
O O2 0.761512 0.579304 0.856755
O O3 0.839721 0.576989 0.880000
O O4 0.688912 0.442777 0.038491
O O5 0.232324 0.716267 0.756579
O O6 0.131881 0.880569 0.896684
O O7 0.153321 0.787318 0.995477
O O8 0.045213 0.700219 0.037339
O O9 0.409143 0.746615 0.628737
O O10 0.392470 0.727039 0.799009
O O11 0.750000 0.250000 0.500000
O O12 0.651389 0.248854 0.519809
O O13 0.768653 0.101961 0.364190
O O14 0.109915 0.877742 0.471565
O O15 0.950323 0.861115 0.615224
O O16 0.896236 0.046660 0.649830
O O17 0.000000 0.120769 0.750000
#
# Coordination Sequence:
#
# PCOD9262810 Si02
#       8
#     8   8   8   8   8   8   8   8
#     4  11  21  34  55  78 105 142 180 217 265 320
#     4   9  19  36  55  76 106 139 174 217 262 315
#     4  10  21  35  53  78 108 140 173 216 268 320
#     4   9  20  37  53  73 107 147 179 216 263 315
#     4  10  21  36  55  77 105 142 182 222 261 312
#     4   9  18  34  56  80 108 138 172 220 272 315
#     4  10  19  33  56  84 107 133 175 225 272 314
#     4  10  20  35  55  81 108 134 170 219 271 317
#
# _framework density 20.404509999999998
#
# number of rings (size 3 to 8) (size 9 to 14) (size 15 to 20)
#    0.000    2.250    0.000    2.625    0.000    5.500 
#    0.000    1.875    0.000   12.000    0.000    0.000 
#    0.000    0.000    0.000    0.000    0.000    0.000 
#
# Total GULP energy -178215.567968 kJ/mol
# GULP energy per Si atom -5569.236499 kJ/mol
# Density = 2.035807 g / cm^3
# Si number density = 20.404510 Si / 1000 Ang^3
#
#
#
# Elastic Constant Matrix: (Units=GPa)
#
#
# Indices 1 2 3 4 5 6 
#
# 1 67.0836 4.2233 9.8777 0.0000 15.2590 0.0000
# 2 4.2233 76.2546 -4.0615 0.0000 0.5129 0.0000
# 3 9.8777 -4.0615 -27.0018 0.0000 17.6209 0.0000
# 4 0.0000 0.0000 0.0000 17.4073 0.0000 0.4736
# 5 15.2590 0.5129 17.6209 0.0000 11.5367 0.0000
# 6 0.0000 0.0000 0.0000 0.4736 0.0000 10.6358
#
#
#
# Elastic Compliance Matrix: (Units=1/GPa)
#
#
# Indices 1 2 3 4 5 6 
#
# 1 0.020019 -0.001241 -0.004875 0.000000 -0.018978 0.000000
# 2 -0.001241 0.013120 -0.000870 0.000000 0.002387 0.000000
# 3 -0.004875 -0.000870 -0.017255 0.000000 0.032841 0.000000
# 4 0.000000 0.000000 0.000000 0.057517 0.000000 -0.002561
# 5 -0.018978 0.002387 0.032841 0.000000 0.061514 0.000000
# 6 0.000000 0.000000 0.000000 -0.002561 0.000000 0.094136
#
#
# Mechanical properties :
#
#
# Convention : Reuss Voigt Hill
#
# Bulk Modulus (GPa) = 522.54983 15.15726 268.85355
# Shear Modulus (GPa) = 20.52039 15.00243 17.76141
#
# Velocity S-wave (km/s) = 3.17469 2.71449 2.95357
# Velocity P-wave (km/s) = 16.43440 4.15562 11.98663
#
# Compressibility (1/GPa) = 0.00191369
#
# Stress axis : x y z
#
# Youngs Moduli (GPa) = 49.95145 76.21786 -57.95341
#
# Poissons Ratio (x) = 0.09457 -0.28250
# Poissons Ratio (y) = 0.06198 -0.05042
# Poissons Ratio (z) = 0.24350 0.06631
#
# Static dielectric constant tensor:
#      x y z
#    x 1.774150 0.000000 -0.006560 
#    y 0.000000 1.736000 0.000000 
#    z -0.006560 0.000000 1.746010 
# 
# From -- ./inp_files/225163.got.cif
#   From: 2010.05.17/outbox.cif.g08.bks.cpg/sg15_113_cif.got.tgz:225163.got - 2010.06.03 18:47:42.
