data_PCOD9262201
_publ_section_title
;
Structure prediction by ZEFSAII (Michael W. Deem and Ramdas Pophale) SiO2 
 PCOD9262201
Probable space group: C 2/C
;
_chemical_formula_sum "Si O2"
_cell_formula_units_Z 36
_cell_length_a 7.584417
_cell_length_b 16.781635
_cell_length_c 16.628731
_cell_angle_alpha 90.000000
_cell_angle_beta 133.169206
_cell_angle_gamma 90.000000
_cell_volume 1543.631003
_symmetry_space_group_name_H-M "C 2/C"
_symmetry_group_IT_number 15
_symmetry_cell_setting 'monoclinic'
loop_
_space_group_symop_operation_xyz
x,y,z
-x,y,1/2-z
-x,-y,-z
x,-y,1/2+z
1/2+x,1/2+y,z
1/2-x,1/2+y,1/2-z
1/2-x,1/2-y,-z
1/2+x,1/2-y,1/2+z
loop_
_atom_site_type_symbol
_atom_site_label
_atom_site_fract_x
_atom_site_fract_y
_atom_site_fract_z
Si Si1 0.652680 0.749361 0.062867
Si Si2 0.285920 0.499361 0.562866
Si Si3 0.725327 0.336564 0.864289
Si Si4 0.500000 0.624999 0.750000
Si Si5 0.117537 0.586565 0.364288
O O1 0.721121 0.661640 0.111953
O O2 0.782094 0.813260 0.162013
O O3 0.750000 0.750000 0.000000
O O4 0.379500 0.776103 0.965096
O O5 0.364737 0.411639 0.611950
O O6 0.453949 0.563258 0.662014
O O7 0.265789 0.526104 0.465096
O O8 0.000000 0.500000 0.500000
O O9 0.500000 0.297458 0.750000
O O10 0.906906 0.375000 0.854605
O O11 0.000000 0.547458 0.250000
#
# Coordination Sequence:
#
# PCOD9262201 Si02
#       5
#     8   8   8   4   8
#     4  10  19  32  55  87 111 151 195 234 284 345
#     4  10  19  32  55  87 111 151 195 234 284 345
#     4  10  20  36  57  84 116 152 196 238 285 344
#     4  12  16  28  60  84 110 148 200 236 266 364
#     4  10  20  36  57  84 116 152 196 238 285 344
#
# _framework density 23.321634
#
# number of rings (size 3 to 8) (size 9 to 14) (size 15 to 20)
#    0.000    1.778    8.889    0.000    0.000    0.000 
#    0.000    2.222    0.000    0.000    0.000   17.111 
#    0.000    0.000    0.000    0.000    0.000    0.000 
#
# Total GULP energy -100432.454435 kJ/mol
# GULP energy per Si atom -5579.580802 kJ/mol
# Density = 2.326855 g / cm^3
# Si number density = 23.321634 Si / 1000 Ang^3
#
#
#
# Elastic Constant Matrix: (Units=GPa)
#
#
# Indices 1 2 3 4 5 6 
#
# 1 78.7507 41.7485 41.7909 0.0001 -0.4920 0.0000
# 2 41.7485 90.4601 61.6724 0.0000 -0.2219 0.0000
# 3 41.7909 61.6724 238.3000 0.0001 -1.2839 0.0000
# 4 0.0001 0.0000 0.0001 -28.3025 0.0001 0.4632
# 5 -0.4920 -0.2219 -1.2839 0.0001 40.5871 0.0000
# 6 0.0000 0.0000 0.0000 0.4632 0.0000 13.2393
#
#
#
# Elastic Compliance Matrix: (Units=1/GPa)
#
#
# Indices 1 2 3 4 5 6 
#
# 1 0.017072 -0.007089 -0.001159 0.000000 0.000132 0.000000
# 2 -0.007089 0.016366 -0.002993 0.000000 -0.000091 0.000000
# 3 -0.001159 -0.002993 0.005175 0.000000 0.000133 0.000000
# 4 0.000000 0.000000 0.000000 -0.035312 0.000000 0.001235
# 5 0.000132 -0.000091 0.000133 0.000000 0.024644 0.000000
# 6 0.000000 0.000000 0.000000 0.001235 0.000000 0.075490
#
#
# Mechanical properties :
#
#
# Convention : Reuss Voigt Hill
#
# Bulk Modulus (GPa) = 61.98627 77.54824 69.76726
# Shear Modulus (GPa) = 38.08294 22.59138 30.33716
#
# Velocity S-wave (km/s) = 4.04536 3.11575 3.61060
# Velocity P-wave (km/s) = 6.96107 6.80204 6.88201
#
# Compressibility (1/GPa) = 0.01613261
#
# Stress axis : x y z
#
# Youngs Moduli (GPa) = 58.57565 61.10077 193.24070
#
# Poissons Ratio (x) = 0.43312 0.22390
# Poissons Ratio (y) = 0.41522 0.57837
# Poissons Ratio (z) = 0.06787 0.18287
#
# Static dielectric constant tensor:
#      x y z
#    x 2.080460 0.000000 0.002210 
#    y 0.000000 1.840290 0.000000 
#    z 0.002210 0.000000 1.881820 
# 
# From -- ./inp_files/158912.got.cif
#   From: 2010.05.17/outbox.cif.g08.bks.cpg/sg15_80_cif.got.tgz:158912.got - 2010.06.03 18:47:42.
