data_PCOD9262140
_publ_section_title
;
Structure prediction by ZEFSAII (Michael W. Deem and Ramdas Pophale) SiO2 
 PCOD9262140
Probable space group: C 2/C
;
_chemical_formula_sum "Si O2"
_cell_formula_units_Z 56
_cell_length_a 16.172274
_cell_length_b 33.515636
_cell_length_c 5.249182
_cell_angle_alpha 90.000000
_cell_angle_beta 71.244695
_cell_angle_gamma 90.000000
_cell_volume 2694.104703
_symmetry_space_group_name_H-M "C 2/C"
_symmetry_group_IT_number 15
_symmetry_cell_setting 'monoclinic'
loop_
_space_group_symop_operation_xyz
x,y,z
-x,y,1/2-z
-x,-y,-z
x,-y,1/2+z
1/2+x,1/2+y,z
1/2-x,1/2+y,1/2-z
1/2-x,1/2-y,-z
1/2+x,1/2-y,1/2+z
loop_
_atom_site_type_symbol
_atom_site_label
_atom_site_fract_x
_atom_site_fract_y
_atom_site_fract_z
Si Si1 0.844199 0.020462 0.300439
Si Si2 0.675386 0.339374 0.058817
Si Si3 0.842198 0.605491 0.369324
Si Si4 0.096616 0.647021 0.705174
Si Si5 0.237946 0.797111 0.488843
Si Si6 0.147896 0.512610 0.044940
Si Si7 0.946271 0.904186 0.541019
O O1 0.869875 0.065069 0.199538
O O2 0.879213 0.008145 0.541836
O O3 0.740382 0.011387 0.420881
O O4 0.677209 0.313722 0.317429
O O5 0.749564 0.373397 0.015329
O O6 0.703337 0.312228 0.794252
O O7 0.591993 0.363937 0.045499
O O8 0.903261 0.623085 0.530561
O O9 0.835587 0.558521 0.412012
O O10 0.873654 0.618609 0.058362
O O11 0.168346 0.681848 0.649249
O O12 0.000000 0.662654 0.750000
O O13 0.250000 0.750000 0.500000
O O14 0.100967 0.507920 0.825017
O O15 0.000000 0.897406 0.750000
O O16 0.000000 0.922537 0.250000
#
# Coordination Sequence:
#
# PCOD9262140 Si02
#       7
#     8   8   8   8   8   8   8
#     4  10  21  35  52  76 110 151 204 260 304 343
#     4  10  21  39  60  84 118 158 201 240 287 355
#     4  10  20  36  61  85 112 154 197 241 287 351
#     4  10  21  38  62  91 119 148 188 237 294 352
#     4  10  21  39  66  95 120 151 191 238 291 356
#     4  10  19  32  54  81 107 142 197 246 289 340
#     4  12  25  39  56  82 121 164 208 256 304 354
#
# _framework density 20.786124999999998
#
# number of rings (size 3 to 8) (size 9 to 14) (size 15 to 20)
#    0.000    1.714    0.000    5.143    0.000    8.571 
#    0.000    2.143    0.000   10.286    0.000    0.000 
#    0.000    0.000    0.000    0.000    0.000    0.000 
#
# Total GULP energy -156331.397155 kJ/mol
# GULP energy per Si atom -5583.264184 kJ/mol
# Density = 2.073882 g / cm^3
# Si number density = 20.786125 Si / 1000 Ang^3
#
#
#
# Elastic Constant Matrix: (Units=GPa)
#
#
# Indices 1 2 3 4 5 6 
#
# 1 83.0135 36.6871 31.6029 0.0000 12.4666 0.0000
# 2 36.6871 128.1054 39.0830 0.0000 10.9796 0.0000
# 3 31.6029 39.0830 111.4492 0.0000 36.8177 0.0000
# 4 0.0000 0.0000 0.0000 12.8188 0.0000 6.5400
# 5 12.4666 10.9796 36.8177 0.0000 36.1215 0.0000
# 6 0.0000 0.0000 0.0000 6.5400 0.0000 12.1993
#
#
#
# Elastic Compliance Matrix: (Units=1/GPa)
#
#
# Indices 1 2 3 4 5 6 
#
# 1 0.014691 -0.003314 -0.002505 0.000000 -0.001510 0.000000
# 2 -0.003314 0.009501 -0.002738 0.000000 0.001046 0.000000
# 3 -0.002505 -0.002738 0.015201 0.000000 -0.013797 0.000000
# 4 0.000000 0.000000 0.000000 0.107379 0.000000 -0.057565
# 5 -0.001510 0.001046 -0.013797 0.000000 0.041951 0.000000
# 6 0.000000 0.000000 0.000000 -0.057565 0.000000 0.112832
#
#
# Mechanical properties :
#
#
# Convention : Reuss Voigt Hill
#
# Bulk Modulus (GPa) = 44.88326 59.70157 52.29241
# Shear Modulus (GPa) = 15.33300 26.57427 20.95364
#
# Velocity S-wave (km/s) = 2.71893 3.57944 3.17844
# Velocity P-wave (km/s) = 5.61218 6.77254 6.21948
#
# Compressibility (1/GPa) = 0.02228002
#
# Stress axis : x y z
#
# Youngs Moduli (GPa) = 68.06865 105.25677 65.78460
#
# Poissons Ratio (x) = 0.34878 0.16480
# Poissons Ratio (y) = 0.22555 0.18010
# Poissons Ratio (z) = 0.17052 0.28816
#
# Static dielectric constant tensor:
#      x y z
#    x 1.840520 0.000000 0.007580 
#    y 0.000000 1.700300 0.000000 
#    z 0.007580 0.000000 1.815170 
# 
# From -- ./inp_files/11970.got.cif
#   From: 2010.05.17/outbox.cif.g08.bks.cpg/sg15_6_cif.got.tgz:11970.got - 2010.06.03 18:47:42.
