data_PCOD9262351
_publ_section_title
;
Structure prediction by ZEFSAII (Michael W. Deem and Ramdas Pophale) SiO2 
 PCOD9262351
Probable space group: C 2/C
;
_chemical_formula_sum "Si O2"
_cell_formula_units_Z 56
_cell_length_a 14.528369
_cell_length_b 34.452531
_cell_length_c 15.025696
_cell_angle_alpha 90.000000
_cell_angle_beta 29.034103
_cell_angle_gamma 90.000000
_cell_volume 3650.142618
_symmetry_space_group_name_H-M "C 2/C"
_symmetry_group_IT_number 15
_symmetry_cell_setting 'monoclinic'
loop_
_space_group_symop_operation_xyz
x,y,z
-x,y,1/2-z
-x,-y,-z
x,-y,1/2+z
1/2+x,1/2+y,z
1/2-x,1/2+y,1/2-z
1/2-x,1/2-y,-z
1/2+x,1/2-y,1/2+z
loop_
_atom_site_type_symbol
_atom_site_label
_atom_site_fract_x
_atom_site_fract_y
_atom_site_fract_z
Si Si1 0.409202 0.978423 0.236441
Si Si2 0.613484 0.588523 0.371637
Si Si3 0.508517 0.932852 0.846314
Si Si4 0.740859 0.561619 0.720798
Si Si5 0.213531 0.295844 0.036971
Si Si6 0.565461 0.342167 0.784340
Si Si7 0.019892 0.014209 0.339215
O O1 0.500000 0.961466 0.250000
O O2 0.400860 0.950999 0.157733
O O3 0.191107 0.988051 0.442612
O O4 0.504026 0.019944 0.137818
O O5 0.793134 0.580870 0.281497
O O6 0.419955 0.585567 0.592095
O O7 0.619985 0.629147 0.315294
O O8 0.606556 0.553597 0.305463
O O9 0.500000 0.922595 0.750000
O O10 0.339760 0.918709 0.052743
O O11 0.636470 0.522491 0.775801
O O12 0.000000 0.303468 0.250000
O O13 0.250000 0.250000 0.000000
O O14 0.379079 0.315436 0.957930
O O15 0.266590 0.315262 0.896702
O O16 0.500000 0.365667 0.750000
O O17 0.000000 0.014250 0.250000
#
# Coordination Sequence:
#
# PCOD9262351 Si02
#       7
#     8   8   8   8   8   8   8
#     4  10  19  33  46  71  86 118 177 230 273 328
#     4  11  21  37  45  73 107 131 173 224 280 314
#     4  11  22  34  53  65  90 128 186 236 272 309
#     4  11  22  35  50  68  91 137 182 234 278 320
#     4   9  15  32  57  82 109 145 173 193 232 309
#     4   8  20  31  51  79 112 144 165 201 245 304
#     4  11  20  32  51  65  95 136 181 233 276 317
#
# _framework density 15.341866
#
# number of rings (size 3 to 8) (size 9 to 14) (size 15 to 20)
#    0.857    0.857    4.286    3.429    2.000    1.143 
#    0.000    0.714    0.000    0.000    0.000    0.000 
#    0.000    1.143    0.000    0.143    0.000    0.000 
#
# Total GULP energy -156003.128579 kJ/mol
# GULP energy per Si atom -5571.540306 kJ/mol
# Density = 1.530695 g / cm^3
# Si number density = 15.341866 Si / 1000 Ang^3
#
#
#
# Elastic Constant Matrix: (Units=GPa)
#
#
# Indices 1 2 3 4 5 6 
#
# 1 104.3754 32.1535 34.9018 0.0000 10.1131 0.0000
# 2 32.1535 59.0612 27.6525 0.0000 6.5698 0.0000
# 3 34.9018 27.6525 100.8727 0.0001 7.1907 0.0000
# 4 0.0000 0.0000 0.0001 14.9774 0.0000 6.4471
# 5 10.1131 6.5698 7.1907 0.0000 25.4827 0.0000
# 6 0.0000 0.0000 0.0000 6.4471 0.0000 9.3801
#
#
#
# Elastic Compliance Matrix: (Units=1/GPa)
#
#
# Indices 1 2 3 4 5 6 
#
# 1 0.012329 -0.005158 -0.002651 0.000000 -0.002815 0.000000
# 2 -0.005158 0.021907 -0.004046 0.000000 -0.002460 0.000000
# 3 -0.002651 -0.004046 0.012033 0.000000 -0.001300 0.000000
# 4 0.000000 0.000000 0.000000 0.094821 0.000000 -0.065172
# 5 -0.002815 -0.002460 -0.001300 0.000000 0.041360 0.000000
# 6 0.000000 0.000000 0.000000 -0.065172 0.000000 0.151402
#
#
# Mechanical properties :
#
#
# Convention : Reuss Voigt Hill
#
# Bulk Modulus (GPa) = 44.32672 50.41389 47.37031
# Shear Modulus (GPa) = 13.69557 21.27480 17.48518
#
# Velocity S-wave (km/s) = 2.99104 3.72790 3.37961
# Velocity P-wave (km/s) = 6.39404 7.17366 6.79504
#
# Compressibility (1/GPa) = 0.02255975
#
# Stress axis : x y z
#
# Youngs Moduli (GPa) = 81.11012 45.64710 83.10789
#
# Poissons Ratio (x) = 0.23543 0.22034
# Poissons Ratio (y) = 0.41833 0.33623
# Poissons Ratio (z) = 0.21504 0.18467
#
# Static dielectric constant tensor:
#      x y z
#    x 1.529150 0.000000 0.007300 
#    y 0.000000 1.480070 0.000000 
#    z 0.007300 0.000000 1.557610 
# 
# From -- ./inp_files/157452.got.cif
#   From: 2010.05.17/outbox.cif.g08.bks.cpg/sg15_79_cif.got.tgz:157452.got - 2010.06.03 18:47:42.
