data_PCOD9262186
_publ_section_title
;
Structure prediction by ZEFSAII (Michael W. Deem and Ramdas Pophale) SiO2 
 PCOD9262186
Probable space group: C 2/C
;
_chemical_formula_sum "Si O2"
_cell_formula_units_Z 64
_cell_length_a 19.545109
_cell_length_b 7.859841
_cell_length_c 18.719952
_cell_angle_alpha 90.000000
_cell_angle_beta 83.533652
_cell_angle_gamma 90.000000
_cell_volume 2857.490898
_symmetry_space_group_name_H-M "C 2/C"
_symmetry_group_IT_number 15
_symmetry_cell_setting 'monoclinic'
loop_
_space_group_symop_operation_xyz
x,y,z
-x,y,1/2-z
-x,-y,-z
x,-y,1/2+z
1/2+x,1/2+y,z
1/2-x,1/2+y,1/2-z
1/2-x,1/2-y,-z
1/2+x,1/2-y,1/2+z
loop_
_atom_site_type_symbol
_atom_site_label
_atom_site_fract_x
_atom_site_fract_y
_atom_site_fract_z
Si Si1 0.649112 0.107496 0.649397
Si Si2 0.173569 0.177740 0.022333
Si Si3 0.180786 0.650275 0.308455
Si Si4 0.403306 0.039413 0.057405
Si Si5 0.078834 0.835757 0.215097
Si Si6 0.703574 0.492788 0.892915
Si Si7 0.945076 0.361022 0.916545
Si Si8 0.335147 0.650467 0.238773
O O1 0.659783 0.288468 0.606507
O O2 0.713382 0.988605 0.618440
O O3 0.650319 0.164788 0.730561
O O4 0.582069 0.016798 0.628981
O O5 0.122281 0.306774 0.989748
O O6 0.174983 0.005974 0.976507
O O7 0.250000 0.250000 0.000000
O O8 0.150619 0.525762 0.372108
O O9 0.128473 0.701361 0.250848
O O10 0.189385 0.828171 0.352684
O O11 0.256622 0.603942 0.271443
O O12 0.474231 0.106590 0.082868
O O13 0.414359 0.885761 0.000013
O O14 0.075931 0.799285 0.130114
O O15 0.110387 0.015381 0.236634
O O16 0.000000 0.818495 0.250000
O O17 0.667465 0.358891 0.846257
#
# Coordination Sequence:
#
# PCOD9262186 Si02
#       8
#     8   8   8   8   8   8   8   8
#     4   9  17  31  51  80 109 138 180 232 279 323
#     4   8  14  27  51  80 104 134 183 228 266 326
#     4   9  17  33  54  80 106 141 183 230 272 325
#     4   9  17  31  54  82 106 140 188 228 274 328
#     4  11  21  36  58  84 108 149 192 228 271 342
#     4   8  15  28  50  78 104 140 182 217 266 331
#     4  10  19  32  55  83 108 144 186 229 274 336
#     4  10  20  33  55  81 115 146 178 230 285 330
#
# _framework density 22.397269999999999
#
# number of rings (size 3 to 8) (size 9 to 14) (size 15 to 20)
#    0.000    2.750    1.250    1.500    0.000    0.000 
#    0.000    1.250    5.500   11.250    0.000    0.000 
#    0.000    0.000    0.000    0.000    0.000    0.000 
#
# Total GULP energy -178396.733005 kJ/mol
# GULP energy per Si atom -5574.897906 kJ/mol
# Density = 2.234629 g / cm^3
# Si number density = 22.397270 Si / 1000 Ang^3
#
#
#
# Elastic Constant Matrix: (Units=GPa)
#
#
# Indices 1 2 3 4 5 6 
#
# 1 127.7142 19.2424 9.6887 0.0000 27.7696 0.0000
# 2 19.2424 42.9167 -6.3047 0.0000 3.0077 0.0000
# 3 9.6887 -6.3047 60.7380 0.0000 14.3619 0.0000
# 4 0.0000 0.0000 0.0000 32.7871 0.0000 10.6449
# 5 27.7696 3.0077 14.3619 0.0000 34.3271 0.0000
# 6 0.0000 0.0000 0.0000 10.6449 0.0000 26.8762
#
#
#
# Elastic Compliance Matrix: (Units=1/GPa)
#
#
# Indices 1 2 3 4 5 6 
#
# 1 0.010142 -0.004032 -0.000200 0.000000 -0.007767 0.000000
# 2 -0.004032 0.025637 0.003401 0.000000 -0.000407 0.000000
# 3 -0.000200 0.003401 0.018735 0.000000 -0.007975 0.000000
# 4 0.000000 0.000000 0.000000 0.035001 0.000000 -0.013863
# 5 -0.007767 -0.000407 -0.007975 0.000000 0.038787 0.000000
# 6 0.000000 0.000000 0.000000 -0.013863 0.000000 0.042698
#
#
# Mechanical properties :
#
#
# Convention : Reuss Voigt Hill
#
# Bulk Modulus (GPa) = 18.92117 30.73576 24.82847
# Shear Modulus (GPa) = 26.27728 32.71425 29.49576
#
# Velocity S-wave (km/s) = 3.42897 3.82597 3.63290
# Velocity P-wave (km/s) = 4.91360 5.76803 5.35787
#
# Compressibility (1/GPa) = 0.05285084
#
# Stress axis : x y z
#
# Youngs Moduli (GPa) = 98.60431 39.00628 53.37703
#
# Poissons Ratio (x) = 0.15728 0.01066
# Poissons Ratio (y) = 0.39758 -0.18151
# Poissons Ratio (z) = 0.01968 -0.13264
#
# Static dielectric constant tensor:
#      x y z
#    x 1.781690 0.000000 0.012600 
#    y 0.000000 1.870830 0.000000 
#    z 0.012600 0.000000 1.946260 
# 
# From -- ./inp_files/251560.got.cif
#   From: 2010.05.17/outbox.cif.g08.bks.cpg/sg15_126_cif.got.tgz:251560.got - 2010.06.03 18:47:42.
