data_PCOD9262396
_publ_section_title
;
Structure prediction by ZEFSAII (Michael W. Deem and Ramdas Pophale) SiO2 
 PCOD9262396
Probable space group: C 2/C
;
_chemical_formula_sum "Si O2"
_cell_formula_units_Z 56
_cell_length_a 26.940544
_cell_length_b 14.942654
_cell_length_c 20.296449
_cell_angle_alpha 90.000000
_cell_angle_beta 16.410265
_cell_angle_gamma 90.000000
_cell_volume 2308.304477
_symmetry_space_group_name_H-M "C 2/C"
_symmetry_group_IT_number 15
_symmetry_cell_setting 'monoclinic'
loop_
_space_group_symop_operation_xyz
x,y,z
-x,y,1/2-z
-x,-y,-z
x,-y,1/2+z
1/2+x,1/2+y,z
1/2-x,1/2+y,1/2-z
1/2-x,1/2-y,-z
1/2+x,1/2-y,1/2+z
loop_
_atom_site_type_symbol
_atom_site_label
_atom_site_fract_x
_atom_site_fract_y
_atom_site_fract_z
Si Si1 0.571502 0.623338 0.965553
Si Si2 0.977475 0.082933 0.853289
Si Si3 0.912995 0.882370 0.800111
Si Si4 0.307321 0.414551 0.694966
Si Si5 0.971744 0.538825 0.706302
Si Si6 0.228173 0.792745 0.099632
Si Si7 0.446687 0.840472 0.945449
O O1 0.621990 0.517313 0.898541
O O2 0.765015 0.663030 0.716487
O O3 0.457697 0.656184 0.172125
O O4 0.451071 0.636521 0.055304
O O5 0.143922 0.111604 0.686425
O O6 0.000000 0.119540 0.750000
O O7 0.981026 0.976881 0.839621
O O8 0.817207 0.111923 0.105032
O O9 0.000000 0.830591 0.750000
O O10 0.712069 0.909414 0.067616
O O11 0.128390 0.414811 0.964871
O O12 0.000000 0.532770 0.750000
O O13 0.973996 0.438709 0.671439
O O14 0.380848 0.805782 0.957415
O O15 0.083966 0.721875 0.306790
O O16 0.250000 0.750000 0.000000
#
# Coordination Sequence:
#
# PCOD9262396 Si02
#       7
#     8   8   8   8   8   8   8
#     4   9  17  35  55  78 110 147 188 232 282 340
#     4  10  19  33  50  76 116 151 180 227 273 328
#     4  10  20  34  55  86 119 144 173 234 302 340
#     4   9  17  31  55  81 105 144 192 232 276 341
#     4  11  19  33  58  86 110 148 190 230 283 343
#     4  12  22  35  51  79 110 153 194 225 266 331
#     4  11  23  36  55  78 115 153 194 231 272 335
#
# _framework density 24.260231999999998
#
# number of rings (size 3 to 8) (size 9 to 14) (size 15 to 20)
#    0.000    1.714    2.857    3.857    0.000    1.143 
#    0.000   14.286    0.000    0.000    0.000    5.000 
#    0.000    0.000    0.000    0.000    0.000    0.000 
#
# Total GULP energy -156200.605411 kJ/mol
# GULP energy per Si atom -5578.593050 kJ/mol
# Density = 2.420501 g / cm^3
# Si number density = 24.260232 Si / 1000 Ang^3
#
#
#
# Elastic Constant Matrix: (Units=GPa)
#
#
# Indices 1 2 3 4 5 6 
#
# 1 108.5913 2.7608 50.6711 -0.0021 18.6353 0.0025
# 2 2.7608 10.3818 1.6396 -0.0022 0.3392 0.0039
# 3 50.6711 1.6396 195.0533 -0.0028 29.0095 0.0045
# 4 -0.0021 -0.0022 -0.0028 25.4974 0.0021 0.6453
# 5 18.6353 0.3392 29.0095 0.0021 45.5317 -0.0030
# 6 0.0025 0.0039 0.0045 0.6453 -0.0030 14.0039
#
#
#
# Elastic Compliance Matrix: (Units=1/GPa)
#
#
# Indices 1 2 3 4 5 6 
#
# 1 0.010878 -0.002423 -0.002371 0.000001 -0.002924 -0.000001
# 2 -0.002423 0.096992 -0.000250 0.000009 0.000428 -0.000027
# 3 -0.002371 -0.000250 0.006186 0.000001 -0.002969 -0.000002
# 4 0.000001 0.000009 0.000001 0.039265 -0.000003 -0.001809
# 5 -0.002924 0.000428 -0.002969 -0.000003 0.025048 0.000007
# 6 -0.000001 -0.000027 -0.000002 -0.001809 0.000007 0.071492
#
#
# Mechanical properties :
#
#
# Convention : Reuss Voigt Hill
#
# Bulk Modulus (GPa) = 9.61812 47.12994 28.37403
# Shear Modulus (GPa) = 16.97182 34.27025 25.62103
#
# Velocity S-wave (km/s) = 2.64781 3.76255 3.25328
# Velocity P-wave (km/s) = 3.64980 6.19231 5.08261
#
# Compressibility (1/GPa) = 0.10397045
#
# Stress axis : x y z
#
# Youngs Moduli (GPa) = 91.92474 10.31012 161.64471
#
# Poissons Ratio (x) = 0.02498 0.38323
# Poissons Ratio (y) = 0.22273 0.04033
# Poissons Ratio (z) = 0.21794 0.00257
#
# Static dielectric constant tensor:
#      x y z
#    x 1.982120 0.000000 0.117070 
#    y 0.000000 1.972380 0.000010 
#    z 0.117070 0.000010 2.122650 
# 
# From -- ./inp_files/223084.got.cif
#   From: 2010.05.17/outbox.cif.g08.bks.cpg/sg15_112_cif.got.tgz:223084.got - 2010.06.03 18:47:42.
