data_PCOD9262190
_publ_section_title
;
Structure prediction by ZEFSAII (Michael W. Deem and Ramdas Pophale) SiO2 
 PCOD9262190
Probable space group: C 2/C
;
_chemical_formula_sum "Si O2"
_cell_formula_units_Z 60
_cell_length_a 5.048519
_cell_length_b 19.587914
_cell_length_c 30.141408
_cell_angle_alpha 90.000000
_cell_angle_beta 88.425507
_cell_angle_gamma 90.000000
_cell_volume 2979.557143
_symmetry_space_group_name_H-M "C 2/C"
_symmetry_group_IT_number 15
_symmetry_cell_setting 'monoclinic'
loop_
_space_group_symop_operation_xyz
x,y,z
-x,y,1/2-z
-x,-y,-z
x,-y,1/2+z
1/2+x,1/2+y,z
1/2-x,1/2+y,1/2-z
1/2-x,1/2-y,-z
1/2+x,1/2-y,1/2+z
loop_
_atom_site_type_symbol
_atom_site_label
_atom_site_fract_x
_atom_site_fract_y
_atom_site_fract_z
Si Si1 0.721874 0.450700 0.474894
Si Si2 0.708653 0.899039 0.325946
Si Si3 0.500000 0.994607 0.250000
Si Si4 0.190885 0.117976 0.291685
Si Si5 0.498282 0.914636 0.944407
Si Si6 0.741150 0.265707 0.221342
Si Si7 0.307217 0.563403 0.619848
Si Si8 0.022797 0.093537 0.388436
O O1 0.500000 0.500000 0.500000
O O2 0.864059 0.400129 0.508762
O O3 0.627912 0.412977 0.430794
O O4 0.931364 0.505393 0.453874
O O5 0.673845 0.819264 0.316014
O O6 0.490771 0.923823 0.362540
O O7 0.999685 0.905840 0.344424
O O8 0.667987 0.945052 0.281672
O O9 0.354304 0.048100 0.283940
O O10 0.349269 0.189476 0.291435
O O11 0.041903 0.122231 0.339112
O O12 0.000000 0.116593 0.250000
O O13 0.232376 0.881394 0.925309
O O14 0.727487 0.904697 0.907761
O O15 0.500000 0.297727 0.250000
O O16 0.000000 0.257764 0.250000
O O17 0.385611 0.484195 0.618447
#
# Coordination Sequence:
#
# PCOD9262190 Si02
#       8
#     8   8   4   8   8   8   8   8
#     4  10  19  32  55  83 122 157 189 244 316 370
#     4  12  25  38  58  87 125 159 198 246 312 354
#     4  12  24  38  62  92 118 164 204 260 302 360
#     4  11  25  39  62  89 124 161 212 254 301 360
#     4  10  20  32  52  82 121 155 189 238 315 366
#     4  11  24  44  63  84 119 170 213 251 300 365
#     4  11  22  35  56  87 121 151 198 249 299 366
#     4  11  21  35  54  85 122 152 195 250 301 355
#
# _framework density 20.137221
#
# number of rings (size 3 to 8) (size 9 to 14) (size 15 to 20)
#    0.000    1.067    5.333    3.200    3.733    0.000 
#    0.000    0.000    0.000    0.000    0.000    5.600 
#    0.000    0.000    0.000    0.000    0.000    0.000 
#
# Total GULP energy -167138.458585 kJ/mol
# GULP energy per Si atom -5571.281953 kJ/mol
# Density = 2.009139 g / cm^3
# Si number density = 20.137221 Si / 1000 Ang^3
#
#
#
# Elastic Constant Matrix: (Units=GPa)
#
#
# Indices 1 2 3 4 5 6 
#
# 1 64.1617 -0.7284 4.3195 0.0000 -9.3766 0.0000
# 2 -0.7284 52.0957 18.3320 0.0000 3.1206 0.0000
# 3 4.3195 18.3320 94.6041 0.0000 5.1927 0.0000
# 4 0.0000 0.0000 0.0000 -4.1099 0.0000 -9.4729
# 5 -9.3766 3.1206 5.1927 0.0000 41.1832 0.0000
# 6 0.0000 0.0000 0.0000 -9.4729 0.0000 8.8136
#
#
#
# Elastic Compliance Matrix: (Units=1/GPa)
#
#
# Indices 1 2 3 4 5 6 
#
# 1 0.016212 0.000358 -0.001018 0.000000 0.003792 0.000000
# 2 0.000358 0.020655 -0.003965 0.000000 -0.000984 0.000000
# 3 -0.001018 -0.003965 0.011461 0.000000 -0.001376 0.000000
# 4 0.000000 0.000000 0.000000 -0.069972 0.000000 -0.075206
# 5 0.003792 -0.000984 -0.001376 0.000000 0.025393 0.000000
# 6 0.000000 0.000000 0.000000 -0.075206 0.000000 0.032629
#
#
# Mechanical properties :
#
#
# Convention : Reuss Voigt Hill
#
# Bulk Modulus (GPa) = 25.58979 28.30085 26.94532
# Shear Modulus (GPa) = 85.24646 21.77327 53.50987
#
# Velocity S-wave (km/s) = 6.51342 3.29180 5.16046
# Velocity P-wave (km/s) = 8.32475 5.34157 6.99407
#
# Compressibility (1/GPa) = 0.03907808
#
# Stress axis : x y z
#
# Youngs Moduli (GPa) = 61.68109 48.41558 87.25514
#
# Poissons Ratio (x) = -0.01732 0.08880
# Poissons Ratio (y) = -0.02206 0.34594
# Poissons Ratio (z) = 0.06277 0.19195
#
# Static dielectric constant tensor:
#      x y z
#    x 1.821900 0.000000 0.079100 
#    y 0.000000 1.737870 0.000000 
#    z 0.079100 0.000000 1.867700 
# 
# From -- ./inp_files/286364.got.cif
#   From: 2010.05.17/outbox.cif.g08.bks.cpg/sg15_144_cif.got.tgz:286364.got - 2010.06.03 18:47:42.
