data_PCOD9262303
_publ_section_title
;
Structure prediction by ZEFSAII (Michael W. Deem and Ramdas Pophale) SiO2 
 PCOD9262303
Probable space group: C 2/C
;
_chemical_formula_sum "Si O2"
_cell_formula_units_Z 48
_cell_length_a 27.486653
_cell_length_b 16.399099
_cell_length_c 13.840357
_cell_angle_alpha 90.000000
_cell_angle_beta 23.842637
_cell_angle_gamma 90.000000
_cell_volume 2521.816289
_symmetry_space_group_name_H-M "C 2/C"
_symmetry_group_IT_number 15
_symmetry_cell_setting 'monoclinic'
loop_
_space_group_symop_operation_xyz
x,y,z
-x,y,1/2-z
-x,-y,-z
x,-y,1/2+z
1/2+x,1/2+y,z
1/2-x,1/2+y,1/2-z
1/2-x,1/2-y,-z
1/2+x,1/2-y,1/2+z
loop_
_atom_site_type_symbol
_atom_site_label
_atom_site_fract_x
_atom_site_fract_y
_atom_site_fract_z
Si Si1 0.890637 0.976188 0.764110
Si Si2 0.353579 0.948893 0.865181
Si Si3 0.817958 0.202069 0.460760
Si Si4 0.908932 0.444442 0.548163
Si Si5 0.743514 0.094864 0.759311
Si Si6 0.000000 0.310453 0.250000
Si Si7 0.000000 0.030994 0.250000
O O1 0.875809 0.880668 0.813372
O O2 0.928279 0.016451 0.797933
O O3 0.000000 0.000000 0.500000
O O4 0.768567 0.003786 0.936938
O O5 0.389295 0.914818 0.694354
O O6 0.461055 0.011206 0.694000
O O7 0.320832 0.896234 0.019792
O O8 0.750000 0.250000 0.500000
O O9 0.732258 0.168627 0.703315
O O10 0.920654 0.256823 0.322096
O O11 0.816643 0.514871 0.681345
O O12 0.912081 0.368722 0.470923
O O13 0.888934 0.080569 0.501801
#
# Coordination Sequence:
#
# PCOD9262303 Si02
#       7
#     8   8   8   8   8   4   4
#     4  11  21  38  67  92 124 169 221 267 310 396
#     4  11  21  37  68  97 125 163 239 268 313 376
#     4  11  25  42  65  97 134 169 214 277 342 389
#     4  11  23  39  67 100 127 176 224 272 322 404
#     4  11  21  40  65  97 130 174 223 272 318 405
#     4  12  25  42  64 100 135 172 216 276 343 396
#     4  10  19  32  58  98 121 154 216 272 315 360
#
# _framework density 19.033899999999999
#
# number of rings (size 3 to 8) (size 9 to 14) (size 15 to 20)
#    0.000    1.000    6.667    3.000    2.333    0.000 
#    0.000    0.833    0.000    0.000    0.000    0.000 
#    0.000    0.000    0.000    0.000    0.000    0.000 
#
# Total GULP energy -133721.548083 kJ/mol
# GULP energy per Si atom -5571.731170 kJ/mol
# Density = 1.899058 g / cm^3
# Si number density = 19.033900 Si / 1000 Ang^3
#
#
#
# Elastic Constant Matrix: (Units=GPa)
#
#
# Indices 1 2 3 4 5 6 
#
# 1 125.7213 44.0441 45.1221 0.0000 -3.8020 0.0000
# 2 44.0441 65.1563 21.7079 0.0000 -0.4752 0.0000
# 3 45.1221 21.7079 119.9713 0.0000 2.3146 0.0000
# 4 0.0000 0.0000 0.0000 26.4070 0.0000 8.0999
# 5 -3.8020 -0.4752 2.3146 0.0000 53.3777 0.0000
# 6 0.0000 0.0000 0.0000 8.0999 0.0000 36.2474
#
#
#
# Elastic Compliance Matrix: (Units=1/GPa)
#
#
# Indices 1 2 3 4 5 6 
#
# 1 0.011441 -0.006692 -0.003110 0.000000 0.000890 0.000000
# 2 -0.006692 0.020250 -0.001143 0.000000 -0.000247 0.000000
# 3 -0.003110 -0.001143 0.009724 0.000000 -0.000653 0.000000
# 4 0.000000 0.000000 0.000000 0.040655 0.000000 -0.009085
# 5 0.000890 -0.000247 -0.000653 0.000000 0.018824 0.000000
# 6 0.000000 0.000000 0.000000 -0.009085 0.000000 0.029618
#
#
# Mechanical properties :
#
#
# Convention : Reuss Voigt Hill
#
# Bulk Modulus (GPa) = 51.20831 59.17745 55.19288
# Shear Modulus (GPa) = 31.46438 36.53807 34.00122
#
# Velocity S-wave (km/s) = 4.07021 4.38611 4.23111
# Velocity P-wave (km/s) = 7.00364 7.53715 7.27529
#
# Compressibility (1/GPa) = 0.01952808
#
# Stress axis : x y z
#
# Youngs Moduli (GPa) = 87.40243 49.38290 102.83625
#
# Poissons Ratio (x) = 0.33045 0.31978
# Poissons Ratio (y) = 0.58486 0.11750
# Poissons Ratio (z) = 0.27178 0.05642
#
# Static dielectric constant tensor:
#      x y z
#    x 1.766360 0.000000 0.038640 
#    y 0.000000 1.644970 0.000000 
#    z 0.038640 0.000000 1.693160 
# 
# From -- ./inp_files/182479.got.cif
#   From: 2010.05.17/outbox.cif.g08.bks.cpg/sg15_92_cif.got.tgz:182479.got - 2010.06.03 18:47:42.
