data_PCOD9262677
_publ_section_title
;
Structure prediction by ZEFSAII (Michael W. Deem and Ramdas Pophale) SiO2 
 PCOD9262677
Probable space group: C 2/C
;
_chemical_formula_sum "Si O2"
_cell_formula_units_Z 64
_cell_length_a 26.827810
_cell_length_b 7.807060
_cell_length_c 13.478464
_cell_angle_alpha 90.000000
_cell_angle_beta 118.459343
_cell_angle_gamma 90.000000
_cell_volume 2481.868864
_symmetry_space_group_name_H-M "C 2/C"
_symmetry_group_IT_number 15
_symmetry_cell_setting 'monoclinic'
loop_
_space_group_symop_operation_xyz
x,y,z
-x,y,1/2-z
-x,-y,-z
x,-y,1/2+z
1/2+x,1/2+y,z
1/2-x,1/2+y,1/2-z
1/2-x,1/2-y,-z
1/2+x,1/2-y,1/2+z
loop_
_atom_site_type_symbol
_atom_site_label
_atom_site_fract_x
_atom_site_fract_y
_atom_site_fract_z
Si Si1 0.851857 0.899345 0.501873
Si Si2 0.599001 0.845026 0.040499
Si Si3 0.087230 0.045340 0.772962
Si Si4 0.588917 0.910746 0.372783
Si Si5 0.022508 0.733248 0.633282
Si Si6 0.631405 0.196464 0.184170
Si Si7 0.685683 0.637971 0.246173
Si Si8 0.764376 0.500428 0.164553
O O1 0.901186 0.014019 0.599709
O O2 0.857987 0.713682 0.561161
O O3 0.858992 0.838031 0.393884
O O4 0.791130 0.989379 0.456282
O O5 0.540254 0.788972 0.036480
O O6 0.645192 0.707125 0.118256
O O7 0.616194 0.023018 0.111802
O O8 0.597426 0.902339 0.925418
O O9 0.037472 0.922917 0.685844
O O10 0.145408 0.963793 0.782063
O O11 0.085722 0.225987 0.716621
O O12 0.539175 0.827253 0.394538
O O13 0.565103 0.883865 0.240434
O O14 0.687481 0.143954 0.300175
O O15 0.738512 0.537357 0.249933
O O16 0.709377 0.812855 0.313679
#
# Coordination Sequence:
#
# PCOD9262677 Si02
#       8
#     8   8   8   8   8   8   8   8
#     4  10  20  34  56  79 104 145 180 214 268 317
#     4   9  19  33  55  80 107 143 175 219 266 319
#     4  10  20  36  55  80 108 141 179 222 264 318
#     4   9  18  35  58  80 107 140 181 217 263 324
#     4   9  18  35  59  80 105 142 179 218 266 315
#     4  10  20  37  53  78 114 140 176 225 265 312
#     4  10  19  33  55  76 105 141 181 215 265 314
#     4  11  19  35  55  77 107 146 175 220 266 311
#
# _framework density 25.787019999999998
#
# number of rings (size 3 to 8) (size 9 to 14) (size 15 to 20)
#    0.000    2.250    2.500    0.375    0.000    1.000 
#    2.250    2.500    2.750    1.500    0.000    0.000 
#    0.000    0.000    0.000    0.000    0.000    0.000 
#
# Total GULP energy -178836.803158 kJ/mol
# GULP energy per Si atom -5588.650099 kJ/mol
# Density = 2.572833 g / cm^3
# Si number density = 25.787020 Si / 1000 Ang^3
#
#
#
# Elastic Constant Matrix: (Units=GPa)
#
#
# Indices 1 2 3 4 5 6 
#
# 1 69.6468 16.5145 17.3247 0.0000 -4.8960 0.0000
# 2 16.5145 98.6934 23.2976 0.0000 3.8942 0.0000
# 3 17.3247 23.2976 100.1272 0.0000 3.0371 0.0000
# 4 0.0000 0.0000 0.0000 24.1082 0.0000 -6.9212
# 5 -4.8960 3.8942 3.0371 0.0000 30.7450 0.0000
# 6 0.0000 0.0000 0.0000 -6.9212 0.0000 29.8644
#
#
#
# Elastic Compliance Matrix: (Units=1/GPa)
#
#
# Indices 1 2 3 4 5 6 
#
# 1 0.015660 -0.002198 -0.002289 0.000000 0.002998 0.000000
# 2 -0.002198 0.011068 -0.002148 0.000000 -0.001540 0.000000
# 3 -0.002289 -0.002148 0.010919 0.000000 -0.001171 0.000000
# 4 0.000000 0.000000 0.000000 0.044436 0.000000 0.010298
# 5 0.002998 -0.001540 -0.001171 0.000000 0.033314 0.000000
# 6 0.000000 0.000000 0.000000 0.010298 0.000000 0.035871
#
#
# Mechanical properties :
#
#
# Convention : Reuss Voigt Hill
#
# Bulk Modulus (GPa) = 41.02506 42.52677 41.77591
# Shear Modulus (GPa) = 28.95800 31.03224 29.99512
#
# Velocity S-wave (km/s) = 3.35471 3.47278 3.41425
# Velocity P-wave (km/s) = 5.56320 5.71030 5.63723
#
# Compressibility (1/GPa) = 0.02437535
#
# Stress axis : x y z
#
# Youngs Moduli (GPa) = 63.85866 90.34969 91.58572
#
# Poissons Ratio (x) = 0.19862 0.20964
# Poissons Ratio (y) = 0.14038 0.19675
# Poissons Ratio (z) = 0.14617 0.19409
#
# Static dielectric constant tensor:
#      x y z
#    x 2.008960 0.000000 -0.030730 
#    y 0.000000 2.076890 0.000000 
#    z -0.030730 0.000000 2.070860 
# 
# From -- ./inp_files/180820.got.cif
#   From: 2010.05.17/outbox.cif.g08.bks.cpg/sg15_91_cif.got.tgz:180820.got - 2010.06.03 18:47:42.
