data_PCOD9262731
_publ_section_title
;
Structure prediction by ZEFSAII (Michael W. Deem and Ramdas Pophale) SiO2 
 PCOD9262731
Probable space group: C 2/C
;
_chemical_formula_sum "Si O2"
_cell_formula_units_Z 52
_cell_length_a 12.033227
_cell_length_b 18.865140
_cell_length_c 17.174636
_cell_angle_alpha 90.000000
_cell_angle_beta 44.086053
_cell_angle_gamma 90.000000
_cell_volume 2712.535236
_symmetry_space_group_name_H-M "C 2/C"
_symmetry_group_IT_number 15
_symmetry_cell_setting 'monoclinic'
loop_
_space_group_symop_operation_xyz
x,y,z
-x,y,1/2-z
-x,-y,-z
x,-y,1/2+z
1/2+x,1/2+y,z
1/2-x,1/2+y,1/2-z
1/2-x,1/2-y,-z
1/2+x,1/2-y,1/2+z
loop_
_atom_site_type_symbol
_atom_site_label
_atom_site_fract_x
_atom_site_fract_y
_atom_site_fract_z
Si Si1 0.797765 0.488399 0.514088
Si Si2 0.632302 0.938329 0.363248
Si Si3 0.526645 0.811800 0.644957
Si Si4 0.000000 0.081554 0.250000
Si Si5 0.928603 0.849411 0.199416
Si Si6 0.687578 0.398569 0.962608
Si Si7 0.745556 0.591694 0.252885
O O1 0.853156 0.543823 0.552561
O O2 0.629312 0.460273 0.631624
O O3 0.774091 0.529469 0.445782
O O4 0.945941 0.434253 0.435141
O O5 0.743557 0.870967 0.291844
O O6 0.709946 0.008998 0.284174
O O7 0.500000 0.825768 0.750000
O O8 0.470570 0.731911 0.659731
O O9 0.710517 0.835220 0.546986
O O10 0.407524 0.863935 0.660785
O O11 0.884607 0.116795 0.244507
O O12 0.000000 0.864555 0.250000
O O13 0.017962 0.896078 0.089906
O O14 0.685062 0.395063 0.871132
#
# Coordination Sequence:
#
# PCOD9262731 Si02
#       7
#     8   8   8   4   8   8   8
#     4  10  19  33  55  83 114 148 191 231 287 335
#     4  10  20  34  52  82 117 153 183 232 287 343
#     4   9  20  36  56  85 119 151 184 238 297 344
#     4  10  22  36  56  84 110 154 194 238 286 340
#     4  11  21  34  56  88 121 148 192 243 293 338
#     4  11  19  35  58  86 116 150 194 239 290 342
#     4  10  21  37  56  81 117 152 192 233 289 347
#
# _framework density 19.170258
#
# number of rings (size 3 to 8) (size 9 to 14) (size 15 to 20)
#    0.000    1.846    3.077    2.308    1.077    2.462 
#    0.000    0.000    0.000    5.538    0.000    0.000 
#    0.000    0.000    0.000    0.000    0.000    0.000 
#
# Total GULP energy -144882.174482 kJ/mol
# GULP energy per Si atom -5572.391326 kJ/mol
# Density = 1.912663 g / cm^3
# Si number density = 19.170258 Si / 1000 Ang^3
#
#
#
# Elastic Constant Matrix: (Units=GPa)
#
#
# Indices 1 2 3 4 5 6 
#
# 1 102.4982 33.0374 34.7511 0.0004 -4.1565 -0.0002
# 2 33.0374 53.7433 23.6788 0.0004 -6.3101 -0.0003
# 3 34.7511 23.6788 90.5079 0.0002 -15.0052 -0.0004
# 4 0.0004 0.0004 0.0002 19.0023 -0.0003 0.2485
# 5 -4.1565 -6.3101 -15.0052 -0.0003 36.7927 0.0003
# 6 -0.0002 -0.0003 -0.0004 0.2485 0.0003 17.6648
#
#
#
# Elastic Compliance Matrix: (Units=1/GPa)
#
#
# Indices 1 2 3 4 5 6 
#
# 1 0.013010 -0.006605 -0.003444 0.000000 -0.001068 0.000000
# 2 -0.006605 0.024458 -0.003530 0.000000 0.002009 0.000000
# 3 -0.003444 -0.003530 0.014082 0.000000 0.004749 0.000000
# 4 0.000000 0.000000 0.000000 0.052635 0.000000 -0.000741
# 5 -0.001068 0.002009 0.004749 0.000000 0.029340 0.000000
# 6 0.000000 0.000000 0.000000 -0.000741 0.000000 0.056620
#
#
# Mechanical properties :
#
#
# Convention : Reuss Voigt Hill
#
# Bulk Modulus (GPa) = 40.99720 47.74265 44.36992
# Shear Modulus (GPa) = 22.17947 25.04410 23.61179
#
# Velocity S-wave (km/s) = 3.40512 3.61834 3.51335
# Velocity P-wave (km/s) = 6.07388 6.51269 6.29711
#
# Compressibility (1/GPa) = 0.02439191
#
# Stress axis : x y z
#
# Youngs Moduli (GPa) = 76.86576 40.88564 71.01354
#
# Poissons Ratio (x) = 0.27006 0.24458
# Poissons Ratio (y) = 0.50772 0.25065
# Poissons Ratio (z) = 0.26473 0.14431
#
# Static dielectric constant tensor:
#      x y z
#    x 1.678920 0.000000 -0.034280 
#    y 0.000000 1.696950 0.000000 
#    z -0.034280 0.000000 1.716680 
# 
# From -- ./inp_files/200313.got.cif
#   From: 2010.05.17/outbox.cif.g08.bks.cpg/sg15_101_cif.got.tgz:200313.got - 2010.06.03 18:47:42.
