data_PCOD9262036
_publ_section_title
;
Structure prediction by ZEFSAII (Michael W. Deem and Ramdas Pophale) SiO2 
 PCOD9262036
Probable space group: C 2/C
;
_chemical_formula_sum "Si O2"
_cell_formula_units_Z 56
_cell_length_a 29.748423
_cell_length_b 9.776651
_cell_length_c 11.415434
_cell_angle_alpha 90.000000
_cell_angle_beta 122.404354
_cell_angle_gamma 90.000000
_cell_volume 2803.087763
_symmetry_space_group_name_H-M "C 2/C"
_symmetry_group_IT_number 15
_symmetry_cell_setting 'monoclinic'
loop_
_space_group_symop_operation_xyz
x,y,z
-x,y,1/2-z
-x,-y,-z
x,-y,1/2+z
1/2+x,1/2+y,z
1/2-x,1/2+y,1/2-z
1/2-x,1/2-y,-z
1/2+x,1/2-y,1/2+z
loop_
_atom_site_type_symbol
_atom_site_label
_atom_site_fract_x
_atom_site_fract_y
_atom_site_fract_z
Si Si1 0.698467 0.327565 0.087079
Si Si2 0.378466 0.348909 0.829052
Si Si3 0.817993 0.431625 0.256741
Si Si4 0.971283 0.958017 0.836411
Si Si5 0.877551 0.922934 0.084955
Si Si6 0.694308 0.614594 0.832391
Si Si7 0.308759 0.021334 0.498793
O O1 0.753458 0.413905 0.160009
O O2 0.690658 0.291933 0.213440
O O3 0.701995 0.185534 0.023549
O O4 0.651075 0.428770 0.979795
O O5 0.341768 0.218699 0.778982
O O6 0.429902 0.339464 0.818060
O O7 0.341598 0.480382 0.748033
O O8 0.396609 0.371727 0.987126
O O9 0.833357 0.486266 0.406543
O O10 0.836055 0.505430 0.162163
O O11 0.000000 0.928959 0.750000
O O12 0.928702 0.073936 0.739772
O O13 0.000000 0.000000 0.000000
O O14 0.831172 0.835422 0.082205
O O15 0.753769 0.562060 0.927557
#
# Coordination Sequence:
#
# PCOD9262036 Si02
#       7
#     8   8   8   8   8   8   8
#     4  10  19  32  52  79 114 159 196 224 271 333
#     4  10  20  35  55  82 114 146 184 232 288 336
#     4  11  22  34  54  78 116 159 196 234 266 331
#     4  11  21  37  58  86 118 140 179 239 301 356
#     4  10  19  34  55  83 121 147 182 230 287 341
#     4   9  18  29  49  77 110 149 186 227 269 325
#     4  11  20  34  49  74 111 158 198 224 261 322
#
# _framework density 19.977969000000002
#
# number of rings (size 3 to 8) (size 9 to 14) (size 15 to 20)
#    0.000    1.714    4.286    2.143    0.000    1.143 
#    0.000    2.857    0.000    0.000    0.000    4.000 
#    4.286    0.143    0.000    0.000    0.000    0.000 
#
# Total GULP energy -155868.976918 kJ/mol
# GULP energy per Si atom -5566.749176 kJ/mol
# Density = 1.993250 g / cm^3
# Si number density = 19.977969 Si / 1000 Ang^3
#
#
#
# Elastic Constant Matrix: (Units=GPa)
#
#
# Indices 1 2 3 4 5 6 
#
# 1 94.0506 17.7835 42.2380 0.0000 -32.1415 0.0000
# 2 17.7835 22.9957 7.6176 0.0000 -3.8749 0.0000
# 3 42.2380 7.6176 120.2756 0.0000 -25.5694 0.0000
# 4 0.0000 0.0000 0.0000 12.9534 0.0000 -4.9637
# 5 -32.1415 -3.8749 -25.5694 0.0000 46.4135 0.0000
# 6 0.0000 0.0000 0.0000 -4.9637 0.0000 12.0064
#
#
#
# Elastic Compliance Matrix: (Units=1/GPa)
#
#
# Indices 1 2 3 4 5 6 
#
# 1 0.017368 -0.010731 -0.003458 0.000000 0.009226 0.000000
# 2 -0.010731 0.051295 -0.000170 0.000000 -0.003242 0.000000
# 3 -0.003458 -0.000170 0.010225 0.000000 0.003224 0.000000
# 4 0.000000 0.000000 0.000000 0.091733 0.000000 0.037925
# 5 0.009226 -0.003242 0.003224 0.000000 0.029440 0.000000
# 6 0.000000 0.000000 0.000000 0.037925 0.000000 0.098968
#
#
# Mechanical properties :
#
#
# Convention : Reuss Voigt Hill
#
# Bulk Modulus (GPa) = 19.93216 41.40002 30.66609
# Shear Modulus (GPa) = 14.51511 25.58683 20.05097
#
# Velocity S-wave (km/s) = 2.69839 3.58264 3.17149
# Velocity P-wave (km/s) = 4.43928 6.15480 5.36604
#
# Compressibility (1/GPa) = 0.05017018
#
# Stress axis : x y z
#
# Youngs Moduli (GPa) = 57.57819 19.49512 97.80175
#
# Poissons Ratio (x) = 0.20920 0.33821
# Poissons Ratio (y) = 0.61787 0.01658
# Poissons Ratio (z) = 0.19911 0.00331
#
# Static dielectric constant tensor:
#      x y z
#    x 1.781590 0.000000 -0.103220 
#    y 0.000000 1.719110 0.000000 
#    z -0.103220 0.000000 1.823910 
# 
# From -- ./inp_files/122484.got.cif
#   From: 2010.05.17/outbox.cif.g08.bks.cpg/sg15_62_cif.got.tgz:122484.got - 2010.06.03 18:47:42.
