data_PCOD9262598
_publ_section_title
;
Structure prediction by ZEFSAII (Michael W. Deem and Ramdas Pophale) SiO2 
 PCOD9262598
Probable space group: C 2/C
;
_chemical_formula_sum "Si O2"
_cell_formula_units_Z 56
_cell_length_a 18.734102
_cell_length_b 33.449615
_cell_length_c 5.011224
_cell_angle_alpha 90.000000
_cell_angle_beta 118.132735
_cell_angle_gamma 90.000000
_cell_volume 2769.276310
_symmetry_space_group_name_H-M "C 2/C"
_symmetry_group_IT_number 15
_symmetry_cell_setting 'monoclinic'
loop_
_space_group_symop_operation_xyz
x,y,z
-x,y,1/2-z
-x,-y,-z
x,-y,1/2+z
1/2+x,1/2+y,z
1/2-x,1/2+y,1/2-z
1/2-x,1/2-y,-z
1/2+x,1/2-y,1/2+z
loop_
_atom_site_type_symbol
_atom_site_label
_atom_site_fract_x
_atom_site_fract_y
_atom_site_fract_z
Si Si1 0.771370 0.523544 0.213208
Si Si2 0.852372 0.604181 0.564848
Si Si3 0.204863 0.834953 0.813725
Si Si4 0.909285 0.108962 0.052931
Si Si5 0.906775 0.944155 0.041962
Si Si6 0.411817 0.147140 0.182151
Si Si7 0.256042 0.794903 0.407157
O O1 0.790819 0.486622 0.442819
O O2 0.821280 0.560891 0.418864
O O3 0.674004 0.530525 0.051585
O O4 0.773597 0.631885 0.402191
O O5 0.913939 0.623502 0.463081
O O6 0.883379 0.613881 0.915334
O O7 0.141799 0.857741 0.888193
O O8 0.194216 0.818509 0.497419
O O9 0.234244 0.799424 0.058866
O O10 0.901101 0.069855 0.226414
O O11 0.000000 0.122884 0.250000
O O12 0.897003 0.093700 0.729411
O O13 0.000000 0.959325 0.250000
O O14 0.500000 0.162402 0.250000
O O15 0.343493 0.182182 0.082308
O O16 0.250000 0.750000 0.500000
#
# Coordination Sequence:
#
# PCOD9262598 Si02
#       7
#     8   8   8   8   8   8   8
#     4  12  24  36  57  84 118 153 195 247 307 357
#     4  10  21  37  61  84 113 148 199 247 287 347
#     4  10  19  34  59  79 109 157 197 230 277 339
#     4  10  19  33  54  79 109 147 197 242 277 323
#     4  10  21  35  53  77 114 154 191 245 288 334
#     4  10  21  39  65  90 112 151 197 241 283 342
#     4  10  21  36  57  89 122 149 180 232 289 343
#
# _framework density 20.221889000000001
#
# number of rings (size 3 to 8) (size 9 to 14) (size 15 to 20)
#    0.000    1.714    1.429    3.429    4.000    0.571 
#    0.000    1.429    0.000    8.571    0.000    0.000 
#    0.000    0.000    0.000    0.000    0.000    0.000 
#
# Total GULP energy -156003.044421 kJ/mol
# GULP energy per Si atom -5571.537301 kJ/mol
# Density = 2.017586 g / cm^3
# Si number density = 20.221889 Si / 1000 Ang^3
#
#
#
# Elastic Constant Matrix: (Units=GPa)
#
#
# Indices 1 2 3 4 5 6 
#
# 1 96.6940 26.3638 21.1908 0.0000 -9.8858 0.0000
# 2 26.3638 63.1052 25.0150 0.0000 1.7270 0.0000
# 3 21.1908 25.0150 65.7034 0.0000 -11.5117 0.0000
# 4 0.0000 0.0000 0.0000 1.4601 0.0000 -5.1481
# 5 -9.8858 1.7270 -11.5117 0.0000 22.3007 0.0000
# 6 0.0000 0.0000 0.0000 -5.1481 0.0000 26.6924
#
#
#
# Elastic Compliance Matrix: (Units=1/GPa)
#
#
# Indices 1 2 3 4 5 6 
#
# 1 0.012480 -0.004861 -0.001252 0.000000 0.005262 0.000000
# 2 -0.004861 0.021221 -0.007891 0.000000 -0.007872 0.000000
# 3 -0.001252 -0.007891 0.020491 0.000000 0.010634 0.000000
# 4 0.000000 0.000000 0.000000 2.140234 0.000000 0.412784
# 5 0.005262 -0.007872 0.010634 0.000000 0.053273 0.000000
# 6 0.000000 0.000000 0.000000 0.412784 0.000000 0.117077
#
#
# Mechanical properties :
#
#
# Convention : Reuss Voigt Hill
#
# Bulk Modulus (GPa) = 38.19221 41.18241 39.68731
# Shear Modulus (GPa) = 2.08202 20.28618 11.18410
#
# Velocity S-wave (km/s) = 1.01579 3.17074 2.35429
# Velocity P-wave (km/s) = 4.50592 5.81500 5.20181
#
# Compressibility (1/GPa) = 0.02618335
#
# Stress axis : x y z
#
# Youngs Moduli (GPa) = 80.12950 47.12363 48.80198
#
# Poissons Ratio (x) = 0.22909 0.06111
# Poissons Ratio (y) = 0.38954 0.38507
# Poissons Ratio (z) = 0.10033 0.37183
#
# Static dielectric constant tensor:
#      x y z
#    x 2.112330 0.000000 -0.032060 
#    y 0.000000 1.775690 0.000000 
#    z -0.032060 0.000000 1.734300 
# 
# From -- ./inp_files/12227.got.cif
#   From: 2010.05.17/outbox.cif.g08.bks.cpg/sg15_7_cif.got.tgz:12227.got - 2010.06.03 18:47:42.
