data_PCOD9262501
_publ_section_title
;
Structure prediction by ZEFSAII (Michael W. Deem and Ramdas Pophale) SiO2 
 PCOD9262501
Probable space group: C 2/C
;
_chemical_formula_sum "Si O2"
_cell_formula_units_Z 48
_cell_length_a 23.460123
_cell_length_b 13.582777
_cell_length_c 14.902546
_cell_angle_alpha 90.000000
_cell_angle_beta 150.262862
_cell_angle_gamma 90.000000
_cell_volume 2355.482653
_symmetry_space_group_name_H-M "C 2/C"
_symmetry_group_IT_number 15
_symmetry_cell_setting 'monoclinic'
loop_
_space_group_symop_operation_xyz
x,y,z
-x,y,1/2-z
-x,-y,-z
x,-y,1/2+z
1/2+x,1/2+y,z
1/2-x,1/2+y,1/2-z
1/2-x,1/2-y,-z
1/2+x,1/2-y,1/2+z
loop_
_atom_site_type_symbol
_atom_site_label
_atom_site_fract_x
_atom_site_fract_y
_atom_site_fract_z
Si Si1 0.910769 0.257276 0.358557
Si Si2 0.611301 0.336174 0.852228
Si Si3 0.964769 0.966418 0.349322
Si Si4 0.329960 0.686016 0.750953
Si Si5 0.280234 0.075094 0.733484
Si Si6 0.805902 0.864062 0.877723
O O1 0.864520 0.238575 0.195619
O O2 0.898840 0.368541 0.377405
O O3 0.831385 0.191067 0.317263
O O4 0.043739 0.224678 0.546085
O O5 0.500000 0.293923 0.750000
O O6 0.572264 0.435002 0.748408
O O7 0.700905 0.376213 0.047444
O O8 0.863214 0.886242 0.215436
O O9 0.070949 0.916832 0.442260
O O10 0.000000 0.000000 0.500000
O O11 0.275233 0.614771 0.750677
O O12 0.244187 0.778493 0.627298
O O13 0.278753 0.957597 0.735441
#
# Coordination Sequence:
#
# PCOD9262501 Si02
#       6
#     8   8   8   8   8   8
#     4  10  20  33  51  78 106 132 168 218 259 303
#     4  12  18  31  56  77 102 131 171 220 253 295
#     4  11  17  35  55  75 100 133 178 211 246 305
#     4  10  19  34  53  75 103 135 170 216 248 305
#     4  11  20  32  52  79 104 133 173 209 263 307
#     4  10  19  33  53  76 102 134 175 207 255 306
#
# _framework density 20.377987999999998
#
# number of rings (size 3 to 8) (size 9 to 14) (size 15 to 20)
#    0.000    1.333    8.333    0.500    0.000    0.667 
#    0.000    0.833    0.000    0.000    0.000    0.000 
#    0.000    0.000    0.000    0.000    0.000    0.000 
#
# Total GULP energy -133739.567265 kJ/mol
# GULP energy per Si atom -5572.481969 kJ/mol
# Density = 2.033161 g / cm^3
# Si number density = 20.377988 Si / 1000 Ang^3
#
#
#
# Elastic Constant Matrix: (Units=GPa)
#
#
# Indices 1 2 3 4 5 6 
#
# 1 56.0818 41.1275 -0.2763 0.0000 15.5279 0.0000
# 2 41.1275 124.3602 -13.1805 0.0000 18.3413 0.0000
# 3 -0.2763 -13.1805 16.8380 0.0000 1.0323 0.0000
# 4 0.0000 0.0000 0.0000 21.7406 0.0000 15.0138
# 5 15.5279 18.3413 1.0323 0.0000 19.2748 0.0000
# 6 0.0000 0.0000 0.0000 15.0138 0.0000 25.6157
#
#
#
# Elastic Compliance Matrix: (Units=1/GPa)
#
#
# Indices 1 2 3 4 5 6 
#
# 1 0.027251 -0.007294 -0.004356 0.000000 -0.014779 0.000000
# 2 -0.007294 0.012484 0.010053 0.000000 -0.006541 0.000000
# 3 -0.004356 0.010053 0.067782 0.000000 -0.009687 0.000000
# 4 0.000000 0.000000 0.000000 0.077275 0.000000 -0.045292
# 5 -0.014779 -0.006541 -0.009687 0.000000 0.070531 0.000000
# 6 0.000000 0.000000 0.000000 -0.045292 0.000000 0.065585
#
#
# Mechanical properties :
#
#
# Convention : Reuss Voigt Hill
#
# Bulk Modulus (GPa) = 9.58573 28.06903 18.82738
# Shear Modulus (GPa) = 13.93240 24.63350 19.28295
#
# Velocity S-wave (km/s) = 2.61760 3.48059 3.07948
# Velocity P-wave (km/s) = 3.72155 5.47328 4.68010
#
# Compressibility (1/GPa) = 0.10432175
#
# Stress axis : x y z
#
# Youngs Moduli (GPa) = 36.69601 80.10423 14.75325
#
# Poissons Ratio (x) = 0.58430 0.06427
# Poissons Ratio (y) = 0.26767 -0.14832
# Poissons Ratio (z) = 0.15987 -0.80532
#
# Static dielectric constant tensor:
#      x y z
#    x 1.758090 0.000000 0.004430 
#    y 0.000000 1.744070 0.000000 
#    z 0.004430 0.000000 1.789990 
# 
# From -- ./inp_files/96555.got.cif
#   From: 2010.05.17/outbox.cif.g08.bks.cpg/sg15_49_cif.got.tgz:96555.got - 2010.06.03 18:47:42.
