data_PCOD9262151
_publ_section_title
;
Structure prediction by ZEFSAII (Michael W. Deem and Ramdas Pophale) SiO2 
 PCOD9262151
Probable space group: C 2/C
;
_chemical_formula_sum "Si O2"
_cell_formula_units_Z 52
_cell_length_a 29.180895
_cell_length_b 4.981042
_cell_length_c 16.577600
_cell_angle_alpha 90.000000
_cell_angle_beta 107.121890
_cell_angle_gamma 90.000000
_cell_volume 2302.784199
_symmetry_space_group_name_H-M "C 2/C"
_symmetry_group_IT_number 15
_symmetry_cell_setting 'monoclinic'
loop_
_space_group_symop_operation_xyz
x,y,z
-x,y,1/2-z
-x,-y,-z
x,-y,1/2+z
1/2+x,1/2+y,z
1/2-x,1/2+y,1/2-z
1/2-x,1/2-y,-z
1/2+x,1/2-y,1/2+z
loop_
_atom_site_type_symbol
_atom_site_label
_atom_site_fract_x
_atom_site_fract_y
_atom_site_fract_z
Si Si1 0.762529 0.239239 0.808572
Si Si2 0.914062 0.268999 0.096400
Si Si3 0.500000 0.696845 0.250000
Si Si4 0.830957 0.864449 0.672260
Si Si5 0.054775 0.747910 0.484118
Si Si6 0.045808 0.115705 0.626620
Si Si7 0.355546 0.129946 0.288012
O O1 0.745727 0.437922 0.726821
O O2 0.726157 0.310625 0.861533
O O3 0.818851 0.299015 0.841449
O O4 0.957249 0.350359 0.180952
O O5 0.863956 0.229048 0.115805
O O6 0.916822 0.484717 0.026631
O O7 0.928292 0.982615 0.067662
O O8 0.472781 0.512883 0.300564
O O9 0.847627 0.671012 0.754269
O O10 0.841033 0.167176 0.706818
O O11 0.997867 0.726181 0.437747
O O12 0.060339 0.873261 0.574947
O O13 0.090432 0.303914 0.664542
#
# Coordination Sequence:
#
# PCOD9262151 Si02
#       7
#     8   8   4   8   8   8   8
#     4   8  16  30  48  78 109 132 167 222 283 310
#     4  11  22  38  55  82 109 149 179 223 273 318
#     4  10  22  34  60  84 104 138 192 236 252 318
#     4  10  19  32  54  83 108 135 176 231 270 313
#     4  10  25  38  54  75 119 152 175 214 276 335
#     4  10  22  40  55  82 110 147 184 223 269 319
#     4  10  19  32  56  80 106 139 178 229 268 315
#
# _framework density 22.581361000000001
#
# number of rings (size 3 to 8) (size 9 to 14) (size 15 to 20)
#    0.000    2.154    1.538    0.923    4.308    7.385 
#    0.000    0.000    0.000    1.846    0.000    0.000 
#    0.000    0.000    0.000    0.000    0.000    0.000 
#
# Total GULP energy -145398.681279 kJ/mol
# GULP energy per Si atom -5592.256972 kJ/mol
# Density = 2.252997 g / cm^3
# Si number density = 22.581361 Si / 1000 Ang^3
#
#
#
# Elastic Constant Matrix: (Units=GPa)
#
#
# Indices 1 2 3 4 5 6 
#
# 1 127.4480 12.4568 26.6177 0.0000 -45.7197 0.0000
# 2 12.4568 71.3715 1.9312 0.0000 -4.7340 0.0000
# 3 26.6177 1.9312 56.1916 0.0000 -24.9106 0.0000
# 4 0.0000 0.0000 0.0000 21.7454 0.0000 -5.0469
# 5 -45.7197 -4.7340 -24.9106 0.0000 25.8215 0.0000
# 6 0.0000 0.0000 0.0000 -5.0469 0.0000 -20.4658
#
#
#
# Elastic Compliance Matrix: (Units=1/GPa)
#
#
# Indices 1 2 3 4 5 6 
#
# 1 0.027110 -0.001019 0.014659 0.000000 0.061957 0.000000
# 2 -0.001019 0.014266 0.000615 0.000000 0.001405 0.000000
# 3 0.014659 0.000615 0.039117 0.000000 0.063806 0.000000
# 4 0.000000 0.000000 0.000000 0.043497 0.000000 -0.010726
# 5 0.061957 0.001405 0.063806 0.000000 0.210240 0.000000
# 6 0.000000 0.000000 0.000000 -0.010726 0.000000 -0.046217
#
#
# Mechanical properties :
#
#
# Convention : Reuss Voigt Hill
#
# Bulk Modulus (GPa) = 9.17396 37.44696 23.31046
# Shear Modulus (GPa) = 16.90120 19.68724 18.29422
#
# Velocity S-wave (km/s) = 2.73876 2.95589 2.84940
# Velocity P-wave (km/s) = 3.75134 5.31685 4.60116
#
# Compressibility (1/GPa) = 0.10900413
#
# Stress axis : x y z
#
# Youngs Moduli (GPa) = 36.88656 70.09890 25.56431
#
# Poissons Ratio (x) = 0.07142 -0.37476
# Poissons Ratio (y) = 0.03758 -0.01573
# Poissons Ratio (z) = -0.54073 -0.04312
#
# Static dielectric constant tensor:
#      x y z
#    x 1.890640 0.000000 -0.007680 
#    y 0.000000 1.813620 0.000000 
#    z -0.007680 0.000000 1.826420 
# 
# From -- ./inp_files/220941.got.cif
#   From: 2010.05.17/outbox.cif.g08.bks.cpg/sg15_111_cif.got.tgz:220941.got - 2010.06.03 18:47:42.
