data_PCOD9262893
_publ_section_title
;
Structure prediction by ZEFSAII (Michael W. Deem and Ramdas Pophale) SiO2 
 PCOD9262893
Probable space group: C 2/C
;
_chemical_formula_sum "Si O2"
_cell_formula_units_Z 44
_cell_length_a 6.000601
_cell_length_b 24.995749
_cell_length_c 18.379661
_cell_angle_alpha 90.000000
_cell_angle_beta 124.283149
_cell_angle_gamma 90.000000
_cell_volume 2277.808610
_symmetry_space_group_name_H-M "C 2/C"
_symmetry_group_IT_number 15
_symmetry_cell_setting 'monoclinic'
loop_
_space_group_symop_operation_xyz
x,y,z
-x,y,1/2-z
-x,-y,-z
x,-y,1/2+z
1/2+x,1/2+y,z
1/2-x,1/2+y,1/2-z
1/2-x,1/2-y,-z
1/2+x,1/2-y,1/2+z
loop_
_atom_site_type_symbol
_atom_site_label
_atom_site_fract_x
_atom_site_fract_y
_atom_site_fract_z
Si Si1 0.961483 0.073682 0.931272
Si Si2 0.083502 0.664354 0.884169
Si Si3 0.787779 0.265968 0.841530
Si Si4 0.500000 0.298240 0.250000
Si Si5 0.543280 0.869655 0.544063
Si Si6 0.706345 0.472377 0.941787
O O1 0.737616 0.117043 0.870595
O O2 0.009003 0.022043 0.888673
O O3 0.242510 0.105892 0.991035
O O4 0.878137 0.049692 0.994458
O O5 0.223380 0.720597 0.889830
O O6 0.772972 0.668364 0.804212
O O7 0.095119 0.651278 0.971671
O O8 0.500000 0.276870 0.750000
O O9 0.912104 0.319727 0.895741
O O10 0.980534 0.238890 0.817453
O O11 0.748108 0.919131 0.597051
O O12 0.000000 0.500000 0.000000
#
# Coordination Sequence:
#
# PCOD9262893 Si02
#       6
#     8   8   8   4   8   8
#     4   9  17  30  53  85 105 137 178 229 276 325
#     4  10  20  34  54  80 114 143 183 225 280 336
#     4  10  22  37  52  79 112 151 183 221 282 338
#     4  10  22  36  48  74 118 154 182 224 272 342
#     4  10  19  33  57  85 106 143 183 234 273 334
#     4   8  16  31  51  82 107 134 178 224 276 322
#
# _framework density 19.316811999999999
#
# number of rings (size 3 to 8) (size 9 to 14) (size 15 to 20)
#    0.000    2.545    0.000    1.636    0.000    8.727 
#    0.000    0.000    0.000    0.000  196.182    0.000 
#    0.000    0.000    0.000    0.000    0.000    0.000 
#
# Total GULP energy -122621.097796 kJ/mol
# GULP energy per Si atom -5573.686263 kJ/mol
# Density = 1.927285 g / cm^3
# Si number density = 19.316812 Si / 1000 Ang^3
#
#
#
# Elastic Constant Matrix: (Units=GPa)
#
#
# Indices 1 2 3 4 5 6 
#
# 1 112.5637 70.4197 24.4161 0.0000 4.2756 0.0000
# 2 70.4197 169.5921 50.9254 0.0000 21.3948 0.0000
# 3 24.4161 50.9254 34.1102 0.0000 -1.5946 0.0000
# 4 0.0000 0.0000 0.0000 -5.3536 0.0000 5.1386
# 5 4.2756 21.3948 -1.5946 0.0000 16.4310 0.0000
# 6 0.0000 0.0000 0.0000 5.1386 0.0000 19.3851
#
#
#
# Elastic Compliance Matrix: (Units=1/GPa)
#
#
# Indices 1 2 3 4 5 6 
#
# 1 0.012232 -0.005409 -0.000501 0.000000 0.003812 0.000000
# 2 -0.005409 0.019341 -0.026233 0.000000 -0.026322 0.000000
# 3 -0.000501 -0.026233 0.070765 0.000000 0.041156 0.000000
# 4 0.000000 0.000000 0.000000 -0.148905 0.000000 0.039472
# 5 0.003812 -0.026322 0.041156 0.000000 0.098136 0.000000
# 6 0.000000 0.000000 0.000000 0.039472 0.000000 0.041123
#
#
# Mechanical properties :
#
#
# Convention : Reuss Voigt Hill
#
# Bulk Modulus (GPa) = 26.28163 67.53206 46.90684
# Shear Modulus (GPa) = 29.47026 17.45949 23.46488
#
# Velocity S-wave (km/s) = 3.91017 3.00967 3.48909
# Velocity P-wave (km/s) = 5.83275 6.86394 6.36925
#
# Compressibility (1/GPa) = 0.03804940
#
# Stress axis : x y z
#
# Youngs Moduli (GPa) = 81.75315 51.70461 14.13128
#
# Poissons Ratio (x) = 0.27969 0.00708
# Poissons Ratio (y) = 0.44224 0.37071
# Poissons Ratio (z) = 0.04099 1.35638
#
# Static dielectric constant tensor:
#      x y z
#    x 1.698900 0.000000 -0.000270 
#    y 0.000000 1.704030 0.000000 
#    z -0.000270 0.000000 1.642200 
# 
# From -- ./inp_files/129354.got.cif
#   From: 2010.05.17/outbox.cif.g08.bks.cpg/sg15_65_cif.got.tgz:129354.got - 2010.06.03 18:47:42.
