data_PCOD9262920
_publ_section_title
;
Structure prediction by ZEFSAII (Michael W. Deem and Ramdas Pophale) SiO2 
 PCOD9262920
Probable space group: C 2/C
;
_chemical_formula_sum "Si O2"
_cell_formula_units_Z 56
_cell_length_a 20.537098
_cell_length_b 12.764182
_cell_length_c 23.475980
_cell_angle_alpha 90.000000
_cell_angle_beta 27.469932
_cell_angle_gamma 90.000000
_cell_volume 2838.724850
_symmetry_space_group_name_H-M "C 2/C"
_symmetry_group_IT_number 15
_symmetry_cell_setting 'monoclinic'
loop_
_space_group_symop_operation_xyz
x,y,z
-x,y,1/2-z
-x,-y,-z
x,-y,1/2+z
1/2+x,1/2+y,z
1/2-x,1/2+y,1/2-z
1/2-x,1/2-y,-z
1/2+x,1/2-y,1/2+z
loop_
_atom_site_type_symbol
_atom_site_label
_atom_site_fract_x
_atom_site_fract_y
_atom_site_fract_z
Si Si1 0.916095 0.340810 0.086644
Si Si2 0.519515 0.376637 0.552826
Si Si3 0.028040 0.971649 0.663325
Si Si4 0.872803 0.831686 0.249523
Si Si5 0.275333 0.649300 0.943304
Si Si6 0.012511 0.360829 0.891174
Si Si7 0.240608 0.001915 0.802519
O O1 0.993173 0.243811 0.056432
O O2 0.777866 0.304705 0.159386
O O3 0.844498 0.421636 0.185977
O O4 0.012121 0.380493 0.959468
O O5 0.550049 0.388723 0.596446
O O6 0.378033 0.439095 0.641817
O O7 0.649279 0.429510 0.417671
O O8 0.000000 0.933243 0.750000
O O9 0.150442 0.057339 0.579046
O O10 0.905668 0.045175 0.730201
O O11 0.869821 0.806353 0.318121
O O12 0.977881 0.763538 0.129942
O O13 0.250000 0.750000 0.000000
O O14 0.133127 0.604710 0.024657
O O15 0.148663 0.417322 0.758931
#
# Coordination Sequence:
#
# PCOD9262920 Si02
#       7
#     8   8   8   8   8   8   8
#     4  11  22  40  61  93 127 164 201 259 321 365
#     4  11  24  38  66  91 126 166 208 264 306 374
#     4  10  21  40  57  88 127 170 207 244 309 381
#     4  10  19  33  57  90 125 157 202 242 309 377
#     4  10  21  32  56  85 126 168 193 245 311 378
#     4  11  22  36  60  94 130 158 197 262 314 384
#     4  11  24  40  61  96 124 162 208 261 322 368
#
# _framework density 19.727167000000001
#
# number of rings (size 3 to 8) (size 9 to 14) (size 15 to 20)
#    0.000    1.429    4.286    1.286    4.000    0.000 
#    0.000    0.000    0.000    3.429    0.000    0.000 
#    0.000    0.000    0.000    0.000    0.000    0.000 
#
# Total GULP energy -155920.290430 kJ/mol
# GULP energy per Si atom -5568.581801 kJ/mol
# Density = 1.968227 g / cm^3
# Si number density = 19.727167 Si / 1000 Ang^3
#
#
#
# Elastic Constant Matrix: (Units=GPa)
#
#
# Indices 1 2 3 4 5 6 
#
# 1 100.3025 41.2599 35.8737 -0.0001 -0.3145 0.0001
# 2 41.2599 62.7803 32.8975 0.0001 9.8640 -0.0003
# 3 35.8737 32.8975 73.1505 -0.0004 3.0720 -0.0002
# 4 -0.0001 0.0001 -0.0004 32.6135 -0.0003 2.3203
# 5 -0.3145 9.8640 3.0720 -0.0003 12.0621 0.0001
# 6 0.0001 -0.0003 -0.0002 2.3203 0.0001 29.1496
#
#
#
# Elastic Compliance Matrix: (Units=1/GPa)
#
#
# Indices 1 2 3 4 5 6 
#
# 1 0.015199 -0.009571 -0.003532 0.000000 0.009123 0.000000
# 2 -0.009571 0.029862 -0.007783 0.000000 -0.022687 0.000000
# 3 -0.003532 -0.007783 0.018841 0.000000 0.001474 0.000000
# 4 0.000000 0.000000 0.000000 0.030837 0.000001 -0.002455
# 5 0.009123 -0.022687 0.001474 0.000001 0.101320 -0.000001
# 6 0.000000 0.000000 0.000000 -0.002455 -0.000001 0.034501
#
#
# Mechanical properties :
#
#
# Convention : Reuss Voigt Hill
#
# Bulk Modulus (GPa) = 45.19049 50.69951 47.94500
# Shear Modulus (GPa) = 17.87570 23.17853 20.52711
#
# Velocity S-wave (km/s) = 3.01349 3.43148 3.22926
# Velocity P-wave (km/s) = 5.92163 6.43865 6.18554
#
# Compressibility (1/GPa) = 0.02212855
#
# Stress axis : x y z
#
# Youngs Moduli (GPa) = 65.79353 33.48743 53.07563
#
# Poissons Ratio (x) = 0.32052 0.18748
# Poissons Ratio (y) = 0.62974 0.41309
# Poissons Ratio (z) = 0.23241 0.26063
#
# Static dielectric constant tensor:
#      x y z
#    x 1.708080 0.000000 0.017400 
#    y 0.000000 1.763550 0.000000 
#    z 0.017400 0.000000 1.831500 
# 
# From -- ./inp_files/279980.got.cif
#   From: 2010.05.17/outbox.cif.g08.bks.cpg/sg15_140_cif.got.tgz:279980.got - 2010.06.03 18:47:42.
