data_PCOD9262083
_publ_section_title
;
Structure prediction by ZEFSAII (Michael W. Deem and Ramdas Pophale) SiO2 
 PCOD9262083
Probable space group: C 2/C
;
_chemical_formula_sum "Si O2"
_cell_formula_units_Z 40
_cell_length_a 7.173431
_cell_length_b 15.339342
_cell_length_c 17.025298
_cell_angle_alpha 90.000000
_cell_angle_beta 116.581093
_cell_angle_gamma 90.000000
_cell_volume 1675.377014
_symmetry_space_group_name_H-M "C 2/C"
_symmetry_group_IT_number 15
_symmetry_cell_setting 'monoclinic'
loop_
_space_group_symop_operation_xyz
x,y,z
-x,y,1/2-z
-x,-y,-z
x,-y,1/2+z
1/2+x,1/2+y,z
1/2-x,1/2+y,1/2-z
1/2-x,1/2-y,-z
1/2+x,1/2-y,1/2+z
loop_
_atom_site_type_symbol
_atom_site_label
_atom_site_fract_x
_atom_site_fract_y
_atom_site_fract_z
Si Si1 0.010561 0.213160 0.132282
Si Si2 0.585221 0.475966 0.674881
Si Si3 0.715447 0.394480 0.445315
Si Si4 0.752144 0.126082 0.718403
Si Si5 0.532957 0.775188 0.557026
O O1 0.772954 0.204438 0.116614
O O2 0.127160 0.121220 0.157106
O O3 0.135357 0.284157 0.205204
O O4 0.991861 0.245341 0.038765
O O5 0.500000 0.468110 0.750000
O O6 0.424855 0.519102 0.581407
O O7 0.757678 0.551298 0.718339
O O8 0.824880 0.407061 0.381140
O O9 0.562906 0.308592 0.416521
O O10 0.891761 0.362086 0.538505
O O11 0.000000 0.141253 0.750000
#
# Coordination Sequence:
#
# PCOD9262083 Si02
#       5
#     8   8   8   8   8
#     4  10  19  32  53  80 101 128 172 213 251 294
#     4   9  19  33  51  73 101 137 172 206 247 302
#     4   8  16  34  52  71 101 135 162 197 257 304
#     4   8  17  35  51  67 102 138 167 205 249 299
#     4   9  18  32  54  77 102 132 163 209 256 300
#
# _framework density 23.875222000000001
#
# number of rings (size 3 to 8) (size 9 to 14) (size 15 to 20)
#    0.000    3.600    0.000    0.000    0.000    4.800 
#    0.000    2.000    0.000    4.800    0.000    0.000 
#    0.000    0.000    0.000    0.000    0.000    0.000 
#
# Total GULP energy -111340.363752 kJ/mol
# GULP energy per Si atom -5567.018188 kJ/mol
# Density = 2.382088 g / cm^3
# Si number density = 23.875222 Si / 1000 Ang^3
#
#
#
# Elastic Constant Matrix: (Units=GPa)
#
#
# Indices 1 2 3 4 5 6 
#
# 1 61.4625 16.6577 16.3713 0.0000 16.9681 0.0000
# 2 16.6577 163.4226 38.3028 0.0000 28.4819 0.0000
# 3 16.3713 38.3028 60.0708 0.0000 -4.0443 0.0000
# 4 0.0000 0.0000 0.0000 38.1728 0.0000 0.0627
# 5 16.9681 28.4819 -4.0443 0.0000 30.0369 0.0000
# 6 0.0000 0.0000 0.0000 0.0627 0.0000 14.5988
#
#
#
# Elastic Compliance Matrix: (Units=1/GPa)
#
#
# Indices 1 2 3 4 5 6 
#
# 1 0.022456 0.002663 -0.008923 0.000000 -0.016412 0.000000
# 2 0.002663 0.009698 -0.007699 0.000000 -0.011737 0.000000
# 3 -0.008923 -0.007699 0.025046 0.000000 0.015714 0.000000
# 4 0.000000 0.000000 0.000000 0.026197 0.000000 -0.000112
# 5 -0.016412 -0.011737 0.015714 0.000000 0.055808 0.000000
# 6 0.000000 0.000000 0.000000 -0.000112 0.000000 0.068499
#
#
# Mechanical properties :
#
#
# Convention : Reuss Voigt Hill
#
# Bulk Modulus (GPa) = 34.15200 47.51328 40.83264
# Shear Modulus (GPa) = 20.37625 30.80330 25.58978
#
# Velocity S-wave (km/s) = 2.92455 3.59580 3.27741
# Velocity P-wave (km/s) = 5.07340 6.09784 5.60906
#
# Compressibility (1/GPa) = 0.02928086
#
# Stress axis : x y z
#
# Youngs Moduli (GPa) = 44.53147 103.11643 39.92640
#
# Poissons Ratio (x) = -0.27457 0.35625
# Poissons Ratio (y) = -0.11857 0.30741
# Poissons Ratio (z) = 0.39734 0.79394
#
# Static dielectric constant tensor:
#      x y z
#    x 2.021960 0.000000 -0.032930 
#    y 0.000000 1.935100 0.000000 
#    z -0.032930 0.000000 1.984000 
# 
# From -- ./inp_files/188388.got.cif
#   From: 2010.05.17/outbox.cif.g08.bks.cpg/sg15_95_cif.got.tgz:188388.got - 2010.06.03 18:47:42.
