data_PCOD9262042
_publ_section_title
;
Structure prediction by ZEFSAII (Michael W. Deem and Ramdas Pophale) SiO2 
 PCOD9262042
Probable space group: C 2/C
;
_chemical_formula_sum "Si O2"
_cell_formula_units_Z 64
_cell_length_a 24.277832
_cell_length_b 12.516564
_cell_length_c 10.829842
_cell_angle_alpha 90.000000
_cell_angle_beta 72.574742
_cell_angle_gamma 90.000000
_cell_volume 3139.893154
_symmetry_space_group_name_H-M "C 2/C"
_symmetry_group_IT_number 15
_symmetry_cell_setting 'monoclinic'
loop_
_space_group_symop_operation_xyz
x,y,z
-x,y,1/2-z
-x,-y,-z
x,-y,1/2+z
1/2+x,1/2+y,z
1/2-x,1/2+y,1/2-z
1/2-x,1/2-y,-z
1/2+x,1/2-y,1/2+z
loop_
_atom_site_type_symbol
_atom_site_label
_atom_site_fract_x
_atom_site_fract_y
_atom_site_fract_z
Si Si1 0.934876 0.309788 0.657803
Si Si2 0.895752 0.907358 0.480252
Si Si3 0.559775 0.822902 0.555436
Si Si4 0.310710 0.144690 0.132959
Si Si5 0.775227 0.870517 0.152750
Si Si6 0.607242 0.426387 0.297722
Si Si7 0.735104 0.604536 0.425673
Si Si8 0.683075 0.903402 0.411958
O O1 0.933877 0.342877 0.802082
O O2 0.876383 0.346420 0.634124
O O3 0.930176 0.180615 0.659205
O O4 0.994719 0.352142 0.561241
O O5 0.936024 0.804804 0.462792
O O6 0.900663 0.959297 0.340077
O O7 0.830872 0.858245 0.528178
O O8 0.905226 0.986838 0.588148
O O9 0.615836 0.874928 0.456798
O O10 0.292876 0.256929 0.082914
O O11 0.267030 0.134277 0.277709
O O12 0.309397 0.030231 0.070950
O O13 0.825742 0.893570 0.221012
O O14 0.714482 0.870183 0.264386
O O15 0.774649 0.975127 0.068264
O O16 0.777589 0.642640 0.504420
#
# Coordination Sequence:
#
# PCOD9262042 Si02
#       8
#     8   8   8   8   8   8   8   8
#     4   9  19  36  53  76 103 138 184 232 268 316
#     4  10  19  33  55  85 114 143 176 230 276 334
#     4  10  20  33  55  78 101 138 188 229 267 315
#     4  10  20  34  54  74 105 141 176 224 275 323
#     4   9  19  33  50  80 109 137 172 221 276 332
#     4   9  18  33  56  82 113 144 180 222 284 327
#     4  10  19  32  52  80 111 133 175 222 272 332
#     4  11  20  32  54  80 101 142 180 218 274 330
#
# _framework density 20.382857999999999
#
# number of rings (size 3 to 8) (size 9 to 14) (size 15 to 20)
#    0.000    2.250    2.500    0.750    0.000    2.500 
#    0.000    0.000    5.500    0.000    0.000    0.000 
#    0.000    0.000    0.000    0.000    0.000    0.000 
#
# Total GULP energy -178439.598166 kJ/mol
# GULP energy per Si atom -5576.237443 kJ/mol
# Density = 2.033647 g / cm^3
# Si number density = 20.382858 Si / 1000 Ang^3
#
#
#
# Elastic Constant Matrix: (Units=GPa)
#
#
# Indices 1 2 3 4 5 6 
#
# 1 85.6311 16.1389 12.1544 0.0000 -25.8138 0.0000
# 2 16.1389 73.2384 7.3897 0.0000 -0.8953 0.0000
# 3 12.1544 7.3897 35.3155 0.0000 -5.1310 0.0000
# 4 0.0000 0.0000 0.0000 9.4932 0.0000 1.7688
# 5 -25.8138 -0.8953 -5.1310 0.0000 29.6115 0.0000
# 6 0.0000 0.0000 0.0000 1.7688 0.0000 8.7888
#
#
#
# Elastic Compliance Matrix: (Units=1/GPa)
#
#
# Indices 1 2 3 4 5 6 
#
# 1 0.017013 -0.003262 -0.003111 0.000000 0.014193 0.000000
# 2 -0.003262 0.014574 -0.002335 0.000000 -0.002807 0.000000
# 3 -0.003111 -0.002335 0.030232 0.000000 0.002456 0.000000
# 4 0.000000 0.000000 0.000000 0.109442 0.000000 -0.022026
# 5 0.014193 -0.002807 0.002456 0.000000 0.046484 0.000000
# 6 0.000000 0.000000 0.000000 -0.022026 0.000000 0.118214
#
#
# Mechanical properties :
#
#
# Convention : Reuss Voigt Hill
#
# Bulk Modulus (GPa) = 22.52007 29.50566 26.01286
# Shear Modulus (GPa) = 13.58049 20.14551 16.86300
#
# Velocity S-wave (km/s) = 2.58402 3.14722 2.87942
# Velocity P-wave (km/s) = 4.46938 5.26439 4.88309
#
# Compressibility (1/GPa) = 0.04440484
#
# Stress axis : x y z
#
# Youngs Moduli (GPa) = 58.77899 68.61510 33.07726
#
# Poissons Ratio (x) = 0.22380 0.10289
# Poissons Ratio (y) = 0.19171 0.07723
# Poissons Ratio (z) = 0.18284 0.16021
#
# Static dielectric constant tensor:
#      x y z
#    x 1.731180 0.000000 0.002940 
#    y 0.000000 1.780430 0.000000 
#    z 0.002940 0.000000 1.724410 
# 
# From -- ./inp_files/117977.got.cif
#   From: 2010.05.17/outbox.cif.g08.bks.cpg/sg15_59_cif.got.tgz:117977.got - 2010.06.03 18:47:42.
