data_PCOD9262103
_publ_section_title
;
Structure prediction by ZEFSAII (Michael W. Deem and Ramdas Pophale) SiO2 
 PCOD9262103
Probable space group: C 2/C
;
_chemical_formula_sum "Si O2"
_cell_formula_units_Z 32
_cell_length_a 15.257766
_cell_length_b 18.037429
_cell_length_c 14.193499
_cell_angle_alpha 90.000000
_cell_angle_beta 152.229000
_cell_angle_gamma 90.000000
_cell_volume 1820.052784
_symmetry_space_group_name_H-M "C 2/C"
_symmetry_group_IT_number 15
_symmetry_cell_setting 'monoclinic'
loop_
_space_group_symop_operation_xyz
x,y,z
-x,y,1/2-z
-x,-y,-z
x,-y,1/2+z
1/2+x,1/2+y,z
1/2-x,1/2+y,1/2-z
1/2-x,1/2-y,-z
1/2+x,1/2-y,1/2+z
loop_
_atom_site_type_symbol
_atom_site_label
_atom_site_fract_x
_atom_site_fract_y
_atom_site_fract_z
Si Si1 0.631352 0.680053 0.007994
Si Si2 0.209097 0.340729 0.041620
Si Si3 0.462261 0.997759 0.106124
Si Si4 0.800499 0.041981 0.302571
O O1 0.773843 0.671093 0.054981
O O2 0.424644 0.654114 0.780088
O O3 0.624513 0.768772 0.012966
O O4 0.686393 0.625029 0.143475
O O5 0.104390 0.416725 0.959372
O O6 0.500000 0.975940 0.250000
O O7 0.654100 0.996204 0.228880
O O8 0.295554 0.956566 0.891618
O O9 0.000000 0.000000 0.500000
#
# Coordination Sequence:
#
# PCOD9262103 Si02
#       4
#     8   8   8   8
#     4  10  19  32  53  84 119 149 185 231 293 346
#     4  10  19  32  55  83 116 151 184 236 289 345
#     4  11  22  36  56  82 118 155 193 235 287 345
#     4  11  22  36  53  83 120 156 192 235 287 347
#
# _framework density 17.581907999999999
#
# number of rings (size 3 to 8) (size 9 to 14) (size 15 to 20)
#    0.000    1.500    5.000    1.500    3.500    1.000 
#    0.000    0.000    0.000    0.000    0.000   15.750 
#    0.000    0.250    0.000    0.000    0.000    0.000 
#
# Total GULP energy -89279.055693 kJ/mol
# GULP energy per Si atom -5579.940981 kJ/mol
# Density = 1.754189 g / cm^3
# Si number density = 17.581908 Si / 1000 Ang^3
#
#
#
# Elastic Constant Matrix: (Units=GPa)
#
#
# Indices 1 2 3 4 5 6 
#
# 1 67.3958 27.6110 55.6914 0.0000 -15.2357 0.0000
# 2 27.6110 86.7212 40.2370 0.0000 -22.4984 0.0000
# 3 55.6914 40.2370 130.0629 0.0000 -18.4553 0.0000
# 4 0.0000 0.0000 0.0000 33.9497 0.0000 -2.8788
# 5 -15.2357 -22.4984 -18.4553 0.0000 44.6181 0.0000
# 6 0.0000 0.0000 0.0000 -2.8788 0.0000 29.0079
#
#
#
# Elastic Compliance Matrix: (Units=1/GPa)
#
#
# Indices 1 2 3 4 5 6 
#
# 1 0.024127 -0.002661 -0.009061 0.000000 0.003149 0.000000
# 2 -0.002661 0.015095 -0.002740 0.000000 0.005569 0.000000
# 3 -0.009061 -0.002740 0.012516 0.000000 0.000701 0.000000
# 4 0.000000 0.000000 0.000000 0.029705 0.000000 0.002948
# 5 0.003149 0.005569 0.000701 0.000000 0.026586 0.000000
# 6 0.000000 0.000000 0.000000 0.002948 0.000000 0.034766
#
#
# Mechanical properties :
#
#
# Convention : Reuss Voigt Hill
#
# Bulk Modulus (GPa) = 43.83357 59.02874 51.43116
# Shear Modulus (GPa) = 27.88271 32.22453 30.05362
#
# Velocity S-wave (km/s) = 3.98663 4.28579 4.13891
# Velocity P-wave (km/s) = 6.79530 7.62477 7.22195
#
# Compressibility (1/GPa) = 0.02281356
#
# Stress axis : x y z
#
# Youngs Moduli (GPa) = 41.44735 66.24871 79.90048
#
# Poissons Ratio (x) = 0.17627 0.72397
# Poissons Ratio (y) = 0.11028 0.21895
# Poissons Ratio (z) = 0.37555 0.18154
#
# Static dielectric constant tensor:
#      x y z
#    x 1.612500 0.000000 0.004730 
#    y 0.000000 1.612460 0.000000 
#    z 0.004730 0.000000 1.667020 
# 
# From -- ./inp_files/38258.got.cif
#   From: 2010.05.17/outbox.cif.g08.bks.cpg/sg15_20_cif.got.tgz:38258.got - 2010.06.03 18:47:42.
