data_PCOD9262898
_publ_section_title
;
Structure prediction by ZEFSAII (Michael W. Deem and Ramdas Pophale) SiO2 
 PCOD9262898
Probable space group: C 2/C
;
_chemical_formula_sum "Si O2"
_cell_formula_units_Z 64
_cell_length_a 15.816436
_cell_length_b 9.475715
_cell_length_c 28.616204
_cell_angle_alpha 90.000000
_cell_angle_beta 39.412602
_cell_angle_gamma 90.000000
_cell_volume 2722.941317
_symmetry_space_group_name_H-M "C 2/C"
_symmetry_group_IT_number 15
_symmetry_cell_setting 'monoclinic'
loop_
_space_group_symop_operation_xyz
x,y,z
-x,y,1/2-z
-x,-y,-z
x,-y,1/2+z
1/2+x,1/2+y,z
1/2-x,1/2+y,1/2-z
1/2-x,1/2-y,-z
1/2+x,1/2-y,1/2+z
loop_
_atom_site_type_symbol
_atom_site_label
_atom_site_fract_x
_atom_site_fract_y
_atom_site_fract_z
Si Si1 0.523205 0.348634 0.100161
Si Si2 0.599838 0.332540 0.744865
Si Si3 0.605251 0.717437 0.663560
Si Si4 0.002731 0.339800 0.129644
Si Si5 0.149850 0.613446 0.307160
Si Si6 0.781537 0.069943 0.637579
Si Si7 0.278229 0.748980 0.165890
Si Si8 0.760723 0.516226 0.442878
O O1 0.548891 0.373802 0.144493
O O2 0.476848 0.185482 0.114030
O O3 0.401298 0.415027 0.123434
O O4 0.655503 0.399637 0.018450
O O5 0.500000 0.398682 0.750000
O O6 0.724783 0.416208 0.712977
O O7 0.510607 0.281106 0.826258
O O8 0.671811 0.192109 0.692343
O O9 0.500000 0.741427 0.750000
O O10 0.728967 0.663146 0.641989
O O11 0.645562 0.863133 0.620383
O O12 0.904059 0.466672 0.188600
O O13 0.929969 0.284144 0.114204
O O14 0.148243 0.406574 0.067518
O O15 0.201819 0.733451 0.248646
O O16 0.745175 0.909107 0.663411
O O17 0.810467 0.065728 0.569726
#
# Coordination Sequence:
#
# PCOD9262898 Si02
#       8
#     8   8   8   8   8   8   8   8
#     4  11  22  38  59  90 118 152 197 250 294 344
#     4  10  19  33  57  86 110 149 194 241 286 341
#     4  11  21  36  59  88 113 153 198 245 289 349
#     4  11  20  35  57  83 117 150 194 241 293 348
#     4  10  20  34  58  84 120 144 191 246 295 337
#     4  10  21  37  61  86 119 151 196 242 294 347
#     4  10  21  36  56  88 112 153 194 243 289 350
#     4  11  22  36  63  87 116 154 201 244 294 348
#
# _framework density 23.503996000000001
#
# number of rings (size 3 to 8) (size 9 to 14) (size 15 to 20)
#    0.000    1.500    5.000    0.750    1.750    0.000 
#    0.000    4.375    0.000    0.000    0.000    0.000 
#    0.000    0.000    0.000    0.000    0.000    0.000 
#
# Total GULP energy -178353.132317 kJ/mol
# GULP energy per Si atom -5573.535385 kJ/mol
# Density = 2.345050 g / cm^3
# Si number density = 23.503996 Si / 1000 Ang^3
#
#
#
# Elastic Constant Matrix: (Units=GPa)
#
#
# Indices 1 2 3 4 5 6 
#
# 1 195.8819 10.9251 18.3053 0.0000 -4.9980 0.0000
# 2 10.9251 36.0993 0.8591 0.0000 -2.6354 0.0000
# 3 18.3053 0.8591 37.6819 0.0000 6.0315 0.0000
# 4 0.0000 0.0000 0.0000 -0.6298 0.0000 2.3397
# 5 -4.9980 -2.6354 6.0315 0.0000 19.5856 0.0000
# 6 0.0000 0.0000 0.0000 2.3397 0.0000 32.5688
#
#
#
# Elastic Compliance Matrix: (Units=1/GPa)
#
#
# Indices 1 2 3 4 5 6 
#
# 1 0.005520 -0.001443 -0.002990 0.000000 0.002135 0.000000
# 2 -0.001443 0.028415 -0.000526 0.000001 0.003617 0.000000
# 3 -0.002990 -0.000526 0.029595 0.000001 -0.009948 0.000000
# 4 0.000000 0.000001 0.000001 -1.253252 0.000000 0.090031
# 5 0.002135 0.003617 -0.009948 0.000000 0.055153 0.000000
# 6 0.000000 0.000000 0.000000 0.090031 0.000000 0.024237
#
#
# Mechanical properties :
#
#
# Convention : Reuss Voigt Hill
#
# Bulk Modulus (GPa) = 18.65295 36.64912 27.65104
# Shear Modulus (GPa) = -4.61875 26.27648 10.82887
#
# Velocity S-wave (km/s) = -1.40334 3.34722 2.14878
# Velocity P-wave (km/s) = 2.30814 5.52857 4.23630
#
# Compressibility (1/GPa) = 0.05361082
#
# Stress axis : x y z
#
# Youngs Moduli (GPa) = 181.17473 35.19302 33.78974
#
# Poissons Ratio (x) = 0.05080 0.10104
# Poissons Ratio (y) = 0.26151 0.01776
# Poissons Ratio (z) = 0.54174 0.01850
#
# Static dielectric constant tensor:
#      x y z
#    x 2.028070 0.000000 0.002390 
#    y 0.000000 1.971620 0.000000 
#    z 0.002390 0.000000 1.920280 
# 
# From -- ./inp_files/313583.got.cif
#   From: 2010.05.17/outbox.cif.g08.bks.cpg/sg15_157_cif.got.tgz:313583.got - 2010.06.03 18:47:42.
