data_PCOD9262087
_publ_section_title
;
Structure prediction by ZEFSAII (Michael W. Deem and Ramdas Pophale) SiO2 
 PCOD9262087
Probable space group: C 2/C
;
_chemical_formula_sum "Si O2"
_cell_formula_units_Z 56
_cell_length_a 16.741759
_cell_length_b 7.566971
_cell_length_c 15.464887
_cell_angle_alpha 90.000000
_cell_angle_beta 74.247465
_cell_angle_gamma 90.000000
_cell_volume 1885.580276
_symmetry_space_group_name_H-M "C 2/C"
_symmetry_group_IT_number 15
_symmetry_cell_setting 'monoclinic'
loop_
_space_group_symop_operation_xyz
x,y,z
-x,y,1/2-z
-x,-y,-z
x,-y,1/2+z
1/2+x,1/2+y,z
1/2-x,1/2+y,1/2-z
1/2-x,1/2-y,-z
1/2+x,1/2-y,1/2+z
loop_
_atom_site_type_symbol
_atom_site_label
_atom_site_fract_x
_atom_site_fract_y
_atom_site_fract_z
Si Si1 0.132719 0.581494 0.835283
Si Si2 0.533040 0.436259 0.339842
Si Si3 0.130411 0.866040 0.078646
Si Si4 0.027483 0.700648 0.549200
Si Si5 0.804070 0.854320 0.057553
Si Si6 0.860229 0.497064 0.845441
Si Si7 0.314017 0.554120 0.273135
O O1 0.096780 0.486103 0.760370
O O2 0.218579 0.478235 0.825389
O O3 0.161687 0.773876 0.789873
O O4 0.061913 0.596347 0.929413
O O5 0.500000 0.437783 0.250000
O O6 0.465931 0.311952 0.405434
O O7 0.507564 0.617251 0.396636
O O8 0.631128 0.413481 0.299765
O O9 0.166643 0.690896 0.108817
O O10 0.168302 0.950162 0.983288
O O11 0.145018 0.022827 0.144532
O O12 0.105304 0.759882 0.464945
O O13 0.078974 0.595943 0.607907
O O14 0.750000 0.750000 0.000000
O O15 0.726763 0.899015 0.142606
#
# Coordination Sequence:
#
# PCOD9262087 Si02
#       7
#     8   8   8   8   8   8   8
#     4  11  21  34  53  78 110 141 179 225 268 318
#     4   8  15  30  49  70  99 133 169 214 262 307
#     4  10  19  32  53  80 108 137 177 221 265 317
#     4   9  18  33  53  75 103 140 177 215 264 315
#     4   9  18  35  56  76 105 143 180 219 264 316
#     4  11  20  31  54  82 106 136 178 224 268 316
#     4  10  20  33  50  74 106 142 177 221 273 316
#
# _framework density 29.699079000000001
#
# number of rings (size 3 to 8) (size 9 to 14) (size 15 to 20)
#    0.000    2.286    0.000    6.000    0.000    4.571 
#    0.000    0.000    0.000   23.143    0.000    0.000 
#    0.000    0.000    0.000    0.000    0.000    0.000 
#
# Total GULP energy -156340.406387 kJ/mol
# GULP energy per Si atom -5583.585942 kJ/mol
# Density = 2.963148 g / cm^3
# Si number density = 29.699079 Si / 1000 Ang^3
#
#
#
# Elastic Constant Matrix: (Units=GPa)
#
#
# Indices 1 2 3 4 5 6 
#
# 1 181.3557 29.3664 41.4901 0.0000 -65.3313 0.0000
# 2 29.3664 122.6777 24.1864 0.0000 -13.9539 0.0000
# 3 41.4901 24.1864 185.1046 0.0000 -66.0856 0.0000
# 4 0.0000 0.0000 0.0000 31.9503 0.0000 -9.2951
# 5 -65.3313 -13.9539 -66.0856 0.0000 66.2130 0.0000
# 6 0.0000 0.0000 0.0000 -9.2951 0.0000 38.9571
#
#
#
# Elastic Compliance Matrix: (Units=1/GPa)
#
#
# Indices 1 2 3 4 5 6 
#
# 1 0.009128 -0.001355 0.001934 0.000000 0.010651 0.000000
# 2 -0.001355 0.008615 -0.001011 0.000000 -0.000531 0.000000
# 3 0.001934 -0.001011 0.008865 0.000000 0.010543 0.000000
# 4 0.000000 0.000000 0.000000 0.033633 0.000000 0.008025
# 5 0.010651 -0.000531 0.010543 0.000000 0.036022 0.000000
# 6 0.000000 0.000000 0.000000 0.008025 0.000000 0.027584
#
#
# Mechanical properties :
#
#
# Convention : Reuss Voigt Hill
#
# Bulk Modulus (GPa) = 38.84680 75.46929 57.15804
# Shear Modulus (GPa) = 37.51137 53.69707 45.60422
#
# Velocity S-wave (km/s) = 3.55779 4.25672 3.92285
# Velocity P-wave (km/s) = 5.47592 7.04457 6.30919
#
# Compressibility (1/GPa) = 0.02574215
#
# Stress axis : x y z
#
# Youngs Moduli (GPa) = 109.55560 116.07947 112.80312
#
# Poissons Ratio (x) = 0.15726 -0.21811
# Poissons Ratio (y) = 0.14842 0.11410
# Poissons Ratio (z) = -0.21183 0.11741
#
# Static dielectric constant tensor:
#      x y z
#    x 2.395940 0.000000 0.049140 
#    y 0.000000 2.640220 0.000000 
#    z 0.049140 0.000000 2.328620 
# 
# From -- ./inp_files/276229.got.cif
#   From: 2010.05.17/outbox.cif.g08.bks.cpg/sg15_139_cif.got.tgz:276229.got - 2010.06.03 18:47:42.
