data_PCOD9262814
_publ_section_title
;
Structure prediction by ZEFSAII (Michael W. Deem and Ramdas Pophale) SiO2 
 PCOD9262814
Probable space group: C 2/C
;
_chemical_formula_sum "Si O2"
_cell_formula_units_Z 52
_cell_length_a 32.284480
_cell_length_b 6.202668
_cell_length_c 16.809337
_cell_angle_alpha 90.000000
_cell_angle_beta 124.226439
_cell_angle_gamma 90.000000
_cell_volume 2783.136291
_symmetry_space_group_name_H-M "C 2/C"
_symmetry_group_IT_number 15
_symmetry_cell_setting 'monoclinic'
loop_
_space_group_symop_operation_xyz
x,y,z
-x,y,1/2-z
-x,-y,-z
x,-y,1/2+z
1/2+x,1/2+y,z
1/2-x,1/2+y,1/2-z
1/2-x,1/2-y,-z
1/2+x,1/2-y,1/2+z
loop_
_atom_site_type_symbol
_atom_site_label
_atom_site_fract_x
_atom_site_fract_y
_atom_site_fract_z
Si Si1 0.861937 0.290031 0.045367
Si Si2 0.000000 0.754104 0.250000
Si Si3 0.035024 0.805122 0.568216
Si Si4 0.232065 0.942100 0.038618
Si Si5 0.324457 0.824223 0.616023
Si Si6 0.909552 0.011557 0.734679
Si Si7 0.548228 0.988804 0.441038
O O1 0.844184 0.508099 0.070876
O O2 0.903075 0.347018 0.024336
O O3 0.887110 0.141527 0.141366
O O4 0.812759 0.165340 0.959861
O O5 0.962544 0.897902 0.261277
O O6 0.966951 0.606827 0.156648
O O7 0.055402 0.668744 0.516196
O O8 0.998459 0.653692 0.580584
O O9 0.079153 0.887243 0.672275
O O10 0.000000 0.000000 0.500000
O O11 0.283525 0.048844 0.125265
O O12 0.250000 0.750000 0.000000
O O13 0.205099 0.129840 0.958986
O O14 0.371831 0.710782 0.707342
#
# Coordination Sequence:
#
# PCOD9262814 Si02
#       7
#     8   4   8   8   8   8   8
#     4  10  19  33  56  84 114 145 198 238 293 342
#     4  12  20  36  56  80 114 154 200 246 280 336
#     4  11  24  39  51  76 125 158 197 233 289 342
#     4   8  16  30  51  84 122 133 171 249 298 344
#     4   9  17  31  53  83 120 137 184 239 298 337
#     4  11  21  33  55  80 117 156 196 242 289 347
#     4  11  23  36  54  78 117 158 199 242 285 346
#
# _framework density 18.683956999999999
#
# number of rings (size 3 to 8) (size 9 to 14) (size 15 to 20)
#    0.000    1.846    3.077    1.846    0.000    0.000 
#    0.000    0.000    0.000    0.000    0.000    0.000 
#  383.077    0.000    0.000    0.000    0.000    1.231 
#
# Total GULP energy -144984.842862 kJ/mol
# GULP energy per Si atom -5576.340110 kJ/mol
# Density = 1.864143 g / cm^3
# Si number density = 18.683957 Si / 1000 Ang^3
#
#
#
# Elastic Constant Matrix: (Units=GPa)
#
#
# Indices 1 2 3 4 5 6 
#
# 1 95.9289 26.5279 36.0464 -0.0001 18.3083 -0.0001
# 2 26.5279 75.4674 16.6401 0.0006 7.2031 0.0005
# 3 36.0464 16.6401 44.2147 -0.0001 4.2495 -0.0001
# 4 -0.0001 0.0006 -0.0001 18.5260 0.0000 3.3404
# 5 18.3083 7.2031 4.2495 0.0000 25.2589 0.0000
# 6 -0.0001 0.0005 -0.0001 3.3404 0.0000 36.7008
#
#
#
# Elastic Compliance Matrix: (Units=1/GPa)
#
#
# Indices 1 2 3 4 5 6 
#
# 1 0.017757 -0.002513 -0.012566 0.000000 -0.010040 0.000000
# 2 -0.002513 0.015074 -0.003442 0.000000 -0.001898 0.000000
# 3 -0.012566 -0.003442 0.033733 0.000000 0.004415 0.000000
# 4 0.000000 0.000000 0.000000 0.054879 0.000000 -0.004995
# 5 -0.010040 -0.001898 0.004415 0.000000 0.046666 0.000000
# 6 0.000000 0.000000 0.000000 -0.004995 0.000000 0.027702
#
#
# Mechanical properties :
#
#
# Convention : Reuss Voigt Hill
#
# Bulk Modulus (GPa) = 33.87298 41.55999 37.71648
# Shear Modulus (GPa) = 20.60206 25.19023 22.89614
#
# Velocity S-wave (km/s) = 3.32424 3.67581 3.50443
# Velocity P-wave (km/s) = 5.73610 6.34881 6.05022
#
# Compressibility (1/GPa) = 0.02952206
#
# Stress axis : x y z
#
# Youngs Moduli (GPa) = 56.31449 66.33840 29.64482
#
# Poissons Ratio (x) = 0.16670 0.37252
# Poissons Ratio (y) = 0.14151 0.10204
# Poissons Ratio (z) = 0.70766 0.22834
#
# Static dielectric constant tensor:
#      x y z
#    x 1.698530 0.000000 0.032190 
#    y 0.000000 1.679740 0.000000 
#    z 0.032190 0.000000 1.643970 
# 
# From -- ./inp_files/220980.got.cif
#   From: 2010.05.17/outbox.cif.g08.bks.cpg/sg15_111_cif.got.tgz:220980.got - 2010.06.03 18:47:42.
