data_PCOD9262329
_publ_section_title
;
Structure prediction by ZEFSAII (Michael W. Deem and Ramdas Pophale) SiO2 
 PCOD9262329
Probable space group: C 2/C
;
_chemical_formula_sum "Si O2"
_cell_formula_units_Z 48
_cell_length_a 25.797303
_cell_length_b 18.487529
_cell_length_c 17.261945
_cell_angle_alpha 90.000000
_cell_angle_beta 161.567993
_cell_angle_gamma 90.000000
_cell_volume 2603.010979
_symmetry_space_group_name_H-M "C 2/C"
_symmetry_group_IT_number 15
_symmetry_cell_setting 'monoclinic'
loop_
_space_group_symop_operation_xyz
x,y,z
-x,y,1/2-z
-x,-y,-z
x,-y,1/2+z
1/2+x,1/2+y,z
1/2-x,1/2+y,1/2-z
1/2-x,1/2-y,-z
1/2+x,1/2-y,1/2+z
loop_
_atom_site_type_symbol
_atom_site_label
_atom_site_fract_x
_atom_site_fract_y
_atom_site_fract_z
Si Si1 0.278063 0.379757 0.003265
Si Si2 0.500000 0.503586 0.250000
Si Si3 0.557871 0.234758 0.746932
Si Si4 0.991706 0.310769 0.986609
Si Si5 0.000000 0.240397 0.750000
Si Si6 0.662710 0.626139 0.579677
Si Si7 0.709975 0.333640 0.310406
O O1 0.377386 0.451238 0.122711
O O2 0.396509 0.311126 0.157869
O O3 0.243321 0.374478 0.044766
O O4 0.131116 0.363028 0.735182
O O5 0.609265 0.554952 0.459038
O O6 0.500000 0.206169 0.750000
O O7 0.487024 0.188349 0.574079
O O8 0.476286 0.313556 0.627443
O O9 0.750000 0.250000 0.000000
O O10 0.932673 0.227934 0.883854
O O11 0.172566 0.336038 0.218791
O O12 0.872456 0.287406 0.521243
O O13 0.676113 0.614752 0.690680
#
# Coordination Sequence:
#
# PCOD9262329 Si02
#       7
#     8   4   8   8   4   8   8
#     4  10  21  36  55  84 117 152 189 243 291 357
#     4  11  24  40  52  72 122 165 200 238 288 361
#     4  11  20  37  61  91 123 152 194 241 297 351
#     4  10  20  35  62  91 113 149 191 250 305 346
#     4   9  16  34  56  86 118 137 176 246 312 339
#     4  11  21  37  59  83 117 161 191 240 298 352
#     4  10  19  32  61  88 113 144 193 248 300 354
#
# _framework density 18.440183999999999
#
# number of rings (size 3 to 8) (size 9 to 14) (size 15 to 20)
#    0.000    1.667    2.500    4.000    0.000    2.667 
#    0.000    0.000    3.667    0.000    0.000    0.000 
#    0.000    0.000    0.000    0.000    0.000    0.000 
#
# Total GULP energy -133716.465710 kJ/mol
# GULP energy per Si atom -5571.519405 kJ/mol
# Density = 1.839821 g / cm^3
# Si number density = 18.440184 Si / 1000 Ang^3
#
#
#
# Elastic Constant Matrix: (Units=GPa)
#
#
# Indices 1 2 3 4 5 6 
#
# 1 138.9337 39.4396 67.4349 0.0000 -27.5854 0.0000
# 2 39.4396 76.1838 51.5173 0.0000 -5.0045 0.0000
# 3 67.4349 51.5173 122.0093 0.0000 0.7700 0.0000
# 4 0.0000 0.0000 0.0000 14.1843 0.0000 4.9218
# 5 -27.5854 -5.0045 0.7700 0.0000 40.9855 0.0000
# 6 0.0000 0.0000 0.0000 4.9218 0.0000 -2.2671
#
#
#
# Elastic Compliance Matrix: (Units=1/GPa)
#
#
# Indices 1 2 3 4 5 6 
#
# 1 0.012267 -0.001672 -0.006126 0.000000 0.008167 0.000000
# 2 -0.001672 0.018837 -0.007038 0.000000 0.001307 0.000000
# 3 -0.006126 -0.007038 0.014587 0.000000 -0.005256 0.000000
# 4 0.000000 0.000000 0.000000 0.040210 0.000000 0.087294
# 5 0.008167 0.001307 -0.005256 0.000000 0.030154 0.000000
# 6 0.000000 0.000000 0.000000 0.087294 0.000000 -0.251574
#
#
# Mechanical properties :
#
#
# Convention : Reuss Voigt Hill
#
# Bulk Modulus (GPa) = 62.42289 72.65671 67.53980
# Shear Modulus (GPa) = -49.74704 22.49619 -13.62542
#
# Velocity S-wave (km/s) = -5.19962 3.49657 -2.72122
# Velocity P-wave (km/s) = 1.45708 7.46915 5.18002
#
# Compressibility (1/GPa) = 0.01601976
#
# Stress axis : x y z
#
# Youngs Moduli (GPa) = 81.51840 53.08803 68.55558
#
# Poissons Ratio (x) = 0.08875 0.41996
# Poissons Ratio (y) = 0.13627 0.48249
# Poissons Ratio (z) = 0.49937 0.37363
#
# Static dielectric constant tensor:
#      x y z
#    x 1.704170 0.000000 -0.028880 
#    y 0.000000 1.585940 0.000000 
#    z -0.028880 0.000000 1.679230 
# 
# From -- ./inp_files/222901.got.cif
#   From: 2010.05.17/outbox.cif.g08.bks.cpg/sg15_112_cif.got.tgz:222901.got - 2010.06.03 18:47:42.
