data_PCOD9262454
_publ_section_title
;
Structure prediction by ZEFSAII (Michael W. Deem and Ramdas Pophale) SiO2 
 PCOD9262454
Probable space group: C 2/C
;
_chemical_formula_sum "Si O2"
_cell_formula_units_Z 48
_cell_length_a 22.343971
_cell_length_b 5.058631
_cell_length_c 21.272889
_cell_angle_alpha 90.000000
_cell_angle_beta 96.362766
_cell_angle_gamma 90.000000
_cell_volume 2389.661414
_symmetry_space_group_name_H-M "C 2/C"
_symmetry_group_IT_number 15
_symmetry_cell_setting 'monoclinic'
loop_
_space_group_symop_operation_xyz
x,y,z
-x,y,1/2-z
-x,-y,-z
x,-y,1/2+z
1/2+x,1/2+y,z
1/2-x,1/2+y,1/2-z
1/2-x,1/2-y,-z
1/2+x,1/2-y,1/2+z
loop_
_atom_site_type_symbol
_atom_site_label
_atom_site_fract_x
_atom_site_fract_y
_atom_site_fract_z
Si Si1 0.858129 0.110858 0.204254
Si Si2 0.139680 0.471576 0.630131
Si Si3 0.302519 0.042640 0.486672
Si Si4 0.291513 0.525554 0.316546
Si Si5 0.069272 0.392155 0.740720
Si Si6 0.798520 0.754719 0.103694
O O1 0.800939 0.091862 0.244844
O O2 0.891451 0.387700 0.217567
O O3 0.904641 0.890700 0.235764
O O4 0.835805 0.000533 0.134724
O O5 0.144791 0.393240 0.557239
O O6 0.160322 0.772014 0.645829
O O7 0.081736 0.427811 0.667436
O O8 0.188139 0.270022 0.666148
O O9 0.250000 0.250000 0.500000
O O10 0.261396 0.846517 0.440101
O O11 0.329164 0.919657 0.553394
O O12 0.227716 0.589317 0.340734
O O13 0.000000 0.418404 0.750000
#
# Coordination Sequence:
#
# PCOD9262454 Si02
#       6
#     8   8   8   8   8   8
#     4  10  22  34  56  83 109 142 183 230 282 332
#     4   9  18  33  53  77 103 141 182 215 270 324
#     4  10  19  33  52  76 117 153 179 210 261 340
#     4   9  18  32  48  77 110 137 169 215 268 334
#     4  10  21  39  59  79 104 140 190 247 287 315
#     4  10  21  32  51  81 115 150 179 213 267 339
#
# _framework density 20.08653
#
# number of rings (size 3 to 8) (size 9 to 14) (size 15 to 20)
#    0.000    2.333    1.667    0.500    2.333    6.667 
#    0.000    0.000    0.000    2.000    0.000    0.000 
#    0.000    0.000    0.000    0.000    0.000    0.000 
#
# Total GULP energy -133783.195953 kJ/mol
# GULP energy per Si atom -5574.299831 kJ/mol
# Density = 2.004081 g / cm^3
# Si number density = 20.086530 Si / 1000 Ang^3
#
#
#
# Elastic Constant Matrix: (Units=GPa)
#
#
# Indices 1 2 3 4 5 6 
#
# 1 109.2459 22.6258 50.1587 0.0000 -30.1087 0.0000
# 2 22.6258 63.1695 18.9212 0.0000 -4.3557 0.0000
# 3 50.1587 18.9212 96.1178 0.0000 -28.4504 0.0000
# 4 0.0000 0.0000 0.0000 24.9045 0.0000 -4.4174
# 5 -30.1087 -4.3557 -28.4504 0.0000 28.0561 0.0000
# 6 0.0000 0.0000 0.0000 -4.4174 0.0000 16.4679
#
#
#
# Elastic Compliance Matrix: (Units=1/GPa)
#
#
# Indices 1 2 3 4 5 6 
#
# 1 0.014698 -0.003397 -0.003556 0.000000 0.011640 0.000000
# 2 -0.003397 0.017630 -0.002810 0.000000 -0.003758 0.000000
# 3 -0.003556 -0.002810 0.016510 0.000000 0.012489 0.000000
# 4 0.000000 0.000000 0.000000 0.042159 0.000000 0.011309
# 5 0.011640 -0.003758 0.012489 0.000000 0.060215 0.000000
# 6 0.000000 0.000000 0.000000 0.011309 0.000000 0.063758
#
#
# Mechanical properties :
#
#
# Convention : Reuss Voigt Hill
#
# Bulk Modulus (GPa) = 34.11681 50.21605 42.16643
# Shear Modulus (GPa) = 20.46951 25.67421 23.07186
#
# Velocity S-wave (km/s) = 3.19575 3.57904 3.39281
# Velocity P-wave (km/s) = 5.53524 6.49104 6.03210
#
# Compressibility (1/GPa) = 0.02931106
#
# Stress axis : x y z
#
# Youngs Moduli (GPa) = 68.03725 56.72253 60.57116
#
# Poissons Ratio (x) = 0.19267 0.21539
# Poissons Ratio (y) = 0.23110 0.17022
# Poissons Ratio (z) = 0.24194 0.15941
#
# Static dielectric constant tensor:
#      x y z
#    x 1.701360 0.000000 -0.068680 
#    y 0.000000 1.809130 0.000000 
#    z -0.068680 0.000000 1.818830 
# 
# From -- ./inp_files/250851.got.cif
#   From: 2010.05.17/outbox.cif.g08.bks.cpg/sg15_126_cif.got.tgz:250851.got - 2010.06.03 18:47:42.
