data_PCOD9262540
_publ_section_title
;
Structure prediction by ZEFSAII (Michael W. Deem and Ramdas Pophale) SiO2 
 PCOD9262540
Probable space group: C 2/C
;
_chemical_formula_sum "Si O2"
_cell_formula_units_Z 56
_cell_length_a 26.614305
_cell_length_b 19.717187
_cell_length_c 9.008875
_cell_angle_alpha 90.000000
_cell_angle_beta 139.965028
_cell_angle_gamma 90.000000
_cell_volume 3040.982079
_symmetry_space_group_name_H-M "C 2/C"
_symmetry_group_IT_number 15
_symmetry_cell_setting 'monoclinic'
loop_
_space_group_symop_operation_xyz
x,y,z
-x,y,1/2-z
-x,-y,-z
x,-y,1/2+z
1/2+x,1/2+y,z
1/2-x,1/2+y,1/2-z
1/2-x,1/2-y,-z
1/2+x,1/2-y,1/2+z
loop_
_atom_site_type_symbol
_atom_site_label
_atom_site_fract_x
_atom_site_fract_y
_atom_site_fract_z
Si Si1 0.471298 0.066489 0.020221
Si Si2 0.001631 0.168914 0.433654
Si Si3 0.861922 0.919438 0.634323
Si Si4 0.050423 0.317184 0.515981
Si Si5 0.694087 0.089446 0.369371
Si Si6 0.185058 0.553523 0.696221
Si Si7 0.127042 0.062981 0.689435
O O1 0.380028 0.080046 0.837804
O O2 0.500000 0.055198 0.250000
O O3 0.510412 0.130229 0.034756
O O4 0.500000 0.000000 0.000000
O O5 0.038045 0.241889 0.553074
O O6 0.060299 0.108972 0.609402
O O7 0.000000 0.170294 0.250000
O O8 0.915711 0.145502 0.293231
O O9 0.768267 0.913653 0.425605
O O10 0.881298 0.936761 0.506994
O O11 0.878708 0.986147 0.768349
O O12 0.138982 0.346825 0.701929
O O13 0.000000 0.320692 0.250000
O O14 0.673021 0.067050 0.492689
O O15 0.788091 0.096024 0.584415
O O16 0.681964 0.027039 0.227085
#
# Coordination Sequence:
#
# PCOD9262540 Si02
#       7
#     8   8   8   8   8   8   8
#     4  12  21  34  54  78 105 141 178 220 268 317
#     4   9  19  37  55  77 107 144 180 213 261 322
#     4   9  18  34  58  82 106 135 173 222 268 314
#     4  11  23  35  52  76 108 147 182 215 260 317
#     4  10  20  33  53  82 108 137 173 222 270 311
#     4  10  19  33  53  81 108 132 175 221 268 311
#     4   9  18  34  59  82 105 135 176 222 267 315
#
# _framework density 18.415102999999998
#
# number of rings (size 3 to 8) (size 9 to 14) (size 15 to 20)
#    0.000    2.000    2.857    0.857    2.000    0.571 
#    0.000    2.143    0.000    0.000    0.000    0.000 
#    0.000    0.000    0.000    0.000    0.000    0.000 
#
# Total GULP energy -155904.927486 kJ/mol
# GULP energy per Si atom -5568.033125 kJ/mol
# Density = 1.837319 g / cm^3
# Si number density = 18.415103 Si / 1000 Ang^3
#
#
#
# Elastic Constant Matrix: (Units=GPa)
#
#
# Indices 1 2 3 4 5 6 
#
# 1 71.0676 23.0178 18.4577 0.0000 21.2880 0.0000
# 2 23.0178 62.4128 21.6403 0.0000 15.1299 0.0000
# 3 18.4577 21.6403 42.5921 0.0000 6.0358 0.0000
# 4 0.0000 0.0000 0.0000 23.5200 0.0000 6.6593
# 5 21.2880 15.1299 6.0358 0.0000 30.3122 0.0000
# 6 0.0000 0.0000 0.0000 6.6593 0.0000 20.9716
#
#
#
# Elastic Compliance Matrix: (Units=1/GPa)
#
#
# Indices 1 2 3 4 5 6 
#
# 1 0.019818 -0.002555 -0.005658 0.000000 -0.011516 0.000000
# 2 -0.002555 0.021845 -0.008954 0.000000 -0.007326 0.000000
# 3 -0.005658 -0.008954 0.030133 0.000000 0.002442 0.000000
# 4 0.000000 0.000000 0.000000 0.046717 0.000000 -0.014835
# 5 -0.011516 -0.007326 0.002442 0.000000 0.044248 0.000000
# 6 0.000000 0.000000 0.000000 -0.014835 0.000000 0.052394
#
#
# Mechanical properties :
#
#
# Convention : Reuss Voigt Hill
#
# Bulk Modulus (GPa) = 26.69324 33.58933 30.14129
# Shear Modulus (GPa) = 19.08565 22.49120 20.78843
#
# Velocity S-wave (km/s) = 3.22283 3.49857 3.36352
# Velocity P-wave (km/s) = 5.32688 5.88215 5.61138
#
# Compressibility (1/GPa) = 0.03746267
#
# Stress axis : x y z
#
# Youngs Moduli (GPa) = 50.45990 45.77658 33.18572
#
# Poissons Ratio (x) = 0.11698 0.18776
# Poissons Ratio (y) = 0.12895 0.29713
# Poissons Ratio (z) = 0.28550 0.40986
#
# Static dielectric constant tensor:
#      x y z
#    x 1.644280 0.000000 0.050250 
#    y 0.000000 1.630830 0.000000 
#    z 0.050250 0.000000 1.711190 
# 
# From -- ./inp_files/49707.got.cif
#   From: 2010.05.17/outbox.cif.g08.bks.cpg/sg15_25_cif.got.tgz:49707.got - 2010.06.03 18:47:42.
