data_PCOD9262744
_publ_section_title
;
Structure prediction by ZEFSAII (Michael W. Deem and Ramdas Pophale) SiO2 
 PCOD9262744
Probable space group: C 2/C
;
_chemical_formula_sum "Si O2"
_cell_formula_units_Z 64
_cell_length_a 20.692048
_cell_length_b 11.197777
_cell_length_c 14.511525
_cell_angle_alpha 90.000000
_cell_angle_beta 105.125510
_cell_angle_gamma 90.000000
_cell_volume 3245.907157
_symmetry_space_group_name_H-M "C 2/C"
_symmetry_group_IT_number 15
_symmetry_cell_setting 'monoclinic'
loop_
_space_group_symop_operation_xyz
x,y,z
-x,y,1/2-z
-x,-y,-z
x,-y,1/2+z
1/2+x,1/2+y,z
1/2-x,1/2+y,1/2-z
1/2-x,1/2-y,-z
1/2+x,1/2-y,1/2+z
loop_
_atom_site_type_symbol
_atom_site_label
_atom_site_fract_x
_atom_site_fract_y
_atom_site_fract_z
Si Si1 0.344047 0.644166 0.916703
Si Si2 0.191327 0.552825 0.862024
Si Si3 0.341217 0.206076 0.804413
Si Si4 0.418959 0.438979 0.827583
Si Si5 0.689855 0.909068 0.032953
Si Si6 0.577265 0.550470 0.390710
Si Si7 0.338692 0.666484 0.586278
Si Si8 0.810823 0.694276 0.249796
O O1 0.267628 0.598807 0.899626
O O2 0.381227 0.546424 0.865427
O O3 0.339306 0.769861 0.860169
O O4 0.382709 0.640601 0.028036
O O5 0.149447 0.653298 0.793852
O O6 0.167262 0.508145 0.952354
O O7 0.190662 0.437175 0.794150
O O8 0.390398 0.311734 0.847848
O O9 0.266108 0.260378 0.780572
O O10 0.341520 0.098898 0.878380
O O11 0.406924 0.441182 0.712389
O O12 0.498069 0.443290 0.873680
O O13 0.674760 0.778603 0.984205
O O14 0.770703 0.911654 0.067979
O O15 0.603572 0.418813 0.427091
O O16 0.350150 0.723941 0.690423
#
# Coordination Sequence:
#
# PCOD9262744 Si02
#       8
#     8   8   8   8   8   8   8   8
#     4  11  19  34  55  84 117 143 191 230 289 346
#     4  10  19  33  55  84 113 146 183 234 294 339
#     4  10  20  34  54  81 116 151 181 231 295 353
#     4  11  23  38  52  83 116 153 194 233 292 335
#     4   9  17  30  54  82 111 150 184 227 286 350
#     4  11  22  35  56  81 113 158 185 241 281 343
#     4   9  15  30  52  78 111 144 187 221 279 343
#     4   9  18  32  54  80 113 144 179 238 282 341
#
# _framework density 19.717137999999998
#
# number of rings (size 3 to 8) (size 9 to 14) (size 15 to 20)
#    0.000    2.000    3.750    1.875    0.000    0.000 
#    2.250    1.250    0.000    0.750   13.000    0.000 
#    0.000    0.000    0.000    0.000    0.000    0.000 
#
# Total GULP energy -178526.344418 kJ/mol
# GULP energy per Si atom -5578.948263 kJ/mol
# Density = 1.967226 g / cm^3
# Si number density = 19.717138 Si / 1000 Ang^3
#
#
#
# Elastic Constant Matrix: (Units=GPa)
#
#
# Indices 1 2 3 4 5 6 
#
# 1 48.6463 8.9410 23.3209 0.0000 3.8105 0.0000
# 2 8.9410 29.3133 10.8140 0.0000 8.7709 0.0000
# 3 23.3209 10.8140 96.7147 0.0000 6.3871 0.0000
# 4 0.0000 0.0000 0.0000 29.1309 0.0000 -3.9713
# 5 3.8105 8.7709 6.3871 0.0000 21.2447 0.0000
# 6 0.0000 0.0000 0.0000 -3.9713 0.0000 20.0192
#
#
#
# Elastic Compliance Matrix: (Units=1/GPa)
#
#
# Indices 1 2 3 4 5 6 
#
# 1 0.024047 -0.005250 -0.005173 0.000000 -0.000591 0.000000
# 2 -0.005250 0.041167 -0.002323 0.000000 -0.015356 0.000000
# 3 -0.005173 -0.002323 0.011960 0.000000 -0.001709 0.000000
# 4 0.000000 0.000000 0.000000 0.035282 0.000000 0.006999
# 5 -0.000591 -0.015356 -0.001709 0.000000 0.054030 0.000000
# 6 0.000000 0.000000 0.000000 0.006999 0.000000 0.051341
#
#
# Mechanical properties :
#
#
# Convention : Reuss Voigt Hill
#
# Bulk Modulus (GPa) = 19.34866 28.98069 24.16468
# Shear Modulus (GPa) = 19.19054 22.85218 21.02136
#
# Velocity S-wave (km/s) = 3.12315 3.40810 3.26873
# Velocity P-wave (km/s) = 4.77910 5.49700 5.15057
#
# Compressibility (1/GPa) = 0.05168317
#
# Stress axis : x y z
#
# Youngs Moduli (GPa) = 41.58448 24.29126 83.61519
#
# Poissons Ratio (x) = 0.12753 0.43251
# Poissons Ratio (y) = 0.21831 0.19424
# Poissons Ratio (z) = 0.21510 0.05643
#
# Static dielectric constant tensor:
#      x y z
#    x 1.645570 0.000000 -0.031620 
#    y 0.000000 1.698110 0.000000 
#    z -0.031620 0.000000 1.768740 
# 
# From -- ./inp_files/167672.got.cif
#   From: 2010.05.17/outbox.cif.g08.bks.cpg/sg15_84_cif.got.tgz:167672.got - 2010.06.03 18:47:42.
