data_PCOD9262371
_publ_section_title
;
Structure prediction by ZEFSAII (Michael W. Deem and Ramdas Pophale) SiO2 
 PCOD9262371
Probable space group: C 2/C
;
_chemical_formula_sum "Si O2"
_cell_formula_units_Z 64
_cell_length_a 19.604610
_cell_length_b 25.885018
_cell_length_c 9.440701
_cell_angle_alpha 90.000000
_cell_angle_beta 128.399992
_cell_angle_gamma 90.000000
_cell_volume 3754.543935
_symmetry_space_group_name_H-M "C 2/C"
_symmetry_group_IT_number 15
_symmetry_cell_setting 'monoclinic'
loop_
_space_group_symop_operation_xyz
x,y,z
-x,y,1/2-z
-x,-y,-z
x,-y,1/2+z
1/2+x,1/2+y,z
1/2-x,1/2+y,1/2-z
1/2-x,1/2-y,-z
1/2+x,1/2-y,1/2+z
loop_
_atom_site_type_symbol
_atom_site_label
_atom_site_fract_x
_atom_site_fract_y
_atom_site_fract_z
Si Si1 0.128224 0.201505 0.798837
Si Si2 0.357906 0.450048 0.035844
Si Si3 0.525583 0.371211 0.505079
Si Si4 0.801887 0.180987 0.161237
Si Si5 0.578502 0.461439 0.065377
Si Si6 0.600532 0.182516 0.373156
Si Si7 0.233746 0.365053 0.839688
Si Si8 0.234122 0.295709 0.276194
O O1 0.108832 0.256984 0.840956
O O2 0.187832 0.210574 0.736809
O O3 0.040851 0.169705 0.650510
O O4 0.189373 0.168614 0.983777
O O5 0.426975 0.411202 0.044733
O O6 0.368569 0.506956 0.983379
O O7 0.265480 0.423661 0.889761
O O8 0.373627 0.451801 0.223808
O O9 0.603368 0.342558 0.685356
O O10 0.465929 0.407171 0.528651
O O11 0.734965 0.152413 0.179598
O O12 0.798960 0.240640 0.207195
O O13 0.772419 0.175696 0.961982
O O14 0.500000 0.500000 0.000000
O O15 0.500000 0.169193 0.250000
O O16 0.648610 0.149346 0.315372
O O17 0.655708 0.177582 0.589241
#
# Coordination Sequence:
#
# PCOD9262371 Si02
#       8
#     8   8   8   8   8   8   8   8
#     4  11  19  32  54  75 105 144 196 211 253 310
#     4  10  21  35  53  75 111 145 174 222 261 319
#     4  10  20  31  52  77 107 153 177 213 259 314
#     4  10  19  33  49  69 111 143 178 218 270 310
#     4  10  19  34  49  77 107 139 181 214 259 311
#     4  11  21  34  55  78  99 139 192 232 257 315
#     4  10  19  36  53  74 103 148 178 220 270 315
#     4  10  20  34  46  73 108 142 182 229 256 307
#
# _framework density 17.046011
#
# number of rings (size 3 to 8) (size 9 to 14) (size 15 to 20)
#    0.000    1.750    3.750    3.000    3.500    0.500 
#   11.250    0.625    0.000    0.000    0.000    0.875 
#    0.000    0.000    0.000    0.375    0.000    0.000 
#
# Total GULP energy -178519.775471 kJ/mol
# GULP energy per Si atom -5578.742983 kJ/mol
# Density = 1.700721 g / cm^3
# Si number density = 17.046011 Si / 1000 Ang^3
#
#
#
# Elastic Constant Matrix: (Units=GPa)
#
#
# Indices 1 2 3 4 5 6 
#
# 1 85.3818 33.0628 46.6640 0.0000 10.7858 0.0000
# 2 33.0628 56.4195 19.0002 0.0000 3.8489 0.0000
# 3 46.6640 19.0002 101.5211 0.0000 -3.1840 0.0000
# 4 0.0000 0.0000 0.0000 22.0279 0.0000 0.0794
# 5 10.7858 3.8489 -3.1840 0.0000 24.8114 0.0000
# 6 0.0000 0.0000 0.0000 0.0794 0.0000 17.6713
#
#
#
# Elastic Compliance Matrix: (Units=1/GPa)
#
#
# Indices 1 2 3 4 5 6 
#
# 1 0.020637 -0.008770 -0.008116 0.000000 -0.008652 0.000000
# 2 -0.008770 0.022934 -0.000254 0.000000 0.000222 0.000000
# 3 -0.008116 -0.000254 0.013795 0.000000 0.005338 0.000000
# 4 0.000000 0.000000 0.000000 0.045398 0.000000 -0.000204
# 5 -0.008652 0.000222 0.005338 0.000000 0.044716 0.000000
# 6 0.000000 0.000000 0.000000 -0.000204 0.000000 0.056590
#
#
# Mechanical properties :
#
#
# Convention : Reuss Voigt Hill
#
# Bulk Modulus (GPa) = 43.31506 48.97516 46.14511
# Shear Modulus (GPa) = 20.32153 22.54181 21.43167
#
# Velocity S-wave (km/s) = 3.45651 3.64044 3.54967
# Velocity P-wave (km/s) = 6.43395 6.81645 6.62796
#
# Compressibility (1/GPa) = 0.02308666
#
# Stress axis : x y z
#
# Youngs Moduli (GPa) = 48.45769 43.60298 72.48777
#
# Poissons Ratio (x) = 0.38240 0.58828
# Poissons Ratio (y) = 0.42498 0.01842
# Poissons Ratio (z) = 0.39326 0.01108
#
# Static dielectric constant tensor:
#      x y z
#    x 2.282750 0.000000 -0.724970 
#    y 0.000000 1.654680 0.000000 
#    z -0.724970 0.000000 2.315010 
# 
# From -- ./inp_files/59048.got.cif
#   From: 2010.05.17/outbox.cif.g08.bks.cpg/sg15_30_cif.got.tgz:59048.got - 2010.06.03 18:47:42.
