data_PCOD9262555
_publ_section_title
;
Structure prediction by ZEFSAII (Michael W. Deem and Ramdas Pophale) SiO2 
 PCOD9262555
Probable space group: C 2/C
;
_chemical_formula_sum "Si O2"
_cell_formula_units_Z 56
_cell_length_a 13.020797
_cell_length_b 18.670657
_cell_length_c 24.156307
_cell_angle_alpha 90.000000
_cell_angle_beta 31.468628
_cell_angle_gamma 90.000000
_cell_volume 3065.663796
_symmetry_space_group_name_H-M "C 2/C"
_symmetry_group_IT_number 15
_symmetry_cell_setting 'monoclinic'
loop_
_space_group_symop_operation_xyz
x,y,z
-x,y,1/2-z
-x,-y,-z
x,-y,1/2+z
1/2+x,1/2+y,z
1/2-x,1/2+y,1/2-z
1/2-x,1/2-y,-z
1/2+x,1/2-y,1/2+z
loop_
_atom_site_type_symbol
_atom_site_label
_atom_site_fract_x
_atom_site_fract_y
_atom_site_fract_z
Si Si1 0.066389 0.942602 0.157720
Si Si2 0.505536 0.887913 0.574847
Si Si3 0.316412 0.673478 0.718932
Si Si4 0.412390 0.788413 0.461624
Si Si5 0.541111 0.812207 0.666334
Si Si6 0.813949 0.095976 0.362600
Si Si7 0.512199 0.274430 0.028066
O O1 0.000000 0.918634 0.250000
O O2 0.907995 0.903154 0.192367
O O3 0.089746 0.028016 0.151371
O O4 0.281891 0.917804 0.039069
O O5 0.474006 0.874829 0.654806
O O6 0.334685 0.927215 0.618594
O O7 0.505390 0.807226 0.551721
O O8 0.443879 0.736694 0.691175
O O9 0.346415 0.686071 0.639883
O O10 0.097386 0.684371 0.841499
O O11 0.250000 0.750000 0.500000
O O12 0.309069 0.854863 0.539907
O O13 0.485336 0.732390 0.474984
O O14 0.500000 0.823916 0.750000
O O15 0.776333 0.805286 0.552627
O O16 0.000000 0.136857 0.250000
#
# Coordination Sequence:
#
# PCOD9262555 Si02
#       7
#     8   8   8   8   8   8   8
#     4  11  19  34  59  85 117 153 190 243 304 362
#     4  10  19  33  53  84 121 148 192 245 297 350
#     4  11  20  34  59  86 120 155 198 242 309 359
#     4  11  25  38  59  85 120 160 202 250 304 368
#     4  11  18  31  56  90 116 149 199 249 298 346
#     4  10  24  37  53  84 122 155 194 242 305 360
#     4  10  19  34  55  87 115 149 195 253 295 351
#
# _framework density 18.266842
#
# number of rings (size 3 to 8) (size 9 to 14) (size 15 to 20)
#    0.000    1.429    4.286    3.429    6.000    1.143 
#    0.000    0.000    0.000    0.857    7.429    0.000 
#    0.000    0.000    0.000    0.000    0.000    0.000 
#
# Total GULP energy -156108.314035 kJ/mol
# GULP energy per Si atom -5575.296930 kJ/mol
# Density = 1.822527 g / cm^3
# Si number density = 18.266842 Si / 1000 Ang^3
#
#
#
# Elastic Constant Matrix: (Units=GPa)
#
#
# Indices 1 2 3 4 5 6 
#
# 1 61.8958 21.2141 27.3141 -0.0002 -6.9365 0.0033
# 2 21.2141 54.9854 27.2066 0.0008 -3.1447 0.0018
# 3 27.3141 27.2066 130.4975 -0.0055 -9.7643 0.0063
# 4 -0.0002 0.0008 -0.0055 18.2072 -0.0049 9.4933
# 5 -6.9365 -3.1447 -9.7643 -0.0049 29.7193 -0.0012
# 6 0.0033 0.0018 0.0063 9.4933 -0.0012 11.7825
#
#
#
# Elastic Compliance Matrix: (Units=1/GPa)
#
#
# Indices 1 2 3 4 5 6 
#
# 1 0.019770 -0.006152 -0.002623 0.000004 0.003101 -0.000006
# 2 -0.006152 0.022210 -0.003357 -0.000004 -0.000189 0.000003
# 3 -0.002623 -0.003357 0.009062 0.000009 0.002010 -0.000011
# 4 0.000004 -0.000004 0.000009 0.094712 0.000016 -0.076310
# 5 0.003101 -0.000189 0.002010 0.000016 0.035012 -0.000011
# 6 -0.000006 0.000003 -0.000011 -0.076310 -0.000011 0.146355
#
#
# Mechanical properties :
#
#
# Convention : Reuss Voigt Hill
#
# Bulk Modulus (GPa) = 37.34417 44.31648 40.83033
# Shear Modulus (GPa) = 13.87683 23.38473 18.63078
#
# Velocity S-wave (km/s) = 2.75921 3.58183 3.19709
# Velocity P-wave (km/s) = 5.53525 6.43578 6.00243
#
# Compressibility (1/GPa) = 0.02677794
#
# Stress axis : x y z
#
# Youngs Moduli (GPa) = 50.58175 45.02387 110.34698
#
# Poissons Ratio (x) = 0.27699 0.28948
# Poissons Ratio (y) = 0.31119 0.37043
# Poissons Ratio (z) = 0.13269 0.15114
#
# Static dielectric constant tensor:
#      x y z
#    x 1.686660 0.000000 0.012500 
#    y 0.000000 1.625020 0.000000 
#    z 0.012500 0.000000 1.659680 
# 
# From -- ./inp_files/270928.got.cif
#   From: 2010.05.17/outbox.cif.g08.bks.cpg/sg15_136_cif.got.tgz:270928.got - 2010.06.03 18:47:42.
