data_PCOD9262739
_publ_section_title
;
Structure prediction by ZEFSAII (Michael W. Deem and Ramdas Pophale) SiO2 
 PCOD9262739
Probable space group: C 2/C
;
_chemical_formula_sum "Si O2"
_cell_formula_units_Z 56
_cell_length_a 11.954629
_cell_length_b 7.138634
_cell_length_c 24.730072
_cell_angle_alpha 90.000000
_cell_angle_beta 112.080369
_cell_angle_gamma 90.000000
_cell_volume 1955.671179
_symmetry_space_group_name_H-M "C 2/C"
_symmetry_group_IT_number 15
_symmetry_cell_setting 'monoclinic'
loop_
_space_group_symop_operation_xyz
x,y,z
-x,y,1/2-z
-x,-y,-z
x,-y,1/2+z
1/2+x,1/2+y,z
1/2-x,1/2+y,1/2-z
1/2-x,1/2-y,-z
1/2+x,1/2-y,1/2+z
loop_
_atom_site_type_symbol
_atom_site_label
_atom_site_fract_x
_atom_site_fract_y
_atom_site_fract_z
Si Si1 0.365227 0.519856 0.534483
Si Si2 0.067281 0.620073 0.914256
Si Si3 0.960839 0.868121 0.335910
Si Si4 0.625890 0.151550 0.542962
Si Si5 0.687180 0.662283 0.831161
Si Si6 0.790766 0.715225 0.657473
Si Si7 0.616748 0.773170 0.213771
O O1 0.398016 0.303805 0.544644
O O2 0.443691 0.596721 0.598544
O O3 0.403022 0.655879 0.493188
O O4 0.220795 0.545802 0.519862
O O5 0.183913 0.611590 0.894881
O O6 0.977438 0.530619 0.943899
O O7 0.970879 0.637258 0.846910
O O8 0.844549 0.796951 0.345703
O O9 0.921403 0.055840 0.297206
O O10 0.053607 0.757525 0.314597
O O11 0.713603 0.224393 0.607213
O O12 0.682911 0.437583 0.840783
O O13 0.748072 0.709992 0.785646
O O14 0.872387 0.654136 0.723401
#
# Coordination Sequence:
#
# PCOD9262739 Si02
#       7
#     8   8   8   8   8   8   8
#     4   9  17  36  59  82 111 151 190 232 285 341
#     4  10  19  33  55  84 111 147 190 237 279 339
#     4  10  22  40  59  86 116 149 196 237 282 341
#     4   9  17  33  62  81 109 153 191 226 290 340
#     4  10  21  41  59  83 117 152 192 240 280 340
#     4  12  21  36  59  84 117 150 191 238 285 337
#     4  10  21  37  60  80 112 159 191 229 290 337
#
# _framework density 28.63467
#
# number of rings (size 3 to 8) (size 9 to 14) (size 15 to 20)
#    0.000    2.000    4.286    1.714    0.000    1.714 
#    5.143    1.429    0.000    0.000    0.000    0.000 
#    0.000    0.000    0.000    0.000    0.000    0.000 
#
# Total GULP energy -156380.948732 kJ/mol
# GULP energy per Si atom -5585.033883 kJ/mol
# Density = 2.856950 g / cm^3
# Si number density = 28.634670 Si / 1000 Ang^3
#
#
#
# Elastic Constant Matrix: (Units=GPa)
#
#
# Indices 1 2 3 4 5 6 
#
# 1 207.1894 22.0993 -7.6407 0.0000 -21.6350 0.0000
# 2 22.0993 65.9805 15.2413 0.0000 -15.4292 0.0000
# 3 -7.6407 15.2413 60.1920 0.0000 -39.3746 0.0000
# 4 0.0000 0.0000 0.0000 -0.2992 0.0000 -0.2569
# 5 -21.6350 -15.4292 -39.3746 0.0000 54.9997 0.0000
# 6 0.0000 0.0000 0.0000 -0.2569 0.0000 19.8271
#
#
#
# Elastic Compliance Matrix: (Units=1/GPa)
#
#
# Indices 1 2 3 4 5 6 
#
# 1 0.005681 -0.001772 0.004338 0.000000 0.004843 0.000000
# 2 -0.001772 0.016919 -0.003499 0.000000 0.001544 0.000000
# 3 0.004338 -0.003499 0.034841 0.000000 0.025668 0.000000
# 4 0.000000 0.000000 0.000000 -3.305316 0.000000 -0.042819
# 5 0.004843 0.001544 0.025668 0.000000 0.038896 0.000000
# 6 0.000000 0.000000 0.000000 -0.042819 0.000000 0.049881
#
#
# Mechanical properties :
#
#
# Convention : Reuss Voigt Hill
#
# Bulk Modulus (GPa) = 17.99377 43.64016 30.81697
# Shear Modulus (GPa) = -1.59301 35.14965 16.77832
#
# Velocity S-wave (km/s) = -0.74668 3.50740 2.42325
# Velocity P-wave (km/s) = 2.35673 5.62813 4.31451
#
# Compressibility (1/GPa) = 0.05557480
#
# Stress axis : x y z
#
# Youngs Moduli (GPa) = 176.01627 59.10525 28.70217
#
# Poissons Ratio (x) = 0.10476 -0.12452
# Poissons Ratio (y) = 0.31197 0.10043
# Poissons Ratio (z) = -0.76361 0.20680
#
# Static dielectric constant tensor:
#      x y z
#    x 2.534050 0.000000 -0.096240 
#    y 0.000000 2.245810 0.000000 
#    z -0.096240 0.000000 2.280970 
# 
# From -- ./inp_files/291624.got.cif
#   From: 2010.05.17/outbox.cif.g08.bks.cpg/sg15_146_cif.got.tgz:291624.got - 2010.06.03 18:47:42.
