data_PCOD9262712
_publ_section_title
;
Structure prediction by ZEFSAII (Michael W. Deem and Ramdas Pophale) SiO2 
 PCOD9262712
Probable space group: C 2/C
;
_chemical_formula_sum "Si O2"
_cell_formula_units_Z 56
_cell_length_a 18.998986
_cell_length_b 16.581010
_cell_length_c 12.289749
_cell_angle_alpha 90.000000
_cell_angle_beta 52.176628
_cell_angle_gamma 90.000000
_cell_volume 3058.153228
_symmetry_space_group_name_H-M "C 2/C"
_symmetry_group_IT_number 15
_symmetry_cell_setting 'monoclinic'
loop_
_space_group_symop_operation_xyz
x,y,z
-x,y,1/2-z
-x,-y,-z
x,-y,1/2+z
1/2+x,1/2+y,z
1/2-x,1/2+y,1/2-z
1/2-x,1/2-y,-z
1/2+x,1/2-y,1/2+z
loop_
_atom_site_type_symbol
_atom_site_label
_atom_site_fract_x
_atom_site_fract_y
_atom_site_fract_z
Si Si1 0.528497 0.789968 0.102477
Si Si2 0.851085 0.154869 0.628009
Si Si3 0.326497 0.401520 0.737031
Si Si4 0.219063 0.999108 0.426427
Si Si5 0.410990 0.546188 0.764896
Si Si6 0.160994 0.282433 0.277904
Si Si7 0.175525 0.383400 0.059895
O O1 0.500000 0.756135 0.250000
O O2 0.440087 0.814872 0.120011
O O3 0.586461 0.868061 0.078045
O O4 0.590894 0.725863 0.981054
O O5 0.837198 0.080556 0.556813
O O6 0.897102 0.116561 0.690344
O O7 0.749947 0.184916 0.752172
O O8 0.280575 0.444521 0.678473
O O9 0.403653 0.461331 0.706107
O O10 0.353831 0.311293 0.684276
O O11 0.255882 0.390780 0.900222
O O12 0.313033 0.961728 0.375143
O O13 0.169925 0.042861 0.572125
O O14 0.500000 0.552877 0.750000
O O15 0.184823 0.306202 0.130344
#
# Coordination Sequence:
#
# PCOD9262712 Si02
#       7
#     8   8   8   8   8   8   8
#     4  10  21  30  59  86 103 137 183 233 266 307
#     4  10  21  38  53  81 114 143 178 228 268 319
#     4  10  19  33  55  81 108 145 172 225 277 315
#     4   9  21  33  54  77 112 145 176 215 279 329
#     4  10  23  34  51  79 117 143 176 217 275 338
#     4  10  20  32  58  84 108 135 186 223 271 314
#     4   9  18  35  53  80 111 137 180 225 264 314
#
# _framework density 18.311705
#
# number of rings (size 3 to 8) (size 9 to 14) (size 15 to 20)
#    0.000    2.286    1.429    0.429   14.000    1.143 
#    0.000    0.714    0.000   32.571    0.000    0.000 
#    0.000    0.000    0.000    0.000    0.000    0.000 
#
# Total GULP energy -155870.170879 kJ/mol
# GULP energy per Si atom -5566.791817 kJ/mol
# Density = 1.827003 g / cm^3
# Si number density = 18.311705 Si / 1000 Ang^3
#
#
#
# Elastic Constant Matrix: (Units=GPa)
#
#
# Indices 1 2 3 4 5 6 
#
# 1 139.0018 59.8338 33.6179 0.0000 -8.9350 0.0000
# 2 59.8338 54.1932 29.4724 0.0000 2.9891 0.0000
# 3 33.6179 29.4724 33.6780 0.0000 5.2048 0.0000
# 4 0.0000 0.0000 0.0000 -8.9256 0.0000 15.8309
# 5 -8.9350 2.9891 5.2048 0.0000 23.6669 0.0000
# 6 0.0000 0.0000 0.0000 15.8309 0.0000 7.1009
#
#
#
# Elastic Compliance Matrix: (Units=1/GPa)
#
#
# Indices 1 2 3 4 5 6 
#
# 1 0.015137 -0.015753 -0.002603 0.000000 0.008277 0.000000
# 2 -0.015753 0.051738 -0.028595 0.000000 -0.006193 0.000000
# 3 -0.002603 -0.028595 0.058911 0.000000 -0.010327 0.000000
# 4 0.000000 0.000000 0.000000 -0.022615 0.000000 0.050417
# 5 0.008277 -0.006193 -0.010327 0.000000 0.048431 0.000000
# 6 0.000000 0.000000 0.000000 0.050417 0.000000 0.028426
#
#
# Mechanical properties :
#
#
# Convention : Reuss Voigt Hill
#
# Bulk Modulus (GPa) = 31.36367 52.52459 41.94413
# Shear Modulus (GPa) = 17.57113 11.29835 14.43474
#
# Velocity S-wave (km/s) = 3.10103 2.48665 2.81068
# Velocity P-wave (km/s) = 5.47601 6.08198 5.78693
#
# Compressibility (1/GPa) = 0.03188402
#
# Stress axis : x y z
#
# Youngs Moduli (GPa) = 66.06488 19.32823 16.97473
#
# Poissons Ratio (x) = 0.30448 0.04418
# Poissons Ratio (y) = 1.04073 0.48539
# Poissons Ratio (z) = 0.17196 0.55269
#
# Static dielectric constant tensor:
#      x y z
#    x 1.692210 0.000000 -0.015180 
#    y 0.000000 1.645360 0.000000 
#    z -0.015180 0.000000 1.637360 
# 
# From -- ./inp_files/105644.got.cif
#   From: 2010.05.17/outbox.cif.g08.bks.cpg/sg15_53_cif.got.tgz:105644.got - 2010.06.03 18:47:42.
