data_PCOD9262684
_publ_section_title
;
Structure prediction by ZEFSAII (Michael W. Deem and Ramdas Pophale) SiO2 
 PCOD9262684
Probable space group: C 2/C
;
_chemical_formula_sum "Si O2"
_cell_formula_units_Z 64
_cell_length_a 7.138174
_cell_length_b 23.865532
_cell_length_c 20.401606
_cell_angle_alpha 90.000000
_cell_angle_beta 52.900396
_cell_angle_gamma 90.000000
_cell_volume 2772.051348
_symmetry_space_group_name_H-M "C 2/C"
_symmetry_group_IT_number 15
_symmetry_cell_setting 'monoclinic'
loop_
_space_group_symop_operation_xyz
x,y,z
-x,y,1/2-z
-x,-y,-z
x,-y,1/2+z
1/2+x,1/2+y,z
1/2-x,1/2+y,1/2-z
1/2-x,1/2-y,-z
1/2+x,1/2-y,1/2+z
loop_
_atom_site_type_symbol
_atom_site_label
_atom_site_fract_x
_atom_site_fract_y
_atom_site_fract_z
Si Si1 0.748353 0.042095 0.266132
Si Si2 0.125071 0.602781 0.068337
Si Si3 0.721495 0.298614 0.254330
Si Si4 0.675915 0.426809 0.275222
Si Si5 0.612873 0.487456 0.048267
Si Si6 0.994853 0.103422 0.100526
Si Si7 0.462487 0.270855 0.906273
Si Si8 0.901274 0.725657 0.409741
O O1 0.564567 0.075311 0.346042
O O2 0.798020 0.077561 0.190255
O O3 0.000000 0.040238 0.250000
O O4 0.654875 0.978306 0.279822
O O5 0.371530 0.610209 0.055841
O O6 0.036551 0.664887 0.076046
O O7 0.181813 0.557493 0.001637
O O8 0.500000 0.299772 0.250000
O O9 0.760324 0.363384 0.266993
O O10 0.618516 0.261030 0.335692
O O11 0.949044 0.271072 0.170453
O O12 0.500000 0.422688 0.250000
O O13 0.555147 0.455525 0.364305
O O14 0.669720 0.550346 0.060583
O O15 0.500000 0.500000 0.000000
O O16 0.082174 0.164218 0.104052
O O17 0.709458 0.276719 0.892702
O O18 0.250000 0.250000 0.000000
O O19 0.750000 0.750000 0.500000
#
# Coordination Sequence:
#
# PCOD9262684 Si02
#       8
#     8   8   8   8   8   8   8   8
#     4  10  20  33  51  78 105 134 174 225 275 326
#     4  10  19  33  55  78 104 142 184 223 275 338
#     4   9  18  34  55  77 107 150 188 225 282 347
#     4   9  18  34  52  76 111 142 178 230 285 340
#     4   9  18  33  55  79 106 143 187 235 279 337
#     4   9  19  36  53  74 108 144 181 224 275 339
#     4  10  21  36  55  80 110 145 186 233 284 333
#     4  10  20  35  57  80 105 142 188 231 276 340
#
# _framework density 23.087596000000001
#
# number of rings (size 3 to 8) (size 9 to 14) (size 15 to 20)
#    0.000    2.500    0.000    1.875    0.000    4.000 
#    0.000    6.250    0.000    4.500    0.000    0.000 
#    0.000    0.000    0.000    0.000    0.000    0.000 
#
# Total GULP energy -178246.091020 kJ/mol
# GULP energy per Si atom -5570.190344 kJ/mol
# Density = 2.303505 g / cm^3
# Si number density = 23.087596 Si / 1000 Ang^3
#
#
#
# Elastic Constant Matrix: (Units=GPa)
#
#
# Indices 1 2 3 4 5 6 
#
# 1 99.9307 11.0983 1.6346 0.0000 -7.1506 0.0000
# 2 11.0983 290.8559 101.9460 0.0000 -21.7696 0.0000
# 3 1.6346 101.9460 122.6443 0.0000 -11.2292 0.0000
# 4 0.0000 0.0000 0.0000 14.4236 0.0000 -36.6233
# 5 -7.1506 -21.7696 -11.2292 0.0000 21.9422 0.0000
# 6 0.0000 0.0000 0.0000 -36.6233 0.0000 -74.2475
#
#
#
# Elastic Compliance Matrix: (Units=1/GPa)
#
#
# Indices 1 2 3 4 5 6 
#
# 1 0.010266 -0.000288 0.000402 0.000000 0.003265 0.000000
# 2 -0.000288 0.005040 -0.003920 0.000000 0.002900 0.000000
# 3 0.000402 -0.003920 0.011607 0.000000 0.002181 0.000000
# 4 0.000000 0.000000 0.000000 0.030780 0.000000 -0.015183
# 5 0.003265 0.002900 0.002181 0.000000 0.050632 0.000000
# 6 0.000000 0.000000 0.000000 -0.015183 0.000000 -0.005979
#
#
# Mechanical properties :
#
#
# Convention : Reuss Voigt Hill
#
# Bulk Modulus (GPa) = 51.81483 82.53209 67.17346
# Shear Modulus (GPa) = 42.95805 19.00713 30.98259
#
# Velocity S-wave (km/s) = 4.31821 2.87237 3.66725
# Velocity P-wave (km/s) = 6.88143 6.84293 6.86220
#
# Compressibility (1/GPa) = 0.01929949
#
# Stress axis : x y z
#
# Youngs Moduli (GPa) = 97.40889 198.40210 86.15745
#
# Poissons Ratio (x) = 0.05716 -0.03460
# Poissons Ratio (y) = 0.02806 0.33776
# Poissons Ratio (z) = -0.03912 0.77778
#
# Static dielectric constant tensor:
#      x y z
#    x 2.366810 0.000000 0.310600 
#    y 0.000000 1.898370 0.000000 
#    z 0.310600 0.000000 2.028970 
# 
# From -- ./inp_files/234418.got.cif
#   From: 2010.05.17/outbox.cif.g08.bks.cpg/sg15_118_cif.got.tgz:234418.got - 2010.06.03 18:47:42.
