data_PCOD9262632
_publ_section_title
;
Structure prediction by ZEFSAII (Michael W. Deem and Ramdas Pophale) SiO2 
 PCOD9262632
Probable space group: C 2/C
;
_chemical_formula_sum "Si O2"
_cell_formula_units_Z 60
_cell_length_a 23.675152
_cell_length_b 8.413086
_cell_length_c 27.417239
_cell_angle_alpha 90.000000
_cell_angle_beta 28.349621
_cell_angle_gamma 90.000000
_cell_volume 2593.156838
_symmetry_space_group_name_H-M "C 2/C"
_symmetry_group_IT_number 15
_symmetry_cell_setting 'monoclinic'
loop_
_space_group_symop_operation_xyz
x,y,z
-x,y,1/2-z
-x,-y,-z
x,-y,1/2+z
1/2+x,1/2+y,z
1/2-x,1/2+y,1/2-z
1/2-x,1/2-y,-z
1/2+x,1/2-y,1/2+z
loop_
_atom_site_type_symbol
_atom_site_label
_atom_site_fract_x
_atom_site_fract_y
_atom_site_fract_z
Si Si1 0.324347 0.538865 0.864662
Si Si2 0.876304 0.036964 0.676955
Si Si3 0.000000 0.767829 0.750000
Si Si4 0.995393 0.711796 0.588969
Si Si5 0.819812 0.595142 0.107102
Si Si6 0.120722 0.452269 0.081159
Si Si7 0.592839 0.200360 0.262809
Si Si8 0.257568 0.079787 0.815583
O O1 0.416346 0.394441 0.785332
O O2 0.221425 0.530127 0.901885
O O3 0.388888 0.700394 0.800669
O O4 0.254784 0.512197 0.968294
O O5 0.973530 0.898617 0.604212
O O6 0.752103 0.957781 0.790871
O O7 0.907384 0.179461 0.690370
O O8 0.849947 0.075830 0.641060
O O9 0.087199 0.652040 0.653659
O O10 0.872915 0.630079 0.697032
O O11 0.041970 0.631030 0.503977
O O12 0.084985 0.665776 0.564124
O O13 0.768525 0.769210 0.131240
O O14 0.027359 0.597594 0.148787
O O15 0.703331 0.079665 0.187328
#
# Coordination Sequence:
#
# PCOD9262632 Si02
#       8
#     8   8   4   8   8   8   8   8
#     4  10  22  40  62  86 113 150 191 236 292 347
#     4  10  19  33  54  81 113 150 191 233 275 325
#     4  12  22  42  66  86 112 146 196 240 284 352
#     4   9  19  36  54  74 106 149 189 225 278 341
#     4   9  19  36  54  74 106 149 189 225 278 341
#     4  10  22  40  62  86 113 150 191 236 292 347
#     4  10  20  37  57  84 122 152 185 237 290 334
#     4  10  19  33  54  81 113 150 191 233 275 325
#
# _framework density 23.137823000000001
#
# number of rings (size 3 to 8) (size 9 to 14) (size 15 to 20)
#    0.000    2.133    0.000    5.200    0.000    2.667 
#    0.000    9.333    0.000    0.000    0.000    0.000 
#    0.000    0.000    0.000    0.000    0.000    0.000 
#
# Total GULP energy -167292.628269 kJ/mol
# GULP energy per Si atom -5576.420942 kJ/mol
# Density = 2.308516 g / cm^3
# Si number density = 23.137823 Si / 1000 Ang^3
#
#
#
# Elastic Constant Matrix: (Units=GPa)
#
#
# Indices 1 2 3 4 5 6 
#
# 1 29.4236 19.9648 -5.5659 0.0003 2.7204 -0.0003
# 2 19.9648 121.3274 24.3983 0.0011 5.9644 -0.0021
# 3 -5.5659 24.3983 87.2213 -0.0011 10.2685 0.0006
# 4 0.0003 0.0011 -0.0011 12.3373 -0.0004 10.8655
# 5 2.7204 5.9644 10.2685 -0.0004 16.7426 0.0007
# 6 -0.0003 -0.0021 0.0006 10.8655 0.0007 25.2137
#
#
#
# Elastic Compliance Matrix: (Units=1/GPa)
#
#
# Indices 1 2 3 4 5 6 
#
# 1 0.040787 -0.007467 0.005560 0.000000 -0.007377 0.000000
# 2 -0.007467 0.010148 -0.003268 -0.000003 -0.000397 0.000002
# 3 0.005560 -0.003268 0.013692 0.000002 -0.008137 -0.000001
# 4 0.000000 -0.000003 0.000002 0.130635 0.000005 -0.056295
# 5 -0.007377 -0.000397 -0.008137 0.000005 0.066059 -0.000004
# 6 0.000000 0.000002 -0.000001 -0.056295 -0.000004 0.063921
#
#
# Mechanical properties :
#
#
# Convention : Reuss Voigt Hill
#
# Bulk Modulus (GPa) = 18.42445 35.06296 26.74370
# Shear Modulus (GPa) = 14.13694 24.13703 19.13699
#
# Velocity S-wave (km/s) = 2.47450 3.23334 2.87903
# Velocity P-wave (km/s) = 4.01801 5.39687 4.75766
#
# Compressibility (1/GPa) = 0.05427572
#
# Stress axis : x y z
#
# Youngs Moduli (GPa) = 24.51780 98.54504 73.03506
#
# Poissons Ratio (x) = 0.73583 -0.40607
# Poissons Ratio (y) = 0.18307 0.23870
# Poissons Ratio (z) = -0.13632 0.32208
#
# Static dielectric constant tensor:
#      x y z
#    x 1.903150 0.000000 0.019290 
#    y 0.000000 1.873550 0.000000 
#    z 0.019290 0.000000 1.988920 
# 
# From -- ./inp_files/319432.got.cif
#   From: 2010.05.17/outbox.cif.g08.bks.cpg/sg15_160_cif.got.tgz:319432.got - 2010.06.03 18:47:42.
