data_PCOD9262713
_publ_section_title
;
Structure prediction by ZEFSAII (Michael W. Deem and Ramdas Pophale) SiO2 
 PCOD9262713
Probable space group: C 2/C
;
_chemical_formula_sum "Si O2"
_cell_formula_units_Z 48
_cell_length_a 10.045652
_cell_length_b 19.358718
_cell_length_c 23.300637
_cell_angle_alpha 90.000000
_cell_angle_beta 152.029084
_cell_angle_gamma 90.000000
_cell_volume 2125.283851
_symmetry_space_group_name_H-M "C 2/C"
_symmetry_group_IT_number 15
_symmetry_cell_setting 'monoclinic'
loop_
_space_group_symop_operation_xyz
x,y,z
-x,y,1/2-z
-x,-y,-z
x,-y,1/2+z
1/2+x,1/2+y,z
1/2-x,1/2+y,1/2-z
1/2-x,1/2-y,-z
1/2+x,1/2-y,1/2+z
loop_
_atom_site_type_symbol
_atom_site_label
_atom_site_fract_x
_atom_site_fract_y
_atom_site_fract_z
Si Si1 0.714450 0.819726 0.900599
Si Si2 0.935284 0.050697 0.089113
Si Si3 0.549887 0.034021 0.366992
Si Si4 0.818635 0.593816 0.395984
Si Si5 0.728421 0.248927 0.106520
Si Si6 0.608181 0.288660 0.656016
O O1 0.673403 0.901783 0.877453
O O2 0.410645 0.791744 0.804697
O O3 0.797843 0.779101 0.873771
O O4 0.999462 0.803138 0.042554
O O5 0.721536 0.047654 0.062471
O O6 0.241744 0.015591 0.221774
O O7 0.000123 0.132382 0.113759
O O8 0.777400 0.024173 0.971652
O O9 0.493136 0.067263 0.408283
O O10 0.500000 0.598147 0.250000
O O11 0.904642 0.671955 0.443922
O O12 0.000000 0.248884 0.250000
O O13 0.883640 0.258583 0.103445
#
# Coordination Sequence:
#
# PCOD9262713 Si02
#       6
#     8   8   8   8   8   8
#     4  10  20  35  56  81 109 147 184 227 284 337
#     4   9  18  34  54  78 108 149 187 229 274 330
#     4  10  19  33  55  81 109 147 187 229 278 332
#     4   8  16  31  54  79 107 144 185 227 283 331
#     4  10  19  34  57  84 109 140 185 238 278 335
#     4   9  20  37  56  76 108 154 185 216 287 347
#
# _framework density 22.585218999999999
#
# number of rings (size 3 to 8) (size 9 to 14) (size 15 to 20)
#    0.000    2.667    0.000    4.000    0.000    3.333 
#    3.000    0.000   14.667    0.000    0.000    0.000 
#    0.000    0.000    0.000    0.000    0.000    0.000 
#
# Total GULP energy -133625.470322 kJ/mol
# GULP energy per Si atom -5567.727930 kJ/mol
# Density = 2.253381 g / cm^3
# Si number density = 22.585219 Si / 1000 Ang^3
#
#
#
# Elastic Constant Matrix: (Units=GPa)
#
#
# Indices 1 2 3 4 5 6 
#
# 1 58.5481 6.3438 7.9349 -0.0038 6.5362 -0.0011
# 2 6.3438 34.5441 43.9200 0.0029 10.3026 0.0009
# 3 7.9349 43.9200 99.8947 0.0039 15.3676 0.0015
# 4 -0.0038 0.0029 0.0039 33.9120 0.0028 2.7072
# 5 6.5362 10.3026 15.3676 0.0028 42.1241 0.0018
# 6 -0.0011 0.0009 0.0015 2.7072 0.0018 28.8799
#
#
#
# Elastic Compliance Matrix: (Units=1/GPa)
#
#
# Indices 1 2 3 4 5 6 
#
# 1 0.017597 -0.002809 0.000160 0.000002 -0.002102 0.000001
# 2 -0.002809 0.067482 -0.028578 -0.000002 -0.005643 0.000000
# 3 0.000160 -0.028578 0.022769 0.000000 -0.001342 0.000000
# 4 0.000002 -0.000002 0.000000 0.029710 -0.000002 -0.002785
# 5 -0.002102 -0.005643 -0.001342 -0.000002 0.025935 -0.000001
# 6 0.000001 0.000000 0.000000 -0.002785 -0.000001 0.034887
#
#
# Mechanical properties :
#
#
# Convention : Reuss Voigt Hill
#
# Bulk Modulus (GPa) = 22.02863 34.37601 28.20232
# Shear Modulus (GPa) = 18.11822 29.96908 24.04365
#
# Velocity S-wave (km/s) = 2.83541 3.64666 3.26632
# Velocity P-wave (km/s) = 4.52705 5.74321 5.17101
#
# Compressibility (1/GPa) = 0.04539548
#
# Stress axis : x y z
#
# Youngs Moduli (GPa) = 56.82713 14.81879 43.91949
#
# Poissons Ratio (x) = 0.04162 -0.00705
# Poissons Ratio (y) = 0.15961 1.25513
# Poissons Ratio (z) = -0.00912 0.42349
#
# Static dielectric constant tensor:
#      x y z
#    x 2.024910 0.000000 -0.082650 
#    y 0.000000 1.859630 -0.000020 
#    z -0.082650 -0.000020 2.049860 
# 
# From -- ./inp_files/146858.got.cif
#   From: 2010.05.17/outbox.cif.g08.bks.cpg/sg15_74_cif.got.tgz:146858.got - 2010.06.03 18:47:42.
