data_PCOD9262577
_publ_section_title
;
Structure prediction by ZEFSAII (Michael W. Deem and Ramdas Pophale) SiO2 
 PCOD9262577
Probable space group: C 2/C
;
_chemical_formula_sum "Si O2"
_cell_formula_units_Z 40
_cell_length_a 11.580062
_cell_length_b 8.757614
_cell_length_c 24.449397
_cell_angle_alpha 90.000000
_cell_angle_beta 39.193899
_cell_angle_gamma 90.000000
_cell_volume 1566.914655
_symmetry_space_group_name_H-M "C 2/C"
_symmetry_group_IT_number 15
_symmetry_cell_setting 'monoclinic'
loop_
_space_group_symop_operation_xyz
x,y,z
-x,y,1/2-z
-x,-y,-z
x,-y,1/2+z
1/2+x,1/2+y,z
1/2-x,1/2+y,1/2-z
1/2-x,1/2-y,-z
1/2+x,1/2-y,1/2+z
loop_
_atom_site_type_symbol
_atom_site_label
_atom_site_fract_x
_atom_site_fract_y
_atom_site_fract_z
Si Si1 0.618529 0.922184 0.006803
Si Si2 0.099481 0.812304 0.433805
Si Si3 0.789375 0.594609 0.317275
Si Si4 0.375071 0.106077 0.170513
Si Si5 0.202290 0.805206 0.093780
O O1 0.642406 0.749250 0.979153
O O2 0.795318 0.026044 0.932140
O O3 0.500000 0.000000 0.000000
O O4 0.501772 0.966810 0.102501
O O5 0.201535 0.697779 0.353448
O O6 0.884167 0.777822 0.503178
O O7 0.162625 0.980918 0.398101
O O8 0.778027 0.764132 0.348582
O O9 0.000000 0.543727 0.250000
O O10 0.746829 0.574746 0.268933
O O11 0.519016 0.222856 0.144529
#
# Coordination Sequence:
#
# PCOD9262577 Si02
#       5
#     8   8   8   8   8
#     4   8  16  31  52  74  97 128 166 203 240 293
#     4  10  19  33  54  76  99 131 169 208 248 293
#     4  10  21  35  49  74 107 132 161 208 254 293
#     4   9  18  33  54  75 100 131 169 207 244 297
#     4   9  17  34  55  73  98 134 169 200 246 306
#
# _framework density 25.527874000000001
#
# number of rings (size 3 to 8) (size 9 to 14) (size 15 to 20)
#    0.000    3.200    0.000    3.000    0.000    4.800 
#    0.000   11.000    0.000    0.000    0.000    1.400 
#    0.000    0.000    0.000    0.000    0.000    0.000 
#
# Total GULP energy -111509.765797 kJ/mol
# GULP energy per Si atom -5575.488290 kJ/mol
# Density = 2.546977 g / cm^3
# Si number density = 25.527874 Si / 1000 Ang^3
#
#
#
# Elastic Constant Matrix: (Units=GPa)
#
#
# Indices 1 2 3 4 5 6 
#
# 1 25.0720 0.2187 6.8305 0.0000 4.3242 0.0000
# 2 0.2187 98.8208 32.5992 0.0000 6.4440 0.0000
# 3 6.8305 32.5992 107.0826 0.0001 31.5340 0.0000
# 4 0.0000 0.0000 0.0001 31.3115 0.0000 4.2564
# 5 4.3242 6.4440 31.5340 0.0000 57.9633 0.0000
# 6 0.0000 0.0000 0.0000 4.2564 0.0000 29.9048
#
#
#
# Elastic Compliance Matrix: (Units=1/GPa)
#
#
# Indices 1 2 3 4 5 6 
#
# 1 0.040827 0.000788 -0.002288 0.000000 -0.001889 0.000000
# 2 0.000788 0.011290 -0.003692 0.000000 0.000695 0.000000
# 3 -0.002288 -0.003692 0.012428 0.000000 -0.006180 0.000000
# 4 0.000000 0.000000 0.000000 0.032567 0.000000 -0.004635
# 5 -0.001889 0.000695 -0.006180 0.000000 0.020678 0.000000
# 6 0.000000 0.000000 0.000000 -0.004635 0.000000 0.034099
#
#
# Mechanical properties :
#
#
# Convention : Reuss Voigt Hill
#
# Bulk Modulus (GPa) = 18.46324 34.47469 26.46897
# Shear Modulus (GPa) = 27.72711 36.59105 32.15908
#
# Velocity S-wave (km/s) = 3.29926 3.79010 3.55317
# Velocity P-wave (km/s) = 4.66495 5.71727 5.21771
#
# Compressibility (1/GPa) = 0.05416166
#
# Stress axis : x y z
#
# Youngs Moduli (GPa) = 24.49339 88.57263 80.46060
#
# Poissons Ratio (x) = -0.06975 0.18408
# Poissons Ratio (y) = -0.01929 0.29705
# Poissons Ratio (z) = 0.05604 0.32700
#
# Static dielectric constant tensor:
#      x y z
#    x 2.183380 0.000000 0.068520 
#    y 0.000000 2.204460 0.000000 
#    z 0.068520 0.000000 2.166480 
# 
# From -- ./inp_files/294691.got.cif
#   From: 2010.05.17/outbox.cif.g08.bks.cpg/sg15_148_cif.got.tgz:294691.got - 2010.06.03 18:47:42.
