data_PCOD9262077
_publ_section_title
;
Structure prediction by ZEFSAII (Michael W. Deem and Ramdas Pophale) SiO2 
 PCOD9262077
Probable space group: C 2/C
;
_chemical_formula_sum "Si O2"
_cell_formula_units_Z 40
_cell_length_a 5.271293
_cell_length_b 17.870709
_cell_length_c 19.501268
_cell_angle_alpha 90.000000
_cell_angle_beta 76.219433
_cell_angle_gamma 90.000000
_cell_volume 1784.174092
_symmetry_space_group_name_H-M "C 2/C"
_symmetry_group_IT_number 15
_symmetry_cell_setting 'monoclinic'
loop_
_space_group_symop_operation_xyz
x,y,z
-x,y,1/2-z
-x,-y,-z
x,-y,1/2+z
1/2+x,1/2+y,z
1/2-x,1/2+y,1/2-z
1/2-x,1/2-y,-z
1/2+x,1/2-y,1/2+z
loop_
_atom_site_type_symbol
_atom_site_label
_atom_site_fract_x
_atom_site_fract_y
_atom_site_fract_z
Si Si1 0.239200 0.055081 0.435390
Si Si2 0.806644 0.412341 0.519937
Si Si3 0.710105 0.717585 0.293918
Si Si4 0.786243 0.035509 0.209620
Si Si5 0.040850 0.272987 0.455210
O O1 0.532235 0.089928 0.418607
O O2 0.176431 0.010518 0.370536
O O3 0.997264 0.111845 0.457939
O O4 0.261214 0.995880 0.495086
O O5 0.993202 0.363272 0.460018
O O6 0.500000 0.740605 0.250000
O O7 0.706006 0.626447 0.296450
O O8 0.631574 0.748583 0.373757
O O9 0.000000 0.739419 0.250000
O O10 0.500000 0.012428 0.250000
O O11 0.000000 0.010940 0.250000
O O12 0.250000 0.250000 0.500000
O O13 0.750000 0.250000 0.500000
#
# Coordination Sequence:
#
# PCOD9262077 Si02
#       5
#     8   8   8   8   8
#     4  10  20  37  57  81 112 144 186 240 293 343
#     4  10  21  36  58  82 110 146 185 238 294 340
#     4  10  21  36  54  81 118 153 184 234 301 357
#     4  10  19  32  53  79 107 141 183 225 275 340
#     4  12  23  37  61  89 116 152 203 249 292 360
#
# _framework density 22.419336999999999
#
# number of rings (size 3 to 8) (size 9 to 14) (size 15 to 20)
#    0.000    1.600    0.000    6.000    0.000    3.200 
#    0.000    1.000    0.000    2.400    0.000    0.000 
#    0.000    0.000    0.000    0.000    0.000    0.000 
#
# Total GULP energy -111503.762847 kJ/mol
# GULP energy per Si atom -5575.188142 kJ/mol
# Density = 2.236831 g / cm^3
# Si number density = 22.419337 Si / 1000 Ang^3
#
#
#
# Elastic Constant Matrix: (Units=GPa)
#
#
# Indices 1 2 3 4 5 6 
#
# 1 244.4110 27.0757 95.6762 0.0000 28.7177 0.0000
# 2 27.0757 33.2027 9.7649 0.0000 -5.0734 0.0000
# 3 95.6762 9.7649 158.5997 0.0000 9.7682 0.0000
# 4 0.0000 0.0000 0.0000 10.2767 0.0000 31.3634
# 5 28.7177 -5.0734 9.7682 0.0000 44.4486 0.0000
# 6 0.0000 0.0000 0.0000 31.3634 0.0000 -55.7273
#
#
#
# Elastic Compliance Matrix: (Units=1/GPa)
#
#
# Indices 1 2 3 4 5 6 
#
# 1 0.006389 -0.004839 -0.003313 0.000000 -0.003952 0.000000
# 2 -0.004839 0.035046 0.000327 0.000000 0.007055 0.000000
# 3 -0.003313 0.000327 0.008261 0.000000 0.000362 0.000000
# 4 0.000000 0.000000 0.000000 0.035806 0.000000 0.020152
# 5 -0.003952 0.007055 0.000362 0.000000 0.025777 0.000000
# 6 0.000000 0.000000 0.000000 0.020152 0.000000 -0.006603
#
#
# Mechanical properties :
#
#
# Convention : Reuss Voigt Hill
#
# Bulk Modulus (GPa) = 29.37192 77.91632 53.64412
# Shear Modulus (GPa) = 37.97237 20.04603 29.00920
#
# Velocity S-wave (km/s) = 4.11996 2.99346 3.60104
# Velocity P-wave (km/s) = 5.98011 6.83939 6.42413
#
# Compressibility (1/GPa) = 0.03404612
#
# Stress axis : x y z
#
# Youngs Moduli (GPa) = 156.52683 28.53378 121.04905
#
# Poissons Ratio (x) = 0.13809 0.40099
# Poissons Ratio (y) = 0.75749 -0.03960
# Poissons Ratio (z) = 0.51852 -0.00933
#
# Static dielectric constant tensor:
#      x y z
#    x 1.912000 0.000000 0.026250 
#    y 0.000000 1.981380 0.000000 
#    z 0.026250 0.000000 1.784340 
# 
# From -- ./inp_files/184702.got.cif
#   From: 2010.05.17/outbox.cif.g08.bks.cpg/sg15_93_cif.got.tgz:184702.got - 2010.06.03 18:47:42.
