data_PCOD9262440
_publ_section_title
;
Structure prediction by ZEFSAII (Michael W. Deem and Ramdas Pophale) SiO2 
 PCOD9262440
Probable space group: C 2/C
;
_chemical_formula_sum "Si O2"
_cell_formula_units_Z 48
_cell_length_a 10.615316
_cell_length_b 24.037237
_cell_length_c 7.874446
_cell_angle_alpha 90.000000
_cell_angle_beta 74.523993
_cell_angle_gamma 90.000000
_cell_volume 1936.414795
_symmetry_space_group_name_H-M "C 2/C"
_symmetry_group_IT_number 15
_symmetry_cell_setting 'monoclinic'
loop_
_space_group_symop_operation_xyz
x,y,z
-x,y,1/2-z
-x,-y,-z
x,-y,1/2+z
1/2+x,1/2+y,z
1/2-x,1/2+y,1/2-z
1/2-x,1/2-y,-z
1/2+x,1/2-y,1/2+z
loop_
_atom_site_type_symbol
_atom_site_label
_atom_site_fract_x
_atom_site_fract_y
_atom_site_fract_z
Si Si1 0.738215 0.667141 0.347309
Si Si2 0.840034 0.730111 0.804635
Si Si3 0.582871 0.433629 0.893873
Si Si4 0.318426 0.883854 0.451979
Si Si5 0.214235 0.005286 0.073972
Si Si6 0.571310 0.086970 0.051272
O O1 0.709877 0.731684 0.331822
O O2 0.613254 0.629163 0.439946
O O3 0.854418 0.644066 0.422013
O O4 0.770249 0.644985 0.144892
O O5 0.814581 0.664040 0.813477
O O6 0.000000 0.737971 0.750000
O O7 0.750000 0.750000 0.000000
O O8 0.500000 0.428697 0.750000
O O9 0.584551 0.471251 0.062913
O O10 0.705237 0.466082 0.762008
O O11 0.234464 0.939024 0.452647
O O12 0.463515 0.902964 0.448112
O O13 0.329515 0.960971 0.036190
O O14 0.500000 0.068804 0.250000
#
# Coordination Sequence:
#
# PCOD9262440 Si02
#       6
#     8   8   8   8   8   8
#     4   8  17  33  53  73  98 138 186 221 266 331
#     4  10  20  35  55  78 105 141 183 228 275 329
#     4  10  19  33  52  74 104 143 183 224 268 328
#     4   9  18  31  51  78 106 136 175 229 279 325
#     4  10  20  32  51  80 109 140 177 222 278 334
#     4   9  17  32  53  77 105 140 177 218 272 337
#
# _framework density 24.788077999999999
#
# number of rings (size 3 to 8) (size 9 to 14) (size 15 to 20)
#    0.000    2.667    0.000    2.500    0.000    2.000 
#    0.000    0.833    0.000   11.000    0.000    0.000 
#    0.000    0.000    0.000    0.000    0.000    0.000 
#
# Total GULP energy -133733.712810 kJ/mol
# GULP energy per Si atom -5572.238034 kJ/mol
# Density = 2.473166 g / cm^3
# Si number density = 24.788078 Si / 1000 Ang^3
#
#
#
# Elastic Constant Matrix: (Units=GPa)
#
#
# Indices 1 2 3 4 5 6 
#
# 1 61.2086 20.8131 6.4033 0.0000 -6.3333 0.0000
# 2 20.8131 136.8226 28.2467 0.0000 1.2705 0.0000
# 3 6.4033 28.2467 91.8548 0.0000 -10.5806 0.0000
# 4 0.0000 0.0000 0.0000 10.5180 0.0000 7.1483
# 5 -6.3333 1.2705 -10.5806 0.0000 25.7674 0.0000
# 6 0.0000 0.0000 0.0000 7.1483 0.0000 30.0970
#
#
#
# Elastic Compliance Matrix: (Units=1/GPa)
#
#
# Indices 1 2 3 4 5 6 
#
# 1 0.017736 -0.002769 0.000140 0.000000 0.004553 0.000000
# 2 -0.002769 0.008288 -0.002604 0.000000 -0.002159 0.000000
# 3 0.000140 -0.002604 0.012277 0.000000 0.005204 0.000000
# 4 0.000000 0.000000 0.000000 0.113376 0.000000 -0.026928
# 5 0.004553 -0.002159 0.005204 0.000000 0.042171 0.000000
# 6 0.000000 0.000000 0.000000 -0.026928 0.000000 0.039622
#
#
# Mechanical properties :
#
#
# Convention : Reuss Voigt Hill
#
# Bulk Modulus (GPa) = 35.92809 44.53470 40.23139
# Shear Modulus (GPa) = 19.74617 28.90467 24.32542
#
# Velocity S-wave (km/s) = 2.82547 3.41848 3.13603
# Velocity P-wave (km/s) = 5.01697 5.79539 5.42017
#
# Compressibility (1/GPa) = 0.02783337
#
# Stress axis : x y z
#
# Youngs Moduli (GPa) = 56.38363 120.66196 81.45130
#
# Poissons Ratio (x) = 0.33411 -0.01137
# Poissons Ratio (y) = 0.15613 0.21211
# Poissons Ratio (z) = -0.00787 0.31422
#
# Static dielectric constant tensor:
#      x y z
#    x 2.245140 0.000000 -0.109820 
#    y 0.000000 1.983620 0.000000 
#    z -0.109820 0.000000 2.056580 
# 
# From -- ./inp_files/31894.got.cif
#   From: 2010.05.17/outbox.cif.g08.bks.cpg/sg15_16_cif.got.tgz:31894.got - 2010.06.03 18:47:42.
