data_PCOD9262556
_publ_section_title
;
Structure prediction by ZEFSAII (Michael W. Deem and Ramdas Pophale) SiO2 
 PCOD9262556
Probable space group: C 2/C
;
_chemical_formula_sum "Si O2"
_cell_formula_units_Z 56
_cell_length_a 14.265654
_cell_length_b 18.888795
_cell_length_c 17.806062
_cell_angle_alpha 90.000000
_cell_angle_beta 140.568872
_cell_angle_gamma 90.000000
_cell_volume 3047.475929
_symmetry_space_group_name_H-M "C 2/C"
_symmetry_group_IT_number 15
_symmetry_cell_setting 'monoclinic'
loop_
_space_group_symop_operation_xyz
x,y,z
-x,y,1/2-z
-x,-y,-z
x,-y,1/2+z
1/2+x,1/2+y,z
1/2-x,1/2+y,1/2-z
1/2-x,1/2-y,-z
1/2+x,1/2-y,1/2+z
loop_
_atom_site_type_symbol
_atom_site_label
_atom_site_fract_x
_atom_site_fract_y
_atom_site_fract_z
Si Si1 0.598854 0.972112 0.737695
Si Si2 0.422041 0.425211 0.941473
Si Si3 0.591822 0.292257 0.098948
Si Si4 0.596706 0.625097 0.239671
Si Si5 0.941954 0.635983 0.417652
Si Si6 0.582958 0.243504 0.920075
Si Si7 0.385965 0.874882 0.324817
O O1 0.500000 0.980659 0.750000
O O2 0.751635 0.935403 0.854380
O O3 0.535214 0.921411 0.633277
O O4 0.634198 0.048013 0.722059
O O5 0.438589 0.409253 0.862734
O O6 0.500000 0.500000 0.000000
O O7 0.485210 0.360385 0.029527
O O8 0.555362 0.216330 0.113969
O O9 0.745422 0.324652 0.223111
O O10 0.587967 0.265918 0.010224
O O11 0.500000 0.595069 0.250000
O O12 0.776259 0.625352 0.352465
O O13 0.532006 0.704111 0.190553
O O14 0.064884 0.624372 0.557773
O O15 0.523655 0.164876 0.871454
O O16 0.750000 0.250000 0.000000
#
# Coordination Sequence:
#
# PCOD9262556 Si02
#       7
#     8   8   8   8   8   8   8
#     4  11  25  40  62  89 126 162 209 258 309 362
#     4  10  21  39  61  84 118 160 207 254 305 365
#     4  10  20  37  61  85 113 162 205 249 306 362
#     4  10  19  33  53  84 122 154 190 250 308 363
#     4  10  22  40  58  89 121 161 207 248 313 362
#     4  10  21  30  52  89 125 153 192 241 301 383
#     4  11  21  36  62  87 120 162 198 247 312 374
#
# _framework density 18.375862999999999
#
# number of rings (size 3 to 8) (size 9 to 14) (size 15 to 20)
#    0.000    1.714    2.857    2.143    4.000    1.143 
#    0.000    0.714    0.000    0.000    0.000    0.000 
#    0.000    0.000    0.000    0.000    0.000    0.000 
#
# Total GULP energy -155988.776880 kJ/mol
# GULP energy per Si atom -5571.027746 kJ/mol
# Density = 1.833404 g / cm^3
# Si number density = 18.375863 Si / 1000 Ang^3
#
#
#
# Elastic Constant Matrix: (Units=GPa)
#
#
# Indices 1 2 3 4 5 6 
#
# 1 34.8724 16.3627 17.6330 0.0000 -3.6020 0.0000
# 2 16.3627 103.2976 17.5084 0.0001 -3.1094 0.0001
# 3 17.6330 17.5084 87.0089 0.0002 1.7263 0.0001
# 4 0.0000 0.0001 0.0002 34.5280 0.0001 3.9243
# 5 -3.6020 -3.1094 1.7263 0.0001 15.8793 0.0001
# 6 0.0000 0.0001 0.0001 3.9243 0.0001 19.9789
#
#
#
# Elastic Compliance Matrix: (Units=1/GPa)
#
#
# Indices 1 2 3 4 5 6 
#
# 1 0.034637 -0.004181 -0.006331 0.000000 0.007727 0.000000
# 2 -0.004181 0.010604 -0.001312 0.000000 0.001271 0.000000
# 3 -0.006331 -0.001312 0.013102 0.000000 -0.003117 0.000000
# 4 0.000000 0.000000 0.000000 0.029623 0.000000 -0.005819
# 5 0.007727 0.001271 -0.003117 0.000000 0.065316 0.000000
# 6 0.000000 0.000000 0.000000 -0.005819 0.000000 0.051196
#
#
# Mechanical properties :
#
#
# Convention : Reuss Voigt Hill
#
# Bulk Modulus (GPa) = 28.82280 36.46523 32.64401
# Shear Modulus (GPa) = 20.86024 25.65557 23.25790
#
# Velocity S-wave (km/s) = 3.37293 3.74057 3.56149
# Velocity P-wave (km/s) = 5.55770 6.20830 5.89199
#
# Compressibility (1/GPa) = 0.03469476
#
# Stress axis : x y z
#
# Youngs Moduli (GPa) = 28.87066 94.30764 76.32429
#
# Poissons Ratio (x) = 0.39429 0.48325
# Poissons Ratio (y) = 0.12071 0.10011
# Poissons Ratio (z) = 0.18279 0.12370
#
# Static dielectric constant tensor:
#      x y z
#    x 1.635260 0.000000 -0.002400 
#    y 0.000000 1.615880 0.000000 
#    z -0.002400 0.000000 1.664230 
# 
# From -- ./inp_files/206301.got.cif
#   From: 2010.05.17/outbox.cif.g08.bks.cpg/sg15_104_cif.got.tgz:206301.got - 2010.06.03 18:47:42.
