data_PCOD9262989
_publ_section_title
;
Structure prediction by ZEFSAII (Michael W. Deem and Ramdas Pophale) SiO2 
 PCOD9262989
Probable space group: C 2/C
;
_chemical_formula_sum "Si O2"
_cell_formula_units_Z 60
_cell_length_a 17.543168
_cell_length_b 8.383890
_cell_length_c 18.483221
_cell_angle_alpha 90.000000
_cell_angle_beta 73.518772
_cell_angle_gamma 90.000000
_cell_volume 2606.815756
_symmetry_space_group_name_H-M "C 2/C"
_symmetry_group_IT_number 15
_symmetry_cell_setting 'monoclinic'
loop_
_space_group_symop_operation_xyz
x,y,z
-x,y,1/2-z
-x,-y,-z
x,-y,1/2+z
1/2+x,1/2+y,z
1/2-x,1/2+y,1/2-z
1/2-x,1/2-y,-z
1/2+x,1/2-y,1/2+z
loop_
_atom_site_type_symbol
_atom_site_label
_atom_site_fract_x
_atom_site_fract_y
_atom_site_fract_z
Si Si1 0.553176 0.325875 0.589453
Si Si2 0.590415 0.793060 0.461113
Si Si3 0.334442 0.952175 0.473664
Si Si4 0.275257 0.322867 0.765150
Si Si5 0.679875 0.471930 0.112950
Si Si6 0.000000 0.363333 0.250000
Si Si7 0.365244 0.984594 0.195499
Si Si8 0.755070 0.132770 0.113257
O O1 0.483930 0.308762 0.547894
O O2 0.596257 0.492368 0.596249
O O3 0.524012 0.245654 0.673753
O O4 0.625093 0.217602 0.539765
O O5 0.595831 0.919646 0.525237
O O6 0.607538 0.910370 0.387800
O O7 0.667866 0.683402 0.453531
O O8 0.295444 0.993486 0.407475
O O9 0.259357 0.974016 0.547420
O O10 0.319806 0.416325 0.816026
O O11 0.303900 0.145354 0.744392
O O12 0.181872 0.352591 0.803070
O O13 0.290634 0.397036 0.682019
O O14 0.698977 0.289913 0.128826
O O15 0.933618 0.479288 0.235480
#
# Coordination Sequence:
#
# PCOD9262989 Si02
#       8
#     8   8   8   8   8   4   8   8
#     4  11  22  35  62  87 116 150 196 242 286 342
#     4   9  19  37  56  85 113 158 188 232 293 352
#     4  11  21  40  61  88 117 155 196 243 289 346
#     4  11  18  36  57  88 111 154 194 244 282 343
#     4  11  21  38  58  91 119 148 198 245 291 347
#     4  10  20  34  54  86 114 148 188 234 288 350
#     4  10  19  33  59  82 113 148 195 236 289 339
#     4  10  22  37  62  84 117 158 195 237 294 353
#
# _framework density 23.016586
#
# number of rings (size 3 to 8) (size 9 to 14) (size 15 to 20)
#    0.000    1.600    5.333    3.200    0.000    0.000 
#    0.000    2.667    0.000   20.000    0.000    0.000 
#    0.000    0.000    0.000    0.000    0.000    0.000 
#
# Total GULP energy -167402.275004 kJ/mol
# GULP energy per Si atom -5580.075833 kJ/mol
# Density = 2.296420 g / cm^3
# Si number density = 23.016586 Si / 1000 Ang^3
#
#
#
# Elastic Constant Matrix: (Units=GPa)
#
#
# Indices 1 2 3 4 5 6 
#
# 1 131.8859 19.5616 -9.3593 0.0000 32.9368 0.0000
# 2 19.5616 10.2072 -8.3573 0.0000 5.6426 0.0000
# 3 -9.3593 -8.3573 60.4045 0.0000 11.1416 0.0000
# 4 0.0000 0.0000 0.0000 16.9217 0.0000 -9.7027
# 5 32.9368 5.6426 11.1416 0.0000 28.6868 0.0000
# 6 0.0000 0.0000 0.0000 -9.7027 0.0000 25.2636
#
#
#
# Elastic Compliance Matrix: (Units=1/GPa)
#
#
# Indices 1 2 3 4 5 6 
#
# 1 0.013487 -0.016906 0.002147 0.000000 -0.012994 0.000000
# 2 -0.016906 0.161780 0.023754 0.000000 -0.021636 0.000000
# 3 0.002147 0.023754 0.023149 0.000000 -0.016129 0.000000
# 4 0.000000 0.000000 0.000000 0.075785 0.000000 0.029106
# 5 -0.012994 -0.021636 -0.016129 0.000000 0.060299 0.000000
# 6 0.000000 0.000000 0.000000 0.029106 0.000000 0.050761
#
#
# Mechanical properties :
#
#
# Convention : Reuss Voigt Hill
#
# Bulk Modulus (GPa) = 4.62091 22.90974 13.76532
# Shear Modulus (GPa) = 11.37899 27.55127 19.46513
#
# Velocity S-wave (km/s) = 2.22588 3.46355 2.91125
# Velocity P-wave (km/s) = 2.93566 5.09608 4.15861
#
# Compressibility (1/GPa) = 0.21640773
#
# Stress axis : x y z
#
# Youngs Moduli (GPa) = 74.14295 6.18123 43.19784
#
# Poissons Ratio (x) = 0.10450 -0.09277
# Poissons Ratio (y) = 1.25349 -1.02614
# Poissons Ratio (z) = -0.15922 -0.14683
#
# Static dielectric constant tensor:
#      x y z
#    x 1.906660 0.000000 -0.014820 
#    y 0.000000 1.894470 0.000000 
#    z -0.014820 0.000000 1.950940 
# 
# From -- ./inp_files/247438.got.cif
#   From: 2010.05.17/outbox.cif.g08.bks.cpg/sg15_124_cif.got.tgz:247438.got - 2010.06.03 18:47:42.
