data_PCOD9262105
_publ_section_title
;
Structure prediction by ZEFSAII (Michael W. Deem and Ramdas Pophale) SiO2 
 PCOD9262105
Probable space group: C 2/C
;
_chemical_formula_sum "Si O2"
_cell_formula_units_Z 40
_cell_length_a 29.008469
_cell_length_b 9.558225
_cell_length_c 5.642532
_cell_angle_alpha 90.000000
_cell_angle_beta 92.417581
_cell_angle_gamma 90.000000
_cell_volume 1563.109367
_symmetry_space_group_name_H-M "C 2/C"
_symmetry_group_IT_number 15
_symmetry_cell_setting 'monoclinic'
loop_
_space_group_symop_operation_xyz
x,y,z
-x,y,1/2-z
-x,-y,-z
x,-y,1/2+z
1/2+x,1/2+y,z
1/2-x,1/2+y,1/2-z
1/2-x,1/2-y,-z
1/2+x,1/2-y,1/2+z
loop_
_atom_site_type_symbol
_atom_site_label
_atom_site_fract_x
_atom_site_fract_y
_atom_site_fract_z
Si Si1 0.309059 0.872997 0.929279
Si Si2 0.636094 0.328436 0.406756
Si Si3 0.043556 0.073010 0.678313
Si Si4 0.899983 0.447584 0.459487
Si Si5 0.220979 0.157346 0.177181
O O1 0.332506 0.768163 0.749963
O O2 0.260436 0.931759 0.819348
O O3 0.297703 0.773501 0.145172
O O4 0.348586 0.985615 0.980767
O O5 0.596452 0.388510 0.232571
O O6 0.607300 0.219014 0.565670
O O7 0.674916 0.413762 0.560560
O O8 0.000000 0.169923 0.750000
O O9 0.038776 0.037724 0.399375
O O10 0.921056 0.512500 0.222783
O O11 0.250000 0.250000 0.000000
#
# Coordination Sequence:
#
# PCOD9262105 Si02
#       5
#     8   8   8   8   8
#     4   9  18  32  53  82 125 161 201 242 287 355
#     4  10  20  35  62  85 117 157 205 247 307 366
#     4  10  24  45  68  92 118 152 202 263 325 375
#     4  10  19  32  53  85 115 157 192 229 288 349
#     4   9  17  32  52  79 118 160 207 241 279 344
#
# _framework density 25.590022000000001
#
# number of rings (size 3 to 8) (size 9 to 14) (size 15 to 20)
#    0.000    2.400    2.000    0.000    2.800    0.000 
#    0.000    8.000    0.000    4.800    0.000    0.000 
#    0.000    0.000    0.000    0.000    0.000    0.000 
#
# Total GULP energy -111506.669119 kJ/mol
# GULP energy per Si atom -5575.333456 kJ/mol
# Density = 2.553178 g / cm^3
# Si number density = 25.590022 Si / 1000 Ang^3
#
#
#
# Elastic Constant Matrix: (Units=GPa)
#
#
# Indices 1 2 3 4 5 6 
#
# 1 105.7150 6.3180 42.7182 0.0000 22.2987 0.0000
# 2 6.3180 17.0209 18.8971 0.0000 -1.3484 0.0000
# 3 42.7182 18.8971 148.4627 0.0000 18.2368 0.0000
# 4 0.0000 0.0000 0.0000 29.6324 0.0000 0.5307
# 5 22.2987 -1.3484 18.2368 0.0000 36.5087 0.0000
# 6 0.0000 0.0000 0.0000 0.5307 0.0000 9.0369
#
#
#
# Elastic Compliance Matrix: (Units=1/GPa)
#
#
# Indices 1 2 3 4 5 6 
#
# 1 0.011845 -0.002254 -0.002368 0.000000 -0.006135 0.000000
# 2 -0.002254 0.070739 -0.009424 0.000000 0.008697 0.000000
# 3 -0.002368 -0.009424 0.009036 0.000000 -0.003416 0.000000
# 4 0.000000 0.000000 0.000000 0.033782 0.000000 -0.001984
# 5 -0.006135 0.008697 -0.003416 0.000000 0.033165 0.000000
# 6 0.000000 0.000000 0.000000 -0.001984 0.000000 0.110774
#
#
# Mechanical properties :
#
#
# Convention : Reuss Voigt Hill
#
# Bulk Modulus (GPa) = 15.74078 45.22947 30.48513
# Shear Modulus (GPa) = 15.69317 28.58661 22.13989
#
# Velocity S-wave (km/s) = 2.47908 3.34593 2.94458
# Velocity P-wave (km/s) = 3.78932 5.71314 4.84763
#
# Compressibility (1/GPa) = 0.06352924
#
# Stress axis : x y z
#
# Youngs Moduli (GPa) = 84.42388 14.13640 110.66800
#
# Poissons Ratio (x) = 0.03187 0.26203
# Poissons Ratio (y) = 0.19030 1.04291
# Poissons Ratio (z) = 0.19989 0.13322
#
# Static dielectric constant tensor:
#      x y z
#    x 2.152240 0.000000 0.170050 
#    y 0.000000 2.083450 0.000000 
#    z 0.170050 0.000000 2.238780 
# 
# From -- ./inp_files/16729.got.cif
#   From: 2010.05.17/outbox.cif.g08.bks.cpg/sg15_9_cif.got.tgz:16729.got - 2010.06.03 18:47:42.
