data_PCOD9262514
_publ_section_title
;
Structure prediction by ZEFSAII (Michael W. Deem and Ramdas Pophale) SiO2 
 PCOD9262514
Probable space group: C 2/C
;
_chemical_formula_sum "Si O2"
_cell_formula_units_Z 60
_cell_length_a 18.422199
_cell_length_b 19.205069
_cell_length_c 15.507218
_cell_angle_alpha 90.000000
_cell_angle_beta 33.971871
_cell_angle_gamma 90.000000
_cell_volume 3065.749134
_symmetry_space_group_name_H-M "C 2/C"
_symmetry_group_IT_number 15
_symmetry_cell_setting 'monoclinic'
loop_
_space_group_symop_operation_xyz
x,y,z
-x,y,1/2-z
-x,-y,-z
x,-y,1/2+z
1/2+x,1/2+y,z
1/2-x,1/2+y,1/2-z
1/2-x,1/2-y,-z
1/2+x,1/2-y,1/2+z
loop_
_atom_site_type_symbol
_atom_site_label
_atom_site_fract_x
_atom_site_fract_y
_atom_site_fract_z
Si Si1 0.949197 0.197879 0.144786
Si Si2 0.190156 0.357308 0.969709
Si Si3 0.535643 0.553005 0.115348
Si Si4 0.500000 0.785004 0.250000
Si Si5 0.025480 0.424213 0.625915
Si Si6 0.969042 0.338549 0.045017
Si Si7 0.688254 0.033614 0.730229
Si Si8 0.779507 0.995794 0.328390
O O1 0.807402 0.191393 0.326325
O O2 0.003628 0.119884 0.085349
O O3 0.028393 0.235788 0.142261
O O4 0.943832 0.255633 0.075460
O O5 0.242929 0.434707 0.916134
O O6 0.123636 0.335776 0.124958
O O7 0.084827 0.354324 0.997401
O O8 0.500000 0.570668 0.250000
O O9 0.434736 0.492099 0.186630
O O10 0.686427 0.535582 0.954624
O O11 0.934834 0.490669 0.686778
O O12 0.000000 0.407550 0.750000
O O13 0.996629 0.365089 0.583765
O O14 0.179047 0.439862 0.464038
O O15 0.856412 0.389471 0.193662
O O16 0.738783 0.996910 0.768543
#
# Coordination Sequence:
#
# PCOD9262514 Si02
#       8
#     8   8   8   4   8   8   8   8
#     4  10  22  34  51  77 117 149 181 216 278 339
#     4  10  19  33  53  77 109 151 179 223 269 331
#     4  11  23  36  54  88 119 148 182 224 278 342
#     4  10  20  30  48  82 116 140 184 218 268 328
#     4  11  21  37  61  85 107 144 192 244 279 315
#     4  10  21  37  56  79 112 146 191 227 272 336
#     4  11  21  38  57  83 114 150 188 229 273 339
#     4  10  20  38  55  82 114 151 185 221 282 336
#
# _framework density 19.571072000000001
#
# number of rings (size 3 to 8) (size 9 to 14) (size 15 to 20)
#    0.000    1.600    3.333    2.400    4.667    4.267 
#    0.000    0.000    0.000    0.800    0.000    0.000 
#    0.000    0.000    0.000    0.000    0.000    0.000 
#
# Total GULP energy -167132.956998 kJ/mol
# GULP energy per Si atom -5571.098567 kJ/mol
# Density = 1.952653 g / cm^3
# Si number density = 19.571072 Si / 1000 Ang^3
#
#
#
# Elastic Constant Matrix: (Units=GPa)
#
#
# Indices 1 2 3 4 5 6 
#
# 1 71.1803 14.2252 21.9299 0.0000 1.1227 -0.0001
# 2 14.2252 50.5358 13.7084 -0.0001 4.4207 0.0001
# 3 21.9299 13.7084 78.6872 -0.0006 1.3448 0.0007
# 4 0.0000 -0.0001 -0.0006 13.0410 0.0003 9.9180
# 5 1.1227 4.4207 1.3448 0.0003 35.3080 -0.0003
# 6 -0.0001 0.0001 0.0007 9.9180 -0.0003 -4.7594
#
#
#
# Elastic Compliance Matrix: (Units=1/GPa)
#
#
# Indices 1 2 3 4 5 6 
#
# 1 0.015919 -0.003446 -0.003837 0.000000 0.000071 -0.000001
# 2 -0.003446 0.021732 -0.002783 0.000000 -0.002505 0.000000
# 3 -0.003837 -0.002783 0.014264 0.000000 -0.000073 0.000001
# 4 0.000000 0.000000 0.000000 0.029666 0.000000 0.061820
# 5 0.000071 -0.002505 -0.000073 0.000000 0.028636 -0.000001
# 6 -0.000001 0.000000 0.000001 0.061820 -0.000001 -0.081285
#
#
# Mechanical properties :
#
#
# Convention : Reuss Voigt Hill
#
# Bulk Modulus (GPa) = 31.46424 33.34782 32.40603
# Shear Modulus (GPa) = 83.81036 18.75389 51.28213
#
# Velocity S-wave (km/s) = 6.55107 3.09891 5.12444
# Velocity P-wave (km/s) = 8.56352 5.46632 7.18382
#
# Compressibility (1/GPa) = 0.03178211
#
# Stress axis : x y z
#
# Youngs Moduli (GPa) = 62.81938 46.01502 70.10635
#
# Poissons Ratio (x) = 0.15858 0.26902
# Poissons Ratio (y) = 0.21649 0.19509
# Poissons Ratio (z) = 0.24106 0.12805
#
# Static dielectric constant tensor:
#      x y z
#    x 1.749670 0.000000 -0.041440 
#    y 0.000000 1.752370 0.000000 
#    z -0.041440 0.000000 1.777460 
# 
# From -- ./inp_files/163530.got.cif
#   From: 2010.05.17/outbox.cif.g08.bks.cpg/sg15_82_cif.got.tgz:163530.got - 2010.06.03 18:47:42.
