data_PCOD9262253
_publ_section_title
;
Structure prediction by ZEFSAII (Michael W. Deem and Ramdas Pophale) SiO2 
 PCOD9262253
Probable space group: C 2/C
;
_chemical_formula_sum "Si O2"
_cell_formula_units_Z 56
_cell_length_a 9.896121
_cell_length_b 13.031477
_cell_length_c 18.058743
_cell_angle_alpha 90.000000
_cell_angle_beta 113.404653
_cell_angle_gamma 90.000000
_cell_volume 2137.260573
_symmetry_space_group_name_H-M "C 2/C"
_symmetry_group_IT_number 15
_symmetry_cell_setting 'monoclinic'
loop_
_space_group_symop_operation_xyz
x,y,z
-x,y,1/2-z
-x,-y,-z
x,-y,1/2+z
1/2+x,1/2+y,z
1/2-x,1/2+y,1/2-z
1/2-x,1/2-y,-z
1/2+x,1/2-y,1/2+z
loop_
_atom_site_type_symbol
_atom_site_label
_atom_site_fract_x
_atom_site_fract_y
_atom_site_fract_z
Si Si1 0.807336 0.207493 0.830963
Si Si2 0.922200 0.102413 0.582002
Si Si3 0.323634 0.060888 0.337755
Si Si4 0.000000 0.984328 0.750000
Si Si5 0.432733 0.767292 0.109457
Si Si6 0.760309 0.429730 0.983264
Si Si7 0.277022 0.249173 0.161658
Si Si8 0.500000 0.930106 0.750000
O O1 0.873541 0.321489 0.852218
O O2 0.643766 0.210826 0.827555
O O3 0.818399 0.185184 0.745594
O O4 0.916745 0.141972 0.906255
O O5 0.827453 0.194758 0.597538
O O6 0.965462 0.038579 0.665020
O O7 0.832364 0.027802 0.508413
O O8 0.156421 0.070052 0.272162
O O9 0.327559 0.022869 0.421867
O O10 0.425359 0.007157 0.299686
O O11 0.347775 0.663664 0.064644
O O12 0.602474 0.743506 0.132522
O O13 0.382989 0.868482 0.054042
O O14 0.368911 0.144022 0.191328
#
# Coordination Sequence:
#
# PCOD9262253 Si02
#       8
#     8   8   8   4   8   8   8   4
#     4  10  19  34  57  90 110 148 194 239 278 351
#     4  11  19  36  58  82 118 146 184 235 303 336
#     4   9  19  33  58  81 114 146 191 229 293 345
#     4  10  19  34  56  85 112 154 174 240 297 342
#     4  10  22  39  61  82 116 156 208 227 276 352
#     4   9  22  39  59  84 115 159 194 237 283 351
#     4  11  19  35  58  86 111 151 187 241 292 349
#     4  10  19  32  56  89 108 142 194 246 283 348
#
# _framework density 26.201765999999999
#
# number of rings (size 3 to 8) (size 9 to 14) (size 15 to 20)
#    0.000    2.000    4.286    0.429   12.000    1.143 
#    0.000    3.571    0.000    0.000    0.000    0.000 
#    0.000    0.000    0.000    0.000    0.000    0.000 
#
# Total GULP energy -156373.273090 kJ/mol
# GULP energy per Si atom -5584.759753 kJ/mol
# Density = 2.614213 g / cm^3
# Si number density = 26.201766 Si / 1000 Ang^3
#
#
#
# Elastic Constant Matrix: (Units=GPa)
#
#
# Indices 1 2 3 4 5 6 
#
# 1 160.3986 5.4029 26.4883 0.0000 27.1552 0.0000
# 2 5.4029 36.7956 2.6390 0.0000 13.5553 0.0000
# 3 26.4883 2.6390 42.2946 0.0000 9.8313 0.0000
# 4 0.0000 0.0000 0.0000 39.4862 0.0000 10.3671
# 5 27.1552 13.5553 9.8313 0.0000 34.2853 0.0000
# 6 0.0000 0.0000 0.0000 10.3671 0.0000 35.3170
#
#
#
# Elastic Compliance Matrix: (Units=1/GPa)
#
#
# Indices 1 2 3 4 5 6 
#
# 1 0.007733 0.001168 -0.003627 0.000000 -0.005547 0.000000
# 2 0.001168 0.032027 0.000459 0.000000 -0.013719 0.000000
# 3 -0.003627 0.000459 0.027065 0.000000 -0.005070 0.000000
# 4 0.000000 0.000000 0.000000 0.027440 0.000000 -0.008055
# 5 -0.005547 -0.013719 -0.005070 0.000000 0.040438 0.000000
# 6 0.000000 0.000000 0.000000 -0.008055 0.000000 0.030679
#
#
# Mechanical properties :
#
#
# Convention : Reuss Voigt Hill
#
# Bulk Modulus (GPa) = 15.91703 34.28324 25.10014
# Shear Modulus (GPa) = 26.27109 35.48160 30.87634
#
# Velocity S-wave (km/s) = 3.16989 3.68389 3.43652
# Velocity P-wave (km/s) = 4.41425 5.58637 5.03454
#
# Compressibility (1/GPa) = 0.06282577
#
# Stress axis : x y z
#
# Youngs Moduli (GPa) = 129.31461 31.22387 36.94833
#
# Poissons Ratio (x) = -0.03647 0.13400
# Poissons Ratio (y) = -0.15104 -0.01697
# Poissons Ratio (z) = 0.46898 -0.01434
#
# Static dielectric constant tensor:
#      x y z
#    x 2.188690 0.000000 -0.020910 
#    y 0.000000 2.093970 0.000000 
#    z -0.020910 0.000000 2.102000 
# 
# From -- ./inp_files/264835.got.cif
#   From: 2010.05.17/outbox.cif.g08.bks.cpg/sg15_133_cif.got.tgz:264835.got - 2010.06.03 18:47:42.
