data_PCOD9262671
_publ_section_title
;
Structure prediction by ZEFSAII (Michael W. Deem and Ramdas Pophale) SiO2 
 PCOD9262671
Probable space group: C 2/C
;
_chemical_formula_sum "Si O2"
_cell_formula_units_Z 52
_cell_length_a 19.883975
_cell_length_b 13.127847
_cell_length_c 16.826477
_cell_angle_alpha 90.000000
_cell_angle_beta 148.198766
_cell_angle_gamma 90.000000
_cell_volume 2314.617231
_symmetry_space_group_name_H-M "C 2/C"
_symmetry_group_IT_number 15
_symmetry_cell_setting 'monoclinic'
loop_
_space_group_symop_operation_xyz
x,y,z
-x,y,1/2-z
-x,-y,-z
x,-y,1/2+z
1/2+x,1/2+y,z
1/2-x,1/2+y,1/2-z
1/2-x,1/2-y,-z
1/2+x,1/2-y,1/2+z
loop_
_atom_site_type_symbol
_atom_site_label
_atom_site_fract_x
_atom_site_fract_y
_atom_site_fract_z
Si Si1 0.256764 0.744298 0.703537
Si Si2 0.500000 0.006069 0.250000
Si Si3 0.373409 0.794870 0.582770
Si Si4 0.888942 0.421395 0.870772
Si Si5 0.136304 0.977738 0.176476
Si Si6 0.175775 0.178721 0.299237
Si Si7 0.045763 0.676258 0.901678
O O1 0.143398 0.725504 0.527371
O O2 0.345364 0.838982 0.761808
O O3 0.339503 0.641225 0.786172
O O4 0.196476 0.773151 0.729851
O O5 0.515547 0.927648 0.193480
O O6 0.611330 0.083765 0.386375
O O7 0.500000 0.749471 0.750000
O O8 0.250000 0.750000 0.500000
O O9 0.759519 0.486797 0.749334
O O10 0.926238 0.341790 0.977989
O O11 0.000000 0.500000 0.000000
O O12 0.149863 0.058311 0.262362
O O13 0.000000 0.000000 0.000000
O O14 0.308401 0.192077 0.480067
O O15 0.053430 0.234564 0.211305
#
# Coordination Sequence:
#
# PCOD9262671 Si02
#       7
#     8   4   8   8   8   8   8
#     4  10  21  40  62  92 134 167 213 289 328 394
#     4  10  24  42  66  88 138 180 222 270 330 408
#     4  10  24  40  64  91 131 179 224 259 340 410
#     4  10  22  34  60  90 119 163 216 263 330 387
#     4  10  19  33  54  88 122 157 201 266 333 379
#     4  10  22  37  64  94 123 171 226 278 342 382
#     4  10  21  40  61  90 127 168 224 272 330 394
#
# _framework density 22.465916
#
# number of rings (size 3 to 8) (size 9 to 14) (size 15 to 20)
#    0.462    1.846    0.000    4.615    2.154    6.769 
#    0.000    0.000    6.769    0.000    0.000    0.000 
#    0.000    0.000    0.000    0.000    0.000    0.000 
#
# Total GULP energy -144738.303568 kJ/mol
# GULP energy per Si atom -5566.857830 kJ/mol
# Density = 2.241478 g / cm^3
# Si number density = 22.465916 Si / 1000 Ang^3
#
#
#
# Elastic Constant Matrix: (Units=GPa)
#
#
# Indices 1 2 3 4 5 6 
#
# 1 24.8553 19.8648 27.1385 0.0000 2.3438 0.0000
# 2 19.8648 159.8365 60.9062 0.0000 22.9604 0.0000
# 3 27.1385 60.9062 178.0062 0.0000 26.9946 0.0000
# 4 0.0000 0.0000 0.0000 50.5020 0.0000 4.2271
# 5 2.3438 22.9604 26.9946 0.0000 45.3838 0.0000
# 6 0.0000 0.0000 0.0000 4.2271 0.0000 25.8970
#
#
#
# Elastic Compliance Matrix: (Units=1/GPa)
#
#
# Indices 1 2 3 4 5 6 
#
# 1 0.050725 -0.004214 -0.006834 0.000000 0.003577 0.000000
# 2 -0.004214 0.007789 -0.001602 0.000000 -0.002770 0.000000
# 3 -0.006834 -0.001602 0.007729 0.000000 -0.003433 0.000000
# 4 0.000000 0.000000 0.000000 0.020075 0.000000 -0.003277
# 5 0.003577 -0.002770 -0.003433 0.000000 0.025293 0.000000
# 6 0.000000 0.000000 0.000000 -0.003277 0.000000 0.039149
#
#
# Mechanical properties :
#
#
# Convention : Reuss Voigt Hill
#
# Bulk Modulus (GPa) = 24.42509 64.27967 44.35238
# Shear Modulus (GPa) = 26.35620 41.34245 33.84932
#
# Velocity S-wave (km/s) = 3.42886 4.29444 3.88583
# Velocity P-wave (km/s) = 5.15479 7.29821 6.31806
#
# Compressibility (1/GPa) = 0.04094150
#
# Stress axis : x y z
#
# Youngs Moduli (GPa) = 19.71403 128.39312 129.38827
#
# Poissons Ratio (x) = 0.54104 0.88426
# Poissons Ratio (y) = 0.08307 0.20734
# Poissons Ratio (z) = 0.13473 0.20575
#
# Static dielectric constant tensor:
#      x y z
#    x 1.748260 0.000000 -0.062030 
#    y 0.000000 1.804940 0.000000 
#    z -0.062030 0.000000 1.839070 
# 
# From -- ./inp_files/215599.got.cif
#   From: 2010.05.17/outbox.cif.g08.bks.cpg/sg15_108_cif.got.tgz:215599.got - 2010.06.03 18:47:42.
