data_PCOD9262394
_publ_section_title
;
Structure prediction by ZEFSAII (Michael W. Deem and Ramdas Pophale) SiO2 
 PCOD9262394
Probable space group: C 2/C
;
_chemical_formula_sum "Si O2"
_cell_formula_units_Z 48
_cell_length_a 20.213135
_cell_length_b 25.144576
_cell_length_c 4.946824
_cell_angle_alpha 90.000000
_cell_angle_beta 71.572309
_cell_angle_gamma 90.000000
_cell_volume 2385.305673
_symmetry_space_group_name_H-M "C 2/C"
_symmetry_group_IT_number 15
_symmetry_cell_setting 'monoclinic'
loop_
_space_group_symop_operation_xyz
x,y,z
-x,y,1/2-z
-x,-y,-z
x,-y,1/2+z
1/2+x,1/2+y,z
1/2-x,1/2+y,1/2-z
1/2-x,1/2-y,-z
1/2+x,1/2-y,1/2+z
loop_
_atom_site_type_symbol
_atom_site_label
_atom_site_fract_x
_atom_site_fract_y
_atom_site_fract_z
Si Si1 0.922889 0.175974 0.288389
Si Si2 0.273690 0.463539 0.659530
Si Si3 0.729585 0.634924 0.978265
Si Si4 0.576217 0.752782 0.715005
Si Si5 0.284080 0.192864 0.403805
Si Si6 0.068237 0.036646 0.562774
O O1 0.854910 0.139873 0.419727
O O2 0.916046 0.203351 0.004184
O O3 0.919498 0.225204 0.499568
O O4 0.000000 0.151764 0.250000
O O5 0.260377 0.485544 0.375247
O O6 0.245137 0.416525 0.886481
O O7 0.353915 0.443426 0.511210
O O8 0.763044 0.680410 0.124311
O O9 0.754677 0.647570 0.643002
O O10 0.635288 0.797098 0.633585
O O11 0.500000 0.775062 0.750000
O O12 0.250000 0.250000 0.500000
O O13 0.000000 0.068611 0.750000
O O14 0.065425 0.014693 0.264333
#
# Coordination Sequence:
#
# PCOD9262394 Si02
#       6
#     8   8   8   8   8   8
#     4  10  19  33  50  75 108 145 183 219 262 317
#     4  10  21  37  52  72 105 142 185 239 278 315
#     4  12  22  35  56  81 107 147 190 225 275 327
#     4  10  20  34  53  77 111 146 173 213 269 322
#     4  12  21  35  57  83 113 141 179 228 269 333
#     4   8  14  27  46  64  84 121 170 217 263 297
#
# _framework density 20.123206
#
# number of rings (size 3 to 8) (size 9 to 14) (size 15 to 20)
#    0.000    1.667    3.333    2.500    0.000    0.000 
#    0.000   12.500    0.000    0.000    0.000    0.000 
#    0.000   13.333    0.000    0.000    0.000    0.000 
#
# Total GULP energy -133694.624956 kJ/mol
# GULP energy per Si atom -5570.609373 kJ/mol
# Density = 2.007740 g / cm^3
# Si number density = 20.123206 Si / 1000 Ang^3
#
#
#
# Elastic Constant Matrix: (Units=GPa)
#
#
# Indices 1 2 3 4 5 6 
#
# 1 77.4728 8.6098 16.5306 0.0000 -5.2830 0.0000
# 2 8.6098 41.1578 8.6299 0.0000 -5.0710 0.0000
# 3 16.5306 8.6299 78.6804 0.0000 7.1640 0.0000
# 4 0.0000 0.0000 0.0000 29.2111 0.0000 9.9885
# 5 -5.2830 -5.0710 7.1640 0.0000 31.9481 0.0000
# 6 0.0000 0.0000 0.0000 9.9885 0.0000 8.9194
#
#
#
# Elastic Compliance Matrix: (Units=1/GPa)
#
#
# Indices 1 2 3 4 5 6 
#
# 1 0.013938 -0.001969 -0.002954 0.000000 0.002655 0.000000
# 2 -0.001969 0.025844 -0.002822 0.000000 0.004409 0.000000
# 3 -0.002954 -0.002822 0.014011 0.000000 -0.004078 0.000000
# 4 0.000000 0.000000 0.000000 0.055478 0.000000 -0.062128
# 5 0.002655 0.004409 -0.004078 0.000000 0.033354 0.000000
# 6 0.000000 0.000000 0.000000 -0.062128 0.000000 0.181690
#
#
# Mechanical properties :
#
#
# Convention : Reuss Voigt Hill
#
# Bulk Modulus (GPa) = 26.10857 29.42796 27.76827
# Shear Modulus (GPa) = 14.18146 24.91842 19.54994
#
# Velocity S-wave (km/s) = 2.65756 3.52276 3.12029
# Velocity P-wave (km/s) = 4.73491 5.58588 5.17791
#
# Compressibility (1/GPa) = 0.03830159
#
# Stress axis : x y z
#
# Youngs Moduli (GPa) = 71.74663 38.69407 71.37147
#
# Poissons Ratio (x) = 0.07620 0.21084
# Poissons Ratio (y) = 0.14128 0.20144
# Poissons Ratio (z) = 0.21194 0.10921
#
# Static dielectric constant tensor:
#      x y z
#    x 1.793650 0.000000 -0.066650 
#    y 0.000000 1.754220 0.000000 
#    z -0.066650 0.000000 1.747770 
# 
# From -- ./inp_files/13623.got.cif
#   From: 2010.05.17/outbox.cif.g08.bks.cpg/sg15_7_cif.got.tgz:13623.got - 2010.06.03 18:47:42.
