data_PCOD9262564
_publ_section_title
;
Structure prediction by ZEFSAII (Michael W. Deem and Ramdas Pophale) SiO2 
 PCOD9262564
Probable space group: C 2/C
;
_chemical_formula_sum "Si O2"
_cell_formula_units_Z 64
_cell_length_a 12.089315
_cell_length_b 18.879943
_cell_length_c 25.707279
_cell_angle_alpha 90.000000
_cell_angle_beta 30.351896
_cell_angle_gamma 90.000000
_cell_volume 2964.939919
_symmetry_space_group_name_H-M "C 2/C"
_symmetry_group_IT_number 15
_symmetry_cell_setting 'monoclinic'
loop_
_space_group_symop_operation_xyz
x,y,z
-x,y,1/2-z
-x,-y,-z
x,-y,1/2+z
1/2+x,1/2+y,z
1/2-x,1/2+y,1/2-z
1/2-x,1/2-y,-z
1/2+x,1/2-y,1/2+z
loop_
_atom_site_type_symbol
_atom_site_label
_atom_site_fract_x
_atom_site_fract_y
_atom_site_fract_z
Si Si1 0.323309 0.486051 0.512999
Si Si2 0.402639 0.059684 0.700494
Si Si3 0.534225 0.785052 0.612569
Si Si4 0.041078 0.576866 0.040153
Si Si5 0.259390 0.060332 0.646492
Si Si6 0.342680 0.662597 0.065940
Si Si7 0.762723 0.687318 0.826986
Si Si8 0.731883 0.061602 0.185395
O O1 0.232410 0.467180 0.492442
O O2 0.314482 0.412344 0.546860
O O3 0.565358 0.514650 0.415443
O O4 0.162114 0.547361 0.599245
O O5 0.341003 0.088056 0.669096
O O6 0.308120 0.109855 0.783505
O O7 0.316252 0.978022 0.740770
O O8 0.750000 0.750000 0.500000
O O9 0.490139 0.857106 0.598093
O O10 0.626581 0.796933 0.633072
O O11 0.335545 0.733625 0.680246
O O12 0.847207 0.520989 0.108621
O O13 0.135228 0.599189 0.945938
O O14 0.000000 0.063370 0.750000
O O15 0.316243 0.640328 0.137027
O O16 0.575031 0.689280 0.948480
O O17 0.000000 0.712550 0.750000
O O18 0.500000 0.053102 0.250000
#
# Coordination Sequence:
#
# PCOD9262564 Si02
#       8
#     8   8   8   8   8   8   8   8
#     4  10  19  33  53  86 127 148 181 256 298 354
#     4  11  22  33  56  93 125 149 197 244 310 355
#     4   9  21  39  62  78 115 166 206 241 282 352
#     4   9  20  40  58  83 119 157 206 240 306 350
#     4  10  21  35  61  88 115 156 197 256 301 356
#     4  10  20  34  54  84 123 155 192 237 300 355
#     4  11  22  37  62  89 117 164 204 240 290 362
#     4  12  21  30  55  88 123 155 179 241 309 361
#
# _framework density 21.585597
#
# number of rings (size 3 to 8) (size 9 to 14) (size 15 to 20)
#    0.000    1.750    2.500    2.250    3.500    0.500 
#    0.000    0.000    8.250    0.750    0.000    0.000 
#    0.000    0.000    0.000    0.000    0.000    0.000 
#
# Total GULP energy -178275.984233 kJ/mol
# GULP energy per Si atom -5571.124507 kJ/mol
# Density = 2.153647 g / cm^3
# Si number density = 21.585597 Si / 1000 Ang^3
#
#
#
# Elastic Constant Matrix: (Units=GPa)
#
#
# Indices 1 2 3 4 5 6 
#
# 1 64.9132 6.4125 21.5415 -0.0022 -10.7550 0.0196
# 2 6.4125 46.9160 14.1902 0.0299 -11.8991 0.0011
# 3 21.5415 14.1902 106.2200 0.0139 -23.8442 0.0278
# 4 -0.0022 0.0299 0.0139 20.2077 -0.0012 -3.8722
# 5 -10.7550 -11.8991 -23.8442 -0.0012 42.5498 -0.0212
# 6 0.0196 0.0011 0.0278 -3.8722 -0.0212 27.0224
#
#
#
# Elastic Compliance Matrix: (Units=1/GPa)
#
#
# Indices 1 2 3 4 5 6 
#
# 1 0.016808 -0.000840 -0.002740 0.000004 0.002478 -0.000007
# 2 -0.000840 0.023309 -0.001748 -0.000033 0.005327 0.000001
# 3 -0.002740 -0.001748 0.011369 -0.000006 0.005189 -0.000006
# 4 0.000004 -0.000033 -0.000006 0.050883 -0.000007 0.007291
# 5 0.002478 0.005327 0.005189 -0.000007 0.028526 0.000014
# 6 -0.000007 0.000001 -0.000006 0.007291 0.000014 0.038051
#
#
# Mechanical properties :
#
#
# Convention : Reuss Voigt Hill
#
# Bulk Modulus (GPa) = 24.49211 33.59308 29.04259
# Shear Modulus (GPa) = 25.87828 29.68297 27.78063
#
# Velocity S-wave (km/s) = 3.46622 3.71230 3.59137
# Velocity P-wave (km/s) = 5.23362 5.82850 5.53905
#
# Compressibility (1/GPa) = 0.04082948
#
# Stress axis : x y z
#
# Youngs Moduli (GPa) = 59.49524 42.90165 87.96204
#
# Poissons Ratio (x) = 0.03604 0.24104
# Poissons Ratio (y) = 0.04998 0.15374
# Poissons Ratio (z) = 0.16303 0.07498
#
# Static dielectric constant tensor:
#      x y z
#    x 1.883670 0.000000 0.118470 
#    y 0.000000 1.829610 0.000000 
#    z 0.118470 0.000000 1.869620 
# 
# From -- ./inp_files/293757.got.cif
#   From: 2010.05.17/outbox.cif.g08.bks.cpg/sg15_147_cif.got.tgz:293757.got - 2010.06.03 18:47:42.
