data_PCOD9262743
_publ_section_title
;
Structure prediction by ZEFSAII (Michael W. Deem and Ramdas Pophale) SiO2 
 PCOD9262743
Probable space group: C 2/C
;
_chemical_formula_sum "Si O2"
_cell_formula_units_Z 64
_cell_length_a 13.805479
_cell_length_b 14.814310
_cell_length_c 26.049297
_cell_angle_alpha 90.000000
_cell_angle_beta 39.441563
_cell_angle_gamma 90.000000
_cell_volume 3384.554774
_symmetry_space_group_name_H-M "C 2/C"
_symmetry_group_IT_number 15
_symmetry_cell_setting 'monoclinic'
loop_
_space_group_symop_operation_xyz
x,y,z
-x,y,1/2-z
-x,-y,-z
x,-y,1/2+z
1/2+x,1/2+y,z
1/2-x,1/2+y,1/2-z
1/2-x,1/2-y,-z
1/2+x,1/2-y,1/2+z
loop_
_atom_site_type_symbol
_atom_site_label
_atom_site_fract_x
_atom_site_fract_y
_atom_site_fract_z
Si Si1 0.854785 0.272194 0.073869
Si Si2 0.046318 0.979911 0.141391
Si Si3 0.818569 0.110837 0.276975
Si Si4 0.333146 0.026156 0.583817
Si Si5 0.107968 0.977518 0.407051
Si Si6 0.223226 0.361982 0.699830
Si Si7 0.126111 0.231140 0.887931
Si Si8 0.474399 0.273898 0.338356
O O1 0.831317 0.372051 0.104429
O O2 0.850809 0.201105 0.121410
O O3 0.703936 0.254426 0.100162
O O4 0.010454 0.267178 0.978494
O O5 0.225910 0.978505 0.077504
O O6 0.995026 0.881125 0.184317
O O7 0.990846 0.987197 0.105414
O O8 0.982120 0.064730 0.199999
O O9 0.753696 0.113569 0.245984
O O10 0.777012 0.208010 0.318111
O O11 0.728090 0.040082 0.348243
O O12 0.500000 0.000000 0.500000
O O13 0.158143 0.873254 0.387111
O O14 0.252119 0.045667 0.342355
O O15 0.000000 0.000000 0.500000
O O16 0.077213 0.296185 0.764148
O O17 0.027624 0.236878 0.875482
#
# Coordination Sequence:
#
# PCOD9262743 Si02
#       8
#     8   8   8   8   8   8   8   8
#     4  11  19  33  56  85 114 144 189 244 298 340
#     4   9  20  36  60  86 115 152 191 236 297 348
#     4  10  20  36  54  81 116 149 189 230 288 343
#     4  11  21  36  60  90 114 146 194 248 293 340
#     4  10  19  36  57  83 117 158 190 234 287 349
#     4  10  20  33  54  81 112 153 187 226 292 349
#     4  10  19  33  55  84 112 153 191 232 289 347
#     4   9  19  33  53  87 115 141 186 244 297 347
#
# _framework density 18.909428999999999
#
# number of rings (size 3 to 8) (size 9 to 14) (size 15 to 20)
#    0.000    2.000    2.500    1.875    0.000    3.000 
#    0.000    0.000    0.000   11.250    0.000    0.000 
#    0.000    0.000    0.000    0.000    0.000    0.000 
#
# Total GULP energy -178195.409374 kJ/mol
# GULP energy per Si atom -5568.606543 kJ/mol
# Density = 1.886639 g / cm^3
# Si number density = 18.909429 Si / 1000 Ang^3
#
#
#
# Elastic Constant Matrix: (Units=GPa)
#
#
# Indices 1 2 3 4 5 6 
#
# 1 46.0611 23.5964 18.2869 0.0000 1.7801 0.0000
# 2 23.5964 135.4366 43.8123 0.0000 0.4284 0.0000
# 3 18.2869 43.8123 85.5192 -0.0001 1.2654 0.0000
# 4 0.0000 0.0000 -0.0001 35.4905 0.0000 5.6483
# 5 1.7801 0.4284 1.2654 0.0000 31.9934 0.0000
# 6 0.0000 0.0000 0.0000 5.6483 0.0000 18.5254
#
#
#
# Elastic Compliance Matrix: (Units=1/GPa)
#
#
# Indices 1 2 3 4 5 6 
#
# 1 0.024823 -0.003128 -0.003688 0.000000 -0.001193 0.000000
# 2 -0.003128 0.009245 -0.004070 0.000000 0.000211 0.000000
# 3 -0.003688 -0.004070 0.014572 0.000000 -0.000317 0.000000
# 4 0.000000 0.000000 0.000000 0.029614 0.000000 -0.009029
# 5 -0.001193 0.000211 -0.000317 0.000000 0.031333 0.000000
# 6 0.000000 0.000000 0.000000 -0.009029 0.000000 0.056733
#
#
# Mechanical properties :
#
#
# Convention : Reuss Voigt Hill
#
# Bulk Modulus (GPa) = 37.22039 48.71202 42.96621
# Shear Modulus (GPa) = 25.37479 29.28996 27.33238
#
# Velocity S-wave (km/s) = 3.66719 3.93995 3.80601
# Velocity P-wave (km/s) = 6.13655 6.82014 6.48735
#
# Compressibility (1/GPa) = 0.02686699
#
# Stress axis : x y z
#
# Youngs Moduli (GPa) = 40.28533 108.17197 68.62574
#
# Poissons Ratio (x) = 0.33837 0.25308
# Poissons Ratio (y) = 0.12601 0.27933
# Poissons Ratio (z) = 0.14856 0.44029
#
# Static dielectric constant tensor:
#      x y z
#    x 1.660530 0.000000 -0.002880 
#    y 0.000000 1.708910 0.000000 
#    z -0.002880 0.000000 1.653150 
# 
# From -- ./inp_files/296409.got.cif
#   From: 2010.05.17/outbox.cif.g08.bks.cpg/sg15_149_cif.got.tgz:296409.got - 2010.06.03 18:47:42.
