data_PCOD9262903
_publ_section_title
;
Structure prediction by ZEFSAII (Michael W. Deem and Ramdas Pophale) SiO2 
 PCOD9262903
Probable space group: C 2/C
;
_chemical_formula_sum "Si O2"
_cell_formula_units_Z 48
_cell_length_a 15.897713
_cell_length_b 10.645388
_cell_length_c 21.059154
_cell_angle_alpha 90.000000
_cell_angle_beta 51.265197
_cell_angle_gamma 90.000000
_cell_volume 2780.095874
_symmetry_space_group_name_H-M "C 2/C"
_symmetry_group_IT_number 15
_symmetry_cell_setting 'monoclinic'
loop_
_space_group_symop_operation_xyz
x,y,z
-x,y,1/2-z
-x,-y,-z
x,-y,1/2+z
1/2+x,1/2+y,z
1/2-x,1/2+y,1/2-z
1/2-x,1/2-y,-z
1/2+x,1/2-y,1/2+z
loop_
_atom_site_type_symbol
_atom_site_label
_atom_site_fract_x
_atom_site_fract_y
_atom_site_fract_z
Si Si1 0.440066 0.643485 0.710103
Si Si2 0.594194 0.501898 0.537377
Si Si3 0.705891 0.109384 0.001682
Si Si4 0.962609 0.795776 0.540976
Si Si5 0.301568 0.094001 0.646387
Si Si6 0.960589 0.373336 0.611876
O O1 0.500000 0.654167 0.750000
O O2 0.517927 0.564034 0.627052
O O3 0.319903 0.587987 0.771036
O O4 0.423436 0.776732 0.683189
O O5 0.715745 0.510697 0.502957
O O6 0.550387 0.365135 0.542047
O O7 0.586217 0.593147 0.479763
O O8 0.711976 0.092066 0.923408
O O9 0.750000 0.250000 0.000000
O O10 0.581197 0.089831 0.076990
O O11 0.869793 0.722941 0.623012
O O12 0.017706 0.699989 0.465022
O O13 0.377609 0.984094 0.637082
#
# Coordination Sequence:
#
# PCOD9262903 Si02
#       6
#     8   8   8   8   8   8
#     4  11  21  36  56  81 107 145 189 230 275 324
#     4  10  19  33  57  87 107 141 187 229 268 326
#     4  11  16  35  58  82 104 140 192 227 256 320
#     4   9  19  35  56  81 113 142 182 224 276 322
#     4  11  21  35  56  79 118 145 177 232 276 331
#     4  10  22  37  55  84 109 147 189 225 280 328
#
# _framework density 17.265591000000001
#
# number of rings (size 3 to 8) (size 9 to 14) (size 15 to 20)
#    0.000    1.667    6.667    2.000    2.333    0.000 
#    0.000    3.333    0.000    1.000    0.000    0.000 
#    0.000    0.000    0.000    0.000    0.000    0.000 
#
# Total GULP energy -133742.235056 kJ/mol
# GULP energy per Si atom -5572.593127 kJ/mol
# Density = 1.722629 g / cm^3
# Si number density = 17.265591 Si / 1000 Ang^3
#
#
#
# Elastic Constant Matrix: (Units=GPa)
#
#
# Indices 1 2 3 4 5 6 
#
# 1 141.9756 61.2113 35.7704 0.0000 -24.2127 0.0000
# 2 61.2113 62.5126 20.4583 0.0000 -11.5879 0.0000
# 3 35.7704 20.4583 40.8245 0.0000 -17.3884 0.0000
# 4 0.0000 0.0000 0.0000 8.8724 0.0000 -6.9576
# 5 -24.2127 -11.5879 -17.3884 0.0000 27.8394 0.0000
# 6 0.0000 0.0000 0.0000 -6.9576 0.0000 41.2200
#
#
#
# Elastic Compliance Matrix: (Units=1/GPa)
#
#
# Indices 1 2 3 4 5 6 
#
# 1 0.013767 -0.011157 -0.004564 0.000000 0.004479 0.000000
# 2 -0.011157 0.028325 -0.004810 0.000000 -0.000917 0.000000
# 3 -0.004564 -0.004810 0.038641 0.000000 0.018163 0.000000
# 4 0.000000 0.000000 0.000000 0.129905 0.000000 0.021927
# 5 0.004479 -0.000917 0.018163 0.000000 0.050779 0.000000
# 6 0.000000 0.000000 0.000000 0.021927 0.000000 0.027961
#
#
# Mechanical properties :
#
#
# Convention : Reuss Voigt Hill
#
# Bulk Modulus (GPa) = 25.20665 53.35477 39.28071
# Shear Modulus (GPa) = 14.54909 24.11120 19.33015
#
# Velocity S-wave (km/s) = 2.90602 3.74102 3.34964
# Velocity P-wave (km/s) = 5.08832 7.04484 6.14494
#
# Compressibility (1/GPa) = 0.03967208
#
# Stress axis : x y z
#
# Youngs Moduli (GPa) = 72.63504 35.30395 25.87934
#
# Poissons Ratio (x) = 0.39388 0.11812
# Poissons Ratio (y) = 0.81038 0.12447
# Poissons Ratio (z) = 0.33152 0.16980
#
# Static dielectric constant tensor:
#      x y z
#    x 1.611190 0.000000 -0.014320 
#    y 0.000000 1.595530 0.000000 
#    z -0.014320 0.000000 1.602540 
# 
# From -- ./inp_files/203247.got.cif
#   From: 2010.05.17/outbox.cif.g08.bks.cpg/sg15_102_cif.got.tgz:203247.got - 2010.06.03 18:47:42.
