data_PCOD9262963
_publ_section_title
;
Structure prediction by ZEFSAII (Michael W. Deem and Ramdas Pophale) SiO2 
 PCOD9262963
Probable space group: C 2/C
;
_chemical_formula_sum "Si O2"
_cell_formula_units_Z 64
_cell_length_a 17.641503
_cell_length_b 20.960326
_cell_length_c 16.852265
_cell_angle_alpha 90.000000
_cell_angle_beta 147.985001
_cell_angle_gamma 90.000000
_cell_volume 3303.569845
_symmetry_space_group_name_H-M "C 2/C"
_symmetry_group_IT_number 15
_symmetry_cell_setting 'monoclinic'
loop_
_space_group_symop_operation_xyz
x,y,z
-x,y,1/2-z
-x,-y,-z
x,-y,1/2+z
1/2+x,1/2+y,z
1/2-x,1/2+y,1/2-z
1/2-x,1/2-y,-z
1/2+x,1/2-y,1/2+z
loop_
_atom_site_type_symbol
_atom_site_label
_atom_site_fract_x
_atom_site_fract_y
_atom_site_fract_z
Si Si1 0.152157 0.972737 0.916263
Si Si2 0.625642 0.066378 0.307711
Si Si3 0.026602 0.772342 0.021256
Si Si4 0.713697 0.122470 0.090308
Si Si5 0.274704 0.379591 0.378802
Si Si6 0.742641 0.168908 0.285314
Si Si7 0.996315 0.706932 0.831177
Si Si8 0.553815 0.960949 0.121221
O O1 0.214701 0.930487 0.899965
O O2 0.000000 0.995534 0.750000
O O3 0.147541 0.922094 0.985410
O O4 0.251333 0.031506 0.031722
O O5 0.500000 0.095275 0.250000
O O6 0.685927 0.116313 0.296827
O O7 0.553895 0.007027 0.196922
O O8 0.129548 0.828300 0.080869
O O9 0.120288 0.720310 0.152293
O O10 0.963868 0.742604 0.883883
O O11 0.887985 0.797951 0.944278
O O12 0.784413 0.137165 0.237133
O O13 0.660244 0.183091 0.992429
O O14 0.558382 0.095409 0.974073
O O15 0.209353 0.429638 0.257493
O O16 0.133519 0.345046 0.292133
O O17 0.000000 0.742643 0.750000
O O18 0.500000 0.000000 0.000000
#
# Coordination Sequence:
#
# PCOD9262963 Si02
#       8
#     8   8   8   8   8   8   8   8
#     4  11  22  38  60  94 131 158 191 252 309 361
#     4  11  23  42  65  90 118 158 206 251 309 372
#     4  11  23  41  58  86 126 165 205 249 292 352
#     4  10  19  34  59  88 123 152 190 241 295 363
#     4  10  21  36  59  90 126 166 199 245 296 359
#     4  11  24  41  64  91 119 158 205 253 302 362
#     4  10  19  33  58  86 122 164 203 230 284 360
#     4  10  19  36  63  92 116 154 203 245 302 366
#
# _framework density 19.372982
#
# number of rings (size 3 to 8) (size 9 to 14) (size 15 to 20)
#    0.000    1.500    5.000    0.750    0.000    2.000 
#    2.250    3.750    0.000    0.000    0.000    0.000 
#    0.000    0.000    0.000    0.000    0.000    0.000 
#
# Total GULP energy -178320.228161 kJ/mol
# GULP energy per Si atom -5572.507130 kJ/mol
# Density = 1.932889 g / cm^3
# Si number density = 19.372982 Si / 1000 Ang^3
#
#
#
# Elastic Constant Matrix: (Units=GPa)
#
#
# Indices 1 2 3 4 5 6 
#
# 1 53.4514 35.4627 35.4871 0.0000 -5.4445 0.0000
# 2 35.4627 71.6217 34.1950 0.0000 -2.9333 0.0000
# 3 35.4871 34.1950 105.3704 0.0001 -6.4425 0.0000
# 4 0.0000 0.0000 0.0001 19.2438 0.0000 15.5343
# 5 -5.4445 -2.9333 -6.4425 0.0000 16.1698 0.0000
# 6 0.0000 0.0000 0.0000 15.5343 0.0000 14.9130
#
#
#
# Elastic Compliance Matrix: (Units=1/GPa)
#
#
# Indices 1 2 3 4 5 6 
#
# 1 0.031769 -0.012487 -0.006285 0.000000 0.005928 0.000000
# 2 -0.012487 0.021442 -0.002842 0.000000 -0.001447 0.000000
# 3 -0.006285 -0.002842 0.012677 0.000000 0.002419 0.000001
# 4 0.000000 0.000000 0.000000 0.326544 -0.000001 -0.340147
# 5 0.005928 -0.001447 0.002419 -0.000001 0.064541 0.000001
# 6 0.000000 0.000000 0.000001 -0.340147 0.000001 0.421372
#
#
# Mechanical properties :
#
#
# Convention : Reuss Voigt Hill
#
# Bulk Modulus (GPa) = 44.12604 48.97035 46.54820
# Shear Modulus (GPa) = 5.38140 18.41858 11.89999
#
# Velocity S-wave (km/s) = 1.66848 3.08674 2.48111
# Velocity P-wave (km/s) = 5.15153 6.16738 5.68220
#
# Compressibility (1/GPa) = 0.02266235
#
# Stress axis : x y z
#
# Youngs Moduli (GPa) = 31.47679 46.63642 78.88293
#
# Poissons Ratio (x) = 0.58235 0.49576
# Poissons Ratio (y) = 0.39305 0.22415
# Poissons Ratio (z) = 0.19782 0.13252
#
# Static dielectric constant tensor:
#      x y z
#    x 1.616990 0.000000 0.046220 
#    y 0.000000 6.099760 0.000000 
#    z 0.046220 0.000000 1.702600 
# 
# From -- ./inp_files/211993.got.cif
#   From: 2010.05.17/outbox.cif.g08.bks.cpg/sg15_106_cif.got.tgz:211993.got - 2010.06.03 18:47:42.
