data_PCOD9262281
_publ_section_title
;
Structure prediction by ZEFSAII (Michael W. Deem and Ramdas Pophale) SiO2 
 PCOD9262281
Probable space group: C 2/C
;
_chemical_formula_sum "Si O2"
_cell_formula_units_Z 56
_cell_length_a 14.906116
_cell_length_b 9.182255
_cell_length_c 20.084523
_cell_angle_alpha 90.000000
_cell_angle_beta 123.325815
_cell_angle_gamma 90.000000
_cell_volume 2296.957516
_symmetry_space_group_name_H-M "C 2/C"
_symmetry_group_IT_number 15
_symmetry_cell_setting 'monoclinic'
loop_
_space_group_symop_operation_xyz
x,y,z
-x,y,1/2-z
-x,-y,-z
x,-y,1/2+z
1/2+x,1/2+y,z
1/2-x,1/2+y,1/2-z
1/2-x,1/2-y,-z
1/2+x,1/2-y,1/2+z
loop_
_atom_site_type_symbol
_atom_site_label
_atom_site_fract_x
_atom_site_fract_y
_atom_site_fract_z
Si Si1 0.616174 0.583399 0.808985
Si Si2 0.621128 0.012525 0.523609
Si Si3 0.322173 0.221033 0.845641
Si Si4 0.650469 0.456183 0.119149
Si Si5 0.089108 0.994130 0.947564
Si Si6 0.046005 0.665367 0.880342
Si Si7 0.799879 0.791228 0.661921
O O1 0.500000 0.646922 0.750000
O O2 0.701687 0.666278 0.800016
O O3 0.631328 0.563699 0.895600
O O4 0.622916 0.419714 0.781933
O O5 0.605286 0.968467 0.441061
O O6 0.706083 0.892145 0.587320
O O7 0.500000 0.000000 0.500000
O O8 0.648623 0.168907 0.566188
O O9 0.320620 0.392136 0.835631
O O10 0.416635 0.152584 0.837526
O O11 0.524581 0.430572 0.081954
O O12 0.725758 0.322969 0.169218
O O13 0.658784 0.487797 0.042874
O O14 0.067723 0.821810 0.925417
O O15 0.113776 0.691916 0.841792
#
# Coordination Sequence:
#
# PCOD9262281 Si02
#       7
#     8   8   8   8   8   8   8
#     4  10  22  41  57  74 104 152 195 222 264 330
#     4   9  16  27  46  78 113 145 174 211 267 336
#     4   9  20  33  51  81 112 145 177 227 279 330
#     4  10  19  34  54  89 113 136 172 227 294 328
#     4   9  19  33  57  79 115 145 169 222 287 330
#     4   9  16  31  51  79 109 148 172 213 281 333
#     4  10  19  32  58  79 108 145 186 225 269 326
#
# _framework density 24.380077
#
# number of rings (size 3 to 8) (size 9 to 14) (size 15 to 20)
#    0.000    2.571    1.429    0.429    6.000    0.571 
#    0.000    5.000    0.000    0.000    0.000    0.000 
#    0.000    0.000    0.000    0.000    0.000    0.000 
#
# Total GULP energy -155941.609008 kJ/mol
# GULP energy per Si atom -5569.343179 kJ/mol
# Density = 2.432459 g / cm^3
# Si number density = 24.380077 Si / 1000 Ang^3
#
#
#
# Elastic Constant Matrix: (Units=GPa)
#
#
# Indices 1 2 3 4 5 6 
#
# 1 182.3063 30.6748 49.0337 0.0000 4.0537 0.0000
# 2 30.6748 29.3238 -5.5411 0.0000 5.3882 0.0000
# 3 49.0337 -5.5411 44.1664 0.0000 -14.2689 0.0000
# 4 0.0000 0.0000 0.0000 -18.9034 0.0000 15.9352
# 5 4.0537 5.3882 -14.2689 0.0000 46.5368 0.0000
# 6 0.0000 0.0000 0.0000 15.9352 0.0000 48.4267
#
#
#
# Elastic Compliance Matrix: (Units=1/GPa)
#
#
# Indices 1 2 3 4 5 6 
#
# 1 0.013355 -0.016562 -0.018493 0.000000 -0.004916 0.000000
# 2 -0.016562 0.055849 0.026384 0.000000 0.003066 0.000000
# 3 -0.018493 0.026384 0.051076 0.000000 0.014217 0.000000
# 4 0.000000 0.000000 0.000000 -0.041413 0.000000 0.013627
# 5 -0.004916 0.003066 0.014217 0.000000 0.025921 0.000000
# 6 0.000000 0.000000 0.000000 0.013627 0.000000 0.016166
#
#
# Mechanical properties :
#
#
# Convention : Reuss Voigt Hill
#
# Bulk Modulus (GPa) = 9.71452 44.90346 27.30899
# Shear Modulus (GPa) = 28.96758 27.32064 28.14411
#
# Velocity S-wave (km/s) = 3.45072 3.35119 3.40132
# Velocity P-wave (km/s) = 4.45756 5.78204 5.16246
#
# Compressibility (1/GPa) = 0.10293874
#
# Stress axis : x y z
#
# Youngs Moduli (GPa) = 74.87739 17.90548 19.57877
#
# Poissons Ratio (x) = 0.29654 0.36207
# Poissons Ratio (y) = 1.24009 -0.51657
# Poissons Ratio (z) = 1.38471 -0.47242
#
# Static dielectric constant tensor:
#      x y z
#    x 1.945420 0.000000 -0.021370 
#    y 0.000000 1.903910 0.000000 
#    z -0.021370 0.000000 2.133480 
# 
# From -- ./inp_files/273256.got.cif
#   From: 2010.05.17/outbox.cif.g08.bks.cpg/sg15_137_cif.got.tgz:273256.got - 2010.06.03 18:47:42.
