data_PCOD9262037
_publ_section_title
;
Structure prediction by ZEFSAII (Michael W. Deem and Ramdas Pophale) SiO2 
 PCOD9262037
Probable space group: C 2/C
;
_chemical_formula_sum "Si O2"
_cell_formula_units_Z 64
_cell_length_a 11.635891
_cell_length_b 32.355434
_cell_length_c 17.885619
_cell_angle_alpha 90.000000
_cell_angle_beta 31.037209
_cell_angle_gamma 90.000000
_cell_volume 3471.836242
_symmetry_space_group_name_H-M "C 2/C"
_symmetry_group_IT_number 15
_symmetry_cell_setting 'monoclinic'
loop_
_space_group_symop_operation_xyz
x,y,z
-x,y,1/2-z
-x,-y,-z
x,-y,1/2+z
1/2+x,1/2+y,z
1/2-x,1/2+y,1/2-z
1/2-x,1/2-y,-z
1/2+x,1/2-y,1/2+z
loop_
_atom_site_type_symbol
_atom_site_label
_atom_site_fract_x
_atom_site_fract_y
_atom_site_fract_z
Si Si1 0.335067 0.408764 0.275934
Si Si2 0.787957 0.188346 0.311924
Si Si3 0.084550 0.942583 0.886300
Si Si4 0.482039 0.843044 0.102082
Si Si5 0.791367 0.281549 0.309876
Si Si6 0.006099 0.539244 0.441703
Si Si7 0.655601 0.471766 0.008237
Si Si8 0.599662 0.351341 0.519242
O O1 0.500000 0.393284 0.250000
O O2 0.223228 0.374508 0.286053
O O3 0.127218 0.427424 0.436452
O O4 0.464313 0.444268 0.156805
O O5 0.601554 0.161078 0.455875
O O6 0.702085 0.235294 0.350848
O O7 0.000000 0.189628 0.250000
O O8 0.894259 0.168351 0.179625
O O9 0.258348 0.944808 0.720597
O O10 0.965005 0.898509 0.961169
O O11 0.196315 0.952341 0.904167
O O12 0.921051 0.981171 0.962014
O O13 0.388951 0.798508 0.178231
O O14 0.675464 0.853130 0.054848
O O15 0.647471 0.318577 0.426374
O O16 0.000000 0.277778 0.250000
O O17 0.000000 0.500000 0.500000
O O18 0.863474 0.528899 0.447549
#
# Coordination Sequence:
#
# PCOD9262037 Si02
#       8
#     8   8   8   8   8   8   8   8
#     4  10  21  38  54  75 105 141 188 223 275 323
#     4   9  17  31  49  79 113 140 171 214 274 338
#     4  11  22  37  56  80 115 140 184 231 270 326
#     4  10  19  32  52  80 104 140 180 224 271 321
#     4   9  17  31  51  75 112 143 168 210 275 342
#     4  11  22  38  57  78 102 147 188 227 271 320
#     4  10  23  39  54  78 108 152 183 221 279 324
#     4  10  20  31  51  84 108 140 178 222 273 325
#
# _framework density 18.434049000000002
#
# number of rings (size 3 to 8) (size 9 to 14) (size 15 to 20)
#    0.000    2.000    1.250    2.625    1.750    3.000 
#    0.000    1.250    0.000    0.750    0.000    3.500 
#    0.000    0.000    0.000    0.000    0.000    0.000 
#
# Total GULP energy -178326.109096 kJ/mol
# GULP energy per Si atom -5572.690909 kJ/mol
# Density = 1.839209 g / cm^3
# Si number density = 18.434049 Si / 1000 Ang^3
#
#
#
# Elastic Constant Matrix: (Units=GPa)
#
#
# Indices 1 2 3 4 5 6 
#
# 1 32.5641 33.4930 0.6667 0.0000 7.5213 0.0000
# 2 33.4930 113.2827 25.0536 0.0000 -11.0750 0.0000
# 3 0.6667 25.0536 68.6414 0.0000 11.3662 0.0000
# 4 0.0000 0.0000 0.0000 20.8607 0.0000 -0.6305
# 5 7.5213 -11.0750 11.3662 0.0000 19.1318 0.0000
# 6 0.0000 0.0000 0.0000 -0.6305 0.0000 13.0510
#
#
#
# Elastic Compliance Matrix: (Units=1/GPa)
#
#
# Indices 1 2 3 4 5 6 
#
# 1 0.083905 -0.036808 0.023968 0.000000 -0.068532 0.000000
# 2 -0.036808 0.027172 -0.016150 0.000000 0.039794 0.000000
# 3 0.023968 -0.016150 0.025885 0.000000 -0.034149 0.000000
# 4 0.000000 0.000000 0.000000 0.048007 0.000000 0.002319
# 5 -0.068532 0.039794 -0.034149 0.000000 0.122536 0.000000
# 6 0.000000 0.000000 0.000000 0.002319 0.000000 0.076735
#
#
# Mechanical properties :
#
#
# Convention : Reuss Voigt Hill
#
# Bulk Modulus (GPa) = 12.66106 36.99051 24.82578
# Shear Modulus (GPa) = 10.67131 20.96035 15.81583
#
# Velocity S-wave (km/s) = 2.40863 3.37567 2.93229
# Velocity P-wave (km/s) = 3.82342 5.94167 4.99610
#
# Compressibility (1/GPa) = 0.07898235
#
# Stress axis : x y z
#
# Youngs Moduli (GPa) = 11.91830 36.80243 38.63253
#
# Poissons Ratio (x) = 1.35462 -0.92594
# Poissons Ratio (y) = 0.43869 0.62390
# Poissons Ratio (z) = -0.28566 0.59434
#
# Static dielectric constant tensor:
#      x y z
#    x 1.653130 0.000000 0.013620 
#    y 0.000000 1.640250 0.000000 
#    z 0.013620 0.000000 1.657600 
# 
# From -- ./inp_files/201465.got.cif
#   From: 2010.05.17/outbox.cif.g08.bks.cpg/sg15_101_cif.got.tgz:201465.got - 2010.06.03 18:47:42.
