data_PCOD9262456
_publ_section_title
;
Structure prediction by ZEFSAII (Michael W. Deem and Ramdas Pophale) SiO2 
 PCOD9262456
Probable space group: C 2/C
;
_chemical_formula_sum "Si O2"
_cell_formula_units_Z 52
_cell_length_a 19.932207
_cell_length_b 8.364199
_cell_length_c 23.632520
_cell_angle_alpha 90.000000
_cell_angle_beta 32.674139
_cell_angle_gamma 90.000000
_cell_volume 2127.018589
_symmetry_space_group_name_H-M "C 2/C"
_symmetry_group_IT_number 15
_symmetry_cell_setting 'monoclinic'
loop_
_space_group_symop_operation_xyz
x,y,z
-x,y,1/2-z
-x,-y,-z
x,-y,1/2+z
1/2+x,1/2+y,z
1/2-x,1/2+y,1/2-z
1/2-x,1/2-y,-z
1/2+x,1/2-y,1/2+z
loop_
_atom_site_type_symbol
_atom_site_label
_atom_site_fract_x
_atom_site_fract_y
_atom_site_fract_z
Si Si1 0.500000 0.390825 0.750000
Si Si2 0.156631 0.447942 0.681956
Si Si3 0.107293 0.454141 0.090614
Si Si4 0.672878 0.008855 0.357761
Si Si5 0.948343 0.669077 0.465686
Si Si6 0.573335 0.614887 0.799164
Si Si7 0.272771 0.745375 0.581261
O O1 0.508956 0.504076 0.798482
O O2 0.630528 0.293560 0.662602
O O3 0.155820 0.464685 0.613951
O O4 0.132596 0.269025 0.722530
O O5 0.270577 0.569031 0.610548
O O6 0.038646 0.541824 0.792400
O O7 0.136500 0.578043 0.019555
O O8 0.147621 0.289238 0.031239
O O9 0.608674 0.853971 0.432288
O O10 0.814014 0.966526 0.246939
O O11 0.581665 0.077838 0.375804
O O12 0.681063 0.140581 0.401465
O O13 0.976861 0.831968 0.415041
#
# Coordination Sequence:
#
# PCOD9262456 Si02
#       7
#     4   8   8   8   8   8   8
#     4  10  20  34  52  80 106 132 176 210 254 318
#     4  10  19  33  52  77 104 132 172 213 258 307
#     4   9  18  32  51  74 101 135 167 207 257 303
#     4   9  20  36  54  76 101 137 176 208 254 311
#     4   9  18  35  55  73 103 139 172 208 256 308
#     4  10  20  34  55  80 105 133 172 222 257 295
#     4  10  20  34  53  74 104 139 167 208 260 311
#
# _framework density 24.447364
#
# number of rings (size 3 to 8) (size 9 to 14) (size 15 to 20)
#    0.000    2.462    0.000    3.231    0.000    3.692 
#    0.000    8.462    0.000    9.231    0.000    0.000 
#    0.000    0.000    0.000    0.000    0.000    0.000 
#
# Total GULP energy -144802.676934 kJ/mol
# GULP energy per Si atom -5569.333728 kJ/mol
# Density = 2.439172 g / cm^3
# Si number density = 24.447364 Si / 1000 Ang^3
#
#
#
# Elastic Constant Matrix: (Units=GPa)
#
#
# Indices 1 2 3 4 5 6 
#
# 1 61.3087 7.6938 13.0982 -0.0001 0.9272 -0.0004
# 2 7.6938 59.4900 28.6478 0.0000 -5.0725 -0.0007
# 3 13.0982 28.6478 24.2547 0.0000 3.3531 -0.0001
# 4 -0.0001 0.0000 0.0000 37.4175 0.0001 -6.0450
# 5 0.9272 -5.0725 3.3531 0.0001 27.1086 0.0001
# 6 -0.0004 -0.0007 -0.0001 -6.0450 0.0001 12.6521
#
#
#
# Elastic Compliance Matrix: (Units=1/GPa)
#
#
# Indices 1 2 3 4 5 6 
#
# 1 0.019486 0.006966 -0.019167 0.000000 0.003008 0.000001
# 2 0.006966 0.046756 -0.061209 0.000000 0.016082 0.000002
# 3 -0.019167 -0.061209 0.127550 0.000000 -0.026575 -0.000002
# 4 0.000000 0.000000 0.000000 0.028961 0.000000 0.013837
# 5 0.003008 0.016082 -0.026575 0.000000 0.043082 0.000000
# 6 0.000001 0.000002 -0.000002 0.013837 0.000000 0.085650
#
#
# Mechanical properties :
#
#
# Convention : Reuss Voigt Hill
#
# Bulk Modulus (GPa) = 21.28964 27.10368 24.19666
# Shear Modulus (GPa) = 9.72836 21.80987 15.76911
#
# Velocity S-wave (km/s) = 1.99698 2.99007 2.54249
# Velocity P-wave (km/s) = 3.74760 4.79909 4.30557
#
# Compressibility (1/GPa) = 0.04697120
#
# Stress axis : x y z
#
# Youngs Moduli (GPa) = 51.31871 21.38779 7.84009
#
# Poissons Ratio (x) = -0.14899 0.15027
# Poissons Ratio (y) = -0.35750 0.47989
# Poissons Ratio (z) = 0.98362 1.30913
#
# Static dielectric constant tensor:
#      x y z
#    x 1.961330 0.000000 -0.041970 
#    y 0.000000 2.087510 0.000000 
#    z -0.041970 0.000000 1.968040 
# 
# From -- ./inp_files/279512.got.cif
#   From: 2010.05.17/outbox.cif.g08.bks.cpg/sg15_140_cif.got.tgz:279512.got - 2010.06.03 18:47:42.
