data_PCOD9262216
_publ_section_title
;
Structure prediction by ZEFSAII (Michael W. Deem and Ramdas Pophale) SiO2 
 PCOD9262216
Probable space group: C 2/C
;
_chemical_formula_sum "Si O2"
_cell_formula_units_Z 48
_cell_length_a 19.826970
_cell_length_b 7.395238
_cell_length_c 16.710726
_cell_angle_alpha 90.000000
_cell_angle_beta 70.687721
_cell_angle_gamma 90.000000
_cell_volume 2312.339666
_symmetry_space_group_name_H-M "C 2/C"
_symmetry_group_IT_number 15
_symmetry_cell_setting 'monoclinic'
loop_
_space_group_symop_operation_xyz
x,y,z
-x,y,1/2-z
-x,-y,-z
x,-y,1/2+z
1/2+x,1/2+y,z
1/2-x,1/2+y,1/2-z
1/2-x,1/2-y,-z
1/2+x,1/2-y,1/2+z
loop_
_atom_site_type_symbol
_atom_site_label
_atom_site_fract_x
_atom_site_fract_y
_atom_site_fract_z
Si Si1 0.833147 0.204390 0.962870
Si Si2 0.082198 0.258230 0.722252
Si Si3 0.707880 0.670590 0.090766
Si Si4 0.699966 0.745782 0.798596
Si Si5 0.165589 0.830497 0.856498
Si Si6 0.578802 0.316260 0.740259
O O1 0.877736 0.304134 0.876722
O O2 0.830309 0.000861 0.932845
O O3 0.750000 0.250000 0.000000
O O4 0.856681 0.216469 0.045118
O O5 0.130213 0.318765 0.779375
O O6 0.000000 0.316925 0.750000
O O7 0.080970 0.037010 0.731626
O O8 0.764848 0.646427 0.140883
O O9 0.641241 0.767486 0.160371
O O10 0.750000 0.750000 0.000000
O O11 0.761714 0.739946 0.706152
O O12 0.682582 0.545720 0.839726
O O13 0.102616 0.780410 0.820984
O O14 0.500000 0.255751 0.750000
#
# Coordination Sequence:
#
# PCOD9262216 Si02
#       6
#     8   8   8   8   8   8
#     4  11  20  34  55  81 105 138 184 220 259 318
#     4   9  18  34  52  77 107 137 175 222 267 315
#     4  10  19  33  53  78 105 133 177 220 258 309
#     4  10  19  34  54  79 106 143 173 215 270 312
#     4  10  19  32  56  80 106 140 177 218 266 311
#     4   8  17  33  50  75 108 135 169 217 266 309
#
# _framework density 20.758196000000002
#
# number of rings (size 3 to 8) (size 9 to 14) (size 15 to 20)
#    0.000    2.333    3.333    1.000    0.000    0.000 
#    3.000    3.333    0.000   10.000    0.000    0.000 
#    0.000    0.000    0.000    0.000    0.000    0.000 
#
# Total GULP energy -133753.245013 kJ/mol
# GULP energy per Si atom -5573.051876 kJ/mol
# Density = 2.071095 g / cm^3
# Si number density = 20.758196 Si / 1000 Ang^3
#
#
#
# Elastic Constant Matrix: (Units=GPa)
#
#
# Indices 1 2 3 4 5 6 
#
# 1 175.0880 -11.0449 85.8991 0.0000 15.3697 0.0000
# 2 -11.0449 28.3374 6.1914 0.0000 10.8704 0.0000
# 3 85.8991 6.1914 178.3806 0.0000 21.2984 0.0000
# 4 0.0000 0.0000 0.0000 15.4745 0.0000 -2.2314
# 5 15.3697 10.8704 21.2984 0.0000 26.0454 0.0000
# 6 0.0000 0.0000 0.0000 -2.2314 0.0000 11.9216
#
#
#
# Elastic Compliance Matrix: (Units=1/GPa)
#
#
# Indices 1 2 3 4 5 6 
#
# 1 0.008229 0.005622 -0.003655 0.000000 -0.004214 0.000000
# 2 0.005622 0.045937 -0.001791 0.000000 -0.021026 0.000000
# 3 -0.003655 -0.001791 0.007848 0.000000 -0.003513 0.000000
# 4 0.000000 0.000000 0.000000 0.066415 0.000000 0.012431
# 5 -0.004214 -0.021026 -0.003513 0.000000 0.052529 0.000000
# 6 0.000000 0.000000 0.000000 0.012431 0.000000 0.086208
#
#
# Mechanical properties :
#
#
# Convention : Reuss Voigt Hill
#
# Bulk Modulus (GPa) = 16.03428 60.43303 38.23365
# Shear Modulus (GPa) = 17.38508 30.73897 24.06202
#
# Velocity S-wave (km/s) = 2.89711 3.85231 3.40833
# Velocity P-wave (km/s) = 4.35110 6.99736 5.82645
#
# Compressibility (1/GPa) = 0.06236640
#
# Stress axis : x y z
#
# Youngs Moduli (GPa) = 121.52129 21.76877 127.42895
#
# Poissons Ratio (x) = -0.12239 0.46571
# Poissons Ratio (y) = -0.68324 0.22829
# Poissons Ratio (z) = 0.44412 0.03900
#
# Static dielectric constant tensor:
#      x y z
#    x 1.758990 0.000000 0.016000 
#    y 0.000000 1.755600 0.000000 
#    z 0.016000 0.000000 1.747320 
# 
# From -- ./inp_files/160333.got.cif
#   From: 2010.05.17/outbox.cif.g08.bks.cpg/sg15_81_cif.got.tgz:160333.got - 2010.06.03 18:47:42.
