data_PCOD9262045
_publ_section_title
;
Structure prediction by ZEFSAII (Michael W. Deem and Ramdas Pophale) SiO2 
 PCOD9262045
Probable space group: C 2/C
;
_chemical_formula_sum "Si O2"
_cell_formula_units_Z 52
_cell_length_a 16.779849
_cell_length_b 15.370855
_cell_length_c 9.248186
_cell_angle_alpha 90.000000
_cell_angle_beta 57.615590
_cell_angle_gamma 90.000000
_cell_volume 2014.321340
_symmetry_space_group_name_H-M "C 2/C"
_symmetry_group_IT_number 15
_symmetry_cell_setting 'monoclinic'
loop_
_space_group_symop_operation_xyz
x,y,z
-x,y,1/2-z
-x,-y,-z
x,-y,1/2+z
1/2+x,1/2+y,z
1/2-x,1/2+y,1/2-z
1/2-x,1/2-y,-z
1/2+x,1/2-y,1/2+z
loop_
_atom_site_type_symbol
_atom_site_label
_atom_site_fract_x
_atom_site_fract_y
_atom_site_fract_z
Si Si1 0.794908 0.981485 0.752700
Si Si2 0.984985 0.346104 0.532349
Si Si3 0.680452 0.616071 0.004058
Si Si4 0.357948 0.782396 0.304043
Si Si5 0.500000 0.287911 0.250000
Si Si6 0.593032 0.996534 0.555538
Si Si7 0.302185 0.313475 0.566335
O O1 0.855587 0.934334 0.818288
O O2 0.768006 0.907867 0.658642
O O3 0.837719 0.062197 0.622623
O O4 0.706103 0.012718 0.935069
O O5 0.038724 0.303791 0.347974
O O6 0.066354 0.399277 0.535387
O O7 0.952502 0.273178 0.673007
O O8 0.919607 0.423862 0.544566
O O9 0.645425 0.714503 0.061391
O O10 0.795145 0.632873 0.899865
O O11 0.309772 0.740268 0.208957
O O12 0.409628 0.332907 0.408298
O O13 0.500000 0.014698 0.750000
O O14 0.250000 0.250000 0.500000
#
# Coordination Sequence:
#
# PCOD9262045 Si02
#       7
#     8   8   8   8   4   8   8
#     4  11  23  36  58  92 120 157 213 255 310 377
#     4  10  19  32  52  80 115 160 188 238 316 375
#     4  10  21  36  59  84 117 161 204 260 306 371
#     4   9  19  38  55  81 121 164 199 246 323 375
#     4  10  20  38  60  82 124 162 198 264 310 364
#     4  11  21  30  52  85 122 152 191 248 305 379
#     4  10  22  37  62  93 123 166 214 258 314 381
#
# _framework density 25.815147
#
# number of rings (size 3 to 8) (size 9 to 14) (size 15 to 20)
#    0.000    1.846    2.308    1.846    4.308    0.000 
#    0.000    0.000    0.000    8.308    0.000    0.000 
#    0.000    0.000    0.000    0.000    0.000    0.000 
#
# Total GULP energy -144917.144196 kJ/mol
# GULP energy per Si atom -5573.736315 kJ/mol
# Density = 2.575639 g / cm^3
# Si number density = 25.815147 Si / 1000 Ang^3
#
#
#
# Elastic Constant Matrix: (Units=GPa)
#
#
# Indices 1 2 3 4 5 6 
#
# 1 29.4858 11.5394 24.9336 0.0000 14.5991 0.0000
# 2 11.5394 47.7501 61.5298 0.0000 14.1569 0.0000
# 3 24.9336 61.5298 177.0538 0.0000 0.5210 0.0000
# 4 0.0000 0.0000 0.0000 27.4087 0.0000 23.7412
# 5 14.5991 14.1569 0.5210 0.0000 31.6827 0.0000
# 6 0.0000 0.0000 0.0000 23.7412 0.0000 11.9362
#
#
#
# Elastic Compliance Matrix: (Units=1/GPa)
#
#
# Indices 1 2 3 4 5 6 
#
# 1 0.053486 0.009355 -0.010699 0.000000 -0.028650 0.000000
# 2 0.009355 0.051137 -0.019009 0.000000 -0.026848 0.000000
# 3 -0.010699 -0.019009 0.013722 0.000000 0.013198 0.000000
# 4 0.000000 0.000000 0.000000 -0.050472 0.000000 0.100390
# 5 -0.028650 -0.026848 0.013198 0.000000 0.056544 0.000000
# 6 0.000000 0.000000 0.000000 0.100390 0.000000 -0.115898
#
#
# Mechanical properties :
#
#
# Convention : Reuss Voigt Hill
#
# Bulk Modulus (GPa) = 12.88028 50.03279 31.45654
# Shear Modulus (GPa) = 66.57409 24.62462 45.59935
#
# Velocity S-wave (km/s) = 5.08377 3.09185 4.20739
# Velocity P-wave (km/s) = 6.28171 5.67180 5.98453
#
# Compressibility (1/GPa) = 0.07763804
#
# Stress axis : x y z
#
# Youngs Moduli (GPa) = 18.69648 19.55544 72.87554
#
# Poissons Ratio (x) = -0.18294 0.77969
# Poissons Ratio (y) = -0.17491 1.38533
# Poissons Ratio (z) = 0.20003 0.37174
#
# Static dielectric constant tensor:
#      x y z
#    x 2.123300 0.000000 0.015910 
#    y 0.000000 2.015410 0.000000 
#    z 0.015910 0.000000 2.065660 
# 
# From -- ./inp_files/118730.got.cif
#   From: 2010.05.17/outbox.cif.g08.bks.cpg/sg15_60_cif.got.tgz:118730.got - 2010.06.03 18:47:42.
