data_PCOD9262812
_publ_section_title
;
Structure prediction by ZEFSAII (Michael W. Deem and Ramdas Pophale) SiO2 
 PCOD9262812
Probable space group: C 2/C
;
_chemical_formula_sum "Si O2"
_cell_formula_units_Z 52
_cell_length_a 23.495830
_cell_length_b 19.159754
_cell_length_c 5.064331
_cell_angle_alpha 90.000000
_cell_angle_beta 66.592153
_cell_angle_gamma 90.000000
_cell_volume 2092.202137
_symmetry_space_group_name_H-M "C 2/C"
_symmetry_group_IT_number 15
_symmetry_cell_setting 'monoclinic'
loop_
_space_group_symop_operation_xyz
x,y,z
-x,y,1/2-z
-x,-y,-z
x,-y,1/2+z
1/2+x,1/2+y,z
1/2-x,1/2+y,1/2-z
1/2-x,1/2-y,-z
1/2+x,1/2-y,1/2+z
loop_
_atom_site_type_symbol
_atom_site_label
_atom_site_fract_x
_atom_site_fract_y
_atom_site_fract_z
Si Si1 0.000000 0.448444 0.750000
Si Si2 0.814788 0.155341 0.901434
Si Si3 0.932707 0.291956 0.420052
Si Si4 0.235346 0.049155 0.849535
Si Si5 0.935205 0.805302 0.420628
Si Si6 0.632790 0.950395 0.507481
Si Si7 0.794969 0.705790 0.120610
O O1 0.066815 0.411211 0.618776
O O2 0.000000 0.500000 0.500000
O O3 0.752170 0.148048 0.186299
O O4 0.814274 0.105499 0.651148
O O5 0.875418 0.149670 0.964372
O O6 0.810406 0.234364 0.806065
O O7 0.934930 0.258899 0.708808
O O8 0.865588 0.324967 0.466619
O O9 0.000000 0.329717 0.250000
O O10 0.933478 0.226856 0.214131
O O11 0.302631 0.086332 0.680441
O O12 0.230982 0.989397 0.633105
O O13 0.000000 0.842947 0.250000
O O14 0.633685 0.013175 0.291677
O O15 0.750000 0.750000 0.000000
#
# Coordination Sequence:
#
# PCOD9262812 Si02
#       7
#     4   8   8   8   8   8   8
#     4   8  12  20  40  62  82 110 154 208 242 288
#     4  10  21  34  55  83 112 142 186 229 275 329
#     4   9  17  30  49  77 111 144 174 213 271 332
#     4  10  22  36  53  76 106 144 182 225 271 321
#     4   9  17  30  50  77 106 140 180 218 263 332
#     4   8  14  26  42  65  87 116 161 204 248 292
#     4  10  19  33  56  84 112 141 179 230 279 323
#
# _framework density 24.854192999999999
#
# number of rings (size 3 to 8) (size 9 to 14) (size 15 to 20)
#    0.000    2.769    1.538    0.000    2.154    0.000 
#    0.000    0.000    0.000    2.769    8.000    0.000 
#    0.000    0.000    0.000    0.000    0.000    0.000 
#
# Total GULP energy -145144.113077 kJ/mol
# GULP energy per Si atom -5582.465888 kJ/mol
# Density = 2.479762 g / cm^3
# Si number density = 24.854193 Si / 1000 Ang^3
#
#
#
# Elastic Constant Matrix: (Units=GPa)
#
#
# Indices 1 2 3 4 5 6 
#
# 1 189.1589 23.3424 21.8159 0.0000 -17.2626 0.0000
# 2 23.3424 51.1481 19.9195 0.0000 4.3541 0.0000
# 3 21.8159 19.9195 88.9763 0.0000 11.2549 0.0000
# 4 0.0000 0.0000 0.0000 19.9749 0.0000 12.1810
# 5 -17.2626 4.3541 11.2549 0.0000 49.9480 0.0000
# 6 0.0000 0.0000 0.0000 12.1810 0.0000 31.3212
#
#
#
# Elastic Compliance Matrix: (Units=1/GPa)
#
#
# Indices 1 2 3 4 5 6 
#
# 1 0.005966 -0.002459 -0.001235 0.000000 0.002554 0.000000
# 2 -0.002459 0.022464 -0.004190 0.000000 -0.001864 0.000000
# 3 -0.001235 -0.004190 0.012854 0.000000 -0.002958 0.000000
# 4 0.000000 0.000000 0.000000 0.065627 0.000000 -0.025523
# 5 0.002554 -0.001864 -0.002958 0.000000 0.021733 0.000000
# 6 0.000000 0.000000 0.000000 -0.025523 0.000000 0.041853
#
#
# Mechanical properties :
#
#
# Convention : Reuss Voigt Hill
#
# Bulk Modulus (GPa) = 39.19371 51.04877 45.12124
# Shear Modulus (GPa) = 25.67123 37.86251 31.76687
#
# Velocity S-wave (km/s) = 3.21732 3.90729 3.57897
# Velocity P-wave (km/s) = 5.44107 6.39842 5.93907
#
# Compressibility (1/GPa) = 0.02551430
#
# Stress axis : x y z
#
# Youngs Moduli (GPa) = 167.62829 44.51604 77.79590
#
# Poissons Ratio (x) = 0.10946 0.09610
# Poissons Ratio (y) = 0.41217 0.32600
# Poissons Ratio (z) = 0.20708 0.18654
#
# Static dielectric constant tensor:
#      x y z
#    x 2.108930 0.000000 -0.066750 
#    y 0.000000 1.905470 0.000000 
#    z -0.066750 0.000000 2.089520 
# 
# From -- ./inp_files/13407.got.cif
#   From: 2010.05.17/outbox.cif.g08.bks.cpg/sg15_7_cif.got.tgz:13407.got - 2010.06.03 18:47:42.
