data_PCOD9262730
_publ_section_title
;
Structure prediction by ZEFSAII (Michael W. Deem and Ramdas Pophale) SiO2 
 PCOD9262730
Probable space group: C 2/C
;
_chemical_formula_sum "Si O2"
_cell_formula_units_Z 64
_cell_length_a 19.719045
_cell_length_b 11.295697
_cell_length_c 19.762510
_cell_angle_alpha 90.000000
_cell_angle_beta 41.280812
_cell_angle_gamma 90.000000
_cell_volume 2904.159324
_symmetry_space_group_name_H-M "C 2/C"
_symmetry_group_IT_number 15
_symmetry_cell_setting 'monoclinic'
loop_
_space_group_symop_operation_xyz
x,y,z
-x,y,1/2-z
-x,-y,-z
x,-y,1/2+z
1/2+x,1/2+y,z
1/2-x,1/2+y,1/2-z
1/2-x,1/2-y,-z
1/2+x,1/2-y,1/2+z
loop_
_atom_site_type_symbol
_atom_site_label
_atom_site_fract_x
_atom_site_fract_y
_atom_site_fract_z
Si Si1 0.891651 0.026309 0.551004
Si Si2 0.418289 0.003015 0.139821
Si Si3 0.677817 0.359710 0.520701
Si Si4 0.273994 0.353953 0.874944
Si Si5 0.196821 0.254401 0.806921
Si Si6 0.858618 0.578751 0.545438
Si Si7 0.878932 0.502121 0.322380
Si Si8 0.742620 0.301909 0.882901
O O1 0.898077 0.065582 0.468154
O O2 0.845193 0.135313 0.628141
O O3 0.823037 0.908807 0.600039
O O4 0.000000 0.000000 0.500000
O O5 0.378316 0.130075 0.140691
O O6 0.372689 0.972605 0.246753
O O7 0.388822 0.912552 0.102623
O O8 0.539075 0.018730 0.060511
O O9 0.646653 0.353645 0.622334
O O10 0.690167 0.233680 0.473906
O O11 0.791485 0.422809 0.425208
O O12 0.286979 0.299500 0.790476
O O13 0.232545 0.485770 0.896486
O O14 0.214224 0.233725 0.714850
O O15 0.831518 0.702798 0.530902
O O16 0.831454 0.635673 0.359830
O O17 0.000000 0.492771 0.250000
#
# Coordination Sequence:
#
# PCOD9262730 Si02
#       8
#     8   8   8   8   8   8   8   8
#     4  10  20  36  57  81 112 150 187 239 289 347
#     4   9  19  33  53  83 109 144 191 236 284 341
#     4   9  19  35  58  81 108 146 190 231 288 349
#     4   9  18  33  56  77 108 145 183 232 289 328
#     4   9  19  33  56  78 111 147 189 239 284 337
#     4  10  19  33  55  83 114 141 190 241 286 342
#     4  10  20  37  56  80 114 150 192 233 288 349
#     4  10  22  34  57  87 111 151 194 234 302 347
#
# _framework density 22.037358000000001
#
# number of rings (size 3 to 8) (size 9 to 14) (size 15 to 20)
#    0.000    2.500    0.000    1.500    8.750    1.000 
#    0.000    8.125    0.000    0.750    0.000    0.000 
#    0.000    0.000    0.000    0.000    0.000    0.000 
#
# Total GULP energy -178206.424633 kJ/mol
# GULP energy per Si atom -5568.950770 kJ/mol
# Density = 2.198720 g / cm^3
# Si number density = 22.037358 Si / 1000 Ang^3
#
#
#
# Elastic Constant Matrix: (Units=GPa)
#
#
# Indices 1 2 3 4 5 6 
#
# 1 100.9755 25.1155 16.7264 0.0000 -1.4239 0.0000
# 2 25.1155 93.5828 1.9954 0.0000 -7.9189 0.0000
# 3 16.7264 1.9954 18.1468 0.0000 9.6201 0.0000
# 4 0.0000 0.0000 0.0000 17.1695 0.0000 5.4868
# 5 -1.4239 -7.9189 9.6201 0.0000 38.9561 0.0000
# 6 0.0000 0.0000 0.0000 5.4868 0.0000 18.7087
#
#
#
# Elastic Compliance Matrix: (Units=1/GPa)
#
#
# Indices 1 2 3 4 5 6 
#
# 1 0.012855 -0.002903 -0.013193 0.000000 0.003138 0.000000
# 2 -0.002903 0.011647 0.000226 0.000000 0.002206 0.000000
# 3 -0.013193 0.000226 0.077637 0.000000 -0.019608 0.000000
# 4 0.000000 0.000000 0.000000 0.064266 0.000000 -0.018848
# 5 0.003138 0.002206 -0.019608 0.000000 0.031075 0.000000
# 6 0.000000 0.000000 0.000000 -0.018848 0.000000 0.058979
#
#
# Mechanical properties :
#
#
# Convention : Reuss Voigt Hill
#
# Bulk Modulus (GPa) = 14.20493 33.37553 23.79023
# Shear Modulus (GPa) = 16.04287 26.22471 21.13379
#
# Velocity S-wave (km/s) = 2.70105 3.45340 3.10013
# Velocity P-wave (km/s) = 4.02335 5.57487 4.86140
#
# Compressibility (1/GPa) = 0.07039808
#
# Stress axis : x y z
#
# Youngs Moduli (GPa) = 77.78973 85.86123 12.88050
#
# Poissons Ratio (x) = 0.24927 0.16993
# Poissons Ratio (y) = 0.22584 -0.00291
# Poissons Ratio (z) = 1.02629 -0.01941
#
# Static dielectric constant tensor:
#      x y z
#    x 1.861680 0.000000 0.028940 
#    y 0.000000 1.869840 0.000000 
#    z 0.028940 0.000000 1.919850 
# 
# From -- ./inp_files/248623.got.cif
#   From: 2010.05.17/outbox.cif.g08.bks.cpg/sg15_125_cif.got.tgz:248623.got - 2010.06.03 18:47:42.
