data_PCOD9262968
_publ_section_title
;
Structure prediction by ZEFSAII (Michael W. Deem and Ramdas Pophale) SiO2 
 PCOD9262968
Probable space group: C 2/C
;
_chemical_formula_sum "Si O2"
_cell_formula_units_Z 44
_cell_length_a 17.466128
_cell_length_b 14.864308
_cell_length_c 9.481999
_cell_angle_alpha 90.000000
_cell_angle_beta 127.539655
_cell_angle_gamma 90.000000
_cell_volume 1951.987741
_symmetry_space_group_name_H-M "C 2/C"
_symmetry_group_IT_number 15
_symmetry_cell_setting 'monoclinic'
loop_
_space_group_symop_operation_xyz
x,y,z
-x,y,1/2-z
-x,-y,-z
x,-y,1/2+z
1/2+x,1/2+y,z
1/2-x,1/2+y,1/2-z
1/2-x,1/2-y,-z
1/2+x,1/2-y,1/2+z
loop_
_atom_site_type_symbol
_atom_site_label
_atom_site_fract_x
_atom_site_fract_y
_atom_site_fract_z
Si Si1 0.050090 0.604163 0.593393
Si Si2 0.164692 0.018576 0.230575
Si Si3 0.077650 0.751307 0.956302
Si Si4 0.252799 0.378158 0.407062
Si Si5 0.500000 0.049108 0.250000
Si Si6 0.002147 0.881817 0.400263
O O1 0.142885 0.652564 0.762631
O O2 0.053167 0.512920 0.691659
O O3 0.948644 0.650998 0.521172
O O4 0.061665 0.601929 0.436563
O O5 0.223674 0.068703 0.420523
O O6 0.221856 0.948760 0.193141
O O7 0.108256 0.088375 0.066736
O O8 0.072329 0.966101 0.195461
O O9 0.000000 0.771150 0.750000
O O10 0.180743 0.790314 0.032705
O O11 0.043756 0.815663 0.042034
O O12 0.000000 0.833879 0.250000
#
# Coordination Sequence:
#
# PCOD9262968 Si02
#       6
#     8   8   8   8   4   8
#     4  11  24  46  68  92 125 164 217 263 313 376
#     4  10  19  33  60  93 126 159 214 250 306 374
#     4  11  23  40  61  95 130 168 204 256 323 373
#     4  11  22  39  65  97 127 168 211 258 308 376
#     4  10  24  48  72  88 120 170 214 268 314 364
#     4  10  19  33  58  88 131 170 192 255 320 368
#
# _framework density 22.541124
#
# number of rings (size 3 to 8) (size 9 to 14) (size 15 to 20)
#    0.000    1.455    4.545    1.091    1.273    0.727 
#    0.000    0.909    0.000    0.000    0.000    0.000 
#    0.000    0.000    0.000    0.000    0.000    0.000 
#
# Total GULP energy -122664.630006 kJ/mol
# GULP energy per Si atom -5575.665000 kJ/mol
# Density = 2.248982 g / cm^3
# Si number density = 22.541124 Si / 1000 Ang^3
#
#
#
# Elastic Constant Matrix: (Units=GPa)
#
#
# Indices 1 2 3 4 5 6 
#
# 1 75.4627 20.2340 44.1959 0.0000 -2.6403 0.0000
# 2 20.2340 57.9594 38.0691 0.0000 1.0338 0.0000
# 3 44.1959 38.0691 174.2742 0.0000 -22.6135 0.0000
# 4 0.0000 0.0000 0.0000 20.2323 0.0000 -5.4537
# 5 -2.6403 1.0338 -22.6135 0.0000 40.9535 0.0000
# 6 0.0000 0.0000 0.0000 -5.4537 0.0000 24.9208
#
#
#
# Elastic Compliance Matrix: (Units=1/GPa)
#
#
# Indices 1 2 3 4 5 6 
#
# 1 0.016152 -0.003347 -0.003467 0.000000 -0.000789 0.000000
# 2 -0.003347 0.021226 -0.004185 0.000000 -0.003063 0.000000
# 3 -0.003467 -0.004185 0.008096 0.000000 0.004353 0.000000
# 4 0.000000 0.000000 0.000000 0.052524 0.000000 0.011494
# 5 -0.000789 -0.003063 0.004353 0.000000 0.026848 0.000000
# 6 0.000000 0.000000 0.000000 0.011494 0.000000 0.042643
#
#
# Mechanical properties :
#
#
# Convention : Reuss Voigt Hill
#
# Bulk Modulus (GPa) = 42.59922 56.96603 49.78263
# Shear Modulus (GPa) = 25.34040 30.90113 28.12077
#
# Velocity S-wave (km/s) = 3.35652 3.70655 3.53587
# Velocity P-wave (km/s) = 5.82762 6.60643 6.22921
#
# Compressibility (1/GPa) = 0.02347461
#
# Stress axis : x y z
#
# Youngs Moduli (GPa) = 61.91097 47.11312 123.51153
#
# Poissons Ratio (x) = 0.15770 0.42826
# Poissons Ratio (y) = 0.20724 0.51691
# Poissons Ratio (z) = 0.21467 0.19717
#
# Static dielectric constant tensor:
#      x y z
#    x 1.814940 0.000000 -0.019140 
#    y 0.000000 1.938780 0.000000 
#    z -0.019140 0.000000 1.866790 
# 
# From -- ./inp_files/47535.got.cif
#   From: 2010.05.17/outbox.cif.g08.bks.cpg/sg15_24_cif.got.tgz:47535.got - 2010.06.03 18:47:42.
