data_PCOD9262062
_publ_section_title
;
Structure prediction by ZEFSAII (Michael W. Deem and Ramdas Pophale) SiO2 
 PCOD9262062
Probable space group: C 2/C
;
_chemical_formula_sum "Si O2"
_cell_formula_units_Z 52
_cell_length_a 25.508124
_cell_length_b 18.996322
_cell_length_c 9.440649
_cell_angle_alpha 90.000000
_cell_angle_beta 38.824243
_cell_angle_gamma 90.000000
_cell_volume 2867.948683
_symmetry_space_group_name_H-M "C 2/C"
_symmetry_group_IT_number 15
_symmetry_cell_setting 'monoclinic'
loop_
_space_group_symop_operation_xyz
x,y,z
-x,y,1/2-z
-x,-y,-z
x,-y,1/2+z
1/2+x,1/2+y,z
1/2-x,1/2+y,1/2-z
1/2-x,1/2-y,-z
1/2+x,1/2-y,1/2+z
loop_
_atom_site_type_symbol
_atom_site_label
_atom_site_fract_x
_atom_site_fract_y
_atom_site_fract_z
Si Si1 0.936898 0.829350 0.760315
Si Si2 0.615935 0.076028 0.377128
Si Si3 0.019318 0.928445 0.373489
Si Si4 0.797762 0.950162 0.432530
Si Si5 0.774430 0.088762 0.658436
Si Si6 0.500000 0.193275 0.750000
Si Si7 0.089719 0.568612 0.101045
O O1 0.000000 0.859745 0.750000
O O2 0.965754 0.866103 0.555779
O O3 0.955198 0.746560 0.734553
O O4 0.841950 0.849972 0.995039
O O5 0.566385 0.143154 0.535580
O O6 0.592646 0.060219 0.263718
O O7 0.595387 0.008028 0.515374
O O8 0.715439 0.087034 0.167258
O O9 0.117395 0.915806 0.191824
O O10 0.000000 0.938217 0.250000
O O11 0.000000 0.000000 0.500000
O O12 0.793464 0.946169 0.271663
O O13 0.791706 0.029967 0.502634
O O14 0.675626 0.106783 0.871049
O O15 0.000000 0.600856 0.250000
#
# Coordination Sequence:
#
# PCOD9262062 Si02
#       7
#     8   8   8   8   8   4   8
#     4  10  21  38  57  80 118 157 197 228 280 368
#     4  10  21  37  61  88 115 151 196 250 299 339
#     4  12  21  33  58  89 122 151 194 248 296 334
#     4  10  19  32  52  89 114 145 191 246 293 339
#     4  10  19  33  54  87 117 145 190 241 296 337
#     4  10  22  40  62  80 118 166 198 222 296 368
#     4  10  20  35  60  93 115 142 196 257 296 331
#
# _framework density 18.131426000000001
#
# number of rings (size 3 to 8) (size 9 to 14) (size 15 to 20)
#    0.462    1.231    3.846    1.846    0.000    0.000 
#    0.000    7.692    0.000    1.846    0.000    0.000 
#    0.000    0.000    0.000    0.000    0.000    0.000 
#
# Total GULP energy -144986.254237 kJ/mol
# GULP energy per Si atom -5576.394394 kJ/mol
# Density = 1.809016 g / cm^3
# Si number density = 18.131426 Si / 1000 Ang^3
#
#
#
# Elastic Constant Matrix: (Units=GPa)
#
#
# Indices 1 2 3 4 5 6 
#
# 1 96.8346 12.8247 58.9717 0.0000 -17.2723 0.0000
# 2 12.8247 40.6345 36.6150 0.0000 -13.8226 0.0000
# 3 58.9717 36.6150 119.5568 0.0000 -25.7052 0.0000
# 4 0.0000 0.0000 0.0000 15.1099 0.0000 -13.2201
# 5 -17.2723 -13.8226 -25.7052 0.0000 42.5604 0.0000
# 6 0.0000 0.0000 0.0000 -13.2201 0.0000 12.2453
#
#
#
# Elastic Compliance Matrix: (Units=1/GPa)
#
#
# Indices 1 2 3 4 5 6 
#
# 1 0.015169 0.003183 -0.007943 0.000000 0.002393 0.000000
# 2 0.003183 0.035799 -0.011212 0.000000 0.006147 0.000000
# 3 -0.007943 -0.011212 0.016365 0.000000 0.003019 0.000000
# 4 0.000000 0.000000 0.000000 1.194126 0.000000 1.289187
# 5 0.002393 0.006147 0.003019 0.000000 0.028287 0.000000
# 6 0.000000 0.000000 0.000000 1.289187 0.000000 1.473480
#
#
# Mechanical properties :
#
#
# Convention : Reuss Voigt Hill
#
# Bulk Modulus (GPa) = 28.25662 52.64985 40.45324
# Shear Modulus (GPa) = 1.78128 23.89074 12.83601
#
# Velocity S-wave (km/s) = 0.99225 3.63387 2.66361
# Velocity P-wave (km/s) = 4.11472 6.83430 5.64086
#
# Compressibility (1/GPa) = 0.03538993
#
# Stress axis : x y z
#
# Youngs Moduli (GPa) = 65.92337 27.93368 61.10628
#
# Poissons Ratio (x) = -0.08893 0.48535
# Poissons Ratio (y) = -0.20986 0.68515
# Poissons Ratio (z) = 0.52361 0.31320
#
# Static dielectric constant tensor:
#      x y z
#    x 1.645120 0.000000 -0.028400 
#    y 0.000000 1.585540 0.000000 
#    z -0.028400 0.000000 1.657630 
# 
# From -- ./inp_files/63360.got.cif
#   From: 2010.05.17/outbox.cif.g08.bks.cpg/sg15_32_cif.got.tgz:63360.got - 2010.06.03 18:47:42.
