data_PCOD9262645
_publ_section_title
;
Structure prediction by ZEFSAII (Michael W. Deem and Ramdas Pophale) SiO2 
 PCOD9262645
Probable space group: C 2/C
;
_chemical_formula_sum "Si O2"
_cell_formula_units_Z 60
_cell_length_a 17.090163
_cell_length_b 14.763873
_cell_length_c 30.949387
_cell_angle_alpha 90.000000
_cell_angle_beta 26.889909
_cell_angle_gamma 90.000000
_cell_volume 3531.861564
_symmetry_space_group_name_H-M "C 2/C"
_symmetry_group_IT_number 15
_symmetry_cell_setting 'monoclinic'
loop_
_space_group_symop_operation_xyz
x,y,z
-x,y,1/2-z
-x,-y,-z
x,-y,1/2+z
1/2+x,1/2+y,z
1/2-x,1/2+y,1/2-z
1/2-x,1/2-y,-z
1/2+x,1/2-y,1/2+z
loop_
_atom_site_type_symbol
_atom_site_label
_atom_site_fract_x
_atom_site_fract_y
_atom_site_fract_z
Si Si1 0.760260 0.528723 0.572682
Si Si2 0.180033 0.896877 0.535230
Si Si3 0.320171 0.210558 0.814456
Si Si4 0.168842 0.739508 0.873024
Si Si5 0.581678 0.879002 0.944399
Si Si6 0.000000 0.158127 0.750000
Si Si7 0.943162 0.088623 0.501658
Si Si8 0.027259 0.717970 0.849908
O O1 0.702882 0.477008 0.558036
O O2 0.804967 0.456120 0.588402
O O3 0.611585 0.595238 0.662874
O O4 0.944523 0.580776 0.477859
O O5 0.116690 0.926233 0.518628
O O6 0.363703 0.846306 0.439516
O O7 0.052527 0.819044 0.617027
O O8 0.500000 0.230349 0.750000
O O9 0.205745 0.300728 0.866694
O O10 0.211068 0.138889 0.896246
O O11 0.371283 0.181739 0.741272
O O12 0.360719 0.718681 0.793733
O O13 0.144668 0.725604 0.834216
O O14 0.040266 0.667348 0.959220
O O15 0.097585 0.837679 0.921977
O O16 0.000000 0.000000 0.500000
#
# Coordination Sequence:
#
# PCOD9262645 Si02
#       8
#     8   8   8   8   8   4   8   8
#     4  10  19  33  54  83 115 143 179 220 278 340
#     4  10  19  35  55  83 112 145 180 235 279 320
#     4  11  20  34  58  84 106 141 192 230 271 330
#     4   9  19  40  56  76 116 148 179 226 286 331
#     4   9  19  33  53  81 115 142 169 229 286 324
#     4  10  22  34  56  86 112 154 180 216 286 350
#     4  10  22  40  58  79 110 152 189 232 277 323
#     4  10  19  33  57  81 108 141 188 232 282 309
#
# _framework density 16.988209000000001
#
# number of rings (size 3 to 8) (size 9 to 14) (size 15 to 20)
#    0.000    2.133    2.667    0.800    2.800    1.067 
#    1.200    4.000    0.000    4.800    0.000    0.000 
#    0.000    0.000    0.000    0.000    0.000    0.000 
#
# Total GULP energy -167299.785374 kJ/mol
# GULP energy per Si atom -5576.659512 kJ/mol
# Density = 1.694954 g / cm^3
# Si number density = 16.988209 Si / 1000 Ang^3
#
#
#
# Elastic Constant Matrix: (Units=GPa)
#
#
# Indices 1 2 3 4 5 6 
#
# 1 135.1932 67.0667 59.0794 0.0003 -10.4940 -0.0001
# 2 67.0667 77.4700 28.1974 0.0006 -11.7668 0.0000
# 3 59.0794 28.1974 79.9263 0.0034 -11.5922 -0.0015
# 4 0.0003 0.0006 0.0034 11.5072 -0.0001 -0.7627
# 5 -10.4940 -11.7668 -11.5922 -0.0001 27.6535 0.0000
# 6 -0.0001 0.0000 -0.0015 -0.7627 0.0000 34.0463
#
#
#
# Elastic Compliance Matrix: (Units=1/GPa)
#
#
# Indices 1 2 3 4 5 6 
#
# 1 0.016824 -0.011771 -0.008607 0.000003 -0.002232 0.000000
# 2 -0.011771 0.023561 0.001272 -0.000001 0.006092 0.000000
# 3 -0.008607 0.001272 0.019197 -0.000005 0.005322 0.000001
# 4 0.000003 -0.000001 -0.000005 0.087031 -0.000001 0.001950
# 5 -0.002232 0.006092 0.005322 -0.000001 0.040138 0.000000
# 6 0.000000 0.000000 0.000001 0.001950 0.000000 0.029415
#
#
# Mechanical properties :
#
#
# Convention : Reuss Voigt Hill
#
# Bulk Modulus (GPa) = 46.79431 66.80851 56.80141
# Shear Modulus (GPa) = 19.12034 23.85780 21.48907
#
# Velocity S-wave (km/s) = 3.35850 3.75156 3.56046
# Velocity P-wave (km/s) = 6.53026 7.62741 7.10006
#
# Compressibility (1/GPa) = 0.02137012
#
# Stress axis : x y z
#
# Youngs Moduli (GPa) = 59.43766 42.44314 52.09242
#
# Poissons Ratio (x) = 0.49961 0.44836
# Poissons Ratio (y) = 0.69966 -0.06629
# Poissons Ratio (z) = 0.51158 -0.05401
#
# Static dielectric constant tensor:
#      x y z
#    x 1.569050 0.000000 -0.002390 
#    y 0.000000 1.579450 0.000000 
#    z -0.002390 0.000000 1.566090 
# 
# From -- ./inp_files/154818.got.cif
#   From: 2010.05.17/outbox.cif.g08.bks.cpg/sg15_78_cif.got.tgz:154818.got - 2010.06.03 18:47:42.
