data_PCOD9262027
_publ_section_title
;
Structure prediction by ZEFSAII (Michael W. Deem and Ramdas Pophale) SiO2 
 PCOD9262027
Probable space group: C 2/C
;
_chemical_formula_sum "Si O2"
_cell_formula_units_Z 56
_cell_length_a 19.102667
_cell_length_b 26.588555
_cell_length_c 5.502858
_cell_angle_alpha 90.000000
_cell_angle_beta 117.473388
_cell_angle_gamma 90.000000
_cell_volume 2479.767236
_symmetry_space_group_name_H-M "C 2/C"
_symmetry_group_IT_number 15
_symmetry_cell_setting 'monoclinic'
loop_
_space_group_symop_operation_xyz
x,y,z
-x,y,1/2-z
-x,-y,-z
x,-y,1/2+z
1/2+x,1/2+y,z
1/2-x,1/2+y,1/2-z
1/2-x,1/2-y,-z
1/2+x,1/2-y,1/2+z
loop_
_atom_site_type_symbol
_atom_site_label
_atom_site_fract_x
_atom_site_fract_y
_atom_site_fract_z
Si Si1 0.774802 0.528375 0.537386
Si Si2 0.881391 0.608918 0.921920
Si Si3 0.500000 0.031984 0.250000
Si Si4 0.500000 0.153577 0.750000
Si Si5 0.920539 0.142283 0.354301
Si Si6 0.414495 0.528146 0.259387
Si Si7 0.401456 0.680142 0.817438
Si Si8 0.587831 0.207681 0.268428
O O1 0.795834 0.507336 0.303338
O O2 0.813510 0.582073 0.661551
O O3 0.680595 0.532905 0.390563
O O4 0.956149 0.620217 0.872223
O O5 0.865414 0.662450 0.025375
O O6 0.921324 0.566362 0.151768
O O7 0.500000 0.000000 0.500000
O O8 0.432392 0.188268 0.531086
O O9 0.943143 0.084484 0.355547
O O10 0.878105 0.147084 0.546515
O O11 0.002567 0.173768 0.506863
O O12 0.875272 0.162110 0.042517
O O13 0.433139 0.492444 0.519526
O O14 0.379286 0.736653 0.706282
O O15 0.500000 0.211063 0.250000
#
# Coordination Sequence:
#
# PCOD9262027 Si02
#       8
#     8   8   4   4   8   8   8   8
#     4  10  23  40  59  78 107 148 195 234 274 327
#     4  11  22  34  52  79 107 145 189 230 281 332
#     4  12  23  32  46  70 106 136 168 225 286 328
#     4  10  19  32  52  78 110 142 180 229 276 332
#     4  10  19  34  58  84 116 144 184 221 272 334
#     4  10  21  40  61  83 109 149 191 228 270 324
#     4  10  20  34  55  88 113 148 175 219 281 336
#     4  10  19  33  53  78 112 146 185 219 272 340
#
# _framework density 22.582764999999998
#
# number of rings (size 3 to 8) (size 9 to 14) (size 15 to 20)
#    0.000    1.714    3.571    3.000    4.000    0.000 
#    0.000    8.571    0.000    1.714    0.000    0.000 
#    0.000    0.000    0.000    0.000    0.000    0.000 
#
# Total GULP energy -156233.398762 kJ/mol
# GULP energy per Si atom -5579.764241 kJ/mol
# Density = 2.253137 g / cm^3
# Si number density = 22.582765 Si / 1000 Ang^3
#
#
#
# Elastic Constant Matrix: (Units=GPa)
#
#
# Indices 1 2 3 4 5 6 
#
# 1 28.9665 13.5683 22.7723 0.0000 -13.9136 0.0000
# 2 13.5683 154.6678 62.1654 0.0000 -10.6868 0.0000
# 3 22.7723 62.1654 139.2897 0.0000 -29.4424 0.0000
# 4 0.0000 0.0000 0.0000 38.7401 0.0000 -11.0526
# 5 -13.9136 -10.6868 -29.4424 0.0000 30.4432 0.0000
# 6 0.0000 0.0000 0.0000 -11.0526 0.0000 1.5890
#
#
#
# Elastic Compliance Matrix: (Units=1/GPa)
#
#
# Indices 1 2 3 4 5 6 
#
# 1 0.046133 -0.001576 -0.003141 0.000000 0.017493 0.000000
# 2 -0.001576 0.007948 -0.003585 0.000000 -0.001397 0.000000
# 3 -0.003141 -0.003585 0.010965 0.000000 0.007910 0.000000
# 4 0.000000 0.000000 0.000000 -0.026221 0.000000 -0.182385
# 5 0.017493 -0.001397 0.007910 0.000000 0.048003 0.000000
# 6 0.000000 0.000000 0.000000 -0.182385 0.000000 -0.639270
#
#
# Mechanical properties :
#
#
# Convention : Reuss Voigt Hill
#
# Bulk Modulus (GPa) = 20.64336 57.77068 39.20702
# Shear Modulus (GPa) = -9.62109 29.11567 9.74729
#
# Velocity S-wave (km/s) = -2.06631 3.59456 2.07981
# Velocity P-wave (km/s) = 1.86232 6.54714 4.81318
#
# Compressibility (1/GPa) = 0.04844173
#
# Stress axis : x y z
#
# Youngs Moduli (GPa) = 21.67651 125.81685 91.20041
#
# Poissons Ratio (x) = 0.19826 0.28649
# Poissons Ratio (y) = 0.03416 0.32695
# Poissons Ratio (z) = 0.06809 0.45105
#
# Static dielectric constant tensor:
#      x y z
#    x 1.889550 0.000000 -0.000160 
#    y 0.000000 1.875970 0.000000 
#    z -0.000160 0.000000 1.808130 
# 
# From -- ./inp_files/16191.got.cif
#   From: 2010.05.17/outbox.cif.g08.bks.cpg/sg15_9_cif.got.tgz:16191.got - 2010.06.03 18:47:42.
