data_PCOD9262635
_publ_section_title
;
Structure prediction by ZEFSAII (Michael W. Deem and Ramdas Pophale) SiO2 
 PCOD9262635
Probable space group: C 2/C
;
_chemical_formula_sum "Si O2"
_cell_formula_units_Z 52
_cell_length_a 5.710300
_cell_length_b 24.223762
_cell_length_c 20.328064
_cell_angle_alpha 90.000000
_cell_angle_beta 85.945587
_cell_angle_gamma 90.000000
_cell_volume 2804.841262
_symmetry_space_group_name_H-M "C 2/C"
_symmetry_group_IT_number 15
_symmetry_cell_setting 'monoclinic'
loop_
_space_group_symop_operation_xyz
x,y,z
-x,y,1/2-z
-x,-y,-z
x,-y,1/2+z
1/2+x,1/2+y,z
1/2-x,1/2+y,1/2-z
1/2-x,1/2-y,-z
1/2+x,1/2-y,1/2+z
loop_
_atom_site_type_symbol
_atom_site_label
_atom_site_fract_x
_atom_site_fract_y
_atom_site_fract_z
Si Si1 0.650940 0.930695 0.859101
Si Si2 0.641243 0.171096 0.182504
Si Si3 0.000000 0.093251 0.250000
Si Si4 0.581941 0.416439 0.509733
Si Si5 0.184332 0.515555 0.052436
Si Si6 0.252700 0.698714 0.551162
Si Si7 0.256536 0.733936 0.921777
O O1 0.540607 0.870520 0.848752
O O2 0.801422 0.929724 0.922463
O O3 0.443271 0.973524 0.876787
O O4 0.816603 0.942101 0.794758
O O5 0.500000 0.193420 0.250000
O O6 0.853068 0.133112 0.204778
O O7 0.738834 0.214644 0.128314
O O8 0.641992 0.463730 0.454757
O O9 0.307743 0.426910 0.528942
O O10 0.682102 0.358154 0.486136
O O11 0.000000 0.500000 0.000000
O O12 0.250000 0.750000 0.500000
O O13 0.482956 0.707687 0.592291
O O14 0.986198 0.699908 0.584743
O O15 0.250000 0.750000 0.000000
#
# Coordination Sequence:
#
# PCOD9262635 Si02
#       7
#     8   8   4   8   8   8   8
#     4  10  19  33  54  81 115 150 196 241 305 364
#     4  10  22  36  56  83 121 158 198 251 307 370
#     4  10  22  32  54  82 118 160 192 250 304 368
#     4  10  20  35  55  84 119 153 195 247 309 369
#     4   9  20  33  55  80 115 154 183 245 299 363
#     4  10  22  33  55  85 119 157 195 245 304 357
#     4  10  22  35  54  86 115 158 195 245 301 357
#
# _framework density 18.539373000000001
#
# number of rings (size 3 to 8) (size 9 to 14) (size 15 to 20)
#    0.000    2.154    0.000    2.769   17.231    0.000 
#    0.000    0.000    0.000    0.000    2.000    6.462 
#    0.000    0.000    0.000    0.000    0.000    0.000 
#
# Total GULP energy -144737.150022 kJ/mol
# GULP energy per Si atom -5566.813462 kJ/mol
# Density = 1.849718 g / cm^3
# Si number density = 18.539373 Si / 1000 Ang^3
#
#
#
# Elastic Constant Matrix: (Units=GPa)
#
#
# Indices 1 2 3 4 5 6 
#
# 1 123.8508 23.2069 30.2138 0.0000 -16.4928 0.0000
# 2 23.2069 72.1455 42.1307 0.0000 -20.1228 0.0000
# 3 30.2138 42.1307 95.3227 0.0000 -25.1317 0.0000
# 4 0.0000 0.0000 0.0000 27.7777 0.0000 -5.8011
# 5 -16.4928 -20.1228 -25.1317 0.0000 33.8030 0.0000
# 6 0.0000 0.0000 0.0000 -5.8011 0.0000 18.9387
#
#
#
# Elastic Compliance Matrix: (Units=1/GPa)
#
#
# Indices 1 2 3 4 5 6 
#
# 1 0.009040 -0.001257 -0.001672 0.000000 0.002419 0.000000
# 2 -0.001257 0.019963 -0.006783 0.000000 0.006228 0.000000
# 3 -0.001672 -0.006783 0.015845 0.000000 0.006926 0.000000
# 4 0.000000 0.000000 0.000000 0.038460 0.000000 0.011781
# 5 0.002419 0.006228 0.006926 0.000000 0.039621 0.000000
# 6 0.000000 0.000000 0.000000 0.011781 0.000000 0.056411
#
#
# Mechanical properties :
#
#
# Convention : Reuss Voigt Hill
#
# Bulk Modulus (GPa) = 39.33213 53.60243 46.46728
# Shear Modulus (GPa) = 24.12687 29.15505 26.64096
#
# Velocity S-wave (km/s) = 3.61139 3.96991 3.79488
# Velocity P-wave (km/s) = 6.21699 7.07029 6.65733
#
# Compressibility (1/GPa) = 0.02542451
#
# Stress axis : x y z
#
# Youngs Moduli (GPa) = 110.62229 50.09195 63.11225
#
# Poissons Ratio (x) = 0.06294 0.10552
# Poissons Ratio (y) = 0.13900 0.42810
# Poissons Ratio (z) = 0.18496 0.33978
#
# Static dielectric constant tensor:
#      x y z
#    x 1.789270 0.000000 -0.038740 
#    y 0.000000 1.651230 0.000000 
#    z -0.038740 0.000000 1.643080 
# 
# From -- ./inp_files/227481.got.cif
#   From: 2010.05.17/outbox.cif.g08.bks.cpg/sg15_114_cif.got.tgz:227481.got - 2010.06.03 18:47:42.
