data_PCOD9262244
_publ_section_title
;
Structure prediction by ZEFSAII (Michael W. Deem and Ramdas Pophale) SiO2 
 PCOD9262244
Probable space group: C 2/C
;
_chemical_formula_sum "Si O2"
_cell_formula_units_Z 64
_cell_length_a 12.035636
_cell_length_b 23.076279
_cell_length_c 18.188852
_cell_angle_alpha 90.000000
_cell_angle_beta 139.008869
_cell_angle_gamma 90.000000
_cell_volume 3313.642755
_symmetry_space_group_name_H-M "C 2/C"
_symmetry_group_IT_number 15
_symmetry_cell_setting 'monoclinic'
loop_
_space_group_symop_operation_xyz
x,y,z
-x,y,1/2-z
-x,-y,-z
x,-y,1/2+z
1/2+x,1/2+y,z
1/2-x,1/2+y,1/2-z
1/2-x,1/2-y,-z
1/2+x,1/2-y,1/2+z
loop_
_atom_site_type_symbol
_atom_site_label
_atom_site_fract_x
_atom_site_fract_y
_atom_site_fract_z
Si Si1 0.328778 0.564025 0.073136
Si Si2 0.127558 0.204975 0.720195
Si Si3 0.713675 0.554594 0.272655
Si Si4 0.511733 0.979863 0.174920
Si Si5 0.294444 0.808825 0.978607
Si Si6 0.239557 0.192859 0.942079
Si Si7 0.407460 0.151892 0.776008
Si Si8 0.113433 0.673649 0.141710
O O1 0.519784 0.543721 0.150517
O O2 0.292266 0.552551 0.141308
O O3 0.175152 0.534277 0.951368
O O4 0.321072 0.634597 0.061148
O O5 0.218934 0.202846 0.844585
O O6 0.228153 0.178067 0.702978
O O7 0.114331 0.272998 0.697439
O O8 0.948745 0.171386 0.633239
O O9 0.772526 0.619323 0.280673
O O10 0.860393 0.513700 0.314187
O O11 0.500000 0.008144 0.250000
O O12 0.596297 0.916958 0.229796
O O13 0.475880 0.829420 0.098375
O O14 0.250000 0.750000 0.000000
O O15 0.314848 0.803859 0.901147
O O16 0.250000 0.250000 0.000000
O O17 0.413334 0.157433 0.037247
O O18 0.500000 0.174794 0.750000
#
# Coordination Sequence:
#
# PCOD9262244 Si02
#       8
#     8   8   8   8   8   8   8   8
#     4   9  21  39  61  90 120 154 198 255 297 352
#     4  10  19  35  57  82 116 154 193 240 292 360
#     4  10  21  40  62  86 119 157 200 250 297 356
#     4  10  22  42  61  84 121 155 201 252 300 353
#     4  10  19  32  56  86 121 151 189 240 300 359
#     4   9  19  36  53  78 118 154 191 238 285 345
#     4  10  20  35  56  83 115 151 192 244 298 357
#     4  10  20  35  57  85 118 154 194 243 298 348
#
# _framework density 19.314091000000001
#
# number of rings (size 3 to 8) (size 9 to 14) (size 15 to 20)
#    0.000    2.250    1.250    1.125    1.750    0.500 
#    6.750    2.500    0.000    0.000    0.000    0.000 
#    0.000    0.000    0.000    0.000    0.000    0.000 
#
# Total GULP energy -178153.382041 kJ/mol
# GULP energy per Si atom -5567.293189 kJ/mol
# Density = 1.927013 g / cm^3
# Si number density = 19.314091 Si / 1000 Ang^3
#
#
#
# Elastic Constant Matrix: (Units=GPa)
#
#
# Indices 1 2 3 4 5 6 
#
# 1 122.0668 41.4555 42.2590 -0.0002 14.6894 0.0001
# 2 41.4555 46.3940 15.6372 0.0001 7.8871 0.0000
# 3 42.2590 15.6372 73.3193 0.0025 19.3161 0.0000
# 4 -0.0002 0.0001 0.0025 -10.7394 0.0008 -1.2243
# 5 14.6894 7.8871 19.3161 0.0008 22.3404 0.0001
# 6 0.0001 0.0000 0.0000 -1.2243 0.0001 26.7501
#
#
#
# Elastic Compliance Matrix: (Units=1/GPa)
#
#
# Indices 1 2 3 4 5 6 
#
# 1 0.013655 -0.010237 -0.005534 -0.000002 -0.000579 0.000000
# 2 -0.010237 0.031352 0.000462 0.000000 -0.004736 0.000000
# 3 -0.005534 0.000462 0.020479 0.000004 -0.014231 0.000000
# 4 -0.000002 0.000000 0.000004 -0.092632 0.000001 -0.004240
# 5 -0.000579 -0.004736 -0.014231 0.000001 0.059120 0.000000
# 6 0.000000 0.000000 0.000000 -0.004240 0.000000 0.037189
#
#
# Mechanical properties :
#
#
# Convention : Reuss Voigt Hill
#
# Bulk Modulus (GPa) = 28.68100 48.94261 38.81181
# Shear Modulus (GPa) = 44.88179 17.16546 31.02362
#
# Velocity S-wave (km/s) = 4.82579 2.98443 4.01218
# Velocity P-wave (km/s) = 6.77739 6.10501 6.44997
#
# Compressibility (1/GPa) = 0.03486629
#
# Stress axis : x y z
#
# Youngs Moduli (GPa) = 73.23565 31.89620 48.82946
#
# Poissons Ratio (x) = 0.32653 0.27023
# Poissons Ratio (y) = 0.74974 -0.02255
# Poissons Ratio (z) = 0.40530 -0.01473
#
# Static dielectric constant tensor:
#      x y z
#    x 1.833690 0.000000 -0.164910 
#    y 0.000000 1.683510 0.000000 
#    z -0.164910 0.000000 1.985780 
# 
# From -- ./inp_files/200382.got.cif
#   From: 2010.05.17/outbox.cif.g08.bks.cpg/sg15_101_cif.got.tgz:200382.got - 2010.06.03 18:47:42.
