data_PCOD9262773
_publ_section_title
;
Structure prediction by ZEFSAII (Michael W. Deem and Ramdas Pophale) SiO2 
 PCOD9262773
Probable space group: C 2/C
;
_chemical_formula_sum "Si O2"
_cell_formula_units_Z 40
_cell_length_a 20.972217
_cell_length_b 8.516902
_cell_length_c 13.402839
_cell_angle_alpha 90.000000
_cell_angle_beta 47.414432
_cell_angle_gamma 90.000000
_cell_volume 1762.619047
_symmetry_space_group_name_H-M "C 2/C"
_symmetry_group_IT_number 15
_symmetry_cell_setting 'monoclinic'
loop_
_space_group_symop_operation_xyz
x,y,z
-x,y,1/2-z
-x,-y,-z
x,-y,1/2+z
1/2+x,1/2+y,z
1/2-x,1/2+y,1/2-z
1/2-x,1/2-y,-z
1/2+x,1/2-y,1/2+z
loop_
_atom_site_type_symbol
_atom_site_label
_atom_site_fract_x
_atom_site_fract_y
_atom_site_fract_z
Si Si1 0.480094 0.561277 0.907037
Si Si2 0.183475 0.583470 0.643455
Si Si3 0.341048 0.438786 0.838499
Si Si4 0.828750 0.104784 0.642460
Si Si5 0.447904 0.869903 0.616188
O O1 0.563973 0.516743 0.753522
O O2 0.483027 0.748017 0.911534
O O3 0.500000 0.500000 0.000000
O O4 0.388113 0.478586 0.994792
O O5 0.253988 0.520372 0.490699
O O6 0.146982 0.753585 0.653022
O O7 0.236292 0.622941 0.689104
O O8 0.109402 0.458950 0.742069
O O9 0.320097 0.490196 0.746415
O O10 0.879462 0.262207 0.624731
O O11 0.500000 0.000000 0.500000
#
# Coordination Sequence:
#
# PCOD9262773 Si02
#       5
#     8   8   8   8   8
#     4   8  17  34  52  73 109 141 168 214 264 311
#     4  11  20  33  58  81 104 141 179 219 259 312
#     4   9  20  36  52  79 111 136 173 218 269 311
#     4  10  20  35  56  80 107 140 178 217 261 313
#     4  10  19  33  56  77 104 143 176 214 266 314
#
# _framework density 22.693503
#
# number of rings (size 3 to 8) (size 9 to 14) (size 15 to 20)
#    0.000    2.800    0.000    4.800    0.000    4.000 
#    0.000    0.000    0.000   18.000    0.000    0.000 
#    0.000    0.000    0.000    0.000    0.000    0.000 
#
# Total GULP energy -111527.673575 kJ/mol
# GULP energy per Si atom -5576.383679 kJ/mol
# Density = 2.264185 g / cm^3
# Si number density = 22.693503 Si / 1000 Ang^3
#
#
#
# Elastic Constant Matrix: (Units=GPa)
#
#
# Indices 1 2 3 4 5 6 
#
# 1 19.3098 1.5544 -13.2747 0.0000 -4.4004 0.0000
# 2 1.5544 107.7641 75.2991 -0.0001 -19.7537 0.0001
# 3 -13.2747 75.2991 177.5106 0.0000 7.4922 0.0000
# 4 0.0000 -0.0001 0.0000 50.7549 0.0000 -8.2237
# 5 -4.4004 -19.7537 7.4922 0.0000 23.5278 0.0000
# 6 0.0000 0.0001 0.0000 -8.2237 0.0000 18.3897
#
#
#
# Elastic Compliance Matrix: (Units=1/GPa)
#
#
# Indices 1 2 3 4 5 6 
#
# 1 0.057256 -0.003652 0.005584 0.000000 0.005864 0.000000
# 2 -0.003652 0.019042 -0.009119 0.000000 0.018208 0.000000
# 3 0.005584 -0.009119 0.010337 0.000000 -0.009904 0.000000
# 4 0.000000 0.000000 0.000000 0.021242 0.000000 0.009499
# 5 0.005864 0.018208 -0.009904 0.000000 0.062041 0.000000
# 6 0.000000 0.000000 0.000000 0.009499 0.000000 0.058626
#
#
# Mechanical properties :
#
#
# Convention : Reuss Voigt Hill
#
# Bulk Modulus (GPa) = 13.83908 47.97135 30.90522
# Shear Modulus (GPa) = 18.72621 34.60152 26.66386
#
# Velocity S-wave (km/s) = 2.87571 3.90902 3.43148
# Velocity P-wave (km/s) = 4.13978 6.44660 5.41740
#
# Compressibility (1/GPa) = 0.07225914
#
# Stress axis : x y z
#
# Youngs Moduli (GPa) = 17.46541 52.51649 96.73733
#
# Poissons Ratio (x) = 0.19182 -0.54014
# Poissons Ratio (y) = 0.06379 0.88215
# Poissons Ratio (z) = -0.09752 0.47890
#
# Static dielectric constant tensor:
#      x y z
#    x 1.999870 0.000000 0.043240 
#    y 0.000000 1.835270 0.000000 
#    z 0.043240 0.000000 1.851610 
# 
# From -- ./inp_files/171658.got.cif
#   From: 2010.05.17/outbox.cif.g08.bks.cpg/sg15_86_cif.got.tgz:171658.got - 2010.06.03 18:47:42.
