data_PCOD9262934
_publ_section_title
;
Structure prediction by ZEFSAII (Michael W. Deem and Ramdas Pophale) SiO2 
 PCOD9262934
Probable space group: C 2/C
;
_chemical_formula_sum "Si O2"
_cell_formula_units_Z 64
_cell_length_a 14.254405
_cell_length_b 7.479074
_cell_length_c 30.826336
_cell_angle_alpha 90.000000
_cell_angle_beta 51.184241
_cell_angle_gamma 90.000000
_cell_volume 2560.640422
_symmetry_space_group_name_H-M "C 2/C"
_symmetry_group_IT_number 15
_symmetry_cell_setting 'monoclinic'
loop_
_space_group_symop_operation_xyz
x,y,z
-x,y,1/2-z
-x,-y,-z
x,-y,1/2+z
1/2+x,1/2+y,z
1/2-x,1/2+y,1/2-z
1/2-x,1/2-y,-z
1/2+x,1/2-y,1/2+z
loop_
_atom_site_type_symbol
_atom_site_label
_atom_site_fract_x
_atom_site_fract_y
_atom_site_fract_z
Si Si1 0.275718 0.610015 0.377190
Si Si2 0.723111 0.375877 0.716884
Si Si3 0.000802 0.379340 0.542834
Si Si4 0.171348 0.227168 0.322454
Si Si5 0.485860 0.782709 0.638465
Si Si6 0.422661 0.392743 0.917566
Si Si7 0.132181 0.041477 0.480470
Si Si8 0.689755 0.820400 0.639743
O O1 0.332890 0.659002 0.314041
O O2 0.139275 0.683440 0.416761
O O3 0.345624 0.671680 0.399265
O O4 0.272900 0.390587 0.377630
O O5 0.780058 0.573869 0.698543
O O6 0.646405 0.350407 0.782060
O O7 0.844575 0.260662 0.686493
O O8 0.000000 0.500000 0.500000
O O9 0.013376 0.419579 0.590734
O O10 0.109930 0.242947 0.503817
O O11 0.274802 0.134060 0.321422
O O12 0.049427 0.208161 0.385417
O O13 0.537446 0.594561 0.606806
O O14 0.553706 0.834090 0.662762
O O15 0.351796 0.411286 0.983246
O O16 0.232299 0.059010 0.415240
O O17 0.000000 0.000000 0.500000
#
# Coordination Sequence:
#
# PCOD9262934 Si02
#       8
#     8   8   8   8   8   8   8   8
#     4   9  20  38  59  85 111 152 195 233 273 339
#     4  10  22  41  61  83 114 146 190 240 290 332
#     4  10  19  33  58  80 116 153 193 224 270 333
#     4  11  22  40  62  82 113 150 186 241 286 341
#     4   9  21  37  58  87 111 148 194 234 273 342
#     4  10  21  37  60  86 115 149 194 229 282 336
#     4  11  21  35  55  86 122 153 183 233 281 336
#     4  10  20  37  60  84 117 151 190 229 284 338
#
# _framework density 24.993749999999999
#
# number of rings (size 3 to 8) (size 9 to 14) (size 15 to 20)
#    0.000    2.000    2.500    0.750    1.750    2.500 
#    2.250    5.625    0.000    0.000    0.000    0.000 
#    0.000    0.000    0.000    0.000    0.000    0.000 
#
# Total GULP energy -178738.693199 kJ/mol
# GULP energy per Si atom -5585.584162 kJ/mol
# Density = 2.493686 g / cm^3
# Si number density = 24.993750 Si / 1000 Ang^3
#
#
#
# Elastic Constant Matrix: (Units=GPa)
#
#
# Indices 1 2 3 4 5 6 
#
# 1 118.3022 3.6514 -1.5746 0.0004 30.6982 0.0005
# 2 3.6514 49.5995 6.4802 0.0020 9.2239 0.0005
# 3 -1.5746 6.4802 62.1733 0.0008 19.0829 0.0006
# 4 0.0004 0.0020 0.0008 24.4096 0.0005 -3.1699
# 5 30.6982 9.2239 19.0829 0.0005 31.7277 0.0003
# 6 0.0005 0.0005 0.0006 -3.1699 0.0003 21.1300
#
#
#
# Elastic Compliance Matrix: (Units=1/GPa)
#
#
# Indices 1 2 3 4 5 6 
#
# 1 0.012474 0.001304 0.004907 0.000000 -0.015400 0.000000
# 2 0.001304 0.021458 0.000121 -0.000002 -0.007573 -0.000001
# 3 0.004907 0.000121 0.021663 -0.000001 -0.017812 -0.000001
# 4 0.000000 -0.000002 -0.000001 0.041781 0.000000 0.006268
# 5 -0.015400 -0.007573 -0.017812 0.000000 0.059333 0.000000
# 6 0.000000 -0.000001 -0.000001 0.006268 0.000000 0.048266
#
#
# Mechanical properties :
#
#
# Convention : Reuss Voigt Hill
#
# Bulk Modulus (GPa) = 14.65017 27.46545 21.05781
# Shear Modulus (GPa) = 23.24889 30.22135 26.73512
#
# Velocity S-wave (km/s) = 3.05321 3.48106 3.27413
# Velocity P-wave (km/s) = 4.27828 5.21247 4.76831
#
# Compressibility (1/GPa) = 0.06825859
#
# Stress axis : x y z
#
# Youngs Moduli (GPa) = 80.16685 46.60259 46.16238
#
# Poissons Ratio (x) = -0.06079 -0.22650
# Poissons Ratio (y) = -0.10458 -0.00558
# Poissons Ratio (z) = -0.39334 -0.00564
#
# Static dielectric constant tensor:
#      x y z
#    x 1.977270 0.000000 0.038940 
#    y 0.000000 2.148840 0.000000 
#    z 0.038940 0.000000 1.985030 
# 
# From -- ./inp_files/273164.got.cif
#   From: 2010.05.17/outbox.cif.g08.bks.cpg/sg15_137_cif.got.tgz:273164.got - 2010.06.03 18:47:42.
