data_PCOD9262061
_publ_section_title
;
Structure prediction by ZEFSAII (Michael W. Deem and Ramdas Pophale) SiO2 
 PCOD9262061
Probable space group: C 2/C
;
_chemical_formula_sum "Si O2"
_cell_formula_units_Z 64
_cell_length_a 9.024017
_cell_length_b 31.517531
_cell_length_c 17.230548
_cell_angle_alpha 90.000000
_cell_angle_beta 29.863990
_cell_angle_gamma 90.000000
_cell_volume 2440.229331
_symmetry_space_group_name_H-M "C 2/C"
_symmetry_group_IT_number 15
_symmetry_cell_setting 'monoclinic'
loop_
_space_group_symop_operation_xyz
x,y,z
-x,y,1/2-z
-x,-y,-z
x,-y,1/2+z
1/2+x,1/2+y,z
1/2-x,1/2+y,1/2-z
1/2-x,1/2-y,-z
1/2+x,1/2-y,1/2+z
loop_
_atom_site_type_symbol
_atom_site_label
_atom_site_fract_x
_atom_site_fract_y
_atom_site_fract_z
Si Si1 0.331678 0.211703 0.533016
Si Si2 0.828906 0.237699 0.193223
Si Si3 0.744856 0.821973 0.217195
Si Si4 0.356415 0.872626 0.098955
Si Si5 0.472644 0.042552 0.964398
Si Si6 0.911128 0.944630 0.606819
Si Si7 0.756357 0.965829 0.189179
Si Si8 0.149412 0.154006 0.385884
O O1 0.514430 0.228073 0.377357
O O2 0.335759 0.245470 0.601290
O O3 0.012754 0.193820 0.651548
O O4 0.474128 0.168791 0.501492
O O5 0.945576 0.277766 0.191700
O O6 0.946228 0.189715 0.132975
O O7 0.593388 0.860363 0.332749
O O8 0.913854 0.838595 0.064100
O O9 0.522558 0.913815 0.991426
O O10 0.000000 0.877437 0.250000
O O11 0.750088 0.049321 0.779461
O O12 0.191390 0.043624 0.034683
O O13 0.500000 0.000000 0.000000
O O14 0.965901 0.954229 0.490118
O O15 0.849310 0.894954 0.641375
O O16 0.698943 0.983695 0.725350
O O17 0.500000 0.947644 0.250000
O O18 0.500000 0.162781 0.250000
#
# Coordination Sequence:
#
# PCOD9262061 Si02
#       8
#     8   8   8   8   8   8   8   8
#     4  10  19  32  52  87 127 163 210 264 318 369
#     4  11  19  31  54  88 133 165 214 270 323 365
#     4  10  19  33  53  87 121 166 207 260 311 374
#     4   9  21  37  57  86 118 158 203 258 313 382
#     4  11  24  41  66  89 121 165 202 261 328 388
#     4  10  23  40  62  94 121 163 210 262 317 388
#     4   9  20  43  64  86 121 160 204 255 314 389
#     4  12  21  32  58  93 127 167 211 269 322 370
#
# _framework density 26.227043999999999
#
# number of rings (size 3 to 8) (size 9 to 14) (size 15 to 20)
#    0.000    1.750    2.500    3.375    1.750    1.000 
#    6.750    0.000    0.000    3.000    6.500    0.000 
#    0.000    0.000    0.000    0.000    0.000    0.000 
#
# Total GULP energy -178510.494500 kJ/mol
# GULP energy per Si atom -5578.452953 kJ/mol
# Density = 2.616735 g / cm^3
# Si number density = 26.227044 Si / 1000 Ang^3
#
#
#
# Elastic Constant Matrix: (Units=GPa)
#
#
# Indices 1 2 3 4 5 6 
#
# 1 93.7908 40.3143 26.1116 0.0000 9.1253 0.0000
# 2 40.3143 221.5961 24.2453 0.0000 11.2740 0.0000
# 3 26.1116 24.2453 51.3977 0.0000 9.7986 0.0000
# 4 0.0000 0.0000 0.0000 30.4943 0.0000 0.7559
# 5 9.1253 11.2740 9.7986 0.0000 32.1408 0.0000
# 6 0.0000 0.0000 0.0000 0.7559 0.0000 24.0789
#
#
#
# Elastic Compliance Matrix: (Units=1/GPa)
#
#
# Indices 1 2 3 4 5 6 
#
# 1 0.013082 -0.001698 -0.005575 0.000000 -0.001419 0.000000
# 2 -0.001698 0.005012 -0.001336 0.000000 -0.000869 0.000000
# 3 -0.005575 -0.001336 0.023917 0.000000 -0.005240 0.000000
# 4 0.000000 0.000000 0.000000 0.032819 0.000000 -0.001030
# 5 -0.001419 -0.000869 -0.005240 0.000000 0.033418 0.000000
# 6 0.000000 0.000000 0.000000 -0.001030 0.000000 0.041563
#
#
# Mechanical properties :
#
#
# Convention : Reuss Voigt Hill
#
# Bulk Modulus (GPa) = 40.33175 60.90300 50.61738
# Shear Modulus (GPa) = 28.52379 35.75035 32.13707
#
# Velocity S-wave (km/s) = 3.30141 3.69604 3.50428
# Velocity P-wave (km/s) = 5.47209 6.44097 5.97620
#
# Compressibility (1/GPa) = 0.02479436
#
# Stress axis : x y z
#
# Youngs Moduli (GPa) = 76.44189 199.52219 41.81054
#
# Poissons Ratio (x) = 0.33875 0.23307
# Poissons Ratio (y) = 0.12978 0.05586
# Poissons Ratio (z) = 0.42613 0.26658
#
# Static dielectric constant tensor:
#      x y z
#    x 2.124510 0.000000 -0.077760 
#    y 0.000000 2.137810 0.000000 
#    z -0.077760 0.000000 2.139610 
# 
# From -- ./inp_files/240996.got.cif
#   From: 2010.05.17/outbox.cif.g08.bks.cpg/sg15_121_cif.got.tgz:240996.got - 2010.06.03 18:47:42.
