data_PCOD9262370
_publ_section_title
;
Structure prediction by ZEFSAII (Michael W. Deem and Ramdas Pophale) SiO2 
 PCOD9262370
Probable space group: C 2/C
;
_chemical_formula_sum "Si O2"
_cell_formula_units_Z 64
_cell_length_a 24.882467
_cell_length_b 16.481661
_cell_length_c 22.803153
_cell_angle_alpha 90.000000
_cell_angle_beta 22.136139
_cell_angle_gamma 90.000000
_cell_volume 3523.790750
_symmetry_space_group_name_H-M "C 2/C"
_symmetry_group_IT_number 15
_symmetry_cell_setting 'monoclinic'
loop_
_space_group_symop_operation_xyz
x,y,z
-x,y,1/2-z
-x,-y,-z
x,-y,1/2+z
1/2+x,1/2+y,z
1/2-x,1/2+y,1/2-z
1/2-x,1/2-y,-z
1/2+x,1/2-y,1/2+z
loop_
_atom_site_type_symbol
_atom_site_label
_atom_site_fract_x
_atom_site_fract_y
_atom_site_fract_z
Si Si1 0.753571 0.394655 0.194997
Si Si2 0.031257 0.011351 0.364901
Si Si3 0.911090 0.744395 0.090619
Si Si4 0.674857 0.353035 0.781617
Si Si5 0.215188 0.728504 0.102359
Si Si6 0.031464 0.379400 0.859807
Si Si7 0.499004 0.360961 0.180709
Si Si8 0.737008 0.992360 0.716223
O O1 0.612934 0.446976 0.324008
O O2 0.702297 0.307888 0.268055
O O3 0.828617 0.442551 0.172983
O O4 0.865179 0.398528 0.029205
O O5 0.008176 0.954012 0.331966
O O6 0.874908 0.031529 0.546744
O O7 0.126722 0.091980 0.274938
O O8 0.823553 0.695317 0.129579
O O9 0.951923 0.685195 0.103248
O O10 0.046117 0.793353 0.929670
O O11 0.703062 0.416521 0.806373
O O12 0.094302 0.661146 0.237839
O O13 0.137219 0.809824 0.203877
O O14 0.250000 0.750000 0.000000
O O15 0.358953 0.688418 0.983710
O O16 0.126252 0.456145 0.782142
O O17 0.500000 0.357663 0.250000
#
# Coordination Sequence:
#
# PCOD9262370 Si02
#       8
#     8   8   8   8   8   8   8   8
#     4  11  20  31  48  75 104 136 172 212 254 315
#     4  11  19  35  53  70 104 136 171 209 264 308
#     4  11  19  30  47  72 101 133 173 203 249 307
#     4  10  20  32  48  73 100 137 164 210 249 311
#     4  10  22  36  51  74 100 135 184 222 253 294
#     4  11  22  30  49  71 104 140 172 213 259 299
#     4  10  22  38  55  74  99 134 179 221 259 305
#     4  10  19  33  49  69 103 140 174 204 257 318
#
# _framework density 18.162258000000001
#
# number of rings (size 3 to 8) (size 9 to 14) (size 15 to 20)
#    0.000    1.500    5.000    1.875    3.500    0.000 
#    0.000    0.000    0.000    0.000    0.000    0.875 
#    0.000    0.000    0.000    0.000    0.000    0.500 
#
# Total GULP energy -178355.587904 kJ/mol
# GULP energy per Si atom -5573.612122 kJ/mol
# Density = 1.812092 g / cm^3
# Si number density = 18.162258 Si / 1000 Ang^3
#
#
#
# Elastic Constant Matrix: (Units=GPa)
#
#
# Indices 1 2 3 4 5 6 
#
# 1 39.0429 15.5111 9.9525 -0.0003 -6.1018 -0.0003
# 2 15.5111 46.0242 5.5921 -0.0059 -4.6176 0.0008
# 3 9.9525 5.5921 61.1153 -0.0024 -3.8311 0.0012
# 4 -0.0003 -0.0059 -0.0024 27.9949 0.0019 -2.1913
# 5 -6.1018 -4.6176 -3.8311 0.0019 21.4278 -0.0004
# 6 -0.0003 0.0008 0.0012 -2.1913 -0.0004 34.9601
#
#
#
# Elastic Compliance Matrix: (Units=1/GPa)
#
#
# Indices 1 2 3 4 5 6 
#
# 1 0.031322 -0.009468 -0.003846 -0.000002 0.006191 0.000001
# 2 -0.009468 0.025257 -0.000604 0.000005 0.002639 0.000000
# 3 -0.003846 -0.000604 0.017160 0.000001 0.001843 -0.000001
# 4 -0.000002 0.000005 0.000001 0.035897 -0.000003 0.002250
# 5 0.006191 0.002639 0.001843 -0.000003 0.049329 0.000000
# 6 0.000001 0.000000 -0.000001 0.002250 0.000000 0.028745
#
#
# Mechanical properties :
#
#
# Convention : Reuss Voigt Hill
#
# Bulk Modulus (GPa) = 21.78513 23.14376 22.46444
# Shear Modulus (GPa) = 21.65939 24.55168 23.10553
#
# Velocity S-wave (km/s) = 3.45708 3.68067 3.57062
# Velocity P-wave (km/s) = 5.28734 5.55279 5.42169
#
# Compressibility (1/GPa) = 0.04590287
#
# Stress axis : x y z
#
# Youngs Moduli (GPa) = 31.92607 39.59359 58.27632
#
# Poissons Ratio (x) = 0.37486 0.22415
# Poissons Ratio (y) = 0.30227 0.03519
# Poissons Ratio (z) = 0.12280 0.02391
#
# Static dielectric constant tensor:
#      x y z
#    x 1.674390 0.000000 -0.033090 
#    y 0.000000 1.658300 0.000000 
#    z -0.033090 0.000000 1.663410 
# 
# From -- ./inp_files/283712.got.cif
#   From: 2010.05.17/outbox.cif.g08.bks.cpg/sg15_142_cif.got.tgz:283712.got - 2010.06.03 18:47:42.
