data_PCOD9262127
_publ_section_title
;
Structure prediction by ZEFSAII (Michael W. Deem and Ramdas Pophale) SiO2 
 PCOD9262127
Probable space group: C 2/C
;
_chemical_formula_sum "Si O2"
_cell_formula_units_Z 40
_cell_length_a 14.682088
_cell_length_b 17.305939
_cell_length_c 7.442731
_cell_angle_alpha 90.000000
_cell_angle_beta 56.682025
_cell_angle_gamma 90.000000
_cell_volume 1580.272480
_symmetry_space_group_name_H-M "C 2/C"
_symmetry_group_IT_number 15
_symmetry_cell_setting 'monoclinic'
loop_
_space_group_symop_operation_xyz
x,y,z
-x,y,1/2-z
-x,-y,-z
x,-y,1/2+z
1/2+x,1/2+y,z
1/2-x,1/2+y,1/2-z
1/2-x,1/2-y,-z
1/2+x,1/2-y,1/2+z
loop_
_atom_site_type_symbol
_atom_site_label
_atom_site_fract_x
_atom_site_fract_y
_atom_site_fract_z
Si Si1 0.680388 0.294743 0.322124
Si Si2 0.487993 0.408120 0.548066
Si Si3 0.618899 0.129944 0.075807
Si Si4 0.756753 0.859762 0.852440
Si Si5 0.383264 0.973466 0.282785
O O1 0.579481 0.349054 0.373288
O O2 0.785258 0.313902 0.086810
O O3 0.675700 0.201733 0.345081
O O4 0.704364 0.319572 0.501898
O O5 0.500000 0.401345 0.750000
O O6 0.500000 0.500000 0.500000
O O7 0.367271 0.379415 0.627000
O O8 0.609847 0.075666 0.905830
O O9 0.500000 0.163878 0.250000
O O10 0.643807 0.064104 0.196994
O O11 0.705076 0.936030 0.992086
O O12 0.500000 0.965657 0.250000
#
# Coordination Sequence:
#
# PCOD9262127 Si02
#       5
#     8   8   8   8   8
#     4   9  19  34  55  81 110 144 186 235 280 330
#     4  10  20  37  61  85 113 149 190 236 284 342
#     4  10  19  33  53  78 109 143 184 231 281 336
#     4   9  19  34  55  82 109 144 188 231 280 336
#     4  10  19  32  54  79 106 142 184 231 279 336
#
# _framework density 25.312089
#
# number of rings (size 3 to 8) (size 9 to 14) (size 15 to 20)
#    0.000    2.400    0.000    3.600    0.000    5.600 
#    0.000    3.000    0.000    7.200    0.000    0.000 
#    0.000    0.000    0.000    0.000    0.000    0.000 
#
# Total GULP energy -111808.704610 kJ/mol
# GULP energy per Si atom -5590.435231 kJ/mol
# Density = 2.525448 g / cm^3
# Si number density = 25.312089 Si / 1000 Ang^3
#
#
#
# Elastic Constant Matrix: (Units=GPa)
#
#
# Indices 1 2 3 4 5 6 
#
# 1 51.7834 36.7436 32.4062 0.0000 -16.4671 0.0000
# 2 36.7436 174.2402 46.9322 0.0000 -41.9131 0.0000
# 3 32.4062 46.9322 155.0887 0.0000 -33.9817 0.0000
# 4 0.0000 0.0000 0.0000 10.1459 0.0000 1.1184
# 5 -16.4671 -41.9131 -33.9817 0.0000 61.8843 0.0000
# 6 0.0000 0.0000 0.0000 1.1184 0.0000 37.7402
#
#
#
# Elastic Compliance Matrix: (Units=1/GPa)
#
#
# Indices 1 2 3 4 5 6 
#
# 1 0.024913 -0.003780 -0.003604 0.000000 0.002090 0.000000
# 2 -0.003780 0.007633 -0.000691 0.000000 0.003784 0.000000
# 3 -0.003604 -0.000691 0.008068 0.000000 0.003004 0.000000
# 4 0.000000 0.000000 0.000000 0.098885 0.000000 -0.002930
# 5 0.002090 0.003784 0.003004 0.000000 0.020928 0.000000
# 6 0.000000 0.000000 0.000000 -0.002930 0.000000 0.026584
#
#
# Mechanical properties :
#
#
# Convention : Reuss Voigt Hill
#
# Bulk Modulus (GPa) = 40.87507 68.14181 54.50844
# Shear Modulus (GPa) = 23.66136 39.62277 31.64206
#
# Velocity S-wave (km/s) = 3.06074 3.96077 3.53948
# Velocity P-wave (km/s) = 5.35484 6.92069 6.18750
#
# Compressibility (1/GPa) = 0.02446479
#
# Stress axis : x y z
#
# Youngs Moduli (GPa) = 40.13897 131.01460 123.94526
#
# Poissons Ratio (x) = 0.49527 0.44667
# Poissons Ratio (y) = 0.15174 0.08561
# Poissons Ratio (z) = 0.14465 0.09049
#
# Static dielectric constant tensor:
#      x y z
#    x 2.131110 0.000000 0.067790 
#    y 0.000000 2.056990 0.000000 
#    z 0.067790 0.000000 1.984220 
# 
# From -- ./inp_files/49971.got.cif
#   From: 2010.05.17/outbox.cif.g08.bks.cpg/sg15_25_cif.got.tgz:49971.got - 2010.06.03 18:47:42.
