data_PCOD9262643
_publ_section_title
;
Structure prediction by ZEFSAII (Michael W. Deem and Ramdas Pophale) SiO2 
 PCOD9262643
Probable space group: C 2/C
;
_chemical_formula_sum "Si O2"
_cell_formula_units_Z 36
_cell_length_a 20.597638
_cell_length_b 20.524763
_cell_length_c 8.448520
_cell_angle_alpha 90.000000
_cell_angle_beta 149.617727
_cell_angle_gamma 90.000000
_cell_volume 1806.452712
_symmetry_space_group_name_H-M "C 2/C"
_symmetry_group_IT_number 15
_symmetry_cell_setting 'monoclinic'
loop_
_space_group_symop_operation_xyz
x,y,z
-x,y,1/2-z
-x,-y,-z
x,-y,1/2+z
1/2+x,1/2+y,z
1/2-x,1/2+y,1/2-z
1/2-x,1/2-y,-z
1/2+x,1/2-y,1/2+z
loop_
_atom_site_type_symbol
_atom_site_label
_atom_site_fract_x
_atom_site_fract_y
_atom_site_fract_z
Si Si1 0.245792 0.805771 0.623299
Si Si2 0.000000 0.259621 0.750000
Si Si3 0.835583 0.312779 0.138207
Si Si4 0.153419 0.926104 0.880414
Si Si5 0.647441 0.427717 0.245388
O O1 0.250000 0.750000 0.500000
O O2 0.114998 0.786995 0.439175
O O3 0.233086 0.875052 0.513789
O O4 0.352534 0.807924 0.985145
O O5 0.956209 0.304053 0.508917
O O6 0.750000 0.250000 0.000000
O O7 0.751187 0.375999 0.005235
O O8 0.002463 0.910945 0.533966
O O9 0.172474 0.999288 0.857637
O O10 0.168619 0.923790 0.101946
#
# Coordination Sequence:
#
# PCOD9262643 Si02
#       5
#     8   4   8   8   8
#     4  11  22  36  58  84 113 149 189 233 283 339
#     4  10  22  38  58  82 114 150 192 240 284 336
#     4  10  20  36  55  79 111 146 186 231 281 336
#     4  10  20  33  55  83 113 148 183 234 289 337
#     4  10  19  33  54  83 114 144 186 233 286 338
#
# _framework density 19.928560000000001
#
# number of rings (size 3 to 8) (size 9 to 14) (size 15 to 20)
#    0.000    1.778    0.000    6.667    0.000    6.222 
#    0.000    0.000    0.000   12.000    0.000    0.000 
#    0.000    0.000    0.000    0.000    0.000    0.000 
#
# Total GULP energy -100489.375631 kJ/mol
# GULP energy per Si atom -5582.743091 kJ/mol
# Density = 1.988320 g / cm^3
# Si number density = 19.928560 Si / 1000 Ang^3
#
#
#
# Elastic Constant Matrix: (Units=GPa)
#
#
# Indices 1 2 3 4 5 6 
#
# 1 71.4405 23.7822 36.4862 0.0000 -24.9008 0.0000
# 2 23.7822 88.7010 39.8476 0.0000 -23.1004 0.0000
# 3 36.4862 39.8476 102.7099 0.0000 -41.6756 0.0000
# 4 0.0000 0.0000 0.0000 33.5324 0.0000 -5.5487
# 5 -24.9008 -23.1004 -41.6756 0.0000 46.1400 0.0000
# 6 0.0000 0.0000 0.0000 -5.5487 0.0000 37.9930
#
#
#
# Elastic Compliance Matrix: (Units=1/GPa)
#
#
# Indices 1 2 3 4 5 6 
#
# 1 0.018429 -0.001862 -0.003421 0.000000 0.005924 0.000000
# 2 -0.001862 0.014155 -0.003729 0.000000 0.002714 0.000000
# 3 -0.003421 -0.003729 0.017192 0.000000 0.011816 0.000000
# 4 0.000000 0.000000 0.000000 0.030560 0.000000 0.004463
# 5 0.005924 0.002714 0.011816 0.000000 0.036902 0.000000
# 6 0.000000 0.000000 0.000000 0.004463 0.000000 0.026972
#
#
# Mechanical properties :
#
#
# Convention : Reuss Voigt Hill
#
# Bulk Modulus (GPa) = 31.49233 51.45371 41.47302
# Shear Modulus (GPa) = 28.93203 34.38211 31.65707
#
# Velocity S-wave (km/s) = 3.81437 4.15814 3.98996
# Velocity P-wave (km/s) = 5.93600 6.99490 6.48709
#
# Compressibility (1/GPa) = 0.03175377
#
# Stress axis : x y z
#
# Youngs Moduli (GPa) = 54.26137 70.64648 58.16494
#
# Poissons Ratio (x) = 0.13152 0.19897
# Poissons Ratio (y) = 0.10102 0.21690
# Poissons Ratio (z) = 0.18561 0.26345
#
# Static dielectric constant tensor:
#      x y z
#    x 1.739890 0.000000 -0.033790 
#    y 0.000000 1.645550 0.000000 
#    z -0.033790 0.000000 1.760540 
# 
# From -- ./inp_files/28687.got.cif
#   From: 2010.05.17/outbox.cif.g08.bks.cpg/sg15_15_cif.got.tgz:28687.got - 2010.06.03 18:47:42.
