data_PCOD9262019
_publ_section_title
;
Structure prediction by ZEFSAII (Michael W. Deem and Ramdas Pophale) SiO2 
 PCOD9262019
Probable space group: C 2/C
;
_chemical_formula_sum "Si O2"
_cell_formula_units_Z 56
_cell_length_a 28.002786
_cell_length_b 5.266775
_cell_length_c 23.346626
_cell_angle_alpha 90.000000
_cell_angle_beta 117.245460
_cell_angle_gamma 90.000000
_cell_volume 3061.244303
_symmetry_space_group_name_H-M "C 2/C"
_symmetry_group_IT_number 15
_symmetry_cell_setting 'monoclinic'
loop_
_space_group_symop_operation_xyz
x,y,z
-x,y,1/2-z
-x,-y,-z
x,-y,1/2+z
1/2+x,1/2+y,z
1/2-x,1/2+y,1/2-z
1/2-x,1/2-y,-z
1/2+x,1/2-y,1/2+z
loop_
_atom_site_type_symbol
_atom_site_label
_atom_site_fract_x
_atom_site_fract_y
_atom_site_fract_z
Si Si1 0.417537 0.361085 0.344330
Si Si2 0.546562 0.694233 0.044494
Si Si3 0.215515 0.038005 0.295729
Si Si4 0.318220 0.961781 0.793042
Si Si5 0.476568 0.083362 0.079516
Si Si6 0.114224 0.039887 0.299350
Si Si7 0.442205 0.042055 0.186248
O O1 0.409833 0.545391 0.394408
O O2 0.380220 0.114464 0.333822
O O3 0.480525 0.296200 0.377133
O O4 0.403144 0.483657 0.275905
O O5 0.515318 0.884516 0.069155
O O6 0.500000 0.500000 0.000000
O O7 0.562311 0.823874 0.993055
O O8 0.280104 0.054904 0.328080
O O9 0.193194 0.273552 0.245080
O O10 0.179173 0.044566 0.332501
O O11 0.202592 0.768845 0.258662
O O12 0.449967 0.991754 0.123050
O O13 0.090362 0.308196 0.304812
O O14 0.089013 0.806537 0.320746
O O15 0.500000 0.056839 0.250000
#
# Coordination Sequence:
#
# PCOD9262019 Si02
#       7
#     8   8   8   8   8   8   8
#     4  10  19  32  52  77 104 137 173 219 265 314
#     4   9  20  35  53  71 101 139 177 227 260 295
#     4   9  18  33  47  74 106 138 172 210 262 318
#     4   9  18  30  52  74 103 136 170 217 266 313
#     4  10  21  35  50  74 108 137 180 217 260 308
#     4  11  22  33  51  76 110 144 171 207 257 319
#     4  12  23  33  50  76 106 146 176 207 254 320
#
# _framework density 18.293213000000002
#
# number of rings (size 3 to 8) (size 9 to 14) (size 15 to 20)
#    0.000    2.000    1.429    3.000    8.000    0.000 
#    0.000    0.000    0.000    0.000    0.000    2.000 
#    0.000    0.000    0.000    0.000    0.000    0.000 
#
# Total GULP energy -155967.129818 kJ/mol
# GULP energy per Si atom -5570.254636 kJ/mol
# Density = 1.825158 g / cm^3
# Si number density = 18.293213 Si / 1000 Ang^3
#
#
#
# Elastic Constant Matrix: (Units=GPa)
#
#
# Indices 1 2 3 4 5 6 
#
# 1 67.8065 -1.8048 6.4572 0.0015 -19.4834 0.0016
# 2 -1.8048 60.5728 -0.0516 -0.0002 1.0135 -0.0016
# 3 6.4572 -0.0516 71.0696 0.0015 -15.1025 0.0015
# 4 0.0015 -0.0002 0.0015 18.6818 -0.0009 -14.4714
# 5 -19.4834 1.0135 -15.1025 -0.0009 16.4939 -0.0008
# 6 0.0016 -0.0016 0.0015 -14.4714 -0.0008 12.8818
#
#
#
# Elastic Compliance Matrix: (Units=1/GPa)
#
#
# Indices 1 2 3 4 5 6 
#
# 1 0.023515 0.000168 0.004674 -0.000014 0.032046 -0.000017
# 2 0.000168 0.016531 -0.000220 0.000013 -0.001018 0.000017
# 3 0.004674 -0.000220 0.018403 -0.000014 0.022384 -0.000017
# 4 -0.000014 0.000013 -0.000014 0.412417 0.000015 0.463306
# 5 0.032046 -0.001018 0.022384 0.000015 0.119042 0.000018
# 6 -0.000017 0.000017 -0.000017 0.463306 0.000018 0.598103
#
#
# Mechanical properties :
#
#
# Convention : Reuss Voigt Hill
#
# Bulk Modulus (GPa) = 14.77242 23.18339 18.97791
# Shear Modulus (GPa) = 4.16205 22.60138 13.38172
#
# Velocity S-wave (km/s) = 1.51001 3.51879 2.70758
# Velocity P-wave (km/s) = 3.33662 5.40462 4.49127
#
# Compressibility (1/GPa) = 0.06769371
#
# Stress axis : x y z
#
# Youngs Moduli (GPa) = 42.52522 60.49273 54.34004
#
# Poissons Ratio (x) = -0.01019 -0.25396
# Poissons Ratio (y) = -0.00716 0.01193
# Poissons Ratio (z) = -0.19874 0.01328
#
# Static dielectric constant tensor:
#      x y z
#    x 1.692440 0.000000 0.008140 
#    y 0.000000 1.700420 0.000000 
#    z 0.008140 0.000000 1.671020 
# 
# From -- ./inp_files/256365.got.cif
#   From: 2010.05.17/outbox.cif.g08.bks.cpg/sg15_129_cif.got.tgz:256365.got - 2010.06.03 18:47:42.
