data_PCOD9262119
_publ_section_title
;
Structure prediction by ZEFSAII (Michael W. Deem and Ramdas Pophale) SiO2 
 PCOD9262119
Probable space group: C 2/C
;
_chemical_formula_sum "Si O2"
_cell_formula_units_Z 24
_cell_length_a 14.638809
_cell_length_b 8.444431
_cell_length_c 10.629872
_cell_angle_alpha 90.000000
_cell_angle_beta 133.517133
_cell_angle_gamma 90.000000
_cell_volume 952.890731
_symmetry_space_group_name_H-M "C 2/C"
_symmetry_group_IT_number 15
_symmetry_cell_setting 'monoclinic'
loop_
_space_group_symop_operation_xyz
x,y,z
-x,y,1/2-z
-x,-y,-z
x,-y,1/2+z
1/2+x,1/2+y,z
1/2-x,1/2+y,1/2-z
1/2-x,1/2-y,-z
1/2+x,1/2-y,1/2+z
loop_
_atom_site_type_symbol
_atom_site_label
_atom_site_fract_x
_atom_site_fract_y
_atom_site_fract_z
Si Si1 0.500000 0.143867 0.750000
Si Si2 0.500000 0.606132 0.750000
Si Si3 0.258582 0.079626 0.075136
Si Si4 0.566555 0.829626 0.575136
O O1 0.472518 0.237030 0.595969
O O2 0.624575 0.030923 0.853802
O O3 0.373451 0.512970 0.595969
O O4 0.520773 0.719076 0.646198
O O5 0.289695 0.125000 0.250000
O O6 0.250000 0.250000 0.000000
O O7 0.500000 0.000000 0.500000
#
# Coordination Sequence:
#
# PCOD9262119 Si02
#       4
#     4   4   8   8
#     4  10  19  32  54  72  95 126 167 198 236 284
#     4  10  19  32  54  72  95 126 167 198 236 284
#     4   9  16  29  49  74  94 126 161 197 234 291
#     4   9  16  29  49  74  94 126 161 197 234 291
#
# _framework density 25.186519000000001
#
# number of rings (size 3 to 8) (size 9 to 14) (size 15 to 20)
#    0.000    2.667    0.000    9.000    0.000    0.000 
#    0.000    3.333    0.000   24.000    0.000    0.000 
#    0.000    0.000    0.000    0.000    0.000    0.000 
#
# Total GULP energy -66830.637504 kJ/mol
# GULP energy per Si atom -5569.219792 kJ/mol
# Density = 2.512919 g / cm^3
# Si number density = 25.186519 Si / 1000 Ang^3
#
#
#
# Elastic Constant Matrix: (Units=GPa)
#
#
# Indices 1 2 3 4 5 6 
#
# 1 100.9163 43.8243 106.2930 0.0000 -1.5643 0.0000
# 2 43.8243 84.0644 29.6020 0.0000 0.1600 0.0000
# 3 106.2930 29.6020 335.2371 0.0000 -1.0603 0.0000
# 4 0.0000 0.0000 0.0000 23.4537 0.0000 -0.0264
# 5 -1.5643 0.1600 -1.0603 0.0000 67.1353 0.0000
# 6 0.0000 0.0000 0.0000 -0.0264 0.0000 21.1156
#
#
#
# Elastic Compliance Matrix: (Units=1/GPa)
#
#
# Indices 1 2 3 4 5 6 
#
# 1 0.019002 -0.008035 -0.005314 0.000000 0.000378 0.000000
# 2 -0.008035 0.015676 0.001163 0.000000 -0.000206 0.000000
# 3 -0.005314 0.001163 0.004565 0.000000 -0.000054 0.000000
# 4 0.000000 0.000000 0.000000 0.042637 0.000000 0.000053
# 5 0.000378 -0.000206 -0.000054 0.000000 0.014904 0.000000
# 6 0.000000 0.000000 0.000000 0.000053 0.000000 0.047359
#
#
# Mechanical properties :
#
#
# Convention : Reuss Voigt Hill
#
# Bulk Modulus (GPa) = 67.25322 97.73962 82.49642
# Shear Modulus (GPa) = 28.82316 45.04081 36.93199
#
# Velocity S-wave (km/s) = 3.38655 4.23341 3.83344
# Velocity P-wave (km/s) = 6.48473 7.92377 7.24009
#
# Compressibility (1/GPa) = 0.01486918
#
# Stress axis : x y z
#
# Youngs Moduli (GPa) = 52.62647 63.79362 219.05588
#
# Poissons Ratio (x) = 0.51261 1.16409
# Poissons Ratio (y) = 0.42288 -0.25475
# Poissons Ratio (z) = 0.27966 -0.07419
#
# Static dielectric constant tensor:
#      x y z
#    x 2.250940 0.000000 0.001920 
#    y 0.000000 2.125800 0.000000 
#    z 0.001920 0.000000 2.079120 
# 
# From -- ./inp_files/21361.got.cif
#   From: 2010.05.17/outbox.cif.g08.bks.cpg/sg15_11_cif.got.tgz:21361.got - 2010.06.03 18:47:42.
