data_PCOD9262646
_publ_section_title
;
Structure prediction by ZEFSAII (Michael W. Deem and Ramdas Pophale) SiO2 
 PCOD9262646
Probable space group: C 2/C
;
_chemical_formula_sum "Si O2"
_cell_formula_units_Z 56
_cell_length_a 5.252345
_cell_length_b 25.566010
_cell_length_c 26.080008
_cell_angle_alpha 90.000000
_cell_angle_beta 130.085217
_cell_angle_gamma 90.000000
_cell_volume 2679.384646
_symmetry_space_group_name_H-M "C 2/C"
_symmetry_group_IT_number 15
_symmetry_cell_setting 'monoclinic'
loop_
_space_group_symop_operation_xyz
x,y,z
-x,y,1/2-z
-x,-y,-z
x,-y,1/2+z
1/2+x,1/2+y,z
1/2-x,1/2+y,1/2-z
1/2-x,1/2-y,-z
1/2+x,1/2-y,1/2+z
loop_
_atom_site_type_symbol
_atom_site_label
_atom_site_fract_x
_atom_site_fract_y
_atom_site_fract_z
Si Si1 0.567669 0.792873 0.088862
Si Si2 0.896154 0.140345 0.292416
Si Si3 0.391239 0.513208 0.542968
Si Si4 0.001132 0.092214 0.408985
Si Si5 0.601761 0.237469 0.705784
Si Si6 0.836183 0.187018 0.450085
Si Si7 0.705505 0.873912 0.035377
O O1 0.481413 0.789462 0.137583
O O2 0.772784 0.843008 0.096384
O O3 0.222417 0.801541 0.013803
O O4 0.750162 0.740214 0.091874
O O5 0.500000 0.136836 0.250000
O O6 0.995158 0.201254 0.310386
O O7 0.000000 0.122134 0.250000
O O8 0.062417 0.107731 0.358839
O O9 0.500000 0.500000 0.500000
O O10 0.588743 0.468643 0.600160
O O11 0.436912 0.575219 0.557824
O O12 0.000000 0.500000 0.500000
O O13 0.336935 0.101518 0.484946
O O14 0.775135 0.137732 0.404595
O O15 0.500000 0.219501 0.750000
O O16 0.000000 0.234754 0.750000
O O17 0.704697 0.168358 0.488472
#
# Coordination Sequence:
#
# PCOD9262646 Si02
#       7
#     8   8   8   8   8   8   8
#     4  10  21  34  51  85 115 151 188 232 285 344
#     4  10  22  36  55  81 111 148 190 233 281 335
#     4  10  20  35  56  84 112 143 181 222 279 341
#     4  10  20  35  56  83 115 146 186 235 289 341
#     4  10  22  37  55  78 109 152 193 232 274 334
#     4  10  19  33  54  83 118 147 179 232 295 342
#     4  10  21  33  56  85 117 152 182 233 290 348
#
# _framework density 20.900321000000002
#
# number of rings (size 3 to 8) (size 9 to 14) (size 15 to 20)
#    0.000    2.000    2.857    0.429    4.000    1.143 
#    0.000    0.000    0.000    0.857    0.000    0.000 
#    0.000    0.000    0.000    0.000    0.000    0.000 
#
# Total GULP energy -156063.415548 kJ/mol
# GULP energy per Si atom -5573.693412 kJ/mol
# Density = 2.085275 g / cm^3
# Si number density = 20.900321 Si / 1000 Ang^3
#
#
#
# Elastic Constant Matrix: (Units=GPa)
#
#
# Indices 1 2 3 4 5 6 
#
# 1 77.1013 33.4814 24.7032 0.0000 -33.7192 0.0000
# 2 33.4814 113.3790 65.0905 0.0000 -29.0563 0.0000
# 3 24.7032 65.0905 108.7090 0.0000 -46.7079 0.0000
# 4 0.0000 0.0000 0.0000 18.2683 0.0000 -13.4275
# 5 -33.7192 -29.0563 -46.7079 0.0000 46.8128 0.0000
# 6 0.0000 0.0000 0.0000 -13.4275 0.0000 20.1862
#
#
#
# Elastic Compliance Matrix: (Units=1/GPa)
#
#
# Indices 1 2 3 4 5 6 
#
# 1 0.021146 -0.005047 0.005978 0.000000 0.018063 0.000000
# 2 -0.005047 0.014653 -0.009244 0.000000 -0.003764 0.000000
# 3 0.005978 -0.009244 0.022335 0.000000 0.020853 0.000000
# 4 0.000000 0.000000 0.000000 0.107106 0.000000 0.071245
# 5 0.018063 -0.003764 0.020853 0.000000 0.052843 0.000000
# 6 0.000000 0.000000 0.000000 0.071245 0.000000 0.096930
#
#
# Mechanical properties :
#
#
# Convention : Reuss Voigt Hill
#
# Bulk Modulus (GPa) = 24.09191 60.63774 42.36482
# Shear Modulus (GPa) = 14.47286 28.78107 21.62697
#
# Velocity S-wave (km/s) = 2.63434 3.71491 3.22027
# Velocity P-wave (km/s) = 4.56126 6.89032 5.84301
#
# Compressibility (1/GPa) = 0.04150771
#
# Stress axis : x y z
#
# Youngs Moduli (GPa) = 47.29013 68.24723 44.77288
#
# Poissons Ratio (x) = 0.34446 -0.26764
# Poissons Ratio (y) = 0.23869 0.41386
# Poissons Ratio (z) = -0.28269 0.63084
#
# Static dielectric constant tensor:
#      x y z
#    x 1.867660 0.000000 0.007160 
#    y 0.000000 1.840240 0.000000 
#    z 0.007160 0.000000 1.772850 
# 
# From -- ./inp_files/227847.got.cif
#   From: 2010.05.17/outbox.cif.g08.bks.cpg/sg15_114_cif.got.tgz:227847.got - 2010.06.03 18:47:42.
