data_PCOD9262129
_publ_section_title
;
Structure prediction by ZEFSAII (Michael W. Deem and Ramdas Pophale) SiO2 
 PCOD9262129
Probable space group: C 2/C
;
_chemical_formula_sum "Si O2"
_cell_formula_units_Z 36
_cell_length_a 10.213117
_cell_length_b 17.807738
_cell_length_c 11.753208
_cell_angle_alpha 90.000000
_cell_angle_beta 40.451300
_cell_angle_gamma 90.000000
_cell_volume 1386.868626
_symmetry_space_group_name_H-M "C 2/C"
_symmetry_group_IT_number 15
_symmetry_cell_setting 'monoclinic'
loop_
_space_group_symop_operation_xyz
x,y,z
-x,y,1/2-z
-x,-y,-z
x,-y,1/2+z
1/2+x,1/2+y,z
1/2-x,1/2+y,1/2-z
1/2-x,1/2-y,-z
1/2+x,1/2-y,1/2+z
loop_
_atom_site_type_symbol
_atom_site_label
_atom_site_fract_x
_atom_site_fract_y
_atom_site_fract_z
Si Si1 0.753072 0.076908 0.915991
Si Si2 0.242395 0.907964 0.610334
Si Si3 0.795749 0.192603 0.708287
Si Si4 0.250824 0.842251 0.849140
Si Si5 0.750000 0.750000 0.000000
O O1 0.697613 0.123183 0.838992
O O2 0.000000 0.077408 0.750000
O O3 0.684188 0.991322 0.967863
O O4 0.691731 0.121872 0.069028
O O5 0.288781 0.892033 0.712487
O O6 0.303774 0.838092 0.492349
O O7 0.000000 0.910377 0.750000
O O8 0.830135 0.258174 0.777719
O O9 0.690078 0.237657 0.676815
O O10 0.007325 0.167803 0.514974
#
# Coordination Sequence:
#
# PCOD9262129 Si02
#       5
#     8   8   8   8   4
#     4   9  20  32  54  81 109 138 180 235 265 312
#     4  10  19  32  54  79 110 139 182 228 269 316
#     4  10  20  34  55  81 110 142 182 221 272 323
#     4  10  20  35  55  83 109 144 180 223 273 323
#     4  10  20  32  52  76 112 142 172 224 272 328
#
# _framework density 25.957758999999999
#
# number of rings (size 3 to 8) (size 9 to 14) (size 15 to 20)
#    0.000    2.222    2.222    0.667    3.111    2.667 
#    0.000    0.000    0.000    8.000    0.000    0.000 
#    0.000    0.000    0.000    0.000    0.000    0.000 
#
# Total GULP energy -100395.540266 kJ/mol
# GULP energy per Si atom -5577.530015 kJ/mol
# Density = 2.589868 g / cm^3
# Si number density = 25.957759 Si / 1000 Ang^3
#
#
#
# Elastic Constant Matrix: (Units=GPa)
#
#
# Indices 1 2 3 4 5 6 
#
# 1 101.5137 15.9834 10.1666 0.0015 14.2917 -0.0011
# 2 15.9834 236.2412 76.5801 0.0026 37.0515 0.0002
# 3 10.1666 76.5801 135.6911 0.0038 22.1487 -0.0006
# 4 0.0015 0.0026 0.0038 9.5255 -0.0026 3.9030
# 5 14.2917 37.0515 22.1487 -0.0026 43.6281 0.0007
# 6 -0.0011 0.0002 -0.0006 3.9030 0.0007 -6.0794
#
#
#
# Elastic Compliance Matrix: (Units=1/GPa)
#
#
# Indices 1 2 3 4 5 6 
#
# 1 0.010338 -0.000145 -0.000175 -0.000001 -0.003175 -0.000003
# 2 -0.000145 0.005621 -0.002606 -0.000001 -0.003403 -0.000001
# 3 -0.000175 -0.002606 0.009249 -0.000002 -0.002425 -0.000003
# 4 -0.000001 -0.000001 -0.000002 0.083117 0.000007 0.053361
# 5 -0.003175 -0.003403 -0.002425 0.000007 0.028083 0.000008
# 6 -0.000003 -0.000001 -0.000003 0.053361 0.000008 -0.130233
#
#
# Mechanical properties :
#
#
# Convention : Reuss Voigt Hill
#
# Bulk Modulus (GPa) = 51.65888 75.43401 63.54644
# Shear Modulus (GPa) = 270.56705 34.12923 152.34814
#
# Velocity S-wave (km/s) = 10.22056 3.62995 7.66930
# Velocity P-wave (km/s) = 12.61841 6.83316 10.14683
#
# Compressibility (1/GPa) = 0.01935776
#
# Stress axis : x y z
#
# Youngs Moduli (GPa) = 96.72895 177.89281 108.11448
#
# Poissons Ratio (x) = 0.02578 0.01887
# Poissons Ratio (y) = 0.01402 0.28176
# Poissons Ratio (z) = 0.01688 0.46361
#
# Static dielectric constant tensor:
#      x y z
#    x 2.280910 0.000000 -0.130110 
#    y 0.000000 1.924360 0.000000 
#    z -0.130110 0.000000 1.897910 
# 
# From -- ./inp_files/95491.got.cif
#   From: 2010.05.17/outbox.cif.g08.bks.cpg/sg15_48_cif.got.tgz:95491.got - 2010.06.03 18:47:42.
