data_PCOD9262389
_publ_section_title
;
Structure prediction by ZEFSAII (Michael W. Deem and Ramdas Pophale) SiO2 
 PCOD9262389
Probable space group: C 2/C
;
_chemical_formula_sum "Si O2"
_cell_formula_units_Z 56
_cell_length_a 28.314717
_cell_length_b 14.456379
_cell_length_c 10.997826
_cell_angle_alpha 90.000000
_cell_angle_beta 46.646104
_cell_angle_gamma 90.000000
_cell_volume 3273.324438
_symmetry_space_group_name_H-M "C 2/C"
_symmetry_group_IT_number 15
_symmetry_cell_setting 'monoclinic'
loop_
_space_group_symop_operation_xyz
x,y,z
-x,y,1/2-z
-x,-y,-z
x,-y,1/2+z
1/2+x,1/2+y,z
1/2-x,1/2+y,1/2-z
1/2-x,1/2-y,-z
1/2+x,1/2-y,1/2+z
loop_
_atom_site_type_symbol
_atom_site_label
_atom_site_fract_x
_atom_site_fract_y
_atom_site_fract_z
Si Si1 0.432146 0.762419 0.429660
Si Si2 0.310475 0.682953 0.739758
Si Si3 0.875418 0.363478 0.306729
Si Si4 0.380783 0.075112 0.384532
Si Si5 0.732483 0.876841 0.599011
Si Si6 0.508551 0.889857 0.969804
Si Si7 0.715487 0.080695 0.727987
O O1 0.500000 0.730149 0.250000
O O2 0.387094 0.691583 0.581978
O O3 0.386188 0.796841 0.401118
O O4 0.451793 0.846169 0.486337
O O5 0.279521 0.786455 0.798858
O O6 0.273350 0.626982 0.700518
O O7 0.292777 0.638942 0.901821
O O8 0.884119 0.466707 0.345563
O O9 0.808428 0.366589 0.351127
O O10 0.937143 0.347105 0.108759
O O11 0.329000 0.118701 0.383101
O O12 0.449229 0.120349 0.227000
O O13 0.348326 0.081623 0.572874
O O14 0.732836 0.974503 0.666540
O O15 0.500000 0.000000 0.000000
#
# Coordination Sequence:
#
# PCOD9262389 Si02
#       7
#     8   8   8   8   8   8   8
#     4  10  19  33  50  72 103 138 181 213 260 318
#     4  10  19  33  57  72 102 144 172 220 267 316
#     4   9  19  28  43  68 106 136 168 214 247 310
#     4   9  16  27  47  67 104 137 168 205 243 314
#     4   9  18  33  50  77 105 135 181 214 255 319
#     4   9  17  28  45  71 101 142 172 203 245 314
#     4  10  20  32  48  79 103 136 178 217 265 302
#
# _framework density 17.107989
#
# number of rings (size 3 to 8) (size 9 to 14) (size 15 to 20)
#    0.000    2.571    1.429    0.857    4.000    1.143 
#    0.000    0.000    0.000    0.857    0.000    0.000 
#    0.000    0.000    0.000    0.000    0.000    0.000 
#
# Total GULP energy -155897.431632 kJ/mol
# GULP energy per Si atom -5567.765415 kJ/mol
# Density = 1.706905 g / cm^3
# Si number density = 17.107989 Si / 1000 Ang^3
#
#
#
# Elastic Constant Matrix: (Units=GPa)
#
#
# Indices 1 2 3 4 5 6 
#
# 1 58.8495 33.3494 25.1792 0.0000 9.4501 0.0000
# 2 33.3494 53.8640 27.6644 0.0000 5.9667 0.0000
# 3 25.1792 27.6644 110.5033 0.0000 -7.6297 0.0000
# 4 0.0000 0.0000 0.0000 24.7924 0.0000 1.7186
# 5 9.4501 5.9667 -7.6297 0.0000 9.5492 0.0000
# 6 0.0000 0.0000 0.0000 1.7186 0.0000 23.2948
#
#
#
# Elastic Compliance Matrix: (Units=1/GPa)
#
#
# Indices 1 2 3 4 5 6 
#
# 1 0.031461 -0.013569 -0.005648 0.000000 -0.027169 0.000000
# 2 -0.013569 0.030813 -0.005318 0.000000 -0.010075 0.000000
# 3 -0.005648 -0.005318 0.013000 0.000000 0.019299 0.000000
# 4 0.000000 0.000000 0.000000 0.040542 0.000000 -0.002991
# 5 -0.027169 -0.010075 0.019299 0.000000 0.153322 0.000000
# 6 0.000000 0.000000 0.000000 -0.002991 0.000000 0.043149
#
#
# Mechanical properties :
#
#
# Convention : Reuss Voigt Hill
#
# Bulk Modulus (GPa) = 38.15900 43.95587 41.05744
# Shear Modulus (GPa) = 13.51020 20.66220 17.08620
#
# Velocity S-wave (km/s) = 2.81321 3.47904 3.16369
# Velocity P-wave (km/s) = 5.73632 6.47204 6.11526
#
# Compressibility (1/GPa) = 0.02620614
#
# Stress axis : x y z
#
# Youngs Moduli (GPa) = 31.78561 32.45342 76.92179
#
# Poissons Ratio (x) = 0.44034 0.43442
# Poissons Ratio (y) = 0.43128 0.40907
# Poissons Ratio (z) = 0.17951 0.17259
#
# Static dielectric constant tensor:
#      x y z
#    x 1.672550 0.000000 0.003500 
#    y 0.000000 1.564370 0.000000 
#    z 0.003500 0.000000 1.660020 
# 
# From -- ./inp_files/117181.got.cif
#   From: 2010.05.17/outbox.cif.g08.bks.cpg/sg15_59_cif.got.tgz:117181.got - 2010.06.03 18:47:42.
