data_PCOD9262678
_publ_section_title
;
Structure prediction by ZEFSAII (Michael W. Deem and Ramdas Pophale) SiO2 
 PCOD9262678
Probable space group: C 2/C
;
_chemical_formula_sum "Si O2"
_cell_formula_units_Z 56
_cell_length_a 15.452661
_cell_length_b 21.630334
_cell_length_c 7.282848
_cell_angle_alpha 90.000000
_cell_angle_beta 99.511564
_cell_angle_gamma 90.000000
_cell_volume 2400.798795
_symmetry_space_group_name_H-M "C 2/C"
_symmetry_group_IT_number 15
_symmetry_cell_setting 'monoclinic'
loop_
_space_group_symop_operation_xyz
x,y,z
-x,y,1/2-z
-x,-y,-z
x,-y,1/2+z
1/2+x,1/2+y,z
1/2-x,1/2+y,1/2-z
1/2-x,1/2-y,-z
1/2+x,1/2-y,1/2+z
loop_
_atom_site_type_symbol
_atom_site_label
_atom_site_fract_x
_atom_site_fract_y
_atom_site_fract_z
Si Si1 0.731703 0.130017 0.472796
Si Si2 0.656511 0.801047 0.283023
Si Si3 0.586593 0.921934 0.390354
Si Si4 0.312857 0.007476 0.859190
Si Si5 0.423273 0.414352 0.094750
Si Si6 0.190755 0.828323 0.889309
Si Si7 0.379239 0.448803 0.687943
O O1 0.674732 0.176119 0.580972
O O2 0.689343 0.061709 0.484821
O O3 0.829989 0.119382 0.588308
O O4 0.749457 0.153155 0.270296
O O5 0.594349 0.848443 0.372754
O O6 0.748384 0.808444 0.422163
O O7 0.633365 0.729375 0.298906
O O8 0.500000 0.940052 0.250000
O O9 0.669672 0.948452 0.307516
O O10 0.607507 0.958689 0.582752
O O11 0.219737 0.974009 0.804357
O O12 0.500000 0.389123 0.250000
O O13 0.418147 0.487890 0.132246
O O14 0.430067 0.418679 0.877177
O O15 0.138753 0.888764 0.939140
#
# Coordination Sequence:
#
# PCOD9262678 Si02
#       7
#     8   8   8   8   8   8   8
#     4   9  20  35  59  79 107 140 181 227 263 327
#     4  10  21  35  58  79 106 143 191 222 263 320
#     4  11  21  34  53  80 115 139 173 233 277 324
#     4  10  19  34  55  83 102 145 181 218 282 329
#     4  10  20  32  52  83 111 138 168 224 287 316
#     4  10  19  35  57  82  99 143 190 224 256 313
#     4  10  19  33  55  76 107 141 182 223 259 334
#
# _framework density 23.325571
#
# number of rings (size 3 to 8) (size 9 to 14) (size 15 to 20)
#    0.000    2.000    1.429    3.857    4.000    0.000 
#    0.000    0.714    9.429    0.000    0.000    0.000 
#    0.000    0.000    0.000    0.000    0.000    0.000 
#
# Total GULP energy -156024.357366 kJ/mol
# GULP energy per Si atom -5572.298477 kJ/mol
# Density = 2.327248 g / cm^3
# Si number density = 23.325571 Si / 1000 Ang^3
#
#
#
# Elastic Constant Matrix: (Units=GPa)
#
#
# Indices 1 2 3 4 5 6 
#
# 1 25.9856 4.0024 -0.5568 0.0000 10.9437 0.0000
# 2 4.0024 78.6097 -23.8017 0.0000 -5.7128 0.0000
# 3 -0.5568 -23.8017 62.6292 0.0000 1.8832 0.0000
# 4 0.0000 0.0000 0.0000 25.4650 0.0000 0.7762
# 5 10.9437 -5.7128 1.8832 0.0000 32.2165 0.0000
# 6 0.0000 0.0000 0.0000 0.7762 0.0000 18.9739
#
#
#
# Elastic Compliance Matrix: (Units=1/GPa)
#
#
# Indices 1 2 3 4 5 6 
#
# 1 0.045858 -0.003663 -0.000497 0.000000 -0.016198 0.000000
# 2 -0.003663 0.014830 0.005497 0.000000 0.003553 0.000000
# 3 -0.000497 0.005497 0.018049 0.000000 0.000089 0.000000
# 4 0.000000 0.000000 0.000000 0.039319 0.000000 -0.001609
# 5 -0.016198 0.003553 0.000089 0.000000 0.037167 0.000000
# 6 0.000000 0.000000 0.000000 -0.001609 0.000000 0.052770
#
#
# Mechanical properties :
#
#
# Convention : Reuss Voigt Hill
#
# Bulk Modulus (GPa) = 12.28338 14.05692 13.17015
# Shear Modulus (GPa) = 21.50949 27.83645 24.67297
#
# Velocity S-wave (km/s) = 3.03997 3.45829 3.25586
# Velocity P-wave (km/s) = 4.19516 4.68891 4.44889
#
# Compressibility (1/GPa) = 0.08141084
#
# Stress axis : x y z
#
# Youngs Moduli (GPa) = 21.80642 67.43084 55.40513
#
# Poissons Ratio (x) = 0.24697 0.02755
# Poissons Ratio (y) = 0.07987 -0.30454
# Poissons Ratio (z) = 0.01084 -0.37064
#
# Static dielectric constant tensor:
#      x y z
#    x 1.972440 0.000000 -0.085400 
#    y 0.000000 1.940290 0.000000 
#    z -0.085400 0.000000 2.066370 
# 
# From -- ./inp_files/50317.got.cif
#   From: 2010.05.17/outbox.cif.g08.bks.cpg/sg15_26_cif.got.tgz:50317.got - 2010.06.03 18:47:42.
