data_PCOD9262749
_publ_section_title
;
Structure prediction by ZEFSAII (Michael W. Deem and Ramdas Pophale) SiO2 
 PCOD9262749
Probable space group: C 2/C
;
_chemical_formula_sum "Si O2"
_cell_formula_units_Z 64
_cell_length_a 19.661177
_cell_length_b 10.467434
_cell_length_c 14.399553
_cell_angle_alpha 90.000000
_cell_angle_beta 61.402989
_cell_angle_gamma 90.000000
_cell_volume 2601.939543
_symmetry_space_group_name_H-M "C 2/C"
_symmetry_group_IT_number 15
_symmetry_cell_setting 'monoclinic'
loop_
_space_group_symop_operation_xyz
x,y,z
-x,y,1/2-z
-x,-y,-z
x,-y,1/2+z
1/2+x,1/2+y,z
1/2-x,1/2+y,1/2-z
1/2-x,1/2-y,-z
1/2+x,1/2-y,1/2+z
loop_
_atom_site_type_symbol
_atom_site_label
_atom_site_fract_x
_atom_site_fract_y
_atom_site_fract_z
Si Si1 0.666023 0.151627 0.492867
Si Si2 0.414360 0.009418 0.663022
Si Si3 0.673730 0.183291 0.149155
Si Si4 0.800659 0.823537 0.193762
Si Si5 0.581185 0.081399 0.048134
Si Si6 0.661983 0.410800 0.611645
Si Si7 0.341087 0.576785 0.051488
Si Si8 0.120735 0.227227 0.307673
O O1 0.655972 0.218992 0.399502
O O2 0.603221 0.056776 0.574088
O O3 0.667046 0.271488 0.560318
O O4 0.745545 0.069043 0.436116
O O5 0.488998 0.918606 0.605359
O O6 0.430631 0.152912 0.688398
O O7 0.355900 0.933401 0.765973
O O8 0.388289 0.054203 0.576357
O O9 0.672457 0.306093 0.217689
O O10 0.763110 0.150691 0.072961
O O11 0.621306 0.180347 0.091343
O O12 0.710367 0.779749 0.247213
O O13 0.814640 0.959868 0.137180
O O14 0.627127 0.509289 0.561126
O O15 0.618546 0.386973 0.735433
O O16 0.393219 0.668951 0.080862
#
# Coordination Sequence:
#
# PCOD9262749 Si02
#       8
#     8   8   8   8   8   8   8   8
#     4   9  15  30  52  77 104 140 186 230 279 340
#     4  11  23  38  52  83 118 152 198 239 293 338
#     4  11  19  34  55  85 115 147 198 236 296 359
#     4   9  18  32  54  79 113 148 182 241 292 349
#     4  11  22  35  56  81 115 154 184 248 290 345
#     4   9  17  30  54  80 107 146 191 231 285 344
#     4  10  19  33  55  84 117 149 187 244 306 346
#     4  10  20  34  54  81 117 154 189 245 289 355
#
# _framework density 24.597037
#
# number of rings (size 3 to 8) (size 9 to 14) (size 15 to 20)
#    0.000    2.000    3.750    1.875    0.000    0.000 
#    2.250    1.250    0.000    3.000    0.000    1.750 
#    0.000    0.000    0.000    0.000    0.000    0.000 
#
# Total GULP energy -178695.379219 kJ/mol
# GULP energy per Si atom -5584.230601 kJ/mol
# Density = 2.454105 g / cm^3
# Si number density = 24.597037 Si / 1000 Ang^3
#
#
#
# Elastic Constant Matrix: (Units=GPa)
#
#
# Indices 1 2 3 4 5 6 
#
# 1 53.0077 14.8714 37.4802 0.0000 17.9404 0.0000
# 2 14.8714 76.8865 14.7445 0.0000 7.2948 0.0000
# 3 37.4802 14.7445 102.6780 0.0000 37.4834 0.0000
# 4 0.0000 0.0000 0.0000 35.7235 0.0000 5.3969
# 5 17.9404 7.2948 37.4834 0.0000 32.7429 0.0000
# 6 0.0000 0.0000 0.0000 5.3969 0.0000 24.4271
#
#
#
# Elastic Compliance Matrix: (Units=1/GPa)
#
#
# Indices 1 2 3 4 5 6 
#
# 1 0.026828 -0.003260 -0.007256 0.000000 -0.005666 0.000000
# 2 -0.003260 0.013805 -0.000553 0.000000 -0.000657 0.000000
# 3 -0.007256 -0.000553 0.018848 0.000000 -0.017477 0.000000
# 4 0.000000 0.000000 0.000000 0.028959 0.000000 -0.006398
# 5 -0.005666 -0.000657 -0.017477 0.000000 0.053800 0.000000
# 6 0.000000 0.000000 0.000000 -0.006398 0.000000 0.042352
#
#
# Mechanical properties :
#
#
# Convention : Reuss Voigt Hill
#
# Bulk Modulus (GPa) = 26.77882 40.75160 33.76521
# Shear Modulus (GPa) = 22.81258 29.61045 26.21151
#
# Velocity S-wave (km/s) = 3.04871 3.47338 3.26795
# Velocity P-wave (km/s) = 4.82737 5.71747 5.29117
#
# Compressibility (1/GPa) = 0.03734294
#
# Stress axis : x y z
#
# Youngs Moduli (GPa) = 37.27403 72.43738 53.05729
#
# Poissons Ratio (x) = 0.23614 0.38500
# Poissons Ratio (y) = 0.12151 0.02932
# Poissons Ratio (z) = 0.27047 0.04003
#
# Static dielectric constant tensor:
#      x y z
#    x 2.017830 0.000000 0.096110 
#    y 0.000000 2.052410 0.000000 
#    z 0.096110 0.000000 2.023710 
# 
# From -- ./inp_files/167627.got.cif
#   From: 2010.05.17/outbox.cif.g08.bks.cpg/sg15_84_cif.got.tgz:167627.got - 2010.06.03 18:47:42.
