data_PCOD9262522
_publ_section_title
;
Structure prediction by ZEFSAII (Michael W. Deem and Ramdas Pophale) SiO2 
 PCOD9262522
Probable space group: C 2/C
;
_chemical_formula_sum "Si O2"
_cell_formula_units_Z 44
_cell_length_a 20.075181
_cell_length_b 14.393244
_cell_length_c 5.307885
_cell_angle_alpha 90.000000
_cell_angle_beta 78.354588
_cell_angle_gamma 90.000000
_cell_volume 1502.127047
_symmetry_space_group_name_H-M "C 2/C"
_symmetry_group_IT_number 15
_symmetry_cell_setting 'monoclinic'
loop_
_space_group_symop_operation_xyz
x,y,z
-x,y,1/2-z
-x,-y,-z
x,-y,1/2+z
1/2+x,1/2+y,z
1/2-x,1/2+y,1/2-z
1/2-x,1/2-y,-z
1/2+x,1/2-y,1/2+z
loop_
_atom_site_type_symbol
_atom_site_label
_atom_site_fract_x
_atom_site_fract_y
_atom_site_fract_z
Si Si1 0.068385 0.272541 0.630362
Si Si2 0.927455 0.601404 0.872153
Si Si3 0.364062 0.438863 0.675917
Si Si4 0.300411 0.296054 0.273692
Si Si5 0.281293 0.891080 0.522753
Si Si6 0.500000 0.565273 0.250000
O O1 0.075609 0.326963 0.363038
O O2 0.129283 0.202389 0.636318
O O3 0.000000 0.218797 0.750000
O O4 0.066780 0.349489 0.859014
O O5 0.852257 0.553836 0.944826
O O6 0.000000 0.551928 0.750000
O O7 0.370985 0.484701 0.397064
O O8 0.429308 0.378750 0.741820
O O9 0.284118 0.409177 0.751618
O O10 0.250000 0.250000 0.500000
O O11 0.260748 0.384132 0.202411
O O12 0.307917 0.214721 0.056706
O O13 0.500000 0.500000 0.500000
#
# Coordination Sequence:
#
# PCOD9262522 Si02
#       6
#     8   8   8   8   8   4
#     4   9  17  30  47  70 104 143 179 208 256 330
#     4   9  17  30  50  73 101 142 178 210 264 329
#     4  10  22  38  61  83 109 146 191 233 275 332
#     4  10  19  33  53  78 114 145 175 229 281 334
#     4  10  21  34  55  83 109 146 186 229 282 331
#     4   8  16  36  58  78 106 144 182 226 282 324
#
# _framework density 29.291796000000001
#
# number of rings (size 3 to 8) (size 9 to 14) (size 15 to 20)
#    0.000    2.545    1.818    0.000    2.545    0.000 
#    0.000    1.818    6.000    1.091    0.000    0.000 
#    0.000    0.000    0.000    0.000    0.000    0.000 
#
# Total GULP energy -122722.837901 kJ/mol
# GULP energy per Si atom -5578.310814 kJ/mol
# Density = 2.922513 g / cm^3
# Si number density = 29.291796 Si / 1000 Ang^3
#
#
#
# Elastic Constant Matrix: (Units=GPa)
#
#
# Indices 1 2 3 4 5 6 
#
# 1 274.4766 23.4924 11.8824 0.0000 -18.9636 0.0000
# 2 23.4924 58.3340 14.7694 0.0000 6.6781 0.0000
# 3 11.8824 14.7694 161.9603 0.0000 9.3564 0.0000
# 4 0.0000 0.0000 0.0000 33.7222 0.0000 1.7668
# 5 -18.9636 6.6781 9.3564 0.0000 66.5827 0.0000
# 6 0.0000 0.0000 0.0000 1.7668 0.0000 29.1210
#
#
#
# Elastic Compliance Matrix: (Units=1/GPa)
#
#
# Indices 1 2 3 4 5 6 
#
# 1 0.003884 -0.001661 -0.000209 0.000000 0.001302 0.000000
# 2 -0.001661 0.018417 -0.001435 0.000000 -0.002118 0.000000
# 3 -0.000209 -0.001435 0.006367 0.000000 -0.000810 0.000000
# 4 0.000000 0.000000 0.000000 0.029749 0.000000 -0.001805
# 5 0.001302 -0.002118 -0.000810 0.000000 0.015716 0.000000
# 6 0.000000 0.000000 0.000000 -0.001805 0.000000 0.034449
#
#
# Mechanical properties :
#
#
# Convention : Reuss Voigt Hill
#
# Bulk Modulus (GPa) = 45.33123 66.11769 55.72446
# Shear Modulus (GPa) = 40.80119 55.52697 48.16408
#
# Velocity S-wave (km/s) = 3.73624 4.35863 4.05938
# Velocity P-wave (km/s) = 5.84140 6.92469 6.40598
#
# Compressibility (1/GPa) = 0.02205985
#
# Stress axis : x y z
#
# Youngs Moduli (GPa) = 257.43780 54.29673 157.05083
#
# Poissons Ratio (x) = 0.09016 0.03279
# Poissons Ratio (y) = 0.42749 0.22541
# Poissons Ratio (z) = 0.05375 0.07793
#
# Static dielectric constant tensor:
#      x y z
#    x 2.563330 0.000000 -0.061420 
#    y 0.000000 2.796010 0.000000 
#    z -0.061420 0.000000 2.310100 
# 
# From -- ./inp_files/10352.got.cif
#   From: 2010.05.17/outbox.cif.g08.bks.cpg/sg15_6_cif.got.tgz:10352.got - 2010.06.03 18:47:42.
