data_PCOD9262321
_publ_section_title
;
Structure prediction by ZEFSAII (Michael W. Deem and Ramdas Pophale) SiO2 
 PCOD9262321
Probable space group: C 2/C
;
_chemical_formula_sum "Si O2"
_cell_formula_units_Z 56
_cell_length_a 15.929989
_cell_length_b 22.748578
_cell_length_c 15.269588
_cell_angle_alpha 90.000000
_cell_angle_beta 150.595781
_cell_angle_gamma 90.000000
_cell_volume 2716.752978
_symmetry_space_group_name_H-M "C 2/C"
_symmetry_group_IT_number 15
_symmetry_cell_setting 'monoclinic'
loop_
_space_group_symop_operation_xyz
x,y,z
-x,y,1/2-z
-x,-y,-z
x,-y,1/2+z
1/2+x,1/2+y,z
1/2-x,1/2+y,1/2-z
1/2-x,1/2-y,-z
1/2+x,1/2-y,1/2+z
loop_
_atom_site_type_symbol
_atom_site_label
_atom_site_fract_x
_atom_site_fract_y
_atom_site_fract_z
Si Si1 0.331845 0.183571 0.474024
Si Si2 0.196029 0.433778 0.146197
Si Si3 0.460456 0.616099 0.017871
Si Si4 0.000000 0.262521 0.750000
Si Si5 0.584727 0.742473 0.122173
Si Si6 0.500000 0.651886 0.250000
Si Si7 0.685862 0.067969 0.136133
Si Si8 0.241365 0.314029 0.105118
O O1 0.508922 0.217765 0.632994
O O2 0.252741 0.210033 0.312064
O O3 0.348206 0.113928 0.473641
O O4 0.175569 0.188656 0.399070
O O5 0.302929 0.418110 0.331890
O O6 0.222977 0.501008 0.143472
O O7 0.259307 0.382594 0.139893
O O8 0.991515 0.428628 0.972407
O O9 0.463844 0.685418 0.995353
O O10 0.470718 0.616510 0.133307
O O11 0.644152 0.588987 0.158158
O O12 0.084360 0.220888 0.753561
O O13 0.861215 0.302700 0.577322
O O14 0.635562 0.783656 0.088029
#
# Coordination Sequence:
#
# PCOD9262321 Si02
#       8
#     8   8   8   4   8   4   8   8
#     4  10  19  35  54  84 114 150 188 243 289 340
#     4  11  20  37  65  83 113 157 208 239 286 355
#     4  10  21  37  59  87 114 159 194 242 299 341
#     4  10  24  36  59  90 127 148 186 252 330 344
#     4  10  19  32  60  80 107 150 196 232 288 344
#     4   8  20  36  53  80 129 142 182 242 294 338
#     4   9  21  36  58  90 111 147 210 247 276 345
#     4  11  21  39  58  89 119 153 194 250 298 377
#
# _framework density 20.612842000000001
#
# number of rings (size 3 to 8) (size 9 to 14) (size 15 to 20)
#    0.000    2.286    1.429    3.000    2.000    2.286 
#    0.000    5.714   12.571    0.000    0.000    0.000 
#    0.000    0.000    0.000    0.000    0.000    0.000 
#
# Total GULP energy -155968.213202 kJ/mol
# GULP energy per Si atom -5570.293329 kJ/mol
# Density = 2.056593 g / cm^3
# Si number density = 20.612842 Si / 1000 Ang^3
#
#
#
# Elastic Constant Matrix: (Units=GPa)
#
#
# Indices 1 2 3 4 5 6 
#
# 1 62.6665 28.3266 13.6884 0.0000 15.0180 0.0000
# 2 28.3266 146.1045 31.7435 0.0000 2.0847 0.0000
# 3 13.6884 31.7435 71.2906 0.0000 0.4077 0.0000
# 4 0.0000 0.0000 0.0000 30.1913 0.0000 6.5552
# 5 15.0180 2.0847 0.4077 0.0000 25.3103 0.0000
# 6 0.0000 0.0000 0.0000 6.5552 0.0000 20.7209
#
#
#
# Elastic Compliance Matrix: (Units=1/GPa)
#
#
# Indices 1 2 3 4 5 6 
#
# 1 0.020903 -0.003347 -0.002454 0.000000 -0.012088 0.000000
# 2 -0.003347 0.008122 -0.002981 0.000000 0.001365 0.000000
# 3 -0.002454 -0.002981 0.015818 0.000000 0.001447 0.000000
# 4 0.000000 0.000000 0.000000 0.035565 0.000000 -0.011251
# 5 -0.012088 0.001365 0.001447 0.000000 0.046546 0.000000
# 6 0.000000 0.000000 0.000000 -0.011251 0.000000 0.051820
#
#
# Mechanical properties :
#
#
# Convention : Reuss Voigt Hill
#
# Bulk Modulus (GPa) = 36.66061 47.50874 42.08467
# Shear Modulus (GPa) = 24.33904 28.99804 26.66854
#
# Velocity S-wave (km/s) = 3.43996 3.75480 3.60082
# Velocity P-wave (km/s) = 5.79670 6.47272 6.14402
#
# Compressibility (1/GPa) = 0.02727724
#
# Stress axis : x y z
#
# Youngs Moduli (GPa) = 47.83930 123.12805 63.22081
#
# Poissons Ratio (x) = 0.41211 0.15515
# Poissons Ratio (y) = 0.16012 0.18849
# Poissons Ratio (z) = 0.11741 0.36710
#
# Static dielectric constant tensor:
#      x y z
#    x 1.761650 0.000000 0.025320 
#    y 0.000000 1.761400 0.000000 
#    z 0.025320 0.000000 1.817170 
# 
# From -- ./inp_files/211912.got.cif
#   From: 2010.05.17/outbox.cif.g08.bks.cpg/sg15_106_cif.got.tgz:211912.got - 2010.06.03 18:47:42.
