data_PCOD9262960
_publ_section_title
;
Structure prediction by ZEFSAII (Michael W. Deem and Ramdas Pophale) SiO2 
 PCOD9262960
Probable space group: C 2/C
;
_chemical_formula_sum "Si O2"
_cell_formula_units_Z 32
_cell_length_a 22.939452
_cell_length_b 7.037503
_cell_length_c 8.693450
_cell_angle_alpha 90.000000
_cell_angle_beta 118.257099
_cell_angle_gamma 90.000000
_cell_volume 1236.194819
_symmetry_space_group_name_H-M "C 2/C"
_symmetry_group_IT_number 15
_symmetry_cell_setting 'monoclinic'
loop_
_space_group_symop_operation_xyz
x,y,z
-x,y,1/2-z
-x,-y,-z
x,-y,1/2+z
1/2+x,1/2+y,z
1/2-x,1/2+y,1/2-z
1/2-x,1/2-y,-z
1/2+x,1/2-y,1/2+z
loop_
_atom_site_type_symbol
_atom_site_label
_atom_site_fract_x
_atom_site_fract_y
_atom_site_fract_z
Si Si1 0.563683 0.291034 0.895722
Si Si2 0.297952 0.668529 0.859630
Si Si3 0.936931 0.591968 0.275403
Si Si4 0.291976 0.938299 0.517183
O O1 0.500000 0.402290 0.750000
O O2 0.571685 0.135799 0.767214
O O3 0.628528 0.412869 0.019050
O O4 0.552484 0.168264 0.038645
O O5 0.246181 0.561028 0.901936
O O6 0.263583 0.672552 0.650658
O O7 0.308926 0.884621 0.922811
O O8 0.863424 0.656764 0.133672
O O9 0.000000 0.645904 0.250000
#
# Coordination Sequence:
#
# PCOD9262960 Si02
#       4
#     8   8   8   8
#     4  10  20  35  55  84 118 154 192 238 287 340
#     4  10  22  38  59  83 119 153 194 239 284 343
#     4  10  19  33  58  86 115 147 193 245 284 328
#     4  10  21  38  58  88 117 152 191 239 291 341
#
# _framework density 25.885888000000001
#
# number of rings (size 3 to 8) (size 9 to 14) (size 15 to 20)
#    0.000    2.000    0.000    6.000    0.000    8.000 
#    0.000    1.250    0.000    1.500    0.000    0.000 
#    0.000    0.000    0.000    0.000    0.000    0.000 
#
# Total GULP energy -89229.360073 kJ/mol
# GULP energy per Si atom -5576.835005 kJ/mol
# Density = 2.582697 g / cm^3
# Si number density = 25.885888 Si / 1000 Ang^3
#
#
#
# Elastic Constant Matrix: (Units=GPa)
#
#
# Indices 1 2 3 4 5 6 
#
# 1 161.1107 -3.0427 98.0756 0.0000 51.1265 0.0000
# 2 -3.0427 23.3763 -0.0838 0.0000 20.3482 0.0000
# 3 98.0756 -0.0838 266.3779 0.0000 58.1909 0.0000
# 4 0.0000 0.0000 0.0000 24.4721 0.0000 13.7691
# 5 51.1265 20.3482 58.1909 0.0000 59.1371 0.0000
# 6 0.0000 0.0000 0.0000 13.7691 0.0000 2.7101
#
#
#
# Elastic Compliance Matrix: (Units=1/GPa)
#
#
# Indices 1 2 3 4 5 6 
#
# 1 0.011341 0.012597 -0.001379 0.000000 -0.012782 0.000000
# 2 0.012597 0.083237 0.005126 0.000000 -0.044575 0.000000
# 3 -0.001379 0.005126 0.005590 0.000000 -0.006072 0.000000
# 4 0.000000 0.000000 0.000000 -0.021986 0.000000 0.111703
# 5 -0.012782 -0.044575 -0.006072 0.000000 0.049272 0.000000
# 6 0.000000 0.000000 0.000000 0.111703 0.000000 -0.198532
#
#
# Mechanical properties :
#
#
# Convention : Reuss Voigt Hill
#
# Bulk Modulus (GPa) = 7.52703 71.19592 39.36147
# Shear Modulus (GPa) = -84.06085 40.99157 -21.53464
#
# Velocity S-wave (km/s) = -5.70475 3.98370 -2.88741
# Velocity P-wave (km/s) = 6.36224 6.98021 2.03042
#
# Compressibility (1/GPa) = 0.13285457
#
# Stress axis : x y z
#
# Youngs Moduli (GPa) = 88.17944 12.01387 178.89515
#
# Poissons Ratio (x) = -0.15134 0.24674
# Poissons Ratio (y) = -1.11080 -0.91696
# Poissons Ratio (z) = 0.12162 -0.06158
#
# Static dielectric constant tensor:
#      x y z
#    x 2.226380 0.000000 0.090330 
#    y 0.000000 2.318850 0.000000 
#    z 0.090330 0.000000 2.131000 
# 
# From -- ./inp_files/45708.got.cif
#   From: 2010.05.17/outbox.cif.g08.bks.cpg/sg15_23_cif.got.tgz:45708.got - 2010.06.03 18:47:42.
