data_PCOD9262064
_publ_section_title
;
Structure prediction by ZEFSAII (Michael W. Deem and Ramdas Pophale) SiO2 
 PCOD9262064
Probable space group: C 2/C
;
_chemical_formula_sum "Si O2"
_cell_formula_units_Z 36
_cell_length_a 27.501420
_cell_length_b 18.670453
_cell_length_c 5.065032
_cell_angle_alpha 90.000000
_cell_angle_beta 59.351532
_cell_angle_gamma 90.000000
_cell_volume 2237.420937
_symmetry_space_group_name_H-M "C 2/C"
_symmetry_group_IT_number 15
_symmetry_cell_setting 'monoclinic'
loop_
_space_group_symop_operation_xyz
x,y,z
-x,y,1/2-z
-x,-y,-z
x,-y,1/2+z
1/2+x,1/2+y,z
1/2-x,1/2+y,1/2-z
1/2-x,1/2-y,-z
1/2+x,1/2-y,1/2+z
loop_
_atom_site_type_symbol
_atom_site_label
_atom_site_fract_x
_atom_site_fract_y
_atom_site_fract_z
Si Si1 0.384989 0.862030 0.624449
Si Si2 0.843117 0.712279 0.750917
Si Si3 0.229032 0.452164 0.555897
Si Si4 0.729798 0.311576 0.845242
Si Si5 0.500000 0.051849 0.750000
O O1 0.333815 0.918813 0.732733
O O2 0.374254 0.798058 0.443172
O O3 0.444228 0.899483 0.411855
O O4 0.376798 0.832987 0.942078
O O5 0.750000 0.750000 0.500000
O O6 0.825943 0.786338 0.655568
O O7 0.780276 0.681927 0.990177
O O8 0.235933 0.485163 0.249350
O O9 0.270992 0.386385 0.501081
O O10 0.500000 0.000000 0.500000
#
# Coordination Sequence:
#
# PCOD9262064 Si02
#       5
#     8   8   8   8   4
#     4  11  21  35  50  70  97 137 182 217 250 285
#     4  10  19  32  53  70  90 127 176 214 249 308
#     4  11  21  30  46  72 101 129 167 209 244 299
#     4  10  19  33  52  71  97 131 173 206 263 312
#     4  12  24  38  52  70 104 146 182 226 266 292
#
# _framework density 16.089953000000001
#
# number of rings (size 3 to 8) (size 9 to 14) (size 15 to 20)
#    0.000    1.333    4.444    5.333    3.111    0.000 
#    0.000    0.000    0.000    0.000    0.000    0.000 
#    0.000    0.000    0.000   20.000    0.000    0.000 
#
# Total GULP energy -100353.089402 kJ/mol
# GULP energy per Si atom -5575.171633 kJ/mol
# Density = 1.605333 g / cm^3
# Si number density = 16.089953 Si / 1000 Ang^3
#
#
#
# Elastic Constant Matrix: (Units=GPa)
#
#
# Indices 1 2 3 4 5 6 
#
# 1 42.2375 9.2845 17.5208 0.0000 2.8578 0.0000
# 2 9.2845 43.4574 6.1819 0.0000 -8.1685 0.0000
# 3 17.5208 6.1819 76.6210 0.0000 8.8065 0.0000
# 4 0.0000 0.0000 0.0000 18.8949 0.0000 2.8611
# 5 2.8578 -8.1685 8.8065 0.0000 27.5534 0.0000
# 6 0.0000 0.0000 0.0000 2.8611 0.0000 36.6557
#
#
#
# Elastic Compliance Matrix: (Units=1/GPa)
#
#
# Indices 1 2 3 4 5 6 
#
# 1 0.027366 -0.005580 -0.005493 0.000000 -0.002737 0.000000
# 2 -0.005580 0.026145 -0.001859 0.000000 0.008924 0.000000
# 3 -0.005493 -0.001859 0.015006 0.000000 -0.004778 0.000000
# 4 0.000000 0.000000 0.000000 0.053557 0.000000 -0.004180
# 5 -0.002737 0.008924 -0.004778 0.000000 0.040750 0.000000
# 6 0.000000 0.000000 0.000000 -0.004180 0.000000 0.027607
#
#
# Mechanical properties :
#
#
# Convention : Reuss Voigt Hill
#
# Bulk Modulus (GPa) = 23.44465 25.36559 24.40512
# Shear Modulus (GPa) = 21.69074 25.24270 23.46672
#
# Velocity S-wave (km/s) = 3.67562 3.96517 3.82314
# Velocity P-wave (km/s) = 5.71106 6.06321 5.88977
#
# Compressibility (1/GPa) = 0.04265365
#
# Stress axis : x y z
#
# Youngs Moduli (GPa) = 36.54182 38.24829 66.63799
#
# Poissons Ratio (x) = 0.21341 0.36604
# Poissons Ratio (y) = 0.20389 0.12389
# Poissons Ratio (z) = 0.20072 0.07111
#
# Static dielectric constant tensor:
#      x y z
#    x 1.560170 0.000000 0.038620 
#    y 0.000000 1.576590 0.000000 
#    z 0.038620 0.000000 1.548420 
# 
# From -- ./inp_files/12708.got.cif
#   From: 2010.05.17/outbox.cif.g08.bks.cpg/sg15_7_cif.got.tgz:12708.got - 2010.06.03 18:47:42.
