data_PCOD9262080
_publ_section_title
;
Structure prediction by ZEFSAII (Michael W. Deem and Ramdas Pophale) SiO2 
 PCOD9262080
Probable space group: C 2/C
;
_chemical_formula_sum "Si O2"
_cell_formula_units_Z 64
_cell_length_a 14.999998
_cell_length_b 17.449308
_cell_length_c 24.518142
_cell_angle_alpha 90.000000
_cell_angle_beta 29.816144
_cell_angle_gamma 90.000000
_cell_volume 3190.833914
_symmetry_space_group_name_H-M "C 2/C"
_symmetry_group_IT_number 15
_symmetry_cell_setting 'monoclinic'
loop_
_space_group_symop_operation_xyz
x,y,z
-x,y,1/2-z
-x,-y,-z
x,-y,1/2+z
1/2+x,1/2+y,z
1/2-x,1/2+y,1/2-z
1/2-x,1/2-y,-z
1/2+x,1/2-y,1/2+z
loop_
_atom_site_type_symbol
_atom_site_label
_atom_site_fract_x
_atom_site_fract_y
_atom_site_fract_z
Si Si1 0.531905 0.179851 0.668442
Si Si2 0.024418 0.999836 0.358426
Si Si3 0.191171 0.214142 0.359569
Si Si4 0.697284 0.300108 0.976601
Si Si5 0.914461 0.164995 0.420063
Si Si6 0.182308 0.150447 0.781134
Si Si7 0.157586 0.538029 0.094745
Si Si8 0.228347 0.465892 0.679612
O O1 0.500000 0.167946 0.750000
O O2 0.712841 0.143273 0.546097
O O3 0.569741 0.269871 0.634347
O O4 0.355323 0.154089 0.728605
O O5 0.102130 0.001111 0.379095
O O6 0.025210 0.089560 0.342813
O O7 0.144425 0.930857 0.270711
O O8 0.815104 0.979125 0.469163
O O9 0.189838 0.241270 0.422567
O O10 0.299905 0.276763 0.267999
O O11 0.258393 0.126382 0.325870
O O12 0.004566 0.203297 0.426009
O O13 0.499931 0.335917 0.088624
O O14 0.750000 0.250000 0.000000
O O15 0.836076 0.370206 0.901733
O O16 0.209641 0.507801 0.127402
O O17 0.955340 0.513400 0.191659
#
# Coordination Sequence:
#
# PCOD9262080 Si02
#       8
#     8   8   8   8   8   8   8   8
#     4  10  20  36  60  86 108 151 204 236 279 341
#     4  10  20  33  49  76 115 139 178 232 289 340
#     4   9  18  35  54  78 110 146 187 225 279 340
#     4  10  19  32  53  79 110 142 179 232 275 332
#     4   9  20  37  57  82 115 151 186 244 285 333
#     4  10  21  34  54  84 113 147 188 237 288 345
#     4   9  18  29  45  71 102 133 174 212 275 334
#     4   9  17  30  48  70  98 143 172 214 279 331
#
# _framework density 20.057454
#
# number of rings (size 3 to 8) (size 9 to 14) (size 15 to 20)
#    0.000    2.500    0.000    1.875    1.750    4.500 
#    0.000    0.000    5.500    0.000    0.000    6.125 
#    0.000    0.000    0.000    0.000    0.000    0.000 
#
# Total GULP energy -178220.909726 kJ/mol
# GULP energy per Si atom -5569.403429 kJ/mol
# Density = 2.001180 g / cm^3
# Si number density = 20.057454 Si / 1000 Ang^3
#
#
#
# Elastic Constant Matrix: (Units=GPa)
#
#
# Indices 1 2 3 4 5 6 
#
# 1 49.4822 20.6153 24.9753 0.0024 -2.3793 0.0013
# 2 20.6153 88.4635 14.1655 0.0031 4.2577 0.0005
# 3 24.9753 14.1655 79.2959 0.0094 -21.3071 0.0040
# 4 0.0024 0.0031 0.0094 25.0964 -0.0058 -10.1090
# 5 -2.3793 4.2577 -21.3071 -0.0058 27.9054 -0.0025
# 6 0.0013 0.0005 0.0040 -10.1090 -0.0025 23.7655
#
#
#
# Elastic Compliance Matrix: (Units=1/GPa)
#
#
# Indices 1 2 3 4 5 6 
#
# 1 0.026172 -0.004597 -0.008346 0.000000 -0.003440 0.000000
# 2 -0.004597 0.012855 -0.001863 -0.000002 -0.003776 -0.000001
# 3 -0.008346 -0.001863 0.019448 -0.000004 0.014422 -0.000003
# 4 0.000000 -0.000002 -0.000004 0.048085 0.000009 0.020454
# 5 -0.003440 -0.003776 0.014422 0.000009 0.047130 0.000007
# 6 0.000000 -0.000001 -0.000003 0.020454 0.000007 0.050778
#
#
# Mechanical properties :
#
#
# Convention : Reuss Voigt Hill
#
# Bulk Modulus (GPa) = 34.64755 37.41709 36.03232
# Shear Modulus (GPa) = 20.51684 25.85248 23.18466
#
# Velocity S-wave (km/s) = 3.20176 3.59405 3.40356
# Velocity P-wave (km/s) = 5.56597 5.99319 5.78353
#
# Compressibility (1/GPa) = 0.02886207
#
# Stress axis : x y z
#
# Youngs Moduli (GPa) = 38.20925 77.78795 51.41953
#
# Poissons Ratio (x) = 0.35759 0.42916
# Poissons Ratio (y) = 0.17565 0.09581
# Poissons Ratio (z) = 0.31890 0.14494
#
# Static dielectric constant tensor:
#      x y z
#    x 1.687190 0.000000 -0.017020 
#    y 0.000000 1.793530 0.000000 
#    z -0.017020 0.000000 1.718690 
# 
# From -- ./inp_files/274835.got.cif
#   From: 2010.05.17/outbox.cif.g08.bks.cpg/sg15_138_cif.got.tgz:274835.got - 2010.06.03 18:47:42.
