data_PCOD9262117
_publ_section_title
;
Structure prediction by ZEFSAII (Michael W. Deem and Ramdas Pophale) SiO2 
 PCOD9262117
Probable space group: C 2/C
;
_chemical_formula_sum "Si O2"
_cell_formula_units_Z 32
_cell_length_a 9.121519
_cell_length_b 31.040064
_cell_length_c 4.817342
_cell_angle_alpha 90.000000
_cell_angle_beta 101.229928
_cell_angle_gamma 90.000000
_cell_volume 1337.831537
_symmetry_space_group_name_H-M "C 2/C"
_symmetry_group_IT_number 15
_symmetry_cell_setting 'monoclinic'
loop_
_space_group_symop_operation_xyz
x,y,z
-x,y,1/2-z
-x,-y,-z
x,-y,1/2+z
1/2+x,1/2+y,z
1/2-x,1/2+y,1/2-z
1/2-x,1/2-y,-z
1/2+x,1/2-y,1/2+z
loop_
_atom_site_type_symbol
_atom_site_label
_atom_site_fract_x
_atom_site_fract_y
_atom_site_fract_z
Si Si1 0.000000 0.294531 0.250000
Si Si2 0.339982 0.605129 0.083526
Si Si3 0.500000 0.263513 0.250000
Si Si4 0.318600 0.525574 0.718957
Si Si5 0.718786 0.336493 0.423514
O O1 0.877320 0.323372 0.356667
O O2 0.064900 0.265528 0.524803
O O3 0.500000 0.588302 0.250000
O O4 0.268473 0.629902 0.318118
O O5 0.268273 0.567459 0.869634
O O6 0.366749 0.641649 0.865730
O O7 0.626141 0.293008 0.441999
O O8 0.500000 0.527849 0.750000
O O9 0.270483 0.515085 0.390672
#
# Coordination Sequence:
#
# PCOD9262117 Si02
#       5
#     4   8   4   8   8
#     4  12  26  42  62  88 118 156 206 252 304 356
#     4  12  21  37  59  88 123 160 196 242 298 359
#     4  12  22  44  62  88 116 154 202 260 306 354
#     4  10  19  32  53  88 127 158 190 241 301 351
#     4  12  24  40  62  89 119 159 200 249 301 358
#
# _framework density 23.919302999999999
#
# number of rings (size 3 to 8) (size 9 to 14) (size 15 to 20)
#    0.000    0.500    2.500    9.750    0.000    0.000 
#    0.000    0.000    0.000    0.000    0.000   17.500 
#    0.000    0.000    0.000    0.000    0.000    0.000 
#
# Total GULP energy -89394.972635 kJ/mol
# GULP energy per Si atom -5587.185790 kJ/mol
# Density = 2.386486 g / cm^3
# Si number density = 23.919303 Si / 1000 Ang^3
#
#
#
# Elastic Constant Matrix: (Units=GPa)
#
#
# Indices 1 2 3 4 5 6 
#
# 1 71.2644 35.8117 23.4857 0.0000 -34.7669 0.0000
# 2 35.8117 98.8932 61.3516 0.0000 -32.8987 0.0000
# 3 23.4857 61.3516 165.7065 0.0000 -42.0794 0.0000
# 4 0.0000 0.0000 0.0000 90.1838 0.0000 -4.3359
# 5 -34.7669 -32.8987 -42.0794 0.0000 36.6030 0.0000
# 6 0.0000 0.0000 0.0000 -4.3359 0.0000 40.5018
#
#
#
# Elastic Compliance Matrix: (Units=1/GPa)
#
#
# Indices 1 2 3 4 5 6 
#
# 1 0.028598 -0.003483 0.004716 0.000000 0.029454 0.000000
# 2 -0.003483 0.015903 -0.003679 0.000000 0.006756 0.000000
# 3 0.004716 -0.003679 0.009923 0.000000 0.012581 0.000000
# 4 0.000000 0.000000 0.000000 0.011146 0.000000 0.001193
# 5 0.029454 0.006756 0.012581 0.000000 0.075833 0.000000
# 6 0.000000 0.000000 0.000000 0.001193 0.000000 0.024818
#
#
# Mechanical properties :
#
#
# Convention : Reuss Voigt Hill
#
# Bulk Modulus (GPa) = 20.18875 64.12911 42.15893
# Shear Modulus (GPa) = 26.64915 47.80538 37.22727
#
# Velocity S-wave (km/s) = 3.34148 4.47543 3.94936
# Velocity P-wave (km/s) = 4.83177 7.31948 6.20164
#
# Compressibility (1/GPa) = 0.04953253
#
# Stress axis : x y z
#
# Youngs Moduli (GPa) = 34.96742 62.88129 100.77455
#
# Poissons Ratio (x) = 0.21903 -0.47526
# Poissons Ratio (y) = 0.12180 0.37072
# Poissons Ratio (z) = -0.16491 0.23132
#
# Static dielectric constant tensor:
#      x y z
#    x 2.041420 0.000000 0.090800 
#    y 0.000000 2.006820 0.000000 
#    z 0.090800 0.000000 1.915110 
# 
# From -- ./inp_files/2419.got.cif
#   From: 2010.05.17/outbox.cif.g08.bks.cpg/sg15_2_cif.got.tgz:2419.got - 2010.06.03 18:47:42.
