data_PCOD9262815
_publ_section_title
;
Structure prediction by ZEFSAII (Michael W. Deem and Ramdas Pophale) SiO2 
 PCOD9262815
Probable space group: C 2/C
;
_chemical_formula_sum "Si O2"
_cell_formula_units_Z 64
_cell_length_a 32.402009
_cell_length_b 7.907894
_cell_length_c 14.644811
_cell_angle_alpha 90.000000
_cell_angle_beta 126.276937
_cell_angle_gamma 90.000000
_cell_volume 3025.110934
_symmetry_space_group_name_H-M "C 2/C"
_symmetry_group_IT_number 15
_symmetry_cell_setting 'monoclinic'
loop_
_space_group_symop_operation_xyz
x,y,z
-x,y,1/2-z
-x,-y,-z
x,-y,1/2+z
1/2+x,1/2+y,z
1/2-x,1/2+y,1/2-z
1/2-x,1/2-y,-z
1/2+x,1/2-y,1/2+z
loop_
_atom_site_type_symbol
_atom_site_label
_atom_site_fract_x
_atom_site_fract_y
_atom_site_fract_z
Si Si1 0.370295 0.533617 0.325742
Si Si2 0.665516 0.589736 0.904429
Si Si3 0.935629 0.668467 0.844718
Si Si4 0.678219 0.717124 0.622272
Si Si5 0.743903 0.875374 0.408839
Si Si6 0.851497 0.411038 0.733892
Si Si7 0.911380 0.840836 0.618665
Si Si8 0.467169 0.649998 0.002116
O O1 0.336188 0.517704 0.191874
O O2 0.401699 0.706249 0.364842
O O3 0.336301 0.474502 0.365348
O O4 0.413366 0.381689 0.380067
O O5 0.658866 0.780513 0.862141
O O6 0.614825 0.518349 0.887744
O O7 0.717578 0.534924 0.022518
O O8 0.908549 0.487336 0.811920
O O9 0.930717 0.748366 0.735495
O O10 0.994683 0.690813 0.951198
O O11 0.733959 0.714460 0.652307
O O12 0.669207 0.830967 0.698627
O O13 0.636306 0.760714 0.489568
O O14 0.750000 0.750000 0.500000
O O15 0.686033 0.931647 0.329165
O O16 0.951431 0.866999 0.588629
O O17 0.500000 0.500000 0.000000
#
# Coordination Sequence:
#
# PCOD9262815 Si02
#       8
#     8   8   8   8   8   8   8   8
#     4   8  16  34  55  77 110 146 189 239 286 344
#     4   9  19  36  57  81 112 148 191 242 292 351
#     4  10  19  33  56  84 115 152 193 239 292 351
#     4   9  20  36  53  77 109 147 192 242 290 345
#     4  11  22  38  59  83 112 155 200 240 295 364
#     4  11  22  36  56  86 120 153 193 251 305 355
#     4   9  17  36  59  78 110 154 194 236 289 353
#     4   9  17  31  56  86 109 145 196 237 285 349
#
# _framework density 21.156248999999999
#
# number of rings (size 3 to 8) (size 9 to 14) (size 15 to 20)
#    0.000    2.500    0.000    3.000    0.000    3.000 
#    0.000   16.875    0.000   13.500    0.000    0.000 
#    0.000    0.000    0.000    0.000    0.000    0.000 
#
# Total GULP energy -178237.741765 kJ/mol
# GULP energy per Si atom -5569.929430 kJ/mol
# Density = 2.110810 g / cm^3
# Si number density = 21.156249 Si / 1000 Ang^3
#
#
#
# Elastic Constant Matrix: (Units=GPa)
#
#
# Indices 1 2 3 4 5 6 
#
# 1 95.9563 33.8608 7.9496 0.0000 -8.3497 0.0000
# 2 33.8608 78.9601 12.4049 0.0000 -4.1396 0.0000
# 3 7.9496 12.4049 63.7938 0.0000 2.5004 0.0000
# 4 0.0000 0.0000 0.0000 32.7688 0.0000 4.4031
# 5 -8.3497 -4.1396 2.5004 0.0000 35.2365 0.0000
# 6 0.0000 0.0000 0.0000 4.4031 0.0000 26.0222
#
#
#
# Elastic Compliance Matrix: (Units=1/GPa)
#
#
# Indices 1 2 3 4 5 6 
#
# 1 0.012495 -0.005129 -0.000654 0.000000 0.002405 0.000000
# 2 -0.005129 0.015274 -0.002360 0.000000 0.000746 0.000000
# 3 -0.000654 -0.002360 0.016278 0.000000 -0.001587 0.000000
# 4 0.000000 0.000000 0.000000 0.031227 0.000000 -0.005284
# 5 0.002405 0.000746 -0.001587 0.000000 0.029150 0.000000
# 6 0.000000 0.000000 0.000000 -0.005284 0.000000 0.039323
#
#
# Mechanical properties :
#
#
# Convention : Reuss Voigt Hill
#
# Bulk Modulus (GPa) = 36.02264 38.57120 37.29692
# Shear Modulus (GPa) = 29.53565 31.10516 30.32041
#
# Velocity S-wave (km/s) = 3.74046 3.83856 3.78982
# Velocity P-wave (km/s) = 5.97651 6.15769 6.06778
#
# Compressibility (1/GPa) = 0.02776032
#
# Stress axis : x y z
#
# Youngs Moduli (GPa) = 80.03269 65.46968 61.43201
#
# Poissons Ratio (x) = 0.33582 0.04017
# Poissons Ratio (y) = 0.41052 0.14499
# Poissons Ratio (z) = 0.05233 0.15452
#
# Static dielectric constant tensor:
#      x y z
#    x 1.781040 0.000000 0.018420 
#    y 0.000000 1.808520 0.000000 
#    z 0.018420 0.000000 1.804490 
# 
# From -- ./inp_files/180821.got.cif
#   From: 2010.05.17/outbox.cif.g08.bks.cpg/sg15_91_cif.got.tgz:180821.got - 2010.06.03 18:47:42.
