data_PCOD9262780
_publ_section_title
;
Structure prediction by ZEFSAII (Michael W. Deem and Ramdas Pophale) SiO2 
 PCOD9262780
Probable space group: C 2/C
;
_chemical_formula_sum "Si O2"
_cell_formula_units_Z 36
_cell_length_a 11.468761
_cell_length_b 9.957652
_cell_length_c 13.691618
_cell_angle_alpha 90.000000
_cell_angle_beta 72.971300
_cell_angle_gamma 90.000000
_cell_volume 1495.057746
_symmetry_space_group_name_H-M "C 2/C"
_symmetry_group_IT_number 15
_symmetry_cell_setting 'monoclinic'
loop_
_space_group_symop_operation_xyz
x,y,z
-x,y,1/2-z
-x,-y,-z
x,-y,1/2+z
1/2+x,1/2+y,z
1/2-x,1/2+y,1/2-z
1/2-x,1/2-y,-z
1/2+x,1/2-y,1/2+z
loop_
_atom_site_type_symbol
_atom_site_label
_atom_site_fract_x
_atom_site_fract_y
_atom_site_fract_z
Si Si1 0.164641 0.182568 0.393735
Si Si2 0.172117 0.916769 0.495903
Si Si3 0.500000 0.016045 0.750000
Si Si4 0.608256 0.890881 0.549820
Si Si5 0.681374 0.255490 0.671821
O O1 0.302350 0.198795 0.402935
O O2 0.088169 0.305993 0.457166
O O3 0.182095 0.172137 0.274745
O O4 0.118466 0.045617 0.454236
O O5 0.197899 0.799228 0.411530
O O6 0.117935 0.850355 0.606293
O O7 0.304859 0.981248 0.495279
O O8 0.612898 0.116418 0.712708
O O9 0.501222 0.932615 0.649155
#
# Coordination Sequence:
#
# PCOD9262780 Si02
#       5
#     8   8   4   8   8
#     4   9  18  33  57  79 104 152 186 219 266 341
#     4   8  18  33  51  77 107 144 188 215 256 353
#     4  10  20  36  52  84 116 140 176 244 274 320
#     4   8  18  34  54  80 112 137 189 226 269 324
#     4  10  19  33  56  79 111 148 178 226 281 313
#
# _framework density 24.079338
#
# number of rings (size 3 to 8) (size 9 to 14) (size 15 to 20)
#    1.333    1.778    0.000    0.000    3.111    0.889 
#    0.000    6.667    0.000    0.000    0.000    0.000 
#    0.000    0.000    0.000    0.000    0.000    0.000 
#
# Total GULP energy -100288.696547 kJ/mol
# GULP energy per Si atom -5571.594253 kJ/mol
# Density = 2.402453 g / cm^3
# Si number density = 24.079338 Si / 1000 Ang^3
#
#
#
# Elastic Constant Matrix: (Units=GPa)
#
#
# Indices 1 2 3 4 5 6 
#
# 1 25.6836 10.5161 38.6577 0.0000 -0.9441 0.0000
# 2 10.5161 116.8668 82.3256 0.0000 5.0136 0.0000
# 3 38.6577 82.3256 226.9747 0.0000 12.8811 0.0000
# 4 0.0000 0.0000 0.0000 42.8384 0.0000 -10.7373
# 5 -0.9441 5.0136 12.8811 0.0000 25.4328 0.0000
# 6 0.0000 0.0000 0.0000 -10.7373 0.0000 13.5385
#
#
#
# Elastic Compliance Matrix: (Units=1/GPa)
#
#
# Indices 1 2 3 4 5 6 
#
# 1 0.053870 0.002144 -0.010339 0.000000 0.006814 0.000000
# 2 0.002144 0.011579 -0.004571 0.000000 0.000112 0.000000
# 3 -0.010339 -0.004571 0.008026 0.000000 -0.003548 0.000000
# 4 0.000000 0.000000 0.000000 0.029135 0.000000 0.023107
# 5 0.006814 0.000112 -0.003548 0.000000 0.041347 0.000000
# 6 0.000000 0.000000 0.000000 0.023107 0.000000 0.092190
#
#
# Mechanical properties :
#
#
# Convention : Reuss Voigt Hill
#
# Bulk Modulus (GPa) = 20.85867 70.28044 45.56955
# Shear Modulus (GPa) = 18.00751 32.23032 25.11891
#
# Velocity S-wave (km/s) = 2.73763 3.66253 3.23332
# Velocity P-wave (km/s) = 4.32136 6.86556 5.73629
#
# Compressibility (1/GPa) = 0.04794169
#
# Stress axis : x y z
#
# Youngs Moduli (GPa) = 18.56313 86.36105 124.59298
#
# Poissons Ratio (x) = -0.18512 1.28819
# Poissons Ratio (y) = -0.03979 0.56956
# Poissons Ratio (z) = 0.19193 0.39479
#
# Static dielectric constant tensor:
#      x y z
#    x 2.116440 0.000000 -0.012870 
#    y 0.000000 1.938380 0.000000 
#    z -0.012870 0.000000 1.963620 
# 
# From -- ./inp_files/94457.got.cif
#   From: 2010.05.17/outbox.cif.g08.bks.cpg/sg15_48_cif.got.tgz:94457.got - 2010.06.03 18:47:42.
