data_PCOD9262133
_publ_section_title
;
Structure prediction by ZEFSAII (Michael W. Deem and Ramdas Pophale) SiO2 
 PCOD9262133
Probable space group: C 2/C
;
_chemical_formula_sum "Si O2"
_cell_formula_units_Z 64
_cell_length_a 15.319453
_cell_length_b 16.868893
_cell_length_c 12.635295
_cell_angle_alpha 90.000000
_cell_angle_beta 104.582686
_cell_angle_gamma 90.000000
_cell_volume 3160.052140
_symmetry_space_group_name_H-M "C 2/C"
_symmetry_group_IT_number 15
_symmetry_cell_setting 'monoclinic'
loop_
_space_group_symop_operation_xyz
x,y,z
-x,y,1/2-z
-x,-y,-z
x,-y,1/2+z
1/2+x,1/2+y,z
1/2-x,1/2+y,1/2-z
1/2-x,1/2-y,-z
1/2+x,1/2-y,1/2+z
loop_
_atom_site_type_symbol
_atom_site_label
_atom_site_fract_x
_atom_site_fract_y
_atom_site_fract_z
Si Si1 0.483608 0.950796 0.129861
Si Si2 0.651075 0.271620 0.427140
Si Si3 0.836011 0.939491 0.679335
Si Si4 0.879240 0.571486 0.398202
Si Si5 0.112291 0.384834 0.833031
Si Si6 0.397726 0.616382 0.759810
Si Si7 0.411704 0.444682 0.487643
Si Si8 0.173461 0.899152 0.593365
O O1 0.500000 0.912765 0.250000
O O2 0.578582 0.983764 0.113155
O O3 0.427021 0.032146 0.137297
O O4 0.429080 0.905117 0.022254
O O5 0.750000 0.250000 0.500000
O O6 0.590166 0.194126 0.392315
O O7 0.656124 0.314247 0.314779
O O8 0.621098 0.338757 0.501390
O O9 0.728816 0.930094 0.625692
O O10 0.896684 0.912110 0.599739
O O11 0.859022 0.896118 0.796055
O O12 0.858263 0.031915 0.709330
O O13 0.905579 0.618836 0.298816
O O14 0.220197 0.385546 0.873109
O O15 0.500000 0.621699 0.750000
O O16 0.400585 0.614924 0.887302
O O17 0.500000 0.500000 0.500000
O O18 0.335400 0.511742 0.451310
#
# Coordination Sequence:
#
# PCOD9262133 Si02
#       8
#     8   8   8   8   8   8   8   8
#     4   9  17  30  50  80 107 135 182 233 282 335
#     4  10  20  35  55  81 117 148 191 234 281 342
#     4  10  19  32  54  79 116 146 182 231 293 339
#     4   9  18  31  50  77 109 140 183 230 288 333
#     4   9  18  32  53  79 108 146 184 231 285 332
#     4  11  21  34  54  86 114 144 190 239 287 339
#     4  11  19  32  52  80 113 145 187 240 291 339
#     4   9  18  31  50  79 112 149 181 233 283 335
#
# _framework density 20.252832000000001
#
# number of rings (size 3 to 8) (size 9 to 14) (size 15 to 20)
#    0.000    2.250    2.500    0.750    1.750    2.500 
#    0.000    0.000    0.000    6.750    0.000    3.500 
#    0.000    0.000    0.000    0.000    0.000    0.000 
#
# Total GULP energy -178314.593760 kJ/mol
# GULP energy per Si atom -5572.331055 kJ/mol
# Density = 2.020674 g / cm^3
# Si number density = 20.252832 Si / 1000 Ang^3
#
#
#
# Elastic Constant Matrix: (Units=GPa)
#
#
# Indices 1 2 3 4 5 6 
#
# 1 52.1496 5.0086 21.9139 0.0000 2.2572 0.0000
# 2 5.0086 43.8240 21.7392 0.0000 5.6722 0.0000
# 3 21.9139 21.7392 129.0747 0.0000 -5.9877 0.0000
# 4 0.0000 0.0000 0.0000 30.1945 0.0000 5.7182
# 5 2.2572 5.6722 -5.9877 0.0000 37.3465 0.0000
# 6 0.0000 0.0000 0.0000 5.7182 0.0000 11.1004
#
#
#
# Elastic Compliance Matrix: (Units=1/GPa)
#
#
# Indices 1 2 3 4 5 6 
#
# 1 0.020779 -0.000388 -0.003544 0.000000 -0.001765 0.000000
# 2 -0.000388 0.025676 -0.004472 0.000000 -0.004593 0.000000
# 3 -0.003544 -0.004472 0.009212 0.000000 0.002370 0.000000
# 4 0.000000 0.000000 0.000000 0.036699 0.000000 -0.018905
# 5 -0.001765 -0.004593 0.002370 0.000000 0.027961 0.000000
# 6 0.000000 0.000000 0.000000 -0.018905 0.000000 0.099826
#
#
# Mechanical properties :
#
#
# Convention : Reuss Voigt Hill
#
# Bulk Modulus (GPa) = 25.73436 35.81907 30.77671
# Shear Modulus (GPa) = 20.00703 27.48737 23.74720
#
# Velocity S-wave (km/s) = 3.14644 3.68803 3.42795
# Velocity P-wave (km/s) = 5.09257 5.98830 5.55851
#
# Compressibility (1/GPa) = 0.03885856
#
# Stress axis : x y z
#
# Youngs Moduli (GPa) = 48.12637 38.94761 108.55108
#
# Poissons Ratio (x) = 0.01512 0.38473
# Poissons Ratio (y) = 0.01868 0.48539
# Poissons Ratio (z) = 0.17057 0.17416
#
# Static dielectric constant tensor:
#      x y z
#    x 1.776680 0.000000 -0.000560 
#    y 0.000000 1.766170 0.000000 
#    z -0.000560 0.000000 1.798240 
# 
# From -- ./inp_files/106426.got.cif
#   From: 2010.05.17/outbox.cif.g08.bks.cpg/sg15_54_cif.got.tgz:106426.got - 2010.06.03 18:47:42.
