data_PCOD9262551
_publ_section_title
;
Structure prediction by ZEFSAII (Michael W. Deem and Ramdas Pophale) SiO2 
 PCOD9262551
Probable space group: C 2/C
;
_chemical_formula_sum "Si O2"
_cell_formula_units_Z 48
_cell_length_a 16.117188
_cell_length_b 6.054595
_cell_length_c 22.241708
_cell_angle_alpha 90.000000
_cell_angle_beta 53.204025
_cell_angle_gamma 90.000000
_cell_volume 1738.009596
_symmetry_space_group_name_H-M "C 2/C"
_symmetry_group_IT_number 15
_symmetry_cell_setting 'monoclinic'
loop_
_space_group_symop_operation_xyz
x,y,z
-x,y,1/2-z
-x,-y,-z
x,-y,1/2+z
1/2+x,1/2+y,z
1/2-x,1/2+y,1/2-z
1/2-x,1/2-y,-z
1/2+x,1/2-y,1/2+z
loop_
_atom_site_type_symbol
_atom_site_label
_atom_site_fract_x
_atom_site_fract_y
_atom_site_fract_z
Si Si1 0.911081 0.766451 0.738326
Si Si2 0.134591 0.118127 0.457164
Si Si3 0.093049 0.272181 0.758588
Si Si4 0.103083 0.236548 0.076032
Si Si5 0.275459 0.978621 0.570938
Si Si6 0.924966 0.747294 0.094596
O O1 0.984929 0.752356 0.646813
O O2 0.000000 0.765117 0.750000
O O3 0.856982 0.522751 0.767165
O O4 0.861703 0.016191 0.763130
O O5 0.237975 0.260668 0.417354
O O6 0.029909 0.259721 0.510215
O O7 0.123721 0.951909 0.517440
O O8 0.123644 0.984485 0.401235
O O9 0.054454 0.275240 0.844529
O O10 0.000000 0.271273 0.750000
O O11 0.175692 0.166967 0.100425
O O12 0.153530 0.441995 0.019686
O O13 0.340757 0.910349 0.600766
#
# Coordination Sequence:
#
# PCOD9262551 Si02
#       6
#     8   8   8   8   8   8
#     4  10  21  38  61  87 110 152 208 251 286 347
#     4  10  19  33  53  83 118 155 190 244 294 368
#     4  10  21  37  61  86 111 150 202 252 291 347
#     4  10  20  35  54  84 117 160 198 243 301 370
#     4  10  21  33  53  84 125 154 193 241 317 360
#     4  10  20  32  53  85 115 152 197 244 297 353
#
# _framework density 27.617799000000002
#
# number of rings (size 3 to 8) (size 9 to 14) (size 15 to 20)
#    0.000    2.000    1.667    2.000    2.333    0.000 
#    0.000    0.000    0.000    8.000    0.000    0.000 
#    0.000    0.000    0.000    0.000    0.000    0.000 
#
# Total GULP energy -134001.727165 kJ/mol
# GULP energy per Si atom -5583.405299 kJ/mol
# Density = 2.755494 g / cm^3
# Si number density = 27.617799 Si / 1000 Ang^3
#
#
#
# Elastic Constant Matrix: (Units=GPa)
#
#
# Indices 1 2 3 4 5 6 
#
# 1 87.1385 32.0749 56.7211 0.0000 7.9325 0.0059
# 2 32.0749 220.0301 36.8942 0.0047 -9.2160 0.0094
# 3 56.7211 36.8942 108.1047 -0.0019 17.8690 0.0011
# 4 0.0000 0.0047 -0.0019 39.4660 -0.0010 4.6064
# 5 7.9325 -9.2160 17.8690 -0.0010 52.2030 0.0009
# 6 0.0059 0.0094 0.0011 4.6064 0.0009 35.2919
#
#
#
# Elastic Compliance Matrix: (Units=1/GPa)
#
#
# Indices 1 2 3 4 5 6 
#
# 1 0.017670 -0.001070 -0.008937 0.000000 0.000185 -0.000002
# 2 -0.001070 0.004999 -0.001397 0.000000 0.001523 -0.000001
# 3 -0.008937 -0.001397 0.015086 0.000001 -0.004052 0.000001
# 4 0.000000 0.000000 0.000001 0.025730 0.000000 -0.003358
# 5 0.000185 0.001523 -0.004052 0.000000 0.020784 -0.000001
# 6 -0.000002 -0.000001 0.000001 -0.003358 -0.000001 0.028773
#
#
# Mechanical properties :
#
#
# Convention : Reuss Voigt Hill
#
# Bulk Modulus (GPa) = 66.89556 74.07264 70.48410
# Shear Modulus (GPa) = 35.50354 44.69771 40.10062
#
# Velocity S-wave (km/s) = 3.58932 4.02735 3.81463
# Velocity P-wave (km/s) = 6.43833 6.96454 6.70660
#
# Compressibility (1/GPa) = 0.01494868
#
# Stress axis : x y z
#
# Youngs Moduli (GPa) = 56.59275 200.05165 66.28760
#
# Poissons Ratio (x) = 0.21397 0.59240
# Poissons Ratio (y) = 0.06053 0.09257
# Poissons Ratio (z) = 0.50576 0.27938
#
# Static dielectric constant tensor:
#      x y z
#    x 2.107460 0.000000 -0.041400 
#    y 0.000000 2.301940 -0.000010 
#    z -0.041400 -0.000010 2.226110 
# 
# From -- ./inp_files/250796.got.cif
#   From: 2010.05.17/outbox.cif.g08.bks.cpg/sg15_126_cif.got.tgz:250796.got - 2010.06.03 18:47:42.
