data_PCOD9262192
_publ_section_title
;
Structure prediction by ZEFSAII (Michael W. Deem and Ramdas Pophale) SiO2 
 PCOD9262192
Probable space group: C 2/C
;
_chemical_formula_sum "Si O2"
_cell_formula_units_Z 44
_cell_length_a 10.275510
_cell_length_b 10.907809
_cell_length_c 24.680420
_cell_angle_alpha 90.000000
_cell_angle_beta 138.517432
_cell_angle_gamma 90.000000
_cell_volume 1832.350852
_symmetry_space_group_name_H-M "C 2/C"
_symmetry_group_IT_number 15
_symmetry_cell_setting 'monoclinic'
loop_
_space_group_symop_operation_xyz
x,y,z
-x,y,1/2-z
-x,-y,-z
x,-y,1/2+z
1/2+x,1/2+y,z
1/2-x,1/2+y,1/2-z
1/2-x,1/2-y,-z
1/2+x,1/2-y,1/2+z
loop_
_atom_site_type_symbol
_atom_site_label
_atom_site_fract_x
_atom_site_fract_y
_atom_site_fract_z
Si Si1 0.500000 0.112491 0.250000
Si Si2 0.895997 0.107792 0.042118
Si Si3 0.250061 0.272657 0.595097
Si Si4 0.711850 0.582560 0.674648
Si Si5 0.116874 0.774112 0.377308
Si Si6 0.918150 0.419310 0.536617
O O1 0.633268 0.200455 0.327382
O O2 0.633503 0.018471 0.257395
O O3 0.914642 0.180329 0.104866
O O4 0.895083 0.195152 0.990035
O O5 0.048845 0.996692 0.090378
O O6 0.675813 0.048105 0.976084
O O7 0.298767 0.180455 0.659036
O O8 0.137607 0.388974 0.585993
O O9 0.590958 0.654974 0.682335
O O10 0.116189 0.671592 0.423876
O O11 0.282591 0.869640 0.445327
#
# Coordination Sequence:
#
# PCOD9262192 Si02
#       6
#     4   8   8   8   8   8
#     4  12  22  38  58  76 108 154 184 220 276 326
#     4  10  19  32  55  84 108 138 178 220 268 324
#     4  10  19  32  55  84 109 137 175 221 274 327
#     4  10  22  37  52  76 110 143 180 224 267 319
#     4   9  20  36  58  82 107 143 186 224 271 329
#     4   9  17  36  58  81 111 140 177 231 278 316
#
# _framework density 24.012868999999998
#
# number of rings (size 3 to 8) (size 9 to 14) (size 15 to 20)
#    0.000    2.182    0.000    4.364    0.000    1.455 
#    0.000    9.091    0.000    0.000    0.000    0.000 
#    0.000    0.000    0.000    0.000    0.000    0.000 
#
# Total GULP energy -122848.504875 kJ/mol
# GULP energy per Si atom -5584.022949 kJ/mol
# Density = 2.395821 g / cm^3
# Si number density = 24.012869 Si / 1000 Ang^3
#
#
#
# Elastic Constant Matrix: (Units=GPa)
#
#
# Indices 1 2 3 4 5 6 
#
# 1 30.3693 18.6073 -0.2873 0.0000 -8.3479 0.0000
# 2 18.6073 98.7824 7.3937 0.0000 0.0050 0.0000
# 3 -0.2873 7.3937 30.0886 0.0000 6.3450 0.0000
# 4 0.0000 0.0000 0.0000 18.4007 0.0000 -2.5791
# 5 -8.3479 0.0050 6.3450 0.0000 13.7308 0.0000
# 6 0.0000 0.0000 0.0000 -2.5791 0.0000 46.2441
#
#
#
# Elastic Compliance Matrix: (Units=1/GPa)
#
#
# Indices 1 2 3 4 5 6 
#
# 1 0.046276 -0.008435 -0.003788 0.000000 0.029888 0.000000
# 2 -0.008435 0.011871 -0.002122 0.000000 -0.004152 0.000000
# 3 -0.003788 -0.002122 0.037899 0.000000 -0.019816 0.000000
# 4 0.000000 0.000000 0.000000 0.054774 0.000000 0.003055
# 5 0.029888 -0.004152 -0.019816 0.000000 0.100158 0.000000
# 6 0.000000 0.000000 0.000000 0.003055 0.000000 0.021795
#
#
# Mechanical properties :
#
#
# Convention : Reuss Voigt Hill
#
# Bulk Modulus (GPa) = 14.84652 23.40753 19.12703
# Shear Modulus (GPa) = 15.43617 24.57691 20.00654
#
# Velocity S-wave (km/s) = 2.53816 3.20267 2.88958
# Velocity P-wave (km/s) = 3.84523 4.84203 4.37213
#
# Compressibility (1/GPa) = 0.06735585
#
# Stress axis : x y z
#
# Youngs Moduli (GPa) = 21.60964 84.23786 26.38582
#
# Poissons Ratio (x) = 0.71053 0.09995
# Poissons Ratio (y) = 0.18227 0.05599
# Poissons Ratio (z) = 0.08186 0.17876
#
# Static dielectric constant tensor:
#      x y z
#    x 1.951980 0.000000 0.067040 
#    y 0.000000 1.890080 0.000000 
#    z 0.067040 0.000000 1.927160 
# 
# From -- ./inp_files/195632.got.cif
#   From: 2010.05.17/outbox.cif.g08.bks.cpg/sg15_98_cif.got.tgz:195632.got - 2010.06.03 18:47:42.
