data_PCOD9262465
_publ_section_title
;
Structure prediction by ZEFSAII (Michael W. Deem and Ramdas Pophale) SiO2 
 PCOD9262465
Probable space group: C 2/C
;
_chemical_formula_sum "Si O2"
_cell_formula_units_Z 48
_cell_length_a 5.090587
_cell_length_b 29.306699
_cell_length_c 18.184033
_cell_angle_alpha 90.000000
_cell_angle_beta 85.117104
_cell_angle_gamma 90.000000
_cell_volume 2702.999396
_symmetry_space_group_name_H-M "C 2/C"
_symmetry_group_IT_number 15
_symmetry_cell_setting 'monoclinic'
loop_
_space_group_symop_operation_xyz
x,y,z
-x,y,1/2-z
-x,-y,-z
x,-y,1/2+z
1/2+x,1/2+y,z
1/2-x,1/2+y,1/2-z
1/2-x,1/2-y,-z
1/2+x,1/2-y,1/2+z
loop_
_atom_site_type_symbol
_atom_site_label
_atom_site_fract_x
_atom_site_fract_y
_atom_site_fract_z
Si Si1 0.638334 0.897403 0.645233
Si Si2 0.314451 0.716190 0.431246
Si Si3 0.843351 0.888785 0.950052
Si Si4 0.748486 0.494836 0.796253
Si Si5 0.740837 0.975810 0.036675
Si Si6 0.846922 0.293256 0.827890
O O1 0.347729 0.898195 0.616030
O O2 0.703733 0.940639 0.693221
O O3 0.688817 0.848161 0.680644
O O4 0.855692 0.900711 0.575775
O O5 0.250000 0.750000 0.500000
O O6 0.340920 0.665113 0.463526
O O7 0.567829 0.724063 0.370085
O O8 0.058393 0.714810 0.386378
O O9 0.744264 0.922628 0.015093
O O10 0.500000 0.501680 0.750000
O O11 0.746573 0.515809 0.877145
O O12 0.000000 0.514764 0.750000
O O13 0.500000 0.000000 0.000000
O O14 0.000000 0.000000 0.000000
O O15 0.000000 0.276662 0.750000
#
# Coordination Sequence:
#
# PCOD9262465 Si02
#       6
#     8   8   8   8   8   8
#     4  10  19  33  52  79 111 141 177 216 286 342
#     4  10  21  36  58  83 113 145 189 232 284 328
#     4  10  19  35  56  79 103 146 189 228 265 329
#     4  12  23  33  50  79 113 144 181 232 277 320
#     4  12  21  37  57  76 108 150 196 220 267 336
#     4  10  20  34  55  84 116 145 175 227 288 353
#
# _framework density 17.758051999999999
#
# number of rings (size 3 to 8) (size 9 to 14) (size 15 to 20)
#    0.000    1.333    3.333    3.500    0.000    2.667 
#    0.000    0.000    0.000    3.000    0.000    0.000 
#    0.000    0.000    0.000    0.000    0.000    0.000 
#
# Total GULP energy -133772.727677 kJ/mol
# GULP energy per Si atom -5573.863653 kJ/mol
# Density = 1.771763 g / cm^3
# Si number density = 17.758052 Si / 1000 Ang^3
#
#
#
# Elastic Constant Matrix: (Units=GPa)
#
#
# Indices 1 2 3 4 5 6 
#
# 1 109.9768 25.6675 39.3172 0.0000 -8.0335 0.0000
# 2 25.6675 62.4849 46.0103 0.0000 -5.5186 0.0000
# 3 39.3172 46.0103 127.4170 0.0000 -12.2685 0.0000
# 4 0.0000 0.0000 0.0000 28.6245 0.0000 -1.2202
# 5 -8.0335 -5.5186 -12.2685 0.0000 30.5872 0.0000
# 6 0.0000 0.0000 0.0000 -1.2202 0.0000 16.4007
#
#
#
# Elastic Compliance Matrix: (Units=1/GPa)
#
#
# Indices 1 2 3 4 5 6 
#
# 1 0.010589 -0.002614 -0.002186 0.000000 0.001433 0.000000
# 2 -0.002614 0.022465 -0.007262 0.000000 0.000454 0.000000
# 3 -0.002186 -0.007262 0.011404 0.000000 0.002690 0.000000
# 4 0.000000 0.000000 0.000000 0.035046 0.000000 0.002607
# 5 0.001433 0.000454 0.002690 0.000000 0.034231 0.000000
# 6 0.000000 0.000000 0.000000 0.002607 0.000000 0.061167
#
#
# Mechanical properties :
#
#
# Convention : Reuss Voigt Hill
#
# Bulk Modulus (GPa) = 49.17581 57.98540 53.58061
# Shear Modulus (GPa) = 24.29517 27.71472 26.00495
#
# Velocity S-wave (km/s) = 3.70283 3.95484 3.83090
# Velocity P-wave (km/s) = 6.78480 7.31971 7.05732
#
# Compressibility (1/GPa) = 0.02033520
#
# Stress axis : x y z
#
# Youngs Moduli (GPa) = 94.43851 44.51402 87.68930
#
# Poissons Ratio (x) = 0.11635 0.19166
# Poissons Ratio (y) = 0.24684 0.63678
# Poissons Ratio (z) = 0.20641 0.32325
#
# Static dielectric constant tensor:
#      x y z
#    x 1.622400 0.000000 -0.045960 
#    y 0.000000 1.620840 0.000000 
#    z -0.045960 0.000000 1.595610 
# 
# From -- ./inp_files/130368.got.cif
#   From: 2010.05.17/outbox.cif.g08.bks.cpg/sg15_66_cif.got.tgz:130368.got - 2010.06.03 18:47:42.
