data_PCOD9262215
_publ_section_title
;
Structure prediction by ZEFSAII (Michael W. Deem and Ramdas Pophale) SiO2 
 PCOD9262215
Probable space group: C 2/C
;
_chemical_formula_sum "Si O2"
_cell_formula_units_Z 56
_cell_length_a 19.604250
_cell_length_b 12.167096
_cell_length_c 10.268211
_cell_angle_alpha 90.000000
_cell_angle_beta 67.526208
_cell_angle_gamma 90.000000
_cell_volume 2263.234365
_symmetry_space_group_name_H-M "C 2/C"
_symmetry_group_IT_number 15
_symmetry_cell_setting 'monoclinic'
loop_
_space_group_symop_operation_xyz
x,y,z
-x,y,1/2-z
-x,-y,-z
x,-y,1/2+z
1/2+x,1/2+y,z
1/2-x,1/2+y,1/2-z
1/2-x,1/2-y,-z
1/2+x,1/2-y,1/2+z
loop_
_atom_site_type_symbol
_atom_site_label
_atom_site_fract_x
_atom_site_fract_y
_atom_site_fract_z
Si Si1 0.553034 0.379975 0.600972
Si Si2 0.441386 0.372656 0.483203
Si Si3 0.842078 0.374665 0.589668
Si Si4 0.839621 0.516500 0.838116
Si Si5 0.325136 0.794781 0.006770
Si Si6 0.670925 0.562693 0.202194
Si Si7 0.219617 0.146052 0.789199
O O1 0.500000 0.332760 0.750000
O O2 0.517476 0.335002 0.494589
O O3 0.541687 0.512676 0.598278
O O4 0.633774 0.382348 0.603503
O O5 0.397391 0.278977 0.440155
O O6 0.382702 0.404916 0.639674
O O7 0.871116 0.460901 0.680084
O O8 0.872197 0.394736 0.419981
O O9 0.754751 0.400788 0.649516
O O10 0.834140 0.246904 0.637346
O O11 0.757226 0.560810 0.863621
O O12 0.836583 0.411341 0.933435
O O13 0.297644 0.808368 0.175010
O O14 0.250000 0.750000 0.000000
O O15 0.678369 0.430816 0.213369
#
# Coordination Sequence:
#
# PCOD9262215 Si02
#       7
#     8   8   8   8   8   8   8
#     4   9  20  35  52  81 115 145 200 253 303 347
#     4  10  20  35  55  80 116 156 197 249 304 371
#     4  11  22  35  53  84 122 164 201 243 305 369
#     4  11  22  35  51  81 128 158 202 250 288 382
#     4  12  19  33  57  82 116 169 201 233 318 377
#     4  10  19  32  56  79 118 155 188 253 290 368
#     4  11  21  34  53  86 123 162 203 241 305 381
#
# _framework density 24.743348000000001
#
# number of rings (size 3 to 8) (size 9 to 14) (size 15 to 20)
#    0.000    1.429    5.714    2.143    4.000    0.000 
#    0.000    0.000    0.000    0.000    0.000    1.000 
#    0.000    0.571    0.000    0.000    0.000    0.000 
#
# Total GULP energy -155963.375802 kJ/mol
# GULP energy per Si atom -5570.120564 kJ/mol
# Density = 2.468703 g / cm^3
# Si number density = 24.743348 Si / 1000 Ang^3
#
#
#
# Elastic Constant Matrix: (Units=GPa)
#
#
# Indices 1 2 3 4 5 6 
#
# 1 66.7946 36.1482 19.2072 0.0000 4.2586 0.0000
# 2 36.1482 108.8482 12.6031 0.0000 11.6240 0.0000
# 3 19.2072 12.6031 73.9432 0.0000 13.2186 0.0000
# 4 0.0000 0.0000 0.0000 29.7324 0.0000 4.8313
# 5 4.2586 11.6240 13.2186 0.0000 18.5763 0.0000
# 6 0.0000 0.0000 0.0000 4.8313 0.0000 27.8863
#
#
#
# Elastic Compliance Matrix: (Units=1/GPa)
#
#
# Indices 1 2 3 4 5 6 
#
# 1 0.019455 -0.006223 -0.004459 0.000000 0.002607 0.000000
# 2 -0.006223 0.011864 0.000764 0.000000 -0.006540 0.000000
# 3 -0.004459 0.000764 0.016561 0.000000 -0.011240 0.000000
# 4 0.000000 0.000000 0.000000 0.034608 0.000000 -0.005996
# 5 0.002607 -0.006540 -0.011240 0.000000 0.065326 0.000000
# 6 0.000000 0.000000 0.000000 -0.005996 0.000000 0.036899
#
#
# Mechanical properties :
#
#
# Convention : Reuss Voigt Hill
#
# Bulk Modulus (GPa) = 35.65895 42.83367 39.24631
# Shear Modulus (GPa) = 23.37576 27.34751 25.36164
#
# Velocity S-wave (km/s) = 3.07698 3.32813 3.20502
# Velocity P-wave (km/s) = 5.20255 5.66722 5.43985
#
# Compressibility (1/GPa) = 0.02804345
#
# Stress axis : x y z
#
# Youngs Moduli (GPa) = 51.40039 84.28980 60.38135
#
# Poissons Ratio (x) = 0.52454 0.26924
# Poissons Ratio (y) = 0.31987 -0.04611
# Poissons Ratio (z) = 0.22919 -0.06436
#
# Static dielectric constant tensor:
#      x y z
#    x 1.694000 0.000000 -0.068720 
#    y 0.000000 2.033780 0.000000 
#    z -0.068720 0.000000 2.078060 
# 
# From -- ./inp_files/111589.got.cif
#   From: 2010.05.17/outbox.cif.g08.bks.cpg/sg15_56_cif.got.tgz:111589.got - 2010.06.03 18:47:42.
