data_PCOD9262322
_publ_section_title
;
Structure prediction by ZEFSAII (Michael W. Deem and Ramdas Pophale) SiO2 
 PCOD9262322
Probable space group: C 2/C
;
_chemical_formula_sum "Si O2"
_cell_formula_units_Z 56
_cell_length_a 8.901132
_cell_length_b 18.661530
_cell_length_c 23.948339
_cell_angle_alpha 90.000000
_cell_angle_beta 130.577424
_cell_angle_gamma 90.000000
_cell_volume 3021.422688
_symmetry_space_group_name_H-M "C 2/C"
_symmetry_group_IT_number 15
_symmetry_cell_setting 'monoclinic'
loop_
_space_group_symop_operation_xyz
x,y,z
-x,y,1/2-z
-x,-y,-z
x,-y,1/2+z
1/2+x,1/2+y,z
1/2-x,1/2+y,1/2-z
1/2-x,1/2-y,-z
1/2+x,1/2-y,1/2+z
loop_
_atom_site_type_symbol
_atom_site_label
_atom_site_fract_x
_atom_site_fract_y
_atom_site_fract_z
Si Si1 0.193925 0.453681 0.826533
Si Si2 0.055453 0.442909 0.560271
Si Si3 0.673588 0.367348 0.331639
Si Si4 0.275004 0.672083 0.531281
Si Si5 0.499398 0.414248 0.991909
Si Si6 0.031811 0.028901 0.320286
Si Si7 0.433857 0.936976 0.115318
O O1 0.328267 0.407079 0.902858
O O2 0.341923 0.469247 0.811963
O O3 0.128634 0.529260 0.840041
O O4 0.000000 0.420681 0.750000
O O5 0.285850 0.427638 0.610774
O O6 0.000000 0.500000 0.500000
O O7 0.924446 0.373590 0.523807
O O8 0.002250 0.488404 0.602422
O O9 0.500000 0.338621 0.250000
O O10 0.688451 0.325558 0.393446
O O11 0.603591 0.446911 0.333391
O O12 0.880504 0.383509 0.349080
O O13 0.250000 0.750000 0.500000
O O14 0.432028 0.627624 0.531332
O O15 0.500000 0.500000 0.000000
O O16 0.735290 0.402477 0.039971
O O17 0.000000 0.054716 0.250000
#
# Coordination Sequence:
#
# PCOD9262322 Si02
#       7
#     8   8   8   8   8   8   8
#     4  11  19  29  50  91 127 152 195 263 315 356
#     4  11  18  35  60  85 118 159 207 251 304 367
#     4  10  20  37  60  89 119 164 206 258 306 373
#     4  12  24  39  62  90 126 167 205 250 316 377
#     4  10  20  35  59  86 115 157 205 256 300 359
#     4  10  20  31  57  90 123 156 210 263 310 353
#     4  10  19  32  60  88 115 152 208 263 305 350
#
# _framework density 18.534314999999999
#
# number of rings (size 3 to 8) (size 9 to 14) (size 15 to 20)
#    0.000    1.429    5.714    5.143    0.000    0.000 
#    0.000    1.429    0.000    0.000    0.000    0.000 
#    0.000    0.000    0.000    0.000    0.000    0.000 
#
# Total GULP energy -155919.567184 kJ/mol
# GULP energy per Si atom -5568.555971 kJ/mol
# Density = 1.849213 g / cm^3
# Si number density = 18.534315 Si / 1000 Ang^3
#
#
#
# Elastic Constant Matrix: (Units=GPa)
#
#
# Indices 1 2 3 4 5 6 
#
# 1 154.8127 26.5164 66.3605 0.0000 9.9714 0.0000
# 2 26.5164 63.2478 25.9266 0.0000 -0.3892 0.0000
# 3 66.3605 25.9266 140.0106 -0.0001 10.9434 0.0000
# 4 0.0000 0.0000 -0.0001 10.8054 0.0000 -2.7221
# 5 9.9714 -0.3892 10.9434 0.0000 39.0389 0.0000
# 6 0.0000 0.0000 0.0000 -2.7221 0.0000 15.0257
#
#
#
# Elastic Compliance Matrix: (Units=1/GPa)
#
#
# Indices 1 2 3 4 5 6 
#
# 1 0.008394 -0.002092 -0.003498 0.000000 -0.001184 0.000000
# 2 -0.002092 0.017676 -0.002389 0.000000 0.001380 0.000000
# 3 -0.003498 -0.002389 0.009380 0.000000 -0.001760 0.000000
# 4 0.000000 0.000000 0.000000 0.096971 0.000000 0.017567
# 5 -0.001184 0.001380 -0.001760 0.000000 0.026425 0.000000
# 6 0.000000 0.000000 0.000000 0.017567 0.000000 0.069735
#
#
# Mechanical properties :
#
#
# Convention : Reuss Voigt Hill
#
# Bulk Modulus (GPa) = 51.30825 66.18647 58.74736
# Shear Modulus (GPa) = 19.91731 28.92520 24.42125
#
# Velocity S-wave (km/s) = 3.28169 3.95477 3.63385
# Velocity P-wave (km/s) = 6.48863 7.52604 7.02651
#
# Compressibility (1/GPa) = 0.01949004
#
# Stress axis : x y z
#
# Youngs Moduli (GPa) = 119.13847 56.57408 106.60518
#
# Poissons Ratio (x) = 0.11837 0.37294
# Poissons Ratio (y) = 0.24927 0.25472
# Poissons Ratio (z) = 0.41678 0.13518
#
# Static dielectric constant tensor:
#      x y z
#    x 1.724360 0.000000 -0.020210 
#    y 0.000000 1.619870 0.000000 
#    z -0.020210 0.000000 1.775960 
# 
# From -- ./inp_files/265607.got.cif
#   From: 2010.05.17/outbox.cif.g08.bks.cpg/sg15_133_cif.got.tgz:265607.got - 2010.06.03 18:47:42.
