data_PCOD9262368
_publ_section_title
;
Structure prediction by ZEFSAII (Michael W. Deem and Ramdas Pophale) SiO2 
 PCOD9262368
Probable space group: C 2/C
;
_chemical_formula_sum "Si O2"
_cell_formula_units_Z 48
_cell_length_a 17.906769
_cell_length_b 28.304725
_cell_length_c 10.272684
_cell_angle_alpha 90.000000
_cell_angle_beta 157.597667
_cell_angle_gamma 90.000000
_cell_volume 1984.303921
_symmetry_space_group_name_H-M "C 2/C"
_symmetry_group_IT_number 15
_symmetry_cell_setting 'monoclinic'
loop_
_space_group_symop_operation_xyz
x,y,z
-x,y,1/2-z
-x,-y,-z
x,-y,1/2+z
1/2+x,1/2+y,z
1/2-x,1/2+y,1/2-z
1/2-x,1/2-y,-z
1/2+x,1/2-y,1/2+z
loop_
_atom_site_type_symbol
_atom_site_label
_atom_site_fract_x
_atom_site_fract_y
_atom_site_fract_z
Si Si1 0.128525 0.219645 0.694183
Si Si2 0.761516 0.355656 0.880036
Si Si3 0.793737 0.528763 0.148682
Si Si4 0.759855 0.537768 0.374093
Si Si5 0.667408 0.801302 0.251202
Si Si6 0.723692 0.141587 0.396656
O O1 0.218353 0.212841 0.695599
O O2 0.944349 0.254268 0.382996
O O3 0.250000 0.250000 0.000000
O O4 0.134832 0.167816 0.772123
O O5 0.724723 0.326104 0.952831
O O6 0.712295 0.344984 0.648458
O O7 0.698199 0.409217 0.806271
O O8 0.000000 0.353901 0.250000
O O9 0.691362 0.524664 0.121339
O O10 0.703036 0.501376 0.883805
O O11 0.798799 0.585026 0.130835
O O12 0.000000 0.500000 0.500000
O O13 0.000000 0.540116 0.750000
O O14 0.493463 0.837440 0.931058
#
# Coordination Sequence:
#
# PCOD9262368 Si02
#       6
#     8   8   8   8   8   8
#     4  10  20  33  48  68  93 126 166 207 247 285
#     4   8  15  29  44  62  92 128 161 196 243 289
#     4   9  15  22  36  59  89 124 153 184 232 290
#     4   8  14  22  35  58  87 122 152 183 229 290
#     4  10  19  33  49  67  91 127 165 207 244 286
#     4   9  17  29  43  64  94 129 159 197 243 288
#
# _framework density 24.189841999999999
#
# number of rings (size 3 to 8) (size 9 to 14) (size 15 to 20)
#    0.000    3.000    0.000    5.000    0.000    5.333 
#    0.000   15.000    0.000    0.000    0.000    0.000 
#    0.000    0.000    0.000  639.000    0.000   17.000 
#
# Total GULP energy -134018.302895 kJ/mol
# GULP energy per Si atom -5584.095954 kJ/mol
# Density = 2.413479 g / cm^3
# Si number density = 24.189842 Si / 1000 Ang^3
#
#
#
# Elastic Constant Matrix: (Units=GPa)
#
#
# Indices 1 2 3 4 5 6 
#
# 1 249.6338 157.8014 63.6146 0.0000 -16.4879 0.0000
# 2 157.8014 188.2908 58.2662 0.0000 -20.8376 0.0000
# 3 63.6146 58.2662 100.5359 -0.0001 -24.0190 -0.0002
# 4 0.0000 0.0000 -0.0001 20.5432 0.0000 -13.9798
# 5 -16.4879 -20.8376 -24.0190 0.0000 40.9308 0.0000
# 6 0.0000 0.0000 -0.0002 -13.9798 0.0000 50.0172
#
#
#
# Elastic Compliance Matrix: (Units=1/GPa)
#
#
# Indices 1 2 3 4 5 6 
#
# 1 0.008753 -0.006897 -0.001789 0.000000 -0.001035 0.000000
# 2 -0.006897 0.011963 -0.002068 0.000000 0.002099 0.000000
# 3 -0.001789 -0.002068 0.013786 0.000000 0.006317 0.000000
# 4 0.000000 0.000000 0.000000 0.060111 0.000000 0.016801
# 5 -0.001035 0.002099 0.006317 0.000000 0.028790 0.000000
# 6 0.000000 0.000000 0.000000 0.016801 0.000000 0.024689
#
#
# Mechanical properties :
#
#
# Convention : Reuss Voigt Hill
#
# Bulk Modulus (GPa) = 76.94994 121.98051 99.46523
# Shear Modulus (GPa) = 28.74716 39.55011 34.14864
#
# Velocity S-wave (km/s) = 3.45105 4.04789 3.76133
# Velocity P-wave (km/s) = 6.91083 8.50782 7.75057
#
# Compressibility (1/GPa) = 0.01299546
#
# Stress axis : x y z
#
# Youngs Moduli (GPa) = 114.24840 83.59171 72.53671
#
# Poissons Ratio (x) = 0.57649 0.12975
# Poissons Ratio (y) = 0.78792 0.15000
# Poissons Ratio (z) = 0.20436 0.17287
#
# Static dielectric constant tensor:
#      x y z
#    x 1.916300 0.000000 0.020700 
#    y 0.000000 1.956540 0.000000 
#    z 0.020700 0.000000 2.112320 
# 
# From -- ./inp_files/108146.got.cif
#   From: 2010.05.17/outbox.cif.g08.bks.cpg/sg15_55_cif.got.tgz:108146.got - 2010.06.03 18:47:42.
