data_PCOD9262125
_publ_section_title
;
Structure prediction by ZEFSAII (Michael W. Deem and Ramdas Pophale) SiO2 
 PCOD9262125
Probable space group: C 2/C
;
_chemical_formula_sum "Si O2"
_cell_formula_units_Z 56
_cell_length_a 13.314760
_cell_length_b 16.924561
_cell_length_c 12.615831
_cell_angle_alpha 90.000000
_cell_angle_beta 115.024418
_cell_angle_gamma 90.000000
_cell_volume 2576.060003
_symmetry_space_group_name_H-M "C 2/C"
_symmetry_group_IT_number 15
_symmetry_cell_setting 'monoclinic'
loop_
_space_group_symop_operation_xyz
x,y,z
-x,y,1/2-z
-x,-y,-z
x,-y,1/2+z
1/2+x,1/2+y,z
1/2-x,1/2+y,1/2-z
1/2-x,1/2-y,-z
1/2+x,1/2-y,1/2+z
loop_
_atom_site_type_symbol
_atom_site_label
_atom_site_fract_x
_atom_site_fract_y
_atom_site_fract_z
Si Si1 0.200749 0.977228 0.733229
Si Si2 0.114959 0.287521 0.750895
Si Si3 0.145966 0.883595 0.342094
Si Si4 0.374209 0.077757 0.685801
Si Si5 0.108884 0.657257 0.588737
Si Si6 0.854261 0.837465 0.928183
Si Si7 0.875823 0.614500 0.446209
O O1 0.133866 0.902849 0.657848
O O2 0.295742 0.948384 0.856936
O O3 0.126687 0.039558 0.763551
O O4 0.274500 0.018987 0.673761
O O5 0.111853 0.193984 0.762559
O O6 0.221621 0.318181 0.863776
O O7 0.136987 0.311474 0.639401
O O8 0.000000 0.319009 0.750000
O O9 0.278609 0.873769 0.410245
O O10 0.106832 0.875638 0.444668
O O11 0.500000 0.041539 0.750000
O O12 0.378226 0.143562 0.779782
O O13 0.353377 0.115400 0.561500
O O14 0.092727 0.750470 0.560580
O O15 0.008262 0.604232 0.502275
#
# Coordination Sequence:
#
# PCOD9262125 Si02
#       7
#     8   8   8   8   8   8   8
#     4  10  21  32  49  77 106 136 167 200 252 312
#     4  10  19  32  54  78  97 130 179 215 243 291
#     4  10  19  33  50  74 106 136 167 207 255 299
#     4   9  19  32  48  74 106 134 162 207 258 300
#     4   9  18  33  52  74 102 134 170 210 253 297
#     4  10  19  33  52  74 103 135 167 211 258 294
#     4  10  19  33  53  77 102 133 171 209 249 299
#
# _framework density 21.738624999999999
#
# number of rings (size 3 to 8) (size 9 to 14) (size 15 to 20)
#    0.000    2.286    0.000    4.286    0.000    8.571 
#    0.000   12.857    0.000    6.000    0.000    0.000 
#    0.000    0.000    0.000    0.000    0.000    0.000 
#
# Total GULP energy -156146.954272 kJ/mol
# GULP energy per Si atom -5576.676938 kJ/mol
# Density = 2.168915 g / cm^3
# Si number density = 21.738625 Si / 1000 Ang^3
#
#
#
# Elastic Constant Matrix: (Units=GPa)
#
#
# Indices 1 2 3 4 5 6 
#
# 1 27.7699 -3.8505 15.9911 0.0000 5.2625 0.0000
# 2 -3.8505 97.3190 29.4553 0.0000 -4.7962 0.0000
# 3 15.9911 29.4553 113.6676 0.0000 -7.4994 0.0000
# 4 0.0000 0.0000 0.0000 12.6310 0.0000 -3.5160
# 5 5.2625 -4.7962 -7.4994 0.0000 18.3865 0.0000
# 6 0.0000 0.0000 0.0000 -3.5160 0.0000 15.4776
#
#
#
# Elastic Compliance Matrix: (Units=1/GPa)
#
#
# Indices 1 2 3 4 5 6 
#
# 1 0.043971 0.003443 -0.008066 0.000000 -0.014977 0.000000
# 2 0.003443 0.011476 -0.003418 0.000000 0.000614 0.000000
# 3 -0.008066 -0.003418 0.011213 0.000000 0.005991 0.000000
# 4 0.000000 0.000000 0.000000 0.084515 0.000000 0.019199
# 5 -0.014977 0.000614 0.005991 0.000000 0.061278 0.000000
# 6 0.000000 0.000000 0.000000 0.019199 0.000000 0.068971
#
#
# Mechanical properties :
#
#
# Convention : Reuss Voigt Hill
#
# Bulk Modulus (GPa) = 19.77134 35.77205 27.77170
# Shear Modulus (GPa) = 15.90504 22.44305 19.17404
#
# Velocity S-wave (km/s) = 2.70783 3.21659 2.97311
# Velocity P-wave (km/s) = 4.34641 5.50332 4.95872
#
# Compressibility (1/GPa) = 0.05057826
#
# Stress axis : x y z
#
# Youngs Moduli (GPa) = 22.74243 87.13508 89.17988
#
# Poissons Ratio (x) = -0.30001 0.71935
# Poissons Ratio (y) = -0.07830 0.30480
# Poissons Ratio (z) = 0.18345 0.29781
#
# Static dielectric constant tensor:
#      x y z
#    x 1.853500 0.000000 0.011070 
#    y 0.000000 1.809950 0.000000 
#    z 0.011070 0.000000 1.814590 
# 
# From -- ./inp_files/98393.got.cif
#   From: 2010.05.17/outbox.cif.g08.bks.cpg/sg15_50_cif.got.tgz:98393.got - 2010.06.03 18:47:42.
