data_PCOD9262880
_publ_section_title
;
Structure prediction by ZEFSAII (Michael W. Deem and Ramdas Pophale) SiO2 
 PCOD9262880
Probable space group: C 2/C
;
_chemical_formula_sum "Si O2"
_cell_formula_units_Z 48
_cell_length_a 9.815151
_cell_length_b 12.019212
_cell_length_c 14.788864
_cell_angle_alpha 90.000000
_cell_angle_beta 111.613016
_cell_angle_gamma 90.000000
_cell_volume 1621.986666
_symmetry_space_group_name_H-M "C 2/C"
_symmetry_group_IT_number 15
_symmetry_cell_setting 'monoclinic'
loop_
_space_group_symop_operation_xyz
x,y,z
-x,y,1/2-z
-x,-y,-z
x,-y,1/2+z
1/2+x,1/2+y,z
1/2-x,1/2+y,1/2-z
1/2-x,1/2-y,-z
1/2+x,1/2-y,1/2+z
loop_
_atom_site_type_symbol
_atom_site_label
_atom_site_fract_x
_atom_site_fract_y
_atom_site_fract_z
Si Si1 0.702106 0.943483 0.168308
Si Si2 0.114639 0.494579 0.923764
Si Si3 0.133188 0.728988 0.352211
Si Si4 0.085589 0.026455 0.396933
Si Si5 0.859414 0.301101 0.175003
Si Si6 0.050892 0.817302 0.046210
O O1 0.744037 0.818382 0.142135
O O2 0.851059 0.015136 0.189268
O O3 0.560217 0.015450 0.102028
O O4 0.662395 0.902719 0.259153
O O5 0.156838 0.402312 0.858221
O O6 0.109231 0.627469 0.905958
O O7 0.258178 0.485153 0.021140
O O8 0.000000 0.752932 0.250000
O O9 0.079680 0.748473 0.442224
O O10 0.969833 0.934460 0.402668
O O11 0.052057 0.140365 0.442850
O O12 0.698773 0.256265 0.115379
O O13 0.000000 0.239027 0.250000
#
# Coordination Sequence:
#
# PCOD9262880 Si02
#       6
#     8   8   8   8   8   8
#     4  10  19  33  57  83 111 149 191 234 294 350
#     4  10  21  36  56  86 114 142 194 245 284 343
#     4  11  20  34  60  85 108 148 198 239 285 351
#     4   9  19  34  55  80 114 154 181 230 294 352
#     4   9  17  33  55  79 109 144 186 240 286 335
#     4   9  18  33  53  82 112 145 190 228 285 351
#
# _framework density 29.593340000000001
#
# number of rings (size 3 to 8) (size 9 to 14) (size 15 to 20)
#    0.000    2.333    1.667    2.000    0.000    2.667 
#    0.000    0.833    0.000   29.000    0.000    0.000 
#    0.000    0.000    0.000    0.000    0.000    0.000 
#
# Total GULP energy -133849.592363 kJ/mol
# GULP energy per Si atom -5577.066348 kJ/mol
# Density = 2.952598 g / cm^3
# Si number density = 29.593340 Si / 1000 Ang^3
#
#
#
# Elastic Constant Matrix: (Units=GPa)
#
#
# Indices 1 2 3 4 5 6 
#
# 1 122.1490 42.4765 0.2803 0.0000 21.2863 0.0000
# 2 42.4765 167.8490 22.7265 0.0000 9.0854 0.0000
# 3 0.2803 22.7265 61.1431 0.0000 24.7806 0.0000
# 4 0.0000 0.0000 0.0000 38.4856 0.0000 7.6027
# 5 21.2863 9.0854 24.7806 0.0000 50.0115 0.0000
# 6 0.0000 0.0000 0.0000 7.6027 0.0000 37.3307
#
#
#
# Elastic Compliance Matrix: (Units=1/GPa)
#
#
# Indices 1 2 3 4 5 6 
#
# 1 0.010037 -0.002672 0.003106 0.000000 -0.005325 0.000000
# 2 -0.002672 0.006985 -0.003167 0.000000 0.001437 0.000000
# 3 0.003106 -0.003167 0.022298 0.000000 -0.011795 0.000000
# 4 0.000000 0.000000 0.000000 0.027073 0.000000 -0.005514
# 5 -0.005325 0.001437 -0.011795 0.000000 0.027845 0.000000
# 6 0.000000 0.000000 0.000000 -0.005514 0.000000 0.027911
#
#
# Mechanical properties :
#
#
# Convention : Reuss Voigt Hill
#
# Bulk Modulus (GPa) = 29.53898 53.56749 41.55324
# Shear Modulus (GPa) = 35.99710 44.20941 40.10325
#
# Velocity S-wave (km/s) = 3.49146 3.86929 3.68522
# Velocity P-wave (km/s) = 5.12417 6.17271 5.67272
#
# Compressibility (1/GPa) = 0.03385357
#
# Stress axis : x y z
#
# Youngs Moduli (GPa) = 99.63292 143.16573 44.84637
#
# Poissons Ratio (x) = 0.38257 -0.13927
# Poissons Ratio (y) = 0.26624 0.14201
# Poissons Ratio (z) = -0.30941 0.45335
#
# Static dielectric constant tensor:
#      x y z
#    x 2.440960 0.000000 -0.268010 
#    y 0.000000 2.450400 0.000000 
#    z -0.268010 0.000000 2.804000 
# 
# From -- ./inp_files/231345.got.cif
#   From: 2010.05.17/outbox.cif.g08.bks.cpg/sg15_116_cif.got.tgz:231345.got - 2010.06.03 18:47:42.
