data_PCOD9262986
_publ_section_title
;
Structure prediction by ZEFSAII (Michael W. Deem and Ramdas Pophale) SiO2 
 PCOD9262986
Probable space group: C 2/C
;
_chemical_formula_sum "Si O2"
_cell_formula_units_Z 52
_cell_length_a 10.337720
_cell_length_b 22.870277
_cell_length_c 13.978254
_cell_angle_alpha 90.000000
_cell_angle_beta 135.178895
_cell_angle_gamma 90.000000
_cell_volume 2329.559870
_symmetry_space_group_name_H-M "C 2/C"
_symmetry_group_IT_number 15
_symmetry_cell_setting 'monoclinic'
loop_
_space_group_symop_operation_xyz
x,y,z
-x,y,1/2-z
-x,-y,-z
x,-y,1/2+z
1/2+x,1/2+y,z
1/2-x,1/2+y,1/2-z
1/2-x,1/2-y,-z
1/2+x,1/2-y,1/2+z
loop_
_atom_site_type_symbol
_atom_site_label
_atom_site_fract_x
_atom_site_fract_y
_atom_site_fract_z
Si Si1 0.500000 0.991927 0.750000
Si Si2 0.675269 0.287007 0.118725
Si Si3 0.355327 0.888924 0.798106
Si Si4 0.038052 0.196548 0.165658
Si Si5 0.971414 0.555879 0.550846
Si Si6 0.150678 0.120293 0.758618
Si Si7 0.134825 0.300328 0.987080
O O1 0.368384 0.947848 0.741812
O O2 0.403446 0.032962 0.618678
O O3 0.863012 0.259593 0.259570
O O4 0.600745 0.342857 0.138496
O O5 0.648232 0.301531 0.993348
O O6 0.535895 0.233225 0.057268
O O7 0.184870 0.845918 0.691130
O O8 0.365750 0.902807 0.919028
O O9 0.543399 0.852338 0.878889
O O10 0.000000 0.171903 0.250000
O O11 0.174531 0.581397 0.675226
O O12 0.000000 0.500000 0.500000
O O13 0.229880 0.170580 0.868080
O O14 0.000000 0.090943 0.750000
O O15 0.250000 0.250000 0.000000
#
# Coordination Sequence:
#
# PCOD9262986 Si02
#       7
#     4   8   8   8   8   8   8
#     4  10  20  40  66  86 114 156 222 268 322 380
#     4  11  22  36  60  93 133 177 208 238 314 380
#     4   9  22  37  65  90 118 166 210 255 321 382
#     4  11  24  41  58  91 137 170 206 252 305 385
#     4   9  21  42  62  88 119 162 212 273 330 362
#     4  11  21  35  61  97 127 165 211 260 310 383
#     4  10  19  33  58  94 138 162 193 251 313 378
#
# _framework density 22.321814
#
# number of rings (size 3 to 8) (size 9 to 14) (size 15 to 20)
#    0.000    1.846    3.077    0.462    2.154    2.462 
#    1.385    3.077    0.000   16.615    0.000    0.000 
#    0.000    0.000    0.000    0.000    0.000    0.000 
#
# Total GULP energy -144819.950922 kJ/mol
# GULP energy per Si atom -5569.998112 kJ/mol
# Density = 2.227101 g / cm^3
# Si number density = 22.321814 Si / 1000 Ang^3
#
#
#
# Elastic Constant Matrix: (Units=GPa)
#
#
# Indices 1 2 3 4 5 6 
#
# 1 67.9298 20.7297 23.6036 0.0000 -17.4797 0.0000
# 2 20.7297 75.8656 26.0389 0.0000 -10.3758 0.0000
# 3 23.6036 26.0389 107.3650 0.0000 -31.4605 0.0000
# 4 0.0000 0.0000 0.0000 13.6581 0.0000 -8.6111
# 5 -17.4797 -10.3758 -31.4605 0.0000 31.9848 0.0000
# 6 0.0000 0.0000 0.0000 -8.6111 0.0000 29.4214
#
#
#
# Elastic Compliance Matrix: (Units=1/GPa)
#
#
# Indices 1 2 3 4 5 6 
#
# 1 0.018144 -0.003599 -0.000776 0.000000 0.007984 0.000000
# 2 -0.003599 0.015161 -0.002839 0.000000 0.000158 0.000000
# 3 -0.000776 -0.002839 0.013739 0.000000 0.012168 0.000000
# 4 0.000000 0.000000 0.000000 0.089784 0.000000 0.026278
# 5 0.007984 0.000158 0.012168 0.000000 0.047649 0.000000
# 6 0.000000 0.000000 0.000000 0.026278 0.000000 0.041680
#
#
# Mechanical properties :
#
#
# Convention : Reuss Voigt Hill
#
# Bulk Modulus (GPa) = 30.66157 43.54498 37.10328
# Shear Modulus (GPa) = 19.88408 27.06540 23.47474
#
# Velocity S-wave (km/s) = 2.98785 3.48589 3.24643
# Velocity P-wave (km/s) = 5.06646 5.97930 5.54171
#
# Compressibility (1/GPa) = 0.03261412
#
# Stress axis : x y z
#
# Youngs Moduli (GPa) = 55.11546 65.95947 72.78600
#
# Poissons Ratio (x) = 0.23740 0.05650
# Poissons Ratio (y) = 0.19837 0.20665
# Poissons Ratio (z) = 0.04278 0.18727
#
# Static dielectric constant tensor:
#      x y z
#    x 1.976170 0.000000 -0.127940 
#    y 0.000000 1.821820 0.000000 
#    z -0.127940 0.000000 2.000440 
# 
# From -- ./inp_files/148138.got.cif
#   From: 2010.05.17/outbox.cif.g08.bks.cpg/sg15_75_cif.got.tgz:148138.got - 2010.06.03 18:47:42.
