data_PCOD9262412
_publ_section_title
;
Structure prediction by ZEFSAII (Michael W. Deem and Ramdas Pophale) SiO2 
 PCOD9262412
Probable space group: C 2/C
;
_chemical_formula_sum "Si O2"
_cell_formula_units_Z 56
_cell_length_a 19.115771
_cell_length_b 10.739789
_cell_length_c 14.399865
_cell_angle_alpha 90.000000
_cell_angle_beta 113.967441
_cell_angle_gamma 90.000000
_cell_volume 2701.381657
_symmetry_space_group_name_H-M "C 2/C"
_symmetry_group_IT_number 15
_symmetry_cell_setting 'monoclinic'
loop_
_space_group_symop_operation_xyz
x,y,z
-x,y,1/2-z
-x,-y,-z
x,-y,1/2+z
1/2+x,1/2+y,z
1/2-x,1/2+y,1/2-z
1/2-x,1/2-y,-z
1/2+x,1/2-y,1/2+z
loop_
_atom_site_type_symbol
_atom_site_label
_atom_site_fract_x
_atom_site_fract_y
_atom_site_fract_z
Si Si1 0.960450 0.870097 0.571347
Si Si2 0.232794 0.244418 0.349176
Si Si3 0.847691 0.989174 0.140134
Si Si4 0.772792 0.179828 0.360711
Si Si5 0.390620 0.515134 0.857097
Si Si6 0.636243 0.145261 0.946854
Si Si7 0.314324 0.882743 0.516653
O O1 0.914438 0.975671 0.605114
O O2 0.937403 0.733769 0.595534
O O3 0.049051 0.902676 0.625251
O O4 0.930707 0.892745 0.450913
O O5 0.181742 0.122671 0.339781
O O6 0.242772 0.250329 0.244700
O O7 0.309761 0.215123 0.448024
O O8 0.185522 0.349605 0.377939
O O9 0.876062 0.924879 0.249143
O O10 0.772006 0.929287 0.056176
O O11 0.814841 0.049306 0.359240
O O12 0.697670 0.157421 0.383241
O O13 0.826858 0.267686 0.454140
O O14 0.630359 0.000059 0.967354
#
# Coordination Sequence:
#
# PCOD9262412 Si02
#       7
#     8   8   8   8   8   8   8
#     4  10  19  33  51  74 102 132 173 213 249 303
#     4   8  17  29  51  73  98 131 163 215 253 302
#     4   9  17  32  50  75 100 128 167 210 259 300
#     4  10  20  33  49  76 106 132 169 207 265 307
#     4  10  20  32  52  74 103 136 169 209 256 307
#     4   9  18  32  49  75 100 132 175 207 255 301
#     4  10  20  33  51  75 106 135 164 216 260 306
#
# _framework density 20.730132000000001
#
# number of rings (size 3 to 8) (size 9 to 14) (size 15 to 20)
#    0.000    2.571    1.429    1.286    2.000    2.286 
#    0.000    0.714    0.000    0.000    0.000    2.000 
#    0.000    0.000    0.000    0.000    0.000    0.000 
#
# Total GULP energy -156113.858539 kJ/mol
# GULP energy per Si atom -5575.494948 kJ/mol
# Density = 2.068295 g / cm^3
# Si number density = 20.730132 Si / 1000 Ang^3
#
#
#
# Elastic Constant Matrix: (Units=GPa)
#
#
# Indices 1 2 3 4 5 6 
#
# 1 48.5116 1.7141 16.6700 0.0000 -6.6889 0.0000
# 2 1.7141 62.3915 -4.0521 0.0000 -1.8457 0.0000
# 3 16.6700 -4.0521 104.3449 0.0000 -22.9038 0.0000
# 4 0.0000 0.0000 0.0000 19.7344 0.0000 0.3426
# 5 -6.6889 -1.8457 -22.9038 0.0000 19.7044 0.0000
# 6 0.0000 0.0000 0.0000 0.3426 0.0000 31.2509
#
#
#
# Elastic Compliance Matrix: (Units=1/GPa)
#
#
# Indices 1 2 3 4 5 6 
#
# 1 0.022138 -0.000644 -0.002585 0.000000 0.004450 0.000000
# 2 -0.000644 0.016220 0.001367 0.000000 0.002890 0.000000
# 3 -0.002585 0.001367 0.013271 0.000000 0.014677 0.000000
# 4 0.000000 0.000000 0.000000 0.050683 0.000000 -0.000556
# 5 0.004450 0.002890 0.014677 0.000000 0.069591 0.000000
# 6 0.000000 0.000000 0.000000 -0.000556 0.000000 0.032005
#
#
# Mechanical properties :
#
#
# Convention : Reuss Voigt Hill
#
# Bulk Modulus (GPa) = 20.87482 27.10131 23.98807
# Shear Modulus (GPa) = 22.36127 27.53235 24.94681
#
# Velocity S-wave (km/s) = 3.28790 3.64831 3.47278
# Velocity P-wave (km/s) = 4.95029 5.55416 5.26089
#
# Compressibility (1/GPa) = 0.04790460
#
# Stress axis : x y z
#
# Youngs Moduli (GPa) = 45.17064 61.65304 75.35114
#
# Poissons Ratio (x) = 0.03973 0.19478
# Poissons Ratio (y) = 0.02911 -0.10301
# Poissons Ratio (z) = 0.11677 -0.08429
#
# Static dielectric constant tensor:
#      x y z
#    x 1.727380 0.000000 -0.034820 
#    y 0.000000 1.789680 0.000000 
#    z -0.034820 0.000000 1.827800 
# 
# From -- ./inp_files/167319.got.cif
#   From: 2010.05.17/outbox.cif.g08.bks.cpg/sg15_84_cif.got.tgz:167319.got - 2010.06.03 18:47:42.
