data_PCOD9262402
_publ_section_title
;
Structure prediction by ZEFSAII (Michael W. Deem and Ramdas Pophale) SiO2 
 PCOD9262402
Probable space group: C 2/C
;
_chemical_formula_sum "Si O2"
_cell_formula_units_Z 32
_cell_length_a 6.835736
_cell_length_b 13.531041
_cell_length_c 28.020028
_cell_angle_alpha 90.000000
_cell_angle_beta 26.724380
_cell_angle_gamma 90.000000
_cell_volume 1165.486031
_symmetry_space_group_name_H-M "C 2/C"
_symmetry_group_IT_number 15
_symmetry_cell_setting 'monoclinic'
loop_
_space_group_symop_operation_xyz
x,y,z
-x,y,1/2-z
-x,-y,-z
x,-y,1/2+z
1/2+x,1/2+y,z
1/2-x,1/2+y,1/2-z
1/2-x,1/2-y,-z
1/2+x,1/2-y,1/2+z
loop_
_atom_site_type_symbol
_atom_site_label
_atom_site_fract_x
_atom_site_fract_y
_atom_site_fract_z
Si Si1 0.359225 0.853065 0.874781
Si Si2 0.024474 0.350834 0.943389
Si Si3 0.550229 0.798667 0.380375
Si Si4 0.348644 0.937245 0.336242
O O1 0.616898 0.871358 0.868239
O O2 0.400274 0.744344 0.842123
O O3 0.448176 0.949061 0.824689
O O4 0.849923 0.847643 0.003491
O O5 0.422113 0.309884 0.886789
O O6 0.750000 0.250000 0.000000
O O7 0.674893 0.423575 0.043029
O O8 0.570441 0.871493 0.330187
O O9 0.500000 0.913536 0.250000
#
# Coordination Sequence:
#
# PCOD9262402 Si02
#       4
#     8   8   8   8
#     4   9  17  33  56  76  96 140 181 211 259 314
#     4   8  16  33  56  74  97 141 178 213 252 309
#     4   9  18  35  57  75  98 142 184 213 251 316
#     4  10  19  33  50  81 114 132 168 227 270 309
#
# _framework density 27.456358000000002
#
# number of rings (size 3 to 8) (size 9 to 14) (size 15 to 20)
#    0.000    3.500    0.000    3.000    0.000    1.000 
#   13.500    5.000    0.000   16.500    0.000    0.000 
#    0.000    0.000    0.000    0.000    0.000    0.000 
#
# Total GULP energy -89287.400631 kJ/mol
# GULP energy per Si atom -5580.462539 kJ/mol
# Density = 2.739387 g / cm^3
# Si number density = 27.456358 Si / 1000 Ang^3
#
#
#
# Elastic Constant Matrix: (Units=GPa)
#
#
# Indices 1 2 3 4 5 6 
#
# 1 100.8787 68.9832 58.8746 -0.0896 34.5879 0.0714
# 2 68.9832 134.9377 64.2681 -0.0891 22.4666 0.0921
# 3 58.8746 64.2681 165.0603 0.1864 41.1487 -0.1269
# 4 -0.0896 -0.0891 0.1864 44.9604 -0.0387 21.0825
# 5 34.5879 22.4666 41.1487 -0.0387 45.8943 0.0513
# 6 0.0714 0.0921 -0.1269 21.0825 0.0513 37.2443
#
#
#
# Elastic Compliance Matrix: (Units=1/GPa)
#
#
# Indices 1 2 3 4 5 6 
#
# 1 0.019166 -0.007483 -0.001591 0.000037 -0.009355 -0.000032
# 2 -0.007483 0.012117 -0.002545 0.000046 0.001990 -0.000053
# 3 -0.001591 -0.002545 0.009025 -0.000099 -0.005647 0.000104
# 4 0.000037 0.000046 -0.000099 0.030280 0.000083 -0.017141
# 5 -0.009355 0.001990 -0.005647 0.000083 0.032929 -0.000099
# 6 -0.000032 -0.000053 0.000104 -0.017141 -0.000099 0.036553
#
#
# Mechanical properties :
#
#
# Convention : Reuss Voigt Hill
#
# Bulk Modulus (GPa) = 58.57998 87.23648 72.90823
# Shear Modulus (GPa) = 29.58646 39.53652 34.56149
#
# Velocity S-wave (km/s) = 3.28621 3.79882 3.55178
# Velocity P-wave (km/s) = 5.98172 7.14725 6.59030
#
# Compressibility (1/GPa) = 0.01707068
#
# Stress axis : x y z
#
# Youngs Moduli (GPa) = 52.17698 82.52778 110.80766
#
# Poissons Ratio (x) = 0.61753 0.17624
# Poissons Ratio (y) = 0.39043 0.28201
# Poissons Ratio (z) = 0.08299 0.21004
#
# Static dielectric constant tensor:
#      x y z
#    x 2.626060 0.000160 -0.012230 
#    y 0.000160 2.034520 -0.000190 
#    z -0.012230 -0.000190 2.296020 
# 
# From -- ./inp_files/288189.got.cif
#   From: 2010.05.17/outbox.cif.g08.bks.cpg/sg15_145_cif.got.tgz:288189.got - 2010.06.03 18:47:42.
