data_PCOD9262069
_publ_section_title
;
Structure prediction by ZEFSAII (Michael W. Deem and Ramdas Pophale) SiO2 
 PCOD9262069
Probable space group: C 2/C
;
_chemical_formula_sum "Si O2"
_cell_formula_units_Z 32
_cell_length_a 12.200491
_cell_length_b 21.320120
_cell_length_c 11.733232
_cell_angle_alpha 90.000000
_cell_angle_beta 147.271450
_cell_angle_gamma 90.000000
_cell_volume 1650.093324
_symmetry_space_group_name_H-M "C 2/C"
_symmetry_group_IT_number 15
_symmetry_cell_setting 'monoclinic'
loop_
_space_group_symop_operation_xyz
x,y,z
-x,y,1/2-z
-x,-y,-z
x,-y,1/2+z
1/2+x,1/2+y,z
1/2-x,1/2+y,1/2-z
1/2-x,1/2-y,-z
1/2+x,1/2-y,1/2+z
loop_
_atom_site_type_symbol
_atom_site_label
_atom_site_fract_x
_atom_site_fract_y
_atom_site_fract_z
Si Si1 0.832935 0.495966 0.194920
Si Si2 0.000000 0.195933 0.750000
Si Si3 0.864710 0.596846 0.418379
Si Si4 0.583441 0.181493 0.443682
Si Si5 0.500000 0.434063 0.750000
O O1 0.801822 0.547646 0.264553
O O2 0.000000 0.518996 0.250000
O O3 0.947849 0.436305 0.352107
O O4 0.630046 0.476036 0.952074
O O5 0.816074 0.159749 0.646001
O O6 0.919063 0.243039 0.579283
O O7 0.672631 0.604174 0.332919
O O8 0.950500 0.657833 0.430531
O O9 0.500000 0.158087 0.250000
#
# Coordination Sequence:
#
# PCOD9262069 Si02
#       5
#     8   4   8   8   4
#     4   9  19  34  49  75 108 136 177 218 246 307
#     4   8  18  34  53  80 108 124 165 232 264 300
#     4  10  19  32  53  76 105 142 174 208 258 312
#     4   9  17  33  54  79 105 130 164 218 271 304
#     4  10  20  34  49  72 112 144 171 210 248 302
#
# _framework density 19.392842000000002
#
# number of rings (size 3 to 8) (size 9 to 14) (size 15 to 20)
#    0.750    2.000    0.000    1.500    0.000    2.000 
#    0.000   12.500    0.000    1.500    0.000    0.000 
#    0.000    0.000    0.000    0.000    0.000    0.000 
#
# Total GULP energy -89078.711451 kJ/mol
# GULP energy per Si atom -5567.419466 kJ/mol
# Density = 1.934870 g / cm^3
# Si number density = 19.392842 Si / 1000 Ang^3
#
#
#
# Elastic Constant Matrix: (Units=GPa)
#
#
# Indices 1 2 3 4 5 6 
#
# 1 126.9046 26.2520 35.1161 0.0000 21.5882 0.0000
# 2 26.2520 25.6268 8.9537 0.0000 6.0999 0.0000
# 3 35.1161 8.9537 110.9089 0.0000 10.4988 0.0000
# 4 0.0000 0.0000 0.0000 -11.5785 0.0000 8.1543
# 5 21.5882 6.0999 10.4988 0.0000 35.7199 0.0000
# 6 0.0000 0.0000 0.0000 8.1543 0.0000 19.7538
#
#
#
# Elastic Compliance Matrix: (Units=1/GPa)
#
#
# Indices 1 2 3 4 5 6 
#
# 1 0.011301 -0.009682 -0.002373 0.000000 -0.004479 0.000000
# 2 -0.009682 0.049772 -0.000722 0.000000 -0.002436 0.000000
# 3 -0.002373 -0.000722 0.009955 0.000000 -0.001369 0.000000
# 4 0.000000 0.000000 0.000000 -0.066914 0.000000 0.027622
# 5 -0.004479 -0.002436 -0.001369 0.000000 0.031521 0.000000
# 6 0.000000 0.000000 0.000000 0.027622 0.000000 0.039221
#
#
# Mechanical properties :
#
#
# Convention : Reuss Voigt Hill
#
# Bulk Modulus (GPa) = 21.98979 44.89819 33.44399
# Shear Modulus (GPa) = 43.26468 21.65363 32.45915
#
# Velocity S-wave (km/s) = 4.72843 3.34515 4.09561
# Velocity P-wave (km/s) = 6.41673 6.17432 6.29669
#
# Compressibility (1/GPa) = 0.04547566
#
# Stress axis : x y z
#
# Youngs Moduli (GPa) = 88.48544 20.09175 100.44711
#
# Poissons Ratio (x) = 0.19452 0.23832
# Poissons Ratio (y) = 0.85670 0.07253
# Poissons Ratio (z) = 0.20994 0.01451
#
# Static dielectric constant tensor:
#      x y z
#    x 1.696600 0.000000 0.042670 
#    y 0.000000 1.719040 0.000000 
#    z 0.042670 0.000000 1.963540 
# 
# From -- ./inp_files/91919.got.cif
#   From: 2010.05.17/outbox.cif.g08.bks.cpg/sg15_46_cif.got.tgz:91919.got - 2010.06.03 18:47:42.
