data_PCOD9262107
_publ_section_title
;
Structure prediction by ZEFSAII (Michael W. Deem and Ramdas Pophale) SiO2 
 PCOD9262107
Probable space group: C 2/C
;
_chemical_formula_sum "Si O2"
_cell_formula_units_Z 52
_cell_length_a 19.008707
_cell_length_b 15.862838
_cell_length_c 9.592427
_cell_angle_alpha 90.000000
_cell_angle_beta 116.731922
_cell_angle_gamma 90.000000
_cell_volume 2583.284438
_symmetry_space_group_name_H-M "C 2/C"
_symmetry_group_IT_number 15
_symmetry_cell_setting 'monoclinic'
loop_
_space_group_symop_operation_xyz
x,y,z
-x,y,1/2-z
-x,-y,-z
x,-y,1/2+z
1/2+x,1/2+y,z
1/2-x,1/2+y,1/2-z
1/2-x,1/2-y,-z
1/2+x,1/2-y,1/2+z
loop_
_atom_site_type_symbol
_atom_site_label
_atom_site_fract_x
_atom_site_fract_y
_atom_site_fract_z
Si Si1 0.604761 0.033150 0.957024
Si Si2 0.566674 0.905295 0.135166
Si Si3 0.722874 0.586889 0.322962
Si Si4 0.111368 0.222776 0.283868
Si Si5 0.500000 0.364864 0.250000
Si Si6 0.041692 0.160024 0.491075
Si Si7 0.869910 0.992063 0.013158
O O1 0.527507 0.084613 0.938623
O O2 0.600313 0.033953 0.786394
O O3 0.684844 0.074544 0.079134
O O4 0.596208 0.940735 0.015595
O O5 0.594889 0.813256 0.203923
O O6 0.694643 0.682725 0.321418
O O7 0.679959 0.534587 0.407898
O O8 0.688366 0.551114 0.148577
O O9 0.092404 0.218460 0.431631
O O10 0.045424 0.161615 0.154774
O O11 0.467567 0.315224 0.355927
O O12 0.430887 0.424604 0.129405
O O13 0.080090 0.067435 0.514318
#
# Coordination Sequence:
#
# PCOD9262107 Si02
#       7
#     8   8   8   8   4   8   8
#     4  10  21  40  67  88 112 160 207 255 294 361
#     4  10  22  44  67  87 115 154 214 251 299 367
#     4  11  21  35  60  90 127 158 201 253 305 355
#     4  10  21  38  60  90 124 158 200 251 306 365
#     4  12  18  30  50  80 126 170 204 236 284 380
#     4  10  19  32  53  85 124 170 198 239 295 367
#     4  11  20  32  52  86 128 169 205 238 295 374
#
# _framework density 20.129414000000001
#
# number of rings (size 3 to 8) (size 9 to 14) (size 15 to 20)
#    0.000    1.538    3.077    5.077    0.000    0.615 
#    0.000    6.154    0.000    1.846    0.000    0.000 
#    0.000    0.000    0.000    0.000    0.000    0.000 
#
# Total GULP energy -145253.065351 kJ/mol
# GULP energy per Si atom -5586.656360 kJ/mol
# Density = 2.008360 g / cm^3
# Si number density = 20.129414 Si / 1000 Ang^3
#
#
#
# Elastic Constant Matrix: (Units=GPa)
#
#
# Indices 1 2 3 4 5 6 
#
# 1 69.4993 33.3245 51.5804 0.0000 16.2895 0.0000
# 2 33.3245 79.7704 34.4063 0.0000 -0.2105 0.0000
# 3 51.5804 34.4063 130.8723 0.0000 0.6614 0.0000
# 4 0.0000 0.0000 0.0000 18.6066 0.0000 -1.8946
# 5 16.2895 -0.2105 0.6614 0.0000 30.3015 0.0000
# 6 0.0000 0.0000 0.0000 -1.8946 0.0000 16.2305
#
#
#
# Elastic Compliance Matrix: (Units=1/GPa)
#
#
# Indices 1 2 3 4 5 6 
#
# 1 0.028529 -0.008055 -0.009049 0.000000 -0.015195 0.000000
# 2 -0.008055 0.016415 -0.001163 0.000000 0.004470 0.000000
# 3 -0.009049 -0.001163 0.011490 0.000000 0.004606 0.000000
# 4 0.000000 0.000000 0.000000 0.054391 0.000000 0.006349
# 5 -0.015195 0.004470 0.004606 0.000000 0.041101 0.000000
# 6 0.000000 0.000000 0.000000 0.006349 0.000000 0.062354
#
#
# Mechanical properties :
#
#
# Convention : Reuss Voigt Hill
#
# Bulk Modulus (GPa) = 50.25633 57.64049 53.94841
# Shear Modulus (GPa) = 19.42152 23.74978 21.58565
#
# Velocity S-wave (km/s) = 3.10955 3.43863 3.27822
# Velocity P-wave (km/s) = 6.15737 6.66803 6.41778
#
# Compressibility (1/GPa) = 0.01989799
#
# Stress axis : x y z
#
# Youngs Moduli (GPa) = 35.05249 60.92169 87.03037
#
# Poissons Ratio (x) = 0.49072 0.78758
# Poissons Ratio (y) = 0.28234 0.10124
# Poissons Ratio (z) = 0.31721 0.07087
#
# Static dielectric constant tensor:
#      x y z
#    x 1.724340 0.000000 -0.018350 
#    y 0.000000 1.724150 0.000000 
#    z -0.018350 0.000000 1.717910 
# 
# From -- ./inp_files/49222.got.cif
#   From: 2010.05.17/outbox.cif.g08.bks.cpg/sg15_25_cif.got.tgz:49222.got - 2010.06.03 18:47:42.
