data_PCOD9262926
_publ_section_title
;
Structure prediction by ZEFSAII (Michael W. Deem and Ramdas Pophale) SiO2 
 PCOD9262926
Probable space group: C 2/C
;
_chemical_formula_sum "Si O2"
_cell_formula_units_Z 48
_cell_length_a 18.071097
_cell_length_b 5.906233
_cell_length_c 25.829813
_cell_angle_alpha 90.000000
_cell_angle_beta 132.608299
_cell_angle_gamma 90.000000
_cell_volume 2029.053981
_symmetry_space_group_name_H-M "C 2/C"
_symmetry_group_IT_number 15
_symmetry_cell_setting 'monoclinic'
loop_
_space_group_symop_operation_xyz
x,y,z
-x,y,1/2-z
-x,-y,-z
x,-y,1/2+z
1/2+x,1/2+y,z
1/2-x,1/2+y,1/2-z
1/2-x,1/2-y,-z
1/2+x,1/2-y,1/2+z
loop_
_atom_site_type_symbol
_atom_site_label
_atom_site_fract_x
_atom_site_fract_y
_atom_site_fract_z
Si Si1 0.345259 0.884924 0.122153
Si Si2 0.000578 0.013183 0.155301
Si Si3 0.400530 0.874898 0.549219
Si Si4 0.000000 0.309805 0.750000
Si Si5 0.902212 0.309401 0.369354
Si Si6 0.335887 0.106916 0.418627
Si Si7 0.500000 0.500000 0.000000
O O1 0.418791 0.681883 0.140319
O O2 0.249114 0.775385 0.102006
O O3 0.331182 0.035826 0.063523
O O4 0.405361 0.038729 0.190526
O O5 0.942546 0.876159 0.081269
O O6 0.025052 0.836491 0.211471
O O7 0.096776 0.153658 0.181219
O O8 0.499005 0.035578 0.595237
O O9 0.346812 0.918892 0.469582
O O10 0.823355 0.480552 0.357821
O O11 0.923332 0.125073 0.423477
O O12 0.436338 0.257488 0.465047
#
# Coordination Sequence:
#
# PCOD9262926 Si02
#       7
#     8   8   8   4   8   8   4
#     4  10  22  37  61  96 120 165 221 277 314 383
#     4  10  20  38  62  90 117 166 208 280 321 383
#     4   9  19  35  56  92 133 163 205 245 326 393
#     4  10  22  42  62  90 112 166 228 284 338 372
#     4  10  19  33  57  92 126 165 202 243 320 391
#     4  11  21  35  59  99 133 168 206 256 325 408
#     4  10  20  36  56  90 134 178 186 238 308 404
#
# _framework density 23.656343
#
# number of rings (size 3 to 8) (size 9 to 14) (size 15 to 20)
#    0.000    2.000    0.000    5.000    0.000    3.333 
#    0.000    0.000    0.000    3.000  251.333    0.000 
#    0.000    0.000    0.000    0.000    0.000    0.000 
#
# Total GULP energy -133621.017442 kJ/mol
# GULP energy per Si atom -5567.542393 kJ/mol
# Density = 2.360250 g / cm^3
# Si number density = 23.656343 Si / 1000 Ang^3
#
#
#
# Elastic Constant Matrix: (Units=GPa)
#
#
# Indices 1 2 3 4 5 6 
#
# 1 120.3010 53.8537 35.3506 0.0001 -16.3947 0.0000
# 2 53.8537 112.5068 28.8954 0.0012 -14.5562 -0.0012
# 3 35.3506 28.8954 46.0055 -0.0002 -2.7744 0.0001
# 4 0.0001 0.0012 -0.0002 59.3774 0.0001 -37.8671
# 5 -16.3947 -14.5562 -2.7744 0.0001 -4.7325 -0.0001
# 6 0.0000 -0.0012 0.0001 -37.8671 -0.0001 63.2636
#
#
#
# Elastic Compliance Matrix: (Units=1/GPa)
#
#
# Indices 1 2 3 4 5 6 
#
# 1 0.010259 -0.005532 -0.005337 0.000000 -0.015396 0.000000
# 2 -0.005532 0.010804 -0.003268 0.000000 -0.012150 0.000000
# 3 -0.005337 -0.003268 0.028600 0.000000 0.011772 0.000000
# 4 0.000000 0.000000 0.000000 0.027239 0.000001 0.016304
# 5 -0.015396 -0.012150 0.011772 0.000001 -0.127499 0.000000
# 6 0.000000 0.000000 0.000000 0.016304 0.000000 0.025566
#
#
# Mechanical properties :
#
#
# Convention : Reuss Voigt Hill
#
# Bulk Modulus (GPa) = 46.75214 57.22363 51.98789
# Shear Modulus (GPa) = 482.11324 34.29593 258.20458
#
# Velocity S-wave (km/s) = 14.29130 3.81170 10.45873
# Velocity P-wave (km/s) = 17.09174 6.60410 12.95650
#
# Compressibility (1/GPa) = 0.02138939
#
# Stress axis : x y z
#
# Youngs Moduli (GPa) = 97.47557 92.56179 34.96539
#
# Poissons Ratio (x) = 0.51204 0.18661
# Poissons Ratio (y) = 0.53923 0.11425
# Poissons Ratio (z) = 0.52022 0.30245
#
# Static dielectric constant tensor:
#      x y z
#    x 2.074990 0.000000 -0.187390 
#    y 0.000000 1.920510 0.000000 
#    z -0.187390 0.000000 2.084240 
# 
# From -- ./inp_files/275690.got.cif
#   From: 2010.05.17/outbox.cif.g08.bks.cpg/sg15_138_cif.got.tgz:275690.got - 2010.06.03 18:47:42.
