data_PCOD9262403
_publ_section_title
;
Structure prediction by ZEFSAII (Michael W. Deem and Ramdas Pophale) SiO2 
 PCOD9262403
Probable space group: C 2/C
;
_chemical_formula_sum "Si O2"
_cell_formula_units_Z 56
_cell_length_a 26.112714
_cell_length_b 16.842634
_cell_length_c 8.363188
_cell_angle_alpha 90.000000
_cell_angle_beta 122.924927
_cell_angle_gamma 90.000000
_cell_volume 3087.409931
_symmetry_space_group_name_H-M "C 2/C"
_symmetry_group_IT_number 15
_symmetry_cell_setting 'monoclinic'
loop_
_space_group_symop_operation_xyz
x,y,z
-x,y,1/2-z
-x,-y,-z
x,-y,1/2+z
1/2+x,1/2+y,z
1/2-x,1/2+y,1/2-z
1/2-x,1/2-y,-z
1/2+x,1/2-y,1/2+z
loop_
_atom_site_type_symbol
_atom_site_label
_atom_site_fract_x
_atom_site_fract_y
_atom_site_fract_z
Si Si1 0.260356 0.113574 0.054161
Si Si2 0.906765 0.976594 0.069685
Si Si3 0.074664 0.123770 0.217502
Si Si4 0.767157 0.024560 0.816950
Si Si5 0.666209 0.737703 0.811268
Si Si6 0.463785 0.671111 0.846410
Si Si7 0.795670 0.808713 0.485438
O O1 0.315010 0.173624 0.110612
O O2 0.274736 0.050678 0.216242
O O3 0.241991 0.057946 0.875022
O O4 0.203973 0.174715 0.983702
O O5 0.937421 0.915655 0.247222
O O6 0.929295 0.066261 0.136111
O O7 0.919048 0.937911 0.919659
O O8 0.834327 0.988082 0.959264
O O9 0.136622 0.175410 0.327542
O O10 0.013564 0.169701 0.070627
O O11 0.764795 0.104008 0.920187
O O12 0.595443 0.720500 0.708213
O O13 0.690301 0.721227 0.671651
O O14 0.500000 0.700174 0.750000
O O15 0.750000 0.750000 0.500000
#
# Coordination Sequence:
#
# PCOD9262403 Si02
#       7
#     8   8   8   8   8   8   8
#     4  10  21  35  58  82 114 150 191 240 286 342
#     4  10  19  33  50  82 116 153 188 227 266 344
#     4  10  22  34  54  79 116 154 193 227 280 338
#     4  10  19  33  56  83 115 152 186 232 289 342
#     4  10  22  38  55  81 117 155 193 233 287 334
#     4  10  21  36  54  78 113 157 191 229 276 339
#     4  10  23  37  55  85 117 151 188 240 285 339
#
# _framework density 18.138180999999999
#
# number of rings (size 3 to 8) (size 9 to 14) (size 15 to 20)
#    0.000    2.000    1.429    2.143    8.000    4.000 
#    0.000    0.000    0.000    0.000    0.000    4.000 
#    0.000    0.000    0.000    0.000    0.000    0.000 
#
# Total GULP energy -156223.459155 kJ/mol
# GULP energy per Si atom -5579.409256 kJ/mol
# Density = 1.809690 g / cm^3
# Si number density = 18.138181 Si / 1000 Ang^3
#
#
#
# Elastic Constant Matrix: (Units=GPa)
#
#
# Indices 1 2 3 4 5 6 
#
# 1 87.5478 47.8498 26.6643 0.0000 16.6088 0.0000
# 2 47.8498 89.4155 25.7408 0.0000 8.3515 0.0000
# 3 26.6643 25.7408 73.4800 0.0000 13.4196 0.0000
# 4 0.0000 0.0000 0.0000 12.6649 0.0000 6.8914
# 5 16.6088 8.3515 13.4196 0.0000 25.6496 0.0000
# 6 0.0000 0.0000 0.0000 6.8914 0.0000 35.9887
#
#
#
# Elastic Compliance Matrix: (Units=1/GPa)
#
#
# Indices 1 2 3 4 5 6 
#
# 1 0.018151 -0.008336 -0.002228 0.000000 -0.007873 0.000000
# 2 -0.008336 0.016356 -0.003005 0.000000 0.001645 0.000000
# 3 -0.002228 -0.003005 0.016616 0.000000 -0.006272 0.000000
# 4 0.000000 0.000000 0.000000 0.088142 0.000000 -0.016878
# 5 -0.007873 0.001645 -0.006272 0.000000 0.046831 0.000000
# 6 0.000000 0.000000 0.000000 -0.016878 0.000000 0.031019
#
#
# Mechanical properties :
#
#
# Convention : Reuss Voigt Hill
#
# Bulk Modulus (GPa) = 41.69541 50.10589 45.90065
# Shear Modulus (GPa) = 19.82166 24.87320 22.34743
#
# Velocity S-wave (km/s) = 3.30936 3.70715 3.51389
# Velocity P-wave (km/s) = 6.13515 6.78295 6.46717
#
# Compressibility (1/GPa) = 0.02398346
#
# Stress axis : x y z
#
# Youngs Moduli (GPa) = 55.09340 61.13824 60.18331
#
# Poissons Ratio (x) = 0.50968 0.13411
# Poissons Ratio (y) = 0.45928 0.18085
# Poissons Ratio (z) = 0.12277 0.18372
#
# Static dielectric constant tensor:
#      x y z
#    x 1.684460 0.000000 -0.039150 
#    y 0.000000 1.637020 0.000000 
#    z -0.039150 0.000000 1.697260 
# 
# From -- ./inp_files/56101.got.cif
#   From: 2010.05.17/outbox.cif.g08.bks.cpg/sg15_29_cif.got.tgz:56101.got - 2010.06.03 18:47:42.
