data_PCOD9262675
_publ_section_title
;
Structure prediction by ZEFSAII (Michael W. Deem and Ramdas Pophale) SiO2 
 PCOD9262675
Probable space group: C 2/C
;
_chemical_formula_sum "Si O2"
_cell_formula_units_Z 48
_cell_length_a 13.938609
_cell_length_b 5.757504
_cell_length_c 23.284763
_cell_angle_alpha 90.000000
_cell_angle_beta 86.328131
_cell_angle_gamma 90.000000
_cell_volume 1864.803442
_symmetry_space_group_name_H-M "C 2/C"
_symmetry_group_IT_number 15
_symmetry_cell_setting 'monoclinic'
loop_
_space_group_symop_operation_xyz
x,y,z
-x,y,1/2-z
-x,-y,-z
x,-y,1/2+z
1/2+x,1/2+y,z
1/2-x,1/2+y,1/2-z
1/2-x,1/2-y,-z
1/2+x,1/2-y,1/2+z
loop_
_atom_site_type_symbol
_atom_site_label
_atom_site_fract_x
_atom_site_fract_y
_atom_site_fract_z
Si Si1 0.333370 0.414636 0.823407
Si Si2 0.469071 0.069841 0.185027
Si Si3 0.812710 0.576514 0.341802
Si Si4 0.452514 0.430939 0.657440
Si Si5 0.727769 0.554272 0.045521
Si Si6 0.147723 0.828720 0.942214
O O1 0.298698 0.674735 0.811022
O O2 0.447543 0.426600 0.812392
O O3 0.320871 0.393857 0.892890
O O4 0.298903 0.159568 0.805844
O O5 0.500000 0.074088 0.250000
O O6 0.572603 0.072680 0.147030
O O7 0.414904 0.310525 0.173096
O O8 0.414592 0.827442 0.175170
O O9 0.738118 0.581760 0.398329
O O10 0.444755 0.413402 0.588489
O O11 0.830637 0.443840 0.058302
O O12 0.750000 0.750000 0.000000
O O13 0.661048 0.392587 0.007989
#
# Coordination Sequence:
#
# PCOD9262675 Si02
#       6
#     8   8   8   8   8   8
#     4   9  18  34  51  77 107 147 179 213 265 312
#     4  10  21  40  60  79 105 142 178 222 283 338
#     4   9  18  34  55  75 107 143 174 215 276 326
#     4  10  22  36  58  83 110 136 181 232 268 315
#     4  10  19  33  55  75 114 153 185 209 258 326
#     4  10  21  34  53  83 110 146 183 224 262 307
#
# _framework density 25.739978000000001
#
# number of rings (size 3 to 8) (size 9 to 14) (size 15 to 20)
#    0.000    2.333    1.667    0.500    2.333    0.667 
#    0.000    2.500    0.000    0.000    0.000    0.000 
#    0.000    0.000    0.000    0.000    0.000    0.000 
#
# Total GULP energy -133615.738147 kJ/mol
# GULP energy per Si atom -5567.322423 kJ/mol
# Density = 2.568139 g / cm^3
# Si number density = 25.739978 Si / 1000 Ang^3
#
#
#
# Elastic Constant Matrix: (Units=GPa)
#
#
# Indices 1 2 3 4 5 6 
#
# 1 94.3199 8.7484 -1.1965 0.0000 -3.8391 0.0000
# 2 8.7484 253.3064 22.4883 0.0000 11.1529 0.0000
# 3 -1.1965 22.4883 106.4198 0.0000 10.6441 0.0000
# 4 0.0000 0.0000 0.0000 -2.0392 0.0000 -7.0402
# 5 -3.8391 11.1529 10.6441 0.0000 34.2988 0.0000
# 6 0.0000 0.0000 0.0000 -7.0402 0.0000 -5.9614
#
#
#
# Elastic Compliance Matrix: (Units=1/GPa)
#
#
# Indices 1 2 3 4 5 6 
#
# 1 0.010697 -0.000434 0.000081 0.000000 0.001314 0.000000
# 2 -0.000434 0.004080 -0.000753 0.000000 -0.001142 0.000000
# 3 0.000081 -0.000753 0.009837 0.000000 -0.002799 0.000000
# 4 0.000000 0.000000 0.000000 0.159362 0.000000 -0.188200
# 5 0.001314 -0.001142 -0.002799 0.000000 0.030542 0.000000
# 6 0.000000 0.000000 0.000000 -0.188200 0.000000 0.054512
#
#
# Mechanical properties :
#
#
# Convention : Reuss Voigt Hill
#
# Bulk Modulus (GPa) = 44.64208 57.12517 50.88363
# Shear Modulus (GPa) = 17.93977 33.52668 25.73323
#
# Velocity S-wave (km/s) = 2.64287 3.61295 3.16529
# Velocity P-wave (km/s) = 5.16664 6.29650 5.75934
#
# Compressibility (1/GPa) = 0.02240039
#
# Stress axis : x y z
#
# Youngs Moduli (GPa) = 93.48412 245.10433 101.66028
#
# Poissons Ratio (x) = 0.10648 -0.00820
# Poissons Ratio (y) = 0.04061 0.07653
# Poissons Ratio (z) = -0.00754 0.18453
#
# Static dielectric constant tensor:
#      x y z
#    x 2.066990 0.000000 -0.017760 
#    y 0.000000 2.241430 0.000000 
#    z -0.017760 0.000000 2.025620 
# 
# From -- ./inp_files/275674.got.cif
#   From: 2010.05.17/outbox.cif.g08.bks.cpg/sg15_138_cif.got.tgz:275674.got - 2010.06.03 18:47:42.
