data_PCOD9262921
_publ_section_title
;
Structure prediction by ZEFSAII (Michael W. Deem and Ramdas Pophale) SiO2 
 PCOD9262921
Probable space group: C 2/C
;
_chemical_formula_sum "Si O2"
_cell_formula_units_Z 64
_cell_length_a 6.917164
_cell_length_b 25.792579
_cell_length_c 30.935165
_cell_angle_alpha 90.000000
_cell_angle_beta 144.942318
_cell_angle_gamma 90.000000
_cell_volume 3170.226774
_symmetry_space_group_name_H-M "C 2/C"
_symmetry_group_IT_number 15
_symmetry_cell_setting 'monoclinic'
loop_
_space_group_symop_operation_xyz
x,y,z
-x,y,1/2-z
-x,-y,-z
x,-y,1/2+z
1/2+x,1/2+y,z
1/2-x,1/2+y,1/2-z
1/2-x,1/2-y,-z
1/2+x,1/2-y,1/2+z
loop_
_atom_site_type_symbol
_atom_site_label
_atom_site_fract_x
_atom_site_fract_y
_atom_site_fract_z
Si Si1 0.821958 0.496136 0.919716
Si Si2 0.373944 0.330946 0.545607
Si Si3 0.748187 0.416173 0.664437
Si Si4 0.771662 0.388724 0.397600
Si Si5 0.723757 0.692991 0.669279
Si Si6 0.594100 0.116539 0.673054
Si Si7 0.109817 0.756968 0.521905
Si Si8 0.098855 0.501498 0.166518
O O1 0.571569 0.448182 0.876623
O O2 0.661553 0.553101 0.886168
O O3 0.984302 0.493302 0.900487
O O4 0.000000 0.500000 0.000000
O O5 0.632961 0.362729 0.621599
O O6 0.531779 0.312442 0.528810
O O7 0.039511 0.366720 0.480796
O O8 0.231368 0.277032 0.538393
O O9 0.000000 0.407967 0.750000
O O10 0.910561 0.453930 0.658263
O O11 0.441934 0.354279 0.334966
O O12 0.971628 0.382726 0.389895
O O13 0.412741 0.730586 0.604053
O O14 0.000000 0.718919 0.750000
O O15 0.895436 0.662646 0.660501
O O16 0.000000 0.122174 0.750000
O O17 0.508794 0.056269 0.668255
O O18 0.250000 0.750000 0.500000
O O19 0.500000 0.506504 0.250000
#
# Coordination Sequence:
#
# PCOD9262921 Si02
#       8
#     8   8   8   8   8   8   8   8
#     4  11  22  39  61  95 135 173 219 264 303 378
#     4  10  23  44  64  90 119 163 211 264 327 382
#     4  12  24  42  66  93 133 179 215 263 320 387
#     4  10  20  37  60  87 129 159 204 254 306 378
#     4  11  21  36  61  93 116 154 204 259 323 376
#     4  10  19  33  57  90 128 161 199 251 311 368
#     4  10  23  46  68  86 121 156 206 274 331 386
#     4  10  22  38  59  92 134 180 217 256 310 382
#
# _framework density 20.187832
#
# number of rings (size 3 to 8) (size 9 to 14) (size 15 to 20)
#    0.000    1.500    3.750    1.500    0.000    2.500 
#    4.500    0.000    0.000    0.000    0.000    0.000 
#    0.000    0.000    0.000    0.000    0.000    0.000 
#
# Total GULP energy -178209.116927 kJ/mol
# GULP energy per Si atom -5569.034904 kJ/mol
# Density = 2.014188 g / cm^3
# Si number density = 20.187832 Si / 1000 Ang^3
#
#
#
# Elastic Constant Matrix: (Units=GPa)
#
#
# Indices 1 2 3 4 5 6 
#
# 1 66.9545 6.1913 -0.4383 0.0003 -0.5038 0.0003
# 2 6.1913 64.9315 17.8221 0.0001 6.1873 0.0001
# 3 -0.4383 17.8221 75.0850 -0.0001 -6.1519 0.0003
# 4 0.0003 0.0001 -0.0001 9.0532 0.0000 -2.5488
# 5 -0.5038 6.1873 -6.1519 0.0000 23.9652 0.0001
# 6 0.0003 0.0001 0.0003 -2.5488 0.0001 25.0601
#
#
#
# Elastic Compliance Matrix: (Units=1/GPa)
#
#
# Indices 1 2 3 4 5 6 
#
# 1 0.015101 -0.001679 0.000560 -0.000001 0.000895 0.000000
# 2 -0.001679 0.017366 -0.004599 0.000000 -0.005699 0.000000
# 3 0.000560 -0.004599 0.014823 0.000000 0.005004 0.000000
# 4 -0.000001 0.000000 0.000000 0.113714 0.000000 0.011565
# 5 0.000895 -0.005699 0.005004 0.000000 0.044502 0.000000
# 6 0.000000 0.000000 0.000000 0.011565 0.000000 0.041080
#
#
# Mechanical properties :
#
#
# Convention : Reuss Voigt Hill
#
# Bulk Modulus (GPa) = 27.89003 28.23566 28.06284
# Shear Modulus (GPa) = 18.52031 23.84209 21.18120
#
# Velocity S-wave (km/s) = 3.03215 3.44032 3.24266
# Velocity P-wave (km/s) = 5.10919 5.45874 5.28686
#
# Compressibility (1/GPa) = 0.03585511
#
# Stress axis : x y z
#
# Youngs Moduli (GPa) = 66.22010 57.58279 67.46234
#
# Poissons Ratio (x) = 0.09667 -0.03778
# Poissons Ratio (y) = 0.11117 0.31025
# Poissons Ratio (z) = -0.03708 0.26481
#
# Static dielectric constant tensor:
#      x y z
#    x 1.793010 0.000000 -0.063250 
#    y 0.000000 1.718800 0.000000 
#    z -0.063250 0.000000 1.823850 
# 
# From -- ./inp_files/306109.got.cif
#   From: 2010.05.17/outbox.cif.g08.bks.cpg/sg15_154_cif.got.tgz:306109.got - 2010.06.03 18:47:42.
