data_PCOD9262222
_publ_section_title
;
Structure prediction by ZEFSAII (Michael W. Deem and Ramdas Pophale) SiO2 
 PCOD9262222
Probable space group: C 2/C
;
_chemical_formula_sum "Si O2"
_cell_formula_units_Z 60
_cell_length_a 14.525592
_cell_length_b 18.695797
_cell_length_c 23.210690
_cell_angle_alpha 90.000000
_cell_angle_beta 149.416854
_cell_angle_gamma 90.000000
_cell_volume 3207.029144
_symmetry_space_group_name_H-M "C 2/C"
_symmetry_group_IT_number 15
_symmetry_cell_setting 'monoclinic'
loop_
_space_group_symop_operation_xyz
x,y,z
-x,y,1/2-z
-x,-y,-z
x,-y,1/2+z
1/2+x,1/2+y,z
1/2-x,1/2+y,1/2-z
1/2-x,1/2-y,-z
1/2+x,1/2-y,1/2+z
loop_
_atom_site_type_symbol
_atom_site_label
_atom_site_fract_x
_atom_site_fract_y
_atom_site_fract_z
Si Si1 0.618644 0.609951 0.570725
Si Si2 0.490334 0.091157 0.021017
Si Si3 0.920924 0.279601 0.645783
Si Si4 0.000000 0.557704 0.750000
Si Si5 0.981729 0.440592 0.648777
Si Si6 0.007660 0.252695 0.935685
Si Si7 0.679235 0.491794 0.308344
Si Si8 0.099456 0.970047 0.634389
O O1 0.834815 0.604224 0.683994
O O2 0.552837 0.684250 0.561394
O O3 0.559499 0.544873 0.580780
O O4 0.534435 0.589362 0.463361
O O5 0.447999 0.057175 0.061966
O O6 0.538827 0.173134 0.058939
O O7 0.670351 0.052209 0.094628
O O8 0.311690 0.077313 0.886312
O O9 0.047526 0.252852 0.661535
O O10 0.723345 0.245806 0.542924
O O11 0.000000 0.264682 0.750000
O O12 0.904231 0.365335 0.628473
O O13 0.077193 0.505885 0.842308
O O14 0.199208 0.442794 0.773358
O O15 0.500000 0.486161 0.250000
O O16 0.610568 0.511793 0.207611
#
# Coordination Sequence:
#
# PCOD9262222 Si02
#       8
#     8   8   8   4   8   8   8   8
#     4  10  21  36  54  84 118 152 194 241 284 349
#     4   9  21  39  55  84 120 144 190 249 293 350
#     4  10  19  32  56  82 113 154 189 233 298 354
#     4  10  20  32  58  84 110 160 204 248 276 326
#     4   9  17  33  55  84 111 146 192 246 291 329
#     4  10  22  35  53  85 122 152 185 240 298 353
#     4  10  21  38  62  84 105 153 196 241 295 351
#     4   9  20  35  57  83 110 148 195 242 287 334
#
# _framework density 18.708905000000001
#
# number of rings (size 3 to 8) (size 9 to 14) (size 15 to 20)
#    0.000    2.400    0.667    0.800    5.600    3.733 
#    1.200    0.000    0.000    0.800    0.000    0.000 
#    0.000    0.000    0.000    0.000    0.000    0.000 
#
# Total GULP energy -167148.930054 kJ/mol
# GULP energy per Si atom -5571.631002 kJ/mol
# Density = 1.866632 g / cm^3
# Si number density = 18.708905 Si / 1000 Ang^3
#
#
#
# Elastic Constant Matrix: (Units=GPa)
#
#
# Indices 1 2 3 4 5 6 
#
# 1 51.9292 24.9924 30.6100 0.0001 -5.1225 0.0001
# 2 24.9924 76.5638 18.3603 0.0003 -9.7614 0.0001
# 3 30.6100 18.3603 59.2596 0.0004 -15.9410 0.0000
# 4 0.0001 0.0003 0.0004 8.7106 0.0001 -6.3476
# 5 -5.1225 -9.7614 -15.9410 0.0001 27.7308 0.0001
# 6 0.0001 0.0001 0.0000 -6.3476 0.0001 16.9283
#
#
#
# Elastic Compliance Matrix: (Units=1/GPa)
#
#
# Indices 1 2 3 4 5 6 
#
# 1 0.031276 -0.007227 -0.015433 0.000001 -0.005638 0.000000
# 2 -0.007227 0.015980 -0.000075 -0.000001 0.004247 0.000000
# 3 -0.015433 -0.000075 0.028504 -0.000002 0.013508 -0.000001
# 4 0.000001 -0.000001 -0.000002 0.157966 -0.000002 0.059232
# 5 -0.005638 0.004247 0.013508 -0.000002 0.044279 -0.000001
# 6 0.000000 0.000000 -0.000001 0.059232 -0.000001 0.081283
#
#
# Mechanical properties :
#
#
# Convention : Reuss Voigt Hill
#
# Bulk Modulus (GPa) = 33.01609 37.29754 35.15682
# Shear Modulus (GPa) = 12.05241 18.25994 15.15617
#
# Velocity S-wave (km/s) = 2.54088 3.12749 2.84932
# Velocity P-wave (km/s) = 5.12773 5.74636 5.44584
#
# Compressibility (1/GPa) = 0.03028826
#
# Stress axis : x y z
#
# Youngs Moduli (GPa) = 31.97321 62.57950 35.08320
#
# Poissons Ratio (x) = 0.45228 0.54144
# Poissons Ratio (y) = 0.23108 0.00265
# Poissons Ratio (z) = 0.49344 0.00472
#
# Static dielectric constant tensor:
#      x y z
#    x 1.685170 0.000000 -0.064390 
#    y 0.000000 1.640370 0.000000 
#    z -0.064390 0.000000 1.725570 
# 
# From -- ./inp_files/274728.got.cif
#   From: 2010.05.17/outbox.cif.g08.bks.cpg/sg15_138_cif.got.tgz:274728.got - 2010.06.03 18:47:42.
