data_PCOD9262747
_publ_section_title
;
Structure prediction by ZEFSAII (Michael W. Deem and Ramdas Pophale) SiO2 
 PCOD9262747
Probable space group: C 2/C
;
_chemical_formula_sum "Si O2"
_cell_formula_units_Z 64
_cell_length_a 9.631429
_cell_length_b 19.591241
_cell_length_c 17.142998
_cell_angle_alpha 90.000000
_cell_angle_beta 91.807910
_cell_angle_gamma 90.000000
_cell_volume 3233.130315
_symmetry_space_group_name_H-M "C 2/C"
_symmetry_group_IT_number 15
_symmetry_cell_setting 'monoclinic'
loop_
_space_group_symop_operation_xyz
x,y,z
-x,y,1/2-z
-x,-y,-z
x,-y,1/2+z
1/2+x,1/2+y,z
1/2-x,1/2+y,1/2-z
1/2-x,1/2-y,-z
1/2+x,1/2-y,1/2+z
loop_
_atom_site_type_symbol
_atom_site_label
_atom_site_fract_x
_atom_site_fract_y
_atom_site_fract_z
Si Si1 0.001266 0.709682 0.836530
Si Si2 0.447999 0.098122 0.953622
Si Si3 0.884542 0.859932 0.805665
Si Si4 0.826366 0.644955 0.338947
Si Si5 0.299473 0.278849 0.417576
Si Si6 0.277200 0.593314 0.005100
Si Si7 0.271249 0.453681 0.931171
Si Si8 0.012302 0.513627 0.336302
O O1 0.161572 0.713274 0.863831
O O2 0.000000 0.679349 0.750000
O O3 0.927831 0.663792 0.899733
O O4 0.935845 0.784540 0.829936
O O5 0.609038 0.097858 0.984992
O O6 0.434562 0.031850 0.898623
O O7 0.336342 0.090404 0.019130
O O8 0.750047 0.851922 0.746263
O O9 0.868041 0.904718 0.882844
O O10 0.000000 0.890651 0.750000
O O11 0.879073 0.718348 0.373250
O O12 0.719144 0.617761 0.404744
O O13 0.946583 0.588837 0.335726
O O14 0.250000 0.250000 0.500000
O O15 0.350762 0.353393 0.446386
O O16 0.323651 0.516636 0.984862
O O17 0.171922 0.487176 0.863908
O O18 0.000000 0.485134 0.250000
#
# Coordination Sequence:
#
# PCOD9262747 Si02
#       8
#     8   8   8   8   8   8   8   8
#     4  10  19  36  53  80 112 148 185 223 266 325
#     4  10  19  33  55  84 116 134 175 232 288 329
#     4  11  23  37  54  76 109 151 193 220 261 331
#     4  11  17  34  55  79 110 140 186 225 268 325
#     4   9  18  31  58  80 102 146 188 228 258 316
#     4   9  18  33  56  85 110 137 181 231 277 326
#     4  11  20  35  55  84 116 140 174 233 282 329
#     4  11  19  31  56  90 111 138 173 229 295 329
#
# _framework density 19.795055999999999
#
# number of rings (size 3 to 8) (size 9 to 14) (size 15 to 20)
#    0.000    1.750    6.250    1.125    0.000    0.500 
#    0.000    0.625    0.000    0.750    0.000    0.000 
#    0.000    0.000    0.000    0.000    0.000    0.000 
#
# Total GULP energy -178356.554460 kJ/mol
# GULP energy per Si atom -5573.642327 kJ/mol
# Density = 1.975000 g / cm^3
# Si number density = 19.795056 Si / 1000 Ang^3
#
#
#
# Elastic Constant Matrix: (Units=GPa)
#
#
# Indices 1 2 3 4 5 6 
#
# 1 16.6268 5.6886 4.0964 0.0000 -10.7954 0.0000
# 2 5.6886 90.5531 18.3265 0.0000 -22.0201 0.0000
# 3 4.0964 18.3265 90.0161 0.0000 -6.8986 0.0000
# 4 0.0000 0.0000 0.0000 28.3243 0.0000 3.8846
# 5 -10.7954 -22.0201 -6.8986 0.0000 29.9273 0.0000
# 6 0.0000 0.0000 0.0000 3.8846 0.0000 4.8633
#
#
#
# Elastic Compliance Matrix: (Units=1/GPa)
#
#
# Indices 1 2 3 4 5 6 
#
# 1 0.079256 0.002733 -0.001851 0.000000 0.030174 0.000000
# 2 0.002733 0.013913 -0.002135 0.000000 0.010731 0.000000
# 3 -0.001851 -0.002135 0.011662 0.000000 0.000450 0.000000
# 4 0.000000 0.000000 0.000000 0.039649 0.000000 -0.031670
# 5 0.030174 0.010731 0.000450 0.000000 0.052298 0.000000
# 6 0.000000 0.000000 0.000000 -0.031670 0.000000 0.230920
#
#
# Mechanical properties :
#
#
# Convention : Reuss Voigt Hill
#
# Bulk Modulus (GPa) = 9.77262 28.15767 18.96515
# Shear Modulus (GPa) = 10.76863 23.89526 17.33194
#
# Velocity S-wave (km/s) = 2.33492 3.47815 2.96221
# Velocity P-wave (km/s) = 3.49525 5.51231 4.61532
#
# Compressibility (1/GPa) = 0.10232667
#
# Stress axis : x y z
#
# Youngs Moduli (GPa) = 12.61738 71.87527 85.74546
#
# Poissons Ratio (x) = -0.19644 0.15869
# Poissons Ratio (y) = -0.03448 0.18303
# Poissons Ratio (z) = 0.02335 0.15342
#
# Static dielectric constant tensor:
#      x y z
#    x 1.705660 0.000000 0.014990 
#    y 0.000000 1.768860 0.000000 
#    z 0.014990 0.000000 1.726130 
# 
# From -- ./inp_files/199970.got.cif
#   From: 2010.05.17/outbox.cif.g08.bks.cpg/sg15_100_cif.got.tgz:199970.got - 2010.06.03 18:47:42.
