data_PCOD9262615
_publ_section_title
;
Structure prediction by ZEFSAII (Michael W. Deem and Ramdas Pophale) SiO2 
 PCOD9262615
Probable space group: C 2/C
;
_chemical_formula_sum "Si O2"
_cell_formula_units_Z 64
_cell_length_a 15.046443
_cell_length_b 12.401554
_cell_length_c 22.879164
_cell_angle_alpha 90.000000
_cell_angle_beta 137.396496
_cell_angle_gamma 90.000000
_cell_volume 2889.935050
_symmetry_space_group_name_H-M "C 2/C"
_symmetry_group_IT_number 15
_symmetry_cell_setting 'monoclinic'
loop_
_space_group_symop_operation_xyz
x,y,z
-x,y,1/2-z
-x,-y,-z
x,-y,1/2+z
1/2+x,1/2+y,z
1/2-x,1/2+y,1/2-z
1/2-x,1/2-y,-z
1/2+x,1/2-y,1/2+z
loop_
_atom_site_type_symbol
_atom_site_label
_atom_site_fract_x
_atom_site_fract_y
_atom_site_fract_z
Si Si1 0.756034 0.865873 0.228053
Si Si2 0.330739 0.436514 0.545893
Si Si3 0.089745 0.448683 0.623887
Si Si4 0.391809 0.860326 0.990815
Si Si5 0.421519 0.680393 0.375562
Si Si6 0.872295 0.068701 0.459481
Si Si7 0.359367 0.376374 0.152855
Si Si8 0.968857 0.230196 0.603971
O O1 0.661455 0.767786 0.200670
O O2 0.762728 0.861249 0.160066
O O3 0.899514 0.840256 0.320865
O O4 0.699028 0.984375 0.212186
O O5 0.227706 0.353080 0.522123
O O6 0.480465 0.394598 0.613850
O O7 0.296339 0.486204 0.465584
O O8 0.322027 0.530199 0.590127
O O9 0.148461 0.392133 0.594240
O O10 0.012049 0.352030 0.615929
O O11 0.986234 0.541689 0.556549
O O12 0.476346 0.751852 0.036186
O O13 0.328474 0.617987 0.376435
O O14 0.904228 0.168771 0.518213
O O15 0.000000 0.000000 0.500000
O O16 0.500000 0.401709 0.250000
O O17 0.381490 0.276804 0.120067
#
# Coordination Sequence:
#
# PCOD9262615 Si02
#       8
#     8   8   8   8   8   8   8   8
#     4  10  21  36  56  80 109 141 183 224 269 326
#     4  10  19  33  54  80 109 141 179 232 268 313
#     4  10  20  34  55  81 106 140 180 223 272 325
#     4  10  19  34  54  78 108 139 180 224 270 324
#     4  10  20  35  53  81 110 143 183 222 273 325
#     4   9  19  33  51  79 109 138 178 223 268 318
#     4   9  19  34  51  77 106 138 179 222 269 321
#     4  10  20  35  56  80 109 145 181 223 276 325
#
# _framework density 22.145828000000002
#
# number of rings (size 3 to 8) (size 9 to 14) (size 15 to 20)
#    0.000    2.250    2.500    0.375    0.000    5.000 
#    0.000    2.500    0.000    0.000    0.000    0.000 
#    0.000    0.000    0.000    0.000    0.000    0.000 
#
# Total GULP energy -178563.098905 kJ/mol
# GULP energy per Si atom -5580.096841 kJ/mol
# Density = 2.209542 g / cm^3
# Si number density = 22.145828 Si / 1000 Ang^3
#
#
#
# Elastic Constant Matrix: (Units=GPa)
#
#
# Indices 1 2 3 4 5 6 
#
# 1 94.7644 14.8572 9.4964 0.0000 -6.1974 0.0000
# 2 14.8572 81.8842 6.7690 0.0000 -5.1957 0.0000
# 3 9.4964 6.7690 41.2556 0.0000 0.3195 0.0000
# 4 0.0000 0.0000 0.0000 13.8573 0.0000 0.0512
# 5 -6.1974 -5.1957 0.3195 0.0000 20.3681 0.0000
# 6 0.0000 0.0000 0.0000 0.0512 0.0000 16.8254
#
#
#
# Elastic Compliance Matrix: (Units=1/GPa)
#
#
# Indices 1 2 3 4 5 6 
#
# 1 0.011245 -0.001654 -0.002341 0.000000 0.003036 0.000000
# 2 -0.001654 0.012834 -0.001747 0.000000 0.002798 0.000000
# 3 -0.002341 -0.001747 0.025077 0.000000 -0.001551 0.000000
# 4 0.000000 0.000000 0.000000 0.072165 0.000000 -0.000219
# 5 0.003036 0.002798 -0.001551 0.000000 0.050758 0.000000
# 6 0.000000 0.000000 0.000000 -0.000219 0.000000 0.059435
#
#
# Mechanical properties :
#
#
# Convention : Reuss Voigt Hill
#
# Bulk Modulus (GPa) = 26.54413 31.12770 28.83592
# Shear Modulus (GPa) = 19.56533 22.66226 21.11380
#
# Velocity S-wave (km/s) = 2.97556 3.20241 3.09106
# Velocity P-wave (km/s) = 4.88030 5.26879 5.07826
#
# Compressibility (1/GPa) = 0.03767311
#
# Stress axis : x y z
#
# Youngs Moduli (GPa) = 88.92892 77.91538 39.87796
#
# Poissons Ratio (x) = 0.12889 0.09334
# Poissons Ratio (y) = 0.14710 0.06965
# Poissons Ratio (z) = 0.20814 0.13609
#
# Static dielectric constant tensor:
#      x y z
#    x 1.837370 0.000000 0.012410 
#    y 0.000000 1.866980 0.000000 
#    z 0.012410 0.000000 1.815220 
# 
# From -- ./inp_files/298689.got.cif
#   From: 2010.05.17/outbox.cif.g08.bks.cpg/sg15_150_cif.got.tgz:298689.got - 2010.06.03 18:47:42.
