data_PCOD9262544
_publ_section_title
;
Structure prediction by ZEFSAII (Michael W. Deem and Ramdas Pophale) SiO2 
 PCOD9262544
Probable space group: C 2/C
;
_chemical_formula_sum "Si O2"
_cell_formula_units_Z 56
_cell_length_a 23.074412
_cell_length_b 18.257632
_cell_length_c 17.811782
_cell_angle_alpha 90.000000
_cell_angle_beta 160.212676
_cell_angle_gamma 90.000000
_cell_volume 2540.266659
_symmetry_space_group_name_H-M "C 2/C"
_symmetry_group_IT_number 15
_symmetry_cell_setting 'monoclinic'
loop_
_space_group_symop_operation_xyz
x,y,z
-x,y,1/2-z
-x,-y,-z
x,-y,1/2+z
1/2+x,1/2+y,z
1/2-x,1/2+y,1/2-z
1/2-x,1/2-y,-z
1/2+x,1/2-y,1/2+z
loop_
_atom_site_type_symbol
_atom_site_label
_atom_site_fract_x
_atom_site_fract_y
_atom_site_fract_z
Si Si1 0.936333 0.728663 0.395076
Si Si2 0.393129 0.362068 0.960548
Si Si3 0.888125 0.138802 0.177434
Si Si4 0.955186 0.700698 0.812836
Si Si5 0.500000 0.645938 0.750000
Si Si6 0.000000 0.473373 0.750000
Si Si7 0.733045 0.080021 0.126982
Si Si8 0.625771 0.166052 0.336630
O O1 0.751430 0.700456 0.198560
O O2 0.962685 0.684454 0.350127
O O3 0.959339 0.814028 0.400944
O O4 0.058027 0.708343 0.613163
O O5 0.317856 0.422186 0.812168
O O6 0.440747 0.391845 0.100498
O O7 0.966343 0.217693 0.294372
O O8 0.872005 0.091599 0.232062
O O9 0.000000 0.102462 0.250000
O O10 0.702945 0.158338 0.917056
O O11 0.122682 0.655012 0.995683
O O12 0.325709 0.685524 0.568593
O O13 0.125999 0.420282 0.857142
O O14 0.894817 0.519466 0.560809
O O15 0.500000 0.192594 0.250000
#
# Coordination Sequence:
#
# PCOD9262544 Si02
#       8
#     8   8   8   8   4   4   8   8
#     4  10  21  35  56  95 122 156 209 252 324 385
#     4  10  23  35  65  94 130 160 202 269 330 386
#     4  11  20  30  52  86 122 161 198 248 317 379
#     4  10  19  33  53  81 126 161 193 253 313 387
#     4  10  22  45  62  94 125 158 224 278 316 368
#     4  10  22  43  66  82 125 178 220 256 312 380
#     4  11  20  40  57  90 126 166 208 254 324 375
#     4   9  23  43  67  86 122 172 218 265 311 373
#
# _framework density 22.044930000000001
#
# number of rings (size 3 to 8) (size 9 to 14) (size 15 to 20)
#    0.429    1.429    2.857    1.714    5.000    1.143 
#    1.286    7.143    0.000    0.000    0.000    0.000 
#    0.000    0.000    0.000    0.000    0.000    0.000 
#
# Total GULP energy -156122.091376 kJ/mol
# GULP energy per Si atom -5575.788978 kJ/mol
# Density = 2.199475 g / cm^3
# Si number density = 22.044930 Si / 1000 Ang^3
#
#
#
# Elastic Constant Matrix: (Units=GPa)
#
#
# Indices 1 2 3 4 5 6 
#
# 1 176.4545 29.3193 66.0784 0.0002 -24.5646 0.0001
# 2 29.3193 42.9108 27.6149 0.0002 -1.9243 0.0001
# 3 66.0784 27.6149 78.9158 0.0005 -33.7132 0.0003
# 4 0.0002 0.0002 0.0005 10.2247 0.0004 5.3677
# 5 -24.5646 -1.9243 -33.7132 0.0004 54.7676 0.0002
# 6 0.0001 0.0001 0.0003 5.3677 0.0002 30.3221
#
#
#
# Elastic Compliance Matrix: (Units=1/GPa)
#
#
# Indices 1 2 3 4 5 6 
#
# 1 0.008342 -0.001434 -0.006657 0.000000 -0.000407 0.000000
# 2 -0.001434 0.032680 -0.013594 0.000000 -0.007863 0.000000
# 3 -0.006657 -0.013594 0.029202 -0.000001 0.014513 0.000000
# 4 0.000000 0.000000 -0.000001 0.107822 -0.000001 -0.019087
# 5 -0.000407 -0.007863 0.014513 -0.000001 0.026734 0.000000
# 6 0.000000 0.000000 0.000000 -0.019087 0.000000 0.036358
#
#
# Mechanical properties :
#
#
# Convention : Reuss Voigt Hill
#
# Bulk Modulus (GPa) = 37.23756 60.47847 48.85801
# Shear Modulus (GPa) = 17.03824 30.74747 23.89286
#
# Velocity S-wave (km/s) = 2.78310 3.73871 3.29572
# Velocity P-wave (km/s) = 5.22072 6.79198 6.05751
#
# Compressibility (1/GPa) = 0.02685461
#
# Stress axis : x y z
#
# Youngs Moduli (GPa) = 119.88145 30.60021 34.24404
#
# Poissons Ratio (x) = 0.04388 0.22795
# Poissons Ratio (y) = 0.17191 0.46551
# Poissons Ratio (z) = 0.79799 0.41597
#
# Static dielectric constant tensor:
#      x y z
#    x 1.838190 0.000000 0.017980 
#    y 0.000000 1.795570 0.000000 
#    z 0.017980 0.000000 1.859750 
# 
# From -- ./inp_files/220223.got.cif
#   From: 2010.05.17/outbox.cif.g08.bks.cpg/sg15_111_cif.got.tgz:220223.got - 2010.06.03 18:47:42.
