data_PCOD9262410
_publ_section_title
;
Structure prediction by ZEFSAII (Michael W. Deem and Ramdas Pophale) SiO2 
 PCOD9262410
Probable space group: C 2/C
;
_chemical_formula_sum "Si O2"
_cell_formula_units_Z 56
_cell_length_a 21.900780
_cell_length_b 25.010446
_cell_length_c 14.648060
_cell_angle_alpha 90.000000
_cell_angle_beta 20.525172
_cell_angle_gamma 90.000000
_cell_volume 2813.172751
_symmetry_space_group_name_H-M "C 2/C"
_symmetry_group_IT_number 15
_symmetry_cell_setting 'monoclinic'
loop_
_space_group_symop_operation_xyz
x,y,z
-x,y,1/2-z
-x,-y,-z
x,-y,1/2+z
1/2+x,1/2+y,z
1/2-x,1/2+y,1/2-z
1/2-x,1/2-y,-z
1/2+x,1/2-y,1/2+z
loop_
_atom_site_type_symbol
_atom_site_label
_atom_site_fract_x
_atom_site_fract_y
_atom_site_fract_z
Si Si1 0.149970 0.362542 0.659831
Si Si2 0.245445 0.156312 0.677951
Si Si3 0.296514 0.188237 0.935719
Si Si4 0.686284 0.149074 0.385560
Si Si5 0.338508 0.388659 0.020038
Si Si6 0.455760 0.061553 0.041936
Si Si7 0.314403 0.722871 0.057820
O O1 0.270359 0.365636 0.402317
O O2 0.201295 0.309805 0.643408
O O3 0.948097 0.355388 0.917235
O O4 0.153850 0.413219 0.720886
O O5 0.138399 0.127739 0.907238
O O6 0.229565 0.220352 0.700875
O O7 0.501529 0.179516 0.629422
O O8 0.184641 0.162726 0.011875
O O9 0.250000 0.250000 0.000000
O O10 0.268216 0.157763 0.072136
O O11 0.642636 0.089014 0.408350
O O12 0.821005 0.182483 0.134598
O O13 0.151056 0.415185 0.270163
O O14 0.500000 0.419981 0.750000
O O15 0.500000 0.000000 0.000000
O O16 0.500000 0.732929 0.750000
#
# Coordination Sequence:
#
# PCOD9262410 Si02
#       7
#     8   8   8   8   8   8   8
#     4   9  19  35  51  80 106 137 193 217 267 354
#     4  10  19  33  51  73 113 145 176 215 268 337
#     4  10  20  35  55  79 121 158 182 229 289 346
#     4   9  21  36  52  84 112 146 207 221 275 371
#     4  10  22  36  54  86 110 142 195 239 282 349
#     4   9  19  41  65  78 105 148 188 248 293 326
#     4  11  20  30  50  76 112 150 174 219 276 330
#
# _framework density 19.90635
#
# number of rings (size 3 to 8) (size 9 to 14) (size 15 to 20)
#    0.000    2.286    1.429    2.143    4.000    1.143 
#    0.000   14.286    0.000    1.714    0.000    0.000 
#    0.000    0.000    0.000    0.000    0.000    0.000 
#
# Total GULP energy -156031.535760 kJ/mol
# GULP energy per Si atom -5572.554849 kJ/mol
# Density = 1.986104 g / cm^3
# Si number density = 19.906350 Si / 1000 Ang^3
#
#
#
# Elastic Constant Matrix: (Units=GPa)
#
#
# Indices 1 2 3 4 5 6 
#
# 1 70.8597 30.8389 26.9909 -0.0262 26.9459 -0.0003
# 2 30.8389 112.8386 11.7937 -0.0040 16.0223 0.0049
# 3 26.9909 11.7937 79.4634 0.0832 23.0188 -0.0136
# 4 -0.0262 -0.0040 0.0832 -7.2094 -0.0361 -3.3969
# 5 26.9459 16.0223 23.0188 -0.0361 34.0436 0.0045
# 6 -0.0003 0.0049 -0.0136 -3.3969 0.0045 12.9431
#
#
#
# Elastic Compliance Matrix: (Units=1/GPa)
#
#
# Indices 1 2 3 4 5 6 
#
# 1 0.022103 -0.003784 -0.002977 -0.000041 -0.013701 -0.000007
# 2 -0.003784 0.010146 0.000367 0.000021 -0.002028 0.000003
# 3 -0.002977 0.000367 0.016053 0.000205 -0.008670 0.000073
# 4 -0.000041 0.000021 0.000205 -0.123440 -0.000243 -0.032396
# 5 -0.013701 -0.002028 -0.008670 -0.000243 0.047035 -0.000089
# 6 -0.000007 0.000003 0.000073 -0.032396 -0.000089 0.068759
#
#
# Mechanical properties :
#
#
# Convention : Reuss Voigt Hill
#
# Bulk Modulus (GPa) = 28.15859 44.71205 36.43532
# Shear Modulus (GPa) = 76.59037 20.85803 48.72420
#
# Velocity S-wave (km/s) = 6.20958 3.24050 4.95276
# Velocity P-wave (km/s) = 8.09865 6.04244 7.14490
#
# Compressibility (1/GPa) = 0.03551315
#
# Stress axis : x y z
#
# Youngs Moduli (GPa) = 45.24179 98.56040 62.29557
#
# Poissons Ratio (x) = 0.37298 0.18546
# Poissons Ratio (y) = 0.17121 -0.02286
# Poissons Ratio (z) = 0.13469 -0.03617
#
# Static dielectric constant tensor:
#      x y z
#    x 1.764180 -0.000010 0.017980 
#    y -0.000010 1.693000 0.000040 
#    z 0.017980 0.000040 1.791450 
# 
# From -- ./inp_files/174725.got.cif
#   From: 2010.05.17/outbox.cif.g08.bks.cpg/sg15_88_cif.got.tgz:174725.got - 2010.06.03 18:47:42.
