data_PCOD9262701
_publ_section_title
;
Structure prediction by ZEFSAII (Michael W. Deem and Ramdas Pophale) SiO2 
 PCOD9262701
Probable space group: C 2/C
;
_chemical_formula_sum "Si O2"
_cell_formula_units_Z 56
_cell_length_a 19.155314
_cell_length_b 15.589439
_cell_length_c 7.877711
_cell_angle_alpha 90.000000
_cell_angle_beta 75.020662
_cell_angle_gamma 90.000000
_cell_volume 2272.508517
_symmetry_space_group_name_H-M "C 2/C"
_symmetry_group_IT_number 15
_symmetry_cell_setting 'monoclinic'
loop_
_space_group_symop_operation_xyz
x,y,z
-x,y,1/2-z
-x,-y,-z
x,-y,1/2+z
1/2+x,1/2+y,z
1/2-x,1/2+y,1/2-z
1/2-x,1/2-y,-z
1/2+x,1/2-y,1/2+z
loop_
_atom_site_type_symbol
_atom_site_label
_atom_site_fract_x
_atom_site_fract_y
_atom_site_fract_z
Si Si1 0.919735 0.866273 0.761699
Si Si2 0.514375 0.900587 0.541627
Si Si3 0.226150 0.222198 0.227474
Si Si4 0.423543 0.452167 0.387835
Si Si5 0.131967 0.369284 0.964605
Si Si6 0.151360 0.543970 0.084519
Si Si7 0.281665 0.373055 0.398566
O O1 0.852793 0.800714 0.797429
O O2 0.924088 0.912642 0.574842
O O3 0.000000 0.831686 0.750000
O O4 0.905555 0.946611 0.896223
O O5 0.500000 0.891106 0.750000
O O6 0.453161 0.841501 0.491961
O O7 0.601315 0.896637 0.492139
O O8 0.500000 0.000000 0.500000
O O9 0.295289 0.186852 0.077771
O O10 0.248502 0.317167 0.269917
O O11 0.224077 0.175602 0.415783
O O12 0.500000 0.442062 0.250000
O O13 0.363211 0.400318 0.322839
O O14 0.129221 0.445421 0.101448
O O15 0.143509 0.416832 0.775235
O O16 0.231641 0.545199 0.961287
#
# Coordination Sequence:
#
# PCOD9262701 Si02
#       7
#     8   8   8   8   8   8   8
#     4  10  19  33  56  79 103 135 173 217 260 305
#     4   8  14  24  41  66  91 115 147 188 231 278
#     4   9  18  32  49  72 102 133 166 206 254 308
#     4  10  19  33  55  80 104 133 173 220 261 304
#     4   9  16  28  47  70  94 123 160 200 242 290
#     4   9  16  28  48  70  94 124 159 199 241 292
#     4   9  18  32  49  73 101 132 169 207 254 307
#
# _framework density 24.642372000000002
#
# number of rings (size 3 to 8) (size 9 to 14) (size 15 to 20)
#    0.000    2.857    0.000    2.571    0.000    0.000 
#    0.000    7.857    0.000   16.286    0.000    0.000 
#    0.000    0.000    0.000    0.429    0.000    0.000 
#
# Total GULP energy -156174.751947 kJ/mol
# GULP energy per Si atom -5577.669712 kJ/mol
# Density = 2.458629 g / cm^3
# Si number density = 24.642372 Si / 1000 Ang^3
#
#
#
# Elastic Constant Matrix: (Units=GPa)
#
#
# Indices 1 2 3 4 5 6 
#
# 1 158.5367 34.9448 58.9962 0.0000 7.7906 0.0000
# 2 34.9448 36.7235 32.3496 0.0000 2.6616 0.0000
# 3 58.9962 32.3496 78.1939 0.0000 0.2537 0.0000
# 4 0.0000 0.0000 0.0000 35.0325 0.0000 -3.6848
# 5 7.7906 2.6616 0.2537 0.0000 25.6069 0.0000
# 6 0.0000 0.0000 0.0000 -3.6848 0.0000 24.1747
#
#
#
# Elastic Compliance Matrix: (Units=1/GPa)
#
#
# Indices 1 2 3 4 5 6 
#
# 1 0.009291 -0.003936 -0.005374 0.000000 -0.002364 0.000000
# 2 -0.003936 0.044986 -0.015631 0.000000 -0.003324 0.000000
# 3 -0.005374 -0.015631 0.023300 0.000000 0.003029 0.000000
# 4 0.000000 0.000000 0.000000 0.029010 0.000000 0.004422
# 5 -0.002364 -0.003324 0.003029 0.000000 0.040087 0.000000
# 6 0.000000 0.000000 0.000000 0.004422 0.000000 0.042040
#
#
# Mechanical properties :
#
#
# Convention : Reuss Voigt Hill
#
# Bulk Modulus (GPa) = 36.10664 58.44835 47.27750
# Shear Modulus (GPa) = 20.17539 26.77371 23.47455
#
# Velocity S-wave (km/s) = 2.86445 3.29977 3.08979
# Velocity P-wave (km/s) = 5.06203 6.18774 5.65298
#
# Compressibility (1/GPa) = 0.02769573
#
# Stress axis : x y z
#
# Youngs Moduli (GPa) = 107.62751 22.22936 42.91810
#
# Poissons Ratio (x) = 0.08749 0.23065
# Poissons Ratio (y) = 0.42360 0.67084
# Poissons Ratio (z) = 0.57841 0.34746
#
# Static dielectric constant tensor:
#      x y z
#    x 2.067270 0.000000 0.035110 
#    y 0.000000 1.920110 0.000000 
#    z 0.035110 0.000000 1.971840 
# 
# From -- ./inp_files/56088.got.cif
#   From: 2010.05.17/outbox.cif.g08.bks.cpg/sg15_29_cif.got.tgz:56088.got - 2010.06.03 18:47:42.
