data_PCOD9262349
_publ_section_title
;
Structure prediction by ZEFSAII (Michael W. Deem and Ramdas Pophale) SiO2 
 PCOD9262349
Probable space group: C 2/C
;
_chemical_formula_sum "Si O2"
_cell_formula_units_Z 40
_cell_length_a 13.324819
_cell_length_b 5.810995
_cell_length_c 18.990679
_cell_angle_alpha 90.000000
_cell_angle_beta 69.789991
_cell_angle_gamma 90.000000
_cell_volume 1379.924865
_symmetry_space_group_name_H-M "C 2/C"
_symmetry_group_IT_number 15
_symmetry_cell_setting 'monoclinic'
loop_
_space_group_symop_operation_xyz
x,y,z
-x,y,1/2-z
-x,-y,-z
x,-y,1/2+z
1/2+x,1/2+y,z
1/2-x,1/2+y,1/2-z
1/2-x,1/2-y,-z
1/2+x,1/2-y,1/2+z
loop_
_atom_site_type_symbol
_atom_site_label
_atom_site_fract_x
_atom_site_fract_y
_atom_site_fract_z
Si Si1 0.964001 0.165411 0.611370
Si Si2 0.185863 0.865908 0.112630
Si Si3 0.356734 0.130332 0.002975
Si Si4 0.802067 0.625493 0.252546
Si Si5 0.966146 0.735235 0.835451
O O1 0.069180 0.612151 0.583391
O O2 0.908230 0.342257 0.679023
O O3 0.092804 0.164316 0.577770
O O4 0.085240 0.783056 0.452121
O O5 0.303485 0.914555 0.056270
O O6 0.137115 0.098387 0.159067
O O7 0.257785 0.870643 0.248875
O O8 0.250000 0.250000 0.000000
O O9 0.553087 0.418835 0.845898
O O10 0.679678 0.157374 0.168368
O O11 0.000000 0.650846 0.750000
#
# Coordination Sequence:
#
# PCOD9262349 Si02
#       5
#     8   8   8   8   8
#     4  10  19  38  65 104 151 204 256 335 395 494
#     4   9  19  38  64 103 153 200 267 322 411 483
#     4  10  19  32  65 109 148 207 263 335 403 487
#     4  12  24  44  76 115 160 210 271 334 407 491
#     4   9  17  31  61 100 149 195 265 323 407 479
#
# _framework density 28.987085
#
# number of rings (size 3 to 8) (size 9 to 14) (size 15 to 20)
#    1.200    0.800    4.000    1.200    0.000    0.000 
#    0.000    4.000    0.000    6.000    0.000    0.000 
#    0.000    0.000    0.000    0.000    0.000    0.000 
#
# Total GULP energy -111864.519765 kJ/mol
# GULP energy per Si atom -5593.225988 kJ/mol
# Density = 2.892111 g / cm^3
# Si number density = 28.987085 Si / 1000 Ang^3
#
#
#
# Elastic Constant Matrix: (Units=GPa)
#
#
# Indices 1 2 3 4 5 6 
#
# 1 142.2147 63.9329 106.5192 -0.0001 9.0139 -0.0001
# 2 63.9329 116.8470 92.9496 -0.0001 -1.3182 -0.0001
# 3 106.5192 92.9496 288.4970 0.0000 -0.8590 -0.0001
# 4 -0.0001 -0.0001 0.0000 70.9281 0.0000 0.8148
# 5 9.0139 -1.3182 -0.8590 0.0000 74.2409 -0.0001
# 6 -0.0001 -0.0001 -0.0001 0.8148 -0.0001 56.9677
#
#
#
# Elastic Compliance Matrix: (Units=1/GPa)
#
#
# Indices 1 2 3 4 5 6 
#
# 1 0.010925 -0.003740 -0.002833 0.000000 -0.001426 0.000000
# 2 -0.003740 0.012790 -0.002738 0.000000 0.000650 0.000000
# 3 -0.002833 -0.002738 0.005395 0.000000 0.000358 0.000000
# 4 0.000000 0.000000 0.000000 0.014101 0.000000 -0.000202
# 5 -0.001426 0.000650 0.000358 0.000000 0.013658 0.000000
# 6 0.000000 0.000000 0.000000 -0.000202 0.000000 0.017557
#
#
# Mechanical properties :
#
#
# Convention : Reuss Voigt Hill
#
# Bulk Modulus (GPa) = 95.34318 119.37356 107.35837
# Shear Modulus (GPa) = 51.78910 59.37112 55.58011
#
# Velocity S-wave (km/s) = 4.23144 4.53061 4.38357
# Velocity P-wave (km/s) = 7.53899 8.28490 7.92073
#
# Compressibility (1/GPa) = 0.01048843
#
# Stress axis : x y z
#
# Youngs Moduli (GPa) = 91.52968 78.18676 185.34247
#
# Poissons Ratio (x) = 0.29244 0.52509
# Poissons Ratio (y) = 0.34235 0.50743
# Poissons Ratio (z) = 0.25931 0.21406
#
# Static dielectric constant tensor:
#      x y z
#    x 2.365260 0.000000 0.022060 
#    y 0.000000 2.403650 0.000000 
#    z 0.022060 0.000000 2.237190 
# 
# From -- ./inp_files/246226.got.cif
#   From: 2010.05.17/outbox.cif.g08.bks.cpg/sg15_124_cif.got.tgz:246226.got - 2010.06.03 18:47:42.
