data_PCOD9262508
_publ_section_title
;
Structure prediction by ZEFSAII (Michael W. Deem and Ramdas Pophale) SiO2 
 PCOD9262508
Probable space group: C 2/C
;
_chemical_formula_sum "Si O2"
_cell_formula_units_Z 48
_cell_length_a 16.713821
_cell_length_b 10.717176
_cell_length_c 12.245110
_cell_angle_alpha 90.000000
_cell_angle_beta 69.392556
_cell_angle_gamma 90.000000
_cell_volume 2053.057248
_symmetry_space_group_name_H-M "C 2/C"
_symmetry_group_IT_number 15
_symmetry_cell_setting 'monoclinic'
loop_
_space_group_symop_operation_xyz
x,y,z
-x,y,1/2-z
-x,-y,-z
x,-y,1/2+z
1/2+x,1/2+y,z
1/2-x,1/2+y,1/2-z
1/2-x,1/2-y,-z
1/2+x,1/2-y,1/2+z
loop_
_atom_site_type_symbol
_atom_site_label
_atom_site_fract_x
_atom_site_fract_y
_atom_site_fract_z
Si Si1 0.138340 0.378970 0.524334
Si Si2 0.500000 0.651380 0.250000
Si Si3 0.755293 0.050368 0.154074
Si Si4 0.500000 0.934217 0.750000
Si Si5 0.132144 0.894006 0.517484
Si Si6 0.379040 0.142685 0.709928
Si Si7 0.303390 0.862223 0.584515
O O1 0.217647 0.374848 0.569053
O O2 0.058086 0.355443 0.640390
O O3 0.138674 0.317573 0.406058
O O4 0.138225 0.524140 0.485857
O O5 0.452310 0.582320 0.371303
O O6 0.575410 0.742402 0.255076
O O7 0.730379 0.120064 0.276327
O O8 0.705744 0.915595 0.194952
O O9 0.848745 0.004361 0.076995
O O10 0.442984 0.025993 0.701864
O O11 0.216302 0.879930 0.555909
O O12 0.138123 0.759250 0.457318
#
# Coordination Sequence:
#
# PCOD9262508 Si02
#       7
#     8   4   8   4   8   8   8
#     4   9  16  25  42  70 102 133 163 204 259 311
#     4  11  20  30  50  80 108 137 170 209 258 310
#     4   9  18  32  52  76 102 136 174 214 257 301
#     4   9  14  20  34  62  98 129 154 189 248 312
#     4  10  19  33  53  77 104 135 173 214 253 304
#     4   9  16  26  42  68 101 131 165 207 251 299
#     4   9  17  32  53  75 101 136 179 215 249 300
#
# _framework density 23.379767999999999
#
# number of rings (size 3 to 8) (size 9 to 14) (size 15 to 20)
#    0.000    2.667    0.000    5.500    0.000    2.667 
#    0.000    0.833    0.000   16.000    0.000    0.000 
#    0.000    1.333    0.000    0.000    0.000    0.000 
#
# Total GULP energy -133889.735560 kJ/mol
# GULP energy per Si atom -5578.738982 kJ/mol
# Density = 2.332655 g / cm^3
# Si number density = 23.379768 Si / 1000 Ang^3
#
#
#
# Elastic Constant Matrix: (Units=GPa)
#
#
# Indices 1 2 3 4 5 6 
#
# 1 34.9630 3.4778 31.8634 0.0000 -8.2338 0.0000
# 2 3.4778 27.4483 32.5891 0.0000 -7.1230 0.0000
# 3 31.8634 32.5891 179.3094 0.0000 -9.4403 0.0000
# 4 0.0000 0.0000 0.0000 15.7438 0.0000 -1.6179
# 5 -8.2338 -7.1230 -9.4403 0.0000 59.5672 0.0000
# 6 0.0000 0.0000 0.0000 -1.6179 0.0000 8.4846
#
#
#
# Elastic Compliance Matrix: (Units=1/GPa)
#
#
# Indices 1 2 3 4 5 6 
#
# 1 0.035499 0.004918 -0.006971 0.000000 0.004390 0.000000
# 2 0.004918 0.048232 -0.009379 0.000000 0.004961 0.000000
# 3 -0.006971 -0.009379 0.008481 0.000000 -0.000741 0.000000
# 4 0.000000 0.000000 0.000000 0.064787 0.000000 0.012354
# 5 0.004390 0.004961 -0.000741 0.000000 0.017870 0.000000
# 6 0.000000 0.000000 0.000000 0.012354 0.000000 0.120216
#
#
# Mechanical properties :
#
#
# Convention : Reuss Voigt Hill
#
# Bulk Modulus (GPa) = 14.41982 41.95348 28.18665
# Shear Modulus (GPa) = 14.65995 28.34514 21.50255
#
# Velocity S-wave (km/s) = 2.50678 3.48570 3.03596
# Velocity P-wave (km/s) = 3.81571 5.84666 4.93676
#
# Compressibility (1/GPa) = 0.06934900
#
# Stress axis : x y z
#
# Youngs Moduli (GPa) = 28.16949 20.73322 117.90697
#
# Poissons Ratio (x) = -0.10197 0.82193
# Poissons Ratio (y) = -0.13854 1.10582
# Poissons Ratio (z) = 0.19637 0.19445
#
# Static dielectric constant tensor:
#      x y z
#    x 1.938220 0.000000 0.031600 
#    y 0.000000 1.932580 0.000000 
#    z 0.031600 0.000000 1.934570 
# 
# From -- ./inp_files/104224.got.cif
#   From: 2010.05.17/outbox.cif.g08.bks.cpg/sg15_53_cif.got.tgz:104224.got - 2010.06.03 18:47:42.
