data_PCOD9262297
_publ_section_title
;
Structure prediction by ZEFSAII (Michael W. Deem and Ramdas Pophale) SiO2 
 PCOD9262297
Probable space group: C 2/C
;
_chemical_formula_sum "Si O2"
_cell_formula_units_Z 32
_cell_length_a 14.973714
_cell_length_b 19.509061
_cell_length_c 9.431221
_cell_angle_alpha 90.000000
_cell_angle_beta 38.892515
_cell_angle_gamma 90.000000
_cell_volume 1729.806781
_symmetry_space_group_name_H-M "C 2/C"
_symmetry_group_IT_number 15
_symmetry_cell_setting 'monoclinic'
loop_
_space_group_symop_operation_xyz
x,y,z
-x,y,1/2-z
-x,-y,-z
x,-y,1/2+z
1/2+x,1/2+y,z
1/2-x,1/2+y,1/2-z
1/2-x,1/2-y,-z
1/2+x,1/2-y,1/2+z
loop_
_atom_site_type_symbol
_atom_site_label
_atom_site_fract_x
_atom_site_fract_y
_atom_site_fract_z
Si Si1 0.214321 0.226169 0.267476
Si Si2 0.560786 0.061878 0.831899
Si Si3 0.543662 0.186093 0.351811
Si Si4 0.831441 0.858220 0.955314
O O1 0.294997 0.202804 0.309111
O O2 0.054720 0.248089 0.499415
O O3 0.213078 0.169647 0.145386
O O4 0.293266 0.293795 0.105790
O O5 0.500000 0.054029 0.750000
O O6 0.500938 0.130741 0.976640
O O7 0.269532 0.077235 0.882823
O O8 0.500000 0.000000 0.000000
O O9 0.500000 0.160869 0.250000
O O10 0.000000 0.871545 0.750000
#
# Coordination Sequence:
#
# PCOD9262297 Si02
#       4
#     8   8   8   8
#     4  10  19  32  58  91 120 150 189 238 305 350
#     4  11  23  40  61  82 113 162 207 238 285 353
#     4  11  21  35  57  90 124 150 190 245 291 353
#     4  10  19  35  61  88 118 151 196 246 295 349
#
# _framework density 18.499175999999999
#
# number of rings (size 3 to 8) (size 9 to 14) (size 15 to 20)
#    0.000    1.500    5.000    1.500    0.000    0.000 
#    0.000    1.250    0.000    0.000    0.000    0.000 
#    0.000    0.000    0.000    0.000    0.000    0.000 
#
# Total GULP energy -89219.888251 kJ/mol
# GULP energy per Si atom -5576.243016 kJ/mol
# Density = 1.845707 g / cm^3
# Si number density = 18.499176 Si / 1000 Ang^3
#
#
#
# Elastic Constant Matrix: (Units=GPa)
#
#
# Indices 1 2 3 4 5 6 
#
# 1 152.9939 37.5285 42.8421 0.0002 1.5951 -0.0002
# 2 37.5285 52.1937 32.3678 0.0001 -12.6659 -0.0001
# 3 42.8421 32.3678 67.0307 0.0002 -9.9637 0.0000
# 4 0.0002 0.0001 0.0002 38.7168 -0.0002 -0.8563
# 5 1.5951 -12.6659 -9.9637 -0.0002 45.3831 0.0001
# 6 -0.0002 -0.0001 0.0000 -0.8563 0.0001 8.2220
#
#
#
# Elastic Compliance Matrix: (Units=1/GPa)
#
#
# Indices 1 2 3 4 5 6 
#
# 1 0.008720 -0.004530 -0.003741 0.000000 -0.002392 0.000000
# 2 -0.004530 0.030796 -0.011034 0.000000 0.006332 0.000000
# 3 -0.003741 -0.011034 0.022949 0.000000 0.002090 0.000000
# 4 0.000000 0.000000 0.000000 0.025888 0.000000 0.002696
# 5 -0.002392 0.006332 0.002090 0.000000 0.024345 0.000000
# 6 0.000000 0.000000 0.000000 0.002696 0.000000 0.121906
#
#
# Mechanical properties :
#
#
# Convention : Reuss Voigt Hill
#
# Bulk Modulus (GPa) = 41.92309 55.29943 48.61126
# Shear Modulus (GPa) = 17.78305 29.09637 23.43971
#
# Velocity S-wave (km/s) = 3.10383 3.97022 3.56345
# Velocity P-wave (km/s) = 5.96291 7.13965 6.57765
#
# Compressibility (1/GPa) = 0.02385320
#
# Stress axis : x y z
#
# Youngs Moduli (GPa) = 114.67792 32.47172 43.57546
#
# Poissons Ratio (x) = 0.14711 0.16303
# Poissons Ratio (y) = 0.51952 0.48082
# Poissons Ratio (z) = 0.42905 0.35830
#
# Static dielectric constant tensor:
#      x y z
#    x 1.620210 0.000000 0.003550 
#    y 0.000000 1.634520 0.000000 
#    z 0.003550 0.000000 1.668340 
# 
# From -- ./inp_files/30023.got.cif
#   From: 2010.05.17/outbox.cif.g08.bks.cpg/sg15_16_cif.got.tgz:30023.got - 2010.06.03 18:47:42.
