data_PCOD9262424
_publ_section_title
;
Structure prediction by ZEFSAII (Michael W. Deem and Ramdas Pophale) SiO2 
 PCOD9262424
Probable space group: C 2/C
;
_chemical_formula_sum "Si O2"
_cell_formula_units_Z 56
_cell_length_a 12.694432
_cell_length_b 24.007521
_cell_length_c 10.104772
_cell_angle_alpha 90.000000
_cell_angle_beta 108.083601
_cell_angle_gamma 90.000000
_cell_volume 2927.433426
_symmetry_space_group_name_H-M "C 2/C"
_symmetry_group_IT_number 15
_symmetry_cell_setting 'monoclinic'
loop_
_space_group_symop_operation_xyz
x,y,z
-x,y,1/2-z
-x,-y,-z
x,-y,1/2+z
1/2+x,1/2+y,z
1/2-x,1/2+y,1/2-z
1/2-x,1/2-y,-z
1/2+x,1/2-y,1/2+z
loop_
_atom_site_type_symbol
_atom_site_label
_atom_site_fract_x
_atom_site_fract_y
_atom_site_fract_z
Si Si1 0.366715 0.549295 0.209154
Si Si2 0.881146 0.735284 0.149993
Si Si3 0.867453 0.163645 0.843752
Si Si4 0.716368 0.335681 0.749232
Si Si5 0.178552 0.305886 0.446898
Si Si6 0.392492 0.538935 0.922030
Si Si7 0.028983 0.238552 0.087994
O O1 0.500000 0.553613 0.250000
O O2 0.328678 0.602492 0.278464
O O3 0.334647 0.495831 0.282768
O O4 0.332515 0.547289 0.040879
O O5 0.868748 0.796691 0.214477
O O6 0.790169 0.692264 0.165306
O O7 0.000000 0.715304 0.250000
O O8 0.891661 0.738971 0.997517
O O9 0.741041 0.165795 0.848925
O O10 0.910600 0.100312 0.865997
O O11 0.947669 0.195357 0.979908
O O12 0.609017 0.294906 0.718551
O O13 0.793280 0.338100 0.908383
O O14 0.250000 0.250000 0.500000
O O15 0.051612 0.287558 0.394984
O O16 0.500000 0.500000 0.000000
#
# Coordination Sequence:
#
# PCOD9262424 Si02
#       7
#     8   8   8   8   8   8   8
#     4  10  22  33  53  80 109 146 186 232 274 337
#     4  10  20  35  51  80 113 146 172 227 285 331
#     4  10  19  34  53  74 113 144 173 226 281 325
#     4  12  20  33  57  77 111 146 189 215 275 338
#     4  10  19  33  51  79 109 146 178 222 273 327
#     4  10  20  34  49  77 107 143 187 223 275 330
#     4  10  21  32  52  82 113 144 180 222 276 339
#
# _framework density 19.129386
#
# number of rings (size 3 to 8) (size 9 to 14) (size 15 to 20)
#    0.000    1.714    5.714    2.143    2.000    6.286 
#    0.000    0.000    0.000    0.000    0.000    6.000 
#    0.000    0.000    0.000    0.000    0.000    0.000 
#
# Total GULP energy -155957.509844 kJ/mol
# GULP energy per Si atom -5569.911066 kJ/mol
# Density = 1.908585 g / cm^3
# Si number density = 19.129386 Si / 1000 Ang^3
#
#
#
# Elastic Constant Matrix: (Units=GPa)
#
#
# Indices 1 2 3 4 5 6 
#
# 1 104.1807 42.8710 26.4535 0.0000 -11.0619 0.0000
# 2 42.8710 94.1752 15.4669 0.0000 -9.2453 0.0000
# 3 26.4535 15.4669 63.0232 0.0000 -2.9988 0.0000
# 4 0.0000 0.0000 0.0000 10.8060 0.0000 0.1559
# 5 -11.0619 -9.2453 -2.9988 0.0000 20.9139 0.0000
# 6 0.0000 0.0000 0.0000 0.1559 0.0000 17.4161
#
#
#
# Elastic Compliance Matrix: (Units=1/GPa)
#
#
# Indices 1 2 3 4 5 6 
#
# 1 0.013090 -0.004875 -0.004099 0.000000 0.004181 0.000000
# 2 -0.004875 0.013324 -0.001073 0.000000 0.003158 0.000000
# 3 -0.004099 -0.001073 0.017847 0.000000 -0.000083 0.000000
# 4 0.000000 0.000000 0.000000 0.092553 0.000000 -0.000829
# 5 0.004181 0.003158 -0.000083 0.000000 0.051410 0.000000
# 6 0.000000 0.000000 0.000000 -0.000829 0.000000 0.057425
#
#
# Mechanical properties :
#
#
# Convention : Reuss Voigt Hill
#
# Bulk Modulus (GPa) = 41.38056 47.88464 44.63260
# Shear Modulus (GPa) = 18.26151 21.59971 19.93061
#
# Velocity S-wave (km/s) = 3.09306 3.36391 3.23133
# Velocity P-wave (km/s) = 5.86813 6.33831 6.10775
#
# Compressibility (1/GPa) = 0.02416594
#
# Stress axis : x y z
#
# Youngs Moduli (GPa) = 76.39705 75.05216 56.03148
#
# Poissons Ratio (x) = 0.36589 0.22967
# Poissons Ratio (y) = 0.37244 0.06014
# Poissons Ratio (z) = 0.31314 0.08056
#
# Static dielectric constant tensor:
#      x y z
#    x 1.730620 0.000000 -0.043430 
#    y 0.000000 1.696570 0.000000 
#    z -0.043430 0.000000 1.813390 
# 
# From -- ./inp_files/89664.got.cif
#   From: 2010.05.17/outbox.cif.g08.bks.cpg/sg15_45_cif.got.tgz:89664.got - 2010.06.03 18:47:42.
