data_PCOD9262038
_publ_section_title
;
Structure prediction by ZEFSAII (Michael W. Deem and Ramdas Pophale) SiO2 
 PCOD9262038
Probable space group: C 2/C
;
_chemical_formula_sum "Si O2"
_cell_formula_units_Z 64
_cell_length_a 21.045479
_cell_length_b 27.694940
_cell_length_c 5.323634
_cell_angle_alpha 90.000000
_cell_angle_beta 74.430449
_cell_angle_gamma 90.000000
_cell_volume 2989.037772
_symmetry_space_group_name_H-M "C 2/C"
_symmetry_group_IT_number 15
_symmetry_cell_setting 'monoclinic'
loop_
_space_group_symop_operation_xyz
x,y,z
-x,y,1/2-z
-x,-y,-z
x,-y,1/2+z
1/2+x,1/2+y,z
1/2-x,1/2+y,1/2-z
1/2-x,1/2-y,-z
1/2+x,1/2-y,1/2+z
loop_
_atom_site_type_symbol
_atom_site_label
_atom_site_fract_x
_atom_site_fract_y
_atom_site_fract_z
Si Si1 0.765376 0.869127 0.663000
Si Si2 0.957132 0.233195 0.550582
Si Si3 0.834205 0.202702 0.373736
Si Si4 0.199549 0.700652 0.842922
Si Si5 0.753254 0.973584 0.529588
Si Si6 0.895282 0.487533 0.231127
Si Si7 0.040390 0.654166 0.445925
Si Si8 0.851158 0.614422 0.878860
O O1 0.830870 0.845542 0.709144
O O2 0.726384 0.823939 0.571392
O O3 0.769247 0.916639 0.487572
O O4 0.722420 0.889814 0.939955
O O5 0.890418 0.207444 0.525231
O O6 0.000000 0.216895 0.750000
O O7 0.940968 0.289722 0.616021
O O8 0.000000 0.231648 0.250000
O O9 0.833796 0.247489 0.175076
O O10 0.765148 0.203003 0.599859
O O11 0.148056 0.662143 0.788325
O O12 0.778359 0.002987 0.262276
O O13 0.673926 0.983391 0.645285
O O14 0.930828 0.491042 0.457138
O O15 0.876049 0.432198 0.214666
O O16 0.000000 0.637350 0.250000
O O17 0.104741 0.623154 0.424521
O O18 0.000000 0.650838 0.750000
#
# Coordination Sequence:
#
# PCOD9262038 Si02
#       8
#     8   8   8   8   8   8   8   8
#     4  11  22  32  59  86 117 159 182 237 298 363
#     4  10  22  40  62  78 110 161 204 241 276 327
#     4  10  22  37  51  89 122 154 193 235 291 352
#     4  10  21  35  53  83 124 153 184 233 298 356
#     4  10  19  35  53  81 115 146 192 228 281 354
#     4  10  19  32  52  80 104 140 189 232 287 354
#     4  10  23  39  55  79 103 144 203 253 278 331
#     4  11  21  34  58  79 108 152 193 240 299 345
#
# _framework density 21.411574000000002
#
# number of rings (size 3 to 8) (size 9 to 14) (size 15 to 20)
#    0.000    1.750    3.750    1.875    5.250    1.000 
#    0.000    0.000    0.000    2.250    0.000    0.000 
#    0.000    3.000    0.000    0.000    0.000    0.000 
#
# Total GULP energy -178651.559920 kJ/mol
# GULP energy per Si atom -5582.861248 kJ/mol
# Density = 2.136284 g / cm^3
# Si number density = 21.411574 Si / 1000 Ang^3
#
#
#
# Elastic Constant Matrix: (Units=GPa)
#
#
# Indices 1 2 3 4 5 6 
#
# 1 74.2989 51.3562 23.9766 0.0000 30.8055 0.0000
# 2 51.3562 92.2313 29.7982 0.0000 24.3985 0.0000
# 3 23.9766 29.7982 112.5520 0.0000 26.9276 0.0000
# 4 0.0000 0.0000 0.0000 24.8018 0.0000 15.1708
# 5 30.8055 24.3985 26.9276 0.0000 36.8824 0.0000
# 6 0.0000 0.0000 0.0000 15.1708 0.0000 5.1112
#
#
#
# Elastic Compliance Matrix: (Units=1/GPa)
#
#
# Indices 1 2 3 4 5 6 
#
# 1 0.027909 -0.011526 0.001041 0.000000 -0.016446 0.000000
# 2 -0.011526 0.018175 -0.002161 0.000000 -0.000819 0.000000
# 3 0.001041 -0.002161 0.011027 0.000000 -0.007491 0.000000
# 4 0.000000 0.000000 0.000000 -0.049438 0.000000 0.146739
# 5 -0.016446 -0.000819 -0.007491 0.000000 0.046860 0.000000
# 6 0.000000 0.000000 0.000000 0.146739 0.000000 -0.239895
#
#
# Mechanical properties :
#
#
# Convention : Reuss Voigt Hill
#
# Bulk Modulus (GPa) = 31.42753 54.37157 42.89955
# Shear Modulus (GPa) = -33.45285 24.95583 -4.24851
#
# Velocity S-wave (km/s) = -3.95697 3.41769 -1.41015
# Velocity P-wave (km/s) = 2.48338 6.40490 4.17466
#
# Compressibility (1/GPa) = 0.03181923
#
# Stress axis : x y z
#
# Youngs Moduli (GPa) = 35.83105 55.02134 90.68427
#
# Poissons Ratio (x) = 0.63417 -0.09438
# Poissons Ratio (y) = 0.41299 0.19593
# Poissons Ratio (z) = -0.03729 0.11888
#
# Static dielectric constant tensor:
#      x y z
#    x 1.819140 0.000000 0.043860 
#    y 0.000000 1.804810 0.000000 
#    z 0.043860 0.000000 1.893540 
# 
# From -- ./inp_files/12182.got.cif
#   From: 2010.05.17/outbox.cif.g08.bks.cpg/sg15_7_cif.got.tgz:12182.got - 2010.06.03 18:47:42.
