data_PCOD9262550
_publ_section_title
;
Structure prediction by ZEFSAII (Michael W. Deem and Ramdas Pophale) SiO2 
 PCOD9262550
Probable space group: C 2/C
;
_chemical_formula_sum "Si O2"
_cell_formula_units_Z 56
_cell_length_a 24.285178
_cell_length_b 10.453983
_cell_length_c 14.665618
_cell_angle_alpha 90.000000
_cell_angle_beta 137.762102
_cell_angle_gamma 90.000000
_cell_volume 2502.814744
_symmetry_space_group_name_H-M "C 2/C"
_symmetry_group_IT_number 15
_symmetry_cell_setting 'monoclinic'
loop_
_space_group_symop_operation_xyz
x,y,z
-x,y,1/2-z
-x,-y,-z
x,-y,1/2+z
1/2+x,1/2+y,z
1/2-x,1/2+y,1/2-z
1/2-x,1/2-y,-z
1/2+x,1/2-y,1/2+z
loop_
_atom_site_type_symbol
_atom_site_label
_atom_site_fract_x
_atom_site_fract_y
_atom_site_fract_z
Si Si1 0.424496 0.175601 0.217328
Si Si2 0.121460 0.062497 0.642047
Si Si3 0.127888 0.587247 0.645430
Si Si4 0.211377 0.981541 0.574381
Si Si5 0.073683 0.013761 0.774552
Si Si6 0.452049 0.836093 0.963759
Si Si7 0.213625 0.685562 0.581812
O O1 0.500000 0.128171 0.250000
O O2 0.425210 0.330917 0.214872
O O3 0.438535 0.142215 0.338636
O O4 0.340715 0.133317 0.067413
O O5 0.071240 0.993463 0.662163
O O6 0.078805 0.193856 0.556531
O O7 0.205112 0.108055 0.795345
O O8 0.150986 0.987929 0.589002
O O9 0.207402 0.560715 0.803767
O O10 0.102028 0.452779 0.564911
O O11 0.155379 0.680298 0.598665
O O12 0.047959 0.641316 0.597782
O O13 0.158158 0.030456 0.424359
O O14 0.234262 0.833150 0.590729
O O15 0.000000 0.968203 0.750000
#
# Coordination Sequence:
#
# PCOD9262550 Si02
#       7
#     8   8   8   8   8   8   8
#     4   9  16  29  52  80 109 135 178 246 284 316
#     4  10  21  35  58  85 113 154 190 232 294 336
#     4  10  20  33  52  79 114 147 182 235 276 346
#     4  10  21  36  57  86 114 150 187 240 287 340
#     4   9  20  35  54  85 115 141 193 239 284 332
#     4  10  19  33  53  83 110 147 189 229 293 336
#     4  10  19  34  54  83 114 146 190 236 286 337
#
# _framework density 22.374808000000002
#
# number of rings (size 3 to 8) (size 9 to 14) (size 15 to 20)
#    0.000    2.286    2.857    0.000    4.000    2.286 
#    0.000    0.000    0.000    5.143    0.000    0.000 
#    0.000    0.000    0.000    0.000    0.000    0.000 
#
# Total GULP energy -156437.342867 kJ/mol
# GULP energy per Si atom -5587.047960 kJ/mol
# Density = 2.232388 g / cm^3
# Si number density = 22.374808 Si / 1000 Ang^3
#
#
#
# Elastic Constant Matrix: (Units=GPa)
#
#
# Indices 1 2 3 4 5 6 
#
# 1 76.2459 16.5916 15.3052 0.0000 8.0334 0.0000
# 2 16.5916 36.5621 22.9087 0.0000 7.7153 0.0000
# 3 15.3052 22.9087 95.2168 0.0000 11.3844 0.0000
# 4 0.0000 0.0000 0.0000 19.9621 0.0000 1.3034
# 5 8.0334 7.7153 11.3844 0.0000 28.6397 0.0000
# 6 0.0000 0.0000 0.0000 1.3034 0.0000 20.5780
#
#
#
# Elastic Compliance Matrix: (Units=1/GPa)
#
#
# Indices 1 2 3 4 5 6 
#
# 1 0.014755 -0.005765 -0.000709 0.000000 -0.002304 0.000000
# 2 -0.005765 0.035428 -0.006981 0.000000 -0.005152 0.000000
# 3 -0.000709 -0.006981 0.012648 0.000000 -0.002948 0.000000
# 4 0.000000 0.000000 0.000000 0.050303 0.000000 -0.003186
# 5 -0.002304 -0.005152 -0.002948 0.000000 0.038123 0.000000
# 6 0.000000 0.000000 0.000000 -0.003186 0.000000 0.048797
#
#
# Mechanical properties :
#
#
# Convention : Reuss Voigt Hill
#
# Bulk Modulus (GPa) = 27.83917 35.29286 31.56602
# Shear Modulus (GPa) = 20.92578 24.05057 22.48817
#
# Velocity S-wave (km/s) = 3.06148 3.28212 3.17372
# Velocity P-wave (km/s) = 4.99661 5.49279 5.25057
#
# Compressibility (1/GPa) = 0.03592060
#
# Stress axis : x y z
#
# Youngs Moduli (GPa) = 67.77314 28.22602 79.06081
#
# Poissons Ratio (x) = 0.16273 0.05607
# Poissons Ratio (y) = 0.39073 0.55194
# Poissons Ratio (z) = 0.04806 0.19705
#
# Static dielectric constant tensor:
#      x y z
#    x 1.883420 0.000000 0.022070 
#    y 0.000000 1.802630 0.000000 
#    z 0.022070 0.000000 1.846770 
# 
# From -- ./inp_files/177599.got.cif
#   From: 2010.05.17/outbox.cif.g08.bks.cpg/sg15_89_cif.got.tgz:177599.got - 2010.06.03 18:47:42.
