data_PCOD9262435
_publ_section_title
;
Structure prediction by ZEFSAII (Michael W. Deem and Ramdas Pophale) SiO2 
 PCOD9262435
Probable space group: C 2/C
;
_chemical_formula_sum "Si O2"
_cell_formula_units_Z 56
_cell_length_a 25.241142
_cell_length_b 12.450506
_cell_length_c 20.619199
_cell_angle_alpha 90.000000
_cell_angle_beta 160.683449
_cell_angle_gamma 90.000000
_cell_volume 2143.464248
_symmetry_space_group_name_H-M "C 2/C"
_symmetry_group_IT_number 15
_symmetry_cell_setting 'monoclinic'
loop_
_space_group_symop_operation_xyz
x,y,z
-x,y,1/2-z
-x,-y,-z
x,-y,1/2+z
1/2+x,1/2+y,z
1/2-x,1/2+y,1/2-z
1/2-x,1/2-y,-z
1/2+x,1/2-y,1/2+z
loop_
_atom_site_type_symbol
_atom_site_label
_atom_site_fract_x
_atom_site_fract_y
_atom_site_fract_z
Si Si1 0.259723 0.025465 0.214116
Si Si2 0.560543 0.251427 0.660933
Si Si3 0.492679 0.125924 0.164978
Si Si4 0.570699 0.837234 0.039652
Si Si5 0.188786 0.850769 0.969746
Si Si6 0.836953 0.916233 0.032726
Si Si7 0.199830 0.405515 0.594395
O O1 0.426974 0.073511 0.377528
O O2 0.243023 0.079509 0.265269
O O3 0.277144 0.903108 0.258334
O O4 0.142545 0.047981 0.018823
O O5 0.523969 0.243802 0.542200
O O6 0.646145 0.366805 0.769136
O O7 0.416814 0.198667 0.535336
O O8 0.697780 0.163926 0.837083
O O9 0.500000 0.139905 0.250000
O O10 0.677089 0.150128 0.357677
O O11 0.404140 0.008228 0.049746
O O12 0.404611 0.195622 0.006410
O O13 0.207514 0.976359 0.977234
O O14 0.000000 0.836833 0.750000
O O15 0.250000 0.750000 0.000000
O O16 0.000000 0.872100 0.250000
#
# Coordination Sequence:
#
# PCOD9262435 Si02
#       7
#     8   8   8   8   8   8   8
#     4   8  14  33  50  70  91 135 180 207 242 301
#     4  11  19  35  50  77 102 141 171 207 256 307
#     4  10  20  36  52  77 102 136 175 214 256 303
#     4   8  15  31  55  67  95 135 179 210 243 301
#     4  11  22  30  44  71 109 142 165 197 245 309
#     4  10  19  33  52  72  99 139 175 205 247 307
#     4  10  21  32  54  74 105 134 170 214 257 310
#
# _framework density 26.125931000000001
#
# number of rings (size 3 to 8) (size 9 to 14) (size 15 to 20)
#    0.000    2.286    2.857    2.571    2.000    0.000 
#    0.000    1.429    0.000    4.286    0.000    6.000 
#    0.000    0.000    0.000    0.000    0.000    0.000 
#
# Total GULP energy -155875.869172 kJ/mol
# GULP energy per Si atom -5566.995328 kJ/mol
# Density = 2.606647 g / cm^3
# Si number density = 26.125931 Si / 1000 Ang^3
#
#
#
# Elastic Constant Matrix: (Units=GPa)
#
#
# Indices 1 2 3 4 5 6 
#
# 1 91.4827 3.8216 33.9631 -0.0058 -45.3597 -0.0033
# 2 3.8216 63.1344 4.9953 -0.0044 5.0509 -0.0029
# 3 33.9631 4.9953 104.4465 -0.0076 -31.0686 -0.0050
# 4 -0.0058 -0.0044 -0.0076 6.3728 -0.0053 -4.2982
# 5 -45.3597 5.0509 -31.0686 -0.0053 53.7785 -0.0033
# 6 -0.0033 -0.0029 -0.0050 -4.2982 -0.0033 17.3811
#
#
#
# Elastic Compliance Matrix: (Units=1/GPa)
#
#
# Indices 1 2 3 4 5 6 
#
# 1 0.019361 -0.002304 -0.001526 0.000037 0.015665 0.000015
# 2 -0.002304 0.016420 -0.001295 0.000006 -0.004234 0.000003
# 3 -0.001526 -0.001295 0.011816 0.000023 0.005661 0.000010
# 4 0.000037 0.000006 0.000023 0.188327 0.000066 0.046571
# 5 0.015665 -0.004234 0.005661 0.000066 0.035476 0.000027
# 6 0.000015 0.000003 0.000010 0.046571 0.000027 0.069050
#
#
# Mechanical properties :
#
#
# Convention : Reuss Voigt Hill
#
# Bulk Modulus (GPa) = 26.77669 38.29152 32.53411
# Shear Modulus (GPa) = 13.76842 29.92540 21.84691
#
# Velocity S-wave (km/s) = 2.29814 3.38809 2.89488
# Velocity P-wave (km/s) = 4.16092 5.47667 4.86349
#
# Compressibility (1/GPa) = 0.03734592
#
# Stress axis : x y z
#
# Youngs Moduli (GPa) = 51.65059 60.90144 84.62845
#
# Poissons Ratio (x) = 0.14035 0.12912
# Poissons Ratio (y) = 0.11903 0.10964
# Poissons Ratio (z) = 0.07880 0.07890
#
# Static dielectric constant tensor:
#      x y z
#    x 2.132180 0.000000 0.016080 
#    y 0.000000 2.085840 0.000000 
#    z 0.016080 0.000000 2.050490 
# 
# From -- ./inp_files/257991.got.cif
#   From: 2010.05.17/outbox.cif.g08.bks.cpg/sg15_129_cif.got.tgz:257991.got - 2010.06.03 18:47:42.
