data_PCOD9262381
_publ_section_title
;
Structure prediction by ZEFSAII (Michael W. Deem and Ramdas Pophale) SiO2 
 PCOD9262381
Probable space group: C 2/C
;
_chemical_formula_sum "Si O2"
_cell_formula_units_Z 56
_cell_length_a 18.353746
_cell_length_b 24.346685
_cell_length_c 5.602501
_cell_angle_alpha 90.000000
_cell_angle_beta 102.597685
_cell_angle_gamma 90.000000
_cell_volume 2443.223494
_symmetry_space_group_name_H-M "C 2/C"
_symmetry_group_IT_number 15
_symmetry_cell_setting 'monoclinic'
loop_
_space_group_symop_operation_xyz
x,y,z
-x,y,1/2-z
-x,-y,-z
x,-y,1/2+z
1/2+x,1/2+y,z
1/2-x,1/2+y,1/2-z
1/2-x,1/2-y,-z
1/2+x,1/2-y,1/2+z
loop_
_atom_site_type_symbol
_atom_site_label
_atom_site_fract_x
_atom_site_fract_y
_atom_site_fract_z
Si Si1 0.500000 0.893004 0.750000
Si Si2 0.636433 0.633439 0.633647
Si Si3 0.765222 0.311306 0.921724
Si Si4 0.755950 0.608701 0.033684
Si Si5 0.500000 0.647352 0.250000
Si Si6 0.882319 0.338803 0.340734
Si Si7 0.865686 0.467947 0.832613
Si Si8 0.424311 0.272682 0.077447
O O1 0.459970 0.860487 0.502843
O O2 0.436920 0.929303 0.834587
O O3 0.702855 0.651422 0.507274
O O4 0.561165 0.614740 0.448525
O O5 0.612899 0.689173 0.752208
O O6 0.677647 0.595142 0.855948
O O7 0.850735 0.327687 0.052404
O O8 0.750000 0.250000 0.000000
O O9 0.751643 0.330166 0.643404
O O10 0.788632 0.565860 0.244351
O O11 0.822952 0.616845 0.894408
O O12 0.450747 0.687201 0.383379
O O13 0.877064 0.277976 0.450893
O O14 0.868461 0.508138 0.602142
O O15 0.500000 0.250423 0.250000
#
# Coordination Sequence:
#
# PCOD9262381 Si02
#       8
#     4   8   8   8   4   8   8   8
#     4  10  22  42  62  93 124 172 215 286 330 390
#     4  10  20  34  55  80 119 155 206 253 305 381
#     4  11  21  35  58  84 122 168 209 259 317 383
#     4  10  23  38  60  87 119 158 216 267 325 391
#     4  10  20  32  52  81 118 164 205 242 304 378
#     4  10  20  36  53  83 122 163 214 264 313 376
#     4  11  26  47  71  95 128 169 224 284 348 394
#     4  10  19  33  49  79 122 166 208 246 302 370
#
# _framework density 22.920541
#
# number of rings (size 3 to 8) (size 9 to 14) (size 15 to 20)
#    0.000    1.714    0.714    3.857    6.000    3.429 
#    2.571    0.000    0.000    0.000    0.000    1.000 
#    0.000    0.000    0.000    0.000    0.000    0.000 
#
# Total GULP energy -156200.762370 kJ/mol
# GULP energy per Si atom -5578.598656 kJ/mol
# Density = 2.286837 g / cm^3
# Si number density = 22.920541 Si / 1000 Ang^3
#
#
#
# Elastic Constant Matrix: (Units=GPa)
#
#
# Indices 1 2 3 4 5 6 
#
# 1 93.8351 28.3587 52.7078 0.0000 30.4064 0.0000
# 2 28.3587 36.3194 23.0926 0.0000 10.1061 0.0000
# 3 52.7078 23.0926 116.8032 0.0000 47.6074 0.0000
# 4 0.0000 0.0000 0.0000 14.0750 0.0000 4.0453
# 5 30.4064 10.1061 47.6074 0.0000 57.2813 0.0000
# 6 0.0000 0.0000 0.0000 4.0453 0.0000 25.9920
#
#
#
# Elastic Compliance Matrix: (Units=1/GPa)
#
#
# Indices 1 2 3 4 5 6 
#
# 1 0.017243 -0.009656 -0.004288 0.000000 -0.003885 0.000000
# 2 -0.009656 0.036912 -0.003592 0.000000 0.001599 0.000000
# 3 -0.004288 -0.003592 0.015154 0.000000 -0.009685 0.000000
# 4 0.000000 0.000000 0.000000 0.074375 0.000000 -0.011575
# 5 -0.003885 0.001599 -0.009685 0.000000 0.027287 0.000000
# 6 0.000000 0.000000 0.000000 -0.011575 0.000000 0.040275
#
#
# Mechanical properties :
#
#
# Convention : Reuss Voigt Hill
#
# Bulk Modulus (GPa) = 29.20850 50.58621 39.89736
# Shear Modulus (GPa) = 19.40013 28.98958 24.19486
#
# Velocity S-wave (km/s) = 2.91247 3.56024 3.25252
# Velocity P-wave (km/s) = 4.90724 6.24649 5.61692
#
# Compressibility (1/GPa) = 0.03423660
#
# Stress axis : x y z
#
# Youngs Moduli (GPa) = 57.99475 27.09145 65.98902
#
# Poissons Ratio (x) = 0.26159 0.28298
# Poissons Ratio (y) = 0.55999 0.23704
# Poissons Ratio (z) = 0.24870 0.09731
#
# Static dielectric constant tensor:
#      x y z
#    x 1.901150 0.000000 -0.018440 
#    y 0.000000 1.857530 0.000000 
#    z -0.018440 0.000000 2.002900 
# 
# From -- ./inp_files/11600.got.cif
#   From: 2010.05.17/outbox.cif.g08.bks.cpg/sg15_6_cif.got.tgz:11600.got - 2010.06.03 18:47:42.
