data_PCOD9262954
_publ_section_title
;
Structure prediction by ZEFSAII (Michael W. Deem and Ramdas Pophale) SiO2 
 PCOD9262954
Probable space group: C 2/C
;
_chemical_formula_sum "Si O2"
_cell_formula_units_Z 56
_cell_length_a 16.302982
_cell_length_b 18.339120
_cell_length_c 8.236099
_cell_angle_alpha 90.000000
_cell_angle_beta 84.502030
_cell_angle_gamma 90.000000
_cell_volume 2451.119916
_symmetry_space_group_name_H-M "C 2/C"
_symmetry_group_IT_number 15
_symmetry_cell_setting 'monoclinic'
loop_
_space_group_symop_operation_xyz
x,y,z
-x,y,1/2-z
-x,-y,-z
x,-y,1/2+z
1/2+x,1/2+y,z
1/2-x,1/2+y,1/2-z
1/2-x,1/2-y,-z
1/2+x,1/2-y,1/2+z
loop_
_atom_site_type_symbol
_atom_site_label
_atom_site_fract_x
_atom_site_fract_y
_atom_site_fract_z
Si Si1 0.336830 0.808500 0.293192
Si Si2 0.254924 0.166607 0.128367
Si Si3 0.263281 0.552020 0.105163
Si Si4 0.386301 0.938771 0.056783
Si Si5 0.000000 0.786025 0.750000
Si Si6 0.620794 0.457815 0.189734
Si Si7 0.919266 0.103934 0.478473
Si Si8 0.000000 0.543324 0.250000
O O1 0.325492 0.836444 0.479771
O O2 0.263584 0.748357 0.303688
O O3 0.343196 0.873147 0.162958
O O4 0.420394 0.763745 0.254598
O O5 0.270956 0.115773 0.277425
O O6 0.169820 0.136829 0.060243
O O7 0.308370 0.494368 0.210644
O O8 0.188340 0.519408 0.017698
O O9 0.333005 0.580357 0.967772
O O10 0.435765 0.990460 0.169228
O O11 0.450458 0.915598 0.902378
O O12 0.987438 0.840543 0.902950
O O13 0.574279 0.526211 0.115681
O O14 0.576486 0.409088 0.331152
#
# Coordination Sequence:
#
# PCOD9262954 Si02
#       8
#     8   8   8   8   4   8   8   4
#     4  10  21  39  59  79 110 152 189 229 277 330
#     4   9  20  37  58  84 111 143 190 235 276 327
#     4  10  19  33  58  85 110 143 183 233 283 333
#     4  11  22  38  58  78 111 147 182 230 283 337
#     4  10  21  36  56  76 107 154 194 218 266 336
#     4   9  18  33  55  86 115 138 176 229 287 334
#     4   9  18  34  56  83 113 145 182 228 278 334
#     4  10  25  40  52  82 115 144 182 226 282 350
#
# _framework density 22.846699000000001
#
# number of rings (size 3 to 8) (size 9 to 14) (size 15 to 20)
#    0.000    2.286    0.000    2.143    0.000    6.857 
#    0.000    1.429    0.000    3.429    0.000    0.000 
#    0.000    0.000    0.000    0.000    0.000    0.000 
#
# Total GULP energy -156515.175067 kJ/mol
# GULP energy per Si atom -5589.827681 kJ/mol
# Density = 2.279470 g / cm^3
# Si number density = 22.846699 Si / 1000 Ang^3
#
#
#
# Elastic Constant Matrix: (Units=GPa)
#
#
# Indices 1 2 3 4 5 6 
#
# 1 82.4533 20.6991 45.4909 0.0000 0.5518 0.0000
# 2 20.6991 73.4059 52.5499 0.0000 -14.0348 0.0000
# 3 45.4909 52.5499 163.3356 0.0000 -35.9122 0.0000
# 4 0.0000 0.0000 0.0000 33.1335 0.0000 -20.7066
# 5 0.5518 -14.0348 -35.9122 0.0000 51.7656 0.0000
# 6 0.0000 0.0000 0.0000 -20.7066 0.0000 15.7821
#
#
#
# Elastic Compliance Matrix: (Units=1/GPa)
#
#
# Indices 1 2 3 4 5 6 
#
# 1 0.015047 -0.001778 -0.004437 0.000000 -0.003720 0.000000
# 2 -0.001778 0.017954 -0.004964 0.000000 0.001443 0.000000
# 3 -0.004437 -0.004964 0.010230 0.000000 0.005798 0.000000
# 4 0.000000 0.000000 0.000000 0.167625 0.000000 0.219930
# 5 -0.003720 0.001443 0.005798 0.000000 0.023771 0.000000
# 6 0.000000 0.000000 0.000000 0.219930 0.000000 0.351919
#
#
# Mechanical properties :
#
#
# Convention : Reuss Voigt Hill
#
# Bulk Modulus (GPa) = 47.90763 61.85273 54.88018
# Shear Modulus (GPa) = 8.11872 33.49989 20.80931
#
# Velocity S-wave (km/s) = 1.88713 3.83337 3.02126
# Velocity P-wave (km/s) = 5.07573 6.83555 6.02029
#
# Compressibility (1/GPa) = 0.02087350
#
# Stress axis : x y z
#
# Youngs Moduli (GPa) = 66.45755 55.69907 97.75254
#
# Poissons Ratio (x) = 0.09904 0.43370
# Poissons Ratio (y) = 0.11817 0.48521
# Poissons Ratio (z) = 0.29485 0.27647
#
# Static dielectric constant tensor:
#      x y z
#    x 1.917210 0.000000 -0.036130 
#    y 0.000000 1.864990 0.000000 
#    z -0.036130 0.000000 1.884430 
# 
# From -- ./inp_files/49724.got.cif
#   From: 2010.05.17/outbox.cif.g08.bks.cpg/sg15_25_cif.got.tgz:49724.got - 2010.06.03 18:47:42.
