data_PCOD9262881
_publ_section_title
;
Structure prediction by ZEFSAII (Michael W. Deem and Ramdas Pophale) SiO2 
 PCOD9262881
Probable space group: C 2/C
;
_chemical_formula_sum "Si O2"
_cell_formula_units_Z 60
_cell_length_a 13.891311
_cell_length_b 16.257156
_cell_length_c 24.338365
_cell_angle_alpha 90.000000
_cell_angle_beta 27.785277
_cell_angle_gamma 90.000000
_cell_volume 2562.203251
_symmetry_space_group_name_H-M "C 2/C"
_symmetry_group_IT_number 15
_symmetry_cell_setting 'monoclinic'
loop_
_space_group_symop_operation_xyz
x,y,z
-x,y,1/2-z
-x,-y,-z
x,-y,1/2+z
1/2+x,1/2+y,z
1/2-x,1/2+y,1/2-z
1/2-x,1/2-y,-z
1/2+x,1/2-y,1/2+z
loop_
_atom_site_type_symbol
_atom_site_label
_atom_site_fract_x
_atom_site_fract_y
_atom_site_fract_z
Si Si1 0.855548 0.964486 0.492409
Si Si2 0.927001 0.712709 0.599425
Si Si3 0.000000 0.192622 0.750000
Si Si4 0.659271 0.045756 0.206376
Si Si5 0.694954 0.164952 0.998666
Si Si6 0.274160 0.800282 0.647888
Si Si7 0.456398 0.379587 0.645723
Si Si8 0.801296 0.378446 0.269266
O O1 0.692037 0.907876 0.543739
O O2 0.067908 0.912341 0.382024
O O3 0.811057 0.974171 0.578970
O O4 0.879373 0.049622 0.448065
O O5 0.708446 0.729734 0.676376
O O6 0.119683 0.687418 0.464273
O O7 0.001421 0.793520 0.593944
O O8 0.876400 0.646045 0.671086
O O9 0.872254 0.147733 0.863327
O O10 0.500000 0.098202 0.250000
O O11 0.578134 0.956569 0.267231
O O12 0.768318 0.087008 0.202448
O O13 0.750000 0.250000 0.000000
O O14 0.472839 0.182276 0.085707
O O15 0.104093 0.859680 0.761024
O O16 0.203891 0.705460 0.692393
#
# Coordination Sequence:
#
# PCOD9262881 Si02
#       8
#     8   8   4   8   8   8   8   8
#     4  11  20  36  54  79 118 151 184 234 290 333
#     4  10  19  33  57  83 112 150 191 234 280 338
#     4  10  20  30  54  82 118 142 182 232 284 324
#     4  11  23  35  56  82 114 150 189 238 285 334
#     4  11  19  32  54  84 114 149 186 233 274 339
#     4  10  19  33  57  84 108 149 193 229 278 342
#     4  10  21  34  54  85 114 152 187 235 284 339
#     4  10  19  37  55  81 116 151 190 233 287 332
#
# _framework density 23.417345000000001
#
# number of rings (size 3 to 8) (size 9 to 14) (size 15 to 20)
#    0.000    1.600    2.667    4.800    2.800    0.000 
#    0.000    2.667    2.933    7.200    1.733    0.000 
#    0.000    0.000    0.000    0.000    0.000    0.000 
#
# Total GULP energy -167367.324238 kJ/mol
# GULP energy per Si atom -5578.910808 kJ/mol
# Density = 2.336405 g / cm^3
# Si number density = 23.417345 Si / 1000 Ang^3
#
#
#
# Elastic Constant Matrix: (Units=GPa)
#
#
# Indices 1 2 3 4 5 6 
#
# 1 54.3734 12.9725 13.9342 0.0015 3.0483 -0.0011
# 2 12.9725 90.7751 46.9154 -0.0016 20.7946 0.0003
# 3 13.9342 46.9154 156.5853 -0.0064 34.1281 0.0036
# 4 0.0015 -0.0016 -0.0064 13.4560 -0.0012 1.0583
# 5 3.0483 20.7946 34.1281 -0.0012 35.3339 0.0010
# 6 -0.0011 0.0003 0.0036 1.0583 0.0010 23.4568
#
#
#
# Elastic Compliance Matrix: (Units=1/GPa)
#
#
# Indices 1 2 3 4 5 6 
#
# 1 0.019205 -0.002322 -0.001203 -0.000003 0.000872 0.000001
# 2 -0.002322 0.014033 -0.002839 0.000000 -0.005316 0.000000
# 3 -0.001203 -0.002839 0.008812 0.000004 -0.006737 -0.000001
# 4 -0.000003 0.000000 0.000004 0.074581 -0.000001 -0.003365
# 5 0.000872 -0.005316 -0.006737 -0.000001 0.037862 0.000000
# 6 0.000001 0.000000 -0.000001 -0.003365 0.000000 0.042783
#
#
# Mechanical properties :
#
#
# Convention : Reuss Voigt Hill
#
# Bulk Modulus (GPa) = 34.10564 49.93089 42.01826
# Shear Modulus (GPa) = 22.74999 29.64344 26.19672
#
# Velocity S-wave (km/s) = 3.12027 3.56177 3.34831
# Velocity P-wave (km/s) = 5.25141 6.18736 5.73850
#
# Compressibility (1/GPa) = 0.02932067
#
# Stress axis : x y z
#
# Youngs Moduli (GPa) = 52.06998 71.25865 113.47672
#
# Poissons Ratio (x) = 0.16550 0.13654
# Poissons Ratio (y) = 0.12093 0.32219
# Poissons Ratio (z) = 0.06265 0.20232
#
# Static dielectric constant tensor:
#      x y z
#    x 1.934450 0.000000 -0.048150 
#    y 0.000000 1.872360 0.000010 
#    z -0.048150 0.000010 1.939540 
# 
# From -- ./inp_files/277547.got.cif
#   From: 2010.05.17/outbox.cif.g08.bks.cpg/sg15_139_cif.got.tgz:277547.got - 2010.06.03 18:47:42.
