data_PCOD9262666
_publ_section_title
;
Structure prediction by ZEFSAII (Michael W. Deem and Ramdas Pophale) SiO2 
 PCOD9262666
Probable space group: C 2/C
;
_chemical_formula_sum "Si O2"
_cell_formula_units_Z 44
_cell_length_a 20.759229
_cell_length_b 19.590821
_cell_length_c 13.811367
_cell_angle_alpha 90.000000
_cell_angle_beta 154.721565
_cell_angle_gamma 90.000000
_cell_volume 2398.536052
_symmetry_space_group_name_H-M "C 2/C"
_symmetry_group_IT_number 15
_symmetry_cell_setting 'monoclinic'
loop_
_space_group_symop_operation_xyz
x,y,z
-x,y,1/2-z
-x,-y,-z
x,-y,1/2+z
1/2+x,1/2+y,z
1/2-x,1/2+y,1/2-z
1/2-x,1/2-y,-z
1/2+x,1/2-y,1/2+z
loop_
_atom_site_type_symbol
_atom_site_label
_atom_site_fract_x
_atom_site_fract_y
_atom_site_fract_z
Si Si1 0.109169 0.965465 0.253459
Si Si2 0.928007 0.552405 0.257982
Si Si3 0.000000 0.079121 0.250000
Si Si4 0.757725 0.330721 0.018928
Si Si5 0.678620 0.414139 0.718898
Si Si6 0.013911 0.594689 0.962068
O O1 0.247942 0.937103 0.503639
O O2 0.185200 0.008429 0.269699
O O3 0.018403 0.025395 0.186986
O O4 0.988943 0.910868 0.052563
O O5 0.004015 0.596009 0.446769
O O6 0.000000 0.560861 0.250000
O O7 0.949968 0.475210 0.327568
O O8 0.143590 0.129561 0.437407
O O9 0.924232 0.348378 0.282294
O O10 0.750000 0.250000 0.000000
O O11 0.716319 0.364695 0.859505
O O12 0.809066 0.404386 0.818886
#
# Coordination Sequence:
#
# PCOD9262666 Si02
#       6
#     8   8   4   8   8   8
#     4  10  19  33  54  87 120 147 189 245 298 345
#     4  11  20  34  57  87 122 148 189 244 297 357
#     4  10  20  34  52  86 114 152 192 242 288 344
#     4  11  24  38  57  85 122 158 198 240 284 358
#     4  10  20  34  57  82 120 155 190 236 297 353
#     4  11  21  35  57  85 118 158 190 235 301 343
#
# _framework density 18.344524
#
# number of rings (size 3 to 8) (size 9 to 14) (size 15 to 20)
#    0.000    1.455    5.455    1.636    5.091    1.455 
#    0.000    0.000    0.000    1.091    2.364    0.000 
#    0.000    0.000    0.000    0.000    0.000    0.000 
#
# Total GULP energy -122613.548438 kJ/mol
# GULP energy per Si atom -5573.343111 kJ/mol
# Density = 1.830277 g / cm^3
# Si number density = 18.344524 Si / 1000 Ang^3
#
#
#
# Elastic Constant Matrix: (Units=GPa)
#
#
# Indices 1 2 3 4 5 6 
#
# 1 97.9706 18.9100 44.8041 0.0000 -12.3694 0.0000
# 2 18.9100 59.7506 51.7875 0.0000 -13.1703 0.0000
# 3 44.8041 51.7875 140.7465 0.0000 -12.7927 0.0000
# 4 0.0000 0.0000 0.0000 15.3022 0.0000 1.0333
# 5 -12.3694 -13.1703 -12.7927 0.0000 27.5036 0.0000
# 6 0.0000 0.0000 0.0000 1.0333 0.0000 6.9105
#
#
#
# Elastic Compliance Matrix: (Units=1/GPa)
#
#
# Indices 1 2 3 4 5 6 
#
# 1 0.012332 0.000078 -0.003599 0.000000 0.003909 0.000000
# 2 0.000078 0.026333 -0.008943 0.000000 0.008485 0.000000
# 3 -0.003599 -0.008943 0.011491 0.000000 -0.000556 0.000000
# 4 0.000000 0.000000 0.000000 0.066017 0.000000 -0.009871
# 5 0.003909 0.008485 -0.000556 0.000000 0.041922 0.000000
# 6 0.000000 0.000000 0.000000 -0.009871 0.000000 0.146184
#
#
# Mechanical properties :
#
#
# Convention : Reuss Voigt Hill
#
# Bulk Modulus (GPa) = 39.63852 58.83010 49.23431
# Shear Modulus (GPa) = 14.80986 22.14100 18.47543
#
# Velocity S-wave (km/s) = 2.84442 3.47789 3.17698
# Velocity P-wave (km/s) = 5.69582 6.94743 6.35253
#
# Compressibility (1/GPa) = 0.02522799
#
# Stress axis : x y z
#
# Youngs Moduli (GPa) = 81.09300 37.97553 87.02780
#
# Poissons Ratio (x) = -0.00298 0.31322
# Poissons Ratio (y) = -0.00636 0.77827
# Poissons Ratio (z) = 0.29186 0.33961
#
# Static dielectric constant tensor:
#      x y z
#    x 1.725440 0.000000 0.008070 
#    y 0.000000 1.593470 0.000000 
#    z 0.008070 0.000000 1.674140 
# 
# From -- ./inp_files/114149.got.cif
#   From: 2010.05.17/outbox.cif.g08.bks.cpg/sg15_58_cif.got.tgz:114149.got - 2010.06.03 18:47:42.
