data_PCOD9262858
_publ_section_title
;
Structure prediction by ZEFSAII (Michael W. Deem and Ramdas Pophale) SiO2 
 PCOD9262858
Probable space group: C 2/C
;
_chemical_formula_sum "Si O2"
_cell_formula_units_Z 40
_cell_length_a 12.779393
_cell_length_b 15.106796
_cell_length_c 9.382423
_cell_angle_alpha 90.000000
_cell_angle_beta 109.223453
_cell_angle_gamma 90.000000
_cell_volume 1710.333350
_symmetry_space_group_name_H-M "C 2/C"
_symmetry_group_IT_number 15
_symmetry_cell_setting 'monoclinic'
loop_
_space_group_symop_operation_xyz
x,y,z
-x,y,1/2-z
-x,-y,-z
x,-y,1/2+z
1/2+x,1/2+y,z
1/2-x,1/2+y,1/2-z
1/2-x,1/2-y,-z
1/2+x,1/2-y,1/2+z
loop_
_atom_site_type_symbol
_atom_site_label
_atom_site_fract_x
_atom_site_fract_y
_atom_site_fract_z
Si Si1 0.578243 0.548510 0.151657
Si Si2 0.380012 0.122425 0.164360
Si Si3 0.054072 0.804325 0.458227
Si Si4 0.301447 0.255491 0.364904
Si Si5 0.278035 0.407062 0.154074
O O1 0.500000 0.554577 0.250000
O O2 0.314503 0.490816 0.262444
O O3 0.500000 0.500000 0.000000
O O4 0.604204 0.648724 0.118255
O O5 0.500000 0.078962 0.250000
O O6 0.409187 0.209921 0.083096
O O7 0.329228 0.165888 0.286254
O O8 0.300228 0.072563 0.016624
O O9 0.108668 0.868302 0.363953
O O10 0.924308 0.799214 0.430763
O O11 0.250000 0.250000 0.500000
O O12 0.236763 0.327473 0.237503
#
# Coordination Sequence:
#
# PCOD9262858 Si02
#       5
#     8   8   8   8   8
#     4  12  22  37  59  92 131 165 200 262 322 391
#     4   9  21  40  62  83 124 172 214 259 314 383
#     4  10  20  37  60  89 129 161 205 253 320 375
#     4  10  19  33  56  93 127 162 204 262 317 374
#     4  11  20  39  59  87 127 174 210 256 329 373
#
# _framework density 23.387255
#
# number of rings (size 3 to 8) (size 9 to 14) (size 15 to 20)
#    0.000    1.600    4.000    4.200    0.000    3.200 
#    0.000    5.000    0.000    1.200    0.000    0.000 
#    0.000   33.600    0.000    0.000    0.000    0.000 
#
# Total GULP energy -111522.103481 kJ/mol
# GULP energy per Si atom -5576.105174 kJ/mol
# Density = 2.333402 g / cm^3
# Si number density = 23.387255 Si / 1000 Ang^3
#
#
#
# Elastic Constant Matrix: (Units=GPa)
#
#
# Indices 1 2 3 4 5 6 
#
# 1 110.1595 13.2256 76.3006 0.0000 13.3119 0.0000
# 2 13.2256 43.0959 18.3491 0.0000 3.4970 0.0000
# 3 76.3006 18.3491 173.2991 0.0000 -11.4189 0.0000
# 4 0.0000 0.0000 0.0000 44.2767 0.0000 6.1956
# 5 13.3119 3.4970 -11.4189 0.0000 65.1560 0.0000
# 6 0.0000 0.0000 0.0000 6.1956 0.0000 21.5732
#
#
#
# Elastic Compliance Matrix: (Units=1/GPa)
#
#
# Indices 1 2 3 4 5 6 
#
# 1 0.014087 -0.001314 -0.006321 0.000000 -0.003915 0.000000
# 2 -0.001314 0.024627 -0.002123 0.000000 -0.001425 0.000000
# 3 -0.006321 -0.002123 0.008974 0.000000 0.002978 0.000000
# 4 0.000000 0.000000 0.000000 0.023531 0.000000 -0.006758
# 5 -0.003915 -0.001425 0.002978 0.000000 0.016746 0.000000
# 6 0.000000 0.000000 0.000000 -0.006758 0.000000 0.048294
#
#
# Mechanical properties :
#
#
# Convention : Reuss Voigt Hill
#
# Bulk Modulus (GPa) = 35.49602 60.25611 47.87607
# Shear Modulus (GPa) = 30.27253 40.77980 35.52617
#
# Velocity S-wave (km/s) = 3.60168 4.18026 3.90171
# Velocity P-wave (km/s) = 5.70146 7.00856 6.38853
#
# Compressibility (1/GPa) = 0.02817217
#
# Stress axis : x y z
#
# Youngs Moduli (GPa) = 70.98826 40.60614 111.42767
#
# Poissons Ratio (x) = 0.05336 0.70434
# Poissons Ratio (y) = 0.09328 0.23655
# Poissons Ratio (z) = 0.44872 0.08620
#
# Static dielectric constant tensor:
#      x y z
#    x 1.989430 0.000000 0.111970 
#    y 0.000000 1.957130 0.000000 
#    z 0.111970 0.000000 2.150280 
# 
# From -- ./inp_files/29230.got.cif
#   From: 2010.05.17/outbox.cif.g08.bks.cpg/sg15_15_cif.got.tgz:29230.got - 2010.06.03 18:47:42.
