data_PCOD9262853
_publ_section_title
;
Structure prediction by ZEFSAII (Michael W. Deem and Ramdas Pophale) SiO2 
 PCOD9262853
Probable space group: C 2/C
;
_chemical_formula_sum "Si O2"
_cell_formula_units_Z 56
_cell_length_a 20.201658
_cell_length_b 12.577314
_cell_length_c 24.286652
_cell_angle_alpha 90.000000
_cell_angle_beta 27.771713
_cell_angle_gamma 90.000000
_cell_volume 2875.290689
_symmetry_space_group_name_H-M "C 2/C"
_symmetry_group_IT_number 15
_symmetry_cell_setting 'monoclinic'
loop_
_space_group_symop_operation_xyz
x,y,z
-x,y,1/2-z
-x,-y,-z
x,-y,1/2+z
1/2+x,1/2+y,z
1/2-x,1/2+y,1/2-z
1/2-x,1/2-y,-z
1/2+x,1/2-y,1/2+z
loop_
_atom_site_type_symbol
_atom_site_label
_atom_site_fract_x
_atom_site_fract_y
_atom_site_fract_z
Si Si1 0.957605 0.333562 0.844814
Si Si2 0.252701 0.946600 0.843421
Si Si3 0.919711 0.885543 0.896376
Si Si4 0.360116 0.201235 0.852651
Si Si5 0.644075 0.609133 0.545539
Si Si6 0.788042 0.802768 0.147364
Si Si7 0.910966 0.196185 0.122374
O O1 0.942549 0.218480 0.884674
O O2 0.000000 0.314797 0.750000
O O3 0.082693 0.408428 0.776222
O O4 0.797176 0.379255 0.962871
O O5 0.172702 0.885545 0.853749
O O6 0.229443 0.071119 0.849422
O O7 0.179850 0.914367 0.955127
O O8 0.907628 0.795885 0.858400
O O9 0.017056 0.854892 0.876341
O O10 0.939423 0.008321 0.867785
O O11 0.759933 0.873835 0.035970
O O12 0.500000 0.129830 0.750000
O O13 0.300266 0.244840 0.839497
O O14 0.707360 0.773792 0.263252
O O15 0.951632 0.767875 0.015647
#
# Coordination Sequence:
#
# PCOD9262853 Si02
#       7
#     8   8   8   8   8   8   8
#     4   9  22  38  58  92 118 161 216 275 311 376
#     4  11  23  39  70  86 124 179 215 258 325 396
#     4  10  21  33  59  90 123 163 198 265 320 374
#     4  10  19  33  56  90 121 154 206 258 313 371
#     4  10  20  39  61  88 124 162 220 259 324 381
#     4  11  24  42  64  95 129 171 217 263 320 389
#     4  11  24  41  62  98 128 166 218 260 315 397
#
# _framework density 19.476291
#
# number of rings (size 3 to 8) (size 9 to 14) (size 15 to 20)
#    0.000    1.714    4.286    0.429    4.000    0.571 
#    0.000    0.714    6.286    0.000    0.000    0.000 
#    0.000    0.000    0.000    0.000    0.000    0.000 
#
# Total GULP energy -155908.417229 kJ/mol
# GULP energy per Si atom -5568.157758 kJ/mol
# Density = 1.943196 g / cm^3
# Si number density = 19.476291 Si / 1000 Ang^3
#
#
#
# Elastic Constant Matrix: (Units=GPa)
#
#
# Indices 1 2 3 4 5 6 
#
# 1 87.7029 33.9656 18.8453 0.0009 -4.0209 -0.0001
# 2 33.9656 82.4388 16.0007 0.0045 11.8223 -0.0006
# 3 18.8453 16.0007 104.3257 0.0041 -0.0101 -0.0007
# 4 0.0009 0.0045 0.0041 -30.3627 -0.0018 28.3890
# 5 -4.0209 11.8223 -0.0101 -0.0018 11.1337 0.0004
# 6 -0.0001 -0.0006 -0.0007 28.3890 0.0004 15.9223
#
#
#
# Elastic Compliance Matrix: (Units=1/GPa)
#
#
# Indices 1 2 3 4 5 6 
#
# 1 0.015547 -0.008149 -0.001557 -0.000001 0.014266 0.000001
# 2 -0.008149 0.019102 -0.001460 0.000002 -0.023228 -0.000002
# 3 -0.001557 -0.001460 0.010091 0.000001 0.000997 -0.000001
# 4 -0.000001 0.000002 0.000001 -0.012349 -0.000005 0.022018
# 5 0.014266 -0.023228 0.000997 -0.000005 0.119636 0.000005
# 6 0.000001 -0.000002 -0.000001 0.022018 0.000005 0.023548
#
#
# Mechanical properties :
#
#
# Convention : Reuss Voigt Hill
#
# Bulk Modulus (GPa) = 44.62845 45.78783 45.20814
# Shear Modulus (GPa) = 24.34558 13.04903 18.69731
#
# Velocity S-wave (km/s) = 3.53939 2.59124 3.10175
# Velocity P-wave (km/s) = 6.29817 5.70204 6.00750
#
# Compressibility (1/GPa) = 0.02240723
#
# Stress axis : x y z
#
# Youngs Moduli (GPa) = 64.32205 52.35017 99.10157
#
# Poissons Ratio (x) = 0.42661 0.15431
# Poissons Ratio (y) = 0.52417 0.14468
# Poissons Ratio (z) = 0.10016 0.07643
#
# Static dielectric constant tensor:
#      x y z
#    x 1.681560 0.000000 0.042090 
#    y 0.000000 1.701960 0.000000 
#    z 0.042090 0.000000 1.875170 
# 
# From -- ./inp_files/300706.got.cif
#   From: 2010.05.17/outbox.cif.g08.bks.cpg/sg15_151_cif.got.tgz:300706.got - 2010.06.03 18:47:42.
