data_PCOD9262930
_publ_section_title
;
Structure prediction by ZEFSAII (Michael W. Deem and Ramdas Pophale) SiO2 
 PCOD9262930
Probable space group: C 2/C
;
_chemical_formula_sum "Si O2"
_cell_formula_units_Z 32
_cell_length_a 12.795913
_cell_length_b 25.387182
_cell_length_c 10.187916
_cell_angle_alpha 90.000000
_cell_angle_beta 156.063368
_cell_angle_gamma 90.000000
_cell_volume 1342.777339
_symmetry_space_group_name_H-M "C 2/C"
_symmetry_group_IT_number 15
_symmetry_cell_setting 'monoclinic'
loop_
_space_group_symop_operation_xyz
x,y,z
-x,y,1/2-z
-x,-y,-z
x,-y,1/2+z
1/2+x,1/2+y,z
1/2-x,1/2+y,1/2-z
1/2-x,1/2-y,-z
1/2+x,1/2-y,1/2+z
loop_
_atom_site_type_symbol
_atom_site_label
_atom_site_fract_x
_atom_site_fract_y
_atom_site_fract_z
Si Si1 0.000000 0.359777 0.250000
Si Si2 0.832491 0.396425 0.324115
Si Si3 0.736024 0.724203 0.786845
Si Si4 0.500000 0.293408 0.750000
Si Si5 0.000000 0.528392 0.250000
Si Si6 0.500000 0.459872 0.750000
O O1 0.018958 0.388980 0.411826
O O2 0.263846 0.328241 0.531030
O O3 0.776270 0.338975 0.323944
O O4 0.943992 0.434838 0.560830
O O5 0.588854 0.424132 0.974799
O O6 0.507095 0.746199 0.613937
O O7 0.620788 0.737324 0.509958
O O8 0.253149 0.494149 0.508340
#
# Coordination Sequence:
#
# PCOD9262930 Si02
#       6
#     4   8   8   4   4   4
#     4  10  21  37  65  94 130 176 217 272 339 393
#     4  11  25  48  72 103 142 182 227 290 344 408
#     4  11  22  36  62  99 135 177 221 269 335 411
#     4  10  19  33  57  94 132 172 223 274 321 387
#     4  12  29  48  73 102 136 184 237 286 349 410
#     4  12  27  46  73 104 134 178 237 294 347 404
#
# _framework density 23.831204
#
# number of rings (size 3 to 8) (size 9 to 14) (size 15 to 20)
#    0.000    1.000    0.000    9.000    0.000   11.000 
#    0.000    1.250    0.000    0.000    0.000    0.000 
#    0.000    0.000    0.000    0.000    0.000    0.000 
#
# Total GULP energy -89502.952762 kJ/mol
# GULP energy per Si atom -5593.934548 kJ/mol
# Density = 2.377696 g / cm^3
# Si number density = 23.831204 Si / 1000 Ang^3
#
#
#
# Elastic Constant Matrix: (Units=GPa)
#
#
# Indices 1 2 3 4 5 6 
#
# 1 156.5498 91.9412 103.4090 -0.0004 18.9777 0.0005
# 2 91.9412 158.4667 97.8056 -0.0003 23.5157 0.0005
# 3 103.4090 97.8056 169.3854 0.0071 46.0706 -0.0074
# 4 -0.0004 -0.0003 0.0071 160.9034 0.0014 -189.1789
# 5 18.9777 23.5157 46.0706 0.0014 58.0174 -0.0015
# 6 0.0005 0.0005 -0.0074 -189.1789 -0.0015 295.3169
#
#
#
# Elastic Compliance Matrix: (Units=1/GPa)
#
#
# Indices 1 2 3 4 5 6 
#
# 1 0.012231 -0.003798 -0.005872 0.000000 0.002202 0.000000
# 2 -0.003798 0.011005 -0.004031 0.000000 -0.000017 0.000000
# 3 -0.005872 -0.004031 0.013838 -0.000001 -0.007434 0.000000
# 4 0.000000 0.000000 -0.000001 0.025179 0.000000 0.016129
# 5 0.002202 -0.000017 -0.007434 0.000000 0.022426 0.000000
# 6 0.000000 0.000000 0.000000 0.016129 0.000000 0.013719
#
#
# Mechanical properties :
#
#
# Convention : Reuss Voigt Hill
#
# Bulk Modulus (GPa) = 103.40840 118.96815 111.18827
# Shear Modulus (GPa) = 38.75283 115.59727 77.17505
#
# Velocity S-wave (km/s) = 4.03692 6.97223 5.69687
# Velocity P-wave (km/s) = 8.07559 10.71660 9.48843
#
# Compressibility (1/GPa) = 0.00967039
#
# Stress axis : x y z
#
# Youngs Moduli (GPa) = 81.76192 90.87181 72.26474
#
# Poissons Ratio (x) = 0.34517 0.42437
# Poissons Ratio (y) = 0.31057 0.29126
# Poissons Ratio (z) = 0.48014 0.36626
#
# Static dielectric constant tensor:
#      x y z
#    x 1.907800 0.000000 0.019300 
#    y 0.000000 1.990750 0.000000 
#    z 0.019300 0.000000 1.899080 
# 
# From -- ./inp_files/101196.got.cif
#   From: 2010.05.17/outbox.cif.g08.bks.cpg/sg15_51_cif.got.tgz:101196.got - 2010.06.03 18:47:42.
