data_PCOD9262263
_publ_section_title
;
Structure prediction by ZEFSAII (Michael W. Deem and Ramdas Pophale) SiO2 
 PCOD9262263
Probable space group: C 2/C
;
_chemical_formula_sum "Si O2"
_cell_formula_units_Z 40
_cell_length_a 12.686864
_cell_length_b 7.800383
_cell_length_c 17.006204
_cell_angle_alpha 90.000000
_cell_angle_beta 75.966340
_cell_angle_gamma 90.000000
_cell_volume 1632.743719
_symmetry_space_group_name_H-M "C 2/C"
_symmetry_group_IT_number 15
_symmetry_cell_setting 'monoclinic'
loop_
_space_group_symop_operation_xyz
x,y,z
-x,y,1/2-z
-x,-y,-z
x,-y,1/2+z
1/2+x,1/2+y,z
1/2-x,1/2+y,1/2-z
1/2-x,1/2-y,-z
1/2+x,1/2-y,1/2+z
loop_
_atom_site_type_symbol
_atom_site_label
_atom_site_fract_x
_atom_site_fract_y
_atom_site_fract_z
Si Si1 0.208751 0.944825 0.526236
Si Si2 0.953938 0.775919 0.841152
Si Si3 0.761141 0.507910 0.346549
Si Si4 0.391366 0.729071 0.721866
Si Si5 0.414012 0.019323 0.586053
O O1 0.250000 0.750000 0.500000
O O2 0.098248 0.920337 0.594071
O O3 0.209527 0.034986 0.441914
O O4 0.296931 0.026343 0.567680
O O5 0.859335 0.632515 0.840747
O O6 0.000000 0.831611 0.750000
O O7 0.048873 0.681002 0.870741
O O8 0.672703 0.427696 0.304399
O O9 0.812994 0.670752 0.296011
O O10 0.500000 0.695745 0.750000
O O11 0.416261 0.858137 0.644749
O O12 0.500000 0.000000 0.500000
#
# Coordination Sequence:
#
# PCOD9262263 Si02
#       5
#     8   8   8   8   8
#     4  10  19  32  56  95 125 159 214 265 309 377
#     4  11  19  32  56  96 121 163 217 255 306 385
#     4  11  21  38  61  95 128 165 214 262 315 377
#     4  12  22  38  63  93 126 166 212 261 315 375
#     4  12  17  30  60  94 120 158 214 257 312 378
#
# _framework density 24.498639000000001
#
# number of rings (size 3 to 8) (size 9 to 14) (size 15 to 20)
#    0.000    0.800   12.000    0.000    0.000    0.000 
#    0.000    2.000    0.000    6.000    0.000    1.400 
#    0.000    0.000    0.000    0.000    0.000    0.000 
#
# Total GULP energy -112233.426133 kJ/mol
# GULP energy per Si atom -5611.671307 kJ/mol
# Density = 2.444288 g / cm^3
# Si number density = 24.498639 Si / 1000 Ang^3
#
#
#
# Elastic Constant Matrix: (Units=GPa)
#
#
# Indices 1 2 3 4 5 6 
#
# 1 173.2898 74.9310 71.5748 0.0000 39.2347 0.0000
# 2 74.9310 83.6456 71.8263 0.0000 9.9793 0.0000
# 3 71.5748 71.8263 212.5248 0.0000 0.5093 0.0000
# 4 0.0000 0.0000 0.0000 5.2492 0.0000 6.3674
# 5 39.2347 9.9793 0.5093 0.0000 54.5099 0.0000
# 6 0.0000 0.0000 0.0000 6.3674 0.0000 21.6994
#
#
#
# Elastic Compliance Matrix: (Units=1/GPa)
#
#
# Indices 1 2 3 4 5 6 
#
# 1 0.011361 -0.008621 -0.000897 0.000000 -0.006591 0.000000
# 2 -0.008621 0.023901 -0.005179 0.000000 0.001878 0.000000
# 3 -0.000897 -0.005179 0.006754 0.000000 0.001530 0.000000
# 4 0.000000 0.000000 0.000000 0.295793 0.000000 -0.086797
# 5 -0.006591 0.001878 0.001530 0.000000 0.022731 0.000000
# 6 0.000000 0.000000 0.000000 -0.086797 0.000000 0.071554
#
#
# Mechanical properties :
#
#
# Convention : Reuss Voigt Hill
#
# Bulk Modulus (GPa) = 79.22210 100.68053 89.95131
# Shear Modulus (GPa) = 10.73665 33.03357 21.88511
#
# Velocity S-wave (km/s) = 2.09573 3.67602 2.99209
# Velocity P-wave (km/s) = 6.18576 7.69435 6.98093
#
# Compressibility (1/GPa) = 0.01262274
#
# Stress axis : x y z
#
# Youngs Moduli (GPa) = 88.02002 41.83915 148.06106
#
# Poissons Ratio (x) = 0.36070 0.13278
# Poissons Ratio (y) = 0.75882 0.76679
# Poissons Ratio (z) = 0.07894 0.21668
#
# Static dielectric constant tensor:
#      x y z
#    x 1.939630 0.000000 -0.035240 
#    y 0.000000 1.966530 0.000000 
#    z -0.035240 0.000000 1.927330 
# 
# From -- ./inp_files/195098.got.cif
#   From: 2010.05.17/outbox.cif.g08.bks.cpg/sg15_98_cif.got.tgz:195098.got - 2010.06.03 18:47:42.
