data_PCOD9262956
_publ_section_title
;
Structure prediction by ZEFSAII (Michael W. Deem and Ramdas Pophale) SiO2 
 PCOD9262956
Probable space group: C 2/C
;
_chemical_formula_sum "Si O2"
_cell_formula_units_Z 32
_cell_length_a 10.739786
_cell_length_b 9.113408
_cell_length_c 19.749529
_cell_angle_alpha 90.000000
_cell_angle_beta 138.355202
_cell_angle_gamma 90.000000
_cell_volume 1284.503103
_symmetry_space_group_name_H-M "C 2/C"
_symmetry_group_IT_number 15
_symmetry_cell_setting 'monoclinic'
loop_
_space_group_symop_operation_xyz
x,y,z
-x,y,1/2-z
-x,-y,-z
x,-y,1/2+z
1/2+x,1/2+y,z
1/2-x,1/2+y,1/2-z
1/2-x,1/2-y,-z
1/2+x,1/2-y,1/2+z
loop_
_atom_site_type_symbol
_atom_site_label
_atom_site_fract_x
_atom_site_fract_y
_atom_site_fract_z
Si Si1 0.609461 0.923843 0.982187
Si Si2 0.610784 0.649279 0.362833
Si Si3 0.063037 0.859978 0.066683
Si Si4 0.598393 0.076746 0.716464
O O1 0.609000 0.750794 0.993672
O O2 0.479715 0.955085 0.864821
O O3 0.500000 0.000000 0.000000
O O4 0.800725 0.016694 0.059410
O O5 0.500000 0.598982 0.250000
O O6 0.782260 0.756910 0.409184
O O7 0.471607 0.765678 0.341177
O O8 0.182168 0.912676 0.180287
O O9 0.000000 0.000000 0.000000
O O10 0.500000 0.056214 0.750000
#
# Coordination Sequence:
#
# PCOD9262956 Si02
#       4
#     8   8   8   8
#     4  10  19  33  58  86 108 151 203 239 286 348
#     4   8  17  35  56  82 116 157 196 234 284 343
#     4   9  19  35  56  84 116 149 189 245 296 341
#     4   9  19  37  57  80 117 159 194 242 295 344
#
# _framework density 24.912357
#
# number of rings (size 3 to 8) (size 9 to 14) (size 15 to 20)
#    0.000    3.500    0.000    0.750    0.000    4.000 
#    0.000   17.500    0.000    0.000    0.000    0.000 
#    0.000    0.000    0.000    0.000    0.000    0.000 
#
# Total GULP energy -89455.722341 kJ/mol
# GULP energy per Si atom -5590.982646 kJ/mol
# Density = 2.485566 g / cm^3
# Si number density = 24.912357 Si / 1000 Ang^3
#
#
#
# Elastic Constant Matrix: (Units=GPa)
#
#
# Indices 1 2 3 4 5 6 
#
# 1 74.2321 14.3742 25.2233 0.0000 9.4622 0.0000
# 2 14.3742 188.9905 94.1958 0.0000 -4.9251 0.0000
# 3 25.2233 94.1958 151.9257 0.0000 10.4556 0.0000
# 4 0.0000 0.0000 0.0000 39.0094 0.0000 2.4426
# 5 9.4622 -4.9251 10.4556 0.0000 40.3695 0.0000
# 6 0.0000 0.0000 0.0000 2.4426 0.0000 22.4769
#
#
#
# Elastic Compliance Matrix: (Units=1/GPa)
#
#
# Indices 1 2 3 4 5 6 
#
# 1 0.014592 -0.000110 -0.002157 0.000000 -0.002875 0.000000
# 2 -0.000110 0.007856 -0.005010 0.000000 0.002282 0.000000
# 3 -0.002157 -0.005010 0.010236 0.000000 -0.002757 0.000000
# 4 0.000000 0.000000 0.000000 0.025810 0.000000 -0.002805
# 5 -0.002875 0.002282 -0.002757 0.000000 0.026437 0.000000
# 6 0.000000 0.000000 0.000000 -0.002805 0.000000 0.044795
#
#
# Mechanical properties :
#
#
# Convention : Reuss Voigt Hill
#
# Bulk Modulus (GPa) = 55.15231 75.85942 65.50587
# Shear Modulus (GPa) = 33.26187 39.12817 36.19502
#
# Velocity S-wave (km/s) = 3.65794 3.96742 3.81582
# Velocity P-wave (km/s) = 6.32671 7.17662 6.76503
#
# Compressibility (1/GPa) = 0.01813161
#
# Stress axis : x y z
#
# Youngs Moduli (GPa) = 68.53160 127.29253 97.69523
#
# Poissons Ratio (x) = 0.01398 0.21069
# Poissons Ratio (y) = 0.00753 0.48941
# Poissons Ratio (z) = 0.14780 0.63768
#
# Static dielectric constant tensor:
#      x y z
#    x 2.269610 0.000000 0.229360 
#    y 0.000000 1.967990 0.000000 
#    z 0.229360 0.000000 2.150050 
# 
# From -- ./inp_files/172183.got.cif
#   From: 2010.05.17/outbox.cif.g08.bks.cpg/sg15_87_cif.got.tgz:172183.got - 2010.06.03 18:47:42.
