data_PCOD9262979
_publ_section_title
;
Structure prediction by ZEFSAII (Michael W. Deem and Ramdas Pophale) SiO2 
 PCOD9262979
Probable space group: C 2/C
;
_chemical_formula_sum "Si O2"
_cell_formula_units_Z 64
_cell_length_a 10.091283
_cell_length_b 25.679358
_cell_length_c 11.570588
_cell_angle_alpha 90.000000
_cell_angle_beta 80.005686
_cell_angle_gamma 90.000000
_cell_volume 2952.874800
_symmetry_space_group_name_H-M "C 2/C"
_symmetry_group_IT_number 15
_symmetry_cell_setting 'monoclinic'
loop_
_space_group_symop_operation_xyz
x,y,z
-x,y,1/2-z
-x,-y,-z
x,-y,1/2+z
1/2+x,1/2+y,z
1/2-x,1/2+y,1/2-z
1/2-x,1/2-y,-z
1/2+x,1/2-y,1/2+z
loop_
_atom_site_type_symbol
_atom_site_label
_atom_site_fract_x
_atom_site_fract_y
_atom_site_fract_z
Si Si1 0.738563 0.673651 0.382198
Si Si2 0.149603 0.521714 0.458480
Si Si3 0.336388 0.967229 0.280460
Si Si4 0.660141 0.136900 0.352263
Si Si5 0.250159 0.203935 0.634450
Si Si6 0.930374 0.828418 0.930453
Si Si7 0.782522 0.143226 0.655270
Si Si8 0.555531 0.206306 0.549852
O O1 0.832859 0.637755 0.287881
O O2 0.779723 0.734662 0.364639
O O3 0.732833 0.670534 0.521163
O O4 0.583005 0.665677 0.369164
O O5 0.209418 0.494986 0.332548
O O6 0.207562 0.514953 0.581430
O O7 0.141396 0.582270 0.420624
O O8 0.000000 0.500000 0.500000
O O9 0.500000 0.969258 0.250000
O O10 0.284589 0.908365 0.286277
O O11 0.808374 0.158044 0.364439
O O12 0.558641 0.178278 0.424778
O O13 0.168817 0.178560 0.748545
O O14 0.410882 0.201031 0.630815
O O15 0.915836 0.767392 0.964863
O O16 0.899950 0.864340 0.045584
O O17 0.668104 0.176200 0.605123
#
# Coordination Sequence:
#
# PCOD9262979 Si02
#       8
#     8   8   8   8   8   8   8   8
#     4  10  22  37  52  85 124 164 203 240 298 367
#     4  10  22  38  57  88 120 154 199 263 321 378
#     4  10  20  37  58  84 119 151 194 253 320 375
#     4  11  20  37  59  86 117 157 207 249 311 367
#     4  10  21  34  53  85 129 161 193 247 303 366
#     4  10  20  35  60  86 117 160 205 244 290 362
#     4  11  19  33  59  85 114 155 200 241 302 366
#     4  10  19  33  58  90 121 152 199 247 301 371
#
# _framework density 21.673791999999999
#
# number of rings (size 3 to 8) (size 9 to 14) (size 15 to 20)
#    0.000    1.750    2.500    4.500    1.750    4.000 
#    4.500    3.750    0.000    0.750    3.250    0.000 
#    0.000    0.000    0.000    0.000    0.000    0.000 
#
# Total GULP energy -178388.099876 kJ/mol
# GULP energy per Si atom -5574.628121 kJ/mol
# Density = 2.162446 g / cm^3
# Si number density = 21.673792 Si / 1000 Ang^3
#
#
#
# Elastic Constant Matrix: (Units=GPa)
#
#
# Indices 1 2 3 4 5 6 
#
# 1 35.4673 10.8876 4.1539 0.0000 -2.8550 0.0000
# 2 10.8876 54.7816 27.2606 0.0000 -6.7470 0.0000
# 3 4.1539 27.2606 135.7601 0.0000 1.9730 0.0000
# 4 0.0000 0.0000 0.0000 13.0212 0.0000 17.5686
# 5 -2.8550 -6.7470 1.9730 0.0000 20.3609 0.0000
# 6 0.0000 0.0000 0.0000 17.5686 0.0000 -8.8376
#
#
#
# Elastic Compliance Matrix: (Units=1/GPa)
#
#
# Indices 1 2 3 4 5 6 
#
# 1 0.030139 -0.005815 0.000212 0.000000 0.002279 0.000000
# 2 -0.005815 0.022490 -0.004441 0.000000 0.007068 0.000000
# 3 0.000212 -0.004441 0.008284 0.000000 -0.002244 0.000000
# 4 0.000000 0.000000 0.000000 0.020857 0.000000 0.041462
# 5 0.002279 0.007068 -0.002244 0.000000 0.051993 0.000000
# 6 0.000000 0.000000 0.000000 0.041462 0.000000 -0.030730
#
#
# Mechanical properties :
#
#
# Convention : Reuss Voigt Hill
#
# Bulk Modulus (GPa) = 24.49433 34.51258 29.50346
# Shear Modulus (GPa) = 36.56909 17.15604 26.86256
#
# Velocity S-wave (km/s) = 4.11207 2.81651 3.52433
# Velocity P-wave (km/s) = 5.81991 5.15123 5.49575
#
# Compressibility (1/GPa) = 0.04082578
#
# Stress axis : x y z
#
# Youngs Moduli (GPa) = 33.18007 44.46354 120.71784
#
# Poissons Ratio (x) = 0.25855 -0.02564
# Poissons Ratio (y) = 0.19294 0.53609
# Poissons Ratio (z) = -0.00705 0.19746
#
# Static dielectric constant tensor:
#      x y z
#    x 2.195080 0.000000 0.162680 
#    y 0.000000 1.754910 0.000000 
#    z 0.162680 0.000000 1.930580 
# 
# From -- ./inp_files/91243.got.cif
#   From: 2010.05.17/outbox.cif.g08.bks.cpg/sg15_46_cif.got.tgz:91243.got - 2010.06.03 18:47:42.
