data_PCOD9262612
_publ_section_title
;
Structure prediction by ZEFSAII (Michael W. Deem and Ramdas Pophale) SiO2 
 PCOD9262612
Probable space group: C 2/C
;
_chemical_formula_sum "Si O2"
_cell_formula_units_Z 64
_cell_length_a 26.699042
_cell_length_b 18.812303
_cell_length_c 7.800013
_cell_angle_alpha 90.000000
_cell_angle_beta 135.871783
_cell_angle_gamma 90.000000
_cell_volume 2727.774041
_symmetry_space_group_name_H-M "C 2/C"
_symmetry_group_IT_number 15
_symmetry_cell_setting 'monoclinic'
loop_
_space_group_symop_operation_xyz
x,y,z
-x,y,1/2-z
-x,-y,-z
x,-y,1/2+z
1/2+x,1/2+y,z
1/2-x,1/2+y,1/2-z
1/2-x,1/2-y,-z
1/2+x,1/2-y,1/2+z
loop_
_atom_site_type_symbol
_atom_site_label
_atom_site_fract_x
_atom_site_fract_y
_atom_site_fract_z
Si Si1 0.030542 0.576584 0.016492
Si Si2 0.303483 0.923220 0.299570
Si Si3 0.411460 0.165875 0.856657
Si Si4 0.335070 0.914469 0.856128
Si Si5 0.164930 0.914469 0.143873
Si Si6 0.469458 0.423416 0.483508
Si Si7 0.411460 0.334125 0.856657
Si Si8 0.696517 0.576780 0.200431
O O1 0.000000 0.584426 0.750000
O O2 0.991444 0.634441 0.037174
O O3 0.115374 0.587678 0.192213
O O4 0.000000 0.500000 0.000000
O O5 0.364444 0.868958 0.391311
O O6 0.249592 0.900656 0.319077
O O7 0.337511 0.001250 0.409028
O O8 0.250000 0.930845 0.000000
O O9 0.372425 0.136538 0.587848
O O10 0.411042 0.250000 0.863118
O O11 0.250408 0.900657 0.680923
O O12 0.162489 0.998750 0.090973
O O13 0.115374 0.912322 0.192213
O O14 0.127575 0.863462 0.912152
O O15 0.500000 0.415574 0.750000
O O16 0.500000 0.500000 0.500000
O O17 0.508556 0.365560 0.462827
O O18 0.364444 0.368958 0.891311
#
# Coordination Sequence:
#
# PCOD9262612 Si02
#       8
#     8   8   8   8   8   8   8   8
#     4  10  19  33  54  80 107 143 181 224 269 325
#     4   9  17  31  50  75 104 139 180 216 261 321
#     4  10  20  33  53  81 109 137 175 228 280 318
#     4   9  18  30  49  76 105 138 179 222 256 318
#     4   9  18  30  49  76 105 138 179 222 256 318
#     4  10  19  33  54  80 107 143 181 224 269 325
#     4  10  20  33  53  81 109 137 175 228 280 318
#     4   9  17  31  50  75 104 139 180 216 261 321
#
# _framework density 23.462354999999999
#
# number of rings (size 3 to 8) (size 9 to 14) (size 15 to 20)
#    0.000    2.500    2.500    0.000    0.000    9.000 
#    0.000    0.000    0.000    1.500    0.000   12.250 
#    0.000    0.000    0.000    0.000    0.000    0.000 
#
# Total GULP energy -178726.684884 kJ/mol
# GULP energy per Si atom -5585.208903 kJ/mol
# Density = 2.340895 g / cm^3
# Si number density = 23.462355 Si / 1000 Ang^3
#
#
#
# Elastic Constant Matrix: (Units=GPa)
#
#
# Indices 1 2 3 4 5 6 
#
# 1 286.7080 114.5505 60.4201 0.0000 52.7267 0.0000
# 2 114.5505 167.7223 35.0742 0.0000 28.5714 0.0000
# 3 60.4201 35.0742 90.6601 0.0000 30.5607 0.0000
# 4 0.0000 0.0000 0.0000 25.7196 0.0000 1.0480
# 5 52.7267 28.5714 30.5607 0.0000 61.5618 0.0000
# 6 0.0000 0.0000 0.0000 1.0480 0.0000 26.4834
#
#
#
# Elastic Compliance Matrix: (Units=1/GPa)
#
#
# Indices 1 2 3 4 5 6 
#
# 1 0.005485 -0.002973 -0.001665 0.000000 -0.002491 0.000000
# 2 -0.002973 0.008338 -0.000958 0.000000 -0.000847 0.000000
# 3 -0.001665 -0.000958 0.014268 0.000000 -0.005212 0.000000
# 4 0.000000 0.000000 0.000000 0.038944 0.000000 -0.001541
# 5 -0.002491 -0.000847 -0.005212 0.000000 0.021358 0.000000
# 6 0.000000 0.000000 0.000000 -0.001541 0.000000 0.037821
#
#
# Mechanical properties :
#
#
# Convention : Reuss Voigt Hill
#
# Bulk Modulus (GPa) = 59.18632 107.24221 83.21426
# Shear Modulus (GPa) = 34.95555 45.08933 40.02244
#
# Velocity S-wave (km/s) = 3.86405 4.38856 4.13463
# Velocity P-wave (km/s) = 6.72226 8.45498 7.63791
#
# Compressibility (1/GPa) = 0.01689580
#
# Stress axis : x y z
#
# Youngs Moduli (GPa) = 182.31701 119.93575 70.08855
#
# Poissons Ratio (x) = 0.35663 0.11672
# Poissons Ratio (y) = 0.54212 0.06718
# Poissons Ratio (z) = 0.30362 0.11495
#
# Static dielectric constant tensor:
#      x y z
#    x 1.926760 0.000000 0.002930 
#    y 0.000000 1.757170 0.000000 
#    z 0.002930 0.000000 2.068550 
# 
# From -- ./inp_files/123702.got.cif
#   From: 2010.05.17/outbox.cif.g08.bks.cpg/sg15_62_cif.got.tgz:123702.got - 2010.06.03 18:47:42.
