data_PCOD9262534
_publ_section_title
;
Structure prediction by ZEFSAII (Michael W. Deem and Ramdas Pophale) SiO2 
 PCOD9262534
Probable space group: C 2/C
;
_chemical_formula_sum "Si O2"
_cell_formula_units_Z 48
_cell_length_a 7.838771
_cell_length_b 31.010987
_cell_length_c 8.141026
_cell_angle_alpha 90.000000
_cell_angle_beta 85.312633
_cell_angle_gamma 90.000000
_cell_volume 1972.367078
_symmetry_space_group_name_H-M "C 2/C"
_symmetry_group_IT_number 15
_symmetry_cell_setting 'monoclinic'
loop_
_space_group_symop_operation_xyz
x,y,z
-x,y,1/2-z
-x,-y,-z
x,-y,1/2+z
1/2+x,1/2+y,z
1/2-x,1/2+y,1/2-z
1/2-x,1/2-y,-z
1/2+x,1/2-y,1/2+z
loop_
_atom_site_type_symbol
_atom_site_label
_atom_site_fract_x
_atom_site_fract_y
_atom_site_fract_z
Si Si1 0.051796 0.737836 0.556926
Si Si2 0.198705 0.522227 0.283920
Si Si3 0.306143 0.149667 0.018131
Si Si4 0.314949 0.938156 0.348753
Si Si5 0.682518 0.391826 0.829849
Si Si6 0.048532 0.821183 0.059325
O O1 0.250000 0.750000 0.500000
O O2 0.052989 0.686215 0.524095
O O3 0.000000 0.743795 0.750000
O O4 0.926872 0.769739 0.465031
O O5 0.276781 0.474422 0.255881
O O6 0.200715 0.539987 0.469238
O O7 0.276378 0.557896 0.154296
O O8 0.000000 0.519393 0.250000
O O9 0.276275 0.111850 0.887034
O O10 0.121467 0.172365 0.036345
O O11 0.321176 0.126665 0.191282
O O12 0.500000 0.934685 0.250000
O O13 0.500000 0.392756 0.750000
O O14 0.671817 0.358423 0.980832
O O15 0.000000 0.828485 0.250000
#
# Coordination Sequence:
#
# PCOD9262534 Si02
#       6
#     8   8   8   8   8   8
#     4  10  19  36  58  78 107 149 189 230 285 348
#     4  10  20  34  55  80 110 147 187 233 284 334
#     4   9  19  36  56  77 105 150 192 226 281 347
#     4  10  19  33  53  80 111 145 185 232 280 336
#     4   9  19  39  58  78 114 154 187 227 284 348
#     4  10  20  34  55  81 109 141 183 238 288 335
#
# _framework density 24.336241000000001
#
# number of rings (size 3 to 8) (size 9 to 14) (size 15 to 20)
#    0.000    2.333    0.000    5.000    0.000    2.667 
#    0.000   20.833    0.000    0.000    0.000    0.000 
#    0.000    0.000    0.000    0.000    0.000    0.000 
#
# Total GULP energy -133652.831809 kJ/mol
# GULP energy per Si atom -5568.867992 kJ/mol
# Density = 2.428085 g / cm^3
# Si number density = 24.336241 Si / 1000 Ang^3
#
#
#
# Elastic Constant Matrix: (Units=GPa)
#
#
# Indices 1 2 3 4 5 6 
#
# 1 47.2762 17.5879 1.4798 0.0000 -10.4295 0.0000
# 2 17.5879 199.9538 55.1873 0.0000 -29.7249 0.0000
# 3 1.4798 55.1873 121.7932 0.0000 -27.6639 0.0000
# 4 0.0000 0.0000 0.0000 46.2111 0.0000 -48.8849
# 5 -10.4295 -29.7249 -27.6639 0.0000 20.5873 0.0000
# 6 0.0000 0.0000 0.0000 -48.8849 0.0000 68.1234
#
#
#
# Elastic Compliance Matrix: (Units=1/GPa)
#
#
# Indices 1 2 3 4 5 6 
#
# 1 0.025008 -0.000776 0.003844 0.000000 0.016714 0.000000
# 2 -0.000776 0.006505 -0.001287 0.000000 0.007270 0.000000
# 3 0.003844 -0.001287 0.012619 0.000000 0.017046 0.000000
# 4 0.000000 0.000000 0.000000 0.089834 0.000000 0.064464
# 5 0.016714 0.007270 0.017046 0.000000 0.090443 0.000000
# 6 0.000000 0.000000 0.000000 0.064464 0.000000 0.060939
#
#
# Mechanical properties :
#
#
# Convention : Reuss Voigt Hill
#
# Bulk Modulus (GPa) = 20.96665 57.50369 39.23517
# Shear Modulus (GPa) = 16.79633 46.63557 31.71595
#
# Velocity S-wave (km/s) = 2.62997 4.38231 3.61396
# Velocity P-wave (km/s) = 4.22569 7.02042 5.79408
#
# Compressibility (1/GPa) = 0.04769479
#
# Stress axis : x y z
#
# Youngs Moduli (GPa) = 39.98726 153.71812 79.24671
#
# Poissons Ratio (x) = 0.11928 -0.30464
# Poissons Ratio (y) = 0.03103 0.10199
# Poissons Ratio (z) = -0.15372 0.19783
#
# Static dielectric constant tensor:
#      x y z
#    x 1.969960 0.000000 -0.005860 
#    y 0.000000 2.139750 0.000000 
#    z -0.005860 0.000000 1.855430 
# 
# From -- ./inp_files/34767.got.cif
#   From: 2010.05.17/outbox.cif.g08.bks.cpg/sg15_18_cif.got.tgz:34767.got - 2010.06.03 18:47:42.
