data_PCOD9262014
_publ_section_title
;
Structure prediction by ZEFSAII (Michael W. Deem and Ramdas Pophale) SiO2 
 PCOD9262014
Probable space group: C 2/C
;
_chemical_formula_sum "Si O2"
_cell_formula_units_Z 36
_cell_length_a 16.200612
_cell_length_b 9.081865
_cell_length_c 9.414395
_cell_angle_alpha 90.000000
_cell_angle_beta 102.615662
_cell_angle_gamma 90.000000
_cell_volume 1351.714906
_symmetry_space_group_name_H-M "C 2/C"
_symmetry_group_IT_number 15
_symmetry_cell_setting 'monoclinic'
loop_
_space_group_symop_operation_xyz
x,y,z
-x,y,1/2-z
-x,-y,-z
x,-y,1/2+z
1/2+x,1/2+y,z
1/2-x,1/2+y,1/2-z
1/2-x,1/2-y,-z
1/2+x,1/2-y,1/2+z
loop_
_atom_site_type_symbol
_atom_site_label
_atom_site_fract_x
_atom_site_fract_y
_atom_site_fract_z
Si Si1 0.112009 0.008082 0.125503
Si Si2 0.000000 0.756563 0.750000
Si Si3 0.861016 0.385613 0.639747
Si Si4 0.540132 0.817587 0.564656
Si Si5 0.215260 0.929972 0.401735
O O1 0.065512 0.850733 0.114862
O O2 0.199457 0.004281 0.245692
O O3 0.059897 0.136957 0.180070
O O4 0.135823 0.030843 0.971992
O O5 0.954219 0.668164 0.604838
O O6 0.900715 0.416291 0.809553
O O7 0.799376 0.242413 0.634875
O O8 0.798529 0.478308 0.516076
O O9 0.944076 0.344394 0.578389
#
# Coordination Sequence:
#
# PCOD9262014 Si02
#       5
#     8   4   8   8   8
#     4  11  19  31  52  83 107 135 177 225 262 309
#     4  12  18  28  50  84 104 128 174 228 252 304
#     4   9  19  34  50  73 111 150 168 205 277 327
#     4  10  19  32  52  76 104 143 177 214 262 321
#     4  10  19  33  51  77 111 141 173 218 268 314
#
# _framework density 26.632836000000001
#
# number of rings (size 3 to 8) (size 9 to 14) (size 15 to 20)
#    0.000    1.778    4.444    3.333    0.000    0.000 
#    0.000    3.333    0.000    5.333    0.000    0.000 
#    0.000    0.000    0.000    0.000    0.000    0.000 
#
# Total GULP energy -100655.031962 kJ/mol
# GULP energy per Si atom -5591.946220 kJ/mol
# Density = 2.657222 g / cm^3
# Si number density = 26.632836 Si / 1000 Ang^3
#
#
#
# Elastic Constant Matrix: (Units=GPa)
#
#
# Indices 1 2 3 4 5 6 
#
# 1 96.4915 21.8865 53.4189 0.0000 26.3825 0.0000
# 2 21.8865 67.6814 24.7655 0.0000 -1.3629 0.0000
# 3 53.4189 24.7655 232.8234 0.0000 20.1833 0.0000
# 4 0.0000 0.0000 0.0000 38.7335 0.0000 -0.2431
# 5 26.3825 -1.3629 20.1833 0.0000 68.3908 0.0000
# 6 0.0000 0.0000 0.0000 -0.2431 0.0000 26.7245
#
#
#
# Elastic Compliance Matrix: (Units=1/GPa)
#
#
# Indices 1 2 3 4 5 6 
#
# 1 0.013794 -0.003690 -0.002365 0.000000 -0.004697 0.000000
# 2 -0.003690 0.016404 -0.001078 0.000000 0.002068 0.000000
# 3 -0.002365 -0.001078 0.005003 0.000000 -0.000586 0.000000
# 4 0.000000 0.000000 0.000000 0.025819 0.000000 0.000235
# 5 -0.004697 0.002068 -0.000586 0.000000 0.016648 0.000000
# 6 0.000000 0.000000 0.000000 0.000235 0.000000 0.037421
#
#
# Mechanical properties :
#
#
# Convention : Reuss Voigt Hill
#
# Bulk Modulus (GPa) = 47.76420 66.34870 57.05645
# Shear Modulus (GPa) = 36.67480 46.56477 41.61979
#
# Velocity S-wave (km/s) = 3.71489 4.18592 3.95742
# Velocity P-wave (km/s) = 6.03107 6.95191 6.50780
#
# Compressibility (1/GPa) = 0.02093618
#
# Stress axis : x y z
#
# Youngs Moduli (GPa) = 72.49445 60.95975 199.87269
#
# Poissons Ratio (x) = 0.22493 0.47276
# Poissons Ratio (y) = 0.26749 0.21539
# Poissons Ratio (z) = 0.17147 0.06569
#
# Static dielectric constant tensor:
#      x y z
#    x 2.081930 0.000000 0.100770 
#    y 0.000000 2.121740 0.000000 
#    z 0.100770 0.000000 2.134990 
# 
# From -- ./inp_files/37499.got.cif
#   From: 2010.05.17/outbox.cif.g08.bks.cpg/sg15_19_cif.got.tgz:37499.got - 2010.06.03 18:47:42.
