data_PCOD9262429
_publ_section_title
;
Structure prediction by ZEFSAII (Michael W. Deem and Ramdas Pophale) SiO2 
 PCOD9262429
Probable space group: C 2/C
;
_chemical_formula_sum "Si O2"
_cell_formula_units_Z 64
_cell_length_a 24.902263
_cell_length_b 21.885869
_cell_length_c 16.863792
_cell_angle_alpha 90.000000
_cell_angle_beta 22.098127
_cell_angle_gamma 90.000000
_cell_volume 3457.559665
_symmetry_space_group_name_H-M "C 2/C"
_symmetry_group_IT_number 15
_symmetry_cell_setting 'monoclinic'
loop_
_space_group_symop_operation_xyz
x,y,z
-x,y,1/2-z
-x,-y,-z
x,-y,1/2+z
1/2+x,1/2+y,z
1/2-x,1/2+y,1/2-z
1/2-x,1/2-y,-z
1/2+x,1/2-y,1/2+z
loop_
_atom_site_type_symbol
_atom_site_label
_atom_site_fract_x
_atom_site_fract_y
_atom_site_fract_z
Si Si1 0.622690 0.708684 0.339864
Si Si2 0.619938 0.103103 0.954402
Si Si3 0.663469 0.131651 0.554079
Si Si4 0.801883 0.194633 0.805185
Si Si5 0.408494 0.151590 0.667913
Si Si6 0.327506 0.005355 0.493943
Si Si7 0.763207 0.669656 0.310607
Si Si8 0.723693 0.107830 0.053791
O O1 0.460060 0.686990 0.553512
O O2 0.626745 0.781219 0.318291
O O3 0.667758 0.687084 0.366166
O O4 0.731347 0.679557 0.129339
O O5 0.691411 0.161330 0.898313
O O6 0.639488 0.104328 0.833823
O O7 0.687999 0.044239 0.904262
O O8 0.449780 0.110318 0.202184
O O9 0.500000 0.141380 0.750000
O O10 0.658740 0.137762 0.655395
O O11 0.713320 0.064921 0.455920
O O12 0.778518 0.267171 0.838959
O O13 0.781218 0.160748 0.917014
O O14 0.581272 0.150766 0.435941
O O15 0.500000 0.005015 0.250000
O O16 0.255402 0.044501 0.522110
O O17 0.718391 0.619196 0.436883
#
# Coordination Sequence:
#
# PCOD9262429 Si02
#       8
#     8   8   8   8   8   8   8   8
#     4  11  22  35  51  84 110 140 183 219 270 327
#     4   9  17  36  58  79 110 140 182 215 262 330
#     4  11  21  38  56  78 109 143 182 228 271 303
#     4  10  19  33  53  79 112 142 174 215 274 322
#     4  10  20  36  57  79 109 143 177 225 270 317
#     4   8  17  34  55  81 106 137 182 220 264 319
#     4  10  19  33  51  82 112 138 179 220 269 323
#     4   9  18  34  55  80 108 144 175 218 264 324
#
# _framework density 18.510165000000001
#
# number of rings (size 3 to 8) (size 9 to 14) (size 15 to 20)
#    0.000    2.250    2.500    1.875    0.000    0.500 
#    4.500    5.625    0.000    0.000    6.500    0.000 
#    0.000    0.000    0.000    0.000    0.000    0.000 
#
# Total GULP energy -178318.943670 kJ/mol
# GULP energy per Si atom -5572.466990 kJ/mol
# Density = 1.846804 g / cm^3
# Si number density = 18.510165 Si / 1000 Ang^3
#
#
#
# Elastic Constant Matrix: (Units=GPa)
#
#
# Indices 1 2 3 4 5 6 
#
# 1 72.2048 14.3373 18.4568 0.0009 16.5287 -0.0008
# 2 14.3373 30.3627 9.4460 -0.0018 0.0318 -0.0001
# 3 18.4568 9.4460 40.4713 -0.0008 15.2852 -0.0018
# 4 0.0009 -0.0018 -0.0008 15.7765 -0.0015 -0.4326
# 5 16.5287 0.0318 15.2852 -0.0015 21.2942 0.0021
# 6 -0.0008 -0.0001 -0.0018 -0.4326 0.0021 9.3956
#
#
#
# Elastic Compliance Matrix: (Units=1/GPa)
#
#
# Indices 1 2 3 4 5 6 
#
# 1 0.019064 -0.008508 -0.001543 -0.000003 -0.013678 0.000004
# 2 -0.008508 0.040356 -0.010990 0.000006 0.014433 -0.000005
# 3 -0.001543 -0.010990 0.037754 -0.000001 -0.025887 0.000012
# 4 -0.000003 0.000006 -0.000001 0.063466 0.000008 0.002922
# 5 -0.013678 0.014433 -0.025887 0.000008 0.076138 -0.000022
# 6 0.000004 -0.000005 0.000012 0.002922 -0.000022 0.106568
#
#
# Mechanical properties :
#
#
# Convention : Reuss Voigt Hill
#
# Bulk Modulus (GPa) = 18.15081 25.27989 21.71535
# Shear Modulus (GPa) = 12.38260 16.01317 14.19789
#
# Velocity S-wave (km/s) = 2.58924 2.94445 2.77254
# Velocity P-wave (km/s) = 4.33198 5.02461 4.69109
#
# Compressibility (1/GPa) = 0.05509396
#
# Stress axis : x y z
#
# Youngs Moduli (GPa) = 52.45433 24.77916 26.48702
#
# Poissons Ratio (x) = 0.21082 0.04086
# Poissons Ratio (y) = 0.44628 0.29109
# Poissons Ratio (z) = 0.08091 0.27233
#
# Static dielectric constant tensor:
#      x y z
#    x 1.663640 0.000000 0.005260 
#    y 0.000000 1.640360 0.000000 
#    z 0.005260 0.000000 1.615840 
# 
# From -- ./inp_files/223131.got.cif
#   From: 2010.05.17/outbox.cif.g08.bks.cpg/sg15_112_cif.got.tgz:223131.got - 2010.06.03 18:47:42.
