data_PCOD9262769
_publ_section_title
;
Structure prediction by ZEFSAII (Michael W. Deem and Ramdas Pophale) SiO2 
 PCOD9262769
Probable space group: C 2/C
;
_chemical_formula_sum "Si O2"
_cell_formula_units_Z 56
_cell_length_a 15.340912
_cell_length_b 15.270173
_cell_length_c 12.790606
_cell_angle_alpha 90.000000
_cell_angle_beta 84.748187
_cell_angle_gamma 90.000000
_cell_volume 2983.728243
_symmetry_space_group_name_H-M "C 2/C"
_symmetry_group_IT_number 15
_symmetry_cell_setting 'monoclinic'
loop_
_space_group_symop_operation_xyz
x,y,z
-x,y,1/2-z
-x,-y,-z
x,-y,1/2+z
1/2+x,1/2+y,z
1/2-x,1/2+y,1/2-z
1/2-x,1/2-y,-z
1/2+x,1/2-y,1/2+z
loop_
_atom_site_type_symbol
_atom_site_label
_atom_site_fract_x
_atom_site_fract_y
_atom_site_fract_z
Si Si1 0.911752 0.458173 0.552952
Si Si2 0.187960 0.395684 0.550023
Si Si3 0.949816 0.747638 0.359707
Si Si4 0.219410 0.225220 0.160607
Si Si5 0.221117 0.848394 0.168043
Si Si6 0.722762 0.960033 0.771649
Si Si7 0.606356 0.245904 0.483662
O O1 0.839837 0.513306 0.499105
O O2 0.878593 0.467381 0.676580
O O3 0.910250 0.357331 0.525150
O O4 0.000000 0.500000 0.500000
O O5 0.106674 0.331896 0.585675
O O6 0.245465 0.349911 0.454984
O O7 0.229742 0.424567 0.653910
O O8 0.878920 0.817470 0.327035
O O9 0.000000 0.716140 0.250000
O O10 0.020688 0.783836 0.435362
O O11 0.223775 0.278099 0.269149
O O12 0.237017 0.121592 0.168958
O O13 0.304534 0.264955 0.090767
O O14 0.132873 0.236055 0.100142
O O15 0.234725 0.945297 0.214305
#
# Coordination Sequence:
#
# PCOD9262769 Si02
#       7
#     8   8   8   8   8   8   8
#     4  10  19  33  55  92 120 145 192 255 318 373
#     4  11  22  37  64  88 128 160 203 259 318 379
#     4  12  21  38  63  94 119 163 211 258 301 369
#     4  10  20  39  62  86 121 163 203 255 312 370
#     4  11  23  40  64  92 123 167 210 253 314 374
#     4  10  22  38  58  88 116 163 204 248 308 372
#     4  10  20  36  62  90 123 158 202 254 315 366
#
# _framework density 18.768464999999999
#
# number of rings (size 3 to 8) (size 9 to 14) (size 15 to 20)
#    0.000    1.429    4.286    2.143    0.000    1.143 
#    0.000    1.429    0.000    0.000    0.000    0.000 
#    0.000    0.000    0.000    0.000    0.000    0.000 
#
# Total GULP energy -156003.906823 kJ/mol
# GULP energy per Si atom -5571.568101 kJ/mol
# Density = 1.872575 g / cm^3
# Si number density = 18.768465 Si / 1000 Ang^3
#
#
#
# Elastic Constant Matrix: (Units=GPa)
#
#
# Indices 1 2 3 4 5 6 
#
# 1 68.1318 23.9371 41.2092 0.0000 17.4814 0.0000
# 2 23.9371 81.6685 29.0734 0.0000 3.8148 0.0000
# 3 41.2092 29.0734 105.3102 0.0000 4.2555 0.0000
# 4 0.0000 0.0000 0.0000 26.2881 0.0000 3.1569
# 5 17.4814 3.8148 4.2555 0.0000 35.6898 0.0000
# 6 0.0000 0.0000 0.0000 3.1569 0.0000 19.8401
#
#
#
# Elastic Compliance Matrix: (Units=1/GPa)
#
#
# Indices 1 2 3 4 5 6 
#
# 1 0.023149 -0.003588 -0.007662 0.000000 -0.010042 0.000000
# 2 -0.003588 0.014172 -0.002530 0.000000 0.000545 0.000000
# 3 -0.007662 -0.002530 0.013093 0.000000 0.002462 0.000000
# 4 0.000000 0.000000 0.000000 0.038781 0.000000 -0.006171
# 5 -0.010042 0.000545 0.002462 0.000000 0.032586 0.000000
# 6 0.000000 0.000000 0.000000 -0.006171 0.000000 0.051385
#
#
# Mechanical properties :
#
#
# Convention : Reuss Voigt Hill
#
# Bulk Modulus (GPa) = 43.75902 49.28329 46.52116
# Shear Modulus (GPa) = 23.99870 27.08964 25.54417
#
# Velocity S-wave (km/s) = 3.57973 3.80328 3.69320
# Velocity P-wave (km/s) = 6.36017 6.75294 6.55949
#
# Compressibility (1/GPa) = 0.02285243
#
# Stress axis : x y z
#
# Youngs Moduli (GPa) = 43.19841 70.56323 76.37625
#
# Poissons Ratio (x) = 0.25320 0.58520
# Poissons Ratio (y) = 0.15501 0.19325
# Poissons Ratio (z) = 0.33099 0.17855
#
# Static dielectric constant tensor:
#      x y z
#    x 1.683340 0.000000 -0.014080 
#    y 0.000000 1.641060 0.000000 
#    z -0.014080 0.000000 1.731070 
# 
# From -- ./inp_files/97018.got.cif
#   From: 2010.05.17/outbox.cif.g08.bks.cpg/sg15_49_cif.got.tgz:97018.got - 2010.06.03 18:47:42.
