data_PCOD9262070
_publ_section_title
;
Structure prediction by ZEFSAII (Michael W. Deem and Ramdas Pophale) SiO2 
 PCOD9262070
Probable space group: C 2/C
;
_chemical_formula_sum "Si O2"
_cell_formula_units_Z 48
_cell_length_a 11.589240
_cell_length_b 9.291610
_cell_length_c 16.722925
_cell_angle_alpha 90.000000
_cell_angle_beta 87.985528
_cell_angle_gamma 90.000000
_cell_volume 1799.656776
_symmetry_space_group_name_H-M "C 2/C"
_symmetry_group_IT_number 15
_symmetry_cell_setting 'monoclinic'
loop_
_space_group_symop_operation_xyz
x,y,z
-x,y,1/2-z
-x,-y,-z
x,-y,1/2+z
1/2+x,1/2+y,z
1/2-x,1/2+y,1/2-z
1/2-x,1/2-y,-z
1/2+x,1/2-y,1/2+z
loop_
_atom_site_type_symbol
_atom_site_label
_atom_site_fract_x
_atom_site_fract_y
_atom_site_fract_z
Si Si1 0.964185 0.775578 0.949435
Si Si2 0.698817 0.358206 0.673095
Si Si3 0.309788 0.864113 0.835984
Si Si4 0.162378 0.610760 0.885649
Si Si5 0.500000 0.560182 0.750000
Si Si6 0.389786 0.564204 0.599090
Si Si7 0.500000 0.028811 0.750000
O O1 0.062780 0.654287 0.950397
O O2 0.875410 0.751841 0.879060
O O3 0.894110 0.821211 0.028839
O O4 0.035508 0.921822 0.925565
O O5 0.773638 0.314516 0.747007
O O6 0.777995 0.456633 0.613864
O O7 0.604523 0.461461 0.717286
O O8 0.267581 0.725900 0.887314
O O9 0.229708 0.993460 0.870846
O O10 0.434265 0.930809 0.817011
O O11 0.094366 0.615856 0.800826
O O12 0.454063 0.635602 0.672666
#
# Coordination Sequence:
#
# PCOD9262070 Si02
#       7
#     8   8   8   8   4   8   4
#     4   9  16  30  50  76 107 136 171 218 262 311
#     4   9  17  29  51  76 102 136 178 218 259 315
#     4   9  18  33  51  75 104 136 177 220 260 309
#     4  10  19  32  53  77 103 142 177 212 270 312
#     4   8  14  28  46  70 102 136 172 214 256 306
#     4   8  15  29  50  73 105 139 169 214 264 305
#     4  10  20  34  54  78 106 136 180 224 254 312
#
# _framework density 26.671752999999999
#
# number of rings (size 3 to 8) (size 9 to 14) (size 15 to 20)
#    0.000    3.000    0.000    2.000    0.000    2.000 
#    0.000   14.167    0.000    4.000    0.000    0.000 
#    0.000    0.000    0.000    0.000    0.000    0.000 
#
# Total GULP energy -134189.232606 kJ/mol
# GULP energy per Si atom -5591.218025 kJ/mol
# Density = 2.661105 g / cm^3
# Si number density = 26.671753 Si / 1000 Ang^3
#
#
#
# Elastic Constant Matrix: (Units=GPa)
#
#
# Indices 1 2 3 4 5 6 
#
# 1 64.1068 44.1647 22.6745 0.0000 -30.7466 0.0000
# 2 44.1647 77.1133 20.3878 0.0000 -29.2868 0.0000
# 3 22.6745 20.3878 71.4278 0.0000 -10.2764 0.0000
# 4 0.0000 0.0000 0.0000 12.3453 0.0000 -11.9273
# 5 -30.7466 -29.2868 -10.2764 0.0000 30.5892 0.0000
# 6 0.0000 0.0000 0.0000 -11.9273 0.0000 6.3410
#
#
#
# Elastic Compliance Matrix: (Units=1/GPa)
#
#
# Indices 1 2 3 4 5 6 
#
# 1 0.036364 -0.009821 -0.005080 0.000000 0.025441 0.000000
# 2 -0.009821 0.023733 -0.001900 0.000000 0.012213 0.000000
# 3 -0.005080 -0.001900 0.015929 0.000000 -0.001574 0.000000
# 4 0.000000 0.000000 0.000000 -0.099109 0.000000 -0.186423
# 5 0.025441 0.012213 -0.001574 0.000000 0.069428 0.000000
# 6 0.000000 0.000000 0.000000 -0.186423 0.000000 -0.192956
#
#
# Mechanical properties :
#
#
# Convention : Reuss Voigt Hill
#
# Bulk Modulus (GPa) = 23.57127 43.01132 33.29130
# Shear Modulus (GPa) = -50.57183 18.21649 -16.17767
#
# Velocity S-wave (km/s) = -4.35913 2.61624 -2.46549
# Velocity P-wave (km/s) = 4.05946 5.02866 2.09860
#
# Compressibility (1/GPa) = 0.04242453
#
# Stress axis : x y z
#
# Youngs Moduli (GPa) = 27.49989 42.13490 62.78024
#
# Poissons Ratio (x) = 0.41381 0.31893
# Poissons Ratio (y) = 0.27008 0.11925
# Poissons Ratio (z) = 0.13970 0.08004
#
# Static dielectric constant tensor:
#      x y z
#    x 2.063230 0.000000 -0.004600 
#    y 0.000000 2.067250 0.000000 
#    z -0.004600 0.000000 2.084060 
# 
# From -- ./inp_files/196063.got.cif
#   From: 2010.05.17/outbox.cif.g08.bks.cpg/sg15_99_cif.got.tgz:196063.got - 2010.06.03 18:47:42.
