data_PCOD9262725
_publ_section_title
;
Structure prediction by ZEFSAII (Michael W. Deem and Ramdas Pophale) SiO2 
 PCOD9262725
Probable space group: C 2/C
;
_chemical_formula_sum "Si O2"
_cell_formula_units_Z 64
_cell_length_a 12.159077
_cell_length_b 24.171906
_cell_length_c 24.533423
_cell_angle_alpha 90.000000
_cell_angle_beta 29.664109
_cell_angle_gamma 90.000000
_cell_volume 3568.615712
_symmetry_space_group_name_H-M "C 2/C"
_symmetry_group_IT_number 15
_symmetry_cell_setting 'monoclinic'
loop_
_space_group_symop_operation_xyz
x,y,z
-x,y,1/2-z
-x,-y,-z
x,-y,1/2+z
1/2+x,1/2+y,z
1/2-x,1/2+y,1/2-z
1/2-x,1/2-y,-z
1/2+x,1/2-y,1/2+z
loop_
_atom_site_type_symbol
_atom_site_label
_atom_site_fract_x
_atom_site_fract_y
_atom_site_fract_z
Si Si1 0.238734 0.834337 0.628671
Si Si2 0.263349 0.662172 0.639639
Si Si3 0.009524 0.264994 0.896235
Si Si4 0.286519 0.398055 0.236547
Si Si5 0.052982 0.428550 0.033006
Si Si6 0.157336 0.764236 0.481244
Si Si7 0.850703 0.975775 0.364120
Si Si8 0.688539 0.720459 0.713391
O O1 0.413143 0.818624 0.602062
O O2 0.343844 0.873308 0.537371
O O3 0.191731 0.775118 0.621332
O O4 0.000000 0.856951 0.750000
O O5 0.388407 0.712538 0.615899
O O6 0.301711 0.611479 0.665017
O O7 0.336589 0.673707 0.545308
O O8 0.000000 0.667376 0.750000
O O9 0.120100 0.264557 0.789045
O O10 0.750000 0.250000 0.000000
O O11 0.491677 0.434539 0.170009
O O12 0.287679 0.337960 0.265718
O O13 0.058707 0.423373 0.359439
O O14 0.849191 0.443754 0.080102
O O15 0.236127 0.476528 0.948814
O O16 0.250000 0.750000 0.500000
O O17 0.908950 0.740611 0.588290
O O18 0.000000 0.999233 0.250000
O O19 0.500000 0.713881 0.750000
#
# Coordination Sequence:
#
# PCOD9262725 Si02
#       8
#     8   8   8   8   8   8   8   8
#     4  11  21  33  49  76 113 146 179 232 288 345
#     4  10  21  35  52  80 113 151 195 236 278 337
#     4  10  21  33  49  76 112 151 189 227 276 337
#     4  10  20  34  56  80 112 150 192 237 295 353
#     4  10  19  33  55  83 109 146 183 236 301 351
#     4  11  20  33  52  76 111 147 186 230 270 331
#     4   9  19  34  55  83 114 135 186 249 295 354
#     4  11  19  31  51  77 108 151 190 224 267 339
#
# _framework density 17.934125000000002
#
# number of rings (size 3 to 8) (size 9 to 14) (size 15 to 20)
#    0.000    1.750    1.250    6.750    3.500    0.000 
#    0.000    0.000    0.000    0.750    0.000    0.000 
#    0.000    0.000    0.000    0.000    0.000    0.000 
#
# Total GULP energy -178153.990526 kJ/mol
# GULP energy per Si atom -5567.312204 kJ/mol
# Density = 1.789331 g / cm^3
# Si number density = 17.934125 Si / 1000 Ang^3
#
#
#
# Elastic Constant Matrix: (Units=GPa)
#
#
# Indices 1 2 3 4 5 6 
#
# 1 72.7424 17.2548 30.7669 -0.0354 0.9671 0.0367
# 2 17.2548 56.2406 32.7292 -0.0574 4.1896 0.0894
# 3 30.7669 32.7292 91.6744 0.0362 -4.9150 0.0189
# 4 -0.0354 -0.0574 0.0362 26.6119 0.0035 5.9186
# 5 0.9671 4.1896 -4.9150 0.0035 36.8289 -0.0267
# 6 0.0367 0.0894 0.0189 5.9186 -0.0267 13.1541
#
#
#
# Elastic Compliance Matrix: (Units=1/GPa)
#
#
# Indices 1 2 3 4 5 6 
#
# 1 0.016275 -0.002182 -0.004726 0.000032 -0.000810 -0.000040
# 2 -0.002182 0.023235 -0.007757 0.000101 -0.003621 -0.000194
# 3 -0.004726 -0.007757 0.015428 -0.000062 0.003066 0.000078
# 4 0.000032 0.000101 -0.000062 0.041756 -0.000038 -0.018789
# 5 -0.000810 -0.003621 0.003066 -0.000038 0.027995 0.000097
# 6 -0.000040 -0.000194 0.000078 -0.018789 0.000097 0.084477
#
#
# Mechanical properties :
#
#
# Convention : Reuss Voigt Hill
#
# Bulk Modulus (GPa) = 39.05265 42.46214 40.75740
# Shear Modulus (GPa) = 20.24030 24.64607 22.44319
#
# Velocity S-wave (km/s) = 3.36310 3.71112 3.54138
# Velocity P-wave (km/s) = 6.07482 6.48778 6.28469
#
# Compressibility (1/GPa) = 0.02560646
#
# Stress axis : x y z
#
# Youngs Moduli (GPa) = 61.44556 43.03934 64.81703
#
# Poissons Ratio (x) = 0.09392 0.30634
# Poissons Ratio (y) = 0.13409 0.50278
# Poissons Ratio (z) = 0.29041 0.33385
#
# Static dielectric constant tensor:
#      x y z
#    x 1.670950 0.000020 0.039480 
#    y 0.000020 1.671260 0.000100 
#    z 0.039480 0.000100 1.665260 
# 
# From -- ./inp_files/271289.got.cif
#   From: 2010.05.17/outbox.cif.g08.bks.cpg/sg15_136_cif.got.tgz:271289.got - 2010.06.03 18:47:42.
