data_PCOD9262790
_publ_section_title
;
Structure prediction by ZEFSAII (Michael W. Deem and Ramdas Pophale) SiO2 
 PCOD9262790
Probable space group: C 2/C
;
_chemical_formula_sum "Si O2"
_cell_formula_units_Z 40
_cell_length_a 20.737849
_cell_length_b 7.771137
_cell_length_c 24.397554
_cell_angle_alpha 90.000000
_cell_angle_beta 155.971783
_cell_angle_gamma 90.000000
_cell_volume 1600.987451
_symmetry_space_group_name_H-M "C 2/C"
_symmetry_group_IT_number 15
_symmetry_cell_setting 'monoclinic'
loop_
_space_group_symop_operation_xyz
x,y,z
-x,y,1/2-z
-x,-y,-z
x,-y,1/2+z
1/2+x,1/2+y,z
1/2-x,1/2+y,1/2-z
1/2-x,1/2-y,-z
1/2+x,1/2-y,1/2+z
loop_
_atom_site_type_symbol
_atom_site_label
_atom_site_fract_x
_atom_site_fract_y
_atom_site_fract_z
Si Si1 0.569609 0.041347 0.632962
Si Si2 0.877572 0.749433 0.920137
Si Si3 0.901564 0.957061 0.334214
Si Si4 0.431603 0.947256 0.636590
Si Si5 0.577144 0.465545 0.368741
O O1 0.445759 0.912992 0.508243
O O2 0.535825 0.035829 0.670476
O O3 0.547663 0.220724 0.582589
O O4 0.750406 0.991546 0.755020
O O5 0.693490 0.704028 0.769782
O O6 0.953491 0.900376 0.014432
O O7 0.975186 0.048172 0.338481
O O8 0.500000 0.963953 0.750000
O O9 0.414685 0.741217 0.612111
O O10 0.256583 0.024980 0.502825
O O11 0.500000 0.487247 0.250000
#
# Coordination Sequence:
#
# PCOD9262790 Si02
#       5
#     8   8   8   8   8
#     4   9  19  35  56  75 115 145 177 222 274 313
#     4   9  19  33  56  77 112 140 182 220 261 316
#     4  10  19  33  56  81 108 147 181 216 267 324
#     4  10  20  33  53  78 110 139 172 223 275 324
#     4  10  20  30  52  81 114 138 164 219 282 329
#
# _framework density 24.984580999999999
#
# number of rings (size 3 to 8) (size 9 to 14) (size 15 to 20)
#    1.200    1.200    2.000    1.200    5.600    0.000 
#    0.000    4.000    0.000    1.200    0.000    0.000 
#    0.000    0.000    0.000    0.000    0.000    0.000 
#
# Total GULP energy -111564.840586 kJ/mol
# GULP energy per Si atom -5578.242029 kJ/mol
# Density = 2.492772 g / cm^3
# Si number density = 24.984581 Si / 1000 Ang^3
#
#
#
# Elastic Constant Matrix: (Units=GPa)
#
#
# Indices 1 2 3 4 5 6 
#
# 1 234.4353 27.9722 51.2764 0.0002 13.7830 -0.0004
# 2 27.9722 40.5955 -4.0598 0.0009 -0.6699 0.0013
# 3 51.2764 -4.0598 103.7746 0.0018 23.1556 -0.0001
# 4 0.0002 0.0009 0.0018 20.6096 0.0003 -31.8856
# 5 13.7830 -0.6699 23.1556 0.0003 36.5924 0.0005
# 6 -0.0004 0.0013 -0.0001 -31.8856 0.0005 95.2034
#
#
#
# Elastic Compliance Matrix: (Units=1/GPa)
#
#
# Indices 1 2 3 4 5 6 
#
# 1 0.005355 -0.003968 -0.002719 0.000001 -0.000369 0.000000
# 2 -0.003968 0.027671 0.003024 -0.000004 0.000088 -0.000002
# 3 -0.002719 0.003024 0.012642 -0.000002 -0.006920 -0.000001
# 4 0.000001 -0.000004 -0.000002 0.100700 0.000000 0.033727
# 5 -0.000369 0.000088 -0.006920 0.000000 0.031848 0.000000
# 6 0.000000 -0.000002 -0.000001 0.033727 0.000000 0.021800
#
#
# Mechanical properties :
#
#
# Convention : Reuss Voigt Hill
#
# Bulk Modulus (GPa) = 26.08107 58.79811 42.43959
# Shear Modulus (GPa) = 22.71439 50.72219 36.71829
#
# Velocity S-wave (km/s) = 3.01846 4.51060 3.83774
# Velocity P-wave (km/s) = 4.75496 7.12125 6.05482
#
# Compressibility (1/GPa) = 0.03834199
#
# Stress axis : x y z
#
# Youngs Moduli (GPa) = 186.72489 36.13840 79.09964
#
# Poissons Ratio (x) = 0.14340 0.21508
# Poissons Ratio (y) = 0.74096 -0.23917
# Poissons Ratio (z) = 0.50772 -0.10927
#
# Static dielectric constant tensor:
#      x y z
#    x 1.960660 0.000000 0.001130 
#    y 0.000000 2.204030 0.000000 
#    z 0.001130 0.000000 1.933190 
# 
# From -- ./inp_files/103248.got.cif
#   From: 2010.05.17/outbox.cif.g08.bks.cpg/sg15_52_cif.got.tgz:103248.got - 2010.06.03 18:47:42.
