data_PCOD9262911
_publ_section_title
;
Structure prediction by ZEFSAII (Michael W. Deem and Ramdas Pophale) SiO2 
 PCOD9262911
Probable space group: C 2/C
;
_chemical_formula_sum "Si O2"
_cell_formula_units_Z 60
_cell_length_a 31.666811
_cell_length_b 9.772674
_cell_length_c 17.955201
_cell_angle_alpha 90.000000
_cell_angle_beta 28.851638
_cell_angle_gamma 90.000000
_cell_volume 2681.292912
_symmetry_space_group_name_H-M "C 2/C"
_symmetry_group_IT_number 15
_symmetry_cell_setting 'monoclinic'
loop_
_space_group_symop_operation_xyz
x,y,z
-x,y,1/2-z
-x,-y,-z
x,-y,1/2+z
1/2+x,1/2+y,z
1/2-x,1/2+y,1/2-z
1/2-x,1/2-y,-z
1/2+x,1/2-y,1/2+z
loop_
_atom_site_type_symbol
_atom_site_label
_atom_site_fract_x
_atom_site_fract_y
_atom_site_fract_z
Si Si1 0.863859 0.425516 0.670112
Si Si2 0.109031 0.252399 0.732112
Si Si3 0.251991 0.076021 0.581314
Si Si4 0.000000 0.535382 0.750000
Si Si5 0.424455 0.827127 0.977372
Si Si6 0.742592 0.606666 0.913601
Si Si7 0.238547 0.775293 0.256455
Si Si8 0.642072 0.826028 0.130437
O O1 0.910244 0.341678 0.662995
O O2 0.906128 0.563947 0.573280
O O3 0.768672 0.451527 0.857155
O O4 0.836643 0.333516 0.642628
O O5 0.163942 0.121033 0.673574
O O6 0.170984 0.338503 0.580071
O O7 0.013125 0.241486 0.845997
O O8 0.236195 0.119735 0.690705
O O9 0.283262 0.919947 0.525385
O O10 0.934785 0.432550 0.892997
O O11 0.947687 0.620811 0.767373
O O12 0.340258 0.731067 0.099698
O O13 0.727763 0.661895 0.853914
O O14 0.829354 0.650343 0.828089
O O15 0.661706 0.668608 0.082697
#
# Coordination Sequence:
#
# PCOD9262911 Si02
#       8
#     8   8   8   4   8   8   8   8
#     4  10  20  36  56  84 116 154 200 245 298 350
#     4  10  19  33  57  88 115 147 194 247 297 349
#     4  10  19  35  57  85 118 152 188 243 301 347
#     4  12  20  34  60  90 116 148 200 262 286 340
#     4  11  19  32  56  88 116 149 196 247 296 344
#     4  10  22  37  58  82 114 162 197 234 295 369
#     4  10  21  34  56  85 116 153 194 246 297 348
#     4  11  21  38  60  85 118 155 198 243 295 360
#
# _framework density 22.377264
#
# number of rings (size 3 to 8) (size 9 to 14) (size 15 to 20)
#    0.000    1.600    4.000    1.200    1.867    1.067 
#    0.000    0.000    5.867    3.200    0.000    0.000 
#    0.000    0.000    0.000    0.000    0.000    0.000 
#
# Total GULP energy -167065.919652 kJ/mol
# GULP energy per Si atom -5568.863988 kJ/mol
# Density = 2.232633 g / cm^3
# Si number density = 22.377264 Si / 1000 Ang^3
#
#
#
# Elastic Constant Matrix: (Units=GPa)
#
#
# Indices 1 2 3 4 5 6 
#
# 1 138.7183 12.8186 20.0348 0.0000 3.2631 0.0000
# 2 12.8186 25.5789 4.0934 -0.0001 -6.9376 0.0000
# 3 20.0348 4.0934 43.5311 0.0000 -2.8133 0.0000
# 4 0.0000 -0.0001 0.0000 28.3057 0.0000 0.6889
# 5 3.2631 -6.9376 -2.8133 0.0000 41.7056 0.0000
# 6 0.0000 0.0000 0.0000 0.6889 0.0000 25.8797
#
#
#
# Elastic Compliance Matrix: (Units=1/GPa)
#
#
# Indices 1 2 3 4 5 6 
#
# 1 0.008107 -0.003921 -0.003461 0.000000 -0.001520 0.000000
# 2 -0.003921 0.043353 -0.001794 0.000000 0.007397 0.000000
# 3 -0.003461 -0.001794 0.024840 0.000000 0.001648 0.000000
# 4 0.000000 0.000000 0.000000 0.035351 0.000000 -0.000941
# 5 -0.001520 0.007397 0.001648 0.000000 0.025438 0.000000
# 6 0.000000 0.000000 0.000000 -0.000941 0.000000 0.038665
#
#
# Mechanical properties :
#
#
# Convention : Reuss Voigt Hill
#
# Bulk Modulus (GPa) = 17.25663 31.30243 24.27953
# Shear Modulus (GPa) = 23.42771 30.57032 26.99901
#
# Velocity S-wave (km/s) = 3.23916 3.70013 3.47729
# Velocity P-wave (km/s) = 4.66025 5.68098 5.19574
#
# Compressibility (1/GPa) = 0.05794875
#
# Stress axis : x y z
#
# Youngs Moduli (GPa) = 123.35406 23.06632 40.25768
#
# Poissons Ratio (x) = 0.09044 0.13931
# Poissons Ratio (y) = 0.48368 0.07222
# Poissons Ratio (z) = 0.42688 0.04138
#
# Static dielectric constant tensor:
#      x y z
#    x 1.891430 0.000000 0.025320 
#    y 0.000000 1.857450 0.000000 
#    z 0.025320 0.000000 1.886790 
# 
# From -- ./inp_files/225002.got.cif
#   From: 2010.05.17/outbox.cif.g08.bks.cpg/sg15_113_cif.got.tgz:225002.got - 2010.06.03 18:47:42.
