data_PCOD9262092
_publ_section_title
;
Structure prediction by ZEFSAII (Michael W. Deem and Ramdas Pophale) SiO2 
 PCOD9262092
Probable space group: C 2/C
;
_chemical_formula_sum "Si O2"
_cell_formula_units_Z 64
_cell_length_a 5.874754
_cell_length_b 21.438790
_cell_length_c 27.658274
_cell_angle_alpha 90.000000
_cell_angle_beta 95.564770
_cell_angle_gamma 90.000000
_cell_volume 3467.076747
_symmetry_space_group_name_H-M "C 2/C"
_symmetry_group_IT_number 15
_symmetry_cell_setting 'monoclinic'
loop_
_space_group_symop_operation_xyz
x,y,z
-x,y,1/2-z
-x,-y,-z
x,-y,1/2+z
1/2+x,1/2+y,z
1/2-x,1/2+y,1/2-z
1/2-x,1/2-y,-z
1/2+x,1/2-y,1/2+z
loop_
_atom_site_type_symbol
_atom_site_label
_atom_site_fract_x
_atom_site_fract_y
_atom_site_fract_z
Si Si1 0.946073 0.432377 0.434833
Si Si2 0.038993 0.753424 0.458379
Si Si3 0.238471 0.363803 0.225202
Si Si4 0.584142 0.525693 0.450338
Si Si5 0.241053 0.145141 0.487809
Si Si6 0.745854 0.503912 0.242418
Si Si7 0.867165 0.161754 0.622374
Si Si8 0.699237 0.549860 0.635152
O O1 0.834949 0.496657 0.448512
O O2 0.760765 0.379069 0.421223
O O3 0.120306 0.403327 0.476250
O O4 0.060888 0.443000 0.385798
O O5 0.250000 0.750000 0.500000
O O6 0.093008 0.773664 0.404675
O O7 0.883535 0.808301 0.477983
O O8 0.904515 0.688503 0.459395
O O9 0.500000 0.347200 0.250000
O O10 0.239769 0.439845 0.225533
O O11 0.234605 0.336730 0.170589
O O12 0.000000 0.347646 0.250000
O O13 0.500000 0.500000 0.500000
O O14 0.580432 0.600311 0.452843
O O15 0.443264 0.494314 0.404105
O O16 0.500000 0.535416 0.250000
O O17 0.716831 0.480307 0.187302
O O18 0.000000 0.534588 0.250000
O O19 0.088469 0.118622 0.636994
#
# Coordination Sequence:
#
# PCOD9262092 Si02
#       8
#     8   8   8   8   8   8   8   8
#     4  11  20  33  58  77 114 156 193 237 292 357
#     4  11  23  37  55  77 116 161 196 250 289 350
#     4  10  19  32  53  80 119 150 182 246 303 370
#     4  11  23  35  54  83 115 158 199 242 295 358
#     4  11  22  37  52  80 115 154 206 246 283 347
#     4  10  19  33  51  81 122 152 181 240 301 369
#     4  11  20  34  53  82 116 155 194 235 308 366
#     4  11  21  33  55  83 117 158 187 236 307 363
#
# _framework density 18.459354000000001
#
# number of rings (size 3 to 8) (size 9 to 14) (size 15 to 20)
#    0.000    1.250    6.250    2.625    1.750    0.000 
#    0.000    0.000    0.000    0.000    0.000    0.000 
#    7.500    0.000    0.000    0.000    0.000    0.000 
#
# Total GULP energy -178291.415078 kJ/mol
# GULP energy per Si atom -5571.606721 kJ/mol
# Density = 1.841734 g / cm^3
# Si number density = 18.459354 Si / 1000 Ang^3
#
#
#
# Elastic Constant Matrix: (Units=GPa)
#
#
# Indices 1 2 3 4 5 6 
#
# 1 86.1324 8.1689 20.6430 0.0000 -12.3709 0.0000
# 2 8.1689 54.2602 21.7196 0.0000 -5.6424 0.0000
# 3 20.6430 21.7196 86.0971 0.0000 -9.1600 0.0000
# 4 0.0000 0.0000 0.0000 16.8471 0.0000 -4.7261
# 5 -12.3709 -5.6424 -9.1600 0.0000 37.4195 0.0000
# 6 0.0000 0.0000 0.0000 -4.7261 0.0000 20.4507
#
#
#
# Elastic Compliance Matrix: (Units=1/GPa)
#
#
# Indices 1 2 3 4 5 6 
#
# 1 0.012778 -0.000535 -0.002554 0.000000 0.003519 0.000000
# 2 -0.000535 0.020651 -0.004896 0.000000 0.001738 0.000000
# 3 -0.002554 -0.004896 0.013650 0.000000 0.001759 0.000000
# 4 0.000000 0.000000 0.000000 0.063472 0.000000 0.014668
# 5 0.003519 0.001738 0.001759 0.000000 0.028580 0.000000
# 6 0.000000 0.000000 0.000000 0.014668 0.000000 0.052288
#
#
# Mechanical properties :
#
#
# Convention : Reuss Voigt Hill
#
# Bulk Modulus (GPa) = 32.14743 36.39476 34.27110
# Shear Modulus (GPa) = 22.96108 26.67400 24.81754
#
# Velocity S-wave (km/s) = 3.53068 3.80546 3.67064
# Velocity P-wave (km/s) = 5.83730 6.25041 6.04738
#
# Compressibility (1/GPa) = 0.03110668
#
# Stress axis : x y z
#
# Youngs Moduli (GPa) = 78.25723 48.42384 73.26268
#
# Poissons Ratio (x) = 0.02593 0.18714
# Poissons Ratio (y) = 0.04190 0.35872
# Poissons Ratio (z) = 0.19990 0.23710
#
# Static dielectric constant tensor:
#      x y z
#    x 1.789390 0.000000 0.044870 
#    y 0.000000 1.641360 0.000000 
#    z 0.044870 0.000000 1.731670 
# 
# From -- ./inp_files/261703.got.cif
#   From: 2010.05.17/outbox.cif.g08.bks.cpg/sg15_131_cif.got.tgz:261703.got - 2010.06.03 18:47:42.
