data_PCOD9262857
_publ_section_title
;
Structure prediction by ZEFSAII (Michael W. Deem and Ramdas Pophale) SiO2 
 PCOD9262857
Probable space group: C 2/C
;
_chemical_formula_sum "Si O2"
_cell_formula_units_Z 48
_cell_length_a 12.291612
_cell_length_b 22.243726
_cell_length_c 10.916977
_cell_angle_alpha 90.000000
_cell_angle_beta 127.577732
_cell_angle_gamma 90.000000
_cell_volume 2365.553019
_symmetry_space_group_name_H-M "C 2/C"
_symmetry_group_IT_number 15
_symmetry_cell_setting 'monoclinic'
loop_
_space_group_symop_operation_xyz
x,y,z
-x,y,1/2-z
-x,-y,-z
x,-y,1/2+z
1/2+x,1/2+y,z
1/2-x,1/2+y,1/2-z
1/2-x,1/2-y,-z
1/2+x,1/2-y,1/2+z
loop_
_atom_site_type_symbol
_atom_site_label
_atom_site_fract_x
_atom_site_fract_y
_atom_site_fract_z
Si Si1 0.284837 0.178942 0.867867
Si Si2 0.465941 0.102617 0.431685
Si Si3 0.007428 0.144127 0.625016
Si Si4 0.616832 0.988759 0.423315
Si Si5 0.576045 0.490113 0.423851
Si Si6 0.753146 0.685890 0.142467
O O1 0.169497 0.137426 0.723453
O O2 0.237597 0.246346 0.801778
O O3 0.433281 0.152097 0.938852
O O4 0.283570 0.181230 0.016875
O O5 0.385748 0.057947 0.467063
O O6 0.355419 0.139134 0.275931
O O7 0.567877 0.055459 0.432418
O O8 0.000000 0.179566 0.750000
O O9 0.931260 0.081572 0.595345
O O10 0.910529 0.173285 0.458540
O O11 0.500000 0.968211 0.250000
O O12 0.766376 0.991025 0.467206
O O13 0.500000 0.515476 0.250000
O O14 0.500000 0.500000 0.500000
#
# Coordination Sequence:
#
# PCOD9262857 Si02
#       6
#     8   8   8   8   8   8
#     4  10  19  33  57  90 125 164 207 262 327 373
#     4  11  22  37  63  93 131 164 214 265 337 388
#     4   9  18  32  53  79 119 155 200 252 308 363
#     4  11  25  40  63  92 130 175 215 270 333 399
#     4  11  25  41  64  92 129 173 218 267 324 392
#     4  10  19  33  56  91 125 163 208 264 317 386
#
# _framework density 20.291238
#
# number of rings (size 3 to 8) (size 9 to 14) (size 15 to 20)
#    0.000    1.667    0.000    6.500    9.333    2.667 
#    0.000    0.000    0.000    1.000    0.000    0.000 
#    0.000    0.000    0.000    0.000    0.000    0.000 
#
# Total GULP energy -133706.975678 kJ/mol
# GULP energy per Si atom -5571.123987 kJ/mol
# Density = 2.024505 g / cm^3
# Si number density = 20.291238 Si / 1000 Ang^3
#
#
#
# Elastic Constant Matrix: (Units=GPa)
#
#
# Indices 1 2 3 4 5 6 
#
# 1 113.3763 28.9507 58.5749 0.0000 19.5810 0.0000
# 2 28.9507 91.0549 36.3449 0.0000 7.1149 0.0000
# 3 58.5749 36.3449 116.7328 0.0000 36.9127 0.0000
# 4 0.0000 0.0000 0.0000 26.3671 0.0000 -3.7482
# 5 19.5810 7.1149 36.9127 0.0000 33.0977 0.0000
# 6 0.0000 0.0000 0.0000 -3.7482 0.0000 4.7927
#
#
#
# Elastic Compliance Matrix: (Units=1/GPa)
#
#
# Indices 1 2 3 4 5 6 
#
# 1 0.012133 -0.001682 -0.005266 0.000000 -0.000943 0.000000
# 2 -0.001682 0.012916 -0.004038 0.000000 0.002722 0.000000
# 3 -0.005266 -0.004038 0.017312 0.000000 -0.015324 0.000000
# 4 0.000000 0.000000 0.000000 0.042670 0.000000 0.033371
# 5 -0.000943 0.002722 -0.015324 0.000000 0.047277 0.000000
# 6 0.000000 0.000000 0.000000 0.033371 0.000000 0.234751
#
#
# Mechanical properties :
#
#
# Convention : Reuss Voigt Hill
#
# Bulk Modulus (GPa) = 49.04748 63.21167 56.12958
# Shear Modulus (GPa) = 12.63172 26.00440 19.31806
#
# Velocity S-wave (km/s) = 2.49774 3.58377 3.08886
# Velocity P-wave (km/s) = 5.70461 6.95301 6.35952
#
# Compressibility (1/GPa) = 0.02038841
#
# Stress axis : x y z
#
# Youngs Moduli (GPa) = 82.41679 77.42107 57.76271
#
# Poissons Ratio (x) = 0.13022 0.30420
# Poissons Ratio (y) = 0.13862 0.23327
# Poissons Ratio (z) = 0.43404 0.31266
#
# Static dielectric constant tensor:
#      x y z
#    x 1.687280 0.000000 0.047670 
#    y 0.000000 1.819810 0.000000 
#    z 0.047670 0.000000 1.793770 
# 
# From -- ./inp_files/89795.got.cif
#   From: 2010.05.17/outbox.cif.g08.bks.cpg/sg15_45_cif.got.tgz:89795.got - 2010.06.03 18:47:42.
