data_PCOD9262910
_publ_section_title
;
Structure prediction by ZEFSAII (Michael W. Deem and Ramdas Pophale) SiO2 
 PCOD9262910
Probable space group: C 2/C
;
_chemical_formula_sum "Si O2"
_cell_formula_units_Z 48
_cell_length_a 25.801801
_cell_length_b 16.081850
_cell_length_c 14.100582
_cell_angle_alpha 90.000000
_cell_angle_beta 24.575627
_cell_angle_gamma 90.000000
_cell_volume 2433.356254
_symmetry_space_group_name_H-M "C 2/C"
_symmetry_group_IT_number 15
_symmetry_cell_setting 'monoclinic'
loop_
_space_group_symop_operation_xyz
x,y,z
-x,y,1/2-z
-x,-y,-z
x,-y,1/2+z
1/2+x,1/2+y,z
1/2-x,1/2+y,1/2-z
1/2-x,1/2-y,-z
1/2+x,1/2-y,1/2+z
loop_
_atom_site_type_symbol
_atom_site_label
_atom_site_fract_x
_atom_site_fract_y
_atom_site_fract_z
Si Si1 0.264136 0.373290 0.487797
Si Si2 0.752261 0.565847 0.982575
Si Si3 0.856973 0.741261 0.463509
Si Si4 0.511349 0.637996 0.030138
Si Si5 0.878935 0.716720 0.831120
Si Si6 0.685284 0.338859 0.405216
O O1 0.225292 0.468508 0.557750
O O2 0.168330 0.319575 0.583993
O O3 0.289488 0.326419 0.544142
O O4 0.396552 0.372015 0.210566
O O5 0.619334 0.588789 0.254853
O O6 0.862169 0.618654 0.850037
O O7 0.734569 0.601295 0.905597
O O8 0.791240 0.697058 0.661222
O O9 0.000000 0.755105 0.250000
O O10 0.481303 0.735914 0.097964
O O11 0.586120 0.615727 0.002032
O O12 0.873194 0.759100 0.943351
O O13 0.750000 0.750000 0.000000
#
# Coordination Sequence:
#
# PCOD9262910 Si02
#       6
#     8   8   8   8   8   8
#     4  10  22  39  56  88 114 148 197 241 290 342
#     4  10  19  33  57  88 115 139 188 247 296 332
#     4  10  23  39  59  74 116 159 198 228 292 358
#     4   9  17  33  59  82 117 147 182 242 289 352
#     4   8  16  29  54  79 111 143 181 216 298 342
#     4   9  18  35  54  81 111 150 193 233 283 354
#
# _framework density 19.725840999999999
#
# number of rings (size 3 to 8) (size 9 to 14) (size 15 to 20)
#    0.000    3.000    0.000    2.500    7.000    1.333 
#    6.000    2.500    0.000    0.000    0.000    0.000 
#    0.000    0.000    0.000    0.000    0.000    0.000 
#
# Total GULP energy -133739.102458 kJ/mol
# GULP energy per Si atom -5572.462602 kJ/mol
# Density = 1.968094 g / cm^3
# Si number density = 19.725841 Si / 1000 Ang^3
#
#
#
# Elastic Constant Matrix: (Units=GPa)
#
#
# Indices 1 2 3 4 5 6 
#
# 1 35.0389 2.6723 8.7605 0.0000 -3.0495 0.0000
# 2 2.6723 129.3918 -3.5777 0.0000 -4.0292 0.0000
# 3 8.7605 -3.5777 17.7088 0.0000 5.9708 0.0000
# 4 0.0000 0.0000 0.0000 16.6477 0.0000 -4.4232
# 5 -3.0495 -4.0292 5.9708 0.0000 22.2629 0.0000
# 6 0.0000 0.0000 0.0000 -4.4232 0.0000 13.6695
#
#
#
# Elastic Compliance Matrix: (Units=1/GPa)
#
#
# Indices 1 2 3 4 5 6 
#
# 1 0.034693 -0.000975 -0.020782 0.000000 0.010149 0.000000
# 2 -0.000975 0.007823 0.001793 0.000000 0.000801 0.000000
# 3 -0.020782 0.001793 0.074719 0.000000 -0.022561 0.000000
# 4 0.000000 0.000000 0.000000 0.065718 0.000000 0.021265
# 5 0.010149 0.000801 -0.022561 0.000000 0.052504 0.000000
# 6 0.000000 0.000000 0.000000 0.021265 0.000000 0.080037
#
#
# Mechanical properties :
#
#
# Convention : Reuss Voigt Hill
#
# Bulk Modulus (GPa) = 12.93543 21.98332 17.45937
# Shear Modulus (GPa) = 13.11677 22.13499 17.62588
#
# Velocity S-wave (km/s) = 2.58147 3.35346 2.99246
# Velocity P-wave (km/s) = 3.93156 5.11496 4.56180
#
# Compressibility (1/GPa) = 0.07730703
#
# Stress axis : x y z
#
# Youngs Moduli (GPa) = 28.82407 127.82613 13.38351
#
# Poissons Ratio (x) = 0.12464 0.27813
# Poissons Ratio (y) = 0.02811 -0.02399
# Poissons Ratio (z) = 0.59901 -0.22915
#
# Static dielectric constant tensor:
#      x y z
#    x 1.725030 0.000000 -0.009610 
#    y 0.000000 1.738150 0.000000 
#    z -0.009610 0.000000 1.720010 
# 
# From -- ./inp_files/178134.got.cif
#   From: 2010.05.17/outbox.cif.g08.bks.cpg/sg15_90_cif.got.tgz:178134.got - 2010.06.03 18:47:42.
