data_PCOD9262442
_publ_section_title
;
Structure prediction by ZEFSAII (Michael W. Deem and Ramdas Pophale) SiO2 
 PCOD9262442
Probable space group: C 2/C
;
_chemical_formula_sum "Si O2"
_cell_formula_units_Z 32
_cell_length_a 13.578857
_cell_length_b 20.875797
_cell_length_c 13.814610
_cell_angle_alpha 90.000000
_cell_angle_beta 157.737524
_cell_angle_gamma 90.000000
_cell_volume 1483.584760
_symmetry_space_group_name_H-M "C 2/C"
_symmetry_group_IT_number 15
_symmetry_cell_setting 'monoclinic'
loop_
_space_group_symop_operation_xyz
x,y,z
-x,y,1/2-z
-x,-y,-z
x,-y,1/2+z
1/2+x,1/2+y,z
1/2-x,1/2+y,1/2-z
1/2-x,1/2-y,-z
1/2+x,1/2-y,1/2+z
loop_
_atom_site_type_symbol
_atom_site_label
_atom_site_fract_x
_atom_site_fract_y
_atom_site_fract_z
Si Si1 0.951332 0.941002 0.090415
Si Si2 0.484510 0.074836 0.454261
Si Si3 0.790705 0.777337 0.426036
Si Si4 0.996189 0.909467 0.861190
O O1 0.211472 0.908884 0.281942
O O2 0.000000 0.936242 0.250000
O O3 0.943653 0.017220 0.058086
O O4 0.682861 0.917355 0.797803
O O5 0.288007 0.105234 0.353807
O O6 0.500000 0.000000 0.500000
O O7 0.750000 0.750000 0.500000
O O8 0.574425 0.748553 0.161590
O O9 0.802214 0.853563 0.431308
O O10 0.000000 0.907998 0.750000
#
# Coordination Sequence:
#
# PCOD9262442 Si02
#       4
#     8   8   8   8
#     4  10  21  36  53  76 104 141 182 227 266 313
#     4  10  20  35  50  79 105 134 187 224 252 333
#     4  10  20  34  45  69 105 140 176 211 235 312
#     4  10  19  33  52  74 106 151 167 206 272 310
#
# _framework density 21.569379000000001
#
# number of rings (size 3 to 8) (size 9 to 14) (size 15 to 20)
#    0.000    2.000    2.500    3.750    0.000    6.000 
#    4.500    0.000    0.000    0.000    0.000    0.000 
#    0.000   20.000    0.000    0.000    0.000    0.000 
#
# Total GULP energy -89165.041506 kJ/mol
# GULP energy per Si atom -5572.815094 kJ/mol
# Density = 2.152029 g / cm^3
# Si number density = 21.569379 Si / 1000 Ang^3
#
#
#
# Elastic Constant Matrix: (Units=GPa)
#
#
# Indices 1 2 3 4 5 6 
#
# 1 98.3235 23.7189 16.3221 0.0013 -15.0726 0.0006
# 2 23.7189 41.1913 6.6404 0.0005 1.8305 0.0007
# 3 16.3221 6.6404 142.6235 0.0030 -11.6223 0.0019
# 4 0.0013 0.0005 0.0030 22.9610 0.0019 5.9169
# 5 -15.0726 1.8305 -11.6223 0.0019 26.6540 0.0010
# 6 0.0006 0.0007 0.0019 5.9169 0.0010 5.2657
#
#
#
# Elastic Compliance Matrix: (Units=1/GPa)
#
#
# Indices 1 2 3 4 5 6 
#
# 1 0.013391 -0.007978 -0.000518 -0.000001 0.007895 -0.000001
# 2 -0.007978 0.029346 -0.001021 0.000001 -0.006972 -0.000002
# 3 -0.000518 -0.001021 0.007362 -0.000001 0.002987 -0.000002
# 4 -0.000001 0.000001 -0.000001 0.061303 -0.000003 -0.068883
# 5 0.007895 -0.006972 0.002987 -0.000003 0.043764 -0.000007
# 6 -0.000001 -0.000002 -0.000002 -0.068883 -0.000007 0.267307
#
#
# Mechanical properties :
#
#
# Convention : Reuss Voigt Hill
#
# Bulk Modulus (GPa) = 32.19204 41.72235 36.95720
# Shear Modulus (GPa) = 11.06533 26.67327 18.86930
#
# Velocity S-wave (km/s) = 2.26743 3.52039 2.96094
# Velocity P-wave (km/s) = 4.67036 5.99245 5.37223
#
# Compressibility (1/GPa) = 0.03106358
#
# Stress axis : x y z
#
# Youngs Moduli (GPa) = 74.67504 34.07665 135.83789
#
# Poissons Ratio (x) = 0.27188 0.07032
# Poissons Ratio (y) = 0.59579 0.13875
# Poissons Ratio (z) = 0.03866 0.03481
#
# Static dielectric constant tensor:
#      x y z
#    x 1.843360 0.000000 -0.010760 
#    y 0.000000 1.812110 0.000000 
#    z -0.010760 0.000000 1.898990 
# 
# From -- ./inp_files/156402.got.cif
#   From: 2010.05.17/outbox.cif.g08.bks.cpg/sg15_79_cif.got.tgz:156402.got - 2010.06.03 18:47:42.
