data_PCOD9262973
_publ_section_title
;
Structure prediction by ZEFSAII (Michael W. Deem and Ramdas Pophale) SiO2 
 PCOD9262973
Probable space group: C 2/C
;
_chemical_formula_sum "Si O2"
_cell_formula_units_Z 56
_cell_length_a 22.249600
_cell_length_b 18.965435
_cell_length_c 16.262643
_cell_angle_alpha 90.000000
_cell_angle_beta 26.667038
_cell_angle_gamma 90.000000
_cell_volume 3079.880058
_symmetry_space_group_name_H-M "C 2/C"
_symmetry_group_IT_number 15
_symmetry_cell_setting 'monoclinic'
loop_
_space_group_symop_operation_xyz
x,y,z
-x,y,1/2-z
-x,-y,-z
x,-y,1/2+z
1/2+x,1/2+y,z
1/2-x,1/2+y,1/2-z
1/2-x,1/2-y,-z
1/2+x,1/2-y,1/2+z
loop_
_atom_site_type_symbol
_atom_site_label
_atom_site_fract_x
_atom_site_fract_y
_atom_site_fract_z
Si Si1 0.843819 0.650521 0.205336
Si Si2 0.691539 0.255932 0.386964
Si Si3 0.401832 0.985499 0.541894
Si Si4 0.845965 0.759109 0.460735
Si Si5 0.000000 0.828899 0.750000
Si Si6 0.762155 0.172933 0.442241
Si Si7 0.866779 0.641060 0.571287
Si Si8 0.500000 0.921478 0.250000
O O1 0.874663 0.716266 0.108071
O O2 0.823382 0.581999 0.173458
O O3 0.715247 0.675954 0.412778
O O4 0.974232 0.641583 0.103275
O O5 0.575746 0.282829 0.588658
O O6 0.779421 0.197157 0.327227
O O7 0.784976 0.319474 0.243220
O O8 0.470210 0.963955 0.371165
O O9 0.500000 0.000000 0.500000
O O10 0.327106 0.059090 0.616476
O O11 0.750000 0.750000 0.500000
O O12 0.841098 0.688312 0.522449
O O13 0.000000 0.771055 0.250000
O O14 0.117279 0.866004 0.658337
O O15 0.750000 0.250000 0.500000
O O16 0.627938 0.127873 0.611208
#
# Coordination Sequence:
#
# PCOD9262973 Si02
#       8
#     8   8   8   8   4   8   8   4
#     4  10  20  37  60  94 121 159 208 267 315 374
#     4  10  19  33  58  89 126 154 204 255 312 367
#     4  10  24  38  63  94 132 169 215 269 319 388
#     4  11  22  40  67  94 124 164 222 273 321 374
#     4  10  21  30  54  86 124 159 182 248 311 382
#     4  10  20  32  56  90 123 155 201 250 310 372
#     4  10  22  37  61  93 124 160 213 267 319 373
#     4  12  23  40  64  96 124 169 214 266 319 380
#
# _framework density 18.182527
#
# number of rings (size 3 to 8) (size 9 to 14) (size 15 to 20)
#    0.000    1.714    2.857    2.571    9.000    0.000 
#    0.000    0.000    1.571    1.714    0.000    0.000 
#    0.000    0.000    0.000    0.000    0.000    0.000 
#
# Total GULP energy -155895.720608 kJ/mol
# GULP energy per Si atom -5567.704307 kJ/mol
# Density = 1.814114 g / cm^3
# Si number density = 18.182527 Si / 1000 Ang^3
#
#
#
# Elastic Constant Matrix: (Units=GPa)
#
#
# Indices 1 2 3 4 5 6 
#
# 1 108.8542 35.1460 47.7833 0.0000 -2.2603 0.0001
# 2 35.1460 118.8694 59.0593 0.0001 7.6471 0.0000
# 3 47.7833 59.0593 121.3708 0.0003 8.2480 0.0000
# 4 0.0000 0.0001 0.0003 28.7338 -0.0001 2.6303
# 5 -2.2603 7.6471 8.2480 -0.0001 34.3512 -0.0001
# 6 0.0001 0.0000 0.0000 2.6303 -0.0001 26.4495
#
#
#
# Elastic Compliance Matrix: (Units=1/GPa)
#
#
# Indices 1 2 3 4 5 6 
#
# 1 0.011441 -0.001592 -0.003868 0.000000 0.002036 0.000000
# 2 -0.001592 0.011365 -0.004803 0.000000 -0.001482 0.000000
# 3 -0.003868 -0.004803 0.012243 0.000000 -0.002125 0.000000
# 4 0.000000 0.000000 0.000000 0.035122 0.000000 -0.003493
# 5 0.002036 -0.001482 -0.002125 0.000000 0.030085 0.000000
# 6 0.000000 0.000000 0.000000 -0.003493 0.000000 0.038155
#
#
# Mechanical properties :
#
#
# Convention : Reuss Voigt Hill
#
# Bulk Modulus (GPa) = 68.85215 70.34129 69.59672
# Shear Modulus (GPa) = 30.52921 31.71395 31.12158
#
# Velocity S-wave (km/s) = 4.10206 4.18089 4.14166
# Velocity P-wave (km/s) = 7.77079 7.87887 7.82502
#
# Compressibility (1/GPa) = 0.01452387
#
# Stress axis : x y z
#
# Youngs Moduli (GPa) = 87.40690 87.99112 81.67641
#
# Poissons Ratio (x) = 0.14007 0.31592
# Poissons Ratio (y) = 0.13914 0.39227
# Poissons Ratio (z) = 0.33808 0.42260
#
# Static dielectric constant tensor:
#      x y z
#    x 1.728310 0.000000 0.000610 
#    y 0.000000 1.637990 0.000000 
#    z 0.000610 0.000000 1.640360 
# 
# From -- ./inp_files/169139.got.cif
#   From: 2010.05.17/outbox.cif.g08.bks.cpg/sg15_85_cif.got.tgz:169139.got - 2010.06.03 18:47:42.
