data_PCOD9262762
_publ_section_title
;
Structure prediction by ZEFSAII (Michael W. Deem and Ramdas Pophale) SiO2 
 PCOD9262762
Probable space group: C 2/C
;
_chemical_formula_sum "Si O2"
_cell_formula_units_Z 52
_cell_length_a 14.518972
_cell_length_b 8.237984
_cell_length_c 25.803905
_cell_angle_alpha 90.000000
_cell_angle_beta 45.963870
_cell_angle_gamma 90.000000
_cell_volume 2218.767037
_symmetry_space_group_name_H-M "C 2/C"
_symmetry_group_IT_number 15
_symmetry_cell_setting 'monoclinic'
loop_
_space_group_symop_operation_xyz
x,y,z
-x,y,1/2-z
-x,-y,-z
x,-y,1/2+z
1/2+x,1/2+y,z
1/2-x,1/2+y,1/2-z
1/2-x,1/2-y,-z
1/2+x,1/2-y,1/2+z
loop_
_atom_site_type_symbol
_atom_site_label
_atom_site_fract_x
_atom_site_fract_y
_atom_site_fract_z
Si Si1 0.279882 0.475755 0.308352
Si Si2 0.078781 0.837347 0.956324
Si Si3 0.856718 0.700725 0.825166
Si Si4 0.500000 0.222173 0.250000
Si Si5 0.156291 0.562369 0.098706
Si Si6 0.850782 0.973235 0.163240
Si Si7 0.981927 0.363085 0.579175
O O1 0.316265 0.615222 0.334799
O O2 0.372105 0.325856 0.286287
O O3 0.322117 0.516615 0.233241
O O4 0.126114 0.499776 0.369651
O O5 0.212812 0.851324 0.935054
O O6 0.102563 0.868126 0.886301
O O7 0.004520 0.687648 0.010703
O O8 0.000000 0.000000 0.000000
O O9 0.831490 0.626267 0.891043
O O10 0.774825 0.588490 0.818119
O O11 0.000000 0.694211 0.750000
O O12 0.544655 0.124330 0.181704
O O13 0.110183 0.588564 0.058922
O O14 0.938067 0.810786 0.122686
#
# Coordination Sequence:
#
# PCOD9262762 Si02
#       7
#     8   8   8   4   8   8   8
#     4  11  22  37  59  92 128 161 202 262 313 360
#     4   9  20  38  62  92 126 164 208 253 306 374
#     4  10  19  33  55  87 123 151 198 248 309 364
#     4  12  24  38  60  94 130 156 208 266 306 366
#     4  11  21  37  64  92 123 162 213 255 307 370
#     4   9  19  34  58  88 122 160 202 252 305 364
#     4  10  20  37  62  90 123 164 207 246 309 370
#
# _framework density 23.436439
#
# number of rings (size 3 to 8) (size 9 to 14) (size 15 to 20)
#    0.000    1.846    3.077    2.308    2.154    0.000 
#    0.000    0.769    0.000    4.615    0.000    0.000 
#    0.000    0.000    0.000    0.000    0.000    0.000 
#
# Total GULP energy -145150.564102 kJ/mol
# GULP energy per Si atom -5582.714004 kJ/mol
# Density = 2.338310 g / cm^3
# Si number density = 23.436439 Si / 1000 Ang^3
#
#
#
# Elastic Constant Matrix: (Units=GPa)
#
#
# Indices 1 2 3 4 5 6 
#
# 1 68.4308 10.6172 13.3697 0.0000 -2.1100 0.0000
# 2 10.6172 73.5143 17.5197 0.0000 -1.7478 0.0000
# 3 13.3697 17.5197 75.2625 0.0000 4.2865 0.0000
# 4 0.0000 0.0000 0.0000 28.4446 0.0000 -3.2024
# 5 -2.1100 -1.7478 4.2865 0.0000 34.8944 0.0000
# 6 0.0000 0.0000 0.0000 -3.2024 0.0000 21.9876
#
#
#
# Elastic Compliance Matrix: (Units=1/GPa)
#
#
# Indices 1 2 3 4 5 6 
#
# 1 0.015372 -0.001616 -0.002420 0.000000 0.001146 0.000000
# 2 -0.001616 0.014617 -0.003174 0.000000 0.001024 0.000000
# 3 -0.002420 -0.003174 0.014575 0.000000 -0.002096 0.000000
# 4 0.000000 0.000000 0.000000 0.035742 0.000000 0.005206
# 5 0.001146 0.001024 -0.002096 0.000000 0.029036 0.000000
# 6 0.000000 0.000000 0.000000 0.005206 0.000000 0.046238
#
#
# Mechanical properties :
#
#
# Convention : Reuss Voigt Hill
#
# Bulk Modulus (GPa) = 33.17362 33.35788 33.26575
# Shear Modulus (GPa) = 27.77038 28.77872 28.27455
#
# Velocity S-wave (km/s) = 3.44601 3.50801 3.47715
# Velocity P-wave (km/s) = 5.47893 5.53827 5.50868
#
# Compressibility (1/GPa) = 0.03014443
#
# Stress axis : x y z
#
# Youngs Moduli (GPa) = 65.05266 68.41385 68.61145
#
# Poissons Ratio (x) = 0.11057 0.16602
# Poissons Ratio (y) = 0.10514 0.21776
# Poissons Ratio (z) = 0.15741 0.21713
#
# Static dielectric constant tensor:
#      x y z
#    x 1.873580 0.000000 -0.037290 
#    y 0.000000 1.949470 0.000000 
#    z -0.037290 0.000000 1.908700 
# 
# From -- ./inp_files/295015.got.cif
#   From: 2010.05.17/outbox.cif.g08.bks.cpg/sg15_148_cif.got.tgz:295015.got - 2010.06.03 18:47:42.
