data_PCOD9262559
_publ_section_title
;
Structure prediction by ZEFSAII (Michael W. Deem and Ramdas Pophale) SiO2 
 PCOD9262559
Probable space group: C 2/C
;
_chemical_formula_sum "Si O2"
_cell_formula_units_Z 60
_cell_length_a 5.497281
_cell_length_b 31.387309
_cell_length_c 14.772300
_cell_angle_alpha 90.000000
_cell_angle_beta 76.895392
_cell_angle_gamma 90.000000
_cell_volume 2482.505676
_symmetry_space_group_name_H-M "C 2/C"
_symmetry_group_IT_number 15
_symmetry_cell_setting 'monoclinic'
loop_
_space_group_symop_operation_xyz
x,y,z
-x,y,1/2-z
-x,-y,-z
x,-y,1/2+z
1/2+x,1/2+y,z
1/2-x,1/2+y,1/2-z
1/2-x,1/2-y,-z
1/2+x,1/2-y,1/2+z
loop_
_atom_site_type_symbol
_atom_site_label
_atom_site_fract_x
_atom_site_fract_y
_atom_site_fract_z
Si Si1 0.675763 0.603963 0.152423
Si Si2 0.500000 0.956286 0.750000
Si Si3 0.579763 0.125496 0.645324
Si Si4 0.020749 0.471228 0.121714
Si Si5 0.907378 0.197755 0.363945
Si Si6 0.913322 0.739071 0.361947
Si Si7 0.412307 0.338938 0.362391
Si Si8 0.645447 0.477103 0.566225
O O1 0.500000 0.614208 0.250000
O O2 0.890059 0.575986 0.183747
O O3 0.698566 0.650185 0.107737
O O4 0.540446 0.568041 0.105053
O O5 0.356345 0.991769 0.825608
O O6 0.500000 0.144602 0.750000
O O7 0.582020 0.074688 0.655257
O O8 0.348241 0.136941 0.600500
O O9 0.852514 0.143566 0.601185
O O10 0.739316 0.489987 0.134863
O O11 0.105465 0.463951 0.010991
O O12 0.661223 0.226587 0.396437
O O13 0.000000 0.201740 0.250000
O O14 0.157511 0.212191 0.396235
O O15 0.864873 0.789010 0.377798
O O16 0.000000 0.732426 0.250000
O O17 0.500000 0.346386 0.250000
O O18 0.500000 0.500000 0.500000
#
# Coordination Sequence:
#
# PCOD9262559 Si02
#       8
#     8   4   8   8   8   8   8   8
#     4  10  21  34  55  84 109 149 191 244 288 339
#     4  10  20  36  56  78 116 146 194 238 298 334
#     4  10  19  33  53  85 113 148 193 239 285 345
#     4  10  21  37  55  82 110 156 193 241 290 347
#     4   9  18  28  50  77 111 145 186 232 282 345
#     4   9  16  30  47  77 113 149 178 229 294 342
#     4   9  18  30  51  79 117 147 183 237 289 345
#     4  10  22  39  55  77 114 151 198 237 290 348
#
# _framework density 24.169127
#
# number of rings (size 3 to 8) (size 9 to 14) (size 15 to 20)
#    0.000    2.400    0.667    1.600    6.533    3.200 
#    0.000    0.000    0.000    0.000    0.000    5.600 
#    0.000    0.000    0.000    0.000    0.000    0.000 
#
# Total GULP energy -167014.753686 kJ/mol
# GULP energy per Si atom -5567.158456 kJ/mol
# Density = 2.411412 g / cm^3
# Si number density = 24.169127 Si / 1000 Ang^3
#
#
#
# Elastic Constant Matrix: (Units=GPa)
#
#
# Indices 1 2 3 4 5 6 
#
# 1 143.2298 62.7707 -3.2197 0.0000 8.4415 0.0000
# 2 62.7707 94.3835 -20.0172 0.0000 -9.5637 0.0000
# 3 -3.2197 -20.0172 52.6204 0.0000 10.4434 0.0000
# 4 0.0000 0.0000 0.0000 11.1922 0.0000 9.6339
# 5 8.4415 -9.5637 10.4434 0.0000 11.6112 0.0000
# 6 0.0000 0.0000 0.0000 9.6339 0.0000 38.7371
#
#
#
# Elastic Compliance Matrix: (Units=1/GPa)
#
#
# Indices 1 2 3 4 5 6 
#
# 1 0.012371 -0.009908 0.000478 0.000000 -0.017585 0.000000
# 2 -0.009908 0.019913 0.002780 0.000000 0.021104 0.000000
# 3 0.000478 0.002780 0.023987 0.000000 -0.019632 0.000000
# 4 0.000000 0.000000 0.000000 0.113685 0.000000 -0.028273
# 5 -0.017585 0.021104 -0.019632 0.000000 0.133948 0.000000
# 6 0.000000 0.000000 0.000000 -0.028273 0.000000 0.032847
#
#
# Mechanical properties :
#
#
# Convention : Reuss Voigt Hill
#
# Bulk Modulus (GPa) = 23.27153 41.03347 32.15250
# Shear Modulus (GPa) = 13.72218 29.02143 21.37181
#
# Velocity S-wave (km/s) = 2.38535 3.46896 2.97688
# Velocity P-wave (km/s) = 4.15163 5.74973 5.01475
#
# Compressibility (1/GPa) = 0.04297097
#
# Stress axis : x y z
#
# Youngs Moduli (GPa) = 80.83348 50.21954 41.68890
#
# Poissons Ratio (x) = 0.49758 -0.01992
# Poissons Ratio (y) = 0.80090 -0.11591
# Poissons Ratio (z) = -0.03862 -0.13962
#
# Static dielectric constant tensor:
#      x y z
#    x 2.142760 0.000000 -0.032870 
#    y 0.000000 1.943300 0.000000 
#    z -0.032870 0.000000 2.083950 
# 
# From -- ./inp_files/186515.got.cif
#   From: 2010.05.17/outbox.cif.g08.bks.cpg/sg15_94_cif.got.tgz:186515.got - 2010.06.03 18:47:42.
