data_PCOD9262115
_publ_section_title
;
Structure prediction by ZEFSAII (Michael W. Deem and Ramdas Pophale) SiO2 
 PCOD9262115
Probable space group: C 2/C
;
_chemical_formula_sum "Si O2"
_cell_formula_units_Z 64
_cell_length_a 6.968690
_cell_length_b 17.436229
_cell_length_c 20.852045
_cell_angle_alpha 90.000000
_cell_angle_beta 100.013470
_cell_angle_gamma 90.000000
_cell_volume 2495.087651
_symmetry_space_group_name_H-M "C 2/C"
_symmetry_group_IT_number 15
_symmetry_cell_setting 'monoclinic'
loop_
_space_group_symop_operation_xyz
x,y,z
-x,y,1/2-z
-x,-y,-z
x,-y,1/2+z
1/2+x,1/2+y,z
1/2-x,1/2+y,1/2-z
1/2-x,1/2-y,-z
1/2+x,1/2-y,1/2+z
loop_
_atom_site_type_symbol
_atom_site_label
_atom_site_fract_x
_atom_site_fract_y
_atom_site_fract_z
Si Si1 0.743150 0.473312 0.886501
Si Si2 0.702943 0.777352 0.926587
Si Si3 0.284646 0.695482 0.796918
Si Si4 0.696491 0.716198 0.566412
Si Si5 0.730882 0.642204 0.836957
Si Si6 0.302071 0.453433 0.475017
Si Si7 0.715819 0.562773 0.130427
Si Si8 0.237812 0.128996 0.266292
O O1 0.779043 0.561754 0.871884
O O2 0.507208 0.462669 0.871477
O O3 0.806211 0.416879 0.833158
O O4 0.804959 0.451291 0.962491
O O5 0.470048 0.771063 0.914632
O O6 0.788564 0.713769 0.884250
O O7 0.778608 0.859344 0.910464
O O8 0.750000 0.750000 0.000000
O O9 0.182650 0.702476 0.860514
O O10 0.494219 0.654445 0.820214
O O11 0.198182 0.649416 0.731858
O O12 0.303725 0.782724 0.772123
O O13 0.750000 0.750000 0.500000
O O14 0.637012 0.630313 0.544204
O O15 0.500000 0.500000 0.500000
O O16 0.195893 0.497343 0.410462
O O17 0.796739 0.585039 0.204701
O O18 0.000000 0.132120 0.250000
#
# Coordination Sequence:
#
# PCOD9262115 Si02
#       8
#     8   8   8   8   8   8   8   8
#     4  10  20  34  58  89 120 147 198 251 308 357
#     4  11  20  36  61  91 122 154 203 255 296 351
#     4  10  20  36  55  85 122 151 199 244 295 367
#     4  11  24  40  62  90 125 170 200 250 313 370
#     4  10  21  35  61  92 114 156 198 252 301 356
#     4  10  19  36  59  88 118 152 205 250 295 360
#     4  10  19  32  53  88 115 150 190 252 296 345
#     4  10  21  34  56  89 118 154 194 251 307 358
#
# _framework density 25.650403000000001
#
# number of rings (size 3 to 8) (size 9 to 14) (size 15 to 20)
#    0.000    1.750    1.250    6.000    7.000    1.000 
#    0.000    0.625    0.000    1.500    9.750    0.000 
#    0.000    0.000    0.000    0.000    0.000    0.000 
#
# Total GULP energy -179013.044836 kJ/mol
# GULP energy per Si atom -5594.157651 kJ/mol
# Density = 2.559202 g / cm^3
# Si number density = 25.650403 Si / 1000 Ang^3
#
#
#
# Elastic Constant Matrix: (Units=GPa)
#
#
# Indices 1 2 3 4 5 6 
#
# 1 85.7260 19.7562 32.2489 0.0000 -22.2742 0.0000
# 2 19.7562 160.0456 36.6679 0.0000 -7.1478 0.0000
# 3 32.2489 36.6679 211.5716 0.0000 -17.0119 0.0000
# 4 0.0000 0.0000 0.0000 59.8682 0.0000 -0.9791
# 5 -22.2742 -7.1478 -17.0119 0.0000 37.2790 0.0000
# 6 0.0000 0.0000 0.0000 -0.9791 0.0000 6.5583
#
#
#
# Elastic Compliance Matrix: (Units=1/GPa)
#
#
# Indices 1 2 3 4 5 6 
#
# 1 0.014471 -0.001121 -0.001384 0.000000 0.007800 0.000000
# 2 -0.001121 0.006614 -0.000963 0.000000 0.000159 0.000000
# 3 -0.001384 -0.000963 0.005214 0.000000 0.001368 0.000000
# 4 0.000000 0.000000 0.000000 0.016744 0.000000 0.002500
# 5 0.007800 0.000159 0.001368 0.000000 0.032140 0.000000
# 6 0.000000 0.000000 0.000000 0.002500 0.000000 0.152853
#
#
# Mechanical properties :
#
#
# Convention : Reuss Voigt Hill
#
# Bulk Modulus (GPa) = 51.64290 70.52102 61.08196
# Shear Modulus (GPa) = 20.71025 45.31909 33.01467
#
# Velocity S-wave (km/s) = 2.84457 4.20789 3.59151
# Velocity P-wave (km/s) = 5.56470 7.15271 6.40809
#
# Compressibility (1/GPa) = 0.01936374
#
# Stress axis : x y z
#
# Youngs Moduli (GPa) = 69.10511 151.18888 191.77794
#
# Poissons Ratio (x) = 0.16945 0.26548
# Poissons Ratio (y) = 0.07745 0.18462
# Poissons Ratio (z) = 0.09566 0.14555
#
# Static dielectric constant tensor:
#      x y z
#    x 2.195270 0.000000 0.029370 
#    y 0.000000 2.154570 0.000000 
#    z 0.029370 0.000000 2.089200 
# 
# From -- ./inp_files/232692.got.cif
#   From: 2010.05.17/outbox.cif.g08.bks.cpg/sg15_117_cif.got.tgz:232692.got - 2010.06.03 18:47:42.
