data_PCOD9262018
_publ_section_title
;
Structure prediction by ZEFSAII (Michael W. Deem and Ramdas Pophale) SiO2 
 PCOD9262018
Probable space group: C 2/C
;
_chemical_formula_sum "Si O2"
_cell_formula_units_Z 64
_cell_length_a 29.322629
_cell_length_b 13.718043
_cell_length_c 10.069971
_cell_angle_alpha 90.000000
_cell_angle_beta 104.981209
_cell_angle_gamma 90.000000
_cell_volume 3912.958152
_symmetry_space_group_name_H-M "C 2/C"
_symmetry_group_IT_number 15
_symmetry_cell_setting 'monoclinic'
loop_
_space_group_symop_operation_xyz
x,y,z
-x,y,1/2-z
-x,-y,-z
x,-y,1/2+z
1/2+x,1/2+y,z
1/2-x,1/2+y,1/2-z
1/2-x,1/2-y,-z
1/2+x,1/2-y,1/2+z
loop_
_atom_site_type_symbol
_atom_site_label
_atom_site_fract_x
_atom_site_fract_y
_atom_site_fract_z
Si Si1 0.190993 0.506687 0.801981
Si Si2 0.299200 0.650057 0.616559
Si Si3 0.247873 0.041487 0.398039
Si Si4 0.036167 0.600449 0.154863
Si Si5 0.627780 0.166944 0.652033
Si Si6 0.777109 0.216955 0.304549
Si Si7 0.972435 0.629609 0.865468
Si Si8 0.367301 0.824743 0.657368
O O1 0.213923 0.503901 0.674350
O O2 0.145973 0.576083 0.752887
O O3 0.173576 0.399101 0.827580
O O4 0.227827 0.544236 0.939723
O O5 0.296002 0.534239 0.637370
O O6 0.261708 0.700872 0.688905
O O7 0.282126 0.663233 0.450927
O O8 0.346559 0.715542 0.659343
O O9 0.237017 0.144893 0.323921
O O10 0.042795 0.484767 0.132108
O O11 0.085407 0.651279 0.226844
O O12 0.000000 0.606826 0.250000
O O13 0.009338 0.647321 0.010743
O O14 0.671729 0.240390 0.692955
O O15 0.575345 0.191789 0.660703
O O16 0.623344 0.150162 0.490118
O O17 0.000000 0.641396 0.750000
#
# Coordination Sequence:
#
# PCOD9262018 Si02
#       8
#     8   8   8   8   8   8   8   8
#     4  12  21  31  54  76 111 145 178 216 261 311
#     4  10  19  35  54  76 106 144 177 216 264 312
#     4  12  21  36  51  77 110 146 180 222 257 304
#     4  10  19  32  52  77 102 140 176 211 256 323
#     4  11  21  35  52  77 107 147 179 210 264 320
#     4  10  20  35  54  76 106 143 181 215 262 316
#     4  10  21  33  50  76 110 135 167 221 271 307
#     4  11  20  33  55  78 105 145 183 209 256 322
#
# _framework density 16.355912
#
# number of rings (size 3 to 8) (size 9 to 14) (size 15 to 20)
#    0.000    1.250    7.500    0.750    0.000    1.500 
#    0.000    0.000    0.000    0.000    0.000    1.750 
#    0.000    0.000    0.000    0.000    0.000    0.000 
#
# Total GULP energy -178355.870200 kJ/mol
# GULP energy per Si atom -5573.620944 kJ/mol
# Density = 1.631868 g / cm^3
# Si number density = 16.355912 Si / 1000 Ang^3
#
#
#
# Elastic Constant Matrix: (Units=GPa)
#
#
# Indices 1 2 3 4 5 6 
#
# 1 86.9929 20.9849 25.1994 0.0000 18.2317 0.0000
# 2 20.9849 26.9847 19.5297 0.0000 5.2472 0.0000
# 3 25.1994 19.5297 64.8938 0.0000 19.0416 0.0000
# 4 0.0000 0.0000 0.0000 13.2256 0.0000 16.0532
# 5 18.2317 5.2472 19.0416 0.0000 28.3489 0.0000
# 6 0.0000 0.0000 0.0000 16.0532 0.0000 -77.4548
#
#
#
# Elastic Compliance Matrix: (Units=1/GPa)
#
#
# Indices 1 2 3 4 5 6 
#
# 1 0.015813 -0.010217 -0.000793 0.000000 -0.007746 0.000000
# 2 -0.010217 0.054002 -0.014048 0.000000 0.006012 0.000000
# 3 -0.000793 -0.014048 0.023705 0.000000 -0.012812 0.000000
# 4 0.000000 0.000000 0.000000 0.060413 0.000000 0.012521
# 5 -0.007746 0.006012 -0.012812 0.000000 0.047750 0.000000
# 6 0.000000 0.000000 0.000000 0.012521 0.000000 -0.010316
#
#
# Mechanical properties :
#
#
# Convention : Reuss Voigt Hill
#
# Bulk Modulus (GPa) = 23.03967 34.47771 28.75869
# Shear Modulus (GPa) = 19.53509 0.36777 9.95143
#
# Velocity S-wave (km/s) = 3.45972 0.47470 2.46931
# Velocity P-wave (km/s) = 5.48421 4.62881 5.07457
#
# Compressibility (1/GPa) = 0.04340341
#
# Stress axis : x y z
#
# Youngs Moduli (GPa) = 63.23991 18.51796 42.18547
#
# Poissons Ratio (x) = 0.18920 0.03344
# Poissons Ratio (y) = 0.64613 0.59263
# Poissons Ratio (z) = 0.05013 0.26014
#
# Static dielectric constant tensor:
#      x y z
#    x 1.560540 0.000000 -0.007530 
#    y 0.000000 1.574090 0.000000 
#    z -0.007530 0.000000 1.548510 
# 
# From -- ./inp_files/69758.got.cif
#   From: 2010.05.17/outbox.cif.g08.bks.cpg/sg15_35_cif.got.tgz:69758.got - 2010.06.03 18:47:42.
