data_PCOD9262705
_publ_section_title
;
Structure prediction by ZEFSAII (Michael W. Deem and Ramdas Pophale) SiO2 
 PCOD9262705
Probable space group: C 2/C
;
_chemical_formula_sum "Si O2"
_cell_formula_units_Z 64
_cell_length_a 15.821097
_cell_length_b 11.539129
_cell_length_c 20.780612
_cell_angle_alpha 90.000000
_cell_angle_beta 69.952604
_cell_angle_gamma 90.000000
_cell_volume 3563.878135
_symmetry_space_group_name_H-M "C 2/C"
_symmetry_group_IT_number 15
_symmetry_cell_setting 'monoclinic'
loop_
_space_group_symop_operation_xyz
x,y,z
-x,y,1/2-z
-x,-y,-z
x,-y,1/2+z
1/2+x,1/2+y,z
1/2-x,1/2+y,1/2-z
1/2-x,1/2-y,-z
1/2+x,1/2-y,1/2+z
loop_
_atom_site_type_symbol
_atom_site_label
_atom_site_fract_x
_atom_site_fract_y
_atom_site_fract_z
Si Si1 0.505835 0.268884 0.173653
Si Si2 0.938844 0.857677 0.961773
Si Si3 0.080235 0.042436 0.889280
Si Si4 0.255423 0.543110 0.476232
Si Si5 0.244398 0.568371 0.122825
Si Si6 0.788279 0.798054 0.421991
Si Si7 0.950129 0.594458 0.967415
Si Si8 0.539422 0.991036 0.676345
O O1 0.500000 0.303224 0.250000
O O2 0.440218 0.351084 0.151549
O O3 0.604465 0.283952 0.115297
O O4 0.488604 0.131224 0.177430
O O5 0.839858 0.869159 0.954765
O O6 0.977069 0.729047 0.963176
O O7 0.928384 0.910989 0.035597
O O8 0.006449 0.940139 0.904676
O O9 0.179015 0.989938 0.855227
O O10 0.254387 0.484598 0.547876
O O11 0.268553 0.433917 0.425263
O O12 0.156901 0.593578 0.489849
O O13 0.254820 0.707395 0.116636
O O14 0.142286 0.540527 0.166808
O O15 0.750000 0.750000 0.500000
O O16 0.962185 0.557314 0.890189
O O17 0.000000 0.500000 0.000000
O O18 0.500000 0.050543 0.750000
#
# Coordination Sequence:
#
# PCOD9262705 Si02
#       8
#     8   8   8   8   8   8   8   8
#     4  10  19  34  56  81 108 148 189 232 279 339
#     4  10  20  32  53  80 109 143 173 227 290 326
#     4  10  19  33  55  80 110 136 182 230 279 335
#     4   9  17  32  49  76 110 139 172 219 279 325
#     4   8  17  29  54  81 101 138 178 224 266 326
#     4   9  16  29  52  80 107 135 179 224 274 321
#     4  11  22  33  52  83 111 139 185 236 275 329
#     4   9  19  38  59  74 106 151 188 217 279 343
#
# _framework density 17.957965999999999
#
# number of rings (size 3 to 8) (size 9 to 14) (size 15 to 20)
#    0.000    2.500    1.250    1.875    3.500    0.000 
#    0.000    1.875    2.750    0.000    0.000    0.000 
#    0.000    0.000    0.000    0.000    0.000    0.000 
#
# Total GULP energy -178158.328199 kJ/mol
# GULP energy per Si atom -5567.447756 kJ/mol
# Density = 1.791709 g / cm^3
# Si number density = 17.957966 Si / 1000 Ang^3
#
#
#
# Elastic Constant Matrix: (Units=GPa)
#
#
# Indices 1 2 3 4 5 6 
#
# 1 83.4037 31.2452 18.6184 0.0000 -2.0359 0.0000
# 2 31.2452 71.8779 4.4285 0.0000 -4.4632 0.0000
# 3 18.6184 4.4285 58.4488 0.0000 -10.9624 0.0000
# 4 0.0000 0.0000 0.0000 16.3143 0.0000 3.4501
# 5 -2.0359 -4.4632 -10.9624 0.0000 9.5820 0.0000
# 6 0.0000 0.0000 0.0000 3.4501 0.0000 33.7898
#
#
#
# Elastic Compliance Matrix: (Units=1/GPa)
#
#
# Indices 1 2 3 4 5 6 
#
# 1 0.015667 -0.006855 -0.005660 0.000000 -0.006340 0.000000
# 2 -0.006855 0.017329 0.002688 0.000000 0.009690 0.000000
# 3 -0.005660 0.002688 0.023831 0.000000 0.027314 0.000000
# 4 0.000000 0.000000 0.000000 0.062649 0.000000 -0.006397
# 5 -0.006340 0.009690 0.027314 0.000000 0.138777 0.000000
# 6 0.000000 0.000000 0.000000 -0.006397 0.000000 0.030248
#
#
# Mechanical properties :
#
#
# Convention : Reuss Voigt Hill
#
# Bulk Modulus (GPa) = 26.90194 35.81273 31.35734
# Shear Modulus (GPa) = 15.59841 22.56644 19.08242
#
# Velocity S-wave (km/s) = 2.95041 3.54874 3.26332
# Velocity P-wave (km/s) = 5.15942 6.06442 5.63013
#
# Compressibility (1/GPa) = 0.03717204
#
# Stress axis : x y z
#
# Youngs Moduli (GPa) = 63.82909 57.70824 41.96173
#
# Poissons Ratio (x) = 0.39561 0.23751
# Poissons Ratio (y) = 0.43757 -0.11280
# Poissons Ratio (z) = 0.36129 -0.15513
#
# Static dielectric constant tensor:
#      x y z
#    x 1.609240 0.000000 0.008300 
#    y 0.000000 1.642050 0.000000 
#    z 0.008300 0.000000 1.600460 
# 
# From -- ./inp_files/243710.got.cif
#   From: 2010.05.17/outbox.cif.g08.bks.cpg/sg15_122_cif.got.tgz:243710.got - 2010.06.03 18:47:42.
