data_PCOD9262373
_publ_section_title
;
Structure prediction by ZEFSAII (Michael W. Deem and Ramdas Pophale) SiO2 
 PCOD9262373
Probable space group: C 2/C
;
_chemical_formula_sum "Si O2"
_cell_formula_units_Z 40
_cell_length_a 13.618501
_cell_length_b 19.638274
_cell_length_c 7.808175
_cell_angle_alpha 90.000000
_cell_angle_beta 122.258306
_cell_angle_gamma 90.000000
_cell_volume 1765.928225
_symmetry_space_group_name_H-M "C 2/C"
_symmetry_group_IT_number 15
_symmetry_cell_setting 'monoclinic'
loop_
_space_group_symop_operation_xyz
x,y,z
-x,y,1/2-z
-x,-y,-z
x,-y,1/2+z
1/2+x,1/2+y,z
1/2-x,1/2+y,1/2-z
1/2-x,1/2-y,-z
1/2+x,1/2-y,1/2+z
loop_
_atom_site_type_symbol
_atom_site_label
_atom_site_fract_x
_atom_site_fract_y
_atom_site_fract_z
Si Si1 0.534250 0.078040 0.037537
Si Si2 0.797823 0.335083 0.978978
Si Si3 0.337341 0.853112 0.520674
Si Si4 0.128308 0.806771 0.491688
Si Si5 0.415714 0.307198 0.524616
O O1 0.624530 0.098662 0.974791
O O2 0.606703 0.103224 0.271919
O O3 0.415027 0.120696 0.936238
O O4 0.500000 0.000000 0.000000
O O5 0.708706 0.318742 0.737538
O O6 0.712928 0.336786 0.063569
O O7 0.887196 0.271914 0.043143
O O8 0.199107 0.854139 0.423910
O O9 0.363054 0.772258 0.555972
O O10 0.995942 0.815546 0.431932
O O11 0.500000 0.335771 0.750000
#
# Coordination Sequence:
#
# PCOD9262373 Si02
#       5
#     8   8   8   8   8
#     4  10  19  33  49  71 110 146 178 211 252 329
#     4   9  17  29  47  77 109 140 178 210 275 320
#     4   9  18  32  49  78 100 140 179 216 275 308
#     4   9  16  30  54  75 109 132 172 241 268 312
#     4   9  16  28  47  77 109 136 165 227 279 316
#
# _framework density 22.650977000000001
#
# number of rings (size 3 to 8) (size 9 to 14) (size 15 to 20)
#    0.000    2.800    2.000    0.000    0.000    0.000 
#    3.600    0.000    0.000    1.200    0.000    8.400 
#    0.000    0.000    0.000    0.000    0.000    0.000 
#
# Total GULP energy -111451.112988 kJ/mol
# GULP energy per Si atom -5572.555649 kJ/mol
# Density = 2.259942 g / cm^3
# Si number density = 22.650977 Si / 1000 Ang^3
#
#
#
# Elastic Constant Matrix: (Units=GPa)
#
#
# Indices 1 2 3 4 5 6 
#
# 1 290.9138 76.1935 46.8249 0.0000 21.9197 0.0000
# 2 76.1935 117.6931 23.4830 0.0000 23.4894 0.0000
# 3 46.8249 23.4830 81.0649 0.0000 22.6192 0.0000
# 4 0.0000 0.0000 0.0000 19.4485 0.0000 7.3509
# 5 21.9197 23.4894 22.6192 0.0000 53.6017 0.0000
# 6 0.0000 0.0000 0.0000 7.3509 0.0000 34.8188
#
#
#
# Elastic Compliance Matrix: (Units=1/GPa)
#
#
# Indices 1 2 3 4 5 6 
#
# 1 0.004377 -0.002483 -0.001828 0.000000 0.000070 0.000000
# 2 -0.002483 0.010948 -0.000773 0.000000 -0.003456 0.000000
# 3 -0.001828 -0.000773 0.015089 0.000000 -0.005281 0.000000
# 4 0.000000 0.000000 0.000000 0.055877 0.000000 -0.011797
# 5 0.000070 -0.003456 -0.005281 0.000000 0.022371 0.000000
# 6 0.000000 0.000000 0.000000 -0.011797 0.000000 0.031211
#
#
# Mechanical properties :
#
#
# Convention : Reuss Voigt Hill
#
# Bulk Modulus (GPa) = 49.39234 86.96383 68.17808
# Shear Modulus (GPa) = 31.89007 44.45183 38.17095
#
# Velocity S-wave (km/s) = 3.75626 4.43478 4.10955
# Velocity P-wave (km/s) = 6.37697 8.04359 7.25828
#
# Compressibility (1/GPa) = 0.02024605
#
# Stress axis : x y z
#
# Youngs Moduli (GPa) = 228.48340 91.34186 66.27165
#
# Poissons Ratio (x) = 0.22676 0.12117
# Poissons Ratio (y) = 0.56722 0.05123
# Poissons Ratio (z) = 0.41775 0.07061
#
# Static dielectric constant tensor:
#      x y z
#    x 1.985720 0.000000 -0.105290 
#    y 0.000000 1.748320 0.000000 
#    z -0.105290 0.000000 2.094340 
# 
# From -- ./inp_files/97565.got.cif
#   From: 2010.05.17/outbox.cif.g08.bks.cpg/sg15_49_cif.got.tgz:97565.got - 2010.06.03 18:47:42.
