data_PCOD9262662
_publ_section_title
;
Structure prediction by ZEFSAII (Michael W. Deem and Ramdas Pophale) SiO2 
 PCOD9262662
Probable space group: C 2/C
;
_chemical_formula_sum "Si O2"
_cell_formula_units_Z 64
_cell_length_a 19.665175
_cell_length_b 13.703383
_cell_length_c 27.362717
_cell_angle_alpha 90.000000
_cell_angle_beta 151.715621
_cell_angle_gamma 90.000000
_cell_volume 3494.008930
_symmetry_space_group_name_H-M "C 2/C"
_symmetry_group_IT_number 15
_symmetry_cell_setting 'monoclinic'
loop_
_space_group_symop_operation_xyz
x,y,z
-x,y,1/2-z
-x,-y,-z
x,-y,1/2+z
1/2+x,1/2+y,z
1/2-x,1/2+y,1/2-z
1/2-x,1/2-y,-z
1/2+x,1/2-y,1/2+z
loop_
_atom_site_type_symbol
_atom_site_label
_atom_site_fract_x
_atom_site_fract_y
_atom_site_fract_z
Si Si1 0.701752 0.202855 0.768076
Si Si2 0.113932 0.942421 0.508930
Si Si3 0.010009 0.724366 0.459893
Si Si4 0.010270 0.538695 0.109594
Si Si5 0.470212 0.828370 0.045365
Si Si6 0.684504 0.486264 0.666343
Si Si7 0.156463 0.257377 0.350887
Si Si8 0.614693 0.965480 0.366064
O O1 0.565928 0.221269 0.648171
O O2 0.762772 0.096963 0.794510
O O3 0.666236 0.198693 0.802565
O O4 0.837291 0.271371 0.846687
O O5 0.073070 0.827910 0.482023
O O6 0.242280 0.974471 0.555572
O O7 0.974440 0.011248 0.411390
O O8 0.161857 0.962385 0.595152
O O9 0.062128 0.632617 0.461132
O O10 0.027596 0.709758 0.529414
O O11 0.994607 0.444626 0.064637
O O12 0.947524 0.500375 0.121575
O O13 0.176634 0.566856 0.224965
O O14 0.302494 0.803707 0.948196
O O15 0.150210 0.349537 0.383874
O O16 0.000000 0.205748 0.250000
O O17 0.500000 0.984207 0.250000
#
# Coordination Sequence:
#
# PCOD9262662 Si02
#       8
#     8   8   8   8   8   8   8   8
#     4   9  18  34  54  85 107 138 190 231 279 323
#     4  10  19  34  58  86 108 140 186 240 278 315
#     4  10  23  35  55  83 112 148 190 226 269 345
#     4  11  22  37  55  81 118 154 183 220 285 346
#     4  10  21  37  57  79 114 152 184 233 276 327
#     4   9  17  33  58  81 108 139 184 239 273 311
#     4  10  19  33  54  86 114 141 185 233 281 339
#     4  11  20  34  57  84 113 143 183 238 287 322
#
# _framework density 18.317067999999999
#
# number of rings (size 3 to 8) (size 9 to 14) (size 15 to 20)
#    0.000    2.000    2.500    2.625    3.500    2.500 
#    0.000    1.250    0.000    0.750    0.000    0.000 
#    0.000    0.000    0.000    0.000    0.000    0.000 
#
# Total GULP energy -178247.328508 kJ/mol
# GULP energy per Si atom -5570.229016 kJ/mol
# Density = 1.827538 g / cm^3
# Si number density = 18.317068 Si / 1000 Ang^3
#
#
#
# Elastic Constant Matrix: (Units=GPa)
#
#
# Indices 1 2 3 4 5 6 
#
# 1 37.2354 28.9930 20.9437 0.0004 2.0694 0.0002
# 2 28.9930 44.0191 18.6650 0.0008 -3.9142 -0.0002
# 3 20.9437 18.6650 92.0521 0.0002 11.6310 -0.0004
# 4 0.0004 0.0008 0.0002 22.3587 0.0004 0.3301
# 5 2.0694 -3.9142 11.6310 0.0004 25.0781 0.0001
# 6 0.0002 -0.0002 -0.0004 0.3301 0.0001 19.1321
#
#
#
# Elastic Compliance Matrix: (Units=1/GPa)
#
#
# Indices 1 2 3 4 5 6 
#
# 1 0.059615 -0.038014 -0.004764 0.000000 -0.008643 -0.000001
# 2 -0.038014 0.050168 -0.003090 -0.000001 0.012400 0.000001
# 3 -0.004764 -0.003090 0.013369 0.000000 -0.006289 0.000000
# 4 0.000000 -0.000001 0.000000 0.044737 -0.000001 -0.000772
# 5 -0.008643 0.012400 -0.006289 -0.000001 0.045441 0.000000
# 6 -0.000001 0.000001 0.000000 -0.000772 0.000000 0.052281
#
#
# Mechanical properties :
#
#
# Convention : Reuss Voigt Hill
#
# Bulk Modulus (GPa) = 31.83077 34.50110 33.16594
# Shear Modulus (GPa) = 13.59363 20.29410 16.94387
#
# Velocity S-wave (km/s) = 2.72716 3.33218 3.04473
# Velocity P-wave (km/s) = 5.22799 5.80353 5.52326
#
# Compressibility (1/GPa) = 0.03141614
#
# Stress axis : x y z
#
# Youngs Moduli (GPa) = 16.77420 19.93294 74.80264
#
# Poissons Ratio (x) = 0.75773 0.35633
# Poissons Ratio (y) = 0.63766 0.23116
# Poissons Ratio (z) = 0.07991 0.06160
#
# Static dielectric constant tensor:
#      x y z
#    x 1.628480 0.000000 0.020900 
#    y 0.000000 1.654620 0.000000 
#    z 0.020900 0.000000 1.701710 
# 
# From -- ./inp_files/277668.got.cif
#   From: 2010.05.17/outbox.cif.g08.bks.cpg/sg15_139_cif.got.tgz:277668.got - 2010.06.03 18:47:42.
