data_PCOD9262327
_publ_section_title
;
Structure prediction by ZEFSAII (Michael W. Deem and Ramdas Pophale) SiO2 
 PCOD9262327
Probable space group: C 2/C
;
_chemical_formula_sum "Si O2"
_cell_formula_units_Z 56
_cell_length_a 21.412755
_cell_length_b 16.370517
_cell_length_c 18.936168
_cell_angle_alpha 90.000000
_cell_angle_beta 25.774347
_cell_angle_gamma 90.000000
_cell_volume 2886.320140
_symmetry_space_group_name_H-M "C 2/C"
_symmetry_group_IT_number 15
_symmetry_cell_setting 'monoclinic'
loop_
_space_group_symop_operation_xyz
x,y,z
-x,y,1/2-z
-x,-y,-z
x,-y,1/2+z
1/2+x,1/2+y,z
1/2-x,1/2+y,1/2-z
1/2-x,1/2-y,-z
1/2+x,1/2-y,1/2+z
loop_
_atom_site_type_symbol
_atom_site_label
_atom_site_fract_x
_atom_site_fract_y
_atom_site_fract_z
Si Si1 0.743478 0.807181 0.271350
Si Si2 0.406982 0.908486 0.416249
Si Si3 0.351883 0.681098 0.359185
Si Si4 0.349179 0.634973 0.890277
Si Si5 0.374500 0.916834 0.998162
Si Si6 0.644606 0.795090 0.710566
Si Si7 0.993104 0.256068 0.427492
O O1 0.717894 0.891831 0.338979
O O2 0.794990 0.742684 0.278522
O O3 0.591243 0.784684 0.392356
O O4 0.863870 0.799667 0.088235
O O5 0.500000 0.904952 0.250000
O O6 0.245235 0.898010 0.552519
O O7 0.438126 0.832384 0.436542
O O8 0.430574 0.991389 0.435288
O O9 0.500000 0.671019 0.250000
O O10 0.250000 0.750000 0.500000
O O11 0.400919 0.709086 0.232375
O O12 0.500000 0.590926 0.750000
O O13 0.230062 0.593983 0.962336
O O14 0.387265 0.718584 0.808745
O O15 0.271081 0.656076 0.042767
O O16 0.505060 0.852021 0.860090
#
# Coordination Sequence:
#
# PCOD9262327 Si02
#       7
#     8   8   8   8   8   8   8
#     4  11  23  39  65  94 128 174 216 261 318 402
#     4  12  25  42  69  98 130 167 219 283 330 371
#     4  12  21  42  72 101 122 165 224 274 319 381
#     4  10  19  32  61  86 123 168 223 268 305 371
#     4  11  24  41  60  95 135 170 214 269 334 383
#     4  10  19  36  57  88 123 172 220 255 311 392
#     4  12  22  41  69  95 124 167 223 266 316 397
#
# _framework density 19.401868
#
# number of rings (size 3 to 8) (size 9 to 14) (size 15 to 20)
#    0.000    0.857    5.714    3.857    2.000    1.143 
#    0.000    0.714    0.000    0.000    0.000    0.000 
#    0.000    0.000    0.000    0.000    0.000    0.000 
#
# Total GULP energy -156303.407600 kJ/mol
# GULP energy per Si atom -5582.264557 kJ/mol
# Density = 1.935771 g / cm^3
# Si number density = 19.401868 Si / 1000 Ang^3
#
#
#
# Elastic Constant Matrix: (Units=GPa)
#
#
# Indices 1 2 3 4 5 6 
#
# 1 93.2275 15.3841 40.2363 0.0003 -6.0355 -0.0002
# 2 15.3841 70.9946 39.2319 0.0007 10.9568 -0.0006
# 3 40.2363 39.2319 129.7592 0.0002 9.7791 -0.0003
# 4 0.0003 0.0007 0.0002 11.9322 0.0005 -3.3941
# 5 -6.0355 10.9568 9.7791 0.0005 46.7218 -0.0001
# 6 -0.0002 -0.0006 -0.0003 -3.3941 -0.0001 19.9675
#
#
#
# Elastic Compliance Matrix: (Units=1/GPa)
#
#
# Indices 1 2 3 4 5 6 
#
# 1 0.012728 -0.001057 -0.003830 0.000000 0.002694 0.000000
# 2 -0.001057 0.017406 -0.004691 -0.000001 -0.003237 0.000000
# 3 -0.003830 -0.004691 0.010431 0.000000 -0.001578 0.000000
# 4 0.000000 -0.000001 0.000000 0.088065 -0.000001 0.014969
# 5 0.002694 -0.003237 -0.001578 -0.000001 0.022841 0.000000
# 6 0.000000 0.000000 0.000000 0.014969 0.000000 0.052626
#
#
# Mechanical properties :
#
#
# Convention : Reuss Voigt Hill
#
# Bulk Modulus (GPa) = 46.70853 53.74289 50.22571
# Shear Modulus (GPa) = 21.70226 28.99959 25.35093
#
# Velocity S-wave (km/s) = 3.34812 3.87030 3.61865
# Velocity P-wave (km/s) = 6.25085 6.90886 6.58807
#
# Compressibility (1/GPa) = 0.02140937
#
# Stress axis : x y z
#
# Youngs Moduli (GPa) = 78.56436 57.44990 95.86364
#
# Poissons Ratio (x) = 0.06074 0.36718
# Poissons Ratio (y) = 0.08307 0.44969
# Poissons Ratio (z) = 0.30092 0.26949
#
# Static dielectric constant tensor:
#      x y z
#    x 1.716680 0.000000 -0.014300 
#    y 0.000000 1.680390 0.000000 
#    z -0.014300 0.000000 1.700370 
# 
# From -- ./inp_files/255898.got.cif
#   From: 2010.05.17/outbox.cif.g08.bks.cpg/sg15_128_cif.got.tgz:255898.got - 2010.06.03 18:47:42.
