data_PCOD9262914
_publ_section_title
;
Structure prediction by ZEFSAII (Michael W. Deem and Ramdas Pophale) SiO2 
 PCOD9262914
Probable space group: C 2/C
;
_chemical_formula_sum "Si O2"
_cell_formula_units_Z 56
_cell_length_a 11.822634
_cell_length_b 17.293888
_cell_length_c 15.036672
_cell_angle_alpha 90.000000
_cell_angle_beta 51.064636
_cell_angle_gamma 90.000000
_cell_volume 2391.428993
_symmetry_space_group_name_H-M "C 2/C"
_symmetry_group_IT_number 15
_symmetry_cell_setting 'monoclinic'
loop_
_space_group_symop_operation_xyz
x,y,z
-x,y,1/2-z
-x,-y,-z
x,-y,1/2+z
1/2+x,1/2+y,z
1/2-x,1/2+y,1/2-z
1/2-x,1/2-y,-z
1/2+x,1/2-y,1/2+z
loop_
_atom_site_type_symbol
_atom_site_label
_atom_site_fract_x
_atom_site_fract_y
_atom_site_fract_z
Si Si1 0.651250 0.410392 0.964106
Si Si2 0.879036 0.412953 0.689297
Si Si3 0.662735 0.352679 0.649803
Si Si4 0.620963 0.087047 0.810703
Si Si5 0.837266 0.852680 0.350197
Si Si6 0.000000 0.296271 0.250000
Si Si7 0.500000 0.796271 0.750000
Si Si8 0.151251 0.910392 0.464106
O O1 0.767014 0.411470 0.827798
O O2 0.500000 0.379381 0.000000
O O3 0.690101 0.365048 0.033146
O O4 0.627653 0.500000 0.002680
O O5 0.786972 0.389685 0.648776
O O6 0.939168 0.500000 0.651499
O O7 0.992731 0.349395 0.666157
O O8 0.500000 0.387273 0.750000
O O9 0.636366 0.262471 0.684956
O O10 0.690101 0.365047 0.533145
O O11 0.713027 0.110315 0.851223
O O12 0.507268 0.150605 0.833843
O O13 0.732985 0.088530 0.672203
O O14 0.000000 0.887274 0.250000
O O15 0.863635 0.762472 0.315044
#
# Coordination Sequence:
#
# PCOD9262914 Si02
#       8
#     8   8   8   8   8   4   4   8
#     4  10  19  33  57  89 115 144 190 240 284 329
#     4  11  22  39  61  84 116 152 191 234 281 341
#     4  10  21  36  59  85 114 147 189 236 284 329
#     4  11  22  39  61  84 116 152 191 234 281 341
#     4  10  21  36  59  85 114 147 189 236 284 329
#     4  10  23  40  57  84 120 156 184 228 293 342
#     4  10  23  40  57  84 120 156 184 228 293 342
#     4  10  19  33  57  89 115 144 190 240 284 329
#
# _framework density 23.41696
#
# number of rings (size 3 to 8) (size 9 to 14) (size 15 to 20)
#    0.857    0.857    2.857    2.143    0.000    2.286 
#    0.000    4.286    0.000    5.143    0.000    0.000 
#    0.000    0.000    0.000    0.000    0.000    0.000 
#
# Total GULP energy -156569.016957 kJ/mol
# GULP energy per Si atom -5591.750606 kJ/mol
# Density = 2.336366 g / cm^3
# Si number density = 23.416960 Si / 1000 Ang^3
#
#
#
# Elastic Constant Matrix: (Units=GPa)
#
#
# Indices 1 2 3 4 5 6 
#
# 1 85.9866 26.0675 31.1529 0.0000 32.8529 0.0000
# 2 26.0675 117.8467 16.0893 0.0000 27.9860 0.0000
# 3 31.1529 16.0893 79.9924 0.0000 19.0432 0.0000
# 4 0.0000 0.0000 0.0000 9.3310 0.0000 10.4366
# 5 32.8529 27.9860 19.0432 0.0000 46.5312 0.0000
# 6 0.0000 0.0000 0.0000 10.4366 0.0000 41.9529
#
#
#
# Elastic Compliance Matrix: (Units=1/GPa)
#
#
# Indices 1 2 3 4 5 6 
#
# 1 0.017187 -0.000882 -0.004159 0.000000 -0.009902 0.000000
# 2 -0.000882 0.009974 -0.000424 0.000000 -0.005202 0.000000
# 3 -0.004159 -0.000424 0.014898 0.000000 -0.002906 0.000000
# 4 0.000000 0.000000 0.000000 0.148483 0.000000 -0.036938
# 5 -0.009902 -0.005202 -0.002906 0.000000 0.032800 0.000000
# 6 0.000000 0.000000 0.000000 -0.036938 0.000000 0.033025
#
#
# Mechanical properties :
#
#
# Convention : Reuss Voigt Hill
#
# Bulk Modulus (GPa) = 32.12456 47.82723 39.97589
# Shear Modulus (GPa) = 18.00667 33.59742 25.80205
#
# Velocity S-wave (km/s) = 2.77602 3.79192 3.32302
# Velocity P-wave (km/s) = 4.90136 6.29603 5.64196
#
# Compressibility (1/GPa) = 0.03112883
#
# Stress axis : x y z
#
# Youngs Moduli (GPa) = 58.18261 100.25949 67.12391
#
# Poissons Ratio (x) = 0.08848 0.27915
# Poissons Ratio (y) = 0.05135 0.02846
# Poissons Ratio (z) = 0.24196 0.04251
#
# Static dielectric constant tensor:
#      x y z
#    x 1.889250 0.000000 -0.070670 
#    y 0.000000 1.908110 0.000000 
#    z -0.070670 0.000000 1.849640 
# 
# From -- ./inp_files/145599.got.cif
#   From: 2010.05.17/outbox.cif.g08.bks.cpg/sg15_73_cif.got.tgz:145599.got - 2010.06.03 18:47:42.
