data_PCOD9262700
_publ_section_title
;
Structure prediction by ZEFSAII (Michael W. Deem and Ramdas Pophale) SiO2 
 PCOD9262700
Probable space group: C 2/C
;
_chemical_formula_sum "Si O2"
_cell_formula_units_Z 52
_cell_length_a 8.931293
_cell_length_b 15.267997
_cell_length_c 23.046478
_cell_angle_alpha 90.000000
_cell_angle_beta 47.607596
_cell_angle_gamma 90.000000
_cell_volume 2321.014062
_symmetry_space_group_name_H-M "C 2/C"
_symmetry_group_IT_number 15
_symmetry_cell_setting 'monoclinic'
loop_
_space_group_symop_operation_xyz
x,y,z
-x,y,1/2-z
-x,-y,-z
x,-y,1/2+z
1/2+x,1/2+y,z
1/2-x,1/2+y,1/2-z
1/2-x,1/2-y,-z
1/2+x,1/2-y,1/2+z
loop_
_atom_site_type_symbol
_atom_site_label
_atom_site_fract_x
_atom_site_fract_y
_atom_site_fract_z
Si Si1 0.908411 0.232811 0.179102
Si Si2 0.345260 0.614826 0.939742
Si Si3 0.754826 0.352224 0.381300
Si Si4 0.500000 0.831775 0.750000
Si Si5 0.734834 0.445780 0.907623
Si Si6 0.367337 0.574293 0.415054
Si Si7 0.015580 0.288929 0.020746
O O1 0.668025 0.223651 0.240829
O O2 0.962402 0.258164 0.098604
O O3 0.031285 0.304383 0.182800
O O4 0.008674 0.136589 0.161553
O O5 0.582511 0.639767 0.876908
O O6 0.318830 0.524884 0.910420
O O7 0.192152 0.687142 0.956831
O O8 0.283778 0.591725 0.022665
O O9 0.790599 0.451545 0.392786
O O10 0.638179 0.287269 0.456286
O O11 0.387145 0.891764 0.827095
O O12 0.520013 0.437802 0.929857
O O13 0.162836 0.626914 0.482211
#
# Coordination Sequence:
#
# PCOD9262700 Si02
#       7
#     8   8   8   4   8   8   8
#     4  10  19  36  55  73 104 141 177 208 256 324
#     4  11  19  30  54  88 113 127 163 225 272 302
#     4  10  19  33  55  80 104 133 170 217 263 303
#     4  10  22  38  54  68  94 150 190 206 244 320
#     4  10  19  36  55  73 102 142 182 210 250 318
#     4   9  18  33  55  79 107 141 168 201 261 322
#     4  11  19  30  54  88 112 129 162 222 276 304
#
# _framework density 22.404001000000001
#
# number of rings (size 3 to 8) (size 9 to 14) (size 15 to 20)
#    0.000    1.846    0.000    9.231    0.000    0.000 
#    0.000    6.154    0.000   11.077    0.000    0.000 
#    0.000    0.000    0.000    0.000    0.000    0.000 
#
# Total GULP energy -145274.519095 kJ/mol
# GULP energy per Si atom -5587.481504 kJ/mol
# Density = 2.235301 g / cm^3
# Si number density = 22.404001 Si / 1000 Ang^3
#
#
#
# Elastic Constant Matrix: (Units=GPa)
#
#
# Indices 1 2 3 4 5 6 
#
# 1 87.4003 64.9747 35.8960 -0.0002 -30.8029 0.0001
# 2 64.9747 135.2995 36.0888 -0.0002 -16.6714 0.0002
# 3 35.8960 36.0888 60.7808 -0.0002 -23.0230 0.0002
# 4 -0.0002 -0.0002 -0.0002 13.7614 0.0002 -16.1707
# 5 -30.8029 -16.6714 -23.0230 0.0002 41.4708 -0.0001
# 6 0.0001 0.0002 0.0002 -16.1707 -0.0001 47.8485
#
#
#
# Elastic Compliance Matrix: (Units=1/GPa)
#
#
# Indices 1 2 3 4 5 6 
#
# 1 0.024056 -0.008912 -0.004438 0.000000 0.011821 0.000000
# 2 -0.008912 0.012105 -0.003277 0.000000 -0.003573 0.000000
# 3 -0.004438 -0.003277 0.024403 0.000000 0.008934 0.000000
# 4 0.000000 0.000000 0.000000 0.120534 0.000000 0.040735
# 5 0.011821 -0.003573 0.008934 0.000000 0.036418 0.000000
# 6 0.000000 0.000000 0.000000 0.040735 0.000000 0.034666
#
#
# Mechanical properties :
#
#
# Convention : Reuss Voigt Hill
#
# Bulk Modulus (GPa) = 36.61628 61.93328 49.27478
# Shear Modulus (GPa) = 16.97573 30.38421 23.67997
#
# Velocity S-wave (km/s) = 2.75564 3.68665 3.25461
# Velocity P-wave (km/s) = 5.14819 6.76947 6.01372
#
# Compressibility (1/GPa) = 0.02731026
#
# Stress axis : x y z
#
# Youngs Moduli (GPa) = 41.57006 82.61224 40.97791
#
# Poissons Ratio (x) = 0.73624 0.18184
# Poissons Ratio (y) = 0.37047 0.13430
# Poissons Ratio (z) = 0.18447 0.27074
#
# Static dielectric constant tensor:
#      x y z
#    x 1.863170 0.000000 0.000310 
#    y 0.000000 1.881060 0.000000 
#    z 0.000310 0.000000 1.866500 
# 
# From -- ./inp_files/288619.got.cif
#   From: 2010.05.17/outbox.cif.g08.bks.cpg/sg15_145_cif.got.tgz:288619.got - 2010.06.03 18:47:42.
