data_PCOD9262530
_publ_section_title
;
Structure prediction by ZEFSAII (Michael W. Deem and Ramdas Pophale) SiO2 
 PCOD9262530
Probable space group: C 2/C
;
_chemical_formula_sum "Si O2"
_cell_formula_units_Z 60
_cell_length_a 11.479516
_cell_length_b 19.362359
_cell_length_c 9.873001
_cell_angle_alpha 90.000000
_cell_angle_beta 81.664686
_cell_angle_gamma 90.000000
_cell_volume 2171.295890
_symmetry_space_group_name_H-M "C 2/C"
_symmetry_group_IT_number 15
_symmetry_cell_setting 'monoclinic'
loop_
_space_group_symop_operation_xyz
x,y,z
-x,y,1/2-z
-x,-y,-z
x,-y,1/2+z
1/2+x,1/2+y,z
1/2-x,1/2+y,1/2-z
1/2-x,1/2-y,-z
1/2+x,1/2-y,1/2+z
loop_
_atom_site_type_symbol
_atom_site_label
_atom_site_fract_x
_atom_site_fract_y
_atom_site_fract_z
Si Si1 0.724177 0.875072 0.235027
Si Si2 0.000000 0.485916 0.250000
Si Si3 0.902604 0.894665 0.979271
Si Si4 0.190474 0.583819 0.158550
Si Si5 0.311721 0.761662 0.801793
Si Si6 0.510403 0.747488 0.981015
Si Si7 0.622974 0.461832 0.082156
Si Si8 0.987714 0.396172 0.055180
O O1 0.781070 0.879728 0.078475
O O2 0.716277 0.796649 0.288788
O O3 0.814463 0.915103 0.317369
O O4 0.598372 0.906638 0.297152
O O5 0.890568 0.540703 0.226233
O O6 0.059149 0.462212 0.088798
O O7 0.959392 0.820483 0.938172
O O8 0.996776 0.929643 0.067241
O O9 0.883612 0.957291 0.878325
O O10 0.229079 0.659501 0.203657
O O11 0.297831 0.545694 0.067280
O O12 0.096818 0.604704 0.057222
O O13 0.381466 0.745670 0.930713
O O14 0.404126 0.748579 0.664349
O O15 0.537673 0.819401 0.051138
#
# Coordination Sequence:
#
# PCOD9262530 Si02
#       8
#     8   4   8   8   8   8   8   8
#     4  10  19  34  56  83 108 139 183 225 273 309
#     4  12  22  40  54  76 116 140 178 224 274 328
#     4  10  19  33  53  79 118 144 172 221 271 319
#     4  10  21  34  56  83 108 138 184 227 273 314
#     4   9  17  31  55  83 108 132 175 238 267 305
#     4   9  17  32  54  81 106 144 177 215 276 314
#     4  10  20  31  53  82 109 146 174 216 274 323
#     4  10  22  34  59  78 104 145 182 223 268 325
#
# _framework density 27.633268000000001
#
# number of rings (size 3 to 8) (size 9 to 14) (size 15 to 20)
#    0.000    2.133    1.333    3.200    1.867    1.600 
#    0.000    0.000    5.867    8.800    0.000    0.000 
#    0.000    0.000    0.000    0.000    0.000    0.000 
#
# Total GULP energy -167762.761985 kJ/mol
# GULP energy per Si atom -5592.092066 kJ/mol
# Density = 2.757037 g / cm^3
# Si number density = 27.633268 Si / 1000 Ang^3
#
#
#
# Elastic Constant Matrix: (Units=GPa)
#
#
# Indices 1 2 3 4 5 6 
#
# 1 90.0010 5.7860 6.5168 0.0000 -16.6111 0.0000
# 2 5.7860 221.6042 9.2732 0.0000 13.3757 0.0000
# 3 6.5168 9.2732 69.0459 0.0000 -7.1102 0.0000
# 4 0.0000 0.0000 0.0000 34.6061 0.0000 -1.3759
# 5 -16.6111 13.3757 -7.1102 0.0000 35.6293 0.0000
# 6 0.0000 0.0000 0.0000 -1.3759 0.0000 30.5982
#
#
#
# Elastic Compliance Matrix: (Units=1/GPa)
#
#
# Indices 1 2 3 4 5 6 
#
# 1 0.012271 -0.000655 -0.000465 0.000000 0.005874 0.000000
# 2 -0.000655 0.004698 -0.000799 0.000000 -0.002228 0.000000
# 3 -0.000465 -0.000799 0.014950 0.000000 0.003066 0.000000
# 4 0.000000 0.000000 0.000000 0.028948 0.000000 0.001302
# 5 0.005874 -0.002228 0.003066 0.000000 0.032254 0.000000
# 6 0.000000 0.000000 0.000000 0.001302 0.000000 0.032740
#
#
# Mechanical properties :
#
#
# Convention : Reuss Voigt Hill
#
# Bulk Modulus (GPa) = 35.61237 47.08922 41.35079
# Shear Modulus (GPa) = 35.95577 44.10506 40.03042
#
# Velocity S-wave (km/s) = 3.61110 3.99944 3.81022
# Velocity P-wave (km/s) = 5.50474 6.19719 5.86120
#
# Compressibility (1/GPa) = 0.02808013
#
# Stress axis : x y z
#
# Youngs Moduli (GPa) = 81.49300 212.87521 66.88951
#
# Poissons Ratio (x) = 0.13954 0.03112
# Poissons Ratio (y) = 0.05342 0.05341
# Poissons Ratio (z) = 0.03791 0.16999
#
# Static dielectric constant tensor:
#      x y z
#    x 2.188230 0.000000 0.020000 
#    y 0.000000 2.201610 0.000000 
#    z 0.020000 0.000000 2.175260 
# 
# From -- ./inp_files/98730.got.cif
#   From: 2010.05.17/outbox.cif.g08.bks.cpg/sg15_50_cif.got.tgz:98730.got - 2010.06.03 18:47:42.
