data_PCOD9262116
_publ_section_title
;
Structure prediction by ZEFSAII (Michael W. Deem and Ramdas Pophale) SiO2 
 PCOD9262116
Probable space group: C 2/C
;
_chemical_formula_sum "Si O2"
_cell_formula_units_Z 40
_cell_length_a 23.717220
_cell_length_b 12.453845
_cell_length_c 5.806927
_cell_angle_alpha 90.000000
_cell_angle_beta 70.115559
_cell_angle_gamma 90.000000
_cell_volume 1612.936355
_symmetry_space_group_name_H-M "C 2/C"
_symmetry_group_IT_number 15
_symmetry_cell_setting 'monoclinic'
loop_
_space_group_symop_operation_xyz
x,y,z
-x,y,1/2-z
-x,-y,-z
x,-y,1/2+z
1/2+x,1/2+y,z
1/2-x,1/2+y,1/2-z
1/2-x,1/2-y,-z
1/2+x,1/2-y,1/2+z
loop_
_atom_site_type_symbol
_atom_site_label
_atom_site_fract_x
_atom_site_fract_y
_atom_site_fract_z
Si Si1 0.186282 0.115259 0.661784
Si Si2 0.792043 0.701786 0.744604
Si Si3 0.396521 0.241669 0.891189
Si Si4 0.576697 0.538485 0.277838
Si Si5 0.431425 0.035742 0.074772
O O1 0.195335 0.196132 0.436451
O O2 0.253182 0.108482 0.675860
O O3 0.146090 0.010224 0.670689
O O4 0.145769 0.186356 0.888320
O O5 0.854149 0.674706 0.779276
O O6 0.750000 0.750000 0.000000
O O7 0.429774 0.333163 0.701179
O O8 0.431060 0.160838 0.005154
O O9 0.554031 0.493871 0.554228
O O10 0.406665 0.019569 0.370620
O O11 0.500000 0.000000 0.000000
#
# Coordination Sequence:
#
# PCOD9262116 Si02
#       5
#     8   8   8   8   8
#     4   9  18  32  53  84 129 168 209 250 300 371
#     4   9  17  32  52  79 125 169 212 246 300 350
#     4  10  20  35  62  87 122 163 212 263 314 385
#     4  10  19  32  53  88 119 160 201 243 299 366
#     4  10  24  45  68  94 120 156 212 272 343 391
#
# _framework density 24.799492000000001
#
# number of rings (size 3 to 8) (size 9 to 14) (size 15 to 20)
#    0.000    2.400    2.000    0.000    2.800    0.000 
#    0.000    8.000    0.000    0.000    0.000   67.200 
#    0.000    0.000    0.000    0.000    0.000    0.000 
#
# Total GULP energy -111499.332940 kJ/mol
# GULP energy per Si atom -5574.966647 kJ/mol
# Density = 2.474305 g / cm^3
# Si number density = 24.799492 Si / 1000 Ang^3
#
#
#
# Elastic Constant Matrix: (Units=GPa)
#
#
# Indices 1 2 3 4 5 6 
#
# 1 84.4118 59.6849 33.5211 0.0000 41.3673 0.0000
# 2 59.6849 122.3018 32.6812 0.0000 17.9115 0.0000
# 3 33.5211 32.6812 162.8404 0.0000 15.4457 0.0000
# 4 0.0000 0.0000 0.0000 40.4028 0.0000 16.9806
# 5 41.3673 17.9115 15.4457 0.0000 44.3715 0.0000
# 6 0.0000 0.0000 0.0000 16.9806 0.0000 39.4398
#
#
#
# Elastic Compliance Matrix: (Units=1/GPa)
#
#
# Indices 1 2 3 4 5 6 
#
# 1 0.034219 -0.012303 -0.002089 0.000000 -0.026209 0.000000
# 2 -0.012303 0.013462 -0.000767 0.000000 0.006303 0.000000
# 3 -0.002089 -0.000767 0.006733 0.000000 -0.000087 0.000000
# 4 0.000000 0.000000 0.000000 0.030219 0.000000 -0.013011
# 5 -0.026209 0.006303 -0.000087 0.000000 0.044458 0.000000
# 6 0.000000 0.000000 0.000000 -0.013011 0.000000 0.030957
#
#
# Mechanical properties :
#
#
# Convention : Reuss Voigt Hill
#
# Bulk Modulus (GPa) = 41.49898 69.03649 55.26774
# Shear Modulus (GPa) = 25.20181 41.08726 33.14454
#
# Velocity S-wave (km/s) = 3.19128 4.07477 3.65978
# Velocity P-wave (km/s) = 5.50901 7.07366 6.33979
#
# Compressibility (1/GPa) = 0.02409698
#
# Stress axis : x y z
#
# Youngs Moduli (GPa) = 29.22319 74.28087 148.51835
#
# Poissons Ratio (x) = 0.91387 0.31026
# Poissons Ratio (y) = 0.35953 0.11392
# Poissons Ratio (z) = 0.06105 0.05698
#
# Static dielectric constant tensor:
#      x y z
#    x 2.061840 0.000000 0.024610 
#    y 0.000000 1.958920 0.000000 
#    z 0.024610 0.000000 1.987200 
# 
# From -- ./inp_files/16728.got.cif
#   From: 2010.05.17/outbox.cif.g08.bks.cpg/sg15_9_cif.got.tgz:16728.got - 2010.06.03 18:47:42.
