data_PCOD9262210
_publ_section_title
;
Structure prediction by ZEFSAII (Michael W. Deem and Ramdas Pophale) SiO2 
 PCOD9262210
Probable space group: C 2/C
;
_chemical_formula_sum "Si O2"
_cell_formula_units_Z 48
_cell_length_a 6.048656
_cell_length_b 18.315556
_cell_length_c 23.100884
_cell_angle_alpha 90.000000
_cell_angle_beta 122.760702
_cell_angle_gamma 90.000000
_cell_volume 2152.145084
_symmetry_space_group_name_H-M "C 2/C"
_symmetry_group_IT_number 15
_symmetry_cell_setting 'monoclinic'
loop_
_space_group_symop_operation_xyz
x,y,z
-x,y,1/2-z
-x,-y,-z
x,-y,1/2+z
1/2+x,1/2+y,z
1/2-x,1/2+y,1/2-z
1/2-x,1/2-y,-z
1/2+x,1/2-y,1/2+z
loop_
_atom_site_type_symbol
_atom_site_label
_atom_site_fract_x
_atom_site_fract_y
_atom_site_fract_z
Si Si1 0.777168 0.184212 0.822606
Si Si2 0.000000 0.266121 0.750000
Si Si3 0.525031 0.588525 0.051433
Si Si4 0.431963 0.995574 0.058019
Si Si5 0.571743 0.681452 0.355968
Si Si6 0.517340 0.474547 0.154835
Si Si7 0.000000 0.929539 0.750000
O O1 0.500000 0.179301 0.750000
O O2 0.725798 0.243487 0.865607
O O3 0.976121 0.218016 0.804058
O O4 0.875006 0.103378 0.847815
O O5 0.266325 0.310487 0.794498
O O6 0.801376 0.572915 0.058493
O O7 0.438166 0.656886 0.078518
O O8 0.544971 0.528135 0.104946
O O9 0.297621 0.565173 0.974567
O O10 0.704456 0.971987 0.125662
O O11 0.500000 0.000000 0.000000
O O12 0.654655 0.622084 0.318134
O O13 0.651749 0.514987 0.228353
#
# Coordination Sequence:
#
# PCOD9262210 Si02
#       7
#     8   4   8   8   8   8   4
#     4  10  21  38  51  83 126 159 194 242 306 368
#     4  10  19  32  56  75 116 164 190 232 301 350
#     4   9  20  36  59  84 110 153 198 258 300 355
#     4   9  19  37  57  83 114 146 199 257 311 349
#     4  10  20  35  56  83 120 154 201 245 298 370
#     4  10  21  34  59  84 118 154 194 249 299 367
#     4  10  19  36  52  91 116 144 204 244 283 366
#
# _framework density 22.303331
#
# number of rings (size 3 to 8) (size 9 to 14) (size 15 to 20)
#    0.000    2.333    2.500    0.500    2.333    5.333 
#    3.000    0.833    0.000   10.000    0.000    0.000 
#    0.000    0.000    0.000    0.000    0.000    0.000 
#
# Total GULP energy -133668.771224 kJ/mol
# GULP energy per Si atom -5569.532134 kJ/mol
# Density = 2.225257 g / cm^3
# Si number density = 22.303331 Si / 1000 Ang^3
#
#
#
# Elastic Constant Matrix: (Units=GPa)
#
#
# Indices 1 2 3 4 5 6 
#
# 1 90.2701 30.9456 14.9890 0.0000 -10.6618 0.0000
# 2 30.9456 107.1143 1.7829 0.0000 -1.4911 0.0000
# 3 14.9890 1.7829 35.1062 0.0000 -7.9467 0.0000
# 4 0.0000 0.0000 0.0000 13.7443 0.0000 -4.6221
# 5 -10.6618 -1.4911 -7.9467 0.0000 25.1362 0.0000
# 6 0.0000 0.0000 0.0000 -4.6221 0.0000 28.7335
#
#
#
# Elastic Compliance Matrix: (Units=1/GPa)
#
#
# Indices 1 2 3 4 5 6 
#
# 1 0.013646 -0.003807 -0.004711 0.000000 0.004073 0.000000
# 2 -0.003807 0.010410 0.000938 0.000000 -0.000701 0.000000
# 3 -0.004711 0.000938 0.032322 0.000000 0.008276 0.000000
# 4 0.000000 0.000000 0.000000 0.076918 0.000000 0.012373
# 5 0.004073 -0.000701 0.008276 0.000000 0.044086 0.000000
# 6 0.000000 0.000000 0.000000 0.012373 0.000000 0.036793
#
#
# Mechanical properties :
#
#
# Convention : Reuss Voigt Hill
#
# Bulk Modulus (GPa) = 24.26096 36.43618 30.34857
# Shear Modulus (GPa) = 20.56968 25.84100 23.20534
#
# Velocity S-wave (km/s) = 3.04018 3.40754 3.22909
# Velocity P-wave (km/s) = 4.81923 5.64392 5.24780
#
# Compressibility (1/GPa) = 0.04121848
#
# Stress axis : x y z
#
# Youngs Moduli (GPa) = 73.27931 96.05766 30.93850
#
# Poissons Ratio (x) = 0.36573 0.14576
# Poissons Ratio (y) = 0.27900 -0.02903
# Poissons Ratio (z) = 0.34523 -0.09013
#
# Static dielectric constant tensor:
#      x y z
#    x 1.996140 0.000000 -0.018480 
#    y 0.000000 1.887570 0.000000 
#    z -0.018480 0.000000 1.861950 
# 
# From -- ./inp_files/260695.got.cif
#   From: 2010.05.17/outbox.cif.g08.bks.cpg/sg15_131_cif.got.tgz:260695.got - 2010.06.03 18:47:42.
