data_PCOD9262306
_publ_section_title
;
Structure prediction by ZEFSAII (Michael W. Deem and Ramdas Pophale) SiO2 
 PCOD9262306
Probable space group: C 2/C
;
_chemical_formula_sum "Si O2"
_cell_formula_units_Z 32
_cell_length_a 17.823307
_cell_length_b 7.026223
_cell_length_c 12.726206
_cell_angle_alpha 90.000000
_cell_angle_beta 132.444061
_cell_angle_gamma 90.000000
_cell_volume 1176.056546
_symmetry_space_group_name_H-M "C 2/C"
_symmetry_group_IT_number 15
_symmetry_cell_setting 'monoclinic'
loop_
_space_group_symop_operation_xyz
x,y,z
-x,y,1/2-z
-x,-y,-z
x,-y,1/2+z
1/2+x,1/2+y,z
1/2-x,1/2+y,1/2-z
1/2-x,1/2-y,-z
1/2+x,1/2-y,1/2+z
loop_
_atom_site_type_symbol
_atom_site_label
_atom_site_fract_x
_atom_site_fract_y
_atom_site_fract_z
Si Si1 0.857221 0.841348 0.917623
Si Si2 0.606361 0.087505 0.375308
Si Si3 0.817781 0.731374 0.666502
Si Si4 0.028461 0.783216 0.925369
O O1 0.784612 0.807151 0.748789
O O2 0.965716 0.757028 0.975136
O O3 0.826658 0.720274 0.988956
O O4 0.888252 0.054412 0.977760
O O5 0.500000 0.188877 0.250000
O O6 0.652669 0.992210 0.314415
O O7 0.573932 0.906439 0.417955
O O8 0.750000 0.750000 0.500000
O O9 0.927186 0.839265 0.761147
#
# Coordination Sequence:
#
# PCOD9262306 Si02
#       4
#     8   8   8   8
#     4   9  18  36  56  80 107 144 190 230 274 336
#     4  10  19  32  59  81 105 146 190 230 275 338
#     4   9  19  36  54  82 121 145 180 242 290 333
#     4   8  18  35  57  77 106 146 186 234 270 335
#
# _framework density 27.209575999999998
#
# number of rings (size 3 to 8) (size 9 to 14) (size 15 to 20)
#    1.500    1.500    0.000    0.750    0.000    3.000 
#    4.500    0.000    0.000   15.000    0.000    0.000 
#    0.000    0.000    0.000    0.000    0.000    0.000 
#
# Total GULP energy -89231.505146 kJ/mol
# GULP energy per Si atom -5576.969072 kJ/mol
# Density = 2.714765 g / cm^3
# Si number density = 27.209576 Si / 1000 Ang^3
#
#
#
# Elastic Constant Matrix: (Units=GPa)
#
#
# Indices 1 2 3 4 5 6 
#
# 1 86.4940 27.2653 31.4633 0.0000 -22.7883 0.0000
# 2 27.2653 91.6033 67.8826 0.0000 -13.3914 0.0000
# 3 31.4633 67.8826 230.8670 0.0000 -9.4281 0.0000
# 4 0.0000 0.0000 0.0000 45.9595 0.0000 -3.0575
# 5 -22.7883 -13.3914 -9.4281 0.0000 36.2836 0.0000
# 6 0.0000 0.0000 0.0000 -3.0575 0.0000 33.1403
#
#
#
# Elastic Compliance Matrix: (Units=1/GPa)
#
#
# Indices 1 2 3 4 5 6 
#
# 1 0.014849 -0.002526 -0.000948 0.000000 0.008148 0.000000
# 2 -0.002526 0.015028 -0.003955 0.000000 0.002932 0.000000
# 3 -0.000948 -0.003955 0.005599 0.000000 -0.000600 0.000000
# 4 0.000000 0.000000 0.000000 0.021893 0.000000 0.002020
# 5 0.008148 0.002932 -0.000600 0.000000 0.033604 0.000000
# 6 0.000000 0.000000 0.000000 0.002020 0.000000 0.030361
#
#
# Mechanical properties :
#
#
# Convention : Reuss Voigt Hill
#
# Bulk Modulus (GPa) = 48.50083 73.57632 61.03857
# Shear Modulus (GPa) = 34.94925 41.90022 38.42474
#
# Velocity S-wave (km/s) = 3.58781 3.92842 3.76197
# Velocity P-wave (km/s) = 5.91834 6.90478 6.43050
#
# Compressibility (1/GPa) = 0.02061820
#
# Stress axis : x y z
#
# Youngs Moduli (GPa) = 67.34313 66.54342 178.60275
#
# Poissons Ratio (x) = 0.16809 0.16936
# Poissons Ratio (y) = 0.17011 0.70631
# Poissons Ratio (z) = 0.06386 0.26316
#
# Static dielectric constant tensor:
#      x y z
#    x 2.348410 0.000000 0.083330 
#    y 0.000000 2.105100 0.000000 
#    z 0.083330 0.000000 2.259260 
# 
# From -- ./inp_files/175972.got.cif
#   From: 2010.05.17/outbox.cif.g08.bks.cpg/sg15_88_cif.got.tgz:175972.got - 2010.06.03 18:47:42.
