data_PCOD9262449
_publ_section_title
;
Structure prediction by ZEFSAII (Michael W. Deem and Ramdas Pophale) SiO2 
 PCOD9262449
Probable space group: C 2/C
;
_chemical_formula_sum "Si O2"
_cell_formula_units_Z 56
_cell_length_a 19.437210
_cell_length_b 25.517341
_cell_length_c 9.881525
_cell_angle_alpha 90.000000
_cell_angle_beta 141.426637
_cell_angle_gamma 90.000000
_cell_volume 3055.913507
_symmetry_space_group_name_H-M "C 2/C"
_symmetry_group_IT_number 15
_symmetry_cell_setting 'monoclinic'
loop_
_space_group_symop_operation_xyz
x,y,z
-x,y,1/2-z
-x,-y,-z
x,-y,1/2+z
1/2+x,1/2+y,z
1/2-x,1/2+y,1/2-z
1/2-x,1/2-y,-z
1/2+x,1/2-y,1/2+z
loop_
_atom_site_type_symbol
_atom_site_label
_atom_site_fract_x
_atom_site_fract_y
_atom_site_fract_z
Si Si1 0.130531 0.501454 0.946050
Si Si2 0.450957 0.895295 0.314916
Si Si3 0.646919 0.277885 0.203801
Si Si4 0.784631 0.822770 0.906421
Si Si5 0.714542 0.817156 0.317569
Si Si6 0.321547 0.064178 0.223440
Si Si7 0.894591 0.205240 0.299607
O O1 0.120628 0.556455 0.851060
O O2 0.191224 0.460010 0.944837
O O3 0.000000 0.485450 0.750000
O O4 0.185366 0.517986 0.172929
O O5 0.500000 0.870229 0.250000
O O6 0.374246 0.860955 0.290188
O O7 0.553212 0.916758 0.557188
O O8 0.678373 0.216565 0.227818
O O9 0.657606 0.296615 0.374598
O O10 0.739494 0.309035 0.261610
O O11 0.523657 0.291137 0.968779
O O12 0.750050 0.883247 0.868689
O O13 0.863042 0.817832 0.897252
O O14 0.821569 0.824274 0.576378
O O15 0.653077 0.764068 0.267729
#
# Coordination Sequence:
#
# PCOD9262449 Si02
#       7
#     8   8   8   8   8   8   8
#     4   9  18  31  49  75 105 135 166 207 263 315
#     4   9  17  31  50  76 110 139 165 207 263 316
#     4  10  21  35  51  77 107 138 180 215 242 302
#     4  10  21  35  52  75 106 145 173 201 263 313
#     4  10  20  31  53  80 101 137 180 210 253 303
#     4  10  19  33  52  75 107 136 166 209 259 315
#     4  10  19  34  51  73 107 139 173 216 254 299
#
# _framework density 18.325125
#
# number of rings (size 3 to 8) (size 9 to 14) (size 15 to 20)
#    0.000    2.571    0.000    5.143    0.000    4.571 
#    0.000    2.857    0.000    0.000    0.000   18.000 
#    0.000    0.000    0.000    0.000    0.000    0.000 
#
# Total GULP energy -156024.916329 kJ/mol
# GULP energy per Si atom -5572.318440 kJ/mol
# Density = 1.828342 g / cm^3
# Si number density = 18.325125 Si / 1000 Ang^3
#
#
#
# Elastic Constant Matrix: (Units=GPa)
#
#
# Indices 1 2 3 4 5 6 
#
# 1 64.4083 37.7002 8.3161 0.0000 0.0546 0.0000
# 2 37.7002 37.7963 12.3631 0.0000 7.8812 0.0000
# 3 8.3161 12.3631 36.2680 0.0000 5.0044 0.0000
# 4 0.0000 0.0000 0.0000 8.2101 0.0000 2.3558
# 5 0.0546 7.8812 5.0044 0.0000 21.1242 0.0000
# 6 0.0000 0.0000 0.0000 2.3558 0.0000 34.9657
#
#
#
# Elastic Compliance Matrix: (Units=1/GPa)
#
#
# Indices 1 2 3 4 5 6 
#
# 1 0.042761 -0.047453 0.004077 0.000000 0.016628 0.000000
# 2 -0.047453 0.084190 -0.013957 0.000000 -0.027981 0.000000
# 3 0.004077 -0.013957 0.031715 0.000000 -0.002317 0.000000
# 4 0.000000 0.000000 0.000000 0.124202 0.000000 -0.008368
# 5 0.016628 -0.027981 -0.002317 0.000000 0.058284 0.000000
# 6 0.000000 0.000000 0.000000 -0.008368 0.000000 0.029163
#
#
# Mechanical properties :
#
#
# Convention : Reuss Voigt Hill
#
# Bulk Modulus (GPa) = 22.72777 28.35905 25.54341
# Shear Modulus (GPa) = 10.00701 18.19955 14.10328
#
# Velocity S-wave (km/s) = 2.33937 3.15484 2.77720
# Velocity P-wave (km/s) = 4.44143 5.36468 4.92474
#
# Compressibility (1/GPa) = 0.04399904
#
# Stress axis : x y z
#
# Youngs Moduli (GPa) = 23.38565 11.87789 31.53060
#
# Poissons Ratio (x) = 0.56364 -0.12854
# Poissons Ratio (y) = 1.10972 0.44008
# Poissons Ratio (z) = -0.09533 0.16578
#
# Static dielectric constant tensor:
#      x y z
#    x 1.662010 0.000000 -0.039550 
#    y 0.000000 1.639870 0.000000 
#    z -0.039550 0.000000 1.648590 
# 
# From -- ./inp_files/114770.got.cif
#   From: 2010.05.17/outbox.cif.g08.bks.cpg/sg15_58_cif.got.tgz:114770.got - 2010.06.03 18:47:42.
