data_PCOD9262134
_publ_section_title
;
Structure prediction by ZEFSAII (Michael W. Deem and Ramdas Pophale) SiO2 
 PCOD9262134
Probable space group: C 2/C
;
_chemical_formula_sum "Si O2"
_cell_formula_units_Z 44
_cell_length_a 12.228152
_cell_length_b 25.790844
_cell_length_c 7.239202
_cell_angle_alpha 90.000000
_cell_angle_beta 126.008202
_cell_angle_gamma 90.000000
_cell_volume 1846.841168
_symmetry_space_group_name_H-M "C 2/C"
_symmetry_group_IT_number 15
_symmetry_cell_setting 'monoclinic'
loop_
_space_group_symop_operation_xyz
x,y,z
-x,y,1/2-z
-x,-y,-z
x,-y,1/2+z
1/2+x,1/2+y,z
1/2-x,1/2+y,1/2-z
1/2-x,1/2-y,-z
1/2+x,1/2-y,1/2+z
loop_
_atom_site_type_symbol
_atom_site_label
_atom_site_fract_x
_atom_site_fract_y
_atom_site_fract_z
Si Si1 0.950460 0.230387 0.901692
Si Si2 0.703078 0.633490 0.916437
Si Si3 0.125460 0.577834 0.675286
Si Si4 0.106256 0.138701 0.204964
Si Si5 0.500000 0.996539 0.750000
Si Si6 0.891975 0.342104 0.931819
O O1 0.845641 0.184987 0.739311
O O2 0.902278 0.280494 0.961421
O O3 0.000000 0.249158 0.750000
O O4 0.066213 0.198758 0.124350
O O5 0.739366 0.591577 0.799673
O O6 0.606444 0.617454 0.993789
O O7 0.836915 0.646919 0.169082
O O8 0.035997 0.542622 0.447526
O O9 0.123986 0.537045 0.842047
O O10 0.032474 0.629056 0.602129
O O11 0.262579 0.137015 0.420798
O O12 0.000000 0.119116 0.250000
#
# Coordination Sequence:
#
# PCOD9262134 Si02
#       6
#     8   8   8   8   4   8
#     4  10  19  32  54  80 111 157 193 219 272 348
#     4   9  19  34  57  78 110 153 186 230 276 346
#     4  11  20  39  59  92 111 144 190 233 307 327
#     4   9  21  34  47  76 113 158 186 228 267 321
#     4  10  22  36  60  86 120 138 182 254 288 346
#     4  10  20  32  58  78 114 152 187 235 273 347
#
# _framework density 23.824463000000002
#
# number of rings (size 3 to 8) (size 9 to 14) (size 15 to 20)
#    1.091    1.091    1.818    1.636    2.545    2.182 
#    1.636    0.000    0.000    0.000    0.000   96.727 
#    0.000    0.000    0.000    0.000    0.000    0.000 
#
# Total GULP energy -122604.535375 kJ/mol
# GULP energy per Si atom -5572.933426 kJ/mol
# Density = 2.377024 g / cm^3
# Si number density = 23.824463 Si / 1000 Ang^3
#
#
#
# Elastic Constant Matrix: (Units=GPa)
#
#
# Indices 1 2 3 4 5 6 
#
# 1 159.0842 46.2216 19.0194 0.0000 -24.5213 0.0000
# 2 46.2216 68.6698 9.5843 0.0000 -9.7541 0.0000
# 3 19.0194 9.5843 71.6161 0.0000 11.4304 0.0000
# 4 0.0000 0.0000 0.0000 1.7201 0.0000 -2.7363
# 5 -24.5213 -9.7541 11.4304 0.0000 36.4732 0.0000
# 6 0.0000 0.0000 0.0000 -2.7363 0.0000 29.3638
#
#
#
# Elastic Compliance Matrix: (Units=1/GPa)
#
#
# Indices 1 2 3 4 5 6 
#
# 1 0.008833 -0.004811 -0.002573 0.000000 0.005458 0.000000
# 2 -0.004811 0.018316 -0.001515 0.000000 0.002139 0.000000
# 3 -0.002573 -0.001515 0.015990 0.000000 -0.007146 0.000000
# 4 0.000000 0.000000 0.000000 0.682551 0.000000 0.063603
# 5 0.005458 0.002139 -0.007146 0.000000 0.033898 0.000000
# 6 0.000000 0.000000 0.000000 0.063603 0.000000 0.039982
#
#
# Mechanical properties :
#
#
# Convention : Reuss Voigt Hill
#
# Bulk Modulus (GPa) = 39.46184 49.89117 44.67651
# Shear Modulus (GPa) = 6.05463 28.48106 17.26784
#
# Velocity S-wave (km/s) = 1.59589 3.46129 2.69512
# Velocity P-wave (km/s) = 4.47162 6.07952 5.33648
#
# Compressibility (1/GPa) = 0.02534093
#
# Stress axis : x y z
#
# Youngs Moduli (GPa) = 113.21559 54.59750 62.53912
#
# Poissons Ratio (x) = 0.26266 0.16092
# Poissons Ratio (y) = 0.54467 0.09474
# Poissons Ratio (z) = 0.29131 0.08271
#
# Static dielectric constant tensor:
#      x y z
#    x 2.061390 0.000000 -0.066210 
#    y 0.000000 1.831160 0.000000 
#    z -0.066210 0.000000 2.042590 
# 
# From -- ./inp_files/41021.got.cif
#   From: 2010.05.17/outbox.cif.g08.bks.cpg/sg15_21_cif.got.tgz:41021.got - 2010.06.03 18:47:42.
