data_PCOD9262875
_publ_section_title
;
Structure prediction by ZEFSAII (Michael W. Deem and Ramdas Pophale) SiO2 
 PCOD9262875
Probable space group: C 2/C
;
_chemical_formula_sum "Si O2"
_cell_formula_units_Z 40
_cell_length_a 22.692441
_cell_length_b 6.407947
_cell_length_c 19.046872
_cell_angle_alpha 90.000000
_cell_angle_beta 58.547386
_cell_angle_gamma 90.000000
_cell_volume 2362.704874
_symmetry_space_group_name_H-M "C 2/C"
_symmetry_group_IT_number 15
_symmetry_cell_setting 'monoclinic'
loop_
_space_group_symop_operation_xyz
x,y,z
-x,y,1/2-z
-x,-y,-z
x,-y,1/2+z
1/2+x,1/2+y,z
1/2-x,1/2+y,1/2-z
1/2-x,1/2-y,-z
1/2+x,1/2-y,1/2+z
loop_
_atom_site_type_symbol
_atom_site_label
_atom_site_fract_x
_atom_site_fract_y
_atom_site_fract_z
Si Si1 0.825802 0.780581 0.354326
Si Si2 0.825128 0.856916 0.961520
Si Si3 0.581406 0.102370 0.705208
Si Si4 0.791225 0.027891 0.626823
Si Si5 0.826106 0.838157 0.747503
O O1 0.893326 0.636231 0.312548
O O2 0.762390 0.624726 0.379847
O O3 0.821684 0.917101 0.427028
O O4 0.825290 0.948754 0.292295
O O5 0.879404 0.722614 0.882657
O O6 0.750000 0.750000 0.000000
O O7 0.838238 0.876669 0.036254
O O8 0.500000 0.124829 0.750000
O O9 0.612132 0.202560 0.757679
O O10 0.743643 0.207103 0.692056
O O11 0.828314 0.898680 0.664848
#
# Coordination Sequence:
#
# PCOD9262875 Si02
#       5
#     8   8   8   8   8
#     4  10  19  33  57  82 114 148 184 233 287 330
#     4  11  20  34  59  91 112 143 195 244 281 332
#     4  10  23  40  55  80 118 159 194 227 280 350
#     4  11  19  32  55  92 115 141 184 243 289 333
#     4  10  20  33  58  85 118 146 186 235 292 336
#
# _framework density 16.929748
#
# number of rings (size 3 to 8) (size 9 to 14) (size 15 to 20)
#    0.000    1.600    8.000    0.600    0.000    3.200 
#    0.000    1.000    0.000    2.400    0.000    0.000 
#    0.000    0.000    0.000    0.000    0.000    0.000 
#
# Total GULP energy -111530.919003 kJ/mol
# GULP energy per Si atom -5576.545950 kJ/mol
# Density = 1.689122 g / cm^3
# Si number density = 16.929748 Si / 1000 Ang^3
#
#
#
# Elastic Constant Matrix: (Units=GPa)
#
#
# Indices 1 2 3 4 5 6 
#
# 1 93.6650 31.7274 63.5898 -0.0008 -2.3763 0.0005
# 2 31.7274 94.7566 39.1674 0.0003 -1.1663 -0.0031
# 3 63.5898 39.1674 104.3943 0.0005 14.8750 -0.0001
# 4 -0.0008 0.0003 0.0005 19.8119 0.0005 1.8920
# 5 -2.3763 -1.1663 14.8750 0.0005 33.2212 -0.0005
# 6 0.0005 -0.0031 -0.0001 1.8920 -0.0005 12.3392
#
#
#
# Elastic Compliance Matrix: (Units=1/GPa)
#
#
# Indices 1 2 3 4 5 6 
#
# 1 0.019859 -0.001361 -0.012584 0.000001 0.007007 -0.000001
# 2 -0.001361 0.012816 -0.004304 0.000000 0.002280 0.000003
# 3 -0.012584 -0.004304 0.020305 -0.000001 -0.010143 -0.000001
# 4 0.000001 0.000000 -0.000001 0.051225 0.000000 -0.007855
# 5 0.007007 0.002280 -0.010143 0.000000 0.035224 0.000002
# 6 -0.000001 0.000003 -0.000001 -0.007855 0.000002 0.082247
#
#
# Mechanical properties :
#
#
# Convention : Reuss Voigt Hill
#
# Bulk Modulus (GPa) = 60.67895 62.42057 61.54976
# Shear Modulus (GPa) = 18.96321 23.62988 21.29655
#
# Velocity S-wave (km/s) = 3.35044 3.74004 3.55059
# Velocity P-wave (km/s) = 7.13349 7.45660 7.29684
#
# Compressibility (1/GPa) = 0.01648018
#
# Stress axis : x y z
#
# Youngs Moduli (GPa) = 50.35540 78.02540 49.24988
#
# Poissons Ratio (x) = 0.10622 0.61978
# Poissons Ratio (y) = 0.06855 0.21198
# Poissons Ratio (z) = 0.63369 0.33583
#
# Static dielectric constant tensor:
#      x y z
#    x 1.556000 0.000000 0.023020 
#    y 0.000000 1.594380 0.000000 
#    z 0.023020 0.000000 1.591370 
# 
# From -- ./inp_files/217333.got.cif
#   From: 2010.05.17/outbox.cif.g08.bks.cpg/sg15_109_cif.got.tgz:217333.got - 2010.06.03 18:47:42.
