data_PCOD9262685
_publ_section_title
;
Structure prediction by ZEFSAII (Michael W. Deem and Ramdas Pophale) SiO2 
 PCOD9262685
Probable space group: C 2/C
;
_chemical_formula_sum "Si O2"
_cell_formula_units_Z 52
_cell_length_a 9.539544
_cell_length_b 27.053148
_cell_length_c 10.885368
_cell_angle_alpha 90.000000
_cell_angle_beta 111.667667
_cell_angle_gamma 90.000000
_cell_volume 2610.740303
_symmetry_space_group_name_H-M "C 2/C"
_symmetry_group_IT_number 15
_symmetry_cell_setting 'monoclinic'
loop_
_space_group_symop_operation_xyz
x,y,z
-x,y,1/2-z
-x,-y,-z
x,-y,1/2+z
1/2+x,1/2+y,z
1/2-x,1/2+y,1/2-z
1/2-x,1/2-y,-z
1/2+x,1/2-y,1/2+z
loop_
_atom_site_type_symbol
_atom_site_label
_atom_site_fract_x
_atom_site_fract_y
_atom_site_fract_z
Si Si1 0.718005 0.177293 0.979794
Si Si2 0.908800 0.426894 0.002744
Si Si3 0.476371 0.737020 0.987017
Si Si4 0.374224 0.032926 0.108378
Si Si5 0.500000 0.200930 0.250000
Si Si6 0.682045 0.669077 0.210307
Si Si7 0.360789 0.561382 0.282096
O O1 0.635212 0.124453 0.945673
O O2 0.593939 0.219887 0.951361
O O3 0.805995 0.179296 0.140437
O O4 0.843872 0.195979 0.925253
O O5 0.776734 0.433327 0.858505
O O6 0.072186 0.432389 0.988322
O O7 0.896392 0.475884 0.079775
O O8 0.518251 0.763965 0.874306
O O9 0.608469 0.711113 0.104435
O O10 0.500000 0.044745 0.250000
O O11 0.211233 0.037975 0.119141
O O12 0.355524 0.166600 0.224274
O O13 0.598288 0.617296 0.165894
O O14 0.500000 0.539118 0.250000
#
# Coordination Sequence:
#
# PCOD9262685 Si02
#       7
#     8   8   8   8   4   8   8
#     4   9  19  33  58  77 105 142 183 219 270 310
#     4   9  18  36  57  79 106 138 180 224 260 313
#     4  10  19  34  51  79 110 143 178 223 263 323
#     4   9  19  34  57  80 108 136 176 222 268 319
#     4  10  22  32  50  76 112 148 178 220 274 312
#     4  10  19  33  55  78 106 140 186 224 259 317
#     4  10  20  32  56  84 105 137 178 221 273 314
#
# _framework density 19.917722000000001
#
# number of rings (size 3 to 8) (size 9 to 14) (size 15 to 20)
#    0.000    2.462    0.000    2.769    7.538    0.615 
#    0.000    4.615    8.462    0.000    0.000    0.000 
#    0.000    0.000    0.000    0.000    0.000    0.000 
#
# Total GULP energy -144857.103567 kJ/mol
# GULP energy per Si atom -5571.427060 kJ/mol
# Density = 1.987239 g / cm^3
# Si number density = 19.917722 Si / 1000 Ang^3
#
#
#
# Elastic Constant Matrix: (Units=GPa)
#
#
# Indices 1 2 3 4 5 6 
#
# 1 127.2204 30.6242 6.0262 0.0000 -21.5143 0.0000
# 2 30.6242 68.6261 -1.9420 0.0000 -12.4050 0.0000
# 3 6.0262 -1.9420 13.1254 0.0000 -5.5178 0.0000
# 4 0.0000 0.0000 0.0000 22.3479 0.0000 -2.1261
# 5 -21.5143 -12.4050 -5.5178 0.0000 23.1802 0.0000
# 6 0.0000 0.0000 0.0000 -2.1261 0.0000 30.2580
#
#
#
# Elastic Compliance Matrix: (Units=1/GPa)
#
#
# Indices 1 2 3 4 5 6 
#
# 1 0.009916 -0.003222 -0.002095 0.000000 0.006980 0.000000
# 2 -0.003222 0.017725 0.007592 0.000000 0.008302 0.000000
# 3 -0.002095 0.007592 0.087967 0.000000 0.023058 0.000000
# 4 0.000000 0.000000 0.000000 0.045048 0.000000 0.003165
# 5 0.006980 0.008302 0.023058 0.000000 0.059550 0.000000
# 6 0.000000 0.000000 0.000000 0.003165 0.000000 0.033272
#
#
# Mechanical properties :
#
#
# Convention : Reuss Voigt Hill
#
# Bulk Modulus (GPa) = 8.32238 30.93207 19.62722
# Shear Modulus (GPa) = 17.30218 26.77479 22.03848
#
# Velocity S-wave (km/s) = 2.95054 3.67041 3.32998
# Velocity P-wave (km/s) = 3.97430 5.79018 4.96594
#
# Compressibility (1/GPa) = 0.12015800
#
# Stress axis : x y z
#
# Youngs Moduli (GPa) = 100.85042 56.41647 11.36787
#
# Poissons Ratio (x) = 0.18180 0.02382
# Poissons Ratio (y) = 0.32498 -0.08631
# Poissons Ratio (z) = 0.21129 -0.42834
#
# Static dielectric constant tensor:
#      x y z
#    x 1.784450 0.000000 -0.007990 
#    y 0.000000 1.724590 0.000000 
#    z -0.007990 0.000000 1.715240 
# 
# From -- ./inp_files/80851.got.cif
#   From: 2010.05.17/outbox.cif.g08.bks.cpg/sg15_41_cif.got.tgz:80851.got - 2010.06.03 18:47:42.
