data_PCOD9262120
_publ_section_title
;
Structure prediction by ZEFSAII (Michael W. Deem and Ramdas Pophale) SiO2 
 PCOD9262120
Probable space group: C 2/C
;
_chemical_formula_sum "Si O2"
_cell_formula_units_Z 64
_cell_length_a 26.237756
_cell_length_b 12.633112
_cell_length_c 11.653893
_cell_angle_alpha 90.000000
_cell_angle_beta 80.394261
_cell_angle_gamma 90.000000
_cell_volume 3808.692154
_symmetry_space_group_name_H-M "C 2/C"
_symmetry_group_IT_number 15
_symmetry_cell_setting 'monoclinic'
loop_
_space_group_symop_operation_xyz
x,y,z
-x,y,1/2-z
-x,-y,-z
x,-y,1/2+z
1/2+x,1/2+y,z
1/2-x,1/2+y,1/2-z
1/2-x,1/2-y,-z
1/2+x,1/2-y,1/2+z
loop_
_atom_site_type_symbol
_atom_site_label
_atom_site_fract_x
_atom_site_fract_y
_atom_site_fract_z
Si Si1 0.557128 0.817653 0.733294
Si Si2 0.607853 0.156264 0.968031
Si Si3 0.729906 0.021652 0.194690
Si Si4 0.272954 0.350225 0.330394
Si Si5 0.057183 0.564655 0.762177
Si Si6 0.151307 0.560057 0.547934
Si Si7 0.809723 0.825223 0.560532
Si Si8 0.341029 0.203212 0.174439
O O1 0.500000 0.769101 0.750000
O O2 0.575768 0.825199 0.595478
O O3 0.603044 0.770483 0.793180
O O4 0.552811 0.938035 0.782590
O O5 0.575575 0.119517 0.871165
O O6 0.637521 0.265504 0.929482
O O7 0.643275 0.054006 0.988421
O O8 0.782882 0.075801 0.132549
O O9 0.686764 0.110787 0.239156
O O10 0.744675 0.955525 0.301096
O O11 0.701778 0.950160 0.109470
O O12 0.230562 0.267840 0.391752
O O13 0.310392 0.355229 0.425875
O O14 0.303374 0.301988 0.210373
O O15 0.101130 0.578150 0.648038
O O16 0.000000 0.602096 0.750000
O O17 0.155287 0.652550 0.452513
#
# Coordination Sequence:
#
# PCOD9262120 Si02
#       8
#     8   8   8   8   8   8   8   8
#     4  10  20  30  50  77 101 134 168 209 251 297
#     4  11  18  34  51  72 104 136 176 201 245 313
#     4  11  20  33  48  76 102 138 168 211 251 296
#     4  10  20  33  51  73 101 134 177 206 250 299
#     4  10  21  30  47  75 106 143 167 200 254 305
#     4  11  19  30  48  70 110 139 165 206 252 298
#     4  10  19  32  54  72  97 139 172 206 248 301
#     4  11  19  33  49  75 104 134 171 208 248 304
#
# _framework density 16.803668999999999
#
# number of rings (size 3 to 8) (size 9 to 14) (size 15 to 20)
#    0.000    1.500    5.000    3.750    1.750    2.000 
#    0.000    1.250    0.000    0.000    0.000    1.750 
#    0.000    0.000    0.000    0.000    0.000    0.000 
#
# Total GULP energy -178273.928122 kJ/mol
# GULP energy per Si atom -5571.060254 kJ/mol
# Density = 1.676542 g / cm^3
# Si number density = 16.803669 Si / 1000 Ang^3
#
#
#
# Elastic Constant Matrix: (Units=GPa)
#
#
# Indices 1 2 3 4 5 6 
#
# 1 84.4728 22.9791 18.2040 0.0000 10.3517 0.0000
# 2 22.9791 26.9225 14.5806 0.0000 -0.0589 0.0000
# 3 18.2040 14.5806 40.9824 0.0000 13.2856 0.0000
# 4 0.0000 0.0000 0.0000 2.1770 0.0000 -3.6797
# 5 10.3517 -0.0589 13.2856 0.0000 22.7998 0.0000
# 6 0.0000 0.0000 0.0000 -3.6797 0.0000 11.6976
#
#
#
# Elastic Compliance Matrix: (Units=1/GPa)
#
#
# Indices 1 2 3 4 5 6 
#
# 1 0.016636 -0.014329 0.000208 0.000000 -0.007712 0.000000
# 2 -0.014329 0.061131 -0.021630 0.000000 0.019268 0.000000
# 3 0.000208 -0.021630 0.039517 0.000000 -0.023178 0.000000
# 4 0.000000 0.000000 0.000000 0.980902 0.000000 0.308565
# 5 -0.007712 0.019268 -0.023178 0.000000 0.060917 0.000000
# 6 0.000000 0.000000 0.000000 0.308565 0.000000 0.182554
#
#
# Mechanical properties :
#
#
# Convention : Reuss Voigt Hill
#
# Bulk Modulus (GPa) = 21.84260 29.32277 25.58269
# Shear Modulus (GPa) = 3.50037 13.77583 8.63810
#
# Velocity S-wave (km/s) = 1.44486 2.86634 2.26975
# Velocity P-wave (km/s) = 3.97623 5.33316 4.70388
#
# Compressibility (1/GPa) = 0.04578209
#
# Stress axis : x y z
#
# Youngs Moduli (GPa) = 60.10971 16.35840 25.30534
#
# Poissons Ratio (x) = 0.23440 -0.00527
# Poissons Ratio (y) = 0.86133 0.54736
# Poissons Ratio (z) = -0.01252 0.35383
#
# Static dielectric constant tensor:
#      x y z
#    x 1.594770 0.000000 -0.012850 
#    y 0.000000 1.551130 0.000000 
#    z -0.012850 0.000000 1.584170 
# 
# From -- ./inp_files/117597.got.cif
#   From: 2010.05.17/outbox.cif.g08.bks.cpg/sg15_59_cif.got.tgz:117597.got - 2010.06.03 18:47:42.
