data_PCOD9262076
_publ_section_title
;
Structure prediction by ZEFSAII (Michael W. Deem and Ramdas Pophale) SiO2 
 PCOD9262076
Probable space group: C 2/C
;
_chemical_formula_sum "Si O2"
_cell_formula_units_Z 40
_cell_length_a 18.039580
_cell_length_b 8.425406
_cell_length_c 11.881112
_cell_angle_alpha 90.000000
_cell_angle_beta 96.658854
_cell_angle_gamma 90.000000
_cell_volume 1793.637810
_symmetry_space_group_name_H-M "C 2/C"
_symmetry_group_IT_number 15
_symmetry_cell_setting 'monoclinic'
loop_
_space_group_symop_operation_xyz
x,y,z
-x,y,1/2-z
-x,-y,-z
x,-y,1/2+z
1/2+x,1/2+y,z
1/2-x,1/2+y,1/2-z
1/2-x,1/2-y,-z
1/2+x,1/2-y,1/2+z
loop_
_atom_site_type_symbol
_atom_site_label
_atom_site_fract_x
_atom_site_fract_y
_atom_site_fract_z
Si Si1 0.700542 0.732656 0.344763
Si Si2 0.782768 0.597472 0.858782
Si Si3 0.643605 0.256621 0.444078
Si Si4 0.506669 0.590907 0.625217
Si Si5 0.346005 0.596252 0.948748
O O1 0.746771 0.571893 0.327197
O O2 0.670295 0.823527 0.232136
O O3 0.641476 0.679588 0.427868
O O4 0.763688 0.850585 0.402210
O O5 0.709440 0.707770 0.867347
O O6 0.833089 0.604450 0.979593
O O7 0.559316 0.278456 0.387971
O O8 0.653145 0.408569 0.530010
O O9 0.500000 0.513182 0.750000
O O10 0.500000 0.500000 0.500000
O O11 0.591947 0.646901 0.628766
#
# Coordination Sequence:
#
# PCOD9262076 Si02
#       5
#     8   8   8   8   8
#     4  10  19  33  54  80 111 144 184 230 281 331
#     4  10  19  32  53  79 106 141 182 229 277 331
#     4   9  19  34  54  78 105 141 187 228 274 329
#     4  10  20  35  57  83 112 146 185 230 279 332
#     4   9  19  34  53  78 106 142 184 230 273 325
#
# _framework density 22.301047000000001
#
# number of rings (size 3 to 8) (size 9 to 14) (size 15 to 20)
#    0.000    2.400    0.000    2.400    0.000    9.600 
#    0.000    1.000    0.000    2.400    0.000    1.400 
#    0.000    0.000    0.000    0.000    0.000    0.000 
#
# Total GULP energy -111367.803316 kJ/mol
# GULP energy per Si atom -5568.390166 kJ/mol
# Density = 2.225029 g / cm^3
# Si number density = 22.301047 Si / 1000 Ang^3
#
#
#
# Elastic Constant Matrix: (Units=GPa)
#
#
# Indices 1 2 3 4 5 6 
#
# 1 83.2514 1.1145 22.5211 0.0000 -18.7460 0.0000
# 2 1.1145 44.7586 19.2827 0.0000 -7.3165 0.0000
# 3 22.5211 19.2827 110.7260 0.0000 -19.9694 0.0000
# 4 0.0000 0.0000 0.0000 29.2254 0.0000 1.0614
# 5 -18.7460 -7.3165 -19.9694 0.0000 35.0179 0.0000
# 6 0.0000 0.0000 0.0000 1.0614 0.0000 13.6760
#
#
#
# Elastic Compliance Matrix: (Units=1/GPa)
#
#
# Indices 1 2 3 4 5 6 
#
# 1 0.014027 0.001577 -0.001910 0.000000 0.006749 0.000000
# 2 0.001577 0.024608 -0.003931 0.000000 0.003744 0.000000
# 3 -0.001910 -0.003931 0.010892 0.000000 0.004367 0.000000
# 4 0.000000 0.000000 0.000000 0.034313 0.000000 -0.002663
# 5 0.006749 0.003744 0.004367 0.000000 0.035443 0.000000
# 6 0.000000 0.000000 0.000000 -0.002663 0.000000 0.073328
#
#
# Mechanical properties :
#
#
# Convention : Reuss Voigt Hill
#
# Bulk Modulus (GPa) = 24.39098 36.06363 30.22730
# Shear Modulus (GPa) = 23.27676 28.63838 25.95757
#
# Velocity S-wave (km/s) = 3.23422 3.58742 3.41539
# Velocity P-wave (km/s) = 4.99077 5.77632 5.39785
#
# Compressibility (1/GPa) = 0.04099877
#
# Stress axis : x y z
#
# Youngs Moduli (GPa) = 71.28979 40.63660 91.80967
#
# Poissons Ratio (x) = -0.06409 0.17540
# Poissons Ratio (y) = -0.11243 0.36090
# Poissons Ratio (z) = 0.13620 0.15974
#
# Static dielectric constant tensor:
#      x y z
#    x 1.856560 0.000000 0.019320 
#    y 0.000000 1.837530 0.000000 
#    z 0.019320 0.000000 2.067850 
# 
# From -- ./inp_files/103322.got.cif
#   From: 2010.05.17/outbox.cif.g08.bks.cpg/sg15_52_cif.got.tgz:103322.got - 2010.06.03 18:47:42.
