data_PCOD9262718
_publ_section_title
;
Structure prediction by ZEFSAII (Michael W. Deem and Ramdas Pophale) SiO2 
 PCOD9262718
Probable space group: C 2/C
;
_chemical_formula_sum "Si O2"
_cell_formula_units_Z 64
_cell_length_a 9.151263
_cell_length_b 21.397425
_cell_length_c 19.423280
_cell_angle_alpha 90.000000
_cell_angle_beta 87.651950
_cell_angle_gamma 90.000000
_cell_volume 3800.146403
_symmetry_space_group_name_H-M "C 2/C"
_symmetry_group_IT_number 15
_symmetry_cell_setting 'monoclinic'
loop_
_space_group_symop_operation_xyz
x,y,z
-x,y,1/2-z
-x,-y,-z
x,-y,1/2+z
1/2+x,1/2+y,z
1/2-x,1/2+y,1/2-z
1/2-x,1/2-y,-z
1/2+x,1/2-y,1/2+z
loop_
_atom_site_type_symbol
_atom_site_label
_atom_site_fract_x
_atom_site_fract_y
_atom_site_fract_z
Si Si1 0.893654 0.277976 0.379075
Si Si2 0.024990 0.672483 0.471222
Si Si3 0.357525 0.352537 0.932810
Si Si4 0.593766 0.053979 0.964252
Si Si5 0.940187 0.801735 0.083494
Si Si6 0.410574 0.495308 0.930893
Si Si7 0.914599 0.098773 0.822857
Si Si8 0.433976 0.109653 0.681061
O O1 0.906676 0.202850 0.380334
O O2 0.720534 0.293565 0.379015
O O3 0.939500 0.298900 0.454817
O O4 0.993628 0.321345 0.329193
O O5 0.914804 0.615801 0.487504
O O6 0.180629 0.647777 0.440502
O O7 0.987316 0.733443 0.427534
O O8 0.404266 0.422116 0.913688
O O9 0.412895 0.333058 0.008699
O O10 0.529434 0.073577 0.890802
O O11 0.753511 0.026019 0.950629
O O12 0.500000 0.000000 0.000000
O O13 0.037987 0.845320 0.128135
O O14 0.459048 0.536558 0.864739
O O15 0.500000 0.500000 0.000000
O O16 0.741475 0.106243 0.812714
O O17 0.000000 0.101317 0.750000
O O18 0.500000 0.082379 0.750000
#
# Coordination Sequence:
#
# PCOD9262718 Si02
#       8
#     8   8   8   8   8   8   8   8
#     4   8  16  30  53  79  98 133 173 213 257 309
#     4   8  15  29  52  80 102 132 172 210 260 304
#     4   9  15  30  53  78 108 135 169 209 265 319
#     4  10  19  33  55  82 109 138 182 226 258 319
#     4   9  16  31  54  76 104 136 168 215 264 315
#     4  11  21  33  51  81 113 144 178 218 272 323
#     4  11  23  36  52  76 106 144 182 222 272 324
#     4  10  21  36  53  79 103 139 185 222 271 324
#
# _framework density 16.841456999999998
#
# number of rings (size 3 to 8) (size 9 to 14) (size 15 to 20)
#    0.000    2.500    2.500    2.250    0.000    1.000 
#    2.250    3.125    0.000    0.750    3.250    0.000 
#    0.000    0.000    0.000    0.000    0.000    0.000 
#
# Total GULP energy -178145.330493 kJ/mol
# GULP energy per Si atom -5567.041578 kJ/mol
# Density = 1.680313 g / cm^3
# Si number density = 16.841457 Si / 1000 Ang^3
#
#
#
# Elastic Constant Matrix: (Units=GPa)
#
#
# Indices 1 2 3 4 5 6 
#
# 1 40.2317 27.4999 31.8493 0.0000 10.2858 0.0000
# 2 27.4999 124.5289 37.3588 0.0000 5.9511 0.0000
# 3 31.8493 37.3588 81.3307 0.0000 4.1532 0.0000
# 4 0.0000 0.0000 0.0000 13.3304 0.0000 2.4758
# 5 10.2858 5.9511 4.1532 0.0000 23.9596 0.0000
# 6 0.0000 0.0000 0.0000 2.4758 0.0000 22.8871
#
#
#
# Elastic Compliance Matrix: (Units=1/GPa)
#
#
# Indices 1 2 3 4 5 6 
#
# 1 0.042763 -0.004568 -0.013891 0.000000 -0.014816 0.000000
# 2 -0.004568 0.009862 -0.002740 0.000000 -0.000013 0.000000
# 3 -0.013891 -0.002740 0.018821 0.000000 0.003382 0.000000
# 4 0.000000 0.000000 0.000000 0.076555 0.000000 -0.008281
# 5 -0.014816 -0.000013 0.003382 0.000000 0.047514 0.000000
# 6 0.000000 0.000000 0.000000 -0.008281 0.000000 0.044589
#
#
# Mechanical properties :
#
#
# Convention : Reuss Voigt Hill
#
# Bulk Modulus (GPa) = 34.42698 48.83414 41.63056
# Shear Modulus (GPa) = 17.11239 21.99431 19.55335
#
# Velocity S-wave (km/s) = 3.19107 3.61773 3.41108
# Velocity P-wave (km/s) = 5.83639 6.81982 6.34718
#
# Compressibility (1/GPa) = 0.02904698
#
# Stress axis : x y z
#
# Youngs Moduli (GPa) = 23.38452 101.40135 53.13082
#
# Poissons Ratio (x) = 0.46321 0.73806
# Poissons Ratio (y) = 0.10682 0.14560
# Poissons Ratio (z) = 0.32484 0.27788
#
# Static dielectric constant tensor:
#      x y z
#    x 1.591270 0.000000 -0.016130 
#    y 0.000000 1.606910 0.000000 
#    z -0.016130 0.000000 1.564260 
# 
# From -- ./inp_files/233508.got.cif
#   From: 2010.05.17/outbox.cif.g08.bks.cpg/sg15_117_cif.got.tgz:233508.got - 2010.06.03 18:47:42.
