data_PCOD9262471
_publ_section_title
;
Structure prediction by ZEFSAII (Michael W. Deem and Ramdas Pophale) SiO2 
 PCOD9262471
Probable space group: C 2/C
;
_chemical_formula_sum "Si O2"
_cell_formula_units_Z 56
_cell_length_a 16.576532
_cell_length_b 5.855944
_cell_length_c 24.762482
_cell_angle_alpha 90.000000
_cell_angle_beta 104.437742
_cell_angle_gamma 90.000000
_cell_volume 2327.813195
_symmetry_space_group_name_H-M "C 2/C"
_symmetry_group_IT_number 15
_symmetry_cell_setting 'monoclinic'
loop_
_space_group_symop_operation_xyz
x,y,z
-x,y,1/2-z
-x,-y,-z
x,-y,1/2+z
1/2+x,1/2+y,z
1/2-x,1/2+y,1/2-z
1/2-x,1/2-y,-z
1/2+x,1/2-y,1/2+z
loop_
_atom_site_type_symbol
_atom_site_label
_atom_site_fract_x
_atom_site_fract_y
_atom_site_fract_z
Si Si1 0.383472 0.551306 0.934804
Si Si2 0.239458 0.790567 0.436002
Si Si3 0.862863 0.426840 0.742744
Si Si4 0.321426 0.573173 0.260232
Si Si5 0.470991 0.807865 0.038772
Si Si6 0.102141 0.478035 0.867940
Si Si7 0.743314 0.196793 0.133619
O O1 0.305839 0.383284 0.923157
O O2 0.463096 0.393846 0.940319
O O3 0.351908 0.711581 0.881101
O O4 0.396430 0.682657 0.993756
O O5 0.250000 0.750000 0.500000
O O6 0.146320 0.743573 0.400409
O O7 0.264847 0.030587 0.418306
O O8 0.760400 0.432116 0.714397
O O9 0.870053 0.681670 0.771962
O O10 0.919589 0.430456 0.698030
O O11 0.870173 0.168903 0.768264
O O12 0.274566 0.581044 0.193809
O O13 0.453618 0.922560 0.093583
O O14 0.500000 0.000000 0.000000
O O15 0.177603 0.654091 0.871133
#
# Coordination Sequence:
#
# PCOD9262471 Si02
#       7
#     8   8   8   8   8   8   8
#     4  10  22  35  50  74 106 146 194 220 283 336
#     4  11  19  31  52  77 106 139 176 231 281 338
#     4   9  17  32  51  85 115 144 172 232 290 354
#     4   9  17  31  54  81 121 138 175 225 303 344
#     4  11  22  38  51  72 108 154 190 236 273 342
#     4  10  20  32  52  80 110 139 188 230 288 336
#     4  10  19  33  52  81 109 140 178 239 286 349
#
# _framework density 24.056910999999999
#
# number of rings (size 3 to 8) (size 9 to 14) (size 15 to 20)
#    0.000    2.000    1.429    3.429    0.000    3.429 
#    0.000    0.000    0.000    0.000    0.000    6.000 
#    0.000    0.000    0.000    0.000    0.000    0.000 
#
# Total GULP energy -155889.658552 kJ/mol
# GULP energy per Si atom -5567.487805 kJ/mol
# Density = 2.400216 g / cm^3
# Si number density = 24.056911 Si / 1000 Ang^3
#
#
#
# Elastic Constant Matrix: (Units=GPa)
#
#
# Indices 1 2 3 4 5 6 
#
# 1 27.0734 12.8575 37.0837 0.0000 -8.3187 0.0000
# 2 12.8575 123.7509 28.2342 0.0000 -7.7839 0.0000
# 3 37.0837 28.2342 117.0223 0.0000 -24.3371 0.0000
# 4 0.0000 0.0000 0.0000 22.7554 0.0000 -1.7457
# 5 -8.3187 -7.7839 -24.3371 0.0000 38.2889 0.0000
# 6 0.0000 0.0000 0.0000 -1.7457 0.0000 20.4787
#
#
#
# Elastic Compliance Matrix: (Units=1/GPa)
#
#
# Indices 1 2 3 4 5 6 
#
# 1 0.065867 -0.002185 -0.020122 0.000000 0.001076 0.000000
# 2 -0.002185 0.008632 -0.001295 0.000000 0.000457 0.000000
# 3 -0.020122 -0.001295 0.016444 0.000000 0.005817 0.000000
# 4 0.000000 0.000000 0.000000 0.044235 0.000000 0.003771
# 5 0.001076 0.000457 0.005817 0.000000 0.030142 0.000000
# 6 0.000000 0.000000 0.000000 0.003771 0.000000 0.049153
#
#
# Mechanical properties :
#
#
# Convention : Reuss Voigt Hill
#
# Bulk Modulus (GPa) = 22.86286 47.13304 34.99795
# Shear Modulus (GPa) = 18.09917 28.94934 23.52425
#
# Velocity S-wave (km/s) = 2.74587 3.47272 3.13047
# Velocity P-wave (km/s) = 4.42463 5.97617 5.25794
#
# Compressibility (1/GPa) = 0.04373905
#
# Stress axis : x y z
#
# Youngs Moduli (GPa) = 15.18215 115.84784 60.81172
#
# Poissons Ratio (x) = 0.25311 1.22364
# Poissons Ratio (y) = 0.03317 0.07877
# Poissons Ratio (z) = 0.30549 0.15005
#
# Static dielectric constant tensor:
#      x y z
#    x 1.903520 0.000000 0.027330 
#    y 0.000000 2.317020 0.000000 
#    z 0.027330 0.000000 1.988580 
# 
# From -- ./inp_files/312364.got.cif
#   From: 2010.05.17/outbox.cif.g08.bks.cpg/sg15_157_cif.got.tgz:312364.got - 2010.06.03 18:47:42.
