data_PCOD9262243
_publ_section_title
;
Structure prediction by ZEFSAII (Michael W. Deem and Ramdas Pophale) SiO2 
 PCOD9262243
Probable space group: C 2/C
;
_chemical_formula_sum "Si O2"
_cell_formula_units_Z 44
_cell_length_a 17.058875
_cell_length_b 29.250151
_cell_length_c 7.213531
_cell_angle_alpha 90.000000
_cell_angle_beta 36.206899
_cell_angle_gamma 90.000000
_cell_volume 2126.157600
_symmetry_space_group_name_H-M "C 2/C"
_symmetry_group_IT_number 15
_symmetry_cell_setting 'monoclinic'
loop_
_space_group_symop_operation_xyz
x,y,z
-x,y,1/2-z
-x,-y,-z
x,-y,1/2+z
1/2+x,1/2+y,z
1/2-x,1/2+y,1/2-z
1/2-x,1/2-y,-z
1/2+x,1/2-y,1/2+z
loop_
_atom_site_type_symbol
_atom_site_label
_atom_site_fract_x
_atom_site_fract_y
_atom_site_fract_z
Si Si1 0.846878 0.799393 0.496112
Si Si2 0.500000 0.847852 0.750000
Si Si3 0.879977 0.433891 0.783186
Si Si4 0.500000 0.993733 0.250000
Si Si5 0.735243 0.709485 0.783217
Si Si6 0.111760 0.100762 0.666566
Si Si7 0.000000 0.852272 0.750000
O O1 0.755156 0.763415 0.780257
O O2 0.808228 0.793416 0.352357
O O3 0.838076 0.853649 0.538570
O O4 0.000000 0.787406 0.250000
O O5 0.434617 0.883852 0.730461
O O6 0.624219 0.816147 0.455406
O O7 0.979053 0.459202 0.456962
O O8 0.880103 0.469969 0.952357
O O9 0.737277 0.429785 0.967015
O O10 0.617156 0.680941 0.101363
O O11 0.000000 0.079614 0.750000
O O12 0.054016 0.118046 0.975002
#
# Coordination Sequence:
#
# PCOD9262243 Si02
#       7
#     8   4   8   4   8   8   4
#     4   9  17  33  55  78 123 165 206 255 292 341
#     4  11  18  34  64  86 117 167 204 246 306 371
#     4  10  20  41  62  93 118 153 203 258 324 369
#     4   9  22  40  69  86 120 148 196 277 318 383
#     4  10  19  32  56  86 116 170 211 246 304 350
#     4  10  21  39  62  89 127 171 205 255 308 377
#     4  10  20  38  57  90 125 171 208 249 316 356
#
# _framework density 20.694610999999998
#
# number of rings (size 3 to 8) (size 9 to 14) (size 15 to 20)
#    0.000    2.182    4.545    0.000    0.000    1.455 
#    3.273   10.000    0.000    0.000    0.000    0.000 
#    0.000    0.000    0.000    0.000    0.000    0.000 
#
# Total GULP energy -122523.248047 kJ/mol
# GULP energy per Si atom -5569.238548 kJ/mol
# Density = 2.064751 g / cm^3
# Si number density = 20.694611 Si / 1000 Ang^3
#
#
#
# Elastic Constant Matrix: (Units=GPa)
#
#
# Indices 1 2 3 4 5 6 
#
# 1 92.3586 17.0790 18.9029 0.0000 -27.4835 0.0000
# 2 17.0790 64.2263 17.9025 0.0000 -7.2521 0.0000
# 3 18.9029 17.9025 54.4435 0.0000 -20.4966 0.0000
# 4 0.0000 0.0000 0.0000 1049.0853 0.0000 1705.8499
# 5 -27.4835 -7.2521 -20.4966 0.0000 43.4416 0.0000
# 6 0.0000 0.0000 0.0000 1705.8499 0.0000 2860.1577
#
#
#
# Elastic Compliance Matrix: (Units=1/GPa)
#
#
# Indices 1 2 3 4 5 6 
#
# 1 0.013837 -0.002508 -0.001023 0.000000 0.007853 0.000000
# 2 -0.002508 0.017598 -0.005359 0.000000 -0.001177 0.000000
# 3 -0.001023 -0.005359 0.024204 0.000000 0.009878 0.000000
# 4 0.000000 0.000000 0.000000 0.031560 0.000000 -0.018823
# 5 0.007853 -0.001177 0.009878 0.000000 0.032452 0.000000
# 6 0.000000 0.000000 0.000000 -0.018823 0.000000 0.011576
#
#
# Mechanical properties :
#
#
# Convention : Reuss Voigt Hill
#
# Bulk Modulus (GPa) = 26.41412 35.42191 30.91802
# Shear Modulus (GPa) = 30.93549 801.01317 415.97433
#
# Velocity S-wave (km/s) = 3.87053 19.69528 14.19304
# Velocity P-wave (km/s) = 5.72417 23.11620 16.83932
#
# Compressibility (1/GPa) = 0.03785854
#
# Stress axis : x y z
#
# Youngs Moduli (GPa) = 72.26840 56.82576 41.31556
#
# Poissons Ratio (x) = 0.14250 0.04228
# Poissons Ratio (y) = 0.18122 0.22142
# Poissons Ratio (z) = 0.07396 0.30454
#
# Static dielectric constant tensor:
#      x y z
#    x 1.971230 0.000000 0.068120 
#    y 0.000000 1.724530 0.000000 
#    z 0.068120 0.000000 1.754740 
# 
# From -- ./inp_files/52600.got.cif
#   From: 2010.05.17/outbox.cif.g08.bks.cpg/sg15_27_cif.got.tgz:52600.got - 2010.06.03 18:47:42.
