data_PCOD9262497
_publ_section_title
;
Structure prediction by ZEFSAII (Michael W. Deem and Ramdas Pophale) SiO2 
 PCOD9262497
Probable space group: C 2/C
;
_chemical_formula_sum "Si O2"
_cell_formula_units_Z 56
_cell_length_a 27.520985
_cell_length_b 15.995662
_cell_length_c 14.666688
_cell_angle_alpha 90.000000
_cell_angle_beta 26.648527
_cell_angle_gamma 90.000000
_cell_volume 2895.852350
_symmetry_space_group_name_H-M "C 2/C"
_symmetry_group_IT_number 15
_symmetry_cell_setting 'monoclinic'
loop_
_space_group_symop_operation_xyz
x,y,z
-x,y,1/2-z
-x,-y,-z
x,-y,1/2+z
1/2+x,1/2+y,z
1/2-x,1/2+y,1/2-z
1/2-x,1/2-y,-z
1/2+x,1/2-y,1/2+z
loop_
_atom_site_type_symbol
_atom_site_label
_atom_site_fract_x
_atom_site_fract_y
_atom_site_fract_z
Si Si1 0.692165 0.004712 0.397931
Si Si2 0.097975 0.640974 0.160090
Si Si3 0.718795 0.355157 0.494659
Si Si4 0.243999 0.684000 0.366115
Si Si5 0.061671 0.574391 0.945375
Si Si6 0.371962 0.509920 0.958168
Si Si7 0.630773 0.308039 0.031439
O O1 0.666341 0.942183 0.524035
O O2 0.620569 0.969860 0.433606
O O3 0.674900 0.101677 0.453584
O O4 0.813484 0.997265 0.154089
O O5 0.162205 0.726007 0.034960
O O6 0.000000 0.640888 0.250000
O O7 0.032543 0.636169 0.362916
O O8 0.698471 0.340594 0.635253
O O9 0.689872 0.272283 0.484756
O O10 0.846406 0.376364 0.264284
O O11 0.660744 0.436172 0.553451
O O12 0.323247 0.700394 0.148044
O O13 0.000000 0.500000 0.000000
O O14 0.500000 0.511277 0.750000
O O15 0.331676 0.601944 0.994863
O O16 0.500000 0.311216 0.250000
#
# Coordination Sequence:
#
# PCOD9262497 Si02
#       7
#     8   8   8   8   8   8   8
#     4   9  18  32  52  77 105 137 174 217 262 313
#     4   9  16  29  53  78 100 131 170 212 259 310
#     4  10  20  34  52  76 106 138 174 219 268 320
#     4  10  19  33  53  74 102 140 177 216 264 318
#     4  10  19  33  56  82 109 136 171 224 279 324
#     4   9  18  33  51  72 102 140 175 215 260 311
#     4   9  16  30  52  73  95 131 176 210 250 309
#
# _framework density 19.338003
#
# number of rings (size 3 to 8) (size 9 to 14) (size 15 to 20)
#    0.000    2.571    0.000    4.286    0.000    0.000 
#    0.000   11.429    0.000   18.857    0.000    0.000 
#    0.000    1.143    0.000    0.000    0.000    0.000 
#
# Total GULP energy -155898.360749 kJ/mol
# GULP energy per Si atom -5567.798598 kJ/mol
# Density = 1.929399 g / cm^3
# Si number density = 19.338003 Si / 1000 Ang^3
#
#
#
# Elastic Constant Matrix: (Units=GPa)
#
#
# Indices 1 2 3 4 5 6 
#
# 1 20.2175 21.8641 19.5347 0.0000 13.7076 0.0000
# 2 21.8641 143.9695 43.4343 0.0000 9.7272 0.0000
# 3 19.5347 43.4343 82.9907 0.0000 7.8977 0.0000
# 4 0.0000 0.0000 0.0000 26.9786 0.0000 -2.0317
# 5 13.7076 9.7272 7.8977 0.0000 16.6827 0.0000
# 6 0.0000 0.0000 0.0000 -2.0317 0.0000 18.1062
#
#
#
# Elastic Compliance Matrix: (Units=1/GPa)
#
#
# Indices 1 2 3 4 5 6 
#
# 1 0.157778 -0.009895 -0.021124 0.000000 -0.113871 0.000000
# 2 -0.009895 0.009005 -0.002783 0.000000 0.004197 0.000000
# 3 -0.021124 -0.002783 0.017459 0.000000 0.010714 0.000000
# 4 0.000000 0.000000 0.000000 0.037382 0.000000 0.004195
# 5 -0.113871 0.004197 0.010714 0.000000 0.145987 0.000000
# 6 0.000000 0.000000 0.000000 0.004195 0.000000 0.055700
#
#
# Mechanical properties :
#
#
# Convention : Reuss Voigt Hill
#
# Bulk Modulus (GPa) = 8.57351 46.31601 27.44476
# Shear Modulus (GPa) = 9.43765 23.17646 16.30705
#
# Velocity S-wave (km/s) = 2.21155 3.46568 2.90705
# Velocity P-wave (km/s) = 3.31126 6.32593 5.04885
#
# Compressibility (1/GPa) = 0.11663832
#
# Stress axis : x y z
#
# Youngs Moduli (GPa) = 6.33803 111.05422 57.27811
#
# Poissons Ratio (x) = 1.09884 1.20992
# Poissons Ratio (y) = 0.06271 0.15941
# Poissons Ratio (z) = 0.13388 0.30907
#
# Static dielectric constant tensor:
#      x y z
#    x 1.672080 0.000000 0.015320 
#    y 0.000000 1.744230 0.000000 
#    z 0.015320 0.000000 1.704400 
# 
# From -- ./inp_files/182118.got.cif
#   From: 2010.05.17/outbox.cif.g08.bks.cpg/sg15_92_cif.got.tgz:182118.got - 2010.06.03 18:47:42.
