data_PCOD9262292
_publ_section_title
;
Structure prediction by ZEFSAII (Michael W. Deem and Ramdas Pophale) SiO2 
 PCOD9262292
Probable space group: C 2/C
;
_chemical_formula_sum "Si O2"
_cell_formula_units_Z 56
_cell_length_a 16.695212
_cell_length_b 10.481006
_cell_length_c 13.754810
_cell_angle_alpha 90.000000
_cell_angle_beta 63.543936
_cell_angle_gamma 90.000000
_cell_volume 2154.798030
_symmetry_space_group_name_H-M "C 2/C"
_symmetry_group_IT_number 15
_symmetry_cell_setting 'monoclinic'
loop_
_space_group_symop_operation_xyz
x,y,z
-x,y,1/2-z
-x,-y,-z
x,-y,1/2+z
1/2+x,1/2+y,z
1/2-x,1/2+y,1/2-z
1/2-x,1/2-y,-z
1/2+x,1/2-y,1/2+z
loop_
_atom_site_type_symbol
_atom_site_label
_atom_site_fract_x
_atom_site_fract_y
_atom_site_fract_z
Si Si1 0.808406 0.910827 0.905943
Si Si2 0.642462 0.019348 0.800957
Si Si3 0.703153 0.434216 0.909122
Si Si4 0.484386 0.664164 0.923208
Si Si5 0.500000 0.453217 0.750000
Si Si6 0.263424 0.318338 0.334462
Si Si7 0.000000 0.383489 0.750000
Si Si8 0.142856 0.717572 0.405627
O O1 0.908511 0.876555 0.819297
O O2 0.793022 0.055646 0.874292
O O3 0.733452 0.813164 0.912707
O O4 0.794257 0.940487 0.026737
O O5 0.744224 0.974821 0.716318
O O6 0.578120 0.979112 0.747347
O O7 0.609994 0.927900 0.904792
O O8 0.667287 0.154738 0.833753
O O9 0.758177 0.306438 0.903643
O O10 0.603096 0.385951 0.975015
O O11 0.511568 0.548115 0.836351
O O12 0.473433 0.786341 0.853927
O O13 0.554227 0.701785 0.970371
O O14 0.330484 0.277367 0.213210
#
# Coordination Sequence:
#
# PCOD9262292 Si02
#       8
#     8   8   8   8   4   8   4   8
#     4  10  19  32  58  88 112 151 201 251 281 343
#     4   9  20  35  52  79 112 152 193 239 298 351
#     4  10  21  33  58  88 111 148 206 248 286 350
#     4   9  17  31  55  84 113 150 193 245 292 339
#     4   9  16  30  55  84 116 152 201 242 285 340
#     4  10  19  36  56  77 113 156 191 236 303 353
#     4   9  18  32  51  80 118 148 185 244 295 348
#     4   9  18  35  54  79 116 154 188 242 303 346
#
# _framework density 25.988515
#
# number of rings (size 3 to 8) (size 9 to 14) (size 15 to 20)
#    0.000    2.571    1.429    0.429    8.000    0.000 
#    2.571    4.286    3.143    0.000    0.000    0.000 
#    0.000    0.000    0.000    0.000    0.000    0.000 
#
# Total GULP energy -156110.758422 kJ/mol
# GULP energy per Si atom -5575.384229 kJ/mol
# Density = 2.592936 g / cm^3
# Si number density = 25.988515 Si / 1000 Ang^3
#
#
#
# Elastic Constant Matrix: (Units=GPa)
#
#
# Indices 1 2 3 4 5 6 
#
# 1 150.7609 31.4963 24.8642 0.0000 -14.6867 0.0000
# 2 31.4963 74.8266 19.0532 0.0000 -7.2594 0.0000
# 3 24.8642 19.0532 46.3520 0.0000 -8.6825 0.0000
# 4 0.0000 0.0000 0.0000 12.8316 0.0000 15.1958
# 5 -14.6867 -7.2594 -8.6825 0.0000 19.7475 0.0000
# 6 0.0000 0.0000 0.0000 15.1958 0.0000 51.1542
#
#
#
# Elastic Compliance Matrix: (Units=1/GPa)
#
#
# Indices 1 2 3 4 5 6 
#
# 1 0.007918 -0.002299 -0.002569 0.000000 0.003914 0.000000
# 2 -0.002299 0.015763 -0.004883 0.000000 0.001938 0.000000
# 3 -0.002569 -0.004883 0.026443 0.000000 0.007920 0.000000
# 4 0.000000 0.000000 0.000000 0.120228 0.000000 -0.035715
# 5 0.003914 0.001938 0.007920 0.000000 0.057745 0.000000
# 6 0.000000 0.000000 0.000000 -0.035715 0.000000 0.030158
#
#
# Mechanical properties :
#
#
# Convention : Reuss Voigt Hill
#
# Bulk Modulus (GPa) = 32.65677 46.97409 39.81543
# Shear Modulus (GPa) = 17.36311 29.84837 23.60574
#
# Velocity S-wave (km/s) = 2.58758 3.39266 3.01709
# Velocity P-wave (km/s) = 4.63903 5.78455 5.24317
#
# Compressibility (1/GPa) = 0.03062152
#
# Stress axis : x y z
#
# Youngs Moduli (GPa) = 126.28816 63.43801 37.81683
#
# Poissons Ratio (x) = 0.14585 0.09716
# Poissons Ratio (y) = 0.29034 0.18467
# Poissons Ratio (z) = 0.32448 0.30979
#
# Static dielectric constant tensor:
#      x y z
#    x 2.199750 0.000000 0.058350 
#    y 0.000000 2.068770 0.000000 
#    z 0.058350 0.000000 2.053740 
# 
# From -- ./inp_files/160858.got.cif
#   From: 2010.05.17/outbox.cif.g08.bks.cpg/sg15_81_cif.got.tgz:160858.got - 2010.06.03 18:47:42.
