data_PCOD9262277
_publ_section_title
;
Structure prediction by ZEFSAII (Michael W. Deem and Ramdas Pophale) SiO2 
 PCOD9262277
Probable space group: C 2/C
;
_chemical_formula_sum "Si O2"
_cell_formula_units_Z 48
_cell_length_a 32.308640
_cell_length_b 9.487029
_cell_length_c 11.202519
_cell_angle_alpha 90.000000
_cell_angle_beta 145.126751
_cell_angle_gamma 90.000000
_cell_volume 1963.272382
_symmetry_space_group_name_H-M "C 2/C"
_symmetry_group_IT_number 15
_symmetry_cell_setting 'monoclinic'
loop_
_space_group_symop_operation_xyz
x,y,z
-x,y,1/2-z
-x,-y,-z
x,-y,1/2+z
1/2+x,1/2+y,z
1/2-x,1/2+y,1/2-z
1/2-x,1/2-y,-z
1/2+x,1/2-y,1/2+z
loop_
_atom_site_type_symbol
_atom_site_label
_atom_site_fract_x
_atom_site_fract_y
_atom_site_fract_z
Si Si1 0.678528 0.714659 0.710748
Si Si2 0.193748 0.048027 0.384648
Si Si3 0.570424 0.455180 0.779827
Si Si4 0.549562 0.210650 0.255885
Si Si5 0.293137 0.778092 0.289468
Si Si6 0.966114 0.694392 0.545508
O O1 0.712594 0.607580 0.885692
O O2 0.625727 0.612390 0.506284
O O3 0.737426 0.772583 0.759103
O O4 0.619810 0.811148 0.636278
O O5 0.115906 0.052628 0.264718
O O6 0.252401 0.103667 0.616861
O O7 0.192473 0.152993 0.269593
O O8 0.552052 0.617740 0.756855
O O9 0.501643 0.352122 0.621876
O O10 0.500000 0.172468 0.250000
O O11 0.632522 0.169524 0.477597
O O12 0.522396 0.149924 0.065018
O O13 0.000000 0.636243 0.750000
#
# Coordination Sequence:
#
# PCOD9262277 Si02
#       6
#     8   8   8   8   8   8
#     4  10  19  35  55  82 123 159 196 235 299 358
#     4  10  19  38  55  81 128 160 196 247 300 360
#     4  10  19  32  57  88 118 159 178 241 319 370
#     4  12  21  34  58  89 123 151 206 247 299 366
#     4  10  23  34  55  87 115 164 205 242 295 364
#     4  10  21  33  53  88 123 158 179 236 318 376
#
# _framework density 24.448975000000001
#
# number of rings (size 3 to 8) (size 9 to 14) (size 15 to 20)
#    0.000    1.667    3.333    3.000    0.000    2.000 
#    0.000    0.000    0.000    1.000    0.000    8.167 
#    0.000    0.000    0.000    0.000    0.000    0.000 
#
# Total GULP energy -134281.101721 kJ/mol
# GULP energy per Si atom -5595.045905 kJ/mol
# Density = 2.439333 g / cm^3
# Si number density = 24.448975 Si / 1000 Ang^3
#
#
#
# Elastic Constant Matrix: (Units=GPa)
#
#
# Indices 1 2 3 4 5 6 
#
# 1 243.3137 37.6038 55.7958 0.0000 1.7417 0.0000
# 2 37.6038 61.2276 17.2824 0.0000 4.6957 0.0000
# 3 55.7958 17.2824 120.7273 0.0000 -11.8914 0.0000
# 4 0.0000 0.0000 0.0000 19.3086 0.0000 8.9100
# 5 1.7417 4.6957 -11.8914 0.0000 57.1204 0.0000
# 6 0.0000 0.0000 0.0000 8.9100 0.0000 -23.2012
#
#
#
# Elastic Compliance Matrix: (Units=1/GPa)
#
#
# Indices 1 2 3 4 5 6 
#
# 1 0.004943 -0.002453 -0.001969 0.000000 -0.000359 0.000000
# 2 -0.002453 0.018452 -0.001685 0.000000 -0.001793 0.000000
# 3 -0.001969 -0.001685 0.009652 0.000000 0.002208 0.000000
# 4 0.000000 0.000000 0.000000 0.043994 0.000000 0.016895
# 5 -0.000359 -0.001793 0.002208 0.000000 0.018125 0.000000
# 6 0.000000 0.000000 0.000000 0.016895 0.000000 -0.036613
#
#
# Mechanical properties :
#
#
# Convention : Reuss Voigt Hill
#
# Bulk Modulus (GPa) = 47.99675 71.84805 59.92240
# Shear Modulus (GPa) = 64.34275 31.61800 47.98038
#
# Velocity S-wave (km/s) = 5.13559 3.60004 4.43478
# Velocity P-wave (km/s) = 7.40539 6.83602 7.12639
#
# Compressibility (1/GPa) = 0.02083474
#
# Stress axis : x y z
#
# Youngs Moduli (GPa) = 202.30648 54.19535 103.60956
#
# Poissons Ratio (x) = 0.13292 0.20398
# Poissons Ratio (y) = 0.49617 0.17453
# Poissons Ratio (z) = 0.39829 0.09129
#
# Static dielectric constant tensor:
#      x y z
#    x 1.934500 0.000000 -0.055560 
#    y 0.000000 1.938880 0.000000 
#    z -0.055560 0.000000 2.007450 
# 
# From -- ./inp_files/103663.got.cif
#   From: 2010.05.17/outbox.cif.g08.bks.cpg/sg15_52_cif.got.tgz:103663.got - 2010.06.03 18:47:42.
