data_PCOD9262167
_publ_section_title
;
Structure prediction by ZEFSAII (Michael W. Deem and Ramdas Pophale) SiO2 
 PCOD9262167
Probable space group: C 2/C
;
_chemical_formula_sum "Si O2"
_cell_formula_units_Z 52
_cell_length_a 25.514798
_cell_length_b 9.812922
_cell_length_c 9.900457
_cell_angle_alpha 90.000000
_cell_angle_beta 51.673030
_cell_angle_gamma 90.000000
_cell_volume 1944.599253
_symmetry_space_group_name_H-M "C 2/C"
_symmetry_group_IT_number 15
_symmetry_cell_setting 'monoclinic'
loop_
_space_group_symop_operation_xyz
x,y,z
-x,y,1/2-z
-x,-y,-z
x,-y,1/2+z
1/2+x,1/2+y,z
1/2-x,1/2+y,1/2-z
1/2-x,1/2-y,-z
1/2+x,1/2-y,1/2+z
loop_
_atom_site_type_symbol
_atom_site_label
_atom_site_fract_x
_atom_site_fract_y
_atom_site_fract_z
Si Si1 0.907668 0.620878 0.862297
Si Si2 0.174256 0.834565 0.236587
Si Si3 0.197420 0.546132 0.087836
Si Si4 0.035350 0.863419 0.555488
Si Si5 0.915175 0.211664 0.081111
Si Si6 0.500000 0.103317 0.250000
Si Si7 0.723151 0.213064 0.690999
O O1 0.839506 0.535892 0.972592
O O2 0.938580 0.709779 0.935795
O O3 0.901250 0.728231 0.752764
O O4 0.957474 0.503126 0.730420
O O5 0.164291 0.692255 0.172371
O O6 0.107020 0.913194 0.386092
O O7 0.216320 0.793081 0.301590
O O8 0.225610 0.924403 0.068907
O O9 0.195383 0.440148 0.213705
O O10 0.000000 0.918058 0.750000
O O11 0.982753 0.867775 0.517211
O O12 0.837932 0.192103 0.159917
O O13 0.947773 0.311160 0.918832
O O14 0.750000 0.250000 0.500000
#
# Coordination Sequence:
#
# PCOD9262167 Si02
#       7
#     8   8   8   8   8   4   8
#     4  10  19  32  54  85 125 156 192 239 321 389
#     4  11  23  40  62  92 128 165 209 258 311 381
#     4  10  24  39  61  91 125 165 205 262 314 363
#     4  10  20  36  61  88 124 160 202 253 324 378
#     4  10  21  34  53  90 124 154 199 255 317 387
#     4  12  18  26  50  84 124 156 174 236 324 378
#     4  11  24  40  66  91 126 167 214 255 315 377
#
# _framework density 26.740728000000001
#
# number of rings (size 3 to 8) (size 9 to 14) (size 15 to 20)
#    0.000    1.538    2.308    5.077    8.615    1.231 
#    0.000    0.000    0.000    3.692    0.000    0.000 
#    0.000    0.000    0.000    0.000    0.000    0.000 
#
# Total GULP energy -145098.575247 kJ/mol
# GULP energy per Si atom -5580.714433 kJ/mol
# Density = 2.667987 g / cm^3
# Si number density = 26.740728 Si / 1000 Ang^3
#
#
#
# Elastic Constant Matrix: (Units=GPa)
#
#
# Indices 1 2 3 4 5 6 
#
# 1 114.4308 14.8358 11.0838 0.0000 -29.2863 0.0000
# 2 14.8358 67.5541 4.8940 0.0000 -8.0672 0.0000
# 3 11.0838 4.8940 122.3500 0.0000 -34.1772 0.0000
# 4 0.0000 0.0000 0.0000 19.5028 0.0000 -18.4336
# 5 -29.2863 -8.0672 -34.1772 0.0000 55.3674 0.0000
# 6 0.0000 0.0000 0.0000 -18.4336 0.0000 26.3243
#
#
#
# Elastic Compliance Matrix: (Units=1/GPa)
#
#
# Indices 1 2 3 4 5 6 
#
# 1 0.010333 -0.001644 0.000712 0.000000 0.005666 0.000000
# 2 -0.001644 0.015327 -0.000101 0.000000 0.001301 0.000000
# 3 0.000712 -0.000101 0.009925 0.000000 0.006489 0.000000
# 4 0.000000 0.000000 0.000000 0.151639 0.000000 0.106185
# 5 0.005666 0.001301 0.006489 0.000000 0.025253 0.000000
# 6 0.000000 0.000000 0.000000 0.106185 0.000000 0.112344
#
#
# Mechanical properties :
#
#
# Convention : Reuss Voigt Hill
#
# Bulk Modulus (GPa) = 29.83281 40.66247 35.24764
# Shear Modulus (GPa) = 14.79030 38.47367 26.63199
#
# Velocity S-wave (km/s) = 2.35436 3.79722 3.15927
# Velocity P-wave (km/s) = 4.30943 5.87064 5.14954
#
# Compressibility (1/GPa) = 0.03352015
#
# Stress axis : x y z
#
# Youngs Moduli (GPa) = 96.77610 65.24546 100.75196
#
# Poissons Ratio (x) = 0.10728 -0.07177
# Poissons Ratio (y) = 0.15913 0.01014
# Poissons Ratio (z) = -0.06894 0.00656
#
# Static dielectric constant tensor:
#      x y z
#    x 2.179240 0.000000 -0.115890 
#    y 0.000000 2.385110 0.000000 
#    z -0.115890 0.000000 2.116630 
# 
# From -- ./inp_files/126414.got.cif
#   From: 2010.05.17/outbox.cif.g08.bks.cpg/sg15_64_cif.got.tgz:126414.got - 2010.06.03 18:47:42.
