data_PCOD9262552
_publ_section_title
;
Structure prediction by ZEFSAII (Michael W. Deem and Ramdas Pophale) SiO2 
 PCOD9262552
Probable space group: C 2/C
;
_chemical_formula_sum "Si O2"
_cell_formula_units_Z 52
_cell_length_a 28.615866
_cell_length_b 17.818297
_cell_length_c 9.013276
_cell_angle_alpha 90.000000
_cell_angle_beta 32.073946
_cell_angle_gamma 90.000000
_cell_volume 2440.400850
_symmetry_space_group_name_H-M "C 2/C"
_symmetry_group_IT_number 15
_symmetry_cell_setting 'monoclinic'
loop_
_space_group_symop_operation_xyz
x,y,z
-x,y,1/2-z
-x,-y,-z
x,-y,1/2+z
1/2+x,1/2+y,z
1/2-x,1/2+y,1/2-z
1/2-x,1/2-y,-z
1/2+x,1/2-y,1/2+z
loop_
_atom_site_type_symbol
_atom_site_label
_atom_site_fract_x
_atom_site_fract_y
_atom_site_fract_z
Si Si1 0.140705 0.144885 0.622562
Si Si2 0.096469 0.038873 0.467329
Si Si3 0.102518 0.729999 0.997990
Si Si4 0.771790 0.448061 0.907698
Si Si5 0.366664 0.327658 0.854156
Si Si6 0.816830 0.410336 0.094397
Si Si7 0.500000 0.327447 0.750000
O O1 0.118122 0.082778 0.559967
O O2 0.133670 0.223384 0.557306
O O3 0.238007 0.126235 0.417156
O O4 0.070975 0.139895 0.942581
O O5 0.090655 0.101861 0.352867
O O6 0.000000 0.003465 0.750000
O O7 0.180181 0.986339 0.213057
O O8 0.000000 0.746397 0.250000
O O9 0.148485 0.763367 0.727755
O O10 0.118567 0.643715 0.990342
O O11 0.833860 0.427719 0.877098
O O12 0.808591 0.510671 0.699491
O O13 0.429665 0.297303 0.814848
O O14 0.275939 0.364352 0.153539
#
# Coordination Sequence:
#
# PCOD9262552 Si02
#       7
#     8   8   8   8   8   8   4
#     4  11  21  36  59  90 129 156 202 244 301 373
#     4  10  19  33  53  83 128 172 189 226 297 376
#     4  11  23  45  65  85 120 170 208 253 305 362
#     4  11  23  37  57  92 126 162 201 247 302 369
#     4  10  20  36  60  91 125 155 198 247 304 368
#     4  11  24  41  63  90 126 162 206 253 308 359
#     4  12  18  32  60  96 124 150 200 250 298 374
#
# _framework density 21.307974999999999
#
# number of rings (size 3 to 8) (size 9 to 14) (size 15 to 20)
#    0.000    1.231    6.154    1.385    1.077    1.231 
#    0.000    0.769    1.692    0.000    0.000    0.000 
#    0.000    0.000    0.000    0.000    0.000    0.000 
#
# Total GULP energy -145104.014769 kJ/mol
# GULP energy per Si atom -5580.923645 kJ/mol
# Density = 2.125948 g / cm^3
# Si number density = 21.307975 Si / 1000 Ang^3
#
#
#
# Elastic Constant Matrix: (Units=GPa)
#
#
# Indices 1 2 3 4 5 6 
#
# 1 86.5913 28.7327 14.0434 0.0000 23.7622 0.0000
# 2 28.7327 45.2682 1.1629 0.0000 2.0882 0.0000
# 3 14.0434 1.1629 15.3423 0.0000 11.7455 0.0000
# 4 0.0000 0.0000 0.0000 0.9454 0.0000 -12.4247
# 5 23.7622 2.0882 11.7455 0.0000 21.5034 0.0000
# 6 0.0000 0.0000 0.0000 -12.4247 0.0000 35.0699
#
#
#
# Elastic Compliance Matrix: (Units=1/GPa)
#
#
# Indices 1 2 3 4 5 6 
#
# 1 0.022364 -0.013113 -0.002633 0.000000 -0.022002 0.000000
# 2 -0.013113 0.029878 0.001488 0.000000 0.010775 0.000000
# 3 -0.002633 0.001488 0.112334 0.000000 -0.058594 0.000000
# 4 0.000000 0.000000 0.000000 -0.289313 0.000000 -0.102499
# 5 -0.022002 0.010775 -0.058594 0.000000 0.101776 0.000000
# 6 0.000000 0.000000 0.000000 -0.102499 0.000000 -0.007799
#
#
# Mechanical properties :
#
#
# Convention : Reuss Voigt Hill
#
# Bulk Modulus (GPa) = 7.34958 26.11998 16.73478
# Shear Modulus (GPa) = 115.98512 18.38791 67.18652
#
# Velocity S-wave (km/s) = 7.38586 2.94080 5.62135
# Velocity P-wave (km/s) = 8.72876 4.88017 7.07132
#
# Compressibility (1/GPa) = 0.13606227
#
# Stress axis : x y z
#
# Youngs Moduli (GPa) = 44.71420 33.46938 8.90200
#
# Poissons Ratio (x) = 0.43887 0.02344
# Poissons Ratio (y) = 0.58632 -0.01325
# Poissons Ratio (z) = 0.11773 -0.04981
#
# Static dielectric constant tensor:
#      x y z
#    x 1.790040 0.000000 0.009480 
#    y 0.000000 1.811570 0.000000 
#    z 0.009480 0.000000 1.770060 
# 
# From -- ./inp_files/48658.got.cif
#   From: 2010.05.17/outbox.cif.g08.bks.cpg/sg15_25_cif.got.tgz:48658.got - 2010.06.03 18:47:42.
