data_PCOD9262640
_publ_section_title
;
Structure prediction by ZEFSAII (Michael W. Deem and Ramdas Pophale) SiO2 
 PCOD9262640
Probable space group: C 2/C
;
_chemical_formula_sum "Si O2"
_cell_formula_units_Z 56
_cell_length_a 11.629763
_cell_length_b 15.768570
_cell_length_c 22.220356
_cell_angle_alpha 90.000000
_cell_angle_beta 143.430938
_cell_angle_gamma 90.000000
_cell_volume 2427.774457
_symmetry_space_group_name_H-M "C 2/C"
_symmetry_group_IT_number 15
_symmetry_cell_setting 'monoclinic'
loop_
_space_group_symop_operation_xyz
x,y,z
-x,y,1/2-z
-x,-y,-z
x,-y,1/2+z
1/2+x,1/2+y,z
1/2-x,1/2+y,1/2-z
1/2-x,1/2-y,-z
1/2+x,1/2-y,1/2+z
loop_
_atom_site_type_symbol
_atom_site_label
_atom_site_fract_x
_atom_site_fract_y
_atom_site_fract_z
Si Si1 0.500000 0.358303 0.750000
Si Si2 0.342825 0.472956 0.577432
Si Si3 0.167692 0.729719 0.746071
Si Si4 0.754790 0.451905 0.236063
Si Si5 0.230345 0.103841 0.859915
Si Si6 0.827807 0.204708 0.388856
Si Si7 0.752019 0.671528 0.547398
Si Si8 0.000000 0.431923 0.750000
O O1 0.407100 0.411298 0.658330
O O2 0.674784 0.303098 0.797076
O O3 0.549762 0.503215 0.640752
O O4 0.232810 0.547718 0.565644
O O5 0.239182 0.416733 0.484367
O O6 0.288364 0.645145 0.801802
O O7 0.189334 0.775820 0.690632
O O8 0.952745 0.689403 0.663433
O O9 0.805269 0.438327 0.328736
O O10 0.909062 0.506486 0.263002
O O11 0.294687 0.200025 0.898741
O O12 0.000000 0.105701 0.750000
O O13 0.672073 0.133481 0.341283
O O14 0.045994 0.175259 0.492929
O O15 0.750000 0.750000 0.500000
#
# Coordination Sequence:
#
# PCOD9262640 Si02
#       8
#     4   8   8   8   8   8   8   4
#     4  12  17  33  58  84 104 150 190 237 265 328
#     4  11  19  35  60  84 113 147 193 243 274 325
#     4  10  22  36  57  81 117 147 191 233 283 340
#     4  10  20  34  51  83 114 144 192 230 277 341
#     4   9  18  32  51  81 110 140 190 239 273 315
#     4  10  19  33  54  82 111 151 186 232 281 337
#     4  10  19  37  56  85 115 150 188 233 287 337
#     4  12  19  31  56  86 112 150 188 229 281 342
#
# _framework density 23.066393000000001
#
# number of rings (size 3 to 8) (size 9 to 14) (size 15 to 20)
#    0.000    1.714    7.143    0.429    0.000    0.000 
#    0.000    8.571    0.000    0.000    0.000   11.000 
#    0.000    0.000    0.000    0.000    0.000    0.000 
#
# Total GULP energy -156338.942237 kJ/mol
# GULP energy per Si atom -5583.533651 kJ/mol
# Density = 2.301389 g / cm^3
# Si number density = 23.066393 Si / 1000 Ang^3
#
#
#
# Elastic Constant Matrix: (Units=GPa)
#
#
# Indices 1 2 3 4 5 6 
#
# 1 104.0867 46.6299 11.5695 0.0004 13.8081 -0.0002
# 2 46.6299 88.0141 -9.1139 0.0007 -6.6236 -0.0004
# 3 11.5695 -9.1139 34.7911 0.0020 7.5560 -0.0013
# 4 0.0004 0.0007 0.0020 -204.8027 0.0004 161.6812
# 5 13.8081 -6.6236 7.5560 0.0004 24.5179 -0.0003
# 6 -0.0002 -0.0004 -0.0013 161.6812 -0.0003 -45.7359
#
#
#
# Elastic Compliance Matrix: (Units=1/GPa)
#
#
# Indices 1 2 3 4 5 6 
#
# 1 0.015927 -0.009771 -0.005717 0.000000 -0.009847 0.000000
# 2 -0.009771 0.017803 0.006080 0.000000 0.008439 0.000000
# 3 -0.005717 0.006080 0.033418 0.000000 -0.005436 0.000000
# 4 0.000000 0.000000 0.000000 0.002727 0.000000 0.009639
# 5 -0.009847 0.008439 -0.005436 0.000000 0.050287 0.000000
# 6 0.000000 0.000000 0.000000 0.009639 0.000000 0.012210
#
#
# Mechanical properties :
#
#
# Convention : Reuss Voigt Hill
#
# Bulk Modulus (GPa) = 20.69040 36.11808 28.40424
# Shear Modulus (GPa) = 29.88693 -33.35037 -1.73172
#
# Velocity S-wave (km/s) = 3.60348 -3.80655 -0.86740
# Velocity P-wave (km/s) = 5.12863 1.90458 3.36715
#
# Compressibility (1/GPa) = 0.04833160
#
# Stress axis : x y z
#
# Youngs Moduli (GPa) = 62.78838 56.16976 29.92429
#
# Poissons Ratio (x) = 0.54883 0.17108
# Poissons Ratio (y) = 0.61350 -0.18195
# Poissons Ratio (z) = 0.35897 -0.34153
#
# Static dielectric constant tensor:
#      x y z
#    x 1.450910 0.000000 0.136500 
#    y 0.000000 1.924440 0.000000 
#    z 0.136500 0.000000 1.819580 
# 
# From -- ./inp_files/239641.got.cif
#   From: 2010.05.17/outbox.cif.g08.bks.cpg/sg15_120_cif.got.tgz:239641.got - 2010.06.03 18:47:42.
