data_PCOD9262658
_publ_section_title
;
Structure prediction by ZEFSAII (Michael W. Deem and Ramdas Pophale) SiO2 
 PCOD9262658
Probable space group: C 2/C
;
_chemical_formula_sum "Si O2"
_cell_formula_units_Z 56
_cell_length_a 15.715254
_cell_length_b 18.328009
_cell_length_c 14.257934
_cell_angle_alpha 90.000000
_cell_angle_beta 127.905303
_cell_angle_gamma 90.000000
_cell_volume 3240.300469
_symmetry_space_group_name_H-M "C 2/C"
_symmetry_group_IT_number 15
_symmetry_cell_setting 'monoclinic'
loop_
_space_group_symop_operation_xyz
x,y,z
-x,y,1/2-z
-x,-y,-z
x,-y,1/2+z
1/2+x,1/2+y,z
1/2-x,1/2+y,1/2-z
1/2-x,1/2-y,-z
1/2+x,1/2-y,1/2+z
loop_
_atom_site_type_symbol
_atom_site_label
_atom_site_fract_x
_atom_site_fract_y
_atom_site_fract_z
Si Si1 0.164302 0.875051 0.114586
Si Si2 0.518193 0.645338 0.152551
Si Si3 0.972950 0.866710 0.127419
Si Si4 0.660130 0.841105 0.785342
Si Si5 0.582128 0.198686 0.428220
Si Si6 0.661852 0.548223 0.117008
Si Si7 0.327833 0.226151 0.813608
O O1 0.273600 0.830931 0.206203
O O2 0.084138 0.857959 0.146520
O O3 0.173736 0.962158 0.121068
O O4 0.096670 0.851477 0.977695
O O5 0.500000 0.635784 0.250000
O O6 0.586455 0.579433 0.150136
O O7 0.585417 0.718768 0.173411
O O8 0.921644 0.785895 0.093672
O O9 0.000000 0.891638 0.250000
O O10 0.898049 0.920282 0.016254
O O11 0.538665 0.831563 0.667112
O O12 0.654149 0.834544 0.894120
O O13 0.721685 0.914266 0.798626
O O14 0.733389 0.777526 0.791236
O O15 0.622171 0.187827 0.560750
#
# Coordination Sequence:
#
# PCOD9262658 Si02
#       7
#     8   8   8   8   8   8   8
#     4  11  22  37  53  83 117 146 186 230 281 339
#     4  10  21  39  58  77 109 148 194 241 266 312
#     4  11  18  31  58  90 113 140 175 235 288 330
#     4  10  19  33  54  85 118 140 180 226 285 341
#     4  11  18  31  57  88 112 138 178 238 277 334
#     4  10  23  36  53  82 122 148 177 229 285 342
#     4  11  19  34  58  81 109 147 191 230 274 321
#
# _framework density 17.282347999999999
#
# number of rings (size 3 to 8) (size 9 to 14) (size 15 to 20)
#    0.000    1.429    7.143    2.143    2.000    2.857 
#    0.000    0.714    3.143    0.000    0.000    0.000 
#    0.000    0.000    0.000    0.000    0.000    0.000 
#
# Total GULP energy -156275.280723 kJ/mol
# GULP energy per Si atom -5581.260026 kJ/mol
# Density = 1.724301 g / cm^3
# Si number density = 17.282348 Si / 1000 Ang^3
#
#
#
# Elastic Constant Matrix: (Units=GPa)
#
#
# Indices 1 2 3 4 5 6 
#
# 1 64.9450 26.4214 58.3205 0.0000 -11.0365 0.0000
# 2 26.4214 79.7850 63.0189 0.0000 8.9658 0.0000
# 3 58.3205 63.0189 133.3411 0.0000 -13.0564 0.0000
# 4 0.0000 0.0000 0.0000 34.3334 0.0000 -5.7298
# 5 -11.0365 8.9658 -13.0564 0.0000 31.8401 0.0000
# 6 0.0000 0.0000 0.0000 -5.7298 0.0000 19.8654
#
#
#
# Elastic Compliance Matrix: (Units=1/GPa)
#
#
# Indices 1 2 3 4 5 6 
#
# 1 0.026004 -0.000915 -0.010453 0.000000 0.004985 0.000000
# 2 -0.000915 0.023559 -0.011892 0.000000 -0.011828 0.000000
# 3 -0.010453 -0.011892 0.018404 0.000000 0.007272 0.000000
# 4 0.000000 0.000000 0.000000 0.030599 0.000000 0.008826
# 5 0.004985 -0.011828 0.007272 0.000000 0.039447 0.000000
# 6 0.000000 0.000000 0.000000 0.008826 0.000000 0.052884
#
#
# Mechanical properties :
#
#
# Convention : Reuss Voigt Hill
#
# Bulk Modulus (GPa) = 46.62834 63.73253 55.18043
# Shear Modulus (GPa) = 20.44435 25.89515 23.16975
#
# Velocity S-wave (km/s) = 3.44315 3.87506 3.66547
# Velocity P-wave (km/s) = 6.54568 7.54843 7.06487
#
# Compressibility (1/GPa) = 0.02144618
#
# Stress axis : x y z
#
# Youngs Moduli (GPa) = 38.45603 42.44663 54.33647
#
# Poissons Ratio (x) = 0.03885 0.56797
# Poissons Ratio (y) = 0.03520 0.64618
# Poissons Ratio (z) = 0.40197 0.50478
#
# Static dielectric constant tensor:
#      x y z
#    x 1.582340 0.000000 0.012040 
#    y 0.000000 1.587430 0.000000 
#    z 0.012040 0.000000 1.615100 
# 
# From -- ./inp_files/155241.got.cif
#   From: 2010.05.17/outbox.cif.g08.bks.cpg/sg15_78_cif.got.tgz:155241.got - 2010.06.03 18:47:42.
