data_PCOD9262524
_publ_section_title
;
Structure prediction by ZEFSAII (Michael W. Deem and Ramdas Pophale) SiO2 
 PCOD9262524
Probable space group: C 2/C
;
_chemical_formula_sum "Si O2"
_cell_formula_units_Z 44
_cell_length_a 25.032727
_cell_length_b 6.622762
_cell_length_c 16.591205
_cell_angle_alpha 90.000000
_cell_angle_beta 124.514625
_cell_angle_gamma 90.000000
_cell_volume 2266.432275
_symmetry_space_group_name_H-M "C 2/C"
_symmetry_group_IT_number 15
_symmetry_cell_setting 'monoclinic'
loop_
_space_group_symop_operation_xyz
x,y,z
-x,y,1/2-z
-x,-y,-z
x,-y,1/2+z
1/2+x,1/2+y,z
1/2-x,1/2+y,1/2-z
1/2-x,1/2-y,-z
1/2+x,1/2-y,1/2+z
loop_
_atom_site_type_symbol
_atom_site_label
_atom_site_fract_x
_atom_site_fract_y
_atom_site_fract_z
Si Si1 0.578190 0.339394 0.016813
Si Si2 0.942096 0.086107 0.342756
Si Si3 0.174321 0.169548 0.358763
Si Si4 0.500000 0.312986 0.250000
Si Si5 0.373216 0.678728 0.567138
Si Si6 0.317144 0.075787 0.471685
O O1 0.580027 0.429258 0.107684
O O2 0.626877 0.159596 0.038457
O O3 0.503181 0.291790 0.931076
O O4 0.601368 0.520821 0.977632
O O5 0.881311 0.205625 0.254574
O O6 0.971044 0.958311 0.293618
O O7 0.246343 0.151555 0.385176
O O8 0.173070 0.331132 0.430065
O O9 0.159064 0.956610 0.390762
O O10 0.562769 0.207493 0.342482
O O11 0.324494 0.837407 0.487375
#
# Coordination Sequence:
#
# PCOD9262524 Si02
#       6
#     8   8   8   4   8   8
#     4   9  19  34  53  74 108 136 169 214 265 306
#     4   9  17  36  54  73 105 143 169 216 263 307
#     4   9  19  34  53  74 105 139 177 211 259 305
#     4   8  16  30  54  76  96 134 182 208 252 304
#     4   9  17  32  52  76 103 136 168 217 258 302
#     4  10  19  33  53  79 103 135 176 217 253 315
#
# _framework density 19.413771000000001
#
# number of rings (size 3 to 8) (size 9 to 14) (size 15 to 20)
#    0.000    2.909    0.000    1.636    0.000    1.455 
#    3.273   11.818    0.000    0.000    0.000    0.000 
#    0.000    0.000    0.000    0.000    0.000    0.000 
#
# Total GULP energy -122578.144366 kJ/mol
# GULP energy per Si atom -5571.733835 kJ/mol
# Density = 1.936958 g / cm^3
# Si number density = 19.413771 Si / 1000 Ang^3
#
#
#
# Elastic Constant Matrix: (Units=GPa)
#
#
# Indices 1 2 3 4 5 6 
#
# 1 39.8270 1.7744 23.0344 0.0000 -0.8824 0.0000
# 2 1.7744 29.1744 -9.7019 0.0000 7.6173 0.0000
# 3 23.0344 -9.7019 67.9482 0.0000 9.4764 0.0000
# 4 0.0000 0.0000 0.0000 11.8645 0.0000 3.6768
# 5 -0.8824 7.6173 9.4764 0.0000 28.5920 0.0000
# 6 0.0000 0.0000 0.0000 3.6768 0.0000 17.1758
#
#
#
# Elastic Compliance Matrix: (Units=1/GPa)
#
#
# Indices 1 2 3 4 5 6 
#
# 1 0.033614 -0.008675 -0.013736 0.000000 0.007901 0.000000
# 2 -0.008675 0.042499 0.011140 0.000000 -0.015282 0.000000
# 3 -0.013736 0.011140 0.022476 0.000000 -0.010841 0.000000
# 4 0.000000 0.000000 0.000000 0.090274 0.000000 -0.019325
# 5 0.007901 -0.015282 -0.010841 0.000000 0.042883 0.000000
# 6 0.000000 0.000000 0.000000 -0.019325 0.000000 0.062358
#
#
# Mechanical properties :
#
#
# Convention : Reuss Voigt Hill
#
# Bulk Modulus (GPa) = 13.14951 18.57371 15.86161
# Shear Modulus (GPa) = 14.62005 19.64932 17.13468
#
# Velocity S-wave (km/s) = 2.74720 3.18485 2.97409
# Velocity P-wave (km/s) = 4.10497 4.80754 4.47008
#
# Compressibility (1/GPa) = 0.07604849
#
# Stress axis : x y z
#
# Youngs Moduli (GPa) = 29.74909 23.52988 44.49145
#
# Poissons Ratio (x) = 0.20413 0.61113
# Poissons Ratio (y) = 0.25808 -0.49566
# Poissons Ratio (z) = 0.40863 -0.26213
#
# Static dielectric constant tensor:
#      x y z
#    x 1.692400 0.000000 0.048700 
#    y 0.000000 1.652570 0.000000 
#    z 0.048700 0.000000 1.709360 
# 
# From -- ./inp_files/223713.got.cif
#   From: 2010.05.17/outbox.cif.g08.bks.cpg/sg15_112_cif.got.tgz:223713.got - 2010.06.03 18:47:42.
