data_PCOD9262453
_publ_section_title
;
Structure prediction by ZEFSAII (Michael W. Deem and Ramdas Pophale) SiO2 
 PCOD9262453
Probable space group: C 2/C
;
_chemical_formula_sum "Si O2"
_cell_formula_units_Z 48
_cell_length_a 31.930406
_cell_length_b 8.493765
_cell_length_c 18.435374
_cell_angle_alpha 90.000000
_cell_angle_beta 27.388273
_cell_angle_gamma 90.000000
_cell_volume 2300.019500
_symmetry_space_group_name_H-M "C 2/C"
_symmetry_group_IT_number 15
_symmetry_cell_setting 'monoclinic'
loop_
_space_group_symop_operation_xyz
x,y,z
-x,y,1/2-z
-x,-y,-z
x,-y,1/2+z
1/2+x,1/2+y,z
1/2-x,1/2+y,1/2-z
1/2-x,1/2-y,-z
1/2+x,1/2-y,1/2+z
loop_
_atom_site_type_symbol
_atom_site_label
_atom_site_fract_x
_atom_site_fract_y
_atom_site_fract_z
Si Si1 0.278788 0.501882 0.980188
Si Si2 0.500000 0.254425 0.250000
Si Si3 0.000000 0.740617 0.750000
Si Si4 0.021194 0.991403 0.843539
Si Si5 0.308156 0.161511 0.510891
Si Si6 0.701948 0.280736 0.416403
Si Si7 0.825489 0.002495 0.677515
O O1 0.375218 0.489933 0.789183
O O2 0.201412 0.538225 0.040786
O O3 0.289730 0.663272 0.009020
O O4 0.269207 0.357852 0.050834
O O5 0.493204 0.361634 0.188989
O O6 0.407265 0.159259 0.393443
O O7 0.105247 0.687743 0.573305
O O8 0.984119 0.843443 0.702165
O O9 0.932917 0.995129 0.029249
O O10 0.230621 0.122046 0.687017
O O11 0.777426 0.164865 0.266675
O O12 0.684594 0.429145 0.388909
#
# Coordination Sequence:
#
# PCOD9262453 Si02
#       7
#     8   4   4   8   8   8   8
#     4   9  19  37  55  73 102 141 176 207 252 312
#     4   9  16  33  54  74 102 138 170 202 260 322
#     4   7  14  29  48  70  96 134 172 202 242 302
#     4   8  15  30  52  73  99 133 170 208 251 302
#     4  10  20  33  56  79 102 136 175 211 255 309
#     4  10  19  33  52  76 106 137 174 215 255 302
#     4  11  20  31  54  82 106 134 172 218 258 298
#
# _framework density 20.869388000000001
#
# number of rings (size 3 to 8) (size 9 to 14) (size 15 to 20)
#    0.000    2.667    0.000    5.000    0.000    2.000 
#    0.000    0.000    0.000   20.000    0.000    0.000 
#    0.000    0.000    0.000    0.000    0.000    0.000 
#
# Total GULP energy -133741.852642 kJ/mol
# GULP energy per Si atom -5572.577193 kJ/mol
# Density = 2.082189 g / cm^3
# Si number density = 20.869388 Si / 1000 Ang^3
#
#
#
# Elastic Constant Matrix: (Units=GPa)
#
#
# Indices 1 2 3 4 5 6 
#
# 1 51.0612 0.9256 13.1578 0.0006 -6.4158 -0.0005
# 2 0.9256 55.5489 24.9703 0.0013 -1.1679 -0.0018
# 3 13.1578 24.9703 126.7818 0.0010 -1.0622 -0.0011
# 4 0.0006 0.0013 0.0010 125.0412 -0.0004 -84.9501
# 5 -6.4158 -1.1679 -1.0622 -0.0004 31.0581 0.0004
# 6 -0.0005 -0.0018 -0.0011 -84.9501 0.0004 111.2598
#
#
#
# Elastic Compliance Matrix: (Units=1/GPa)
#
#
# Indices 1 2 3 4 5 6 
#
# 1 0.020684 0.000761 -0.002261 0.000000 0.004224 0.000000
# 2 0.000761 0.019790 -0.003970 0.000000 0.000765 0.000000
# 3 -0.002261 -0.003970 0.008902 0.000000 -0.000312 0.000000
# 4 0.000000 0.000000 0.000000 0.016617 0.000000 0.012688
# 5 0.004224 0.000765 -0.000312 0.000000 0.033088 0.000000
# 6 0.000000 0.000000 0.000000 0.012688 0.000000 0.018675
#
#
# Mechanical properties :
#
#
# Convention : Reuss Voigt Hill
#
# Bulk Modulus (GPa) = 26.01848 34.61101 30.31474
# Shear Modulus (GPa) = 35.33331 66.42772 50.88051
#
# Velocity S-wave (km/s) = 4.11916 5.64795 4.94301
# Velocity P-wave (km/s) = 5.92601 7.69110 6.86552
#
# Compressibility (1/GPa) = 0.03843422
#
# Stress axis : x y z
#
# Youngs Moduli (GPa) = 48.34668 50.52980 112.33959
#
# Poissons Ratio (x) = -0.03843 0.25400
# Poissons Ratio (y) = -0.03677 0.44602
# Poissons Ratio (z) = 0.10931 0.20062
#
# Static dielectric constant tensor:
#      x y z
#    x 1.776950 0.000000 0.021120 
#    y 0.000000 1.786670 0.000000 
#    z 0.021120 0.000000 1.608680 
# 
# From -- ./inp_files/203513.got.cif
#   From: 2010.05.17/outbox.cif.g08.bks.cpg/sg15_102_cif.got.tgz:203513.got - 2010.06.03 18:47:42.
