data_PCOD9262991
_publ_section_title
;
Structure prediction by ZEFSAII (Michael W. Deem and Ramdas Pophale) SiO2 
 PCOD9262991
Probable space group: C 2/C
;
_chemical_formula_sum "Si O2"
_cell_formula_units_Z 48
_cell_length_a 10.404727
_cell_length_b 15.620981
_cell_length_c 22.240414
_cell_angle_alpha 90.000000
_cell_angle_beta 36.018126
_cell_angle_gamma 90.000000
_cell_volume 2125.639385
_symmetry_space_group_name_H-M "C 2/C"
_symmetry_group_IT_number 15
_symmetry_cell_setting 'monoclinic'
loop_
_space_group_symop_operation_xyz
x,y,z
-x,y,1/2-z
-x,-y,-z
x,-y,1/2+z
1/2+x,1/2+y,z
1/2-x,1/2+y,1/2-z
1/2-x,1/2-y,-z
1/2+x,1/2-y,1/2+z
loop_
_atom_site_type_symbol
_atom_site_label
_atom_site_fract_x
_atom_site_fract_y
_atom_site_fract_z
Si Si1 0.636845 0.593244 0.277750
Si Si2 0.540786 0.778030 0.327162
Si Si3 0.639420 0.080800 0.462055
Si Si4 0.729210 0.904877 0.638792
Si Si5 0.000321 0.459603 0.142773
Si Si6 0.466394 0.738474 0.496887
O O1 0.668407 0.695111 0.253987
O O2 0.391435 0.576625 0.349079
O O3 0.645148 0.575355 0.346967
O O4 0.826262 0.529660 0.185187
O O5 0.623129 0.874578 0.285880
O O6 0.521753 0.752946 0.404975
O O7 0.290218 0.781321 0.398985
O O8 0.636728 0.079516 0.536105
O O9 0.518400 0.165556 0.483824
O O10 0.500000 0.000000 0.500000
O O11 0.500000 0.864897 0.750000
O O12 0.871998 0.837885 0.546513
O O13 0.653732 0.988903 0.630960
#
# Coordination Sequence:
#
# PCOD9262991 Si02
#       6
#     8   8   8   8   8   8
#     4   9  19  36  55  79 111 135 177 232 263 326
#     4   8  15  30  54  75  99 141 176 208 269 326
#     4  10  21  37  52  74 109 150 189 211 256 327
#     4   9  17  31  54  84 109 122 175 236 278 311
#     4  10  19  33  59  83 104 142 178 222 281 316
#     4   8  15  31  51  74 101 137 177 219 257 317
#
# _framework density 22.581441999999999
#
# number of rings (size 3 to 8) (size 9 to 14) (size 15 to 20)
#    0.000    3.000    0.000    3.000    0.000    3.333 
#   12.000    0.833   22.000    0.000    0.000    0.000 
#    0.000    0.000    0.000    0.000    0.000    0.000 
#
# Total GULP energy -133741.670970 kJ/mol
# GULP energy per Si atom -5572.569624 kJ/mol
# Density = 2.253005 g / cm^3
# Si number density = 22.581442 Si / 1000 Ang^3
#
#
#
# Elastic Constant Matrix: (Units=GPa)
#
#
# Indices 1 2 3 4 5 6 
#
# 1 52.8880 31.0245 1.6433 -0.0002 -2.1102 0.0002
# 2 31.0245 178.2043 40.3589 -0.0009 -10.3119 0.0017
# 3 1.6433 40.3589 62.3658 0.0004 4.2798 0.0039
# 4 -0.0002 -0.0009 0.0004 26.1719 0.0036 -7.1110
# 5 -2.1102 -10.3119 4.2798 0.0036 24.5340 -0.0003
# 6 0.0002 0.0017 0.0039 -7.1110 -0.0003 35.6820
#
#
#
# Elastic Compliance Matrix: (Units=1/GPa)
#
#
# Indices 1 2 3 4 5 6 
#
# 1 0.021305 -0.004225 0.002195 0.000000 -0.000326 0.000000
# 2 -0.004225 0.007733 -0.005153 0.000000 0.003786 0.000000
# 3 0.002195 -0.005153 0.019682 0.000000 -0.005410 -0.000002
# 4 0.000000 0.000000 0.000000 0.040396 -0.000006 0.008050
# 5 -0.000326 0.003786 -0.005410 -0.000006 0.043267 0.000000
# 6 0.000000 0.000000 -0.000002 0.008050 0.000000 0.029630
#
#
# Mechanical properties :
#
#
# Convention : Reuss Voigt Hill
#
# Bulk Modulus (GPa) = 29.10761 48.83461 38.97111
# Shear Modulus (GPa) = 26.61970 31.97301 29.29635
#
# Velocity S-wave (km/s) = 3.43714 3.76692 3.60580
# Velocity P-wave (km/s) = 5.35443 6.37123 5.88483
#
# Compressibility (1/GPa) = 0.03435528
#
# Stress axis : x y z
#
# Youngs Moduli (GPa) = 46.93695 129.31277 50.80665
#
# Poissons Ratio (x) = 0.54637 -0.11153
# Poissons Ratio (y) = 0.19832 0.26180
# Poissons Ratio (z) = -0.10304 0.66633
#
# Static dielectric constant tensor:
#      x y z
#    x 1.931960 0.000000 0.121470 
#    y 0.000000 1.886140 0.000000 
#    z 0.121470 0.000000 1.920630 
# 
# From -- ./inp_files/143633.got.cif
#   From: 2010.05.17/outbox.cif.g08.bks.cpg/sg15_72_cif.got.tgz:143633.got - 2010.06.03 18:47:42.
