data_PCOD9262447
_publ_section_title
;
Structure prediction by ZEFSAII (Michael W. Deem and Ramdas Pophale) SiO2 
 PCOD9262447
Probable space group: C 2/C
;
_chemical_formula_sum "Si O2"
_cell_formula_units_Z 44
_cell_length_a 20.481163
_cell_length_b 20.446320
_cell_length_c 7.293569
_cell_angle_alpha 90.000000
_cell_angle_beta 145.361024
_cell_angle_gamma 90.000000
_cell_volume 1736.067683
_symmetry_space_group_name_H-M "C 2/C"
_symmetry_group_IT_number 15
_symmetry_cell_setting 'monoclinic'
loop_
_space_group_symop_operation_xyz
x,y,z
-x,y,1/2-z
-x,-y,-z
x,-y,1/2+z
1/2+x,1/2+y,z
1/2-x,1/2+y,1/2-z
1/2-x,1/2-y,-z
1/2+x,1/2-y,1/2+z
loop_
_atom_site_type_symbol
_atom_site_label
_atom_site_fract_x
_atom_site_fract_y
_atom_site_fract_z
Si Si1 0.823900 0.925905 0.889159
Si Si2 0.700769 0.156724 0.714211
Si Si3 0.248168 0.792844 0.750099
Si Si4 0.000000 0.323601 0.250000
Si Si5 0.433317 0.067714 0.866188
Si Si6 0.900328 0.065577 0.166607
O O1 0.815097 0.856879 0.973092
O O2 0.691022 0.941048 0.522563
O O3 0.903297 0.918105 0.890598
O O4 0.862684 0.989746 0.085162
O O5 0.679907 0.225490 0.567496
O O6 0.609301 0.099856 0.542019
O O7 0.736323 0.184378 0.000098
O O8 0.805304 0.116249 0.876108
O O9 0.380027 0.785611 0.988777
O O10 0.998318 0.374284 0.076852
O O11 0.500000 0.000000 0.000000
O O12 0.000000 0.070391 0.250000
#
# Coordination Sequence:
#
# PCOD9262447 Si02
#       6
#     8   8   8   4   8   8
#     4   9  20  32  52  74 102 130 166 212 249 295
#     4   8  17  29  46  72 100 123 166 214 240 283
#     4   8  15  30  45  70 101 124 164 211 245 284
#     4   8  16  24  48  70  92 130 164 196 262 284
#     4   9  18  29  48  74 102 127 161 206 253 297
#     4  10  19  33  52  74  97 132 168 207 251 296
#
# _framework density 25.344635
#
# number of rings (size 3 to 8) (size 9 to 14) (size 15 to 20)
#    0.000    4.000    0.000    0.545   11.455    0.000 
#    0.000    0.000    0.000    3.273    0.000    0.000 
#    0.000    0.000    0.000    0.000    0.000    0.000 
#
# Total GULP energy -122759.746385 kJ/mol
# GULP energy per Si atom -5579.988472 kJ/mol
# Density = 2.528695 g / cm^3
# Si number density = 25.344635 Si / 1000 Ang^3
#
#
#
# Elastic Constant Matrix: (Units=GPa)
#
#
# Indices 1 2 3 4 5 6 
#
# 1 92.6299 50.9637 42.1886 0.0000 17.1175 0.0000
# 2 50.9637 210.0383 60.9210 0.0000 36.0504 0.0000
# 3 42.1886 60.9210 65.5938 0.0000 26.4180 0.0000
# 4 0.0000 0.0000 0.0000 18.1608 0.0000 6.3343
# 5 17.1175 36.0504 26.4180 0.0000 40.0519 0.0000
# 6 0.0000 0.0000 0.0000 6.3343 0.0000 16.8521
#
#
#
# Elastic Compliance Matrix: (Units=1/GPa)
#
#
# Indices 1 2 3 4 5 6 
#
# 1 0.015487 -0.001220 -0.008994 0.000000 0.000411 0.000000
# 2 -0.001220 0.006810 -0.004469 0.000000 -0.002661 0.000000
# 3 -0.008994 -0.004469 0.029975 0.000000 -0.011906 0.000000
# 4 0.000000 0.000000 0.000000 0.063372 0.000000 -0.023820
# 5 0.000411 -0.002661 -0.011906 0.000000 0.035040 0.000000
# 6 0.000000 0.000000 0.000000 -0.023820 0.000000 0.068293
#
#
# Mechanical properties :
#
#
# Convention : Reuss Voigt Hill
#
# Bulk Modulus (GPa) = 43.65299 75.15649 59.40474
# Shear Modulus (GPa) = 19.53312 29.29221 24.41267
#
# Velocity S-wave (km/s) = 2.77916 3.40333 3.10696
# Velocity P-wave (km/s) = 5.24971 6.72025 6.02997
#
# Compressibility (1/GPa) = 0.02290794
#
# Stress axis : x y z
#
# Youngs Moduli (GPa) = 64.57058 146.84820 33.36113
#
# Poissons Ratio (x) = 0.17912 0.30004
# Poissons Ratio (y) = 0.07876 0.14907
# Poissons Ratio (z) = 0.58072 0.65619
#
# Static dielectric constant tensor:
#      x y z
#    x 2.093670 0.000000 -0.117580 
#    y 0.000000 1.989920 0.000000 
#    z -0.117580 0.000000 2.152190 
# 
# From -- ./inp_files/119640.got.cif
#   From: 2010.05.17/outbox.cif.g08.bks.cpg/sg15_60_cif.got.tgz:119640.got - 2010.06.03 18:47:42.
