data_PCOD9262298
_publ_section_title
;
Structure prediction by ZEFSAII (Michael W. Deem and Ramdas Pophale) SiO2 
 PCOD9262298
Probable space group: C 2/C
;
_chemical_formula_sum "Si O2"
_cell_formula_units_Z 56
_cell_length_a 8.754057
_cell_length_b 18.671508
_cell_length_c 15.695682
_cell_angle_alpha 90.000000
_cell_angle_beta 105.807556
_cell_angle_gamma 90.000000
_cell_volume 2468.460712
_symmetry_space_group_name_H-M "C 2/C"
_symmetry_group_IT_number 15
_symmetry_cell_setting 'monoclinic'
loop_
_space_group_symop_operation_xyz
x,y,z
-x,y,1/2-z
-x,-y,-z
x,-y,1/2+z
1/2+x,1/2+y,z
1/2-x,1/2+y,1/2-z
1/2-x,1/2-y,-z
1/2+x,1/2-y,1/2+z
loop_
_atom_site_type_symbol
_atom_site_label
_atom_site_fract_x
_atom_site_fract_y
_atom_site_fract_z
Si Si1 0.261578 0.840806 0.667576
Si Si2 0.460094 0.126419 0.611430
Si Si3 0.595913 0.231924 0.168023
Si Si4 0.909445 0.992987 0.861636
Si Si5 0.695092 0.429302 0.979748
Si Si6 0.462843 0.276964 0.534462
Si Si7 0.761075 0.118341 0.755868
O O1 0.263673 0.815452 0.767418
O O2 0.435293 0.813758 0.663762
O O3 0.140473 0.800342 0.586440
O O4 0.205284 0.923179 0.655992
O O5 0.383216 0.077552 0.525243
O O6 0.429818 0.209384 0.587889
O O7 0.646508 0.117861 0.656799
O O8 0.359851 0.113684 0.681927
O O9 0.636589 0.309459 0.217092
O O10 0.572655 0.251287 0.066243
O O11 0.863040 0.047667 0.781593
O O12 0.873743 0.036640 0.943493
O O13 0.094052 0.969662 0.892687
O O14 0.638831 0.347429 0.963988
#
# Coordination Sequence:
#
# PCOD9262298 Si02
#       7
#     8   8   8   8   8   8   8
#     4  10  23  36  59  85 114 153 198 246 291 349
#     4  10  19  32  58  92 115 147 194 247 292 348
#     4  11  21  37  56  90 115 153 195 247 294 351
#     4   9  18  37  57  83 113 154 203 238 282 358
#     4   9  18  31  58  87 108 149 195 241 287 345
#     4  11  19  36  58  90 113 148 194 251 289 351
#     4  10  20  36  62  89 114 157 197 242 294 355
#
# _framework density 22.686201000000001
#
# number of rings (size 3 to 8) (size 9 to 14) (size 15 to 20)
#    0.000    2.000    4.286    0.857    0.000    4.571 
#    0.000    0.000    0.000   11.143    0.000    0.000 
#    0.000    0.000    0.000    0.000    0.000    0.000 
#
# Total GULP energy -155993.541728 kJ/mol
# GULP energy per Si atom -5571.197919 kJ/mol
# Density = 2.263457 g / cm^3
# Si number density = 22.686201 Si / 1000 Ang^3
#
#
#
# Elastic Constant Matrix: (Units=GPa)
#
#
# Indices 1 2 3 4 5 6 
#
# 1 59.9389 35.8115 47.7921 0.0000 32.4669 0.0000
# 2 35.8115 110.5589 48.3122 0.0000 32.6787 0.0000
# 3 47.7921 48.3122 130.5029 0.0000 55.5636 0.0000
# 4 0.0000 0.0000 0.0000-1772.8657 0.0000 -980.9321
# 5 32.4669 32.6787 55.5636 0.0000 38.4500 0.0000
# 6 0.0000 0.0000 0.0000 -980.9321 0.0000 -519.0911
#
#
#
# Elastic Compliance Matrix: (Units=1/GPa)
#
#
# Indices 1 2 3 4 5 6 
#
# 1 0.031549 -0.003125 -0.000482 0.000000 -0.023288 0.000000
# 2 -0.003125 0.012393 -0.000214 0.000000 -0.007584 0.000000
# 3 -0.000482 -0.000214 0.019930 0.000000 -0.028212 0.000000
# 4 0.000000 0.000000 0.000000 0.012374 0.000000 -0.023384
# 5 -0.023288 -0.007584 -0.028212 0.000000 0.092885 0.000000
# 6 0.000000 0.000000 0.000000 -0.023384 0.000000 0.042262
#
#
# Mechanical properties :
#
#
# Convention : Reuss Voigt Hill
#
# Bulk Modulus (GPa) = 17.78447 62.75914 40.27181
# Shear Modulus (GPa) = 21.02787 -439.42903 -209.20058
#
# Velocity S-wave (km/s) = 3.04781 -13.93267 -9.61328
# Velocity P-wave (km/s) = 4.49910 15.20203 10.26791
#
# Compressibility (1/GPa) = 0.05622882
#
# Stress axis : x y z
#
# Youngs Moduli (GPa) = 31.69651 80.69392 50.17576
#
# Poissons Ratio (x) = 0.25220 0.02417
# Poissons Ratio (y) = 0.09907 0.01075
# Poissons Ratio (z) = 0.01527 0.01729
#
# Static dielectric constant tensor:
#      x y z
#    x 1.975870 0.000000 -0.040460 
#    y 0.000000 1.802210 0.000000 
#    z -0.040460 0.000000 2.034770 
# 
# From -- ./inp_files/199294.got.cif
#   From: 2010.05.17/outbox.cif.g08.bks.cpg/sg15_100_cif.got.tgz:199294.got - 2010.06.03 18:47:42.
