data_PCOD9262444
_publ_section_title
;
Structure prediction by ZEFSAII (Michael W. Deem and Ramdas Pophale) SiO2 
 PCOD9262444
Probable space group: C 2/C
;
_chemical_formula_sum "Si O2"
_cell_formula_units_Z 60
_cell_length_a 30.641686
_cell_length_b 18.599247
_cell_length_c 5.412097
_cell_angle_alpha 90.000000
_cell_angle_beta 109.135895
_cell_angle_gamma 90.000000
_cell_volume 2913.986997
_symmetry_space_group_name_H-M "C 2/C"
_symmetry_group_IT_number 15
_symmetry_cell_setting 'monoclinic'
loop_
_space_group_symop_operation_xyz
x,y,z
-x,y,1/2-z
-x,-y,-z
x,-y,1/2+z
1/2+x,1/2+y,z
1/2-x,1/2+y,1/2-z
1/2-x,1/2-y,-z
1/2+x,1/2-y,1/2+z
loop_
_atom_site_type_symbol
_atom_site_label
_atom_site_fract_x
_atom_site_fract_y
_atom_site_fract_z
Si Si1 0.649015 0.166400 0.461809
Si Si2 0.193970 0.041669 0.672620
Si Si3 0.000000 0.954295 0.750000
Si Si4 0.124571 0.809962 0.542638
Si Si5 0.400989 0.386817 0.502254
Si Si6 0.113500 0.494757 0.890602
Si Si7 0.272508 0.327552 0.974300
Si Si8 0.314347 0.871078 0.968278
O O1 0.613409 0.226129 0.483414
O O2 0.633378 0.084724 0.426086
O O3 0.661921 0.179272 0.199233
O O4 0.685160 0.162591 0.757880
O O5 0.138340 0.051450 0.570410
O O6 0.206887 0.007204 0.434310
O O7 0.215007 0.120377 0.772097
O O8 0.952468 0.910800 0.655682
O O9 0.000000 0.000000 0.500000
O O10 0.100980 0.853598 0.276330
O O11 0.179344 0.816284 0.580188
O O12 0.114247 0.836156 0.797593
O O13 0.085892 0.499575 0.089484
O O14 0.155775 0.553974 0.969256
O O15 0.236541 0.372379 0.739771
O O16 0.250000 0.250000 0.000000
#
# Coordination Sequence:
#
# PCOD9262444 Si02
#       8
#     8   8   4   8   8   8   8   8
#     4  10  19  33  52  74 108 153 200 245 313 352
#     4  11  24  43  60  83 119 159 205 261 314 365
#     4  12  24  44  78 104 124 158 200 254 324 402
#     4  11  23  39  58  86 124 164 200 258 310 379
#     4  11  24  43  66  95 123 153 200 254 321 387
#     4   8  16  29  46  68  96 136 188 255 290 329
#     4  11  24  40  57  83 116 167 223 258 311 369
#     4  10  20  33  50  74 106 150 218 266 296 341
#
# _framework density 20.590347000000001
#
# number of rings (size 3 to 8) (size 9 to 14) (size 15 to 20)
#    0.000    1.600    1.333    4.000    1.867    6.933 
#    0.000    0.000    0.000    0.000    0.000    0.000 
#    0.000    0.000    0.000  108.000    0.000    0.400 
#
# Total GULP energy -167185.220358 kJ/mol
# GULP energy per Si atom -5572.840679 kJ/mol
# Density = 2.054348 g / cm^3
# Si number density = 20.590347 Si / 1000 Ang^3
#
#
#
# Elastic Constant Matrix: (Units=GPa)
#
#
# Indices 1 2 3 4 5 6 
#
# 1 41.4946 22.0949 14.9176 0.0000 -5.1379 0.0000
# 2 22.0949 86.0756 24.6992 0.0000 -6.1091 0.0000
# 3 14.9176 24.6992 107.4987 0.0000 -29.4668 0.0000
# 4 0.0000 0.0000 0.0000 32.9012 0.0000 -10.4399
# 5 -5.1379 -6.1091 -29.4668 0.0000 28.4264 0.0000
# 6 0.0000 0.0000 0.0000 -10.4399 0.0000 18.1056
#
#
#
# Elastic Compliance Matrix: (Units=1/GPa)
#
#
# Indices 1 2 3 4 5 6 
#
# 1 0.028556 -0.006644 -0.001974 0.000000 0.001688 0.000000
# 2 -0.006644 0.013987 -0.002510 0.000000 -0.000797 0.000000
# 3 -0.001974 -0.002510 0.013840 0.000000 0.013450 0.000000
# 4 0.000000 0.000000 0.000000 0.037200 0.000000 0.021450
# 5 0.001688 -0.000797 0.013450 0.000000 0.049255 0.000000
# 6 0.000000 0.000000 0.000000 0.021450 0.000000 0.067600
#
#
# Mechanical properties :
#
#
# Convention : Reuss Voigt Hill
#
# Bulk Modulus (GPa) = 29.30208 39.83247 34.56727
# Shear Modulus (GPa) = 20.48601 27.44377 23.96489
#
# Velocity S-wave (km/s) = 3.15768 3.65478 3.41528
# Velocity P-wave (km/s) = 5.24942 6.09894 5.69006
#
# Compressibility (1/GPa) = 0.03412727
#
# Stress axis : x y z
#
# Youngs Moduli (GPa) = 35.01925 71.49571 72.25459
#
# Poissons Ratio (x) = 0.47501 0.14260
# Poissons Ratio (y) = 0.23267 0.18137
# Poissons Ratio (z) = 0.06911 0.17946
#
# Static dielectric constant tensor:
#      x y z
#    x 1.678420 0.000000 -0.026260 
#    y 0.000000 1.811180 0.000000 
#    z -0.026260 0.000000 1.796490 
# 
# From -- ./inp_files/18465.got.cif
#   From: 2010.05.17/outbox.cif.g08.bks.cpg/sg15_10_cif.got.tgz:18465.got - 2010.06.03 18:47:42.
