data_PCOD9262271
_publ_section_title
;
Structure prediction by ZEFSAII (Michael W. Deem and Ramdas Pophale) SiO2 
 PCOD9262271
Probable space group: C 2/C
;
_chemical_formula_sum "Si O2"
_cell_formula_units_Z 48
_cell_length_a 28.397009
_cell_length_b 9.025106
_cell_length_c 15.098182
_cell_angle_alpha 90.000000
_cell_angle_beta 135.929592
_cell_angle_gamma 90.000000
_cell_volume 2691.366277
_symmetry_space_group_name_H-M "C 2/C"
_symmetry_group_IT_number 15
_symmetry_cell_setting 'monoclinic'
loop_
_space_group_symop_operation_xyz
x,y,z
-x,y,1/2-z
-x,-y,-z
x,-y,1/2+z
1/2+x,1/2+y,z
1/2-x,1/2+y,1/2-z
1/2-x,1/2-y,-z
1/2+x,1/2-y,1/2+z
loop_
_atom_site_type_symbol
_atom_site_label
_atom_site_fract_x
_atom_site_fract_y
_atom_site_fract_z
Si Si1 0.663903 0.285393 0.647118
Si Si2 0.292747 0.619799 0.770178
Si Si3 0.334355 0.674222 0.017907
Si Si4 0.822148 0.611590 0.655999
Si Si5 0.826465 0.729632 0.140353
Si Si6 0.920709 0.881302 0.126687
O O1 0.701457 0.443550 0.710653
O O2 0.715625 0.177143 0.665328
O O3 0.651994 0.208543 0.725776
O O4 0.600410 0.324939 0.499799
O O5 0.329601 0.668600 0.731329
O O6 0.324810 0.697825 0.900233
O O7 0.346416 0.813869 0.097360
O O8 0.389417 0.545094 0.099921
O O9 0.260132 0.617088 0.949394
O O10 0.839211 0.439862 0.684034
O O11 0.880075 0.779822 0.140472
O O12 0.750000 0.750000 0.000000
O O13 0.000000 0.878973 0.250000
#
# Coordination Sequence:
#
# PCOD9262271 Si02
#       6
#     8   8   8   8   8   8
#     4  10  20  35  58  89 116 154 194 251 300 338
#     4  10  19  32  57  85 117 144 199 249 290 340
#     4   9  19  36  57  87 114 155 195 246 295 333
#     4  10  20  34  61  87 116 145 201 256 283 345
#     4  12  21  35  58  90 117 153 198 243 293 344
#     4  11  23  40  58  85 124 159 194 238 302 365
#
# _framework density 17.834807000000001
#
# number of rings (size 3 to 8) (size 9 to 14) (size 15 to 20)
#    0.000    1.667    3.333    3.000    4.667    1.333 
#    0.000    9.167    0.000    0.000    0.000    0.000 
#    0.000    0.000    0.000    0.000    0.000    0.000 
#
# Total GULP energy -133915.650866 kJ/mol
# GULP energy per Si atom -5579.818786 kJ/mol
# Density = 1.779421 g / cm^3
# Si number density = 17.834807 Si / 1000 Ang^3
#
#
#
# Elastic Constant Matrix: (Units=GPa)
#
#
# Indices 1 2 3 4 5 6 
#
# 1 67.3211 23.5835 49.8551 0.0000 -1.9323 0.0000
# 2 23.5835 73.1114 53.7474 0.0000 2.8549 0.0000
# 3 49.8551 53.7474 105.0555 0.0000 11.7763 0.0000
# 4 0.0000 0.0000 0.0000 22.0155 0.0000 -7.3183
# 5 -1.9323 2.8549 11.7763 0.0000 26.9318 0.0000
# 6 0.0000 0.0000 0.0000 -7.3183 0.0000 24.5626
#
#
#
# Elastic Compliance Matrix: (Units=1/GPa)
#
#
# Indices 1 2 3 4 5 6 
#
# 1 0.024229 0.001529 -0.013099 0.000000 0.007304 0.000000
# 2 0.001529 0.022210 -0.012447 0.000000 0.003198 0.000000
# 3 -0.013099 -0.012447 0.023197 0.000000 -0.009764 0.000000
# 4 0.000000 0.000000 0.000000 0.050416 0.000000 0.015021
# 5 0.007304 0.003198 -0.009764 0.000000 0.041585 0.000000
# 6 0.000000 0.000000 0.000000 0.015021 0.000000 0.045188
#
#
# Mechanical properties :
#
#
# Convention : Reuss Voigt Hill
#
# Bulk Modulus (GPa) = 46.29123 55.54000 50.91561
# Shear Modulus (GPa) = 19.07964 22.58878 20.83421
#
# Velocity S-wave (km/s) = 3.27432 3.56273 3.42157
# Velocity P-wave (km/s) = 6.34877 6.93780 6.64981
#
# Compressibility (1/GPa) = 0.02160237
#
# Stress axis : x y z
#
# Youngs Moduli (GPa) = 41.27333 45.02487 43.10816
#
# Poissons Ratio (x) = -0.06884 0.56467
# Poissons Ratio (y) = -0.06311 0.53656
# Poissons Ratio (z) = 0.54064 0.56042
#
# Static dielectric constant tensor:
#      x y z
#    x 1.588800 0.000000 -0.034810 
#    y 0.000000 1.618180 0.000000 
#    z -0.034810 0.000000 1.626210 
# 
# From -- ./inp_files/166139.got.cif
#   From: 2010.05.17/outbox.cif.g08.bks.cpg/sg15_84_cif.got.tgz:166139.got - 2010.06.03 18:47:42.
