data_PCOD9262901
_publ_section_title
;
Structure prediction by ZEFSAII (Michael W. Deem and Ramdas Pophale) SiO2 
 PCOD9262901
Probable space group: C 2/C
;
_chemical_formula_sum "Si O2"
_cell_formula_units_Z 56
_cell_length_a 28.208400
_cell_length_b 14.650555
_cell_length_c 10.330169
_cell_angle_alpha 90.000000
_cell_angle_beta 37.298809
_cell_angle_gamma 90.000000
_cell_volume 2586.976106
_symmetry_space_group_name_H-M "C 2/C"
_symmetry_group_IT_number 15
_symmetry_cell_setting 'monoclinic'
loop_
_space_group_symop_operation_xyz
x,y,z
-x,y,1/2-z
-x,-y,-z
x,-y,1/2+z
1/2+x,1/2+y,z
1/2-x,1/2+y,1/2-z
1/2-x,1/2-y,-z
1/2+x,1/2-y,1/2+z
loop_
_atom_site_type_symbol
_atom_site_label
_atom_site_fract_x
_atom_site_fract_y
_atom_site_fract_z
Si Si1 0.543862 0.828924 0.036354
Si Si2 0.383029 0.464078 0.994132
Si Si3 0.995684 0.872734 0.578160
Si Si4 0.716912 0.114197 0.207307
Si Si5 0.933430 0.366899 0.800673
Si Si6 0.110536 0.839532 0.105290
Si Si7 0.215786 0.478913 0.437078
O O1 0.500000 0.876866 0.250000
O O2 0.500906 0.731313 0.114599
O O3 0.638050 0.826209 0.855821
O O4 0.534868 0.870816 0.914639
O O5 0.296170 0.433694 0.214300
O O6 0.414860 0.422701 0.789058
O O7 0.441119 0.426678 0.974421
O O8 0.383056 0.573661 0.001532
O O9 0.034543 0.868128 0.354374
O O10 0.714383 0.036960 0.096799
O O11 0.712244 0.073903 0.364051
O O12 0.803640 0.159991 0.010443
O O13 0.908736 0.263220 0.892805
O O14 0.856308 0.425379 0.965453
O O15 0.000000 0.399701 0.750000
#
# Coordination Sequence:
#
# PCOD9262901 Si02
#       7
#     8   8   8   8   8   8   8
#     4  10  21  38  62  89 113 153 200 250 287 353
#     4  10  19  33  57  86 118 147 191 239 294 339
#     4  10  19  33  57  87 120 148 195 233 286 357
#     4  10  22  39  64  88 115 155 202 244 301 343
#     4  10  24  40  60  85 122 160 198 241 298 349
#     4  10  21  36  58  87 121 159 192 240 290 366
#     4  10  22  41  62  86 120 156 199 249 290 355
#
# _framework density 21.646896000000002
#
# number of rings (size 3 to 8) (size 9 to 14) (size 15 to 20)
#    0.000    2.000    2.857    0.429    4.000    3.429 
#    0.000    2.857    0.000    7.714    0.000    0.000 
#    0.000    0.000    0.000    0.000    0.000    0.000 
#
# Total GULP energy -155972.756461 kJ/mol
# GULP energy per Si atom -5570.455588 kJ/mol
# Density = 2.159763 g / cm^3
# Si number density = 21.646896 Si / 1000 Ang^3
#
#
#
# Elastic Constant Matrix: (Units=GPa)
#
#
# Indices 1 2 3 4 5 6 
#
# 1 55.3124 -1.7946 25.1619 0.0000 -17.5442 0.0000
# 2 -1.7946 41.3850 13.1540 0.0000 6.9086 0.0000
# 3 25.1619 13.1540 100.7550 0.0000 -4.1750 0.0000
# 4 0.0000 0.0000 0.0000 17.2688 0.0000 -3.4241
# 5 -17.5442 6.9086 -4.1750 0.0000 20.7232 0.0000
# 6 0.0000 0.0000 0.0000 -3.4241 0.0000 20.5091
#
#
#
# Elastic Compliance Matrix: (Units=1/GPa)
#
#
# Indices 1 2 3 4 5 6 
#
# 1 0.027967 -0.000685 -0.005954 0.000000 0.022706 0.000000
# 2 -0.000685 0.027070 -0.003793 0.000000 -0.010369 0.000000
# 3 -0.005954 -0.003793 0.011850 0.000000 -0.001389 0.000000
# 4 0.000000 0.000000 0.000000 0.059890 0.000000 0.009999
# 5 0.022706 -0.010369 -0.001389 0.000000 0.070654 0.000000
# 6 0.000000 0.000000 0.000000 0.009999 0.000000 0.050428
#
#
# Mechanical properties :
#
#
# Convention : Reuss Voigt Hill
#
# Bulk Modulus (GPa) = 21.72818 30.05500 25.89159
# Shear Modulus (GPa) = 17.60161 22.42897 20.01529
#
# Velocity S-wave (km/s) = 2.85463 3.22239 3.04407
# Velocity P-wave (km/s) = 4.57433 5.26872 4.93376
#
# Compressibility (1/GPa) = 0.04602317
#
# Stress axis : x y z
#
# Youngs Moduli (GPa) = 35.75596 36.94126 84.39117
#
# Poissons Ratio (x) = 0.02531 0.50247
# Poissons Ratio (y) = 0.02450 0.32006
# Poissons Ratio (z) = 0.21289 0.14010
#
# Static dielectric constant tensor:
#      x y z
#    x 1.837860 0.000000 0.059430 
#    y 0.000000 1.835270 0.000000 
#    z 0.059430 0.000000 1.852230 
# 
# From -- ./inp_files/127001.got.cif
#   From: 2010.05.17/outbox.cif.g08.bks.cpg/sg15_64_cif.got.tgz:127001.got - 2010.06.03 18:47:42.
