data_PCOD9262391
_publ_section_title
;
Structure prediction by ZEFSAII (Michael W. Deem and Ramdas Pophale) SiO2 
 PCOD9262391
Probable space group: C 2/C
;
_chemical_formula_sum "Si O2"
_cell_formula_units_Z 52
_cell_length_a 27.287004
_cell_length_b 7.016187
_cell_length_c 13.380192
_cell_angle_alpha 90.000000
_cell_angle_beta 123.045063
_cell_angle_gamma 90.000000
_cell_volume 2147.280339
_symmetry_space_group_name_H-M "C 2/C"
_symmetry_group_IT_number 15
_symmetry_cell_setting 'monoclinic'
loop_
_space_group_symop_operation_xyz
x,y,z
-x,y,1/2-z
-x,-y,-z
x,-y,1/2+z
1/2+x,1/2+y,z
1/2-x,1/2+y,1/2-z
1/2-x,1/2-y,-z
1/2+x,1/2-y,1/2+z
loop_
_atom_site_type_symbol
_atom_site_label
_atom_site_fract_x
_atom_site_fract_y
_atom_site_fract_z
Si Si1 0.072828 0.213121 0.103536
Si Si2 0.774997 0.914731 0.411077
Si Si3 0.165508 0.694663 0.298784
Si Si4 0.191454 0.124654 0.321715
Si Si5 0.000000 0.865292 0.250000
Si Si6 0.381338 0.346340 0.044508
Si Si7 0.046303 0.758068 0.089111
O O1 0.128927 0.225575 0.236055
O O2 0.061259 0.982257 0.086823
O O3 0.095164 0.279012 0.019942
O O4 0.007273 0.294327 0.044401
O O5 0.796754 0.866764 0.547103
O O6 0.746801 0.726789 0.332018
O O7 0.719023 0.051990 0.355961
O O8 0.831596 0.026312 0.437583
O O9 0.144567 0.730752 0.390717
O O10 0.108133 0.651764 0.167763
O O11 0.187947 0.903511 0.292354
O O12 0.938565 0.961691 0.149034
O O13 0.979804 0.754463 0.326829
#
# Coordination Sequence:
#
# PCOD9262391 Si02
#       7
#     8   8   8   8   4   8   8
#     4   9  16  29  47  76 103 129 159 213 260 289
#     4  10  19  33  50  73  97 136 176 198 242 309
#     4   9  17  33  54  72  95 136 171 204 243 302
#     4   9  18  32  49  69 100 131 164 208 249 285
#     4   8  14  26  48  72  92 130 174 206 234 300
#     4   9  16  28  47  74  97 126 170 201 246 299
#     4   8  15  28  50  73 100 129 171 206 253 299
#
# _framework density 24.21668
#
# number of rings (size 3 to 8) (size 9 to 14) (size 15 to 20)
#    0.000    3.077    0.000    2.769    0.000    0.000 
#    8.308    0.769    0.000    0.000    0.000  287.538 
#    0.000    0.000    0.000    0.000    0.000    0.000 
#
# Total GULP energy -144830.529746 kJ/mol
# GULP energy per Si atom -5570.404990 kJ/mol
# Density = 2.416156 g / cm^3
# Si number density = 24.216680 Si / 1000 Ang^3
#
#
#
# Elastic Constant Matrix: (Units=GPa)
#
#
# Indices 1 2 3 4 5 6 
#
# 1 81.3133 28.0982 51.8620 0.0000 28.2521 0.0000
# 2 28.0982 55.1595 36.9382 0.0000 16.3168 0.0000
# 3 51.8620 36.9382 190.4316 0.0000 60.4432 0.0000
# 4 0.0000 0.0000 0.0000 14.5468 0.0000 -6.2302
# 5 28.2521 16.3168 60.4432 0.0000 63.3274 0.0000
# 6 0.0000 0.0000 0.0000 -6.2302 0.0000 -2.1289
#
#
#
# Elastic Compliance Matrix: (Units=1/GPa)
#
#
# Indices 1 2 3 4 5 6 
#
# 1 0.017214 -0.006090 -0.002248 0.000000 -0.003964 0.000000
# 2 -0.006090 0.023200 -0.002592 0.000000 -0.000787 0.000000
# 3 -0.002248 -0.002592 0.008372 0.000000 -0.006320 0.000000
# 4 0.000000 0.000000 0.000000 0.030507 0.000000 -0.089277
# 5 -0.003964 -0.000787 -0.006320 0.000000 0.023795 0.000000
# 6 0.000000 0.000000 0.000000 -0.089277 0.000000 -0.208453
#
#
# Mechanical properties :
#
#
# Convention : Reuss Voigt Hill
#
# Bulk Modulus (GPa) = 37.13969 62.30013 49.71991
# Shear Modulus (GPa) = -67.08885 29.14946 -18.96969
#
# Velocity S-wave (km/s) = -5.26913 3.47319 -2.80184
# Velocity P-wave (km/s) = 4.65280 6.47040 3.17942
#
# Compressibility (1/GPa) = 0.02692538
#
# Stress axis : x y z
#
# Youngs Moduli (GPa) = 58.09165 43.10337 119.44173
#
# Poissons Ratio (x) = 0.26252 0.26855
# Poissons Ratio (y) = 0.35381 0.30956
# Poissons Ratio (z) = 0.13061 0.11171
#
# Static dielectric constant tensor:
#      x y z
#    x 2.076040 0.000000 0.028590 
#    y 0.000000 1.984490 0.000000 
#    z 0.028590 0.000000 1.988260 
# 
# From -- ./inp_files/224119.got.cif
#   From: 2010.05.17/outbox.cif.g08.bks.cpg/sg15_113_cif.got.tgz:224119.got - 2010.06.03 18:47:42.
