data_PCOD9262315
_publ_section_title
;
Structure prediction by ZEFSAII (Michael W. Deem and Ramdas Pophale) SiO2 
 PCOD9262315
Probable space group: C 2/C
;
_chemical_formula_sum "Si O2"
_cell_formula_units_Z 60
_cell_length_a 12.366103
_cell_length_b 19.031612
_cell_length_c 15.611710
_cell_angle_alpha 90.000000
_cell_angle_beta 136.946154
_cell_angle_gamma 90.000000
_cell_volume 2508.300189
_symmetry_space_group_name_H-M "C 2/C"
_symmetry_group_IT_number 15
_symmetry_cell_setting 'monoclinic'
loop_
_space_group_symop_operation_xyz
x,y,z
-x,y,1/2-z
-x,-y,-z
x,-y,1/2+z
1/2+x,1/2+y,z
1/2-x,1/2+y,1/2-z
1/2-x,1/2-y,-z
1/2+x,1/2-y,1/2+z
loop_
_atom_site_type_symbol
_atom_site_label
_atom_site_fract_x
_atom_site_fract_y
_atom_site_fract_z
Si Si1 0.827661 0.456391 0.989710
Si Si2 0.100979 0.442348 0.672078
Si Si3 0.000000 0.942346 0.750000
Si Si4 0.789025 0.304123 0.265810
Si Si5 0.548056 0.695115 0.868508
Si Si6 0.633283 0.169264 0.510037
Si Si7 0.619230 0.355854 0.661332
Si Si8 0.257066 0.321991 0.449795
O O1 0.866460 0.455130 0.910576
O O2 0.642703 0.483519 0.879619
O O3 0.807089 0.383080 0.026782
O O4 0.972551 0.497598 0.119590
O O5 0.266029 0.416978 0.811720
O O6 0.996473 0.372703 0.615089
O O7 0.084361 0.889210 0.733658
O O8 0.614120 0.333035 0.187250
O O9 0.889018 0.337386 0.401064
O O10 0.794093 0.219457 0.281053
O O11 0.830625 0.317510 0.192183
O O12 0.500000 0.730995 0.750000
O O13 0.614915 0.749360 0.976051
O O14 0.693625 0.647316 0.923098
O O15 0.440058 0.338804 0.529406
O O16 0.250000 0.250000 0.500000
#
# Coordination Sequence:
#
# PCOD9262315 Si02
#       8
#     8   8   4   8   8   8   8   8
#     4   9  20  36  60  91 125 173 218 273 328 414
#     4  10  19  38  61  87 125 174 223 264 333 403
#     4   8  16  34  50  86 118 156 218 264 326 394
#     4  11  20  34  59  95 133 169 212 286 340 396
#     4   9  19  35  56  89 127 163 217 274 331 393
#     4  10  20  35  58  91 124 169 217 277 332 391
#     4  10  19  32  59  90 126 172 212 267 341 396
#     4  11  23  38  63 102 138 173 225 285 345 409
#
# _framework density 23.920580999999999
#
# number of rings (size 3 to 8) (size 9 to 14) (size 15 to 20)
#    0.000    2.133    1.333    3.200    1.867    0.000 
#    3.600    0.000    0.000    4.000    0.000    0.000 
#    0.000    0.000    0.000    0.000    0.000    0.000 
#
# Total GULP energy -167066.699796 kJ/mol
# GULP energy per Si atom -5568.889993 kJ/mol
# Density = 2.386614 g / cm^3
# Si number density = 23.920581 Si / 1000 Ang^3
#
#
#
# Elastic Constant Matrix: (Units=GPa)
#
#
# Indices 1 2 3 4 5 6 
#
# 1 81.3393 8.5183 41.8054 0.0000 -3.9919 0.0000
# 2 8.5183 70.2516 30.0531 0.0000 7.7875 0.0000
# 3 41.8054 30.0531 84.8129 -0.0001 18.0522 0.0000
# 4 0.0000 0.0000 -0.0001 23.5417 0.0000 11.9278
# 5 -3.9919 7.7875 18.0522 0.0000 44.9439 0.0000
# 6 0.0000 0.0000 0.0000 11.9278 0.0000 15.3215
#
#
#
# Elastic Compliance Matrix: (Units=1/GPa)
#
#
# Indices 1 2 3 4 5 6 
#
# 1 0.017821 0.001753 -0.010582 0.000000 0.005530 0.000000
# 2 0.001753 0.016964 -0.006870 0.000000 -0.000024 0.000000
# 3 -0.010582 -0.006870 0.021200 0.000000 -0.008265 0.000000
# 4 0.000000 0.000000 0.000000 0.070147 0.000000 -0.054609
# 5 0.005530 -0.000024 -0.008265 0.000000 0.026065 0.000000
# 6 0.000000 0.000000 0.000000 -0.054609 0.000000 0.107781
#
#
# Mechanical properties :
#
#
# Convention : Reuss Voigt Hill
#
# Bulk Modulus (GPa) = 40.67266 44.12861 42.40063
# Shear Modulus (GPa) = 16.69049 27.16322 21.92685
#
# Velocity S-wave (km/s) = 2.64435 3.37346 3.03091
# Velocity P-wave (km/s) = 5.13455 5.80187 5.47838
#
# Compressibility (1/GPa) = 0.02458654
#
# Stress axis : x y z
#
# Youngs Moduli (GPa) = 56.11392 58.94982 47.16902
#
# Poissons Ratio (x) = -0.10335 0.49916
# Poissons Ratio (y) = -0.09838 0.32405
# Poissons Ratio (z) = 0.59382 0.40499
#
# Static dielectric constant tensor:
#      x y z
#    x 1.950130 0.000000 0.038700 
#    y 0.000000 1.916520 0.000000 
#    z 0.038700 0.000000 2.089150 
# 
# From -- ./inp_files/275019.got.cif
#   From: 2010.05.17/outbox.cif.g08.bks.cpg/sg15_138_cif.got.tgz:275019.got - 2010.06.03 18:47:42.
