data_PCOD9262279
_publ_section_title
;
Structure prediction by ZEFSAII (Michael W. Deem and Ramdas Pophale) SiO2 
 PCOD9262279
Probable space group: C 2/C
;
_chemical_formula_sum "Si O2"
_cell_formula_units_Z 64
_cell_length_a 7.979330
_cell_length_b 13.763954
_cell_length_c 27.810812
_cell_angle_alpha 90.000000
_cell_angle_beta 67.865087
_cell_angle_gamma 90.000000
_cell_volume 2829.271344
_symmetry_space_group_name_H-M "C 2/C"
_symmetry_group_IT_number 15
_symmetry_cell_setting 'monoclinic'
loop_
_space_group_symop_operation_xyz
x,y,z
-x,y,1/2-z
-x,-y,-z
x,-y,1/2+z
1/2+x,1/2+y,z
1/2-x,1/2+y,1/2-z
1/2-x,1/2-y,-z
1/2+x,1/2-y,1/2+z
loop_
_atom_site_type_symbol
_atom_site_label
_atom_site_fract_x
_atom_site_fract_y
_atom_site_fract_z
Si Si1 0.856758 0.480189 0.417567
Si Si2 0.321300 0.409869 0.480940
Si Si3 0.012250 0.289771 0.549007
Si Si4 0.765260 0.969016 0.382964
Si Si5 0.159597 0.256448 0.061574
Si Si6 0.844905 0.263816 0.151460
Si Si7 0.112792 0.149137 0.189907
Si Si8 0.041079 0.350375 0.652054
O O1 0.704844 0.520208 0.470591
O O2 0.835365 0.365400 0.417864
O O3 0.882866 0.540318 0.365533
O O4 0.057604 0.499007 0.417510
O O5 0.123562 0.357395 0.501263
O O6 0.453919 0.319305 0.472771
O O7 0.356892 0.452238 0.424705
O O8 0.083274 0.300856 0.595348
O O9 0.800231 0.308973 0.575227
O O10 0.727063 0.872281 0.354129
O O11 0.874976 0.049817 0.342274
O O12 0.954287 0.227384 0.091785
O O13 0.250000 0.250000 0.000000
O O14 0.665811 0.200524 0.177630
O O15 0.997694 0.235121 0.174814
O O16 0.325983 0.164051 0.180939
O O17 0.000000 0.131120 0.250000
#
# Coordination Sequence:
#
# PCOD9262279 Si02
#       8
#     8   8   8   8   8   8   8   8
#     4   9  21  33  57  86 136 175 213 269 311 380
#     4  10  19  32  57  90 132 182 210 262 324 375
#     4  10  19  34  56  89 137 173 216 269 312 386
#     4  10  21  41  64  95 133 171 221 271 330 402
#     4  11  23  34  55  95 130 178 232 252 316 404
#     4  11  23  44  71  97 133 179 216 271 345 404
#     4  11  26  48  72  98 126 164 225 290 351 410
#     4  10  21  44  65  92 131 169 216 278 336 400
#
# _framework density 22.620667000000001
#
# number of rings (size 3 to 8) (size 9 to 14) (size 15 to 20)
#    0.000    1.750    2.500    1.875    5.250    2.000 
#    2.250    0.000    0.000    0.000    0.000    0.000 
#    0.000    0.000    0.000    0.000    0.000    0.000 
#
# Total GULP energy -178311.911091 kJ/mol
# GULP energy per Si atom -5572.247222 kJ/mol
# Density = 2.256918 g / cm^3
# Si number density = 22.620667 Si / 1000 Ang^3
#
#
#
# Elastic Constant Matrix: (Units=GPa)
#
#
# Indices 1 2 3 4 5 6 
#
# 1 87.9540 34.0024 31.2798 0.0000 -21.3663 0.0000
# 2 34.0024 88.2462 37.5901 0.0000 -10.5721 0.0000
# 3 31.2798 37.5901 107.7431 0.0000 -18.3276 0.0000
# 4 0.0000 0.0000 0.0000 20.0308 0.0000 -1.0811
# 5 -21.3663 -10.5721 -18.3276 0.0000 20.6937 0.0000
# 6 0.0000 0.0000 0.0000 -1.0811 0.0000 31.1881
#
#
#
# Elastic Compliance Matrix: (Units=1/GPa)
#
#
# Indices 1 2 3 4 5 6 
#
# 1 0.016888 -0.004391 -0.000926 0.000000 0.014374 0.000000
# 2 -0.004391 0.014630 -0.003920 0.000000 -0.000531 0.000000
# 3 -0.000926 -0.003920 0.012262 0.000000 0.007901 0.000000
# 4 0.000000 0.000000 0.000000 0.050017 0.000000 0.001734
# 5 0.014374 -0.000531 0.007901 0.000000 0.069891 0.000000
# 6 0.000000 0.000000 0.000000 0.001734 0.000000 0.032124
#
#
# Mechanical properties :
#
#
# Convention : Reuss Voigt Hill
#
# Bulk Modulus (GPa) = 39.51533 54.40976 46.96254
# Shear Modulus (GPa) = 22.44972 26.45390 24.45181
#
# Velocity S-wave (km/s) = 3.15372 3.42344 3.29135
# Velocity P-wave (km/s) = 5.54688 6.30333 5.93716
#
# Compressibility (1/GPa) = 0.02530664
#
# Stress axis : x y z
#
# Youngs Moduli (GPa) = 59.21332 68.35346 81.55458
#
# Poissons Ratio (x) = 0.30012 0.07552
# Poissons Ratio (y) = 0.25999 0.31967
# Poissons Ratio (z) = 0.05483 0.26793
#
# Static dielectric constant tensor:
#      x y z
#    x 1.954860 0.000000 0.096960 
#    y 0.000000 1.944500 0.000000 
#    z 0.096960 0.000000 1.939450 
# 
# From -- ./inp_files/308002.got.cif
#   From: 2010.05.17/outbox.cif.g08.bks.cpg/sg15_155_cif.got.tgz:308002.got - 2010.06.03 18:47:42.
