data_PCOD9262752
_publ_section_title
;
Structure prediction by ZEFSAII (Michael W. Deem and Ramdas Pophale) SiO2 
 PCOD9262752
Probable space group: C 2/C
;
_chemical_formula_sum "Si O2"
_cell_formula_units_Z 40
_cell_length_a 4.863171
_cell_length_b 22.803198
_cell_length_c 22.214869
_cell_angle_alpha 90.000000
_cell_angle_beta 128.963764
_cell_angle_gamma 90.000000
_cell_volume 1915.507800
_symmetry_space_group_name_H-M "C 2/C"
_symmetry_group_IT_number 15
_symmetry_cell_setting 'monoclinic'
loop_
_space_group_symop_operation_xyz
x,y,z
-x,y,1/2-z
-x,-y,-z
x,-y,1/2+z
1/2+x,1/2+y,z
1/2-x,1/2+y,1/2-z
1/2-x,1/2-y,-z
1/2+x,1/2-y,1/2+z
loop_
_atom_site_type_symbol
_atom_site_label
_atom_site_fract_x
_atom_site_fract_y
_atom_site_fract_z
Si Si1 0.090117 0.186168 0.984816
Si Si2 0.946538 0.551807 0.894994
Si Si3 0.090573 0.055699 0.195681
Si Si4 0.264989 0.616724 0.043444
Si Si5 0.712616 0.619846 0.659923
O O1 0.398942 0.137332 0.022454
O O2 0.893087 0.170200 0.019150
O O3 0.250000 0.250000 0.000000
O O4 0.839549 0.172757 0.893551
O O5 0.709195 0.494227 0.856385
O O6 0.656912 0.603784 0.860001
O O7 0.176323 0.565290 0.867765
O O8 0.186171 0.562096 0.987208
O O9 0.500000 0.035461 0.250000
O O10 0.000000 0.079152 0.250000
O O11 0.032996 0.100105 0.132764
O O12 0.000000 0.629606 0.750000
#
# Coordination Sequence:
#
# PCOD9262752 Si02
#       5
#     8   8   8   8   8
#     4  10  21  39  61  81 108 150 192 238 294 342
#     4  10  20  35  57  81 113 151 187 228 280 338
#     4  12  23  36  56  85 121 158 188 226 281 348
#     4  10  22  39  58  82 113 149 194 238 281 344
#     4  10  19  33  55  85 111 138 187 244 284 326
#
# _framework density 20.882189
#
# number of rings (size 3 to 8) (size 9 to 14) (size 15 to 20)
#    0.000    1.600    0.000    6.000    0.000    0.000 
#    0.000   11.000    0.000    2.400    0.000    0.000 
#    0.000    0.000    0.000    0.000    0.000    0.000 
#
# Total GULP energy -111735.802322 kJ/mol
# GULP energy per Si atom -5586.790116 kJ/mol
# Density = 2.083466 g / cm^3
# Si number density = 20.882189 Si / 1000 Ang^3
#
#
#
# Elastic Constant Matrix: (Units=GPa)
#
#
# Indices 1 2 3 4 5 6 
#
# 1 79.9888 -7.7559 15.0747 0.0000 -2.4114 0.0000
# 2 -7.7559 39.1354 25.5732 0.0000 -10.4572 0.0000
# 3 15.0747 25.5732 122.7380 0.0000 -31.0232 0.0000
# 4 0.0000 0.0000 0.0000 21.2050 0.0000 10.5028
# 5 -2.4114 -10.4572 -31.0232 0.0000 24.8344 0.0000
# 6 0.0000 0.0000 0.0000 10.5028 0.0000 24.7936
#
#
#
# Elastic Compliance Matrix: (Units=1/GPa)
#
#
# Indices 1 2 3 4 5 6 
#
# 1 0.013400 0.004309 -0.002566 0.000000 -0.000091 0.000000
# 2 0.004309 0.031809 -0.005357 0.000000 0.007121 0.000000
# 3 -0.002566 -0.005357 0.013074 0.000000 0.013827 0.000000
# 4 0.000000 0.000000 0.000000 0.059680 0.000000 -0.025281
# 5 -0.000091 0.007121 0.013827 0.000000 0.060529 0.000000
# 6 0.000000 0.000000 0.000000 -0.025281 0.000000 0.051042
#
#
# Mechanical properties :
#
#
# Convention : Reuss Voigt Hill
#
# Bulk Modulus (GPa) = 19.58722 34.18289 26.88506
# Shear Modulus (GPa) = 19.70187 28.09794 23.89990
#
# Velocity S-wave (km/s) = 3.07494 3.67215 3.38673
# Velocity P-wave (km/s) = 4.69119 5.86383 5.30998
#
# Compressibility (1/GPa) = 0.05105370
#
# Stress axis : x y z
#
# Youngs Moduli (GPa) = 74.62429 31.43718 76.48961
#
# Poissons Ratio (x) = -0.13545 0.19631
# Poissons Ratio (y) = -0.32152 0.40976
# Poissons Ratio (z) = 0.19152 0.16841
#
# Static dielectric constant tensor:
#      x y z
#    x 1.734340 0.000000 -0.005020 
#    y 0.000000 1.742940 0.000000 
#    z -0.005020 0.000000 1.755390 
# 
# From -- ./inp_files/129123.got.cif
#   From: 2010.05.17/outbox.cif.g08.bks.cpg/sg15_65_cif.got.tgz:129123.got - 2010.06.03 18:47:42.
