data_PCOD9262005
_publ_section_title
;
Structure prediction by ZEFSAII (Michael W. Deem and Ramdas Pophale) SiO2 
 PCOD9262005
Probable space group: C 2/C
;
_chemical_formula_sum "Si O2"
_cell_formula_units_Z 56
_cell_length_a 8.031996
_cell_length_b 16.153239
_cell_length_c 26.327890
_cell_angle_alpha 90.000000
_cell_angle_beta 44.354853
_cell_angle_gamma 90.000000
_cell_volume 2388.023241
_symmetry_space_group_name_H-M "C 2/C"
_symmetry_group_IT_number 15
_symmetry_cell_setting 'monoclinic'
loop_
_space_group_symop_operation_xyz
x,y,z
-x,y,1/2-z
-x,-y,-z
x,-y,1/2+z
1/2+x,1/2+y,z
1/2-x,1/2+y,1/2-z
1/2-x,1/2-y,-z
1/2+x,1/2-y,1/2+z
loop_
_atom_site_type_symbol
_atom_site_label
_atom_site_fract_x
_atom_site_fract_y
_atom_site_fract_z
Si Si1 0.335156 0.461536 0.163475
Si Si2 0.739250 0.986538 0.293540
Si Si3 0.893381 0.448248 0.070017
Si Si4 0.948017 0.267399 0.027251
Si Si5 0.685497 0.346561 0.857985
Si Si6 0.229014 0.677972 0.270018
Si Si7 0.893727 0.786980 0.112186
O O1 0.182224 0.454875 0.249243
O O2 0.610209 0.456077 0.122322
O O3 0.309931 0.553446 0.145825
O O4 0.316826 0.382600 0.131182
O O5 0.766515 0.084610 0.280340
O O6 0.000000 0.949723 0.250000
O O7 0.572191 0.974641 0.378795
O O8 0.988439 0.355745 0.043722
O O9 0.000000 0.500000 0.000000
O O10 0.965364 0.194228 0.064432
O O11 0.672599 0.276521 0.067882
O O12 0.108527 0.250049 0.943421
O O13 0.629782 0.312894 0.813602
O O14 0.953319 0.318694 0.812998
O O15 0.249297 0.738521 0.313058
#
# Coordination Sequence:
#
# PCOD9262005 Si02
#       7
#     8   8   8   8   8   8   8
#     4   9  19  33  51  76 102 131 173 212 257 302
#     4   9  18  32  52  74  99 130 170 210 249 304
#     4  10  19  32  52  74 102 135 171 214 255 306
#     4   9  18  30  47  74  99 128 170 206 250 306
#     4   9  18  32  51  76 101 129 167 217 257 302
#     4   9  17  31  54  73  99 133 167 208 258 305
#     4   9  17  30  49  72  99 131 166 205 250 307
#
# _framework density 23.450358000000001
#
# number of rings (size 3 to 8) (size 9 to 14) (size 15 to 20)
#    0.000    2.857    0.000    0.857    2.000    1.714 
#    0.000    0.714    6.286    0.000    0.000    0.000 
#    0.000    0.000    0.000    0.000    0.000    0.000 
#
# Total GULP energy -156354.004867 kJ/mol
# GULP energy per Si atom -5584.071602 kJ/mol
# Density = 2.339698 g / cm^3
# Si number density = 23.450358 Si / 1000 Ang^3
#
#
#
# Elastic Constant Matrix: (Units=GPa)
#
#
# Indices 1 2 3 4 5 6 
#
# 1 65.4907 20.2931 53.9227 -0.0014 15.3596 0.0025
# 2 20.2931 65.0370 78.8530 -0.0009 27.9092 0.0007
# 3 53.9227 78.8530 188.8162 0.0011 39.0456 0.0002
# 4 -0.0014 -0.0009 0.0011 35.0658 0.0006 8.1215
# 5 15.3596 27.9092 39.0456 0.0006 42.8230 -0.0014
# 6 0.0025 0.0007 0.0002 8.1215 -0.0014 22.6449
#
#
#
# Elastic Compliance Matrix: (Units=1/GPa)
#
#
# Indices 1 2 3 4 5 6 
#
# 1 0.020361 0.002619 -0.006218 0.000002 -0.003341 -0.000003
# 2 0.002619 0.035758 -0.013146 0.000002 -0.012257 -0.000003
# 3 -0.006218 -0.013146 0.012729 -0.000001 -0.000808 0.000001
# 4 0.000002 0.000002 -0.000001 0.031101 -0.000002 -0.011154
# 5 -0.003341 -0.012257 -0.000808 -0.000002 0.033276 0.000003
# 6 -0.000003 -0.000003 0.000001 -0.011154 0.000003 0.048160
#
#
# Mechanical properties :
#
#
# Convention : Reuss Voigt Hill
#
# Bulk Modulus (GPa) = 28.28256 69.49795 48.89026
# Shear Modulus (GPa) = 22.05947 31.19173 26.62560
#
# Velocity S-wave (km/s) = 3.07039 3.65103 3.37323
# Velocity P-wave (km/s) = 4.96553 6.89013 6.00543
#
# Compressibility (1/GPa) = 0.03535747
#
# Stress axis : x y z
#
# Youngs Moduli (GPa) = 49.11441 27.96612 78.56068
#
# Poissons Ratio (x) = -0.07324 0.48845
# Poissons Ratio (y) = -0.12863 1.03278
# Poissons Ratio (z) = 0.30537 0.36765
#
# Static dielectric constant tensor:
#      x y z
#    x 1.986680 0.000000 -0.054080 
#    y 0.000000 1.830350 0.000000 
#    z -0.054080 0.000000 1.923830 
# 
# From -- ./inp_files/238317.got.cif
#   From: 2010.05.17/outbox.cif.g08.bks.cpg/sg15_120_cif.got.tgz:238317.got - 2010.06.03 18:47:42.
