data_PCOD9262155
_publ_section_title
;
Structure prediction by ZEFSAII (Michael W. Deem and Ramdas Pophale) SiO2 
 PCOD9262155
Probable space group: C 2/C
;
_chemical_formula_sum "Si O2"
_cell_formula_units_Z 48
_cell_length_a 11.135026
_cell_length_b 11.845640
_cell_length_c 20.860232
_cell_angle_alpha 90.000000
_cell_angle_beta 140.715631
_cell_angle_gamma 90.000000
_cell_volume 1742.164051
_symmetry_space_group_name_H-M "C 2/C"
_symmetry_group_IT_number 15
_symmetry_cell_setting 'monoclinic'
loop_
_space_group_symop_operation_xyz
x,y,z
-x,y,1/2-z
-x,-y,-z
x,-y,1/2+z
1/2+x,1/2+y,z
1/2-x,1/2+y,1/2-z
1/2-x,1/2-y,-z
1/2+x,1/2-y,1/2+z
loop_
_atom_site_type_symbol
_atom_site_label
_atom_site_fract_x
_atom_site_fract_y
_atom_site_fract_z
Si Si1 0.908729 0.257148 0.298517
Si Si2 0.553230 0.990943 0.692069
Si Si3 0.993132 0.053746 0.403379
Si Si4 0.679567 0.900774 0.613087
Si Si5 0.811689 0.352047 0.392392
Si Si6 0.309129 0.631899 0.450225
O O1 0.997856 0.377673 0.322478
O O2 0.044909 0.154423 0.376437
O O3 0.793947 0.203435 0.191637
O O4 0.784748 0.289331 0.312061
O O5 0.778100 0.980540 0.796895
O O6 0.544697 0.937931 0.617240
O O7 0.380632 0.927012 0.653207
O O8 0.974968 0.111468 0.465856
O O9 0.117605 0.942865 0.460898
O O10 0.537352 0.870275 0.497417
O O11 0.778310 0.023193 0.642296
O O12 0.762616 0.263286 0.427702
#
# Coordination Sequence:
#
# PCOD9262155 Si02
#       6
#     8   8   8   8   8   8
#     4   9  18  33  55  81 115 157 199 245 296 360
#     4  10  19  32  54  83 113 155 208 249 296 362
#     4   9  19  34  51  78 114 152 195 251 310 353
#     4   9  18  34  56  82 119 162 197 244 314 365
#     4   9  18  33  54  84 119 156 197 248 305 362
#     4  10  19  32  54  83 114 151 204 253 301 363
#
# _framework density 27.551939999999998
#
# number of rings (size 3 to 8) (size 9 to 14) (size 15 to 20)
#    0.000    2.667    0.000    1.500    0.000    1.333 
#    0.000    0.000    0.000   12.000    0.000   42.000 
#    0.000    9.333    0.000    0.000    0.000    0.000 
#
# Total GULP energy -134026.326822 kJ/mol
# GULP energy per Si atom -5584.430284 kJ/mol
# Density = 2.748923 g / cm^3
# Si number density = 27.551940 Si / 1000 Ang^3
#
#
#
# Elastic Constant Matrix: (Units=GPa)
#
#
# Indices 1 2 3 4 5 6 
#
# 1 43.9454 16.5094 16.2513 0.0000 1.5591 0.0000
# 2 16.5094 240.6211 42.7207 0.0000 19.6793 0.0000
# 3 16.2513 42.7207 123.2981 0.0000 13.9544 0.0000
# 4 0.0000 0.0000 0.0000 44.3979 0.0000 -9.4184
# 5 1.5591 19.6793 13.9544 0.0000 30.5116 0.0000
# 6 0.0000 0.0000 0.0000 -9.4184 0.0000 42.1719
#
#
#
# Elastic Compliance Matrix: (Units=1/GPa)
#
#
# Indices 1 2 3 4 5 6 
#
# 1 0.024246 -0.001225 -0.002869 0.000000 0.000863 0.000000
# 2 -0.001225 0.004645 -0.001177 0.000000 -0.002395 0.000000
# 3 -0.002869 -0.001177 0.009274 0.000000 -0.003336 0.000000
# 4 0.000000 0.000000 0.000000 0.023644 0.000000 0.005280
# 5 0.000863 -0.002395 -0.003336 0.000000 0.035801 0.000000
# 6 0.000000 0.000000 0.000000 0.005280 0.000000 0.024892
#
#
# Mechanical properties :
#
#
# Convention : Reuss Voigt Hill
#
# Bulk Modulus (GPa) = 36.20141 62.09193 49.14667
# Shear Modulus (GPa) = 35.14941 45.57516 40.36229
#
# Velocity S-wave (km/s) = 3.57564 4.07154 3.83162
# Velocity P-wave (km/s) = 5.49680 6.68495 6.11978
#
# Compressibility (1/GPa) = 0.02762323
#
# Stress axis : x y z
#
# Youngs Moduli (GPa) = 41.24393 215.29637 107.82992
#
# Poissons Ratio (x) = 0.26369 0.30937
# Poissons Ratio (y) = 0.05051 0.12690
# Poissons Ratio (z) = 0.11833 0.25337
#
# Static dielectric constant tensor:
#      x y z
#    x 2.253530 0.000000 -0.124350 
#    y 0.000000 2.150920 0.000000 
#    z -0.124350 0.000000 2.130910 
# 
# From -- ./inp_files/296202.got.cif
#   From: 2010.05.17/outbox.cif.g08.bks.cpg/sg15_149_cif.got.tgz:296202.got - 2010.06.03 18:47:42.
