data_PCOD9262268
_publ_section_title
;
Structure prediction by ZEFSAII (Michael W. Deem and Ramdas Pophale) SiO2 
 PCOD9262268
Probable space group: C 2/C
;
_chemical_formula_sum "Si O2"
_cell_formula_units_Z 60
_cell_length_a 15.275494
_cell_length_b 18.321666
_cell_length_c 23.299530
_cell_angle_alpha 90.000000
_cell_angle_beta 30.402903
_cell_angle_gamma 90.000000
_cell_volume 3300.079367
_symmetry_space_group_name_H-M "C 2/C"
_symmetry_group_IT_number 15
_symmetry_cell_setting 'monoclinic'
loop_
_space_group_symop_operation_xyz
x,y,z
-x,y,1/2-z
-x,-y,-z
x,-y,1/2+z
1/2+x,1/2+y,z
1/2-x,1/2+y,1/2-z
1/2-x,1/2-y,-z
1/2+x,1/2-y,1/2+z
loop_
_atom_site_type_symbol
_atom_site_label
_atom_site_fract_x
_atom_site_fract_y
_atom_site_fract_z
Si Si1 0.718256 0.822845 0.592342
Si Si2 0.301560 0.272263 0.880339
Si Si3 0.429262 0.515302 0.104560
Si Si4 0.610583 0.652961 0.060124
Si Si5 0.624062 0.881671 0.762344
Si Si6 0.500000 0.686448 0.750000
Si Si7 0.569453 0.361228 0.333839
Si Si8 0.760582 0.273898 0.711394
O O1 0.741492 0.846249 0.645313
O O2 0.571255 0.878086 0.650746
O O3 0.637461 0.742561 0.643879
O O4 0.889002 0.828088 0.459319
O O5 0.500000 0.261280 0.750000
O O6 0.301867 0.338705 0.926254
O O7 0.201748 0.282813 0.877158
O O8 0.231400 0.199507 0.949936
O O9 0.551050 0.575700 0.067518
O O10 0.232220 0.546131 0.214371
O O11 0.426083 0.441635 0.142877
O O12 0.500000 0.500000 0.000000
O O13 0.433235 0.698784 0.166988
O O14 0.623389 0.827886 0.816566
O O15 0.425984 0.642348 0.737835
O O16 0.711307 0.307583 0.281456
#
# Coordination Sequence:
#
# PCOD9262268 Si02
#       8
#     8   8   8   8   8   4   8   8
#     4  10  19  38  61  80 117 148 189 239 284 336
#     4   9  18  35  59  81 108 146 198 229 276 328
#     4  11  21  36  58  84 117 151 187 234 294 342
#     4   9  20  38  53  82 117 144 189 239 280 336
#     4   9  19  37  54  82 112 149 187 227 284 341
#     4  10  22  36  54  90 114 150 190 242 286 336
#     4  12  22  36  60  90 115 150 191 238 291 345
#     4  10  19  32  57  84 104 146 193 230 275 331
#
# _framework density 18.181380000000001
#
# number of rings (size 3 to 8) (size 9 to 14) (size 15 to 20)
#    0.000    2.133    4.000    1.200    1.867    0.000 
#    6.000    5.333    2.933    0.800    0.000    0.000 
#    0.000    0.000    0.000    0.000    0.000    0.000 
#
# Total GULP energy -167100.118817 kJ/mol
# GULP energy per Si atom -5570.003961 kJ/mol
# Density = 1.814000 g / cm^3
# Si number density = 18.181380 Si / 1000 Ang^3
#
#
#
# Elastic Constant Matrix: (Units=GPa)
#
#
# Indices 1 2 3 4 5 6 
#
# 1 117.2450 60.0959 22.8319 -0.0029 42.1866 -0.0001
# 2 60.0959 128.2247 29.6192 -0.0037 22.1542 0.0002
# 3 22.8319 29.6192 45.7926 -0.0077 21.2859 -0.0013
# 4 -0.0029 -0.0037 -0.0077 11.5120 0.0037 3.5149
# 5 42.1866 22.1542 21.2859 0.0037 27.0256 0.0012
# 6 -0.0001 0.0002 -0.0013 3.5149 0.0012 19.4635
#
#
#
# Elastic Compliance Matrix: (Units=1/GPa)
#
#
# Indices 1 2 3 4 5 6 
#
# 1 0.025531 -0.007266 0.012189 0.000027 -0.043497 -0.000001
# 2 -0.007266 0.011595 -0.007463 -0.000006 0.007715 0.000000
# 3 0.012189 -0.007463 0.041944 0.000044 -0.045945 -0.000002
# 4 0.000027 -0.000006 0.000044 0.091935 -0.000084 -0.016603
# 5 -0.043497 0.007715 -0.045945 -0.000084 0.134763 0.000004
# 6 -0.000001 0.000000 -0.000002 -0.016603 0.000004 0.054377
#
#
# Mechanical properties :
#
#
# Convention : Reuss Voigt Hill
#
# Bulk Modulus (GPa) = 13.51537 57.37292 35.44415
# Shear Modulus (GPa) = 12.82414 23.51456 18.16935
#
# Velocity S-wave (km/s) = 2.65871 3.60019 3.16466
# Velocity P-wave (km/s) = 4.10789 6.99330 5.73502
#
# Compressibility (1/GPa) = 0.07398982
#
# Stress axis : x y z
#
# Youngs Moduli (GPa) = 39.16827 86.24249 23.84114
#
# Poissons Ratio (x) = 0.62664 -0.29060
# Poissons Ratio (y) = 0.28460 0.17794
# Poissons Ratio (z) = -0.47743 0.64367
#
# Static dielectric constant tensor:
#      x y z
#    x 1.741000 0.000000 -0.000810 
#    y 0.000000 1.617380 0.000000 
#    z -0.000810 0.000000 1.620540 
# 
# From -- ./inp_files/244901.got.cif
#   From: 2010.05.17/outbox.cif.g08.bks.cpg/sg15_123_cif.got.tgz:244901.got - 2010.06.03 18:47:42.
