data_PCOD9262323
_publ_section_title
;
Structure prediction by ZEFSAII (Michael W. Deem and Ramdas Pophale) SiO2 
 PCOD9262323
Probable space group: C 2/C
;
_chemical_formula_sum "Si O2"
_cell_formula_units_Z 44
_cell_length_a 11.995512
_cell_length_b 18.114430
_cell_length_c 12.839842
_cell_angle_alpha 90.000000
_cell_angle_beta 52.788634
_cell_angle_gamma 90.000000
_cell_volume 2221.978374
_symmetry_space_group_name_H-M "C 2/C"
_symmetry_group_IT_number 15
_symmetry_cell_setting 'monoclinic'
loop_
_space_group_symop_operation_xyz
x,y,z
-x,y,1/2-z
-x,-y,-z
x,-y,1/2+z
1/2+x,1/2+y,z
1/2-x,1/2+y,1/2-z
1/2-x,1/2-y,-z
1/2+x,1/2-y,1/2+z
loop_
_atom_site_type_symbol
_atom_site_label
_atom_site_fract_x
_atom_site_fract_y
_atom_site_fract_z
Si Si1 0.078190 0.755944 0.595842
Si Si2 0.989192 0.586100 0.877225
Si Si3 0.930786 0.192069 0.977952
Si Si4 0.500000 0.418940 0.250000
Si Si5 0.127280 0.344458 0.608407
Si Si6 0.295614 0.976274 0.090182
O O1 0.250000 0.750000 0.500000
O O2 0.017938 0.673907 0.605783
O O3 0.000000 0.777074 0.750000
O O4 0.025517 0.804720 0.527528
O O5 0.000000 0.571147 0.750000
O O6 0.119771 0.544794 0.855008
O O7 0.853629 0.550821 0.008127
O O8 0.922397 0.271603 0.925594
O O9 0.980544 0.134010 0.861811
O O10 0.767715 0.174268 0.093444
O O11 0.631966 0.470493 0.195403
O O12 0.165188 0.409203 0.508780
O O13 0.000000 0.369442 0.750000
#
# Coordination Sequence:
#
# PCOD9262323 Si02
#       6
#     8   8   8   4   8   8
#     4  11  26  41  63  90 131 172 204 249 307 382
#     4  10  22  40  63  85 121 162 209 246 302 373
#     4  10  21  34  58  94 120 154 200 251 310 358
#     4  10  22  38  66  92 128 148 204 268 316 348
#     4  10  19  32  60  88 118 147 197 258 300 351
#     4  10  21  40  62  89 115 162 200 256 306 365
#
# _framework density 19.802174000000001
#
# number of rings (size 3 to 8) (size 9 to 14) (size 15 to 20)
#    0.000    1.818    2.727    0.545    7.636    0.000 
#    1.636    0.909    0.000    0.000    0.000    0.000 
#    0.000    0.000    0.000    0.000    0.000    0.000 
#
# Total GULP energy -122778.630025 kJ/mol
# GULP energy per Si atom -5580.846819 kJ/mol
# Density = 1.975710 g / cm^3
# Si number density = 19.802174 Si / 1000 Ang^3
#
#
#
# Elastic Constant Matrix: (Units=GPa)
#
#
# Indices 1 2 3 4 5 6 
#
# 1 120.2124 3.6115 77.3245 0.0000 -0.2354 0.0000
# 2 3.6115 17.0094 1.1699 0.0000 10.8452 0.0000
# 3 77.3245 1.1699 96.4058 0.0000 -5.3404 0.0000
# 4 0.0000 0.0000 0.0000 -13.9573 0.0000 -5.5091
# 5 -0.2354 10.8452 -5.3404 0.0000 33.7406 0.0000
# 6 0.0000 0.0000 0.0000 -5.5091 0.0000 42.3474
#
#
#
# Elastic Compliance Matrix: (Units=1/GPa)
#
#
# Indices 1 2 3 4 5 6 
#
# 1 0.017371 -0.001749 -0.013997 0.000000 -0.001532 0.000000
# 2 -0.001749 0.074602 -0.000839 0.000000 -0.024124 0.000000
# 3 -0.013997 -0.000839 0.021810 0.000000 0.003624 0.000000
# 4 0.000000 0.000000 0.000000 -0.068148 0.000000 -0.008866
# 5 -0.001532 -0.024124 0.003624 0.000000 0.037955 0.000000
# 6 0.000000 0.000000 0.000000 -0.008866 0.000000 0.022461
#
#
# Mechanical properties :
#
#
# Convention : Reuss Voigt Hill
#
# Bulk Modulus (GPa) = 12.40476 44.20437 28.30457
# Shear Modulus (GPa) = 30.10391 22.52759 26.31575
#
# Velocity S-wave (km/s) = 3.90325 3.37654 3.64941
# Velocity P-wave (km/s) = 5.15672 6.12967 5.66412
#
# Compressibility (1/GPa) = 0.08061420
#
# Stress axis : x y z
#
# Youngs Moduli (GPa) = 57.56640 13.40451 45.85034
#
# Poissons Ratio (x) = 0.02344 0.64175
# Poissons Ratio (y) = 0.10067 0.03847
# Poissons Ratio (z) = 0.80574 0.01125
#
# Static dielectric constant tensor:
#      x y z
#    x 1.731090 0.000000 -0.005600 
#    y 0.000000 1.686380 0.000000 
#    z -0.005600 0.000000 1.710620 
# 
# From -- ./inp_files/87738.got.cif
#   From: 2010.05.17/outbox.cif.g08.bks.cpg/sg15_44_cif.got.tgz:87738.got - 2010.06.03 18:47:42.
