data_PCOD9262938
_publ_section_title
;
Structure prediction by ZEFSAII (Michael W. Deem and Ramdas Pophale) SiO2 
 PCOD9262938
Probable space group: C 2/C
;
_chemical_formula_sum "Si O2"
_cell_formula_units_Z 52
_cell_length_a 13.669211
_cell_length_b 5.593613
_cell_length_c 26.368412
_cell_angle_alpha 90.000000
_cell_angle_beta 88.544824
_cell_angle_gamma 90.000000
_cell_volume 2015.485860
_symmetry_space_group_name_H-M "C 2/C"
_symmetry_group_IT_number 15
_symmetry_cell_setting 'monoclinic'
loop_
_space_group_symop_operation_xyz
x,y,z
-x,y,1/2-z
-x,-y,-z
x,-y,1/2+z
1/2+x,1/2+y,z
1/2-x,1/2+y,1/2-z
1/2-x,1/2-y,-z
1/2+x,1/2-y,1/2+z
loop_
_atom_site_type_symbol
_atom_site_label
_atom_site_fract_x
_atom_site_fract_y
_atom_site_fract_z
Si Si1 0.216326 0.495760 0.612299
Si Si2 0.071053 0.390850 0.314254
Si Si3 0.863707 0.392379 0.783305
Si Si4 0.500000 0.490326 0.250000
Si Si5 0.688162 0.494791 0.561705
Si Si6 0.912819 0.485036 0.070839
Si Si7 0.587568 0.484698 0.453994
O O1 0.212502 0.456319 0.672604
O O2 0.171654 0.248695 0.590220
O O3 0.325027 0.507605 0.588282
O O4 0.171910 0.752486 0.595250
O O5 0.146332 0.464639 0.269069
O O6 0.105213 0.456501 0.369077
O O7 0.970013 0.533496 0.305642
O O8 0.033472 0.130329 0.300076
O O9 0.896637 0.129989 0.766919
O O10 0.805093 0.500055 0.547227
O O11 0.633784 0.483659 0.509003
O O12 0.963821 0.733932 0.057084
O O13 0.963337 0.240280 0.053164
#
# Coordination Sequence:
#
# PCOD9262938 Si02
#       7
#     8   8   8   4   8   8   8
#     4  10  19  33  58  82 104 142 184 216 269 324
#     4   9  20  35  55  80 106 143 180 226 267 324
#     4   9  20  35  55  80 106 143 180 226 267 324
#     4   8  18  36  56  74 110 144 190 212 280 320
#     4  10  20  36  57  81 109 144 179 221 270 322
#     4  10  19  33  58  82 104 142 184 216 269 324
#     4  10  20  36  57  81 109 144 179 221 270 322
#
# _framework density 25.800232999999999
#
# number of rings (size 3 to 8) (size 9 to 14) (size 15 to 20)
#    0.000    2.769    0.000    4.615    8.615    0.000 
#    0.000    6.154    0.000   10.154    0.000    0.000 
#    0.000    0.000    0.000    0.000    0.000    0.000 
#
# Total GULP energy -145231.464829 kJ/mol
# GULP energy per Si atom -5585.825570 kJ/mol
# Density = 2.574151 g / cm^3
# Si number density = 25.800233 Si / 1000 Ang^3
#
#
#
# Elastic Constant Matrix: (Units=GPa)
#
#
# Indices 1 2 3 4 5 6 
#
# 1 76.0982 9.5777 32.0425 0.0000 -9.1618 0.0000
# 2 9.5777 196.7242 45.2939 0.0000 8.7676 0.0000
# 3 32.0425 45.2939 143.2807 0.0000 -31.4182 0.0000
# 4 0.0000 0.0000 0.0000 -398.6745 0.0000 -517.1780
# 5 -9.1618 8.7676 -31.4182 0.0000 30.5323 0.0000
# 6 0.0000 0.0000 0.0000 -517.1780 0.0000 -664.9428
#
#
#
# Elastic Compliance Matrix: (Units=1/GPa)
#
#
# Indices 1 2 3 4 5 6 
#
# 1 0.014549 -0.000099 -0.002917 0.000000 0.001392 0.000000
# 2 -0.000099 0.005967 -0.002901 0.000000 -0.004728 0.000000
# 3 -0.002917 -0.002901 0.011028 0.000000 0.011305 0.000000
# 4 0.000000 0.000000 0.000000 0.279700 0.000000 -0.217545
# 5 0.001392 -0.004728 0.011305 0.000000 0.046161 0.000000
# 6 0.000000 0.000000 0.000000 -0.217545 0.000000 0.167698
#
#
# Mechanical properties :
#
#
# Convention : Reuss Voigt Hill
#
# Bulk Modulus (GPa) = 50.73543 65.54792 58.14167
# Shear Modulus (GPa) = 9.19953 -184.67105 -87.73576
#
# Velocity S-wave (km/s) = 1.89035 -8.46951 -5.83778
# Velocity P-wave (km/s) = 4.94691 8.37750 4.78072
#
# Compressibility (1/GPa) = 0.01971009
#
# Stress axis : x y z
#
# Youngs Moduli (GPa) = 68.73175 167.59737 90.68046
#
# Poissons Ratio (x) = 0.01655 0.26454
# Poissons Ratio (y) = 0.00679 0.26305
# Poissons Ratio (z) = 0.20051 0.48618
#
# Static dielectric constant tensor:
#      x y z
#    x 2.042680 0.000000 -0.040630 
#    y 0.000000 2.204340 0.000000 
#    z -0.040630 0.000000 2.003650 
# 
# From -- ./inp_files/251086.got.cif
#   From: 2010.05.17/outbox.cif.g08.bks.cpg/sg15_126_cif.got.tgz:251086.got - 2010.06.03 18:47:42.
