data_PCOD9262944
_publ_section_title
;
Structure prediction by ZEFSAII (Michael W. Deem and Ramdas Pophale) SiO2 
 PCOD9262944
Probable space group: C 2/C
;
_chemical_formula_sum "Si O2"
_cell_formula_units_Z 48
_cell_length_a 18.989190
_cell_length_b 13.625712
_cell_length_c 16.513958
_cell_angle_alpha 90.000000
_cell_angle_beta 148.311023
_cell_angle_gamma 90.000000
_cell_volume 2244.557829
_symmetry_space_group_name_H-M "C 2/C"
_symmetry_group_IT_number 15
_symmetry_cell_setting 'monoclinic'
loop_
_space_group_symop_operation_xyz
x,y,z
-x,y,1/2-z
-x,-y,-z
x,-y,1/2+z
1/2+x,1/2+y,z
1/2-x,1/2+y,1/2-z
1/2-x,1/2-y,-z
1/2+x,1/2-y,1/2+z
loop_
_atom_site_type_symbol
_atom_site_label
_atom_site_fract_x
_atom_site_fract_y
_atom_site_fract_z
Si Si1 0.997086 0.127734 0.092749
Si Si2 0.267924 0.227767 0.691380
Si Si3 0.178289 0.405186 0.705759
Si Si4 0.617419 0.777494 0.918714
Si Si5 0.547468 0.590687 0.950218
Si Si6 0.627766 0.913019 0.072610
O O1 0.854171 0.176736 0.975553
O O2 0.998654 0.117670 0.994322
O O3 0.118923 0.200417 0.235382
O O4 0.008986 0.014526 0.132256
O O5 0.196021 0.297636 0.687403
O O6 0.345377 0.144437 0.817616
O O7 0.195394 0.482260 0.649259
O O8 0.030948 0.423029 0.593728
O O9 0.293218 0.425076 0.882044
O O10 0.500000 0.825165 0.750000
O O11 0.541892 0.684247 0.886553
O O12 0.750000 0.750000 0.000000
O O13 0.672787 0.847509 0.043089
#
# Coordination Sequence:
#
# PCOD9262944 Si02
#       6
#     8   8   8   8   8   8
#     4  10  20  31  57  80 115 145 182 262 285 340
#     4  11  18  32  52  85 113 141 180 239 317 333
#     4  10  19  33  58  83 113 152 179 269 288 339
#     4  12  26  38  57  82 127 169 184 224 282 373
#     4  10  20  36  55  81 112 156 207 226 296 339
#     4  11  21  34  55  84 123 143 202 229 303 351
#
# _framework density 21.385057
#
# number of rings (size 3 to 8) (size 9 to 14) (size 15 to 20)
#    0.000    1.333    6.667    1.000    2.333    0.000 
#    0.000    0.000    0.000    0.000    0.000    5.833 
#    0.000    0.000    0.000    0.000    0.000    0.000 
#
# Total GULP energy -133942.260045 kJ/mol
# GULP energy per Si atom -5580.927502 kJ/mol
# Density = 2.133638 g / cm^3
# Si number density = 21.385057 Si / 1000 Ang^3
#
#
#
# Elastic Constant Matrix: (Units=GPa)
#
#
# Indices 1 2 3 4 5 6 
#
# 1 29.6243 14.5740 -3.5751 0.0000 3.8286 0.0000
# 2 14.5740 97.1916 -0.8466 0.0000 2.9042 0.0000
# 3 -3.5751 -0.8466 48.7351 0.0000 20.1461 0.0000
# 4 0.0000 0.0000 0.0000 28.7372 0.0000 6.5767
# 5 3.8286 2.9042 20.1461 0.0000 22.4654 0.0000
# 6 0.0000 0.0000 0.0000 6.5767 0.0000 15.2727
#
#
#
# Elastic Compliance Matrix: (Units=1/GPa)
#
#
# Indices 1 2 3 4 5 6 
#
# 1 0.039157 -0.005397 0.008341 0.000000 -0.013455 0.000000
# 2 -0.005397 0.011114 0.000017 0.000000 -0.000533 0.000000
# 3 0.008341 0.000017 0.034514 0.000000 -0.032375 0.000000
# 4 0.000000 0.000000 0.000000 0.038602 0.000000 -0.016623
# 5 -0.013455 -0.000533 -0.032375 0.000000 0.075907 0.000000
# 6 0.000000 0.000000 0.000000 -0.016623 0.000000 0.072634
#
#
# Mechanical properties :
#
#
# Convention : Reuss Voigt Hill
#
# Bulk Modulus (GPa) = 11.02442 21.76173 16.39307
# Shear Modulus (GPa) = 16.87806 24.32165 20.59986
#
# Velocity S-wave (km/s) = 2.81240 3.37608 3.10705
# Velocity P-wave (km/s) = 3.96390 5.03939 4.53365
#
# Compressibility (1/GPa) = 0.09070772
#
# Stress axis : x y z
#
# Youngs Moduli (GPa) = 25.53851 89.97424 28.97344
#
# Poissons Ratio (x) = 0.48558 -0.24166
# Poissons Ratio (y) = 0.13783 -0.00050
# Poissons Ratio (z) = -0.21301 -0.00156
#
# Static dielectric constant tensor:
#      x y z
#    x 1.829410 0.000000 0.010660 
#    y 0.000000 1.822880 0.000000 
#    z 0.010660 0.000000 1.788920 
# 
# From -- ./inp_files/215474.got.cif
#   From: 2010.05.17/outbox.cif.g08.bks.cpg/sg15_108_cif.got.tgz:215474.got - 2010.06.03 18:47:42.
