data_PCOD9262149
_publ_section_title
;
Structure prediction by ZEFSAII (Michael W. Deem and Ramdas Pophale) SiO2 
 PCOD9262149
Probable space group: C 2/C
;
_chemical_formula_sum "Si O2"
_cell_formula_units_Z 64
_cell_length_a 24.275778
_cell_length_b 7.842284
_cell_length_c 14.765276
_cell_angle_alpha 90.000000
_cell_angle_beta 64.800921
_cell_angle_gamma 90.000000
_cell_volume 2543.467274
_symmetry_space_group_name_H-M "C 2/C"
_symmetry_group_IT_number 15
_symmetry_cell_setting 'monoclinic'
loop_
_space_group_symop_operation_xyz
x,y,z
-x,y,1/2-z
-x,-y,-z
x,-y,1/2+z
1/2+x,1/2+y,z
1/2-x,1/2+y,1/2-z
1/2-x,1/2-y,-z
1/2+x,1/2-y,1/2+z
loop_
_atom_site_type_symbol
_atom_site_label
_atom_site_fract_x
_atom_site_fract_y
_atom_site_fract_z
Si Si1 0.870908 0.657690 0.396125
Si Si2 0.622326 0.208794 0.313989
Si Si3 0.256497 0.989632 0.429808
Si Si4 0.755696 0.840472 0.750888
Si Si5 0.433450 0.796318 0.334932
Si Si6 0.819249 0.118716 0.375095
Si Si7 0.384465 0.820818 0.100715
Si Si8 0.516201 0.797805 0.007481
O O1 0.875258 0.753620 0.295389
O O2 0.800255 0.612013 0.454526
O O3 0.907224 0.485951 0.342897
O O4 0.888921 0.691678 0.487371
O O5 0.689276 0.250274 0.310803
O O6 0.557637 0.276244 0.397588
O O7 0.616504 0.009261 0.351474
O O8 0.192548 0.981226 0.524298
O O9 0.289074 0.806527 0.408703
O O10 0.257260 0.048941 0.327781
O O11 0.776395 0.946587 0.824763
O O12 0.819952 0.751416 0.680178
O O13 0.500000 0.789235 0.250000
O O14 0.389416 0.661338 0.317967
O O15 0.439548 0.773663 0.438102
O O16 0.448834 0.730965 0.079558
O O17 0.500000 0.000000 0.000000
#
# Coordination Sequence:
#
# PCOD9262149 Si02
#       8
#     8   8   8   8   8   8   8   8
#     4  10  19  32  54  82 118 148 191 237 307 356
#     4  10  21  34  51  86 114 157 192 244 303 357
#     4   9  21  36  55  85 114 153 195 245 289 353
#     4  11  21  36  58  85 120 150 198 244 300 360
#     4  11  19  32  58  86 111 149 197 246 294 356
#     4  10  21  37  60  85 113 152 201 241 293 358
#     4  11  21  36  55  85 120 156 193 248 305 365
#     4  10  19  34  53  83 119 148 191 250 304 353
#
# _framework density 25.162500999999999
#
# number of rings (size 3 to 8) (size 9 to 14) (size 15 to 20)
#    0.000    1.750    2.500    5.250    3.500    2.000 
#    0.000    0.000    0.000    3.000    0.000    0.000 
#    0.000    0.000    0.000    0.000    0.000    0.000 
#
# Total GULP energy -178400.987933 kJ/mol
# GULP energy per Si atom -5575.030873 kJ/mol
# Density = 2.510523 g / cm^3
# Si number density = 25.162501 Si / 1000 Ang^3
#
#
#
# Elastic Constant Matrix: (Units=GPa)
#
#
# Indices 1 2 3 4 5 6 
#
# 1 141.4104 8.9996 38.1780 0.0000 -20.7154 0.0000
# 2 8.9996 27.6153 -6.3458 0.0000 -6.0107 0.0000
# 3 38.1780 -6.3458 114.6265 0.0000 -13.6865 0.0000
# 4 0.0000 0.0000 0.0000 22.4826 0.0000 6.6805
# 5 -20.7154 -6.0107 -13.6865 0.0000 74.1928 0.0000
# 6 0.0000 0.0000 0.0000 6.6805 0.0000 16.9887
#
#
#
# Elastic Compliance Matrix: (Units=1/GPa)
#
#
# Indices 1 2 3 4 5 6 
#
# 1 0.008222 -0.002965 -0.002717 0.000000 0.001554 0.000000
# 2 -0.002965 0.038618 0.003477 0.000000 0.002942 0.000000
# 3 -0.002717 0.003477 0.009984 0.000000 0.001365 0.000000
# 4 0.000000 0.000000 0.000000 0.050364 0.000000 -0.019805
# 5 0.001554 0.002942 0.001365 0.000000 0.014402 0.000000
# 6 0.000000 0.000000 0.000000 -0.019805 0.000000 0.066650
#
#
# Mechanical properties :
#
#
# Convention : Reuss Voigt Hill
#
# Bulk Modulus (GPa) = 19.07941 40.59063 29.83502
# Shear Modulus (GPa) = 23.79576 38.92084 31.35830
#
# Velocity S-wave (km/s) = 3.07853 3.93718 3.53403
# Velocity P-wave (km/s) = 4.49838 6.06918 5.34183
#
# Compressibility (1/GPa) = 0.05241252
#
# Stress axis : x y z
#
# Youngs Moduli (GPa) = 121.63219 25.89497 100.15679
#
# Poissons Ratio (x) = 0.07679 0.27212
# Poissons Ratio (y) = 0.36069 -0.34823
# Poissons Ratio (z) = 0.33046 -0.09003
#
# Static dielectric constant tensor:
#      x y z
#    x 1.971480 0.000000 0.014150 
#    y 0.000000 2.146530 0.000000 
#    z 0.014150 0.000000 2.030640 
# 
# From -- ./inp_files/167631.got.cif
#   From: 2010.05.17/outbox.cif.g08.bks.cpg/sg15_84_cif.got.tgz:167631.got - 2010.06.03 18:47:42.
