data_PCOD9262510
_publ_section_title
;
Structure prediction by ZEFSAII (Michael W. Deem and Ramdas Pophale) SiO2 
 PCOD9262510
Probable space group: C 2/C
;
_chemical_formula_sum "Si O2"
_cell_formula_units_Z 64
_cell_length_a 12.448445
_cell_length_b 17.949942
_cell_length_c 20.561423
_cell_angle_alpha 90.000000
_cell_angle_beta 42.402688
_cell_angle_gamma 90.000000
_cell_volume 3098.192025
_symmetry_space_group_name_H-M "C 2/C"
_symmetry_group_IT_number 15
_symmetry_cell_setting 'monoclinic'
loop_
_space_group_symop_operation_xyz
x,y,z
-x,y,1/2-z
-x,-y,-z
x,-y,1/2+z
1/2+x,1/2+y,z
1/2-x,1/2+y,1/2-z
1/2-x,1/2-y,-z
1/2+x,1/2-y,1/2+z
loop_
_atom_site_type_symbol
_atom_site_label
_atom_site_fract_x
_atom_site_fract_y
_atom_site_fract_z
Si Si1 0.223387 0.050075 0.420470
Si Si2 0.408632 0.625321 0.725012
Si Si3 0.183929 0.773231 0.411559
Si Si4 0.572916 0.340442 0.644400
Si Si5 0.441133 0.516011 0.133394
Si Si6 0.893837 0.402468 0.362100
Si Si7 0.372698 0.791040 0.188780
Si Si8 0.866468 0.803462 0.485423
O O1 0.190599 0.045474 0.358187
O O2 0.243066 0.135061 0.430786
O O3 0.349188 0.988470 0.387664
O O4 0.065031 0.025839 0.530718
O O5 0.500000 0.612171 0.750000
O O6 0.361621 0.545245 0.715855
O O7 0.264197 0.683150 0.798486
O O8 0.526113 0.659868 0.619094
O O9 0.259839 0.703118 0.416484
O O10 0.236400 0.850735 0.423085
O O11 0.279771 0.780784 0.299849
O O12 0.998152 0.770630 0.476703
O O13 0.500000 0.343271 0.750000
O O14 0.541142 0.421445 0.627731
O O15 0.474791 0.283923 0.641586
O O16 0.000000 0.396403 0.250000
O O17 0.003393 0.359605 0.364153
O O18 0.750000 0.750000 0.500000
#
# Coordination Sequence:
#
# PCOD9262510 Si02
#       8
#     8   8   8   8   8   8   8   8
#     4  10  20  34  52  75 102 136 174 211 264 324
#     4  10  20  36  56  77 107 148 181 210 264 328
#     4   8  15  31  54  75 102 138 170 210 260 307
#     4   9  17  31  54  81 104 131 176 225 261 301
#     4  10  19  33  53  77 105 135 174 218 259 310
#     4   9  15  31  56  78  99 128 171 218 260 305
#     4   8  16  31  53  78 103 133 170 213 261 309
#     4  10  21  38  55  74 109 147 177 218 268 320
#
# _framework density 20.657209000000002
#
# number of rings (size 3 to 8) (size 9 to 14) (size 15 to 20)
#    0.000    2.750    0.000    5.625    0.000    1.000 
#    0.000   16.250    0.000    3.000    0.000    0.000 
#    0.000    0.000    0.000    0.000    0.000    0.000 
#
# Total GULP energy -178321.249091 kJ/mol
# GULP energy per Si atom -5572.539034 kJ/mol
# Density = 2.061019 g / cm^3
# Si number density = 20.657209 Si / 1000 Ang^3
#
#
#
# Elastic Constant Matrix: (Units=GPa)
#
#
# Indices 1 2 3 4 5 6 
#
# 1 98.6357 61.0321 21.7183 0.0005 2.3693 -0.0002
# 2 61.0321 109.3912 12.1145 0.0007 -7.0809 -0.0004
# 3 21.7183 12.1145 38.5311 0.0007 0.0234 -0.0004
# 4 0.0005 0.0007 0.0007 24.6583 -0.0004 3.9852
# 5 2.3693 -7.0809 0.0234 -0.0004 25.4699 0.0002
# 6 -0.0002 -0.0004 -0.0004 3.9852 0.0002 30.7151
#
#
#
# Elastic Compliance Matrix: (Units=1/GPa)
#
#
# Indices 1 2 3 4 5 6 
#
# 1 0.017504 -0.009268 -0.006950 0.000000 -0.004199 0.000000
# 2 -0.009268 0.014559 0.000644 0.000000 0.004909 0.000000
# 3 -0.006950 0.000644 0.029668 -0.000001 0.000798 0.000000
# 4 0.000000 0.000000 -0.000001 0.041423 0.000001 -0.005374
# 5 -0.004199 0.004909 0.000798 0.000001 0.041017 0.000000
# 6 0.000000 0.000000 0.000000 -0.005374 0.000000 0.033255
#
#
# Mechanical properties :
#
#
# Convention : Reuss Voigt Hill
#
# Bulk Modulus (GPa) = 32.69900 48.47642 40.58771
# Shear Modulus (GPa) = 22.85530 26.28154 24.56842
#
# Velocity S-wave (km/s) = 3.32988 3.57076 3.45242
# Velocity P-wave (km/s) = 5.53605 6.36541 5.96516
#
# Compressibility (1/GPa) = 0.03058197
#
# Stress axis : x y z
#
# Youngs Moduli (GPa) = 57.12905 68.68638 33.70683
#
# Poissons Ratio (x) = 0.63660 0.23426
# Poissons Ratio (y) = 0.52948 -0.02169
# Poissons Ratio (z) = 0.39704 -0.04421
#
# Static dielectric constant tensor:
#      x y z
#    x 1.743990 0.000000 0.014840 
#    y 0.000000 1.765990 0.000000 
#    z 0.014840 0.000000 1.799240 
# 
# From -- ./inp_files/239812.got.cif
#   From: 2010.05.17/outbox.cif.g08.bks.cpg/sg15_120_cif.got.tgz:239812.got - 2010.06.03 18:47:42.
