data_PCOD9262719
_publ_section_title
;
Structure prediction by ZEFSAII (Michael W. Deem and Ramdas Pophale) SiO2 
 PCOD9262719
Probable space group: C 2/C
;
_chemical_formula_sum "Si O2"
_cell_formula_units_Z 64
_cell_length_a 8.208730
_cell_length_b 20.985047
_cell_length_c 26.187239
_cell_angle_alpha 90.000000
_cell_angle_beta 128.823656
_cell_angle_gamma 90.000000
_cell_volume 3514.448899
_symmetry_space_group_name_H-M "C 2/C"
_symmetry_group_IT_number 15
_symmetry_cell_setting 'monoclinic'
loop_
_space_group_symop_operation_xyz
x,y,z
-x,y,1/2-z
-x,-y,-z
x,-y,1/2+z
1/2+x,1/2+y,z
1/2-x,1/2+y,1/2-z
1/2-x,1/2-y,-z
1/2+x,1/2-y,1/2+z
loop_
_atom_site_type_symbol
_atom_site_label
_atom_site_fract_x
_atom_site_fract_y
_atom_site_fract_z
Si Si1 0.592384 0.667799 0.824064
Si Si2 0.703871 0.167799 0.824064
Si Si3 0.197789 0.272960 0.572339
Si Si4 0.833515 0.585581 0.443333
Si Si5 0.266820 0.051953 0.909929
Si Si6 0.627106 0.551953 0.590071
Si Si7 0.939818 0.085581 0.443333
Si Si8 0.591569 0.727040 0.072339
O O1 0.500000 0.677012 0.750000
O O2 0.399143 0.665183 0.824572
O O3 0.717278 0.601159 0.855204
O O4 0.741230 0.724557 0.872117
O O5 0.500000 0.177011 0.750000
O O6 0.747240 0.224557 0.872117
O O7 0.703538 0.101159 0.855204
O O8 0.161779 0.345862 0.582370
O O9 0.393842 0.272552 0.571921
O O10 0.998795 0.250000 0.500000
O O11 0.815846 0.521562 0.406252
O O12 0.634169 0.585779 0.442084
O O13 0.037593 0.577608 0.518859
O O14 0.066852 0.051423 0.908426
O O15 0.537844 0.577608 0.518859
O O16 0.690838 0.478438 0.593748
O O17 0.832298 0.154138 0.417630
#
# Coordination Sequence:
#
# PCOD9262719 Si02
#       8
#     8   8   8   8   8   8   8   8
#     4  11  23  37  54  76 107 144 182 223 269 323
#     4  11  23  37  54  76 107 144 182 223 269 323
#     4  10  19  33  55  82 110 142 177 218 268 320
#     4   9  17  31  53  79 107 135 170 216 263 312
#     4   9  18  32  51  77 105 136 173 217 262 310
#     4   9  18  32  51  77 105 136 173 217 262 310
#     4   9  17  31  53  79 107 135 170 216 263 312
#     4  10  19  33  55  82 110 142 177 218 268 320
#
# _framework density 18.210536999999999
#
# number of rings (size 3 to 8) (size 9 to 14) (size 15 to 20)
#    0.000    2.250    2.500    0.750    0.000    2.500 
#    0.000    1.250    0.000    3.000    0.000    0.000 
#    0.000    0.000    0.000    0.000    0.000    0.000 
#
# Total GULP energy -178466.934260 kJ/mol
# GULP energy per Si atom -5577.091696 kJ/mol
# Density = 1.816909 g / cm^3
# Si number density = 18.210537 Si / 1000 Ang^3
#
#
#
# Elastic Constant Matrix: (Units=GPa)
#
#
# Indices 1 2 3 4 5 6 
#
# 1 6.7167 26.0778 11.1481 0.0001 3.1678 0.0001
# 2 26.0778 200.4337 103.5163 0.0000 4.9089 0.0000
# 3 11.1481 103.5163 131.6150 0.0000 4.7500 0.0001
# 4 0.0001 0.0000 0.0000 23.8499 0.0001 0.4639
# 5 3.1678 4.9089 4.7500 0.0001 22.8692 0.0001
# 6 0.0001 0.0000 0.0001 0.4639 0.0001 16.5331
#
#
#
# Elastic Compliance Matrix: (Units=1/GPa)
#
#
# Indices 1 2 3 4 5 6 
#
# 1 0.338055 -0.048785 0.011131 -0.000001 -0.038666 -0.000002
# 2 -0.048785 0.015447 -0.008202 0.000000 0.005146 0.000000
# 3 0.011131 -0.008202 0.013197 0.000000 -0.002522 0.000000
# 4 -0.000001 0.000000 0.000000 0.041952 0.000000 -0.001177
# 5 -0.038666 0.005146 -0.002522 0.000000 0.048502 0.000000
# 6 -0.000002 0.000000 0.000000 -0.001177 0.000000 0.060518
#
#
# Mechanical properties :
#
#
# Convention : Reuss Voigt Hill
#
# Bulk Modulus (GPa) = 3.63655 68.91664 36.27660
# Shear Modulus (GPa) = 7.13221 25.85198 16.49209
#
# Velocity S-wave (km/s) = 1.98117 3.77187 3.01264
# Velocity P-wave (km/s) = 2.68973 7.54293 5.66262
#
# Compressibility (1/GPa) = 0.27498609
#
# Stress axis : x y z
#
# Youngs Moduli (GPa) = 2.95810 64.73901 75.77273
#
# Poissons Ratio (x) = 3.15829 -0.84344
# Poissons Ratio (y) = 0.14431 0.62152
# Poissons Ratio (z) = -0.03293 0.53101
#
# Static dielectric constant tensor:
#      x y z
#    x 1.629940 0.000000 -0.002320 
#    y 0.000000 1.673520 0.000000 
#    z -0.002320 0.000000 1.593350 
# 
# From -- ./inp_files/266126.got.cif
#   From: 2010.05.17/outbox.cif.g08.bks.cpg/sg15_134_cif.got.tgz:266126.got - 2010.06.03 18:47:42.
