data_PCOD9262336
_publ_section_title
;
Structure prediction by ZEFSAII (Michael W. Deem and Ramdas Pophale) SiO2 
 PCOD9262336
Probable space group: C 2/C
;
_chemical_formula_sum "Si O2"
_cell_formula_units_Z 40
_cell_length_a 13.425107
_cell_length_b 13.277373
_cell_length_c 14.854887
_cell_angle_alpha 90.000000
_cell_angle_beta 38.126320
_cell_angle_gamma 90.000000
_cell_volume 1634.797608
_symmetry_space_group_name_H-M "C 2/C"
_symmetry_group_IT_number 15
_symmetry_cell_setting 'monoclinic'
loop_
_space_group_symop_operation_xyz
x,y,z
-x,y,1/2-z
-x,-y,-z
x,-y,1/2+z
1/2+x,1/2+y,z
1/2-x,1/2+y,1/2-z
1/2-x,1/2-y,-z
1/2+x,1/2-y,1/2+z
loop_
_atom_site_type_symbol
_atom_site_label
_atom_site_fract_x
_atom_site_fract_y
_atom_site_fract_z
Si Si1 0.663057 0.653099 0.678636
Si Si2 0.247183 0.544643 0.321515
Si Si3 0.140128 0.608571 0.594619
Si Si4 0.492197 0.182038 0.098608
Si Si5 0.038429 0.192903 0.063038
O O1 0.500000 0.611884 0.750000
O O2 0.711148 0.571893 0.720384
O O3 0.612478 0.759737 0.754556
O O4 0.823384 0.664539 0.505769
O O5 0.207609 0.558875 0.455546
O O6 0.096159 0.581782 0.371208
O O7 0.393816 0.619282 0.193395
O O8 0.060474 0.713101 0.615393
O O9 0.292782 0.633937 0.548704
O O10 0.000000 0.553493 0.750000
O O11 0.492744 0.256102 0.011111
#
# Coordination Sequence:
#
# PCOD9262336 Si02
#       5
#     8   8   8   8   8
#     4  12  26  47  70  96 136 185 231 281 337 404
#     4  11  23  43  68 101 138 175 230 276 341 403
#     4  10  19  32  62 102 138 172 210 278 343 399
#     4  11  24  45  69  99 135 182 227 281 339 401
#     4  10  19  36  62  95 137 174 215 272 341 400
#
# _framework density 24.467860000000002
#
# number of rings (size 3 to 8) (size 9 to 14) (size 15 to 20)
#    0.000    1.200    2.000    6.600    2.800    0.800 
#    0.000    3.000    0.000    0.000    0.000    0.000 
#    0.000    0.000    0.000    0.000    0.000    0.000 
#
# Total GULP energy -112024.456048 kJ/mol
# GULP energy per Si atom -5601.222802 kJ/mol
# Density = 2.441217 g / cm^3
# Si number density = 24.467860 Si / 1000 Ang^3
#
#
#
# Elastic Constant Matrix: (Units=GPa)
#
#
# Indices 1 2 3 4 5 6 
#
# 1 70.9143 17.3270 41.3196 0.0000 -21.4871 0.0000
# 2 17.3270 78.9656 11.4311 0.0000 -16.7800 0.0000
# 3 41.3196 11.4311 115.7596 0.0000 -38.4197 0.0000
# 4 0.0000 0.0000 0.0000 30.9604 0.0000 -7.9764
# 5 -21.4871 -16.7800 -38.4197 0.0000 45.4981 0.0000
# 6 0.0000 0.0000 0.0000 -7.9764 0.0000 25.6378
#
#
#
# Elastic Compliance Matrix: (Units=1/GPa)
#
#
# Indices 1 2 3 4 5 6 
#
# 1 0.018904 -0.002643 -0.005345 0.000000 0.003439 0.000000
# 2 -0.002643 0.014127 0.001200 0.000000 0.004975 0.000000
# 3 -0.005345 0.001200 0.013529 0.000000 0.009342 0.000000
# 4 0.000000 0.000000 0.000000 0.035114 0.000000 0.010925
# 5 0.003439 0.004975 0.009342 0.000000 0.033326 0.000000
# 6 0.000000 0.000000 0.000000 0.010925 0.000000 0.042404
#
#
# Mechanical properties :
#
#
# Convention : Reuss Voigt Hill
#
# Bulk Modulus (GPa) = 30.31969 45.08831 37.70400
# Shear Modulus (GPa) = 27.47621 33.45672 30.46647
#
# Velocity S-wave (km/s) = 3.35468 3.70181 3.53251
# Velocity P-wave (km/s) = 5.23677 6.06125 5.66403
#
# Compressibility (1/GPa) = 0.03298186
#
# Stress axis : x y z
#
# Youngs Moduli (GPa) = 52.89904 70.78514 73.91761
#
# Poissons Ratio (x) = 0.18711 0.39510
# Poissons Ratio (y) = 0.13983 -0.08867
# Poissons Ratio (z) = 0.28275 -0.08491
#
# Static dielectric constant tensor:
#      x y z
#    x 1.929960 0.000000 0.004790 
#    y 0.000000 1.927300 0.000000 
#    z 0.004790 0.000000 1.938010 
# 
# From -- ./inp_files/205598.got.cif
#   From: 2010.05.17/outbox.cif.g08.bks.cpg/sg15_103_cif.got.tgz:205598.got - 2010.06.03 18:47:42.
