data_PCOD9262608
_publ_section_title
;
Structure prediction by ZEFSAII (Michael W. Deem and Ramdas Pophale) SiO2 
 PCOD9262608
Probable space group: C 2/C
;
_chemical_formula_sum "Si O2"
_cell_formula_units_Z 48
_cell_length_a 32.997492
_cell_length_b 16.311924
_cell_length_c 16.493623
_cell_angle_alpha 90.000000
_cell_angle_beta 162.693397
_cell_angle_gamma 90.000000
_cell_volume 2640.992180
_symmetry_space_group_name_H-M "C 2/C"
_symmetry_group_IT_number 15
_symmetry_cell_setting 'monoclinic'
loop_
_space_group_symop_operation_xyz
x,y,z
-x,y,1/2-z
-x,-y,-z
x,-y,1/2+z
1/2+x,1/2+y,z
1/2-x,1/2+y,1/2-z
1/2-x,1/2-y,-z
1/2+x,1/2-y,1/2+z
loop_
_atom_site_type_symbol
_atom_site_label
_atom_site_fract_x
_atom_site_fract_y
_atom_site_fract_z
Si Si1 0.930122 0.154129 0.943091
Si Si2 0.150142 0.944604 0.057208
Si Si3 0.321385 0.077641 0.122848
Si Si4 0.119260 0.467367 0.413122
Si Si5 0.283961 0.587852 0.997745
Si Si6 0.938042 0.331844 0.324204
O O1 0.873207 0.128329 0.922696
O O2 0.805578 0.135650 0.644381
O O3 0.060086 0.096050 0.175280
O O4 0.000403 0.242827 0.075778
O O5 0.240997 0.013946 0.272890
O O6 0.214986 0.912163 0.097695
O O7 0.000000 0.977143 0.750000
O O8 0.386403 0.038670 0.165646
O O9 0.436714 0.121060 0.394604
O O10 0.269660 0.999134 0.073624
O O11 0.107731 0.381809 0.343244
O O12 0.000000 0.473940 0.250000
O O13 0.188529 0.657503 0.855394
#
# Coordination Sequence:
#
# PCOD9262608 Si02
#       6
#     8   8   8   8   8   8
#     4  10  21  35  54  79 109 140 171 215 268 310
#     4   9  19  35  54  76 104 140 177 215 259 312
#     4  10  20  35  56  78 105 142 179 213 255 310
#     4  10  19  33  54  80 106 138 178 216 257 309
#     4  10  19  36  55  76 103 139 181 216 254 312
#     4  11  21  34  54  83 109 135 172 221 266 307
#
# _framework density 18.174987999999999
#
# number of rings (size 3 to 8) (size 9 to 14) (size 15 to 20)
#    0.000    2.000    0.000    5.500    0.000    3.333 
#    0.000    0.000    0.000    2.000    0.000   10.500 
#    0.000    0.000    0.000    0.000    0.000    0.000 
#
# Total GULP energy -133845.485713 kJ/mol
# GULP energy per Si atom -5576.895238 kJ/mol
# Density = 1.813362 g / cm^3
# Si number density = 18.174988 Si / 1000 Ang^3
#
#
#
# Elastic Constant Matrix: (Units=GPa)
#
#
# Indices 1 2 3 4 5 6 
#
# 1 121.3257 39.0368 57.0016 0.0000 19.9916 0.0000
# 2 39.0368 63.1983 33.8577 0.0000 5.5384 0.0000
# 3 57.0016 33.8577 92.0742 0.0000 -4.9182 0.0000
# 4 0.0000 0.0000 0.0000 26.2382 0.0000 0.9490
# 5 19.9916 5.5384 -4.9182 0.0000 24.1751 0.0000
# 6 0.0000 0.0000 0.0000 0.9490 0.0000 2.9747
#
#
#
# Elastic Compliance Matrix: (Units=1/GPa)
#
#
# Indices 1 2 3 4 5 6 
#
# 1 0.016300 -0.003697 -0.009510 0.000000 -0.014567 0.000000
# 2 -0.003697 0.021461 -0.005765 0.000000 -0.003032 0.000000
# 3 -0.009510 -0.005765 0.019571 0.000000 0.013166 0.000000
# 4 0.000000 0.000000 0.000000 0.038557 0.000000 -0.012301
# 5 -0.014567 -0.003032 0.013166 0.000000 0.056784 0.000000
# 6 0.000000 0.000000 0.000000 -0.012301 0.000000 0.340088
#
#
# Mechanical properties :
#
#
# Convention : Reuss Voigt Hill
#
# Bulk Modulus (GPa) = 51.57544 59.59894 55.58719
# Shear Modulus (GPa) = 9.30808 20.45773 14.88290
#
# Velocity S-wave (km/s) = 2.26550 3.35863 2.86469
# Velocity P-wave (km/s) = 5.93987 6.92123 6.44925
#
# Compressibility (1/GPa) = 0.01938907
#
# Stress axis : x y z
#
# Youngs Moduli (GPa) = 61.34994 46.59607 51.09535
#
# Poissons Ratio (x) = 0.17227 0.48590
# Poissons Ratio (y) = 0.22681 0.29456
# Poissons Ratio (z) = 0.58342 0.26862
#
# Static dielectric constant tensor:
#      x y z
#    x 1.631460 0.000000 -0.001580 
#    y 0.000000 1.619350 0.000000 
#    z -0.001580 0.000000 1.632510 
# 
# From -- ./inp_files/182504.got.cif
#   From: 2010.05.17/outbox.cif.g08.bks.cpg/sg15_92_cif.got.tgz:182504.got - 2010.06.03 18:47:42.
