data_PCOD9262537
_publ_section_title
;
Structure prediction by ZEFSAII (Michael W. Deem and Ramdas Pophale) SiO2 
 PCOD9262537
Probable space group: C 2/C
;
_chemical_formula_sum "Si O2"
_cell_formula_units_Z 64
_cell_length_a 18.637956
_cell_length_b 19.238162
_cell_length_c 9.356366
_cell_angle_alpha 90.000000
_cell_angle_beta 124.024821
_cell_angle_gamma 90.000000
_cell_volume 2780.457838
_symmetry_space_group_name_H-M "C 2/C"
_symmetry_group_IT_number 15
_symmetry_cell_setting 'monoclinic'
loop_
_space_group_symop_operation_xyz
x,y,z
-x,y,1/2-z
-x,-y,-z
x,-y,1/2+z
1/2+x,1/2+y,z
1/2-x,1/2+y,1/2-z
1/2-x,1/2-y,-z
1/2+x,1/2-y,1/2+z
loop_
_atom_site_type_symbol
_atom_site_label
_atom_site_fract_x
_atom_site_fract_y
_atom_site_fract_z
Si Si1 0.930760 0.060094 0.003669
Si Si2 0.876305 0.926484 0.117411
Si Si3 0.389828 0.722853 0.673437
Si Si4 0.232522 0.277425 0.181952
Si Si5 0.617542 0.375443 0.773918
Si Si6 0.439889 0.825434 0.966686
Si Si7 0.769936 0.612646 0.233836
Si Si8 0.114232 0.711888 0.781487
O O1 0.894757 0.058877 0.803685
O O2 0.970383 0.912822 0.877274
O O3 0.879654 0.111125 0.053802
O O4 0.919547 0.986475 0.070740
O O5 0.913999 0.849144 0.123504
O O6 0.776558 0.924304 0.951242
O O7 0.313614 0.692224 0.690634
O O8 0.349848 0.776731 0.515601
O O9 0.445359 0.768768 0.844498
O O10 0.256133 0.195754 0.205668
O O11 0.204391 0.304651 0.304146
O O12 0.705037 0.402676 0.794601
O O13 0.603019 0.293404 0.733471
O O14 0.393810 0.794607 0.058207
O O15 0.538086 0.834672 0.128459
O O16 0.374502 0.889257 0.857875
#
# Coordination Sequence:
#
# PCOD9262537 Si02
#       8
#     8   8   8   8   8   8   8   8
#     4  11  23  36  53  75 107 149 193 228 266 321
#     4  11  22  36  52  73 107 148 190 234 269 314
#     4   9  17  33  51  72 107 145 183 227 273 329
#     4   8  17  31  51  77 104 141 183 222 278 339
#     4  10  21  37  55  80 114 153 189 223 267 324
#     4  10  19  33  53  80 113 146 183 228 283 345
#     4   9  20  35  52  75 108 148 186 228 278 328
#     4  10  19  33  55  84 116 148 183 228 280 339
#
# _framework density 23.017792
#
# number of rings (size 3 to 8) (size 9 to 14) (size 15 to 20)
#    0.000    2.250    0.000    4.500    0.000   11.000 
#    0.000    6.250    0.000    0.000    0.000    0.000 
#    0.000   41.000    0.000    0.000    0.000    0.000 
#
# Total GULP energy -178488.226311 kJ/mol
# GULP energy per Si atom -5577.757072 kJ/mol
# Density = 2.296540 g / cm^3
# Si number density = 23.017792 Si / 1000 Ang^3
#
#
#
# Elastic Constant Matrix: (Units=GPa)
#
#
# Indices 1 2 3 4 5 6 
#
# 1 76.9084 24.2505 10.6442 0.0000 3.6495 0.0000
# 2 24.2505 47.5788 24.1204 0.0000 13.4598 0.0000
# 3 10.6442 24.1204 126.8624 0.0000 -1.1076 0.0000
# 4 0.0000 0.0000 0.0000 27.8451 0.0000 -2.6875
# 5 3.6495 13.4598 -1.1076 0.0000 41.4513 0.0000
# 6 0.0000 0.0000 0.0000 -2.6875 0.0000 29.7160
#
#
#
# Elastic Compliance Matrix: (Units=1/GPa)
#
#
# Indices 1 2 3 4 5 6 
#
# 1 0.015570 -0.008493 0.000321 0.000000 0.001396 0.000000
# 2 -0.008493 0.030618 -0.005190 0.000000 -0.009333 0.000000
# 3 0.000321 -0.005190 0.008859 0.000000 0.001894 0.000000
# 4 0.000000 0.000000 0.000000 0.036229 0.000000 0.003277
# 5 0.001396 -0.009333 0.001894 0.000000 0.027083 0.000000
# 6 0.000000 0.000000 0.000000 0.003277 0.000000 0.033948
#
#
# Mechanical properties :
#
#
# Convention : Reuss Voigt Hill
#
# Bulk Modulus (GPa) = 35.30900 41.04220 38.17560
# Shear Modulus (GPa) = 26.52887 32.62478 29.57682
#
# Velocity S-wave (km/s) = 3.39859 3.76888 3.58852
# Velocity P-wave (km/s) = 5.54741 6.06702 5.81302
#
# Compressibility (1/GPa) = 0.02832139
#
# Stress axis : x y z
#
# Youngs Moduli (GPa) = 64.22639 32.66026 112.87921
#
# Poissons Ratio (x) = 0.27739 -0.03619
# Poissons Ratio (y) = 0.54549 0.58588
# Poissons Ratio (z) = -0.02059 0.16952
#
# Static dielectric constant tensor:
#      x y z
#    x 2.038680 0.000000 0.039540 
#    y 0.000000 1.865620 0.000000 
#    z 0.039540 0.000000 1.968400 
# 
# From -- ./inp_files/58484.got.cif
#   From: 2010.05.17/outbox.cif.g08.bks.cpg/sg15_30_cif.got.tgz:58484.got - 2010.06.03 18:47:42.
