data_PCOD9262520
_publ_section_title
;
Structure prediction by ZEFSAII (Michael W. Deem and Ramdas Pophale) SiO2 
 PCOD9262520
Probable space group: C 2/C
;
_chemical_formula_sum "Si O2"
_cell_formula_units_Z 60
_cell_length_a 5.503372
_cell_length_b 18.590067
_cell_length_c 31.043074
_cell_angle_alpha 90.000000
_cell_angle_beta 99.379867
_cell_angle_gamma 90.000000
_cell_volume 3133.492344
_symmetry_space_group_name_H-M "C 2/C"
_symmetry_group_IT_number 15
_symmetry_cell_setting 'monoclinic'
loop_
_space_group_symop_operation_xyz
x,y,z
-x,y,1/2-z
-x,-y,-z
x,-y,1/2+z
1/2+x,1/2+y,z
1/2-x,1/2+y,1/2-z
1/2-x,1/2-y,-z
1/2+x,1/2-y,1/2+z
loop_
_atom_site_type_symbol
_atom_site_label
_atom_site_fract_x
_atom_site_fract_y
_atom_site_fract_z
Si Si1 0.559891 0.398032 0.540089
Si Si2 0.302548 0.947213 0.333314
Si Si3 0.351929 0.836370 0.207215
Si Si4 0.500000 0.556243 0.750000
Si Si5 0.985013 0.598351 0.514560
Si Si6 0.456217 0.655474 0.880028
Si Si7 0.317722 0.760154 0.451773
Si Si8 0.334109 0.022427 0.589874
O O1 0.280627 0.406633 0.515919
O O2 0.589132 0.317775 0.560064
O O3 0.635874 0.461403 0.574514
O O4 0.768830 0.403779 0.507917
O O5 0.458034 0.887616 0.312071
O O6 0.145980 0.985450 0.291387
O O7 0.483942 0.996331 0.365996
O O8 0.143458 0.899450 0.361653
O O9 0.500000 0.795753 0.250000
O O10 0.172492 0.890667 0.227391
O O11 0.193228 0.804523 0.162945
O O12 0.988492 0.537311 0.550989
O O13 0.988772 0.675186 0.539286
O O14 0.598435 0.709298 0.915800
O O15 0.288829 0.598616 0.901163
O O16 0.250000 0.750000 0.500000
#
# Coordination Sequence:
#
# PCOD9262520 Si02
#       8
#     8   8   8   4   8   8   8   8
#     4  11  25  37  56  79 111 151 190 243 281 330
#     4   9  17  29  50  78 110 138 178 225 282 337
#     4   8  15  28  49  80 110 137 173 230 284 332
#     4   8  14  28  48  76 114 134 166 222 286 332
#     4  11  22  39  56  77 108 150 199 237 282 326
#     4  10  19  33  53  78 112 147 187 232 282 341
#     4  10  21  39  55  77 110 156 196 238 283 336
#     4  11  21  33  55  80 109 142 191 235 284 326
#
# _framework density 19.147964999999999
#
# number of rings (size 3 to 8) (size 9 to 14) (size 15 to 20)
#    0.000    2.133    1.333    2.800    1.867    1.067 
#    0.000    0.000    0.000    0.000    1.733    0.000 
#  100.000    0.000    0.000    0.000    0.000    0.000 
#
# Total GULP energy -167032.465543 kJ/mol
# GULP energy per Si atom -5567.748851 kJ/mol
# Density = 1.910438 g / cm^3
# Si number density = 19.147965 Si / 1000 Ang^3
#
#
#
# Elastic Constant Matrix: (Units=GPa)
#
#
# Indices 1 2 3 4 5 6 
#
# 1 88.1316 7.2847 45.0625 0.0000 10.4324 0.0000
# 2 7.2847 60.8730 39.3045 0.0000 19.0921 0.0000
# 3 45.0625 39.3045 135.9303 0.0000 58.5727 0.0000
# 4 0.0000 0.0000 0.0000 3.8037 0.0000 -1.5279
# 5 10.4324 19.0921 58.5727 0.0000 61.3099 0.0000
# 6 0.0000 0.0000 0.0000 -1.5279 0.0000 13.6300
#
#
#
# Elastic Compliance Matrix: (Units=1/GPa)
#
#
# Indices 1 2 3 4 5 6 
#
# 1 0.014203 0.001498 -0.006628 0.000000 0.003449 0.000000
# 2 0.001498 0.020409 -0.006033 0.000000 -0.000847 0.000000
# 3 -0.006628 -0.006033 0.017002 0.000000 -0.013236 0.000000
# 4 0.000000 0.000000 0.000000 0.275301 0.000000 0.030861
# 5 0.003449 -0.000847 -0.013236 0.000000 0.028633 0.000000
# 6 0.000000 0.000000 0.000000 0.030861 0.000000 0.076827
#
#
# Mechanical properties :
#
#
# Convention : Reuss Voigt Hill
#
# Bulk Modulus (GPa) = 34.14248 52.02649 43.08448
# Shear Modulus (GPa) = 10.76508 28.63426 19.69967
#
# Velocity S-wave (km/s) = 2.37366 3.87126 3.21099
# Velocity P-wave (km/s) = 5.03805 6.87110 6.02469
#
# Compressibility (1/GPa) = 0.02928903
#
# Stress axis : x y z
#
# Youngs Moduli (GPa) = 70.40531 48.99693 58.81649
#
# Poissons Ratio (x) = -0.07340 0.38982
# Poissons Ratio (y) = -0.10547 0.35486
# Poissons Ratio (z) = 0.46663 0.29561
#
# Static dielectric constant tensor:
#      x y z
#    x 1.687840 0.000000 0.135290 
#    y 0.000000 1.706690 0.000000 
#    z 0.135290 0.000000 1.593000 
# 
# From -- ./inp_files/305943.got.cif
#   From: 2010.05.17/outbox.cif.g08.bks.cpg/sg15_153_cif.got.tgz:305943.got - 2010.06.03 18:47:42.
