data_PCOD9262176
_publ_section_title
;
Structure prediction by ZEFSAII (Michael W. Deem and Ramdas Pophale) SiO2 
 PCOD9262176
Probable space group: C 2/C
;
_chemical_formula_sum "Si O2"
_cell_formula_units_Z 64
_cell_length_a 26.910598
_cell_length_b 22.307873
_cell_length_c 9.714934
_cell_angle_alpha 90.000000
_cell_angle_beta 35.659087
_cell_angle_gamma 90.000000
_cell_volume 3399.859756
_symmetry_space_group_name_H-M "C 2/C"
_symmetry_group_IT_number 15
_symmetry_cell_setting 'monoclinic'
loop_
_space_group_symop_operation_xyz
x,y,z
-x,y,1/2-z
-x,-y,-z
x,-y,1/2+z
1/2+x,1/2+y,z
1/2-x,1/2+y,1/2-z
1/2-x,1/2-y,-z
1/2+x,1/2-y,1/2+z
loop_
_atom_site_type_symbol
_atom_site_label
_atom_site_fract_x
_atom_site_fract_y
_atom_site_fract_z
Si Si1 0.239498 0.361034 0.262219
Si Si2 0.128373 0.360621 0.085169
Si Si3 0.592797 0.018224 0.520005
Si Si4 0.898813 0.817135 0.498495
Si Si5 0.079685 0.689882 0.968012
Si Si6 0.704192 0.967095 0.505353
Si Si7 0.207018 0.083614 0.129096
Si Si8 0.744774 0.231120 0.170266
O O1 0.147882 0.350192 0.396738
O O2 0.232290 0.398809 0.419226
O O3 0.270652 0.293850 0.216504
O O4 0.293382 0.398162 0.029685
O O5 0.088563 0.415704 0.094351
O O6 0.067643 0.334758 0.341363
O O7 0.208746 0.387270 0.989836
O O8 0.169492 0.313236 0.887395
O O9 0.500000 0.989496 0.750000
O O10 0.663869 0.984692 0.449602
O O11 0.629169 0.023056 0.284946
O O12 0.886188 0.758228 0.623313
O O13 0.867853 0.879994 0.629222
O O14 0.834978 0.798759 0.516617
O O15 0.000000 0.820745 0.250000
O O16 0.000000 0.691741 0.250000
O O17 0.779516 0.013059 0.375688
O O18 0.750000 0.250000 0.000000
#
# Coordination Sequence:
#
# PCOD9262176 Si02
#       8
#     8   8   8   8   8   8   8   8
#     4  10  19  32  55  77 106 146 185 225 277 331
#     4   9  19  34  51  79 108 146 187 223 275 339
#     4  11  23  35  50  75 112 150 186 228 277 328
#     4   9  18  35  60  85 109 140 186 233 284 336
#     4   9  18  31  53  83 112 140 178 228 276 339
#     4  11  21  36  51  79 105 148 196 227 270 331
#     4   9  18  35  55  77 103 143 191 234 268 326
#     4  10  19  34  56  85 114 146 181 230 289 343
#
# _framework density 18.824306
#
# number of rings (size 3 to 8) (size 9 to 14) (size 15 to 20)
#    0.000    2.250    1.250    1.875    1.750    3.500 
#    2.250    0.000    0.000    0.750    0.000    0.000 
#    0.000    0.000    0.000    0.000    0.000    0.000 
#
# Total GULP energy -178280.702744 kJ/mol
# GULP energy per Si atom -5571.271961 kJ/mol
# Density = 1.878146 g / cm^3
# Si number density = 18.824306 Si / 1000 Ang^3
#
#
#
# Elastic Constant Matrix: (Units=GPa)
#
#
# Indices 1 2 3 4 5 6 
#
# 1 28.5194 1.8311 17.8457 0.0000 3.3364 0.0000
# 2 1.8311 56.2238 12.2952 0.0000 -7.6319 0.0000
# 3 17.8457 12.2952 65.0640 0.0000 5.0646 0.0000
# 4 0.0000 0.0000 0.0000 26.6540 0.0000 0.8164
# 5 3.3364 -7.6319 5.0646 0.0000 25.3276 0.0000
# 6 0.0000 0.0000 0.0000 0.8164 0.0000 10.7502
#
#
#
# Elastic Compliance Matrix: (Units=1/GPa)
#
#
# Indices 1 2 3 4 5 6 
#
# 1 0.042630 0.000728 -0.011590 0.000000 -0.003078 0.000000
# 2 0.000728 0.019643 -0.004434 0.000000 0.006710 0.000000
# 3 -0.011590 -0.004434 0.019678 0.000000 -0.003744 0.000000
# 4 0.000000 0.000000 0.000000 0.037605 0.000000 -0.002856
# 5 -0.003078 0.006710 -0.003744 0.000000 0.042659 0.000000
# 6 0.000000 0.000000 0.000000 -0.002856 0.000000 0.093238
#
#
# Mechanical properties :
#
#
# Convention : Reuss Voigt Hill
#
# Bulk Modulus (GPa) = 19.47104 23.75012 21.61058
# Shear Modulus (GPa) = 16.49271 20.40204 18.44737
#
# Velocity S-wave (km/s) = 2.96318 3.29570 3.13385
# Velocity P-wave (km/s) = 4.69822 5.20830 4.95982
#
# Compressibility (1/GPa) = 0.05135832
#
# Stress axis : x y z
#
# Youngs Moduli (GPa) = 23.45777 50.90940 50.81861
#
# Poissons Ratio (x) = -0.03708 0.58901
# Poissons Ratio (y) = -0.01709 0.22533
# Poissons Ratio (z) = 0.27189 0.22573
#
# Static dielectric constant tensor:
#      x y z
#    x 1.656110 0.000000 0.009010 
#    y 0.000000 1.693810 0.000000 
#    z 0.009010 0.000000 1.667530 
# 
# From -- ./inp_files/58656.got.cif
#   From: 2010.05.17/outbox.cif.g08.bks.cpg/sg15_30_cif.got.tgz:58656.got - 2010.06.03 18:47:42.
