data_PCOD9262611
_publ_section_title
;
Structure prediction by ZEFSAII (Michael W. Deem and Ramdas Pophale) SiO2 
 PCOD9262611
Probable space group: C 2/C
;
_chemical_formula_sum "Si O2"
_cell_formula_units_Z 56
_cell_length_a 17.636992
_cell_length_b 19.498318
_cell_length_c 11.126075
_cell_angle_alpha 90.000000
_cell_angle_beta 126.407076
_cell_angle_gamma 90.000000
_cell_volume 3079.375729
_symmetry_space_group_name_H-M "C 2/C"
_symmetry_group_IT_number 15
_symmetry_cell_setting 'monoclinic'
loop_
_space_group_symop_operation_xyz
x,y,z
-x,y,1/2-z
-x,-y,-z
x,-y,1/2+z
1/2+x,1/2+y,z
1/2-x,1/2+y,1/2-z
1/2-x,1/2-y,-z
1/2+x,1/2-y,1/2+z
loop_
_atom_site_type_symbol
_atom_site_label
_atom_site_fract_x
_atom_site_fract_y
_atom_site_fract_z
Si Si1 0.709934 0.681775 0.573848
Si Si2 0.782450 0.849007 0.999072
Si Si3 0.407444 0.564757 0.953983
Si Si4 0.536442 0.310527 0.488303
Si Si5 0.097983 0.030388 0.817836
Si Si6 0.843343 0.255802 0.748627
Si Si7 0.403017 0.760554 0.214885
O O1 0.684070 0.612590 0.617523
O O2 0.688721 0.744830 0.644646
O O3 0.636624 0.695168 0.397213
O O4 0.816434 0.687111 0.631995
O O5 0.873073 0.826992 0.005630
O O6 0.809632 0.925691 0.063093
O O7 0.785436 0.801004 0.118826
O O8 0.689482 0.828098 0.837304
O O9 0.488837 0.620823 0.000793
O O10 0.400731 0.518570 0.825913
O O11 0.413911 0.526649 0.088622
O O12 0.451543 0.268676 0.344808
O O13 0.573145 0.263542 0.630202
O O14 0.000000 0.072440 0.750000
O O15 0.500000 0.785891 0.250000
#
# Coordination Sequence:
#
# PCOD9262611 Si02
#       7
#     8   8   8   8   8   8   8
#     4  10  21  36  53  82 114 148 186 228 286 335
#     4  11  20  34  55  78 112 148 181 231 279 335
#     4  11  24  37  54  80 119 150 194 228 268 341
#     4  11  20  35  54  81 115 145 184 229 279 335
#     4  12  23  37  53  81 113 160 193 223 279 342
#     4  10  19  33  54  80 107 142 184 229 284 329
#     4  11  20  33  57  82 113 148 180 230 287 343
#
# _framework density 18.185504999999999
#
# number of rings (size 3 to 8) (size 9 to 14) (size 15 to 20)
#    0.000    1.143    8.571    0.857    2.000    0.000 
#    0.000    0.000    0.000    0.000    0.000    8.000 
#    0.000    0.000    0.000    0.000    0.000    0.000 
#
# Total GULP energy -155931.298189 kJ/mol
# GULP energy per Si atom -5568.974935 kJ/mol
# Density = 1.814411 g / cm^3
# Si number density = 18.185505 Si / 1000 Ang^3
#
#
#
# Elastic Constant Matrix: (Units=GPa)
#
#
# Indices 1 2 3 4 5 6 
#
# 1 82.7034 15.3999 13.6057 0.0000 -0.3781 0.0000
# 2 15.3999 45.7241 21.2082 0.0000 1.3150 0.0000
# 3 13.6057 21.2082 94.8778 0.0000 -6.7811 0.0000
# 4 0.0000 0.0000 0.0000 29.7304 0.0000 -2.7251
# 5 -0.3781 1.3150 -6.7811 0.0000 29.0426 0.0000
# 6 0.0000 0.0000 0.0000 -2.7251 0.0000 18.8610
#
#
#
# Elastic Compliance Matrix: (Units=1/GPa)
#
#
# Indices 1 2 3 4 5 6 
#
# 1 0.012983 -0.003923 -0.000976 0.000000 0.000119 0.000000
# 2 -0.003923 0.025754 -0.005371 0.000000 -0.002471 0.000000
# 3 -0.000976 -0.005371 0.012099 0.000000 0.003055 0.000000
# 4 0.000000 0.000000 0.000000 0.034087 0.000000 0.004925
# 5 0.000119 -0.002471 0.003055 0.000000 0.035259 0.000000
# 6 0.000000 0.000000 0.000000 0.004925 0.000000 0.053731
#
#
# Mechanical properties :
#
#
# Convention : Reuss Voigt Hill
#
# Bulk Modulus (GPa) = 33.00886 35.97033 34.48960
# Shear Modulus (GPa) = 24.44363 27.06623 25.75493
#
# Velocity S-wave (km/s) = 3.67021 3.86209 3.76737
# Velocity P-wave (km/s) = 6.01259 6.30161 6.15879
#
# Compressibility (1/GPa) = 0.03029489
#
# Stress axis : x y z
#
# Youngs Moduli (GPa) = 77.02316 38.82910 82.65274
#
# Poissons Ratio (x) = 0.15234 0.08070
# Poissons Ratio (y) = 0.30218 0.44391
# Poissons Ratio (z) = 0.07520 0.20854
#
# Static dielectric constant tensor:
#      x y z
#    x 1.661880 0.000000 -0.024820 
#    y 0.000000 1.668910 0.000000 
#    z -0.024820 0.000000 1.695440 
# 
# From -- ./inp_files/107343.got.cif
#   From: 2010.05.17/outbox.cif.g08.bks.cpg/sg15_54_cif.got.tgz:107343.got - 2010.06.03 18:47:42.
