data_PCOD9262269
_publ_section_title
;
Structure prediction by ZEFSAII (Michael W. Deem and Ramdas Pophale) SiO2 
 PCOD9262269
Probable space group: C 2/C
;
_chemical_formula_sum "Si O2"
_cell_formula_units_Z 56
_cell_length_a 20.942075
_cell_length_b 16.367101
_cell_length_c 17.581876
_cell_angle_alpha 90.000000
_cell_angle_beta 21.925355
_cell_angle_gamma 90.000000
_cell_volume 2250.241182
_symmetry_space_group_name_H-M "C 2/C"
_symmetry_group_IT_number 15
_symmetry_cell_setting 'monoclinic'
loop_
_space_group_symop_operation_xyz
x,y,z
-x,y,1/2-z
-x,-y,-z
x,-y,1/2+z
1/2+x,1/2+y,z
1/2-x,1/2+y,1/2-z
1/2-x,1/2-y,-z
1/2+x,1/2-y,1/2+z
loop_
_atom_site_type_symbol
_atom_site_label
_atom_site_fract_x
_atom_site_fract_y
_atom_site_fract_z
Si Si1 0.618630 0.332933 0.510804
Si Si2 0.197524 0.479065 0.496255
Si Si3 0.000000 0.230419 0.750000
Si Si4 0.342486 0.861818 0.830154
Si Si5 0.801615 0.092285 0.170629
Si Si6 0.216186 0.345082 0.919960
Si Si7 0.811656 0.093691 0.718971
Si Si8 0.500000 0.540166 0.250000
O O1 0.418937 0.342135 0.711327
O O2 0.646344 0.243894 0.515050
O O3 0.721066 0.348470 0.318467
O O4 0.637792 0.402692 0.553753
O O5 0.125780 0.440500 0.652821
O O6 0.146782 0.571914 0.533383
O O7 0.197595 0.422344 0.420311
O O8 0.400350 0.489395 0.296349
O O9 0.973916 0.289927 0.706248
O O10 0.165722 0.176536 0.556568
O O11 0.299614 0.889296 0.793635
O O12 0.699740 0.139387 0.348631
O O13 0.811334 0.996448 0.181019
O O14 0.001114 0.118093 0.955380
#
# Coordination Sequence:
#
# PCOD9262269 Si02
#       8
#     8   8   4   8   8   8   8   4
#     4  10  20  35  54  80 112 142 186 234 280 324
#     4  10  19  34  57  80 111 146 188 230 277 335
#     4  10  25  36  53  86 114 142 188 234 295 346
#     4  11  21  39  58  82 115 149 187 241 289 344
#     4   9  17  32  57  80 108 144 191 232 278 337
#     4   9  21  36  54  83 112 146 185 231 280 337
#     4   9  17  32  54  84 108 143 189 233 280 342
#     4  10  19  32  57  84 106 150 196 226 267 338
#
# _framework density 24.886222
#
# number of rings (size 3 to 8) (size 9 to 14) (size 15 to 20)
#    0.000    2.286    0.000    5.571    0.000    6.857 
#    0.000    3.571    0.000    3.429    0.000    0.000 
#    0.000    0.000    0.000    0.000    0.000    0.000 
#
# Total GULP energy -156478.365589 kJ/mol
# GULP energy per Si atom -5588.513057 kJ/mol
# Density = 2.482958 g / cm^3
# Si number density = 24.886222 Si / 1000 Ang^3
#
#
#
# Elastic Constant Matrix: (Units=GPa)
#
#
# Indices 1 2 3 4 5 6 
#
# 1 139.8896 19.9952 15.2793 0.0108 24.7351 -0.0057
# 2 19.9952 85.7463 11.8445 0.0180 7.4962 -0.0094
# 3 15.2793 11.8445 53.6509 0.0111 26.0100 -0.0031
# 4 0.0108 0.0180 0.0111 32.6544 -0.0013 6.3785
# 5 24.7351 7.4962 26.0100 -0.0013 32.3183 0.0009
# 6 -0.0057 -0.0094 -0.0031 6.3785 0.0009 8.5220
#
#
#
# Elastic Compliance Matrix: (Units=1/GPa)
#
#
# Indices 1 2 3 4 5 6 
#
# 1 0.008506 -0.001546 0.001478 -0.000004 -0.007341 0.000009
# 2 -0.001546 0.012333 -0.002409 -0.000009 0.000262 0.000018
# 3 0.001478 -0.002409 0.031201 -0.000016 -0.025683 0.000024
# 4 -0.000004 -0.000009 -0.000016 0.035868 0.000020 -0.026846
# 5 -0.007341 0.000262 -0.025683 0.000020 0.057170 -0.000036
# 6 0.000009 0.000018 0.000024 -0.026846 -0.000036 0.137437
#
#
# Mechanical properties :
#
#
# Convention : Reuss Voigt Hill
#
# Bulk Modulus (GPa) = 21.23811 41.50276 31.37043
# Shear Modulus (GPa) = 16.49269 30.17680 23.33475
#
# Velocity S-wave (km/s) = 2.57714 3.48600 3.06544
# Velocity P-wave (km/s) = 4.17230 5.73726 5.01619
#
# Compressibility (1/GPa) = 0.04708517
#
# Stress axis : x y z
#
# Youngs Moduli (GPa) = 117.56315 81.08507 32.05004
#
# Poissons Ratio (x) = 0.12535 -0.04736
# Poissons Ratio (y) = 0.18174 0.07722
# Poissons Ratio (z) = -0.17372 0.19535
#
# Static dielectric constant tensor:
#      x y z
#    x 1.988460 -0.000010 -0.042430 
#    y -0.000010 1.954670 0.000020 
#    z -0.042430 0.000020 2.094450 
# 
# From -- ./inp_files/215744.got.cif
#   From: 2010.05.17/outbox.cif.g08.bks.cpg/sg15_108_cif.got.tgz:215744.got - 2010.06.03 18:47:42.
