data_PCOD9262581
_publ_section_title
;
Structure prediction by ZEFSAII (Michael W. Deem and Ramdas Pophale) SiO2 
 PCOD9262581
Probable space group: C 2/C
;
_chemical_formula_sum "Si O2"
_cell_formula_units_Z 52
_cell_length_a 14.126753
_cell_length_b 8.107558
_cell_length_c 22.005523
_cell_angle_alpha 90.000000
_cell_angle_beta 70.580298
_cell_angle_gamma 90.000000
_cell_volume 2376.981033
_symmetry_space_group_name_H-M "C 2/C"
_symmetry_group_IT_number 15
_symmetry_cell_setting 'monoclinic'
loop_
_space_group_symop_operation_xyz
x,y,z
-x,y,1/2-z
-x,-y,-z
x,-y,1/2+z
1/2+x,1/2+y,z
1/2-x,1/2+y,1/2-z
1/2-x,1/2-y,-z
1/2+x,1/2-y,1/2+z
loop_
_atom_site_type_symbol
_atom_site_label
_atom_site_fract_x
_atom_site_fract_y
_atom_site_fract_z
Si Si1 0.568567 0.597904 0.119775
Si Si2 0.281977 0.347508 0.270420
Si Si3 0.383933 0.033727 0.035759
Si Si4 0.250791 0.200463 0.154429
Si Si5 0.219148 0.937990 0.992425
Si Si6 0.000000 0.114035 0.750000
Si Si7 0.139264 0.807289 0.891800
O O1 0.650584 0.714406 0.135187
O O2 0.520146 0.493645 0.185294
O O3 0.475741 0.671770 0.102897
O O4 0.633320 0.490427 0.058408
O O5 0.265296 0.337789 0.202120
O O6 0.264972 0.527480 0.304321
O O7 0.396079 0.293175 0.260349
O O8 0.206596 0.220833 0.318572
O O9 0.350359 0.866769 0.076180
O O10 0.346686 0.174953 0.089781
O O11 0.317133 0.045288 0.989043
O O12 0.500000 0.000000 0.000000
O O13 0.179153 0.939718 0.932180
O O14 0.250000 0.750000 0.000000
#
# Coordination Sequence:
#
# PCOD9262581 Si02
#       7
#     8   8   8   8   8   4   8
#     4  10  19  35  55  78 105 142 181 223 270 322
#     4  10  20  36  54  80 107 140 181 225 271 323
#     4   9  19  35  53  75 110 144 173 222 277 321
#     4   9  20  37  57  79 109 143 182 226 274 321
#     4   9  18  33  53  76 103 136 175 217 261 315
#     4  10  20  34  56  78 104 138 176 222 268 318
#     4  10  19  33  54  77 105 139 180 222 268 323
#
# _framework density 21.87649
#
# number of rings (size 3 to 8) (size 9 to 14) (size 15 to 20)
#    0.000    2.462    0.000    5.077    0.000    3.692 
#    0.000   10.769    0.000    0.000    0.000    0.000 
#    0.000    0.000    0.000    0.000    0.000    0.000 
#
# Total GULP energy -145079.608547 kJ/mol
# GULP energy per Si atom -5579.984944 kJ/mol
# Density = 2.182670 g / cm^3
# Si number density = 21.876490 Si / 1000 Ang^3
#
#
#
# Elastic Constant Matrix: (Units=GPa)
#
#
# Indices 1 2 3 4 5 6 
#
# 1 112.0910 13.9346 26.8144 0.0000 4.8592 0.0000
# 2 13.9346 46.6199 13.1709 0.0000 7.9524 0.0000
# 3 26.8144 13.1709 85.5130 0.0000 8.5255 0.0000
# 4 0.0000 0.0000 0.0000 34.1278 0.0000 0.8797
# 5 4.8592 7.9524 8.5255 0.0000 49.8397 0.0000
# 6 0.0000 0.0000 0.0000 0.8797 0.0000 21.1622
#
#
#
# Elastic Compliance Matrix: (Units=1/GPa)
#
#
# Indices 1 2 3 4 5 6 
#
# 1 0.009851 -0.002144 -0.002744 0.000000 -0.000149 0.000000
# 2 -0.002144 0.023354 -0.002619 0.000000 -0.003069 0.000000
# 3 -0.002744 -0.002619 0.013113 0.000000 -0.001558 0.000000
# 4 0.000000 0.000000 0.000000 0.029333 0.000000 -0.001219
# 5 -0.000149 -0.003069 -0.001558 0.000000 0.020835 0.000000
# 6 0.000000 0.000000 0.000000 -0.001219 0.000000 0.047305
#
#
# Mechanical properties :
#
#
# Convention : Reuss Voigt Hill
#
# Bulk Modulus (GPa) = 31.94352 39.11820 35.53086
# Shear Modulus (GPa) = 29.54404 33.71289 31.62846
#
# Velocity S-wave (km/s) = 3.67889 3.92989 3.80646
# Velocity P-wave (km/s) = 5.71657 6.20582 5.96621
#
# Compressibility (1/GPa) = 0.03130525
#
# Stress axis : x y z
#
# Youngs Moduli (GPa) = 101.51603 42.81875 76.25919
#
# Poissons Ratio (x) = 0.09179 0.20924
# Poissons Ratio (y) = 0.21762 0.19971
# Poissons Ratio (z) = 0.27854 0.11214
#
# Static dielectric constant tensor:
#      x y z
#    x 1.822120 0.000000 0.013790 
#    y 0.000000 1.845430 0.000000 
#    z 0.013790 0.000000 1.827840 
# 
# From -- ./inp_files/243123.got.cif
#   From: 2010.05.17/outbox.cif.g08.bks.cpg/sg15_122_cif.got.tgz:243123.got - 2010.06.03 18:47:42.
