data_PCOD9262313
_publ_section_title
;
Structure prediction by ZEFSAII (Michael W. Deem and Ramdas Pophale) SiO2 
 PCOD9262313
Probable space group: C 2/C
;
_chemical_formula_sum "Si O2"
_cell_formula_units_Z 60
_cell_length_a 26.793582
_cell_length_b 23.627269
_cell_length_c 14.744042
_cell_angle_alpha 90.000000
_cell_angle_beta 18.549429
_cell_angle_gamma 90.000000
_cell_volume 2969.309464
_symmetry_space_group_name_H-M "C 2/C"
_symmetry_group_IT_number 15
_symmetry_cell_setting 'monoclinic'
loop_
_space_group_symop_operation_xyz
x,y,z
-x,y,1/2-z
-x,-y,-z
x,-y,1/2+z
1/2+x,1/2+y,z
1/2-x,1/2+y,1/2-z
1/2-x,1/2-y,-z
1/2+x,1/2-y,1/2+z
loop_
_atom_site_type_symbol
_atom_site_label
_atom_site_fract_x
_atom_site_fract_y
_atom_site_fract_z
Si Si1 0.500000 0.087758 0.750000
Si Si2 0.151952 0.879275 0.130045
Si Si3 0.389156 0.133790 0.586712
Si Si4 0.391973 0.247021 0.686962
Si Si5 0.173816 0.152117 0.325077
Si Si6 0.464821 0.939717 0.517081
Si Si7 0.713942 0.861404 0.422197
Si Si8 0.737358 0.228250 0.157068
O O1 0.660948 0.123393 0.480896
O O2 0.516131 0.057480 0.624405
O O3 0.161700 0.886752 0.221679
O O4 0.975298 0.888286 0.399773
O O5 0.290846 0.914706 0.841288
O O6 0.197294 0.812746 0.034342
O O7 0.369259 0.198718 0.650399
O O8 0.411117 0.100956 0.643629
O O9 0.269760 0.119765 0.710490
O O10 0.551827 0.123568 0.252572
O O11 0.389155 0.307980 0.645925
O O12 0.551104 0.231458 0.464855
O O13 0.250000 0.250000 0.000000
O O14 0.207474 0.193636 0.350796
O O15 0.500000 0.000000 0.500000
O O16 0.709032 0.792833 0.430781
#
# Coordination Sequence:
#
# PCOD9262313 Si02
#       8
#     4   8   8   8   8   8   8   8
#     4  12  26  48  68 100 134 172 222 272 350 400
#     4  11  22  39  62  96 131 170 235 274 323 396
#     4  10  20  37  57  89 127 163 216 269 329 383
#     4  12  22  34  55  87 139 181 216 259 330 408
#     4  12  23  37  66  95 138 182 217 271 332 414
#     4  11  25  46  71  94 124 171 227 291 339 395
#     4  10  19  32  59  89 127 167 211 270 317 382
#     4  12  20  35  54  94 133 177 220 264 318 390
#
# _framework density 20.206717000000001
#
# number of rings (size 3 to 8) (size 9 to 14) (size 15 to 20)
#    0.000    0.800    6.667    3.200    1.867    2.133 
#    0.000    0.667    0.000    1.600    0.000    0.000 
#    0.000    0.000    0.000    0.000    0.000    0.000 
#
# Total GULP energy -167283.942012 kJ/mol
# GULP energy per Si atom -5576.131400 kJ/mol
# Density = 2.016073 g / cm^3
# Si number density = 20.206717 Si / 1000 Ang^3
#
#
#
# Elastic Constant Matrix: (Units=GPa)
#
#
# Indices 1 2 3 4 5 6 
#
# 1 148.8932 21.5854 54.4395 -0.0035 3.9217 0.0026
# 2 21.5854 57.6782 20.2738 -0.0020 0.3349 0.0037
# 3 54.4395 20.2738 106.2583 -0.0085 -15.9637 0.0064
# 4 -0.0035 -0.0020 -0.0085 6.0503 0.0035 -4.2634
# 5 3.9217 0.3349 -15.9637 0.0035 27.7789 -0.0029
# 6 0.0026 0.0037 0.0064 -4.2634 -0.0029 22.1321
#
#
#
# Elastic Compliance Matrix: (Units=1/GPa)
#
#
# Indices 1 2 3 4 5 6 
#
# 1 0.008810 -0.001583 -0.004811 0.000000 -0.003989 0.000000
# 2 -0.001583 0.019025 -0.003086 0.000000 -0.001780 -0.000002
# 3 -0.004811 -0.003086 0.013760 0.000011 0.008624 0.000000
# 4 0.000000 0.000000 0.000011 0.191241 -0.000014 0.036839
# 5 -0.003989 -0.001780 0.008624 -0.000014 0.041539 0.000001
# 6 0.000000 -0.000002 0.000000 0.036839 0.000001 0.052280
#
#
# Mechanical properties :
#
#
# Convention : Reuss Voigt Hill
#
# Bulk Modulus (GPa) = 44.17915 56.15856 50.16886
# Shear Modulus (GPa) = 14.15790 25.62767 19.89279
#
# Velocity S-wave (km/s) = 2.64986 3.56515 3.14102
# Velocity P-wave (km/s) = 5.59226 6.69324 6.16737
#
# Compressibility (1/GPa) = 0.02263511
#
# Stress axis : x y z
#
# Youngs Moduli (GPa) = 113.51077 52.56215 72.67289
#
# Poissons Ratio (x) = 0.08319 0.34962
# Poissons Ratio (y) = 0.17966 0.22430
# Poissons Ratio (z) = 0.54608 0.16223
#
# Static dielectric constant tensor:
#      x y z
#    x 1.828440 0.000000 -0.027810 
#    y 0.000000 1.731820 0.000000 
#    z -0.027810 0.000000 1.721030 
# 
# From -- ./inp_files/179277.got.cif
#   From: 2010.05.17/outbox.cif.g08.bks.cpg/sg15_90_cif.got.tgz:179277.got - 2010.06.03 18:47:42.
