data_PCOD9262748
_publ_section_title
;
Structure prediction by ZEFSAII (Michael W. Deem and Ramdas Pophale) SiO2 
 PCOD9262748
Probable space group: C 2/C
;
_chemical_formula_sum "Si O2"
_cell_formula_units_Z 60
_cell_length_a 10.168615
_cell_length_b 19.484663
_cell_length_c 24.969210
_cell_angle_alpha 90.000000
_cell_angle_beta 140.498857
_cell_angle_gamma 90.000000
_cell_volume 3146.882595
_symmetry_space_group_name_H-M "C 2/C"
_symmetry_group_IT_number 15
_symmetry_cell_setting 'monoclinic'
loop_
_space_group_symop_operation_xyz
x,y,z
-x,y,1/2-z
-x,-y,-z
x,-y,1/2+z
1/2+x,1/2+y,z
1/2-x,1/2+y,1/2-z
1/2-x,1/2-y,-z
1/2+x,1/2-y,1/2+z
loop_
_atom_site_type_symbol
_atom_site_label
_atom_site_fract_x
_atom_site_fract_y
_atom_site_fract_z
Si Si1 0.434779 0.240129 0.865822
Si Si2 0.752501 0.045862 0.096986
Si Si3 0.795285 0.135429 0.009611
Si Si4 0.783807 0.239718 0.813736
Si Si5 0.977996 0.140292 0.955588
Si Si6 0.698612 0.913176 0.024418
Si Si7 0.000000 0.136603 0.250000
Si Si8 0.237838 0.237168 0.911245
O O1 0.542576 0.314126 0.908929
O O2 0.360494 0.226240 0.782781
O O3 0.252539 0.237020 0.851957
O O4 0.602921 0.184112 0.935577
O O5 0.731611 0.077119 0.030821
O O6 0.941686 0.084949 0.184031
O O7 0.780192 0.965262 0.095663
O O8 0.536601 0.061688 0.059859
O O9 0.883314 0.109792 0.980278
O O10 0.691751 0.310162 0.808143
O O11 0.809721 0.176512 0.863296
O O12 0.012273 0.251504 0.862832
O O13 0.135751 0.092389 0.971918
O O14 0.108995 0.205449 0.018042
O O15 0.689736 0.836209 0.044139
#
# Coordination Sequence:
#
# PCOD9262748 Si02
#       8
#     8   8   8   8   8   8   4   8
#     4  10  19  33  55  84 116 141 187 240 290 341
#     4  11  22  39  59  80 118 157 201 228 289 351
#     4  10  20  36  56  81 112 152 184 237 289 340
#     4  11  20  32  55  85 112 144 186 241 297 334
#     4  10  21  36  60  86 115 143 192 242 293 341
#     4  10  21  39  57  83 111 159 193 229 286 357
#     4  12  22  36  58  86 112 150 196 252 280 346
#     4  10  19  36  58  84 114 146 186 244 290 343
#
# _framework density 19.066486999999999
#
# number of rings (size 3 to 8) (size 9 to 14) (size 15 to 20)
#    0.000    1.600    2.667    4.400    1.867    0.533 
#    4.800    0.000    0.000    0.000    0.000    5.600 
#    0.000    0.000    0.000    0.000    0.000    0.000 
#
# Total GULP energy -167338.578549 kJ/mol
# GULP energy per Si atom -5577.952618 kJ/mol
# Density = 1.902309 g / cm^3
# Si number density = 19.066487 Si / 1000 Ang^3
#
#
#
# Elastic Constant Matrix: (Units=GPa)
#
#
# Indices 1 2 3 4 5 6 
#
# 1 98.7018 21.5837 20.8309 0.0001 -2.0958 0.0000
# 2 21.5837 50.8194 4.6513 0.0000 3.8810 0.0000
# 3 20.8309 4.6513 69.5472 0.0000 -17.9398 0.0000
# 4 0.0001 0.0000 0.0000 13.0158 0.0000 1.4423
# 5 -2.0958 3.8810 -17.9398 0.0000 25.2488 0.0000
# 6 0.0000 0.0000 0.0000 1.4423 0.0000 22.4649
#
#
#
# Elastic Compliance Matrix: (Units=1/GPa)
#
#
# Indices 1 2 3 4 5 6 
#
# 1 0.011860 -0.004667 -0.003430 0.000000 -0.000735 0.000000
# 2 -0.004667 0.022139 -0.001298 0.000000 -0.004713 0.000000
# 3 -0.003430 -0.001298 0.018943 0.000000 0.013374 0.000000
# 4 0.000000 0.000000 0.000000 0.077380 0.000000 -0.004968
# 5 -0.000735 -0.004713 0.013374 0.000000 0.049772 0.000000
# 6 0.000000 0.000000 0.000000 -0.004968 0.000000 0.044833
#
#
# Mechanical properties :
#
#
# Convention : Reuss Voigt Hill
#
# Bulk Modulus (GPa) = 29.28202 34.80001 32.04101
# Shear Modulus (GPa) = 19.60005 23.61273 21.60639
#
# Velocity S-wave (km/s) = 3.20970 3.52297 3.36998
# Velocity P-wave (km/s) = 5.39698 5.90254 5.65541
#
# Compressibility (1/GPa) = 0.03415065
#
# Stress axis : x y z
#
# Youngs Moduli (GPa) = 84.31421 45.17017 52.79056
#
# Poissons Ratio (x) = 0.21082 0.18107
# Poissons Ratio (y) = 0.39351 0.06854
# Poissons Ratio (z) = 0.28919 0.05865
#
# Static dielectric constant tensor:
#      x y z
#    x 1.721890 0.000000 -0.004810 
#    y 0.000000 1.651410 0.000000 
#    z -0.004810 0.000000 1.670140 
# 
# From -- ./inp_files/293580.got.cif
#   From: 2010.05.17/outbox.cif.g08.bks.cpg/sg15_147_cif.got.tgz:293580.got - 2010.06.03 18:47:42.
