data_PCOD9262582
_publ_section_title
;
Structure prediction by ZEFSAII (Michael W. Deem and Ramdas Pophale) SiO2 
 PCOD9262582
Probable space group: C 2/C
;
_chemical_formula_sum "Si O2"
_cell_formula_units_Z 56
_cell_length_a 12.070419
_cell_length_b 27.651533
_cell_length_c 10.496710
_cell_angle_alpha 90.000000
_cell_angle_beta 107.392162
_cell_angle_gamma 90.000000
_cell_volume 3343.267597
_symmetry_space_group_name_H-M "C 2/C"
_symmetry_group_IT_number 15
_symmetry_cell_setting 'monoclinic'
loop_
_space_group_symop_operation_xyz
x,y,z
-x,y,1/2-z
-x,-y,-z
x,-y,1/2+z
1/2+x,1/2+y,z
1/2-x,1/2+y,1/2-z
1/2-x,1/2-y,-z
1/2+x,1/2-y,1/2+z
loop_
_atom_site_type_symbol
_atom_site_label
_atom_site_fract_x
_atom_site_fract_y
_atom_site_fract_z
Si Si1 0.419470 0.766581 0.915493
Si Si2 0.056059 0.437447 0.406928
Si Si3 0.719540 0.619626 0.142539
Si Si4 0.162482 0.719486 0.385438
Si Si5 0.227031 0.358257 0.550828
Si Si6 0.594419 0.048434 0.398550
Si Si7 0.478896 0.669849 0.091236
O O1 0.357519 0.754841 0.758803
O O2 0.540112 0.789745 0.911272
O O3 0.336387 0.805931 0.954878
O O4 0.462295 0.720589 0.011455
O O5 0.147020 0.394772 0.449122
O O6 0.110440 0.491334 0.431083
O O7 0.000000 0.434519 0.250000
O O8 0.965894 0.432052 0.493299
O O9 0.782541 0.667813 0.117879
O O10 0.750321 0.618472 0.302565
O O11 0.785721 0.575244 0.097469
O O12 0.583093 0.634111 0.083214
O O13 0.250000 0.750000 0.500000
O O14 0.352978 0.353406 0.533458
O O15 0.500000 0.054107 0.250000
O O16 0.500000 0.679416 0.250000
#
# Coordination Sequence:
#
# PCOD9262582 Si02
#       7
#     8   8   8   8   8   8   8
#     4  10  20  34  53  79 107 149 187 227 278 324
#     4  10  21  36  55  90 112 134 178 236 287 326
#     4  10  19  35  58  79 102 149 192 221 272 338
#     4  10  19  33  54  77 107 140 188 234 267 330
#     4  10  20  36  54  76 112 146 184 228 275 337
#     4  10  19  36  63  81 109 142 180 230 282 337
#     4  10  21  36  53  77 110 149 190 225 272 331
#
# _framework density 16.750080000000001
#
# number of rings (size 3 to 8) (size 9 to 14) (size 15 to 20)
#    0.000    2.000    2.857    1.286    2.000    0.571 
#    5.143    0.714    0.000    0.000    0.000    0.000 
#    0.000    0.000    0.000    0.000    0.000    0.000 
#
# Total GULP energy -155927.340033 kJ/mol
# GULP energy per Si atom -5568.833573 kJ/mol
# Density = 1.671196 g / cm^3
# Si number density = 16.750080 Si / 1000 Ang^3
#
#
#
# Elastic Constant Matrix: (Units=GPa)
#
#
# Indices 1 2 3 4 5 6 
#
# 1 124.4899 49.3570 28.6548 0.0000 -0.6703 0.0000
# 2 49.3570 57.2223 26.2323 0.0000 0.2346 0.0000
# 3 28.6548 26.2323 49.9253 0.0000 1.6133 0.0000
# 4 0.0000 0.0000 0.0000 7.9190 0.0000 -3.8175
# 5 -0.6703 0.2346 1.6133 0.0000 23.1675 0.0000
# 6 0.0000 0.0000 0.0000 -3.8175 0.0000 16.4221
#
#
#
# Elastic Compliance Matrix: (Units=1/GPa)
#
#
# Indices 1 2 3 4 5 6 
#
# 1 0.012360 -0.009752 -0.001990 0.000000 0.000595 0.000000
# 2 -0.009752 0.030723 -0.010550 0.000000 0.000141 0.000000
# 3 -0.001990 -0.010550 0.026774 0.000000 -0.001815 0.000000
# 4 0.000000 0.000000 0.000000 0.142215 0.000000 0.033060
# 5 0.000595 0.000141 -0.001815 0.000000 0.043306 0.000000
# 6 0.000000 0.000000 0.000000 0.033060 0.000000 0.068579
#
#
# Mechanical properties :
#
#
# Convention : Reuss Voigt Hill
#
# Bulk Modulus (GPa) = 39.56644 48.90288 44.23466
# Shear Modulus (GPa) = 13.26383 17.99462 15.62922
#
# Velocity S-wave (km/s) = 2.81707 3.28121 3.05796
# Velocity P-wave (km/s) = 5.85270 6.60410 6.23972
#
# Compressibility (1/GPa) = 0.02527394
#
# Stress axis : x y z
#
# Youngs Moduli (GPa) = 80.90475 32.54893 37.34961
#
# Poissons Ratio (x) = 0.31741 0.07431
# Poissons Ratio (y) = 0.78895 0.39405
# Poissons Ratio (z) = 0.16097 0.34340
#
# Static dielectric constant tensor:
#      x y z
#    x 1.581220 0.000000 -0.042760 
#    y 0.000000 1.577830 0.000000 
#    z -0.042760 0.000000 1.336290 
# 
# From -- ./inp_files/34357.got.cif
#   From: 2010.05.17/outbox.cif.g08.bks.cpg/sg15_18_cif.got.tgz:34357.got - 2010.06.03 18:47:42.
