data_PCOD9262694
_publ_section_title
;
Structure prediction by ZEFSAII (Michael W. Deem and Ramdas Pophale) SiO2 
 PCOD9262694
Probable space group: C 2/C
;
_chemical_formula_sum "Si O2"
_cell_formula_units_Z 48
_cell_length_a 16.497695
_cell_length_b 9.077061
_cell_length_c 18.568963
_cell_angle_alpha 90.000000
_cell_angle_beta 89.093703
_cell_angle_gamma 90.000000
_cell_volume 2780.365184
_symmetry_space_group_name_H-M "C 2/C"
_symmetry_group_IT_number 15
_symmetry_cell_setting 'monoclinic'
loop_
_space_group_symop_operation_xyz
x,y,z
-x,y,1/2-z
-x,-y,-z
x,-y,1/2+z
1/2+x,1/2+y,z
1/2-x,1/2+y,1/2-z
1/2-x,1/2-y,-z
1/2+x,1/2-y,1/2+z
loop_
_atom_site_type_symbol
_atom_site_label
_atom_site_fract_x
_atom_site_fract_y
_atom_site_fract_z
Si Si1 0.658810 0.588599 0.673238
Si Si2 0.483940 0.073868 0.076224
Si Si3 0.920868 0.105399 0.203569
Si Si4 0.847261 0.585731 0.666294
Si Si5 0.414952 0.098345 0.291699
Si Si6 0.993268 0.923776 0.422751
O O1 0.636369 0.480454 0.739466
O O2 0.752429 0.577380 0.652190
O O3 0.636104 0.753780 0.698442
O O4 0.597505 0.559640 0.608074
O O5 0.555392 0.036513 0.132250
O O6 0.484839 0.251086 0.071909
O O7 0.401445 0.008716 0.110478
O O8 0.500000 0.000000 0.000000
O O9 0.878991 0.247501 0.169901
O O10 0.000000 0.149495 0.250000
O O11 0.950762 0.999102 0.139040
O O12 0.866873 0.516547 0.744169
O O13 0.500000 0.136278 0.250000
O O14 0.000000 0.000000 0.500000
#
# Coordination Sequence:
#
# PCOD9262694 Si02
#       6
#     8   8   8   8   8   8
#     4  10  20  35  54  80 108 135 171 220 263 302
#     4  10  20  36  56  76 105 143 178 211 257 318
#     4  10  19  33  55  79 106 139 174 210 257 316
#     4  11  20  33  55  84 106 131 174 223 260 300
#     4   9  18  35  55  75 105 143 174 206 259 318
#     4  10  21  38  56  74 104 145 179 208 257 320
#
# _framework density 17.263919000000001
#
# number of rings (size 3 to 8) (size 9 to 14) (size 15 to 20)
#    0.000    2.000    0.000    7.000    0.000    1.333 
#    0.000   10.000    0.000    0.000    0.000    0.000 
#    0.000    0.000    0.000    0.000    0.000    0.000 
#
# Total GULP energy -133955.335472 kJ/mol
# GULP energy per Si atom -5581.472311 kJ/mol
# Density = 1.722463 g / cm^3
# Si number density = 17.263919 Si / 1000 Ang^3
#
#
#
# Elastic Constant Matrix: (Units=GPa)
#
#
# Indices 1 2 3 4 5 6 
#
# 1 129.8215 76.1155 56.7405 0.0000 -1.6288 0.0000
# 2 76.1155 102.0278 67.8090 0.0000 7.6633 0.0000
# 3 56.7405 67.8090 133.5353 0.0000 6.3402 0.0000
# 4 0.0000 0.0000 0.0000 33.0752 0.0000 -1.0297
# 5 -1.6288 7.6633 6.3402 0.0000 8.5783 0.0000
# 6 0.0000 0.0000 0.0000 -1.0297 0.0000 17.3361
#
#
#
# Elastic Compliance Matrix: (Units=1/GPa)
#
#
# Indices 1 2 3 4 5 6 
#
# 1 0.015223 -0.011584 -0.001259 0.000000 0.014169 0.000000
# 2 -0.011584 0.024151 -0.006439 0.000000 -0.019016 0.000000
# 3 -0.001259 -0.006439 0.011432 0.000000 -0.002937 0.000000
# 4 0.000000 0.000000 0.000000 0.030290 0.000000 0.001799
# 5 0.014169 -0.019016 -0.002937 0.000000 0.138422 0.000000
# 6 0.000000 0.000000 0.000000 0.001799 0.000000 0.057790
#
#
# Mechanical properties :
#
#
# Convention : Reuss Voigt Hill
#
# Bulk Modulus (GPa) = 81.67928 85.19052 83.43490
# Shear Modulus (GPa) = 15.62731 22.77922 19.20326
#
# Velocity S-wave (km/s) = 3.01192 3.63639 3.33879
# Velocity P-wave (km/s) = 7.71430 8.19050 7.95596
#
# Compressibility (1/GPa) = 0.01224301
#
# Stress axis : x y z
#
# Youngs Moduli (GPa) = 65.69101 41.40604 87.47086
#
# Poissons Ratio (x) = 0.47967 0.11008
# Poissons Ratio (y) = 0.76099 0.56319
# Poissons Ratio (z) = 0.08267 0.26660
#
# Static dielectric constant tensor:
#      x y z
#    x 1.566470 0.000000 0.006710 
#    y 0.000000 1.581950 0.000000 
#    z 0.006710 0.000000 1.577390 
# 
# From -- ./inp_files/202998.got.cif
#   From: 2010.05.17/outbox.cif.g08.bks.cpg/sg15_102_cif.got.tgz:202998.got - 2010.06.03 18:47:42.
