data_PCOD9262159
_publ_section_title
;
Structure prediction by ZEFSAII (Michael W. Deem and Ramdas Pophale) SiO2 
 PCOD9262159
Probable space group: C 2/C
;
_chemical_formula_sum "Si O2"
_cell_formula_units_Z 56
_cell_length_a 23.945919
_cell_length_b 17.676310
_cell_length_c 18.912575
_cell_angle_alpha 90.000000
_cell_angle_beta 158.749601
_cell_angle_gamma 90.000000
_cell_volume 2901.451598
_symmetry_space_group_name_H-M "C 2/C"
_symmetry_group_IT_number 15
_symmetry_cell_setting 'monoclinic'
loop_
_space_group_symop_operation_xyz
x,y,z
-x,y,1/2-z
-x,-y,-z
x,-y,1/2+z
1/2+x,1/2+y,z
1/2-x,1/2+y,1/2-z
1/2-x,1/2-y,-z
1/2+x,1/2-y,1/2+z
loop_
_atom_site_type_symbol
_atom_site_label
_atom_site_fract_x
_atom_site_fract_y
_atom_site_fract_z
Si Si1 0.364520 0.342821 0.355632
Si Si2 0.790439 0.209890 0.251931
Si Si3 0.408949 0.180278 0.241388
Si Si4 0.867614 0.594345 0.335992
Si Si5 0.322887 0.705046 0.019941
Si Si6 0.214691 0.568214 0.800835
Si Si7 0.254807 0.838455 0.427813
O O1 0.243137 0.275831 0.230695
O O2 0.531579 0.304353 0.555691
O O3 0.330871 0.402347 0.377251
O O4 0.333682 0.377326 0.241537
O O5 0.727710 0.134290 0.214437
O O6 0.702736 0.240474 0.078719
O O7 0.398795 0.148287 0.307038
O O8 0.579182 0.180505 0.410198
O O9 0.345494 0.264895 0.172643
O O10 0.302458 0.131559 0.061227
O O11 0.781453 0.522492 0.199352
O O12 0.036776 0.580477 0.568221
O O13 0.500000 0.692878 0.250000
O O14 0.250000 0.750000 0.000000
O O15 0.250395 0.623692 0.909635
#
# Coordination Sequence:
#
# PCOD9262159 Si02
#       7
#     8   8   8   8   8   8   8
#     4  11  19  36  57  90 116 152 204 248 294 360
#     4  11  22  35  65  89 115 153 202 257 307 359
#     4  10  20  33  54  83 118 152 192 237 293 347
#     4  11  21  40  58  87 121 161 199 242 309 378
#     4  11  22  41  65  90 116 154 210 264 307 359
#     4  10  23  39  62  83 119 161 197 251 314 358
#     4  10  19  32  54  84 114 147 191 240 281 342
#
# _framework density 19.300682999999999
#
# number of rings (size 3 to 8) (size 9 to 14) (size 15 to 20)
#    0.000    1.429    2.857    5.143    0.000    0.571 
#    0.000    2.857    3.143    0.000    0.000    0.000 
#    0.000    0.000    0.000    0.000    0.000    0.000 
#
# Total GULP energy -155900.304914 kJ/mol
# GULP energy per Si atom -5567.868033 kJ/mol
# Density = 1.925675 g / cm^3
# Si number density = 19.300683 Si / 1000 Ang^3
#
#
#
# Elastic Constant Matrix: (Units=GPa)
#
#
# Indices 1 2 3 4 5 6 
#
# 1 76.9228 20.4103 24.7383 -0.0042 -10.2976 -0.0024
# 2 20.4103 47.6943 26.8259 -0.0047 2.4160 -0.0038
# 3 24.7383 26.8259 95.5654 -0.0047 -5.8677 -0.0043
# 4 -0.0042 -0.0047 -0.0047 27.1044 -0.0038 3.5388
# 5 -10.2976 2.4160 -5.8677 -0.0038 39.7868 -0.0023
# 6 -0.0024 -0.0038 -0.0043 3.5388 -0.0023 24.4209
#
#
#
# Elastic Compliance Matrix: (Units=1/GPa)
#
#
# Indices 1 2 3 4 5 6 
#
# 1 0.015781 -0.005706 -0.002232 0.000002 0.004102 0.000000
# 2 -0.005706 0.027223 -0.006415 0.000002 -0.004076 0.000002
# 3 -0.002232 -0.006415 0.012948 0.000001 0.001722 0.000001
# 4 0.000002 0.000002 0.000001 0.037606 0.000004 -0.005449
# 5 0.004102 -0.004076 0.001722 0.000004 0.026697 0.000002
# 6 0.000000 0.000002 0.000001 -0.005449 0.000002 0.041738
#
#
# Mechanical properties :
#
#
# Convention : Reuss Voigt Hill
#
# Bulk Modulus (GPa) = 36.70079 40.45907 38.57993
# Shear Modulus (GPa) = 25.02749 28.14296 26.58523
#
# Velocity S-wave (km/s) = 3.60490 3.82269 3.71539
# Velocity P-wave (km/s) = 6.03188 6.36333 6.19982
#
# Compressibility (1/GPa) = 0.02724737
#
# Stress axis : x y z
#
# Youngs Moduli (GPa) = 63.36828 36.73332 77.23123
#
# Poissons Ratio (x) = 0.20960 0.17234
# Poissons Ratio (y) = 0.36157 0.49544
# Poissons Ratio (z) = 0.14141 0.23564
#
# Static dielectric constant tensor:
#      x y z
#    x 1.695000 0.000000 -0.039570 
#    y 0.000000 1.706200 0.000000 
#    z -0.039570 0.000000 1.714100 
# 
# From -- ./inp_files/258020.got.cif
#   From: 2010.05.17/outbox.cif.g08.bks.cpg/sg15_130_cif.got.tgz:258020.got - 2010.06.03 18:47:42.
