data_PCOD9262214
_publ_section_title
;
Structure prediction by ZEFSAII (Michael W. Deem and Ramdas Pophale) SiO2 
 PCOD9262214
Probable space group: C 2/C
;
_chemical_formula_sum "Si O2"
_cell_formula_units_Z 56
_cell_length_a 17.700695
_cell_length_b 10.172534
_cell_length_c 14.633815
_cell_angle_alpha 90.000000
_cell_angle_beta 128.607596
_cell_angle_gamma 90.000000
_cell_volume 2059.071461
_symmetry_space_group_name_H-M "C 2/C"
_symmetry_group_IT_number 15
_symmetry_cell_setting 'monoclinic'
loop_
_space_group_symop_operation_xyz
x,y,z
-x,y,1/2-z
-x,-y,-z
x,-y,1/2+z
1/2+x,1/2+y,z
1/2-x,1/2+y,1/2-z
1/2-x,1/2-y,-z
1/2+x,1/2-y,1/2+z
loop_
_atom_site_type_symbol
_atom_site_label
_atom_site_fract_x
_atom_site_fract_y
_atom_site_fract_z
Si Si1 0.097585 0.648922 0.046691
Si Si2 0.115918 0.235055 0.850458
Si Si3 0.745345 0.381256 0.176024
Si Si4 0.109257 0.071665 0.993329
Si Si5 0.277069 0.484568 0.646550
Si Si6 0.543734 0.640736 0.147633
Si Si7 0.077442 0.482609 0.726592
O O1 0.168691 0.559113 0.037942
O O2 0.054178 0.577476 0.106099
O O3 0.178735 0.754764 0.142043
O O4 0.023950 0.732129 0.927285
O O5 0.128949 0.215430 0.967555
O O6 0.142850 0.365359 0.818549
O O7 0.000000 0.226300 0.750000
O O8 0.175323 0.109519 0.863924
O O9 0.740306 0.466864 0.263432
O O10 0.857956 0.388902 0.238576
O O11 0.692660 0.463436 0.057326
O O12 0.023209 0.987640 0.881576
O O13 0.080529 0.103576 0.074383
O O14 0.362501 0.375330 0.716044
O O15 0.000000 0.502474 0.750000
#
# Coordination Sequence:
#
# PCOD9262214 Si02
#       7
#     8   8   8   8   8   8   8
#     4  10  19  35  57  78 108 150 182 221 271 340
#     4  11  18  30  51  84 105 129 183 239 269 302
#     4   9  19  36  51  79 107 145 179 215 282 339
#     4   9  17  28  55  75 107 131 177 237 269 315
#     4  10  19  32  56  79 106 144 184 226 273 326
#     4   9  16  32  51  81 104 142 182 221 277 326
#     4  10  20  32  57  81 108 141 180 232 273 320
#
# _framework density 27.196724
#
# number of rings (size 3 to 8) (size 9 to 14) (size 15 to 20)
#    0.000    2.286    2.857    2.571    0.000    0.571 
#    0.000    5.000    3.143    1.714    0.000    0.000 
#    0.000    0.000    0.000    0.000    0.000    0.000 
#
# Total GULP energy -156180.647077 kJ/mol
# GULP energy per Si atom -5577.880253 kJ/mol
# Density = 2.713482 g / cm^3
# Si number density = 27.196724 Si / 1000 Ang^3
#
#
#
# Elastic Constant Matrix: (Units=GPa)
#
#
# Indices 1 2 3 4 5 6 
#
# 1 114.6700 48.8979 42.3787 0.0000 21.2884 0.0000
# 2 48.8979 82.7327 20.3800 0.0000 8.6286 0.0000
# 3 42.3787 20.3800 71.7737 0.0000 18.6651 0.0000
# 4 0.0000 0.0000 0.0000 31.8609 0.0000 14.7321
# 5 21.2884 8.6286 18.6651 0.0000 36.8294 0.0000
# 6 0.0000 0.0000 0.0000 14.7321 0.0000 25.7324
#
#
#
# Elastic Compliance Matrix: (Units=1/GPa)
#
#
# Indices 1 2 3 4 5 6 
#
# 1 0.014363 -0.006712 -0.005557 0.000000 -0.003913 0.000000
# 2 -0.006712 0.016192 -0.000757 0.000000 0.000470 0.000000
# 3 -0.005557 -0.000757 0.019059 0.000000 -0.006270 0.000000
# 4 0.000000 0.000000 0.000000 0.042687 0.000000 -0.024439
# 5 -0.003913 0.000470 -0.006270 0.000000 0.032482 0.000000
# 6 0.000000 0.000000 0.000000 -0.024439 0.000000 0.052853
#
#
# Mechanical properties :
#
#
# Convention : Reuss Voigt Hill
#
# Bulk Modulus (GPa) = 42.44061 54.72103 48.58082
# Shear Modulus (GPa) = 23.63612 29.38587 26.51100
#
# Velocity S-wave (km/s) = 2.95121 3.29065 3.12554
# Velocity P-wave (km/s) = 5.22033 5.88234 5.56120
#
# Compressibility (1/GPa) = 0.02356234
#
# Stress axis : x y z
#
# Youngs Moduli (GPa) = 69.62279 61.76062 52.46822
#
# Poissons Ratio (x) = 0.41454 0.29157
# Poissons Ratio (y) = 0.46731 0.03970
# Poissons Ratio (z) = 0.38690 0.04673
#
# Static dielectric constant tensor:
#      x y z
#    x 2.226740 0.000000 0.045110 
#    y 0.000000 2.143520 0.000000 
#    z 0.045110 0.000000 2.155410 
# 
# From -- ./inp_files/204522.got.cif
#   From: 2010.05.17/outbox.cif.g08.bks.cpg/sg15_103_cif.got.tgz:204522.got - 2010.06.03 18:47:42.
