data_PCOD9262318
_publ_section_title
;
Structure prediction by ZEFSAII (Michael W. Deem and Ramdas Pophale) SiO2 
 PCOD9262318
Probable space group: C 2/C
;
_chemical_formula_sum "Si O2"
_cell_formula_units_Z 60
_cell_length_a 8.760355
_cell_length_b 21.930610
_cell_length_c 20.595852
_cell_angle_alpha 90.000000
_cell_angle_beta 45.898010
_cell_angle_gamma 90.000000
_cell_volume 2841.439365
_symmetry_space_group_name_H-M "C 2/C"
_symmetry_group_IT_number 15
_symmetry_cell_setting 'monoclinic'
loop_
_space_group_symop_operation_xyz
x,y,z
-x,y,1/2-z
-x,-y,-z
x,-y,1/2+z
1/2+x,1/2+y,z
1/2-x,1/2+y,1/2-z
1/2-x,1/2-y,-z
1/2+x,1/2-y,1/2+z
loop_
_atom_site_type_symbol
_atom_site_label
_atom_site_fract_x
_atom_site_fract_y
_atom_site_fract_z
Si Si1 0.617390 0.486892 0.621427
Si Si2 0.646909 0.246091 0.655659
Si Si3 0.942158 0.625954 0.660660
Si Si4 0.191762 0.360618 0.954444
Si Si5 0.000000 0.168656 0.750000
Si Si6 0.662221 0.087108 0.034827
Si Si7 0.408665 0.701191 0.922340
Si Si8 0.853115 0.496319 0.692317
O O1 0.644669 0.415781 0.597699
O O2 0.738626 0.529862 0.534010
O O3 0.748640 0.498975 0.649904
O O4 0.363717 0.494748 0.701963
O O5 0.500000 0.282168 0.750000
O O6 0.515569 0.186307 0.675429
O O7 0.708218 0.294159 0.582491
O O8 0.859149 0.222571 0.626142
O O9 0.063577 0.631924 0.557656
O O10 0.690996 0.629890 0.722672
O O11 0.977208 0.557844 0.674923
O O12 0.020428 0.375197 0.949245
O O13 0.095635 0.199894 0.655887
O O14 0.529158 0.057869 0.134394
O O15 0.851319 0.137055 0.974833
O O16 0.250000 0.750000 0.000000
#
# Coordination Sequence:
#
# PCOD9262318 Si02
#       8
#     8   8   8   8   4   8   8   8
#     4  10  19  33  60  97 125 152 218 285 319 370
#     4  12  27  40  60  96 134 169 211 271 336 393
#     4  12  21  41  63  93 127 164 220 263 326 397
#     4  11  21  37  61  92 129 161 212 277 329 373
#     4  12  22  40  70  94 122 180 220 268 320 404
#     4  11  19  36  64  93 126 164 220 276 325 384
#     4  12  24  44  67  96 136 174 221 275 333 397
#     4  10  19  32  59  93 124 163 209 272 328 378
#
# _framework density 21.116060000000001
#
# number of rings (size 3 to 8) (size 9 to 14) (size 15 to 20)
#    0.000    0.800    6.667    2.800    3.733    0.000 
#    0.000    0.667    0.000    0.000    0.000    0.000 
#    0.000    0.000    0.000    0.000    0.000    0.000 
#
# Total GULP energy -167217.496257 kJ/mol
# GULP energy per Si atom -5573.916542 kJ/mol
# Density = 2.106800 g / cm^3
# Si number density = 21.116060 Si / 1000 Ang^3
#
#
#
# Elastic Constant Matrix: (Units=GPa)
#
#
# Indices 1 2 3 4 5 6 
#
# 1 18.9199 24.5918 12.8776 0.0000 -9.7691 0.0000
# 2 24.5918 117.1212 44.4972 0.0000 -1.2918 0.0000
# 3 12.8776 44.4972 116.7586 0.0000 -19.8654 0.0000
# 4 0.0000 0.0000 0.0000 20.2198 0.0000 6.3809
# 5 -9.7691 -1.2918 -19.8654 0.0000 22.2570 0.0000
# 6 0.0000 0.0000 0.0000 6.3809 0.0000 4.6509
#
#
#
# Elastic Compliance Matrix: (Units=1/GPa)
#
#
# Indices 1 2 3 4 5 6 
#
# 1 0.106043 -0.024009 0.006056 0.000000 0.050556 -0.000001
# 2 -0.024009 0.015632 -0.005834 0.000000 -0.014838 0.000000
# 3 0.006056 -0.005834 0.012397 0.000000 0.013385 0.000000
# 4 0.000000 0.000000 0.000000 0.087219 0.000000 -0.119661
# 5 0.050556 -0.014838 0.013385 0.000000 0.078205 0.000000
# 6 -0.000001 0.000000 0.000000 -0.119661 0.000000 0.379181
#
#
# Mechanical properties :
#
#
# Convention : Reuss Voigt Hill
#
# Bulk Modulus (GPa) = 11.56092 46.30365 28.93228
# Shear Modulus (GPa) = 6.62179 20.81442 13.71810
#
# Velocity S-wave (km/s) = 1.77277 3.14302 2.55159
# Velocity P-wave (km/s) = 3.11080 5.92851 4.73415
#
# Compressibility (1/GPa) = 0.08649834
#
# Stress axis : x y z
#
# Youngs Moduli (GPa) = 9.43015 63.97117 80.66214
#
# Poissons Ratio (x) = 1.53587 -0.48847
# Poissons Ratio (y) = 0.22641 0.47058
# Poissons Ratio (z) = -0.05711 0.37320
#
# Static dielectric constant tensor:
#      x y z
#    x 1.792860 0.000000 0.005960 
#    y 0.000000 1.784370 0.000000 
#    z 0.005960 0.000000 1.894890 
# 
# From -- ./inp_files/266214.got.cif
#   From: 2010.05.17/outbox.cif.g08.bks.cpg/sg15_134_cif.got.tgz:266214.got - 2010.06.03 18:47:42.
