data_PCOD9262707
_publ_section_title
;
Structure prediction by ZEFSAII (Michael W. Deem and Ramdas Pophale) SiO2 
 PCOD9262707
Probable space group: C 2/C
;
_chemical_formula_sum "Si O2"
_cell_formula_units_Z 44
_cell_length_a 13.934138
_cell_length_b 18.007754
_cell_length_c 7.225653
_cell_angle_alpha 90.000000
_cell_angle_beta 80.848528
_cell_angle_gamma 90.000000
_cell_volume 1790.001034
_symmetry_space_group_name_H-M "C 2/C"
_symmetry_group_IT_number 15
_symmetry_cell_setting 'monoclinic'
loop_
_space_group_symop_operation_xyz
x,y,z
-x,y,1/2-z
-x,-y,-z
x,-y,1/2+z
1/2+x,1/2+y,z
1/2-x,1/2+y,1/2-z
1/2-x,1/2-y,-z
1/2+x,1/2-y,1/2+z
loop_
_atom_site_type_symbol
_atom_site_label
_atom_site_fract_x
_atom_site_fract_y
_atom_site_fract_z
Si Si1 0.599462 0.543099 0.629125
Si Si2 0.500000 0.804240 0.750000
Si Si3 0.857821 0.423116 0.703524
Si Si4 0.147334 0.108003 0.212560
Si Si5 0.849141 0.258028 0.095579
Si Si6 0.312762 0.082103 0.649598
O O1 0.500000 0.570288 0.750000
O O2 0.621644 0.577966 0.425117
O O3 0.591667 0.453336 0.609238
O O4 0.698982 0.562227 0.710724
O O5 0.438933 0.862468 0.642336
O O6 0.566966 0.758682 0.587751
O O7 0.759741 0.405555 0.623391
O O8 0.876486 0.510843 0.685633
O O9 0.829485 0.410512 0.924874
O O10 0.135069 0.194978 0.253754
O O11 0.841610 0.336473 0.204183
O O12 0.750000 0.250000 0.000000
#
# Coordination Sequence:
#
# PCOD9262707 Si02
#       6
#     8   4   8   8   8   8
#     4  10  19  33  55  81 101 144 178 216 262 328
#     4  10  20  32  58  78 104 140 186 206 270 314
#     4   9  18  34  53  79 100 141 174 216 254 327
#     4  10  20  35  54  76 113 135 177 223 266 309
#     4  11  19  35  52  83 106 139 173 230 257 314
#     4   9  19  34  56  75 109 134 179 217 267 300
#
# _framework density 24.580992999999999
#
# number of rings (size 3 to 8) (size 9 to 14) (size 15 to 20)
#    0.000    2.182    5.455    0.545    1.273    2.909 
#    0.000    0.000    6.000   10.909    0.000    0.000 
#    0.000    0.000    0.000    0.000    0.000    0.000 
#
# Total GULP energy -122760.803307 kJ/mol
# GULP energy per Si atom -5580.036514 kJ/mol
# Density = 2.452505 g / cm^3
# Si number density = 24.580993 Si / 1000 Ang^3
#
#
#
# Elastic Constant Matrix: (Units=GPa)
#
#
# Indices 1 2 3 4 5 6 
#
# 1 81.0834 -5.4864 6.0899 0.0000 -26.8920 0.0000
# 2 -5.4864 161.9923 11.9019 0.0000 -9.4977 0.0000
# 3 6.0899 11.9019 43.0528 0.0000 -13.7644 0.0000
# 4 0.0000 0.0000 0.0000 43.2389 0.0000 -5.5342
# 5 -26.8920 -9.4977 -13.7644 0.0000 28.8729 0.0000
# 6 0.0000 0.0000 0.0000 -5.5342 0.0000 27.7787
#
#
#
# Elastic Compliance Matrix: (Units=1/GPa)
#
#
# Indices 1 2 3 4 5 6 
#
# 1 0.018613 0.001534 0.003123 0.000000 0.019330 0.000000
# 2 0.001534 0.006481 -0.001027 0.000000 0.003071 0.000000
# 3 0.003123 -0.001027 0.028187 0.000000 0.016008 0.000000
# 4 0.000000 0.000000 0.000000 0.023732 0.000000 0.004728
# 5 0.019330 0.003071 0.016008 0.000000 0.061280 0.000000
# 6 0.000000 0.000000 0.000000 0.004728 0.000000 0.036941
#
#
# Mechanical properties :
#
#
# Convention : Reuss Voigt Hill
#
# Bulk Modulus (GPa) = 16.51748 34.57104 25.54426
# Shear Modulus (GPa) = 26.57398 38.21963 32.39680
#
# Velocity S-wave (km/s) = 3.29154 3.94743 3.63431
# Velocity P-wave (km/s) = 4.60216 5.90516 5.29390
#
# Compressibility (1/GPa) = 0.06054191
#
# Stress axis : x y z
#
# Youngs Moduli (GPa) = 53.72570 154.30673 35.47681
#
# Poissons Ratio (x) = -0.23675 -0.11079
# Poissons Ratio (y) = -0.08243 0.03642
# Poissons Ratio (z) = -0.16777 0.15842
#
# Static dielectric constant tensor:
#      x y z
#    x 2.087720 0.000000 0.084220 
#    y 0.000000 2.059780 0.000000 
#    z 0.084220 0.000000 1.971570 
# 
# From -- ./inp_files/39160.got.cif
#   From: 2010.05.17/outbox.cif.g08.bks.cpg/sg15_20_cif.got.tgz:39160.got - 2010.06.03 18:47:42.
