data_PCOD9262517
_publ_section_title
;
Structure prediction by ZEFSAII (Michael W. Deem and Ramdas Pophale) SiO2 
 PCOD9262517
Probable space group: C 2/C
;
_chemical_formula_sum "Si O2"
_cell_formula_units_Z 40
_cell_length_a 7.593499
_cell_length_b 28.148950
_cell_length_c 10.785827
_cell_angle_alpha 90.000000
_cell_angle_beta 127.330671
_cell_angle_gamma 90.000000
_cell_volume 1833.184149
_symmetry_space_group_name_H-M "C 2/C"
_symmetry_group_IT_number 15
_symmetry_cell_setting 'monoclinic'
loop_
_space_group_symop_operation_xyz
x,y,z
-x,y,1/2-z
-x,-y,-z
x,-y,1/2+z
1/2+x,1/2+y,z
1/2-x,1/2+y,1/2-z
1/2-x,1/2-y,-z
1/2+x,1/2-y,1/2+z
loop_
_atom_site_type_symbol
_atom_site_label
_atom_site_fract_x
_atom_site_fract_y
_atom_site_fract_z
Si Si1 0.359500 0.999609 0.814780
Si Si2 0.884581 0.202634 0.337209
Si Si3 0.750502 0.402193 0.200984
Si Si4 0.744356 0.200681 0.791952
Si Si5 0.117613 0.899779 0.669749
O O1 0.500000 0.004953 0.750000
O O2 0.244348 0.949120 0.742249
O O3 0.223053 0.048793 0.762994
O O4 0.500000 0.000000 0.000000
O O5 0.748474 0.251523 0.285400
O O6 0.765228 0.151421 0.301390
O O7 0.000000 0.203146 0.250000
O O8 0.076973 0.204477 0.522046
O O9 0.725954 0.351157 0.257533
O O10 0.000000 0.400902 0.250000
O O11 0.569454 0.404384 0.014948
O O12 0.500000 0.199420 0.750000
O O13 0.000000 0.893587 0.750000
#
# Coordination Sequence:
#
# PCOD9262517 Si02
#       5
#     8   8   8   8   8
#     4  11  23  38  56  81 109 144 184 224 272 324
#     4   9  16  24  41  69 100 134 170 213 267 315
#     4   9  18  31  48  74 106 138 175 221 271 318
#     4   9  15  24  40  66 101 133 165 213 267 313
#     4  10  19  33  53  78 108 141 179 225 271 322
#
# _framework density 21.819956999999999
#
# number of rings (size 3 to 8) (size 9 to 14) (size 15 to 20)
#    0.000    2.400    0.000    5.400    0.000    4.800 
#    0.000    0.000    0.000    0.000    0.000   14.000 
#    0.000    0.000    0.000    0.000    0.000    0.000 
#
# Total GULP energy -111383.226482 kJ/mol
# GULP energy per Si atom -5569.161324 kJ/mol
# Density = 2.177029 g / cm^3
# Si number density = 21.819957 Si / 1000 Ang^3
#
#
#
# Elastic Constant Matrix: (Units=GPa)
#
#
# Indices 1 2 3 4 5 6 
#
# 1 41.5122 24.5566 8.7659 0.0000 2.9626 0.0000
# 2 24.5566 324.5902 87.1235 0.0000 23.5541 0.0000
# 3 8.7659 87.1235 112.9303 0.0000 7.1134 0.0000
# 4 0.0000 0.0000 0.0000 -142.0903 0.0000 231.2026
# 5 2.9626 23.5541 7.1134 0.0000 11.8628 0.0000
# 6 0.0000 0.0000 0.0000 231.2026 0.0000 -252.7325
#
#
#
# Elastic Compliance Matrix: (Units=1/GPa)
#
#
# Indices 1 2 3 4 5 6 
#
# 1 0.025337 -0.001548 -0.000590 0.000000 -0.002900 0.000000
# 2 -0.001548 0.004466 -0.002900 0.000000 -0.006741 0.000000
# 3 -0.000590 -0.002900 0.011189 0.000000 -0.000803 0.000000
# 4 0.000000 0.000000 0.000000 0.014406 0.000000 0.013179
# 5 -0.002900 -0.006741 -0.000803 0.000000 0.098888 0.000000
# 6 0.000000 0.000000 0.000000 0.013179 0.000000 0.008099
#
#
# Mechanical properties :
#
#
# Convention : Reuss Voigt Hill
#
# Bulk Modulus (GPa) = 32.34686 79.99164 56.16925
# Shear Modulus (GPa) = 27.35756 -52.68625 -12.66434
#
# Velocity S-wave (km/s) = 3.54473 -4.91918 -2.41177
# Velocity P-wave (km/s) = 5.62228 2.11542 4.24765
#
# Compressibility (1/GPa) = 0.03091491
#
# Stress axis : x y z
#
# Youngs Moduli (GPa) = 39.46858 223.93615 89.37393
#
# Poissons Ratio (x) = 0.34667 0.05270
# Poissons Ratio (y) = 0.06110 0.25921
# Poissons Ratio (z) = 0.02327 0.64949
#
# Static dielectric constant tensor:
#      x y z
#    x 1.861820 0.000000 -0.015900 
#    y 0.000000 1.994660 0.000000 
#    z -0.015900 0.000000 1.721690 
# 
# From -- ./inp_files/24436.got.cif
#   From: 2010.05.17/outbox.cif.g08.bks.cpg/sg15_13_cif.got.tgz:24436.got - 2010.06.03 18:47:42.
