data_PCOD9262985
_publ_section_title
;
Structure prediction by ZEFSAII (Michael W. Deem and Ramdas Pophale) SiO2 
 PCOD9262985
Probable space group: C 2/C
;
_chemical_formula_sum "Si O2"
_cell_formula_units_Z 52
_cell_length_a 16.534070
_cell_length_b 14.702749
_cell_length_c 21.182529
_cell_angle_alpha 90.000000
_cell_angle_beta 151.711601
_cell_angle_gamma 90.000000
_cell_volume 2440.348932
_symmetry_space_group_name_H-M "C 2/C"
_symmetry_group_IT_number 15
_symmetry_cell_setting 'monoclinic'
loop_
_space_group_symop_operation_xyz
x,y,z
-x,y,1/2-z
-x,-y,-z
x,-y,1/2+z
1/2+x,1/2+y,z
1/2-x,1/2+y,1/2-z
1/2-x,1/2-y,-z
1/2+x,1/2-y,1/2+z
loop_
_atom_site_type_symbol
_atom_site_label
_atom_site_fract_x
_atom_site_fract_y
_atom_site_fract_z
Si Si1 0.796046 0.696780 0.224790
Si Si2 0.794663 0.454500 0.051127
Si Si3 0.036074 0.348546 0.005074
Si Si4 0.045885 0.891748 0.633998
Si Si5 0.221488 0.464628 0.600745
Si Si6 0.551903 0.772456 0.354720
Si Si7 0.000000 0.383902 0.750000
O O1 0.926329 0.698625 0.373808
O O2 0.658328 0.617754 0.148680
O O3 0.901206 0.673044 0.234619
O O4 0.684813 0.785583 0.133866
O O5 0.651672 0.420084 0.002118
O O6 0.712343 0.457997 0.924845
O O7 0.948734 0.381709 0.147440
O O8 0.869326 0.549546 0.124038
O O9 0.906084 0.381100 0.970414
O O10 0.116573 0.441863 0.033827
O O11 0.140648 0.956976 0.748901
O O12 0.048242 0.789112 0.664735
O O13 0.500000 0.739758 0.250000
O O14 0.750000 0.750000 0.500000
#
# Coordination Sequence:
#
# PCOD9262985 Si02
#       7
#     8   8   8   8   8   8   4
#     4  11  25  46  64  96 129 173 224 271 323 392
#     4  11  21  39  64  96 132 172 206 275 331 391
#     4  10  23  44  70  94 131 172 218 272 322 386
#     4  10  22  39  65  98 128 161 222 268 332 396
#     4  10  20  42  69  96 127 169 215 269 328 390
#     4  10  19  33  58  94 126 159 198 256 330 390
#     4  12  26  44  62  86 140 176 224 268 318 384
#
# _framework density 21.308429
#
# number of rings (size 3 to 8) (size 9 to 14) (size 15 to 20)
#    0.000    1.538    2.308    3.231    0.000    6.154 
#    5.538    0.000    0.000    0.000    0.000    0.000 
#    0.000    0.000    0.000    0.000    0.000    0.000 
#
# Total GULP energy -145159.027467 kJ/mol
# GULP energy per Si atom -5583.039518 kJ/mol
# Density = 2.125993 g / cm^3
# Si number density = 21.308429 Si / 1000 Ang^3
#
#
#
# Elastic Constant Matrix: (Units=GPa)
#
#
# Indices 1 2 3 4 5 6 
#
# 1 122.0146 11.7271 30.5910 -0.0020 1.1463 -0.0019
# 2 11.7271 61.7805 47.2190 0.0009 1.7612 -0.0028
# 3 30.5910 47.2190 96.1558 0.0059 -0.3379 -0.0004
# 4 -0.0020 0.0009 0.0059 38.8702 0.0001 7.0534
# 5 1.1463 1.7612 -0.3379 0.0001 29.3169 -0.0010
# 6 -0.0019 -0.0028 -0.0004 7.0534 -0.0010 14.3585
#
#
#
# Elastic Compliance Matrix: (Units=1/GPa)
#
#
# Indices 1 2 3 4 5 6 
#
# 1 0.008934 0.000784 -0.003229 0.000001 -0.000434 0.000001
# 2 0.000784 0.026066 -0.013056 0.000001 -0.001747 0.000004
# 3 -0.003229 -0.013056 0.017842 -0.000002 0.001116 -0.000001
# 4 0.000001 0.000001 -0.000002 0.028244 -0.000001 -0.013875
# 5 -0.000434 -0.001747 0.001116 -0.000001 0.034245 0.000002
# 6 0.000001 0.000004 -0.000001 -0.013875 0.000002 0.076461
#
#
# Mechanical properties :
#
#
# Convention : Reuss Voigt Hill
#
# Bulk Modulus (GPa) = 45.78464 51.00279 48.39371
# Shear Modulus (GPa) = 21.73220 29.20337 25.46778
#
# Velocity S-wave (km/s) = 3.19703 3.70605 3.46091
# Velocity P-wave (km/s) = 5.92970 6.50389 6.22342
#
# Compressibility (1/GPa) = 0.02184139
#
# Stress axis : x y z
#
# Youngs Moduli (GPa) = 111.93221 38.36448 56.04679
#
# Poissons Ratio (x) = -0.03009 0.18097
# Poissons Ratio (y) = -0.08781 0.73173
# Poissons Ratio (z) = 0.36143 0.50088
#
# Static dielectric constant tensor:
#      x y z
#    x 1.769720 0.000000 -0.005410 
#    y 0.000000 1.796190 0.000000 
#    z -0.005410 0.000000 1.785490 
# 
# From -- ./inp_files/249127.got.cif
#   From: 2010.05.17/outbox.cif.g08.bks.cpg/sg15_125_cif.got.tgz:249127.got - 2010.06.03 18:47:42.
