data_PCOD9262726
_publ_section_title
;
Structure prediction by ZEFSAII (Michael W. Deem and Ramdas Pophale) SiO2 
 PCOD9262726
Probable space group: C 2/C
;
_chemical_formula_sum "Si O2"
_cell_formula_units_Z 60
_cell_length_a 19.645775
_cell_length_b 23.846994
_cell_length_c 12.799233
_cell_angle_alpha 90.000000
_cell_angle_beta 143.832441
_cell_angle_gamma 90.000000
_cell_volume 3538.736180
_symmetry_space_group_name_H-M "C 2/C"
_symmetry_group_IT_number 15
_symmetry_cell_setting 'monoclinic'
loop_
_space_group_symop_operation_xyz
x,y,z
-x,y,1/2-z
-x,-y,-z
x,-y,1/2+z
1/2+x,1/2+y,z
1/2-x,1/2+y,1/2-z
1/2-x,1/2-y,-z
1/2+x,1/2-y,1/2+z
loop_
_atom_site_type_symbol
_atom_site_label
_atom_site_fract_x
_atom_site_fract_y
_atom_site_fract_z
Si Si1 0.323289 0.009532 0.048255
Si Si2 0.318797 0.081490 0.378447
Si Si3 0.242748 0.425106 0.362491
Si Si4 0.073176 0.267205 0.234157
Si Si5 0.500000 0.890272 0.750000
Si Si6 0.481905 0.141027 0.996513
Si Si7 0.285788 0.337891 0.583364
Si Si8 0.865242 0.006702 0.845063
O O1 0.196126 0.018288 0.842120
O O2 0.375081 0.964332 0.028223
O O3 0.393597 0.066516 0.133028
O O4 0.312295 0.977863 0.143916
O O5 0.411256 0.103054 0.410960
O O6 0.274804 0.133519 0.392828
O O7 0.203804 0.048711 0.199866
O O8 0.136037 0.391046 0.181113
O O9 0.309010 0.388204 0.531343
O O10 0.328098 0.445279 0.378912
O O11 0.016834 0.301150 0.068344
O O12 0.190050 0.300766 0.405780
O O13 0.109578 0.203040 0.258608
O O14 0.000000 0.269681 0.250000
O O15 0.486359 0.855136 0.626985
O O16 0.000000 0.000000 0.000000
#
# Coordination Sequence:
#
# PCOD9262726 Si02
#       8
#     8   8   8   8   4   8   8   8
#     4   9  20  31  50  81 111 150 188 224 274 342
#     4   9  18  34  52  80 111 151 178 229 278 336
#     4  10  19  35  53  80 115 148 183 236 282 329
#     4  10  19  33  55  83 110 139 178 241 294 332
#     4  12  20  32  54  86 116 148 192 224 290 326
#     4  11  20  33  56  80 116 143 189 245 285 332
#     4   9  19  33  54  83 110 134 184 231 296 335
#     4  10  21  34  48  77 118 158 187 214 268 353
#
# _framework density 16.955206
#
# number of rings (size 3 to 8) (size 9 to 14) (size 15 to 20)
#    0.800    1.333    2.667    1.600    0.000    3.200 
#    0.000    0.000    0.000    0.800    0.000    1.867 
#    0.000    0.000    0.000    0.000    0.000    0.000 
#
# Total GULP energy -167024.038173 kJ/mol
# GULP energy per Si atom -5567.467939 kJ/mol
# Density = 1.691661 g / cm^3
# Si number density = 16.955206 Si / 1000 Ang^3
#
#
#
# Elastic Constant Matrix: (Units=GPa)
#
#
# Indices 1 2 3 4 5 6 
#
# 1 92.3026 35.6386 41.6550 0.0000 -9.8772 0.0000
# 2 35.6386 64.1924 24.4361 0.0000 -1.2219 0.0000
# 3 41.6550 24.4361 71.7392 0.0000 3.2920 0.0000
# 4 0.0000 0.0000 0.0000 13.5370 0.0000 10.3458
# 5 -9.8772 -1.2219 3.2920 0.0000 29.2148 0.0000
# 6 0.0000 0.0000 0.0000 10.3458 0.0000 15.8975
#
#
#
# Elastic Compliance Matrix: (Units=1/GPa)
#
#
# Indices 1 2 3 4 5 6 
#
# 1 0.017925 -0.006600 -0.008470 0.000000 0.006739 0.000000
# 2 -0.006600 0.020390 -0.003066 0.000000 -0.001033 0.000000
# 3 -0.008470 -0.003066 0.020143 0.000000 -0.005261 0.000000
# 4 0.000000 0.000000 0.000000 0.146970 0.000000 -0.095646
# 5 0.006739 -0.001033 -0.005261 0.000000 0.037057 0.000000
# 6 0.000000 0.000000 0.000000 -0.095646 0.000000 0.125147
#
#
# Mechanical properties :
#
#
# Convention : Reuss Voigt Hill
#
# Bulk Modulus (GPa) = 45.06922 47.96595 46.51758
# Shear Modulus (GPa) = 12.15662 20.16349 16.16006
#
# Velocity S-wave (km/s) = 2.68056 3.45225 3.09059
# Velocity P-wave (km/s) = 6.01827 6.65146 6.34277
#
# Compressibility (1/GPa) = 0.02218809
#
# Stress axis : x y z
#
# Youngs Moduli (GPa) = 55.78694 49.04480 49.64533
#
# Poissons Ratio (x) = 0.32367 0.42047
# Poissons Ratio (y) = 0.36817 0.15220
# Poissons Ratio (z) = 0.47249 0.15036
#
# Static dielectric constant tensor:
#      x y z
#    x 1.576680 0.000000 -0.010160 
#    y 0.000000 1.599170 0.000000 
#    z -0.010160 0.000000 1.589190 
# 
# From -- ./inp_files/108109.got.cif
#   From: 2010.05.17/outbox.cif.g08.bks.cpg/sg15_55_cif.got.tgz:108109.got - 2010.06.03 18:47:42.
