data_PCOD9262601
_publ_section_title
;
Structure prediction by ZEFSAII (Michael W. Deem and Ramdas Pophale) SiO2 
 PCOD9262601
Probable space group: C 2/C
;
_chemical_formula_sum "Si O2"
_cell_formula_units_Z 40
_cell_length_a 8.769877
_cell_length_b 13.582791
_cell_length_c 20.405296
_cell_angle_alpha 90.000000
_cell_angle_beta 127.165555
_cell_angle_gamma 90.000000
_cell_volume 1936.981914
_symmetry_space_group_name_H-M "C 2/C"
_symmetry_group_IT_number 15
_symmetry_cell_setting 'monoclinic'
loop_
_space_group_symop_operation_xyz
x,y,z
-x,y,1/2-z
-x,-y,-z
x,-y,1/2+z
1/2+x,1/2+y,z
1/2-x,1/2+y,1/2-z
1/2-x,1/2-y,-z
1/2+x,1/2-y,1/2+z
loop_
_atom_site_type_symbol
_atom_site_label
_atom_site_fract_x
_atom_site_fract_y
_atom_site_fract_z
Si Si1 0.632190 0.123982 0.721437
Si Si2 0.090224 0.519661 0.095093
Si Si3 0.557889 0.429689 0.362045
Si Si4 0.801170 0.272390 0.675887
Si Si5 0.248734 0.354798 0.964957
O O1 0.500000 0.126614 0.750000
O O2 0.546486 0.063866 0.637804
O O3 0.682630 0.231978 0.706166
O O4 0.832767 0.071450 0.792776
O O5 0.317138 0.514619 0.140374
O O6 0.973055 0.612259 0.090331
O O7 0.000000 0.500000 0.000000
O O8 0.633699 0.328730 0.345676
O O9 0.620770 0.422144 0.454390
O O10 0.694242 0.339784 0.595550
O O11 0.000000 0.320327 0.750000
O O12 0.250000 0.250000 0.000000
#
# Coordination Sequence:
#
# PCOD9262601 Si02
#       5
#     8   8   8   8   8
#     4  10  19  33  54  79 111 155 197 237 283 338
#     4   9  17  31  53  79 105 141 190 239 284 335
#     4   8  16  32  53  77 105 142 188 237 281 334
#     4   8  15  29  51  75 105 145 185 228 287 343
#     4   9  16  29  53  80 105 139 184 235 294 350
#
# _framework density 20.650683999999998
#
# number of rings (size 3 to 8) (size 9 to 14) (size 15 to 20)
#    0.000    3.200    0.000    3.000    0.000    0.800 
#    0.000    5.000    0.000   31.200    0.000    0.000 
#    0.000    0.000    0.000    0.000    0.000    0.000 
#
# Total GULP energy -111335.433898 kJ/mol
# GULP energy per Si atom -5566.771695 kJ/mol
# Density = 2.060368 g / cm^3
# Si number density = 20.650684 Si / 1000 Ang^3
#
#
#
# Elastic Constant Matrix: (Units=GPa)
#
#
# Indices 1 2 3 4 5 6 
#
# 1 136.1025 21.5770 62.3800 0.0000 -17.8326 0.0000
# 2 21.5770 24.3320 16.0750 0.0000 -1.5833 0.0000
# 3 62.3800 16.0750 124.7977 0.0000 -24.1776 0.0000
# 4 0.0000 0.0000 0.0000 20.2793 0.0000 -6.2172
# 5 -17.8326 -1.5833 -24.1776 0.0000 29.2468 0.0000
# 6 0.0000 0.0000 0.0000 -6.2172 0.0000 22.5693
#
#
#
# Elastic Compliance Matrix: (Units=1/GPa)
#
#
# Indices 1 2 3 4 5 6 
#
# 1 0.010542 -0.006611 -0.003860 0.000000 0.002879 0.000000
# 2 -0.006611 0.049260 -0.003935 0.000000 -0.004617 0.000000
# 3 -0.003860 -0.003935 0.011850 0.000000 0.007229 0.000000
# 4 0.000000 0.000000 0.000000 0.053860 0.000000 0.014837
# 5 0.002879 -0.004617 0.007229 0.000000 0.041673 0.000000
# 6 0.000000 0.000000 0.000000 0.014837 0.000000 0.048395
#
#
# Mechanical properties :
#
#
# Convention : Reuss Voigt Hill
#
# Bulk Modulus (GPa) = 23.34299 53.92179 38.63239
# Shear Modulus (GPa) = 19.32951 26.76577 23.04764
#
# Velocity S-wave (km/s) = 3.06277 3.60407 3.34439
# Velocity P-wave (km/s) = 4.88218 6.59448 5.80185
#
# Compressibility (1/GPa) = 0.04283941
#
# Stress axis : x y z
#
# Youngs Moduli (GPa) = 94.86035 20.30058 84.38903
#
# Poissons Ratio (x) = 0.13420 0.32575
# Poissons Ratio (y) = 0.62709 0.33209
# Poissons Ratio (z) = 0.36617 0.07989
#
# Static dielectric constant tensor:
#      x y z
#    x 1.760710 0.000000 -0.022230 
#    y 0.000000 1.771830 0.000000 
#    z -0.022230 0.000000 1.813070 
# 
# From -- ./inp_files/188389.got.cif
#   From: 2010.05.17/outbox.cif.g08.bks.cpg/sg15_95_cif.got.tgz:188389.got - 2010.06.03 18:47:42.
