data_PCOD9262011
_publ_section_title
;
Structure prediction by ZEFSAII (Michael W. Deem and Ramdas Pophale) SiO2 
 PCOD9262011
Probable space group: C 2/C
;
_chemical_formula_sum "Si O2"
_cell_formula_units_Z 40
_cell_length_a 9.994852
_cell_length_b 19.325028
_cell_length_c 15.192158
_cell_angle_alpha 90.000000
_cell_angle_beta 40.213064
_cell_angle_gamma 90.000000
_cell_volume 1894.527428
_symmetry_space_group_name_H-M "C 2/C"
_symmetry_group_IT_number 15
_symmetry_cell_setting 'monoclinic'
loop_
_space_group_symop_operation_xyz
x,y,z
-x,y,1/2-z
-x,-y,-z
x,-y,1/2+z
1/2+x,1/2+y,z
1/2-x,1/2+y,1/2-z
1/2-x,1/2-y,-z
1/2+x,1/2-y,1/2+z
loop_
_atom_site_type_symbol
_atom_site_label
_atom_site_fract_x
_atom_site_fract_y
_atom_site_fract_z
Si Si1 0.317781 0.505121 0.398594
Si Si2 0.098988 0.463857 0.841099
Si Si3 0.672994 0.114715 0.740957
Si Si4 0.046775 0.899055 0.926470
Si Si5 0.507678 0.741604 0.142276
O O1 0.500000 0.470538 0.250000
O O2 0.209757 0.553938 0.378217
O O3 0.412932 0.551566 0.428121
O O4 0.145153 0.454612 0.524950
O O5 0.127809 0.546680 0.819081
O O6 0.224799 0.432177 0.696504
O O7 0.500000 0.112360 0.750000
O O8 0.903803 0.107447 0.584525
O O9 0.622773 0.188491 0.809688
O O10 0.067593 0.823344 0.875075
O O11 0.500000 0.726903 0.250000
O O12 0.750000 0.750000 0.000000
#
# Coordination Sequence:
#
# PCOD9262011 Si02
#       5
#     8   8   8   8   8
#     4   9  18  32  50  74 105 134 176 214 266 309
#     4  10  19  32  52  75 106 141 178 217 263 319
#     4  11  20  33  50  77 113 141 175 216 267 314
#     4  11  20  35  53  80 110 142 176 220 268 320
#     4  11  19  32  51  76 110 144 170 211 277 326
#
# _framework density 21.113444000000001
#
# number of rings (size 3 to 8) (size 9 to 14) (size 15 to 20)
#    0.000    1.600    6.000    2.400    0.000    1.600 
#    0.000    0.000    0.000    0.000    0.000    9.800 
#    0.000    0.000    0.000    0.000    0.000    0.000 
#
# Total GULP energy -111597.713445 kJ/mol
# GULP energy per Si atom -5579.885672 kJ/mol
# Density = 2.106539 g / cm^3
# Si number density = 21.113444 Si / 1000 Ang^3
#
#
#
# Elastic Constant Matrix: (Units=GPa)
#
#
# Indices 1 2 3 4 5 6 
#
# 1 27.6516 -1.6447 11.1556 -0.0001 -12.5347 -0.0002
# 2 -1.6447 74.0884 36.9550 0.0000 -11.0906 0.0000
# 3 11.1556 36.9550 219.6198 -0.0002 -30.0856 0.0004
# 4 -0.0001 0.0000 -0.0002 38.5963 0.0004 2.7409
# 5 -12.5347 -11.0906 -30.0856 0.0004 33.8699 -0.0002
# 6 -0.0002 0.0000 0.0004 2.7409 -0.0002 13.1332
#
#
#
# Elastic Compliance Matrix: (Units=1/GPa)
#
#
# Indices 1 2 3 4 5 6 
#
# 1 0.044412 0.003833 -0.000544 0.000000 0.017209 0.000001
# 2 0.003833 0.015335 -0.002155 0.000000 0.004526 0.000000
# 3 -0.000544 -0.002155 0.005487 0.000000 0.003967 0.000000
# 4 0.000000 0.000000 0.000000 0.026299 0.000000 -0.005489
# 5 0.017209 0.004526 0.003967 0.000000 0.040899 0.000001
# 6 0.000001 0.000000 0.000000 -0.005489 0.000001 0.077288
#
#
# Mechanical properties :
#
#
# Convention : Reuss Voigt Hill
#
# Bulk Modulus (GPa) = 14.81412 46.03239 30.42325
# Shear Modulus (GPa) = 21.74359 35.44616 28.59488
#
# Velocity S-wave (km/s) = 3.21260 4.10181 3.68413
# Velocity P-wave (km/s) = 4.55991 6.65454 5.70419
#
# Compressibility (1/GPa) = 0.06750318
#
# Stress axis : x y z
#
# Youngs Moduli (GPa) = 22.51624 65.21076 182.24827
#
# Poissons Ratio (x) = -0.24996 0.09905
# Poissons Ratio (y) = -0.08631 0.39277
# Poissons Ratio (z) = 0.01224 0.14054
#
# Static dielectric constant tensor:
#      x y z
#    x 1.840550 0.000000 -0.020150 
#    y 0.000000 1.758130 0.000000 
#    z -0.020150 0.000000 1.855050 
# 
# From -- ./inp_files/146336.got.cif
#   From: 2010.05.17/outbox.cif.g08.bks.cpg/sg15_74_cif.got.tgz:146336.got - 2010.06.03 18:47:42.
