data_PCOD9262227
_publ_section_title
;
Structure prediction by ZEFSAII (Michael W. Deem and Ramdas Pophale) SiO2 
 PCOD9262227
Probable space group: C 2/C
;
_chemical_formula_sum "Si O2"
_cell_formula_units_Z 52
_cell_length_a 8.826647
_cell_length_b 17.731657
_cell_length_c 21.005800
_cell_angle_alpha 90.000000
_cell_angle_beta 39.093112
_cell_angle_gamma 90.000000
_cell_volume 2073.128518
_symmetry_space_group_name_H-M "C 2/C"
_symmetry_group_IT_number 15
_symmetry_cell_setting 'monoclinic'
loop_
_space_group_symop_operation_xyz
x,y,z
-x,y,1/2-z
-x,-y,-z
x,-y,1/2+z
1/2+x,1/2+y,z
1/2-x,1/2+y,1/2-z
1/2-x,1/2-y,-z
1/2+x,1/2-y,1/2+z
loop_
_atom_site_type_symbol
_atom_site_label
_atom_site_fract_x
_atom_site_fract_y
_atom_site_fract_z
Si Si1 0.500000 0.768333 0.750000
Si Si2 0.500000 0.006659 0.750000
Si Si3 0.632105 0.853994 0.578428
Si Si4 0.982696 0.922106 0.626212
Si Si5 0.087938 0.764599 0.445492
Si Si6 0.973624 0.468223 0.398183
Si Si7 0.031803 0.257052 0.367970
Si Si8 0.500000 0.515221 0.750000
O O1 0.583603 0.820944 0.664572
O O2 0.696357 0.716438 0.719871
O O3 0.505507 0.051109 0.682705
O O4 0.749036 0.958357 0.668751
O O5 0.478254 0.802960 0.580047
O O6 0.565829 0.940475 0.588741
O O7 0.914950 0.832874 0.480419
O O8 0.952164 0.833374 0.646199
O O9 0.987384 0.963414 0.691864
O O10 0.235160 0.934429 0.507693
O O11 0.039063 0.734885 0.534233
O O12 0.362059 0.786063 0.368042
O O13 0.233268 0.448201 0.343241
#
# Coordination Sequence:
#
# PCOD9262227 Si02
#       8
#     4   4   8   8   8   8   8   4
#     4  10  19  32  56  83 108 133 184 254 273 300
#     4  10  21  34  54  90 114 142 200 240 275 336
#     4  10  19  35  56  82 108 140 185 231 282 333
#     4  11  21  36  60  85 116 150 186 238 292 331
#     4   9  20  34  53  75 108 142 173 220 270 340
#     4  11  21  36  60  85 116 150 186 238 292 331
#     4  10  19  35  56  82 108 140 185 231 282 333
#     4  10  22  36  54  91 114 143 200 234 272 344
#
# _framework density 25.082861999999999
#
# number of rings (size 3 to 8) (size 9 to 14) (size 15 to 20)
#    0.000    1.846    0.000    6.462    0.000    0.615 
#    0.000    0.000    0.000   64.615    0.000    0.000 
#    0.000    0.000    0.000    0.000    0.000    0.000 
#
# Total GULP energy -145316.570474 kJ/mol
# GULP energy per Si atom -5589.098864 kJ/mol
# Density = 2.502577 g / cm^3
# Si number density = 25.082862 Si / 1000 Ang^3
#
#
#
# Elastic Constant Matrix: (Units=GPa)
#
#
# Indices 1 2 3 4 5 6 
#
# 1 198.2311 29.6102 45.5719 0.0098 -48.4254 -0.0057
# 2 29.6102 106.5149 7.8984 -0.0013 -30.3142 -0.0010
# 3 45.5719 7.8984 95.4666 0.0033 -36.2647 -0.0050
# 4 0.0098 -0.0013 0.0033 5.4177 -0.0138 -13.1139
# 5 -48.4254 -30.3142 -36.2647 -0.0138 55.4048 0.0104
# 6 -0.0057 -0.0010 -0.0050 -13.1139 0.0104 -8.1652
#
#
#
# Elastic Compliance Matrix: (Units=1/GPa)
#
#
# Indices 1 2 3 4 5 6 
#
# 1 0.006541 -0.000404 -0.001332 0.000001 0.004624 0.000000
# 2 -0.000404 0.011396 0.001976 0.000008 0.007176 -0.000005
# 3 -0.001332 0.001976 0.014528 0.000006 0.009425 -0.000005
# 4 0.000001 0.000008 0.000006 0.037765 0.000030 -0.060654
# 5 0.004624 0.007176 0.009425 0.000030 0.032186 -0.000017
# 6 0.000000 -0.000005 -0.000005 -0.060654 -0.000017 -0.025057
#
#
# Mechanical properties :
#
#
# Convention : Reuss Voigt Hill
#
# Bulk Modulus (GPa) = 30.35430 62.93040 46.64235
# Shear Modulus (GPa) = 56.90833 31.67360 44.29096
#
# Velocity S-wave (km/s) = 4.76837 3.55739 4.20668
# Velocity P-wave (km/s) = 6.51494 6.48204 6.49851
#
# Compressibility (1/GPa) = 0.03294426
#
# Stress axis : x y z
#
# Youngs Moduli (GPa) = 152.88718 87.74802 68.83315
#
# Poissons Ratio (x) = 0.03541 0.09172
# Poissons Ratio (y) = 0.06169 -0.13599
# Poissons Ratio (z) = 0.20371 -0.17336
#
# Static dielectric constant tensor:
#      x y z
#    x 2.027820 -0.000010 -0.165410 
#    y -0.000010 1.957040 0.000020 
#    z -0.165410 0.000020 2.189010 
# 
# From -- ./inp_files/234399.got.cif
#   From: 2010.05.17/outbox.cif.g08.bks.cpg/sg15_118_cif.got.tgz:234399.got - 2010.06.03 18:47:42.
