data_PCOD9262554
_publ_section_title
;
Structure prediction by ZEFSAII (Michael W. Deem and Ramdas Pophale) SiO2 
 PCOD9262554
Probable space group: C 2/C
;
_chemical_formula_sum "Si O2"
_cell_formula_units_Z 64
_cell_length_a 10.403842
_cell_length_b 23.368230
_cell_length_c 21.763597
_cell_angle_alpha 90.000000
_cell_angle_beta 145.741267
_cell_angle_gamma 90.000000
_cell_volume 2978.553037
_symmetry_space_group_name_H-M "C 2/C"
_symmetry_group_IT_number 15
_symmetry_cell_setting 'monoclinic'
loop_
_space_group_symop_operation_xyz
x,y,z
-x,y,1/2-z
-x,-y,-z
x,-y,1/2+z
1/2+x,1/2+y,z
1/2-x,1/2+y,1/2-z
1/2-x,1/2-y,-z
1/2+x,1/2-y,1/2+z
loop_
_atom_site_type_symbol
_atom_site_label
_atom_site_fract_x
_atom_site_fract_y
_atom_site_fract_z
Si Si1 0.490371 0.233309 0.903204
Si Si2 0.063375 0.082987 0.203723
Si Si3 0.953054 0.632480 0.417465
Si Si4 0.045530 0.867691 0.429463
Si Si5 0.699156 0.184238 0.373749
Si Si6 0.138021 0.743836 0.161591
Si Si7 0.651161 0.550661 0.748727
Si Si8 0.093749 0.602529 0.970500
O O1 0.356311 0.269521 0.901406
O O2 0.364482 0.251470 0.790881
O O3 0.750000 0.250000 0.000000
O O4 0.489256 0.164958 0.914077
O O5 0.316810 0.110195 0.303639
O O6 0.000000 0.099659 0.250000
O O7 0.871806 0.101840 0.078461
O O8 0.085774 0.014936 0.211439
O O9 0.852940 0.696218 0.387741
O O10 0.928182 0.591290 0.465369
O O11 0.221797 0.637293 0.516879
O O12 0.150131 0.867856 0.539575
O O13 0.916521 0.807541 0.379440
O O14 0.905971 0.914042 0.335879
O O15 0.500000 0.164561 0.250000
O O16 0.564895 0.219891 0.374207
O O17 0.500000 0.569196 0.750000
O O18 0.921114 0.559039 0.869473
#
# Coordination Sequence:
#
# PCOD9262554 Si02
#       8
#     8   8   8   8   8   8   8   8
#     4  11  21  34  54  82 117 152 185 234 299 359
#     4   9  22  34  49  79 116 155 191 232 290 352
#     4  10  19  33  55  78 112 150 185 234 282 344
#     4  11  19  33  55  83 109 145 192 234 277 337
#     4   9  20  34  54  80 114 145 187 238 279 344
#     4  10  19  33  53  84 113 143 195 231 275 344
#     4  11  22  33  55  83 114 154 195 239 282 346
#     4  11  20  35  53  75 118 154 185 228 295 352
#
# _framework density 21.486944000000001
#
# number of rings (size 3 to 8) (size 9 to 14) (size 15 to 20)
#    0.000    1.750    2.500    3.750    1.750    1.500 
#    0.000    1.875    0.000    0.000    0.000   14.000 
#    0.000    0.000    0.000    0.000    0.000    0.000 
#
# Total GULP energy -178271.473209 kJ/mol
# GULP energy per Si atom -5570.983538 kJ/mol
# Density = 2.143804 g / cm^3
# Si number density = 21.486944 Si / 1000 Ang^3
#
#
#
# Elastic Constant Matrix: (Units=GPa)
#
#
# Indices 1 2 3 4 5 6 
#
# 1 14.7293 8.4961 10.1401 -0.0005 -0.7959 -0.0017
# 2 8.4961 64.3973 27.9616 -0.0012 -3.7307 -0.0004
# 3 10.1401 27.9616 158.8214 -0.0012 5.6783 -0.0019
# 4 -0.0005 -0.0012 -0.0012 26.6633 -0.0010 4.0098
# 5 -0.7959 -3.7307 5.6783 -0.0010 24.5877 -0.0017
# 6 -0.0017 -0.0004 -0.0019 4.0098 -0.0017 15.6556
#
#
#
# Elastic Compliance Matrix: (Units=1/GPa)
#
#
# Indices 1 2 3 4 5 6 
#
# 1 0.075140 -0.008323 -0.003402 0.000000 0.001955 0.000008
# 2 -0.008323 0.017999 -0.002748 0.000001 0.003096 -0.000001
# 3 -0.003402 -0.002748 0.007075 0.000000 -0.002161 0.000000
# 4 0.000000 0.000001 0.000000 0.039007 0.000001 -0.009991
# 5 0.001955 0.003096 -0.002161 0.000001 0.041703 0.000004
# 6 0.000008 -0.000001 0.000000 -0.009991 0.000004 0.066434
#
#
# Mechanical properties :
#
#
# Convention : Reuss Voigt Hill
#
# Bulk Modulus (GPa) = 14.03156 36.79374 25.41265
# Shear Modulus (GPa) = 16.66328 26.13799 21.40063
#
# Velocity S-wave (km/s) = 2.78781 3.49156 3.15934
# Velocity P-wave (km/s) = 4.11181 5.78062 5.01610
#
# Compressibility (1/GPa) = 0.07126789
#
# Stress axis : x y z
#
# Youngs Moduli (GPa) = 13.30842 55.55760 141.34913
#
# Poissons Ratio (x) = 0.46241 0.48087
# Poissons Ratio (y) = 0.11077 0.38846
# Poissons Ratio (z) = 0.04527 0.15268
#
# Static dielectric constant tensor:
#      x y z
#    x 1.896530 0.000000 0.008680 
#    y 0.000000 1.796660 0.000000 
#    z 0.008680 0.000000 1.856730 
# 
# From -- ./inp_files/271226.got.cif
#   From: 2010.05.17/outbox.cif.g08.bks.cpg/sg15_136_cif.got.tgz:271226.got - 2010.06.03 18:47:42.
