data_PCOD9262595
_publ_section_title
;
Structure prediction by ZEFSAII (Michael W. Deem and Ramdas Pophale) SiO2 
 PCOD9262595
Probable space group: C 2/C
;
_chemical_formula_sum "Si O2"
_cell_formula_units_Z 64
_cell_length_a 18.122139
_cell_length_b 21.883504
_cell_length_c 9.089472
_cell_angle_alpha 90.000000
_cell_angle_beta 56.546679
_cell_angle_gamma 90.000000
_cell_volume 3007.499388
_symmetry_space_group_name_H-M "C 2/C"
_symmetry_group_IT_number 15
_symmetry_cell_setting 'monoclinic'
loop_
_space_group_symop_operation_xyz
x,y,z
-x,y,1/2-z
-x,-y,-z
x,-y,1/2+z
1/2+x,1/2+y,z
1/2-x,1/2+y,1/2-z
1/2-x,1/2-y,-z
1/2+x,1/2-y,1/2+z
loop_
_atom_site_type_symbol
_atom_site_label
_atom_site_fract_x
_atom_site_fract_y
_atom_site_fract_z
Si Si1 0.470963 0.438233 0.112756
Si Si2 0.273718 0.825897 0.797525
Si Si3 0.035094 0.803326 0.376749
Si Si4 0.733359 0.566803 0.743639
Si Si5 0.525016 0.061806 0.392258
Si Si6 0.031885 0.681097 0.547946
Si Si7 0.273649 0.048270 0.378133
Si Si8 0.749319 0.196071 0.841005
O O1 0.500000 0.443009 0.250000
O O2 0.497899 0.369869 0.030644
O O3 0.365815 0.435021 0.209367
O O4 0.500000 0.500000 0.000000
O O5 0.361516 0.824344 0.599705
O O6 0.224192 0.891544 0.865482
O O7 0.222277 0.763214 0.815813
O O8 0.294732 0.815859 0.950377
O O9 0.006445 0.745907 0.505137
O O10 0.143236 0.802258 0.254652
O O11 0.000000 0.796158 0.250000
O O12 0.785289 0.547503 0.540321
O O13 0.739920 0.516659 0.861578
O O14 0.762843 0.636027 0.745337
O O15 0.500000 0.061383 0.250000
O O16 0.491148 0.123376 0.506083
O O17 0.630153 0.060734 0.289258
O O18 0.500000 0.000000 0.500000
O O19 0.000000 0.678165 0.750000
#
# Coordination Sequence:
#
# PCOD9262595 Si02
#       8
#     8   8   8   8   8   8   8   8
#     4  10  20  34  54  81 112 146 184 224 271 326
#     4   8  16  32  54  75  99 133 175 220 264 314
#     4   9  18  33  54  79 106 143 188 227 267 324
#     4  10  19  33  54  79 107 138 175 222 269 321
#     4  11  22  37  57  80 110 147 188 231 277 329
#     4  10  20  34  54  81 112 143 179 225 278 335
#     4  10  20  34  54  79 105 138 178 221 271 321
#     4   8  15  31  56  77  98 134 182 224 264 315
#
# _framework density 21.280137
#
# number of rings (size 3 to 8) (size 9 to 14) (size 15 to 20)
#    0.000    2.500    0.000    2.250    0.000    2.500 
#    0.000    2.500    0.000    1.500    0.000    0.000 
#    0.000    0.000    0.000    0.000    0.000    0.000 
#
# Total GULP energy -178272.528401 kJ/mol
# GULP energy per Si atom -5571.016513 kJ/mol
# Density = 2.123170 g / cm^3
# Si number density = 21.280137 Si / 1000 Ang^3
#
#
#
# Elastic Constant Matrix: (Units=GPa)
#
#
# Indices 1 2 3 4 5 6 
#
# 1 31.2697 5.4306 -0.1539 0.0000 5.3766 0.0000
# 2 5.4306 193.1382 53.9881 0.0000 32.0510 0.0000
# 3 -0.1539 53.9881 90.3353 0.0000 7.4521 0.0000
# 4 0.0000 0.0000 0.0000 35.7656 0.0000 12.8657
# 5 5.3766 32.0510 7.4521 0.0000 23.8301 0.0000
# 6 0.0000 0.0000 0.0000 12.8657 0.0000 62.5192
#
#
#
# Elastic Compliance Matrix: (Units=1/GPa)
#
#
# Indices 1 2 3 4 5 6 
#
# 1 0.033320 0.000230 0.000580 0.000000 -0.008008 0.000000
# 2 0.000230 0.007810 -0.003897 0.000000 -0.009338 0.000000
# 3 0.000580 -0.003897 0.013322 0.000000 0.000944 0.000000
# 4 0.000000 0.000000 0.000000 0.030195 0.000000 -0.006214
# 5 -0.008008 -0.009338 0.000944 0.000000 0.056034 0.000000
# 6 0.000000 0.000000 0.000000 -0.006214 0.000000 0.017274
#
#
# Mechanical properties :
#
#
# Convention : Reuss Voigt Hill
#
# Bulk Modulus (GPa) = 20.71350 48.14142 34.42746
# Shear Modulus (GPa) = 27.74366 41.45485 34.59926
#
# Velocity S-wave (km/s) = 3.61464 4.41846 4.03661
# Velocity P-wave (km/s) = 5.21303 6.97870 6.15946
#
# Compressibility (1/GPa) = 0.04827769
#
# Stress axis : x y z
#
# Youngs Moduli (GPa) = 30.01227 128.04015 75.06430
#
# Poissons Ratio (x) = -0.02945 -0.04353
# Poissons Ratio (y) = -0.00690 0.29252
# Poissons Ratio (z) = -0.01741 0.49896
#
# Static dielectric constant tensor:
#      x y z
#    x 1.798850 0.000000 -0.022990 
#    y 0.000000 1.921220 0.000000 
#    z -0.022990 0.000000 1.654820 
# 
# From -- ./inp_files/57854.got.cif
#   From: 2010.05.17/outbox.cif.g08.bks.cpg/sg15_29_cif.got.tgz:57854.got - 2010.06.03 18:47:42.
