data_PCOD9262697
_publ_section_title
;
Structure prediction by ZEFSAII (Michael W. Deem and Ramdas Pophale) SiO2 
 PCOD9262697
Probable space group: C 2/C
;
_chemical_formula_sum "Si O2"
_cell_formula_units_Z 48
_cell_length_a 16.233552
_cell_length_b 13.332884
_cell_length_c 11.829304
_cell_angle_alpha 90.000000
_cell_angle_beta 129.218026
_cell_angle_gamma 90.000000
_cell_volume 1983.608550
_symmetry_space_group_name_H-M "C 2/C"
_symmetry_group_IT_number 15
_symmetry_cell_setting 'monoclinic'
loop_
_space_group_symop_operation_xyz
x,y,z
-x,y,1/2-z
-x,-y,-z
x,-y,1/2+z
1/2+x,1/2+y,z
1/2-x,1/2+y,1/2-z
1/2-x,1/2-y,-z
1/2+x,1/2-y,1/2+z
loop_
_atom_site_type_symbol
_atom_site_label
_atom_site_fract_x
_atom_site_fract_y
_atom_site_fract_z
Si Si1 0.382855 0.401029 0.619355
Si Si2 0.194317 0.488422 0.329357
Si Si3 0.334933 0.635238 0.326389
Si Si4 0.720745 0.149918 0.664919
Si Si5 0.560647 0.316117 0.071058
Si Si6 0.495229 0.910522 0.587800
O O1 0.500000 0.445180 0.750000
O O2 0.285547 0.473841 0.501545
O O3 0.348187 0.347984 0.704864
O O4 0.400096 0.329084 0.525136
O O5 0.254809 0.546575 0.280720
O O6 0.177688 0.381738 0.253079
O O7 0.084691 0.546833 0.250841
O O8 0.288264 0.730863 0.348312
O O9 0.451753 0.621362 0.480127
O O10 0.847391 0.135606 0.772014
O O11 0.631315 0.105863 0.505725
O O12 0.535415 0.200147 0.080365
O O13 0.500000 0.000000 0.500000
#
# Coordination Sequence:
#
# PCOD9262697 Si02
#       6
#     8   8   8   8   8   8
#     4   9  20  33  52  84 115 137 183 229 279 327
#     4  10  19  33  55  79 110 147 182 222 277 329
#     4  10  19  34  54  83 112 141 180 227 281 326
#     4   9  18  31  53  79 107 146 178 225 274 329
#     4   9  17  31  50  78 108 139 177 225 271 320
#     4   9  17  31  50  74 110 148 181 212 267 332
#
# _framework density 24.198322999999998
#
# number of rings (size 3 to 8) (size 9 to 14) (size 15 to 20)
#    0.000    2.667    1.667    0.000    0.000    8.667 
#    0.000    1.667    0.000    4.000    0.000    0.000 
#    0.000    0.000    0.000    0.000    0.000    0.000 
#
# Total GULP energy -133708.042115 kJ/mol
# GULP energy per Si atom -5571.168421 kJ/mol
# Density = 2.414325 g / cm^3
# Si number density = 24.198323 Si / 1000 Ang^3
#
#
#
# Elastic Constant Matrix: (Units=GPa)
#
#
# Indices 1 2 3 4 5 6 
#
# 1 57.7387 21.9198 45.8783 0.0000 33.4864 0.0000
# 2 21.9198 66.0481 30.2624 0.0000 13.1476 0.0000
# 3 45.8783 30.2624 209.6273 0.0000 38.5106 0.0000
# 4 0.0000 0.0000 0.0000 30.7660 0.0000 24.3680
# 5 33.4864 13.1476 38.5106 0.0000 40.6292 0.0000
# 6 0.0000 0.0000 0.0000 24.3680 0.0000 -3.7622
#
#
#
# Elastic Compliance Matrix: (Units=1/GPa)
#
#
# Indices 1 2 3 4 5 6 
#
# 1 0.036445 -0.005853 -0.002374 0.000000 -0.025893 0.000000
# 2 -0.005853 0.017617 -0.001333 0.000000 0.000387 0.000000
# 3 -0.002374 -0.001333 0.006107 0.000000 -0.003400 0.000000
# 4 0.000000 0.000000 0.000000 0.005302 0.000000 0.034343
# 5 -0.025893 0.000387 -0.003400 0.000000 0.049052 0.000000
# 6 0.000000 0.000000 0.000000 0.034343 0.000000 -0.043360
#
#
# Mechanical properties :
#
#
# Convention : Reuss Voigt Hill
#
# Bulk Modulus (GPa) = 24.36188 58.83725 41.59956
# Shear Modulus (GPa) = 48.09169 29.21683 38.65426
#
# Velocity S-wave (km/s) = 4.46286 3.47852 4.00108
# Velocity P-wave (km/s) = 6.05356 6.36403 6.21074
#
# Compressibility (1/GPa) = 0.04104774
#
# Stress axis : x y z
#
# Youngs Moduli (GPa) = 27.43825 56.76388 163.74161
#
# Poissons Ratio (x) = 0.33224 0.38880
# Poissons Ratio (y) = 0.16060 0.21832
# Poissons Ratio (z) = 0.06515 0.07569
#
# Static dielectric constant tensor:
#      x y z
#    x 1.668460 0.000000 0.319120 
#    y 0.000000 1.867720 0.000000 
#    z 0.319120 0.000000 1.613310 
# 
# From -- ./inp_files/167928.got.cif
#   From: 2010.05.17/outbox.cif.g08.bks.cpg/sg15_84_cif.got.tgz:167928.got - 2010.06.03 18:47:42.
