data_PCOD9262686
_publ_section_title
;
Structure prediction by ZEFSAII (Michael W. Deem and Ramdas Pophale) SiO2 
 PCOD9262686
Probable space group: C 2/C
;
_chemical_formula_sum "Si O2"
_cell_formula_units_Z 56
_cell_length_a 21.213044
_cell_length_b 15.870522
_cell_length_c 12.653647
_cell_angle_alpha 90.000000
_cell_angle_beta 37.634746
_cell_angle_gamma 90.000000
_cell_volume 2601.266638
_symmetry_space_group_name_H-M "C 2/C"
_symmetry_group_IT_number 15
_symmetry_cell_setting 'monoclinic'
loop_
_space_group_symop_operation_xyz
x,y,z
-x,y,1/2-z
-x,-y,-z
x,-y,1/2+z
1/2+x,1/2+y,z
1/2-x,1/2+y,1/2-z
1/2-x,1/2-y,-z
1/2+x,1/2-y,1/2+z
loop_
_atom_site_type_symbol
_atom_site_label
_atom_site_fract_x
_atom_site_fract_y
_atom_site_fract_z
Si Si1 0.817294 0.329333 0.792483
Si Si2 0.591340 0.269565 0.052009
Si Si3 0.818319 0.412675 0.566335
Si Si4 0.866748 0.153994 0.636458
Si Si5 0.155070 0.403418 0.516606
Si Si6 0.413726 0.365623 0.661374
Si Si7 0.353663 0.738233 0.429987
O O1 0.817793 0.391472 0.691487
O O2 0.880368 0.244325 0.678912
O O3 0.700155 0.295172 0.960534
O O4 0.848680 0.376915 0.856235
O O5 0.500000 0.298317 0.250000
O O6 0.589597 0.168538 0.044740
O O7 0.596463 0.310588 0.930837
O O8 0.870941 0.500413 0.469583
O O9 0.697053 0.412747 0.687257
O O10 0.875476 0.332734 0.438586
O O11 0.771061 0.108779 0.817915
O O12 0.837930 0.181525 0.555106
O O13 0.970407 0.098013 0.501557
O O14 0.425751 0.307696 0.749991
O O15 0.250000 0.750000 0.500000
#
# Coordination Sequence:
#
# PCOD9262686 Si02
#       7
#     8   8   8   8   8   8   8
#     4   9  19  35  52  73 102 137 173 214 257 305
#     4  10  19  34  55  77  99 134 182 217 251 305
#     4   9  21  34  50  77 107 135 168 214 266 309
#     4  10  19  33  55  79 101 135 180 215 255 308
#     4  11  20  33  54  77 106 137 168 214 269 314
#     4  10  19  34  55  76 102 137 176 217 255 306
#     4   9  18  35  53  73 103 140 177 208 246 305
#
# _framework density 21.527972999999999
#
# number of rings (size 3 to 8) (size 9 to 14) (size 15 to 20)
#    0.000    2.286    0.000    6.429    0.000    4.000 
#    0.000    2.857    0.000    7.714    0.000    0.000 
#    0.000    0.000    0.000    0.000    0.000    0.000 
#
# Total GULP energy -156241.651319 kJ/mol
# GULP energy per Si atom -5580.058976 kJ/mol
# Density = 2.147897 g / cm^3
# Si number density = 21.527973 Si / 1000 Ang^3
#
#
#
# Elastic Constant Matrix: (Units=GPa)
#
#
# Indices 1 2 3 4 5 6 
#
# 1 56.3449 4.9888 18.6632 0.0000 11.4858 0.0000
# 2 4.9888 76.3688 8.2478 0.0000 25.3229 0.0000
# 3 18.6632 8.2478 88.8209 0.0000 10.4259 0.0000
# 4 0.0000 0.0000 0.0000 14.3685 0.0000 5.0164
# 5 11.4858 25.3229 10.4259 0.0000 48.0908 0.0000
# 6 0.0000 0.0000 0.0000 5.0164 0.0000 11.2991
#
#
#
# Elastic Compliance Matrix: (Units=1/GPa)
#
#
# Indices 1 2 3 4 5 6 
#
# 1 0.019786 0.000495 -0.003713 0.000000 -0.004181 0.000000
# 2 0.000495 0.015899 -0.000599 0.000000 -0.008360 0.000000
# 3 -0.003713 -0.000599 0.012265 0.000000 -0.001457 0.000000
# 4 0.000000 0.000000 0.000000 0.082363 0.000000 -0.036566
# 5 -0.004181 -0.008360 -0.001457 0.000000 0.026511 0.000000
# 6 0.000000 0.000000 0.000000 -0.036566 0.000000 0.104737
#
#
# Mechanical properties :
#
#
# Convention : Reuss Voigt Hill
#
# Bulk Modulus (GPa) = 24.80357 31.70381 28.25369
# Shear Modulus (GPa) = 17.69078 27.39400 22.54239
#
# Velocity S-wave (km/s) = 2.86974 3.57106 3.23944
# Velocity P-wave (km/s) = 4.74627 5.63578 5.21005
#
# Compressibility (1/GPa) = 0.04031678
#
# Stress axis : x y z
#
# Youngs Moduli (GPa) = 50.54053 62.89772 81.53038
#
# Poissons Ratio (x) = -0.03113 0.30269
# Poissons Ratio (y) = -0.02501 0.04884
# Poissons Ratio (z) = 0.18764 0.03768
#
# Static dielectric constant tensor:
#      x y z
#    x 1.826090 0.000000 -0.056640 
#    y 0.000000 1.771930 0.000000 
#    z -0.056640 0.000000 1.820370 
# 
# From -- ./inp_files/119211.got.cif
#   From: 2010.05.17/outbox.cif.g08.bks.cpg/sg15_60_cif.got.tgz:119211.got - 2010.06.03 18:47:42.
