data_PCOD9262516
_publ_section_title
;
Structure prediction by ZEFSAII (Michael W. Deem and Ramdas Pophale) SiO2 
 PCOD9262516
Probable space group: C 2/C
;
_chemical_formula_sum "Si O2"
_cell_formula_units_Z 64
_cell_length_a 29.597789
_cell_length_b 19.845422
_cell_length_c 5.467763
_cell_angle_alpha 90.000000
_cell_angle_beta 70.844354
_cell_angle_gamma 90.000000
_cell_volume 3033.830634
_symmetry_space_group_name_H-M "C 2/C"
_symmetry_group_IT_number 15
_symmetry_cell_setting 'monoclinic'
loop_
_space_group_symop_operation_xyz
x,y,z
-x,y,1/2-z
-x,-y,-z
x,-y,1/2+z
1/2+x,1/2+y,z
1/2-x,1/2+y,1/2-z
1/2-x,1/2-y,-z
1/2+x,1/2-y,1/2+z
loop_
_atom_site_type_symbol
_atom_site_label
_atom_site_fract_x
_atom_site_fract_y
_atom_site_fract_z
Si Si1 0.750693 0.850117 0.854738
Si Si2 0.443868 0.815236 0.392834
Si Si3 0.702062 0.996814 0.957914
Si Si4 0.860716 0.173880 0.043037
Si Si5 0.608685 0.169065 0.011907
Si Si6 0.553778 0.525384 0.944882
Si Si7 0.785389 0.641972 0.581325
Si Si8 0.588780 0.659846 0.046731
O O1 0.806079 0.841583 0.701801
O O2 0.722770 0.823530 0.664950
O O3 0.732425 0.928046 0.907778
O O4 0.736813 0.821455 0.144960
O O5 0.500000 0.826070 0.250000
O O6 0.425199 0.839889 0.691164
O O7 0.433108 0.734568 0.413591
O O8 0.415309 0.844406 0.208472
O O9 0.734256 0.064890 0.900122
O O10 0.673552 0.996810 0.758024
O O11 0.891504 0.144905 0.216726
O O12 0.874025 0.252937 0.027092
O O13 0.872164 0.154638 0.741793
O O14 0.658669 0.132279 0.967760
O O15 0.576942 0.511840 0.638263
O O16 0.552304 0.603066 0.023091
O O17 0.500000 0.500000 0.000000
#
# Coordination Sequence:
#
# PCOD9262516 Si02
#       8
#     8   8   8   8   8   8   8   8
#     4  10  19  33  53  78 106 149 183 216 265 326
#     4  10  21  37  59  80 105 144 176 221 279 340
#     4   8  16  30  47  72 100 131 182 212 251 308
#     4  10  21  36  53  75 113 143 183 227 272 328
#     4  10  21  36  53  84 112 135 184 230 271 325
#     4  10  21  36  52  75  99 127 178 245 277 331
#     4  10  19  33  54  77 110 142 180 229 269 308
#     4  10  21  38  54  76 103 144 181 227 287 321
#
# _framework density 21.095441000000001
#
# number of rings (size 3 to 8) (size 9 to 14) (size 15 to 20)
#    0.000    2.250    0.000    2.625    1.750    1.000 
#    4.500   11.250    0.000    0.000    0.000    0.000 
#    0.000   90.000    0.000    0.000    0.000    0.000 
#
# Total GULP energy -178213.445706 kJ/mol
# GULP energy per Si atom -5569.170178 kJ/mol
# Density = 2.104743 g / cm^3
# Si number density = 21.095441 Si / 1000 Ang^3
#
#
#
# Elastic Constant Matrix: (Units=GPa)
#
#
# Indices 1 2 3 4 5 6 
#
# 1 64.7878 0.6504 24.9231 0.0000 -0.7618 0.0000
# 2 0.6504 22.6897 17.9538 0.0000 4.2607 0.0000
# 3 24.9231 17.9538 174.1415 0.0000 25.2919 0.0000
# 4 0.0000 0.0000 0.0000 14.8397 0.0000 2.8577
# 5 -0.7618 4.2607 25.2919 0.0000 45.7582 0.0000
# 6 0.0000 0.0000 0.0000 2.8577 0.0000 20.9714
#
#
#
# Elastic Compliance Matrix: (Units=1/GPa)
#
#
# Indices 1 2 3 4 5 6 
#
# 1 0.016497 0.001387 -0.002746 0.000000 0.001663 0.000000
# 2 0.001387 0.048254 -0.004919 0.000000 -0.001751 0.000000
# 3 -0.002746 -0.004919 0.007157 0.000000 -0.003544 0.000000
# 4 0.000000 0.000000 0.000000 0.069203 0.000000 -0.009430
# 5 0.001663 -0.001751 -0.003544 0.000000 0.024003 0.000000
# 6 0.000000 0.000000 0.000000 -0.009430 0.000000 0.048969
#
#
# Mechanical properties :
#
#
# Convention : Reuss Voigt Hill
#
# Bulk Modulus (GPa) = 16.84820 38.74152 27.79486
# Shear Modulus (GPa) = 20.29031 30.85329 25.57180
#
# Velocity S-wave (km/s) = 3.10471 3.82849 3.48544
# Velocity P-wave (km/s) = 4.56687 6.16018 5.42237
#
# Compressibility (1/GPa) = 0.05935351
#
# Stress axis : x y z
#
# Youngs Moduli (GPa) = 60.61768 20.72350 139.71852
#
# Poissons Ratio (x) = -0.02875 0.38361
# Poissons Ratio (y) = -0.08410 0.68731
# Poissons Ratio (z) = 0.16643 0.10194
#
# Static dielectric constant tensor:
#      x y z
#    x 1.723530 0.000000 0.034650 
#    y 0.000000 1.848500 0.000000 
#    z 0.034650 0.000000 1.855090 
# 
# From -- ./inp_files/16143.got.cif
#   From: 2010.05.17/outbox.cif.g08.bks.cpg/sg15_9_cif.got.tgz:16143.got - 2010.06.03 18:47:42.
