data_PCOD9262741
_publ_section_title
;
Structure prediction by ZEFSAII (Michael W. Deem and Ramdas Pophale) SiO2 
 PCOD9262741
Probable space group: C 2/C
;
_chemical_formula_sum "Si O2"
_cell_formula_units_Z 44
_cell_length_a 13.691392
_cell_length_b 5.644524
_cell_length_c 23.674025
_cell_angle_alpha 90.000000
_cell_angle_beta 123.180618
_cell_angle_gamma 90.000000
_cell_volume 1531.250638
_symmetry_space_group_name_H-M "C 2/C"
_symmetry_group_IT_number 15
_symmetry_cell_setting 'monoclinic'
loop_
_space_group_symop_operation_xyz
x,y,z
-x,y,1/2-z
-x,-y,-z
x,-y,1/2+z
1/2+x,1/2+y,z
1/2-x,1/2+y,1/2-z
1/2-x,1/2-y,-z
1/2+x,1/2-y,1/2+z
loop_
_atom_site_type_symbol
_atom_site_label
_atom_site_fract_x
_atom_site_fract_y
_atom_site_fract_z
Si Si1 0.655659 0.200424 0.352087
Si Si2 0.579581 0.969530 0.585601
Si Si3 0.603846 0.467838 0.614270
Si Si4 0.244910 0.502067 0.032319
Si Si5 0.000000 0.595789 0.750000
Si Si6 0.818204 0.972553 0.733139
O O1 0.782089 0.071596 0.390670
O O2 0.654865 0.434528 0.390038
O O3 0.550675 0.022184 0.324135
O O4 0.607681 0.745787 0.264880
O O5 0.533005 0.704018 0.577420
O O6 0.632936 0.986088 0.538997
O O7 0.690591 0.961331 0.664694
O O8 0.530323 0.227759 0.584605
O O9 0.660431 0.484190 0.694097
O O10 0.250000 0.750000 0.000000
O O11 0.250000 0.250000 0.000000
O O12 0.133262 0.208282 0.781323
#
# Coordination Sequence:
#
# PCOD9262741 Si02
#       6
#     8   8   8   8   4   8
#     4  10  23  35  56  88 123 151 201 239 295 360
#     4  10  19  33  55  84 112 143 200 240 280 347
#     4  10  19  34  57  81 118 154 189 236 285 362
#     4  10  20  35  59  85 117 154 200 257 295 323
#     4  12  22  36  54  88 130 152 184 242 304 370
#     4  10  21  33  54  81 124 154 185 231 304 360
#
# _framework density 28.734680000000001
#
# number of rings (size 3 to 8) (size 9 to 14) (size 15 to 20)
#    0.000    2.182    1.818    4.909    5.091    0.000 
#    0.000    0.000    0.000    0.000    0.000   17.818 
#    0.000    0.000    0.000    0.000    0.000    0.000 
#
# Total GULP energy -122985.722020 kJ/mol
# GULP energy per Si atom -5590.260092 kJ/mol
# Density = 2.866928 g / cm^3
# Si number density = 28.734680 Si / 1000 Ang^3
#
#
#
# Elastic Constant Matrix: (Units=GPa)
#
#
# Indices 1 2 3 4 5 6 
#
# 1 67.3244 25.0342 23.0195 0.0000 -5.5824 0.0000
# 2 25.0342 232.8928 70.8429 0.0000 -18.1382 0.0000
# 3 23.0195 70.8429 135.2830 0.0000 -22.8799 0.0000
# 4 0.0000 0.0000 0.0000 56.5532 0.0000 -13.1384
# 5 -5.5824 -18.1382 -22.8799 0.0000 51.3454 0.0000
# 6 0.0000 0.0000 0.0000 -13.1384 0.0000 32.9975
#
#
#
# Elastic Compliance Matrix: (Units=1/GPa)
#
#
# Indices 1 2 3 4 5 6 
#
# 1 0.015997 -0.001047 -0.002100 0.000000 0.000433 0.000000
# 2 -0.001047 0.005197 -0.002436 0.000000 0.000637 0.000000
# 3 -0.002100 -0.002436 0.009561 0.000000 0.003172 0.000000
# 4 0.000000 0.000000 0.000000 0.019485 0.000000 0.007758
# 5 0.000433 0.000637 0.003172 0.000000 0.021161 0.000000
# 6 0.000000 0.000000 0.000000 0.007758 0.000000 0.033394
#
#
# Mechanical properties :
#
#
# Convention : Reuss Voigt Hill
#
# Bulk Modulus (GPa) = 51.04901 74.81038 62.92969
# Shear Modulus (GPa) = 40.81937 49.28613 45.05275
#
# Velocity S-wave (km/s) = 3.77312 4.14601 3.96395
# Velocity P-wave (km/s) = 6.06516 7.00075 6.54968
#
# Compressibility (1/GPa) = 0.01958902
#
# Stress axis : x y z
#
# Youngs Moduli (GPa) = 62.51227 192.42591 104.58962
#
# Poissons Ratio (x) = 0.20144 0.21969
# Poissons Ratio (y) = 0.06544 0.25474
# Poissons Ratio (z) = 0.13131 0.46867
#
# Static dielectric constant tensor:
#      x y z
#    x 2.309120 0.000000 -0.051900 
#    y 0.000000 2.369880 0.000000 
#    z -0.051900 0.000000 2.352040 
# 
# From -- ./inp_files/275921.got.cif
#   From: 2010.05.17/outbox.cif.g08.bks.cpg/sg15_138_cif.got.tgz:275921.got - 2010.06.03 18:47:42.
