data_PCOD9262586
_publ_section_title
;
Structure prediction by ZEFSAII (Michael W. Deem and Ramdas Pophale) SiO2 
 PCOD9262586
Probable space group: C 2/C
;
_chemical_formula_sum "Si O2"
_cell_formula_units_Z 48
_cell_length_a 7.929108
_cell_length_b 17.771829
_cell_length_c 25.326553
_cell_angle_alpha 90.000000
_cell_angle_beta 144.322330
_cell_angle_gamma 90.000000
_cell_volume 2081.461739
_symmetry_space_group_name_H-M "C 2/C"
_symmetry_group_IT_number 15
_symmetry_cell_setting 'monoclinic'
loop_
_space_group_symop_operation_xyz
x,y,z
-x,y,1/2-z
-x,-y,-z
x,-y,1/2+z
1/2+x,1/2+y,z
1/2-x,1/2+y,1/2-z
1/2-x,1/2-y,-z
1/2+x,1/2-y,1/2+z
loop_
_atom_site_type_symbol
_atom_site_label
_atom_site_fract_x
_atom_site_fract_y
_atom_site_fract_z
Si Si1 0.262942 0.859539 0.779367
Si Si2 0.682778 0.272216 0.567740
Si Si3 0.345989 0.375029 0.157995
Si Si4 0.386537 0.284596 0.608047
Si Si5 0.312690 0.061341 0.483112
Si Si6 0.290645 0.498944 0.307872
O O1 0.569065 0.832722 0.880663
O O2 0.307109 0.926641 0.749074
O O3 0.000000 0.884081 0.750000
O O4 0.124040 0.787630 0.713639
O O5 0.826016 0.189686 0.608676
O O6 0.552014 0.279639 0.594092
O O7 0.390481 0.269719 0.458663
O O8 0.500000 0.347564 0.250000
O O9 0.526001 0.445463 0.182998
O O10 0.014283 0.405126 0.080432
O O11 0.247475 0.368012 0.570440
O O12 0.997497 0.024700 0.408915
O O13 0.500000 0.000000 0.500000
O O14 0.000000 0.458088 0.250000
#
# Coordination Sequence:
#
# PCOD9262586 Si02
#       6
#     8   8   8   8   8   8
#     4  11  21  33  53  80 108 138 177 223 267 315
#     4  10  20  35  56  79 107 143 179 218 264 322
#     4  10  19  33  54  78 104 134 171 217 268 313
#     4   9  18  34  55  78 104 142 182 214 264 320
#     4   8  16  31  52  74 101 137 171 209 257 310
#     4  10  20  36  55  74 102 140 180 216 261 320
#
# _framework density 23.060715999999999
#
# number of rings (size 3 to 8) (size 9 to 14) (size 15 to 20)
#    0.000    2.333    0.000    4.000    0.000    1.333 
#    0.000    0.833    0.000   28.000    0.000    0.000 
#    0.000    0.000    0.000    0.000    0.000    0.000 
#
# Total GULP energy -133771.420648 kJ/mol
# GULP energy per Si atom -5573.809194 kJ/mol
# Density = 2.300823 g / cm^3
# Si number density = 23.060716 Si / 1000 Ang^3
#
#
#
# Elastic Constant Matrix: (Units=GPa)
#
#
# Indices 1 2 3 4 5 6 
#
# 1 42.2365 2.8266 17.3021 -0.0007 19.4422 -0.0003
# 2 2.8266 61.0801 9.8633 0.0007 18.7914 -0.0001
# 3 17.3021 9.8633 75.2977 0.0004 28.1722 -0.0023
# 4 -0.0007 0.0007 0.0004 23.8861 -0.0006 12.9571
# 5 19.4422 18.7914 28.1722 -0.0006 33.4516 -0.0004
# 6 -0.0003 -0.0001 -0.0023 12.9571 -0.0004 11.8696
#
#
#
# Elastic Compliance Matrix: (Units=1/GPa)
#
#
# Indices 1 2 3 4 5 6 
#
# 1 0.033739 0.005408 0.000018 0.000000 -0.022662 0.000000
# 2 0.005408 0.020933 0.002323 -0.000002 -0.016858 0.000003
# 3 0.000018 0.002323 0.019659 -0.000006 -0.017871 0.000010
# 4 0.000000 -0.000002 -0.000006 0.102651 0.000007 -0.112056
# 5 -0.022662 -0.016858 -0.017871 0.000007 0.067586 -0.000009
# 6 0.000000 0.000003 0.000010 -0.112056 -0.000009 0.206572
#
#
# Mechanical properties :
#
#
# Convention : Reuss Voigt Hill
#
# Bulk Modulus (GPa) = 11.13245 26.51091 18.82168
# Shear Modulus (GPa) = 10.73918 23.74961 17.24439
#
# Velocity S-wave (km/s) = 2.16033 3.21264 2.73753
# Velocity P-wave (km/s) = 3.32575 5.02817 4.26281
#
# Compressibility (1/GPa) = 0.08982751
#
# Stress axis : x y z
#
# Youngs Moduli (GPa) = 29.63957 47.77119 50.86806
#
# Poissons Ratio (x) = -0.25834 -0.00091
# Poissons Ratio (y) = -0.16028 -0.11816
# Poissons Ratio (z) = -0.00053 -0.11096
#
# Static dielectric constant tensor:
#      x y z
#    x 1.888610 0.000000 0.007550 
#    y 0.000000 1.890790 0.000000 
#    z 0.007550 0.000000 1.947500 
# 
# From -- ./inp_files/135486.got.cif
#   From: 2010.05.17/outbox.cif.g08.bks.cpg/sg15_68_cif.got.tgz:135486.got - 2010.06.03 18:47:42.
