data_PCOD9262489
_publ_section_title
;
Structure prediction by ZEFSAII (Michael W. Deem and Ramdas Pophale) SiO2 
 PCOD9262489
Probable space group: C 2/C
;
_chemical_formula_sum "Si O2"
_cell_formula_units_Z 44
_cell_length_a 6.110393
_cell_length_b 26.087537
_cell_length_c 14.016878
_cell_angle_alpha 90.000000
_cell_angle_beta 87.996837
_cell_angle_gamma 90.000000
_cell_volume 2232.996467
_symmetry_space_group_name_H-M "C 2/C"
_symmetry_group_IT_number 15
_symmetry_cell_setting 'monoclinic'
loop_
_space_group_symop_operation_xyz
x,y,z
-x,y,1/2-z
-x,-y,-z
x,-y,1/2+z
1/2+x,1/2+y,z
1/2-x,1/2+y,1/2-z
1/2-x,1/2-y,-z
1/2+x,1/2-y,1/2+z
loop_
_atom_site_type_symbol
_atom_site_label
_atom_site_fract_x
_atom_site_fract_y
_atom_site_fract_z
Si Si1 0.706059 0.144591 0.884144
Si Si2 0.693969 0.828972 0.970366
Si Si3 0.944635 0.237540 0.923343
Si Si4 0.006533 0.084263 0.466497
Si Si5 0.500000 0.067641 0.750000
Si Si6 0.693814 0.995923 0.075001
O O1 0.823873 0.198098 0.853862
O O2 0.669547 0.106048 0.798251
O O3 0.477263 0.153352 0.944644
O O4 0.856560 0.117147 0.959958
O O5 0.560162 0.791941 0.899993
O O6 0.829954 0.876382 0.924104
O O7 0.871509 0.794417 0.023011
O O8 0.750000 0.250000 0.000000
O O9 0.865705 0.043259 0.526799
O O10 0.183137 0.049846 0.407201
O O11 0.396742 0.031141 0.830332
O O12 0.500000 0.000000 0.000000
#
# Coordination Sequence:
#
# PCOD9262489 Si02
#       6
#     8   8   8   8   4   8
#     4  10  19  33  52  84 121 153 192 249 315 365
#     4   9  15  31  52  81 117 142 192 248 295 371
#     4   8  16  28  51  80 118 138 188 237 305 373
#     4  10  19  35  56  77 121 155 205 249 300 371
#     4  12  22  36  56  80 132 158 206 266 310 364
#     4  11  22  38  52  81 123 159 207 253 305 375
#
# _framework density 19.704463000000001
#
# number of rings (size 3 to 8) (size 9 to 14) (size 15 to 20)
#    0.000    2.182    3.636    0.000    0.000    0.727 
#    0.000    0.000    0.000    0.000    0.000    0.000 
#  452.727    0.000    0.000    0.182    0.000    1.636 
#
# Total GULP energy -122486.509066 kJ/mol
# GULP energy per Si atom -5567.568594 kJ/mol
# Density = 1.965961 g / cm^3
# Si number density = 19.704463 Si / 1000 Ang^3
#
#
#
# Elastic Constant Matrix: (Units=GPa)
#
#
# Indices 1 2 3 4 5 6 
#
# 1 118.3304 62.0486 29.7066 0.0000 -7.2403 0.0000
# 2 62.0486 150.6357 44.9930 0.0000 0.3846 0.0000
# 3 29.7066 44.9930 55.9686 0.0000 -2.4672 0.0000
# 4 0.0000 0.0000 0.0000 19.0491 0.0000 3.0092
# 5 -7.2403 0.3846 -2.4672 0.0000 6.6073 0.0000
# 6 0.0000 0.0000 0.0000 3.0092 0.0000 74.2489
#
#
#
# Elastic Compliance Matrix: (Units=1/GPa)
#
#
# Indices 1 2 3 4 5 6 
#
# 1 0.012072 -0.004286 -0.002408 0.000000 0.012579 0.000000
# 2 -0.004286 0.010324 -0.006363 0.000000 -0.007673 0.000000
# 3 -0.002408 -0.006363 0.024565 0.000000 0.006904 0.000000
# 4 0.000000 0.000000 0.000000 0.052834 0.000000 -0.002141
# 5 0.012579 -0.007673 0.006904 0.000000 0.168157 0.000000
# 6 0.000000 0.000000 0.000000 -0.002141 0.000000 0.013555
#
#
# Mechanical properties :
#
#
# Convention : Reuss Voigt Hill
#
# Bulk Modulus (GPa) = 47.96624 66.49234 57.22929
# Shear Modulus (GPa) = 15.89472 32.52683 24.21077
#
# Velocity S-wave (km/s) = 2.84325 4.06733 3.50908
# Velocity P-wave (km/s) = 5.93080 7.47500 6.74722
#
# Compressibility (1/GPa) = 0.02084800
#
# Stress axis : x y z
#
# Youngs Moduli (GPa) = 82.83381 96.86204 40.70872
#
# Poissons Ratio (x) = 0.41512 0.09802
# Poissons Ratio (y) = 0.35500 0.25903
# Poissons Ratio (z) = 0.19946 0.61633
#
# Static dielectric constant tensor:
#      x y z
#    x 1.747980 0.000000 -0.005050 
#    y 0.000000 1.743710 0.000000 
#    z -0.005050 0.000000 1.642080 
# 
# From -- ./inp_files/129788.got.cif
#   From: 2010.05.17/outbox.cif.g08.bks.cpg/sg15_65_cif.got.tgz:129788.got - 2010.06.03 18:47:42.
