data_PCOD9262997
_publ_section_title
;
Structure prediction by ZEFSAII (Michael W. Deem and Ramdas Pophale) SiO2 
 PCOD9262997
Probable space group: C 2/C
;
_chemical_formula_sum "Si O2"
_cell_formula_units_Z 64
_cell_length_a 13.885073
_cell_length_b 27.436554
_cell_length_c 10.149421
_cell_angle_alpha 90.000000
_cell_angle_beta 70.510006
_cell_angle_gamma 90.000000
_cell_volume 3644.956926
_symmetry_space_group_name_H-M "C 2/C"
_symmetry_group_IT_number 15
_symmetry_cell_setting 'monoclinic'
loop_
_space_group_symop_operation_xyz
x,y,z
-x,y,1/2-z
-x,-y,-z
x,-y,1/2+z
1/2+x,1/2+y,z
1/2-x,1/2+y,1/2-z
1/2-x,1/2-y,-z
1/2+x,1/2-y,1/2+z
loop_
_atom_site_type_symbol
_atom_site_label
_atom_site_fract_x
_atom_site_fract_y
_atom_site_fract_z
Si Si1 0.633408 0.229343 0.321148
Si Si2 0.623694 0.954728 0.845580
Si Si3 0.383382 0.954100 0.959828
Si Si4 0.252622 0.861050 0.102232
Si Si5 0.602860 0.770657 0.526606
Si Si6 0.731565 0.636822 0.163306
Si Si7 0.650913 0.663575 0.914672
Si Si8 0.409120 0.337207 0.546927
O O1 0.516881 0.216347 0.412857
O O2 0.633388 0.240397 0.164553
O O3 0.702759 0.183323 0.319547
O O4 0.664602 0.278299 0.383585
O O5 0.503842 0.941129 0.916543
O O6 0.636918 0.966472 0.684345
O O7 0.698881 0.910755 0.848710
O O8 0.639671 0.000813 0.933412
O O9 0.316833 0.908034 0.032092
O O10 0.206767 0.862729 0.268662
O O11 0.327141 0.814317 0.054917
O O12 0.159290 0.855033 0.043390
O O13 0.610234 0.721249 0.439357
O O14 0.633260 0.637032 0.303588
O O15 0.697110 0.645947 0.030460
O O16 0.528904 0.655363 0.968597
#
# Coordination Sequence:
#
# PCOD9262997 Si02
#       8
#     8   8   8   8   8   8   8   8
#     4  10  19  35  55  86 119 151 191 236 282 339
#     4  10  22  41  64  91 117 143 183 233 293 349
#     4  10  22  40  65  92 115 144 182 234 293 348
#     4  12  20  37  61  87 110 153 199 234 281 338
#     4  10  19  33  59  86 114 150 198 236 275 340
#     4  12  22  38  59  83 117 155 190 233 290 340
#     4  11  25  35  53  86 121 155 192 237 276 327
#     4  11  21  38  58  80 114 159 197 232 273 329
#
# _framework density 17.558506999999999
#
# number of rings (size 3 to 8) (size 9 to 14) (size 15 to 20)
#    0.000    1.250    3.750    3.000    1.750    2.000 
#    0.000    3.125    0.000    4.500    0.000    0.000 
#    0.000    0.000    0.000    0.000    0.000    0.000 
#
# Total GULP energy -178801.732180 kJ/mol
# GULP energy per Si atom -5587.554131 kJ/mol
# Density = 1.751854 g / cm^3
# Si number density = 17.558507 Si / 1000 Ang^3
#
#
#
# Elastic Constant Matrix: (Units=GPa)
#
#
# Indices 1 2 3 4 5 6 
#
# 1 69.5636 57.0795 45.7858 0.0000 -6.2553 0.0000
# 2 57.0795 90.0928 56.5203 0.0000 -11.5383 0.0000
# 3 45.7858 56.5203 135.9509 0.0000 -3.3036 0.0000
# 4 0.0000 0.0000 0.0000 21.5437 0.0000 -9.0324
# 5 -6.2553 -11.5383 -3.3036 0.0000 28.2679 0.0000
# 6 0.0000 0.0000 0.0000 -9.0324 0.0000 24.9648
#
#
#
# Elastic Compliance Matrix: (Units=1/GPa)
#
#
# Indices 1 2 3 4 5 6 
#
# 1 0.030871 -0.017753 -0.003035 0.000000 -0.000770 0.000000
# 2 -0.017753 0.026101 -0.004722 0.000000 0.006173 0.000000
# 3 -0.003035 -0.004722 0.010307 0.000000 -0.001394 0.000000
# 4 0.000000 0.000000 0.000000 0.054717 0.000000 0.019797
# 5 -0.000770 0.006173 -0.001394 0.000000 0.037562 0.000000
# 6 0.000000 0.000000 0.000000 0.019797 0.000000 0.047219
#
#
# Mechanical properties :
#
#
# Convention : Reuss Voigt Hill
#
# Bulk Modulus (GPa) = 61.50778 68.26426 64.88602
# Shear Modulus (GPa) = 18.99578 24.03672 21.51625
#
# Velocity S-wave (km/s) = 3.29273 3.70395 3.50437
# Velocity P-wave (km/s) = 7.04005 7.56669 7.30812
#
# Compressibility (1/GPa) = 0.01625811
#
# Stress axis : x y z
#
# Youngs Moduli (GPa) = 32.39313 38.31338 97.02275
#
# Poissons Ratio (x) = 0.68019 0.29443
# Poissons Ratio (y) = 0.57509 0.45815
# Poissons Ratio (z) = 0.09830 0.18092
#
# Static dielectric constant tensor:
#      x y z
#    x 1.592520 0.000000 -0.010590 
#    y 0.000000 1.569100 0.000000 
#    z -0.010590 0.000000 1.600330 
# 
# From -- ./inp_files/43500.got.cif
#   From: 2010.05.17/outbox.cif.g08.bks.cpg/sg15_22_cif.got.tgz:43500.got - 2010.06.03 18:47:42.
