data_PCOD9262899
_publ_section_title
;
Structure prediction by ZEFSAII (Michael W. Deem and Ramdas Pophale) SiO2 
 PCOD9262899
Probable space group: C 2/C
;
_chemical_formula_sum "Si O2"
_cell_formula_units_Z 44
_cell_length_a 24.380124
_cell_length_b 17.716375
_cell_length_c 5.352744
_cell_angle_alpha 90.000000
_cell_angle_beta 77.316208
_cell_angle_gamma 90.000000
_cell_volume 2255.576538
_symmetry_space_group_name_H-M "C 2/C"
_symmetry_group_IT_number 15
_symmetry_cell_setting 'monoclinic'
loop_
_space_group_symop_operation_xyz
x,y,z
-x,y,1/2-z
-x,-y,-z
x,-y,1/2+z
1/2+x,1/2+y,z
1/2-x,1/2+y,1/2-z
1/2-x,1/2-y,-z
1/2+x,1/2-y,1/2+z
loop_
_atom_site_type_symbol
_atom_site_label
_atom_site_fract_x
_atom_site_fract_y
_atom_site_fract_z
Si Si1 0.812372 0.168833 0.937604
Si Si2 0.000000 0.449003 0.250000
Si Si3 0.813887 0.352117 0.936106
Si Si4 0.880487 0.823831 0.869481
Si Si5 0.935884 0.031769 0.314128
Si Si6 0.883464 0.643226 0.866523
O O1 0.809557 0.260685 0.940437
O O2 0.845448 0.154273 0.649926
O O3 0.752025 0.128027 0.997974
O O4 0.845458 0.154269 0.159087
O O5 0.056753 0.398613 0.193252
O O6 0.000000 0.500000 0.500000
O O7 0.847568 0.375111 0.652541
O O8 0.847569 0.375113 0.152302
O O9 0.933899 0.878173 0.816094
O O10 0.892003 0.734435 0.857971
O O11 0.000000 0.003230 0.250000
O O12 0.908674 0.000005 0.591347
#
# Coordination Sequence:
#
# PCOD9262899 Si02
#       6
#     8   4   8   8   8   8
#     4   9  17  30  54  86 115 143 174 230 285 320
#     4  12  26  44  62  82 114 152 188 240 304 348
#     4   9  17  33  55  85 115 138 182 227 281 339
#     4  10  19  33  57  86 112 143 187 232 268 321
#     4  10  21  36  53  75 110 154 182 213 265 318
#     4  10  21  36  60  85 106 145 187 235 276 328
#
# _framework density 19.507207999999999
#
# number of rings (size 3 to 8) (size 9 to 14) (size 15 to 20)
#    0.000    2.182    0.000    3.273    1.273    4.364 
#    0.000    0.000    0.000   21.818    0.000    0.000 
#    0.000    0.000    0.000    0.000    0.000    0.000 
#
# Total GULP energy -122581.718072 kJ/mol
# GULP energy per Si atom -5571.896276 kJ/mol
# Density = 1.946281 g / cm^3
# Si number density = 19.507208 Si / 1000 Ang^3
#
#
#
# Elastic Constant Matrix: (Units=GPa)
#
#
# Indices 1 2 3 4 5 6 
#
# 1 121.8481 44.9820 86.7215 0.0000 -3.3369 0.0000
# 2 44.9820 58.2537 43.9665 0.0000 -0.3852 0.0000
# 3 86.7215 43.9665 191.7186 0.0000 29.7230 0.0000
# 4 0.0000 0.0000 0.0000 33.8814 0.0000 7.6229
# 5 -3.3369 -0.3852 29.7230 0.0000 25.6524 0.0000
# 6 0.0000 0.0000 0.0000 7.6229 0.0000 13.6796
#
#
#
# Elastic Compliance Matrix: (Units=1/GPa)
#
#
# Indices 1 2 3 4 5 6 
#
# 1 0.016381 -0.006936 -0.007477 0.000000 0.010690 0.000000
# 2 -0.006936 0.024815 -0.003013 0.000000 0.002961 0.000000
# 3 -0.007477 -0.003013 0.011515 0.000000 -0.014360 0.000000
# 4 0.000000 0.000000 0.000000 0.033745 0.000000 -0.018804
# 5 0.010690 0.002961 -0.014360 0.000000 0.057057 0.000000
# 6 0.000000 0.000000 0.000000 -0.018804 0.000000 0.083580
#
#
# Mechanical properties :
#
#
# Convention : Reuss Voigt Hill
#
# Bulk Modulus (GPa) = 55.98538 80.35115 68.16826
# Shear Modulus (GPa) = 18.66385 27.71939 23.19162
#
# Velocity S-wave (km/s) = 3.09652 3.77368 3.45175
# Velocity P-wave (km/s) = 6.44568 7.76321 7.13492
#
# Compressibility (1/GPa) = 0.01786181
#
# Stress axis : x y z
#
# Youngs Moduli (GPa) = 61.04511 40.29798 86.84197
#
# Poissons Ratio (x) = 0.27949 0.64929
# Poissons Ratio (y) = 0.42338 0.26163
# Poissons Ratio (z) = 0.45641 0.12140
#
# Static dielectric constant tensor:
#      x y z
#    x 1.689240 0.000000 0.002620 
#    y 0.000000 1.670840 0.000000 
#    z 0.002620 0.000000 1.696150 
# 
# From -- ./inp_files/12884.got.cif
#   From: 2010.05.17/outbox.cif.g08.bks.cpg/sg15_7_cif.got.tgz:12884.got - 2010.06.03 18:47:42.
