data_PCOD9262091
_publ_section_title
;
Structure prediction by ZEFSAII (Michael W. Deem and Ramdas Pophale) SiO2 
 PCOD9262091
Probable space group: C 2/C
;
_chemical_formula_sum "Si O2"
_cell_formula_units_Z 60
_cell_length_a 9.466531
_cell_length_b 10.030325
_cell_length_c 30.479913
_cell_angle_alpha 90.000000
_cell_angle_beta 109.199744
_cell_angle_gamma 90.000000
_cell_volume 2733.162020
_symmetry_space_group_name_H-M "C 2/C"
_symmetry_group_IT_number 15
_symmetry_cell_setting 'monoclinic'
loop_
_space_group_symop_operation_xyz
x,y,z
-x,y,1/2-z
-x,-y,-z
x,-y,1/2+z
1/2+x,1/2+y,z
1/2-x,1/2+y,1/2-z
1/2-x,1/2-y,-z
1/2+x,1/2-y,1/2+z
loop_
_atom_site_type_symbol
_atom_site_label
_atom_site_fract_x
_atom_site_fract_y
_atom_site_fract_z
Si Si1 0.924761 0.707019 0.324135
Si Si2 0.167253 0.862920 0.388296
Si Si3 0.691478 0.092217 0.841007
Si Si4 0.127594 0.340596 0.961890
Si Si5 0.500000 0.935975 0.750000
Si Si6 0.007530 0.452111 0.106647
Si Si7 0.594690 0.294497 0.005186
Si Si8 0.055956 0.020913 0.077283
O O1 0.793322 0.791372 0.332544
O O2 0.947592 0.577073 0.357287
O O3 0.067160 0.808659 0.337904
O O4 0.902041 0.653752 0.272894
O O5 0.139058 0.741484 0.418452
O O6 0.084506 0.981277 0.406389
O O7 0.337972 0.894926 0.395812
O O8 0.801430 0.985058 0.876262
O O9 0.601709 0.024259 0.792525
O O10 0.582437 0.141257 0.868874
O O11 0.106969 0.491409 0.942151
O O12 0.982139 0.325832 0.977079
O O13 0.250000 0.250000 0.000000
O O14 0.586863 0.407967 0.042848
O O15 0.750000 0.250000 0.000000
O O16 0.490037 0.351187 0.955462
#
# Coordination Sequence:
#
# PCOD9262091 Si02
#       8
#     8   8   8   8   4   8   8   8
#     4   9  21  41  60  83 113 145 184 231 289 350
#     4   9  19  36  56  77 112 154 191 236 287 342
#     4  10  21  40  62  85 116 150 190 240 289 347
#     4  10  20  32  49  80 117 153 195 240 289 341
#     4  10  22  40  64  88 118 148 184 244 300 348
#     4  10  20  37  59  83 114 153 193 237 287 342
#     4  10  19  32  53  80 113 152 193 236 280 334
#     4   9  19  35  53  79 114 151 190 234 285 338
#
# _framework density 21.952596
#
# number of rings (size 3 to 8) (size 9 to 14) (size 15 to 20)
#    0.000    2.400    0.000    2.400    0.000    3.733 
#    0.000   12.000    0.000    0.000    0.000    0.000 
#    0.000    0.000    0.000    0.000    0.000    0.000 
#
# Total GULP energy -167233.204100 kJ/mol
# GULP energy per Si atom -5574.440137 kJ/mol
# Density = 2.190263 g / cm^3
# Si number density = 21.952596 Si / 1000 Ang^3
#
#
#
# Elastic Constant Matrix: (Units=GPa)
#
#
# Indices 1 2 3 4 5 6 
#
# 1 137.6971 19.2221 21.9263 0.0000 -17.7071 0.0000
# 2 19.2221 41.8466 17.8111 0.0000 -7.8777 0.0000
# 3 21.9263 17.8111 102.9435 0.0000 5.0013 0.0000
# 4 0.0000 0.0000 0.0000 19.5175 0.0000 -4.6106
# 5 -17.7071 -7.8777 5.0013 0.0000 29.8550 0.0000
# 6 0.0000 0.0000 0.0000 -4.6106 0.0000 32.6408
#
#
#
# Elastic Compliance Matrix: (Units=1/GPa)
#
#
# Indices 1 2 3 4 5 6 
#
# 1 0.008444 -0.002307 -0.001626 0.000000 0.004672 0.000000
# 2 -0.002307 0.028267 -0.004734 0.000000 0.006883 0.000000
# 3 -0.001626 -0.004734 0.011077 0.000000 -0.004069 0.000000
# 4 0.000000 0.000000 0.000000 0.053005 0.000000 0.007487
# 5 0.004672 0.006883 -0.004069 0.000000 0.038764 0.000000
# 6 0.000000 0.000000 0.000000 0.007487 0.000000 0.031694
#
#
# Mechanical properties :
#
#
# Convention : Reuss Voigt Hill
#
# Bulk Modulus (GPa) = 32.83624 44.48956 38.66290
# Shear Modulus (GPa) = 25.15886 31.30453 28.23170
#
# Velocity S-wave (km/s) = 3.38901 3.78035 3.59002
# Velocity P-wave (km/s) = 5.50492 6.27414 5.90208
#
# Compressibility (1/GPa) = 0.03045416
#
# Stress axis : x y z
#
# Youngs Moduli (GPa) = 118.42539 35.37674 90.27561
#
# Poissons Ratio (x) = 0.08162 0.14682
# Poissons Ratio (y) = 0.27321 0.42734
# Poissons Ratio (z) = 0.19260 0.16746
#
# Static dielectric constant tensor:
#      x y z
#    x 1.862710 0.000000 0.080510 
#    y 0.000000 1.854230 0.000000 
#    z 0.080510 0.000000 1.905960 
# 
# From -- ./inp_files/307526.got.cif
#   From: 2010.05.17/outbox.cif.g08.bks.cpg/sg15_154_cif.got.tgz:307526.got - 2010.06.03 18:47:42.
