data_PCOD9262299
_publ_section_title
;
Structure prediction by ZEFSAII (Michael W. Deem and Ramdas Pophale) SiO2 
 PCOD9262299
Probable space group: C 2/C
;
_chemical_formula_sum "Si O2"
_cell_formula_units_Z 48
_cell_length_a 11.690263
_cell_length_b 11.513669
_cell_length_c 18.652594
_cell_angle_alpha 90.000000
_cell_angle_beta 126.100098
_cell_angle_gamma 90.000000
_cell_volume 2028.535633
_symmetry_space_group_name_H-M "C 2/C"
_symmetry_group_IT_number 15
_symmetry_cell_setting 'monoclinic'
loop_
_space_group_symop_operation_xyz
x,y,z
-x,y,1/2-z
-x,-y,-z
x,-y,1/2+z
1/2+x,1/2+y,z
1/2-x,1/2+y,1/2-z
1/2-x,1/2-y,-z
1/2+x,1/2-y,1/2+z
loop_
_atom_site_type_symbol
_atom_site_label
_atom_site_fract_x
_atom_site_fract_y
_atom_site_fract_z
Si Si1 0.609247 0.535852 0.103686
Si Si2 0.220543 0.250511 0.904116
Si Si3 0.788035 0.622305 0.598389
Si Si4 0.612031 0.649307 0.396327
Si Si5 0.990959 0.568576 0.165447
Si Si6 0.844333 0.496489 0.404845
O O1 0.693391 0.649569 0.107230
O O2 0.712847 0.424833 0.141741
O O3 0.525121 0.569779 0.143833
O O4 0.500000 0.500000 0.000000
O O5 0.058746 0.298186 0.846218
O O6 0.271759 0.129305 0.889425
O O7 0.250000 0.250000 0.000000
O O8 0.667147 0.666124 0.498760
O O9 0.902281 0.723852 0.642590
O O10 0.859408 0.509235 0.588632
O O11 0.735198 0.586274 0.398936
O O12 0.000000 0.525382 0.250000
O O13 0.120880 0.539270 0.162931
O O14 0.000000 0.500000 0.500000
#
# Coordination Sequence:
#
# PCOD9262299 Si02
#       6
#     8   8   8   8   8   8
#     4   9  18  29  52  87 121 146 189 257 308 356
#     4  11  21  38  67  94 121 165 218 266 319 384
#     4   9  18  34  57  85 119 155 196 247 312 371
#     4  10  19  32  58  92 115 149 203 257 306 366
#     4  11  24  43  62  89 130 170 211 267 334 387
#     4  12  22  37  65  93 123 163 213 266 319 391
#
# _framework density 23.662386999999999
#
# number of rings (size 3 to 8) (size 9 to 14) (size 15 to 20)
#    0.000    1.667    3.333    3.000    4.667    1.333 
#    3.000    0.000    0.000    0.000    0.000    0.000 
#    0.000    0.000    0.000    0.000    0.000    0.000 
#
# Total GULP energy -133810.752831 kJ/mol
# GULP energy per Si atom -5575.448035 kJ/mol
# Density = 2.360853 g / cm^3
# Si number density = 23.662387 Si / 1000 Ang^3
#
#
#
# Elastic Constant Matrix: (Units=GPa)
#
#
# Indices 1 2 3 4 5 6 
#
# 1 176.5195 73.1547 22.1940 0.0000 -48.9643 0.0000
# 2 73.1547 147.0595 6.8882 0.0000 -21.6456 0.0000
# 3 22.1940 6.8882 60.5407 0.0000 -21.2208 0.0000
# 4 0.0000 0.0000 0.0000 11.5982 0.0000 -7.0718
# 5 -48.9643 -21.6456 -21.2208 0.0000 31.7291 0.0000
# 6 0.0000 0.0000 0.0000 -7.0718 0.0000 55.9299
#
#
#
# Elastic Compliance Matrix: (Units=1/GPa)
#
#
# Indices 1 2 3 4 5 6 
#
# 1 0.011426 -0.003315 0.002059 0.000000 0.016748 0.000000
# 2 -0.003315 0.008592 0.000652 0.000000 0.001182 0.000000
# 3 0.002059 0.000652 0.022152 0.000000 0.018437 0.000000
# 4 0.000000 0.000000 0.000000 0.093423 0.000000 0.011812
# 5 0.016748 0.001182 0.018437 0.000000 0.070499 0.000000
# 6 0.000000 0.000000 0.000000 0.011812 0.000000 0.019373
#
#
# Mechanical properties :
#
#
# Convention : Reuss Voigt Hill
#
# Bulk Modulus (GPa) = 24.41320 65.39928 44.90624
# Shear Modulus (GPa) = 20.80501 38.64363 29.72432
#
# Velocity S-wave (km/s) = 2.96842 4.04558 3.54811
# Velocity P-wave (km/s) = 4.69983 7.03710 5.98369
#
# Compressibility (1/GPa) = 0.04096145
#
# Stress axis : x y z
#
# Youngs Moduli (GPa) = 87.52232 116.38071 45.14363
#
# Poissons Ratio (x) = 0.38581 -0.09295
# Poissons Ratio (y) = 0.29014 -0.02943
# Poissons Ratio (z) = -0.18021 -0.07588
#
# Static dielectric constant tensor:
#      x y z
#    x 1.956810 0.000000 0.057480 
#    y 0.000000 2.044840 0.000000 
#    z 0.057480 0.000000 1.979730 
# 
# From -- ./inp_files/196576.got.cif
#   From: 2010.05.17/outbox.cif.g08.bks.cpg/sg15_99_cif.got.tgz:196576.got - 2010.06.03 18:47:42.
