data_PCOD9262900
_publ_section_title
;
Structure prediction by ZEFSAII (Michael W. Deem and Ramdas Pophale) SiO2 
 PCOD9262900
Probable space group: C 2/C
;
_chemical_formula_sum "Si O2"
_cell_formula_units_Z 64
_cell_length_a 13.109613
_cell_length_b 23.123494
_cell_length_c 12.433820
_cell_angle_alpha 90.000000
_cell_angle_beta 111.976858
_cell_angle_gamma 90.000000
_cell_volume 3495.301115
_symmetry_space_group_name_H-M "C 2/C"
_symmetry_group_IT_number 15
_symmetry_cell_setting 'monoclinic'
loop_
_space_group_symop_operation_xyz
x,y,z
-x,y,1/2-z
-x,-y,-z
x,-y,1/2+z
1/2+x,1/2+y,z
1/2-x,1/2+y,1/2-z
1/2-x,1/2-y,-z
1/2+x,1/2-y,1/2+z
loop_
_atom_site_type_symbol
_atom_site_label
_atom_site_fract_x
_atom_site_fract_y
_atom_site_fract_z
Si Si1 0.828834 0.204403 0.976298
Si Si2 0.385449 0.615667 0.657937
Si Si3 0.316118 0.423476 0.517251
Si Si4 0.796502 0.998782 0.722251
Si Si5 0.286869 0.817057 0.291884
Si Si6 0.375546 0.933532 0.236633
Si Si7 0.569473 0.416608 0.569798
Si Si8 0.446659 0.289544 0.847720
O O1 0.793454 0.190313 0.841945
O O2 0.750000 0.250000 0.000000
O O3 0.817697 0.145140 0.038784
O O4 0.953827 0.224230 0.031871
O O5 0.500000 0.639050 0.750000
O O6 0.356797 0.559179 0.718420
O O7 0.287535 0.661162 0.638952
O O8 0.397248 0.595584 0.539816
O O9 0.300760 0.460158 0.617811
O O10 0.215648 0.433763 0.395286
O O11 0.440310 0.433962 0.522929
O O12 0.857834 0.964303 0.841072
O O13 0.673172 0.017282 0.704786
O O14 0.365961 0.870609 0.289703
O O15 0.352127 0.757412 0.327535
O O16 0.500000 0.943288 0.250000
O O17 0.583896 0.355963 0.640051
O O18 0.500000 0.283784 0.750000
#
# Coordination Sequence:
#
# PCOD9262900 Si02
#       8
#     8   8   8   8   8   8   8   8
#     4  10  19  33  57  86 113 143 186 244 289 331
#     4  11  22  38  58  83 120 158 190 239 293 352
#     4  10  21  36  57  88 115 146 191 244 294 338
#     4  11  22  37  61  88 115 150 195 244 294 347
#     4  10  22  37  57  85 114 153 196 234 291 349
#     4  10  22  38  57  82 116 157 194 234 287 357
#     4  11  22  37  60  90 118 145 193 247 303 344
#     4  11  20  35  60  87 115 147 191 246 288 340
#
# _framework density 18.310296999999998
#
# number of rings (size 3 to 8) (size 9 to 14) (size 15 to 20)
#    0.000    1.500    1.250    6.750    1.750    2.500 
#    0.000    0.000    0.000    0.750    0.000    0.000 
#    0.000    0.000    0.000    0.000    0.000    0.000 
#
# Total GULP energy -178695.173700 kJ/mol
# GULP energy per Si atom -5584.224178 kJ/mol
# Density = 1.826862 g / cm^3
# Si number density = 18.310297 Si / 1000 Ang^3
#
#
#
# Elastic Constant Matrix: (Units=GPa)
#
#
# Indices 1 2 3 4 5 6 
#
# 1 143.9159 57.5045 44.1367 0.0000 -4.1176 0.0000
# 2 57.5045 89.9947 33.0872 0.0000 3.8824 0.0000
# 3 44.1367 33.0872 63.0558 0.0000 -8.7560 0.0000
# 4 0.0000 0.0000 0.0000 29.8417 0.0000 -0.1809
# 5 -4.1176 3.8824 -8.7560 0.0000 29.9388 0.0000
# 6 0.0000 0.0000 0.0000 -0.1809 0.0000 24.4140
#
#
#
# Elastic Compliance Matrix: (Units=1/GPa)
#
#
# Indices 1 2 3 4 5 6 
#
# 1 0.010348 -0.004980 -0.004527 0.000000 0.000745 0.000000
# 2 -0.004980 0.016656 -0.005888 0.000000 -0.004567 0.000000
# 3 -0.004527 -0.005888 0.023074 0.000000 0.006889 0.000000
# 4 0.000000 0.000000 0.000000 0.033512 0.000000 0.000248
# 5 0.000745 -0.004567 0.006889 0.000000 0.036111 0.000000
# 6 0.000000 0.000000 0.000000 0.000248 0.000000 0.040962
#
#
# Mechanical properties :
#
#
# Convention : Reuss Voigt Hill
#
# Bulk Modulus (GPa) = 51.84552 62.93589 57.39071
# Shear Modulus (GPa) = 25.26781 27.65478 26.46130
#
# Velocity S-wave (km/s) = 3.71884 3.89053 3.80565
# Velocity P-wave (km/s) = 6.84223 7.39108 7.12194
#
# Compressibility (1/GPa) = 0.01928807
#
# Stress axis : x y z
#
# Youngs Moduli (GPa) = 96.63808 60.03968 43.33947
#
# Poissons Ratio (x) = 0.29900 0.19618
# Poissons Ratio (y) = 0.48126 0.25518
# Poissons Ratio (z) = 0.43743 0.35352
#
# Static dielectric constant tensor:
#      x y z
#    x 1.630660 0.000000 -0.009640 
#    y 0.000000 1.640040 0.000000 
#    z -0.009640 0.000000 1.647480 
# 
# From -- ./inp_files/91297.got.cif
#   From: 2010.05.17/outbox.cif.g08.bks.cpg/sg15_46_cif.got.tgz:91297.got - 2010.06.03 18:47:42.
