data_PCOD9262246
_publ_section_title
;
Structure prediction by ZEFSAII (Michael W. Deem and Ramdas Pophale) SiO2 
 PCOD9262246
Probable space group: C 2/C
;
_chemical_formula_sum "Si O2"
_cell_formula_units_Z 40
_cell_length_a 7.397674
_cell_length_b 24.510224
_cell_length_c 8.006696
_cell_angle_alpha 90.000000
_cell_angle_beta 83.595033
_cell_angle_gamma 90.000000
_cell_volume 1442.701744
_symmetry_space_group_name_H-M "C 2/C"
_symmetry_group_IT_number 15
_symmetry_cell_setting 'monoclinic'
loop_
_space_group_symop_operation_xyz
x,y,z
-x,y,1/2-z
-x,-y,-z
x,-y,1/2+z
1/2+x,1/2+y,z
1/2-x,1/2+y,1/2-z
1/2-x,1/2-y,-z
1/2+x,1/2-y,1/2+z
loop_
_atom_site_type_symbol
_atom_site_label
_atom_site_fract_x
_atom_site_fract_y
_atom_site_fract_z
Si Si1 0.306717 0.680883 0.177805
Si Si2 0.239622 0.911294 0.033050
Si Si3 0.833564 0.387901 0.509682
Si Si4 0.210470 0.284437 0.174855
Si Si5 0.216306 0.511870 0.678247
O O1 0.500000 0.684556 0.250000
O O2 0.338726 0.647764 0.004902
O O3 0.192946 0.641771 0.312035
O O4 0.219649 0.741334 0.192395
O O5 0.451680 0.896018 0.035801
O O6 0.213348 0.952907 0.880463
O O7 0.194660 0.950177 0.191354
O O8 0.746783 0.346352 0.382250
O O9 0.764208 0.448908 0.487006
O O10 0.000000 0.290636 0.250000
O O11 0.250000 0.250000 0.000000
O O12 0.000000 0.505764 0.750000
#
# Coordination Sequence:
#
# PCOD9262246 Si02
#       5
#     8   8   8   8   8
#     4  10  21  37  55  80 115 151 188 234 284 343
#     4  11  20  35  59  85 111 147 190 235 289 344
#     4  10  19  36  59  83 111 146 190 239 290 342
#     4   9  18  34  56  81 113 151 189 235 289 342
#     4  10  19  32  56  87 111 137 186 245 286 335
#
# _framework density 27.725757999999999
#
# number of rings (size 3 to 8) (size 9 to 14) (size 15 to 20)
#    0.000    2.000    0.000    7.200    0.000    0.000 
#    0.000   14.000    0.000    9.600    0.000    0.000 
#    0.000    0.000    0.000    0.000    0.000    0.000 
#
# Total GULP energy -111675.479403 kJ/mol
# GULP energy per Si atom -5583.773970 kJ/mol
# Density = 2.766265 g / cm^3
# Si number density = 27.725758 Si / 1000 Ang^3
#
#
#
# Elastic Constant Matrix: (Units=GPa)
#
#
# Indices 1 2 3 4 5 6 
#
# 1 75.1350 14.8421 19.2520 0.0000 -19.2506 0.0000
# 2 14.8421 217.8441 20.4075 0.0000 21.8576 0.0000
# 3 19.2520 20.4075 99.0120 0.0000 5.2503 0.0000
# 4 0.0000 0.0000 0.0000 45.9802 0.0000 13.4896
# 5 -19.2506 21.8576 5.2503 0.0000 40.1600 0.0000
# 6 0.0000 0.0000 0.0000 13.4896 0.0000 20.7238
#
#
#
# Elastic Compliance Matrix: (Units=1/GPa)
#
#
# Indices 1 2 3 4 5 6 
#
# 1 0.017000 -0.001797 -0.003443 0.000000 0.009577 0.000000
# 2 -0.001797 0.005120 -0.000516 0.000000 -0.003581 0.000000
# 3 -0.003443 -0.000516 0.011025 0.000000 -0.002811 0.000000
# 4 0.000000 0.000000 0.000000 0.026882 0.000000 -0.017498
# 5 0.009577 -0.003581 -0.002811 0.000000 0.031807 0.000000
# 6 0.000000 0.000000 0.000000 -0.017498 0.000000 0.059644
#
#
# Mechanical properties :
#
#
# Convention : Reuss Voigt Hill
#
# Bulk Modulus (GPa) = 46.22430 55.66604 50.94517
# Shear Modulus (GPa) = 29.37694 43.87211 36.62452
#
# Velocity S-wave (km/s) = 3.25861 3.98220 3.63844
# Velocity P-wave (km/s) = 5.55574 6.42377 6.00546
#
# Compressibility (1/GPa) = 0.02163364
#
# Stress axis : x y z
#
# Youngs Moduli (GPa) = 58.82257 195.29467 90.70539
#
# Poissons Ratio (x) = 0.35087 0.31231
# Poissons Ratio (y) = 0.10568 0.04682
# Poissons Ratio (z) = 0.20253 0.10081
#
# Static dielectric constant tensor:
#      x y z
#    x 2.191090 0.000000 0.033090 
#    y 0.000000 2.141870 0.000000 
#    z 0.033090 0.000000 2.318160 
# 
# From -- ./inp_files/23462.got.cif
#   From: 2010.05.17/outbox.cif.g08.bks.cpg/sg15_12_cif.got.tgz:23462.got - 2010.06.03 18:47:42.
