data_PCOD9262709
_publ_section_title
;
Structure prediction by ZEFSAII (Michael W. Deem and Ramdas Pophale) SiO2 
 PCOD9262709
Probable space group: C 2/C
;
_chemical_formula_sum "Si O2"
_cell_formula_units_Z 44
_cell_length_a 8.323498
_cell_length_b 19.698032
_cell_length_c 15.752316
_cell_angle_alpha 90.000000
_cell_angle_beta 58.098298
_cell_angle_gamma 90.000000
_cell_volume 2192.594449
_symmetry_space_group_name_H-M "C 2/C"
_symmetry_group_IT_number 15
_symmetry_cell_setting 'monoclinic'
loop_
_space_group_symop_operation_xyz
x,y,z
-x,y,1/2-z
-x,-y,-z
x,-y,1/2+z
1/2+x,1/2+y,z
1/2-x,1/2+y,1/2-z
1/2-x,1/2-y,-z
1/2+x,1/2-y,1/2+z
loop_
_atom_site_type_symbol
_atom_site_label
_atom_site_fract_x
_atom_site_fract_y
_atom_site_fract_z
Si Si1 0.205145 0.604838 0.614345
Si Si2 0.687304 0.139758 0.299196
Si Si3 0.000000 0.479023 0.750000
Si Si4 0.000000 0.250004 0.750000
Si Si5 0.566195 0.604834 0.114347
Si Si6 0.000000 0.020982 0.750000
Si Si7 0.785690 0.639764 0.700818
O O1 0.148138 0.529737 0.663737
O O2 0.368283 0.604326 0.499994
O O3 0.248953 0.646041 0.687798
O O4 0.010181 0.633671 0.628681
O O5 0.549590 0.200803 0.314366
O O6 0.767479 0.133662 0.371344
O O7 0.875476 0.146039 0.187818
O O8 0.589603 0.070182 0.295438
O O9 0.821662 0.200811 0.814361
O O10 0.524410 0.529732 0.163737
O O11 0.819512 0.070187 0.795438
#
# Coordination Sequence:
#
# PCOD9262709 Si02
#       7
#     8   8   4   4   8   4   8
#     4  10  19  33  55  81 107 132 165 215 265 306
#     4   9  20  36  54  77 102 139 178 206 251 309
#     4   9  18  33  54  81 108 133 170 208 252 313
#     4  10  20  42  58  64 104 146 172 222 254 284
#     4  10  19  33  55  81 107 132 165 215 265 306
#     4   9  18  33  54  81 108 133 170 208 252 313
#     4   9  20  36  54  77 102 139 178 206 251 309
#
# _framework density 20.067550000000001
#
# number of rings (size 3 to 8) (size 9 to 14) (size 15 to 20)
#    0.000    2.909    0.000    4.364    0.000    8.727 
#    0.000   10.909    0.000    0.000    0.000    0.000 
#    0.000    0.000    0.000    0.000    0.000    0.000 
#
# Total GULP energy -122708.455142 kJ/mol
# GULP energy per Si atom -5577.657052 kJ/mol
# Density = 2.002188 g / cm^3
# Si number density = 20.067550 Si / 1000 Ang^3
#
#
#
# Elastic Constant Matrix: (Units=GPa)
#
#
# Indices 1 2 3 4 5 6 
#
# 1 82.1004 38.9979 -4.3945 0.0000 11.0517 0.0000
# 2 38.9979 91.0991 -0.1024 0.0000 5.3995 0.0000
# 3 -4.3945 -0.1024 92.9334 0.0000 -12.5214 0.0000
# 4 0.0000 0.0000 0.0000 -1.8814 0.0000 3.9407
# 5 11.0517 5.3995 -12.5214 0.0000 6.5092 0.0000
# 6 0.0000 0.0000 0.0000 3.9407 0.0000 26.6381
#
#
#
# Elastic Compliance Matrix: (Units=1/GPa)
#
#
# Indices 1 2 3 4 5 6 
#
# 1 0.019826 -0.006364 -0.003906 0.000000 -0.035897 0.000000
# 2 -0.006364 0.013796 -0.000502 0.000000 -0.001604 0.000000
# 3 -0.003906 -0.000502 0.015557 0.000000 0.036974 0.000000
# 4 0.000000 0.000000 0.000000 -0.405779 0.000000 0.060029
# 5 -0.035897 -0.001604 0.036974 0.000000 0.287033 0.000000
# 6 0.000000 0.000000 0.000000 0.060029 0.000000 0.028660
#
#
# Mechanical properties :
#
#
# Convention : Reuss Voigt Hill
#
# Bulk Modulus (GPa) = 36.18596 37.23724 36.71160
# Shear Modulus (GPa) = -492.52930 21.69531 -235.41700
#
# Velocity S-wave (km/s) = -15.68338 3.29160 -10.84283
# Velocity P-wave (km/s) = 17.60360 5.74825 11.76530
#
# Compressibility (1/GPa) = 0.02763503
#
# Stress axis : x y z
#
# Youngs Moduli (GPa) = 50.43839 72.48535 64.28038
#
# Poissons Ratio (x) = 0.46130 0.25108
# Poissons Ratio (y) = 0.32099 0.03226
# Poissons Ratio (z) = 0.19701 0.03638
#
# Static dielectric constant tensor:
#      x y z
#    x 1.753330 0.000000 0.013440 
#    y 0.000000 1.732940 0.000000 
#    z 0.013440 0.000000 1.655970 
# 
# From -- ./inp_files/135400.got.cif
#   From: 2010.05.17/outbox.cif.g08.bks.cpg/sg15_68_cif.got.tgz:135400.got - 2010.06.03 18:47:42.
