data_PCOD9262211
_publ_section_title
;
Structure prediction by ZEFSAII (Michael W. Deem and Ramdas Pophale) SiO2 
 PCOD9262211
Probable space group: C 2/C
;
_chemical_formula_sum "Si O2"
_cell_formula_units_Z 56
_cell_length_a 21.360063
_cell_length_b 23.819723
_cell_length_c 14.127050
_cell_angle_alpha 90.000000
_cell_angle_beta 24.058218
_cell_angle_gamma 90.000000
_cell_volume 2930.176675
_symmetry_space_group_name_H-M "C 2/C"
_symmetry_group_IT_number 15
_symmetry_cell_setting 'monoclinic'
loop_
_space_group_symop_operation_xyz
x,y,z
-x,y,1/2-z
-x,-y,-z
x,-y,1/2+z
1/2+x,1/2+y,z
1/2-x,1/2+y,1/2-z
1/2-x,1/2-y,-z
1/2+x,1/2-y,1/2+z
loop_
_atom_site_type_symbol
_atom_site_label
_atom_site_fract_x
_atom_site_fract_y
_atom_site_fract_z
Si Si1 0.825463 0.448944 0.113666
Si Si2 0.746817 0.732564 0.363546
Si Si3 0.073064 0.623269 0.359638
Si Si4 0.657159 0.463155 0.538045
Si Si5 0.981043 0.560609 0.671165
Si Si6 0.338717 0.576085 0.856664
Si Si7 0.455345 0.693775 0.676449
O O1 0.720513 0.471083 0.344497
O O2 0.730618 0.438099 0.150108
O O3 0.914796 0.393315 0.026007
O O4 0.954748 0.496765 0.918815
O O5 0.882713 0.686879 0.180697
O O6 0.625091 0.721055 0.447461
O O7 0.639196 0.719170 0.603517
O O8 0.839659 0.790315 0.250281
O O9 0.068817 0.591519 0.465560
O O10 0.204984 0.600823 0.108014
O O11 0.500000 0.428563 0.750000
O O12 0.802184 0.438060 0.392344
O O13 0.615108 0.518798 0.656009
O O14 0.000000 0.583633 0.750000
O O15 0.462143 0.626378 0.678392
#
# Coordination Sequence:
#
# PCOD9262211 Si02
#       7
#     8   8   8   8   8   8   8
#     4  11  20  35  54  81 105 155 192 221 276 343
#     4   9  19  35  50  79 108 144 174 228 282 331
#     4  10  19  32  56  76 108 146 185 231 275 327
#     4  11  23  35  51  77 116 149 182 235 279 315
#     4  11  19  37  55  78 105 151 195 226 268 344
#     4  11  20  32  55  80 110 147 191 223 277 330
#     4   9  20  32  52  78 113 141 179 223 280 338
#
# _framework density 19.111476
#
# number of rings (size 3 to 8) (size 9 to 14) (size 15 to 20)
#    0.000    1.714    4.286    1.286    6.000    0.571 
#    2.571    0.000    0.000    0.000    0.000    2.000 
#    0.000    0.000    0.000    0.000    0.000    0.000 
#
# Total GULP energy -156014.502009 kJ/mol
# GULP energy per Si atom -5571.946500 kJ/mol
# Density = 1.906798 g / cm^3
# Si number density = 19.111476 Si / 1000 Ang^3
#
#
#
# Elastic Constant Matrix: (Units=GPa)
#
#
# Indices 1 2 3 4 5 6 
#
# 1 135.0780 13.4619 46.1757 -0.0097 3.0699 0.0084
# 2 13.4619 39.7265 9.8164 0.0010 -5.0742 0.0022
# 3 46.1757 9.8164 59.1021 0.0035 -12.2591 -0.0004
# 4 -0.0097 0.0010 0.0035 5.9422 0.0038 0.2409
# 5 3.0699 -5.0742 -12.2591 0.0038 25.1405 -0.0045
# 6 0.0084 0.0022 -0.0004 0.2409 -0.0045 9.2269
#
#
#
# Elastic Compliance Matrix: (Units=1/GPa)
#
#
# Indices 1 2 3 4 5 6 
#
# 1 0.011058 -0.002198 -0.009619 0.000029 -0.006485 -0.000014
# 2 -0.002198 0.026971 -0.001755 -0.000010 0.004856 -0.000002
# 3 -0.009619 -0.001755 0.027698 -0.000042 0.014327 0.000018
# 4 0.000029 -0.000010 -0.000042 0.168466 -0.000052 -0.004398
# 5 -0.006485 0.004856 0.014327 -0.000052 0.048535 0.000030
# 6 -0.000014 -0.000002 0.000018 -0.004398 0.000030 0.108493
#
#
# Mechanical properties :
#
#
# Convention : Reuss Voigt Hill
#
# Bulk Modulus (GPa) = 25.91859 41.42387 33.67123
# Shear Modulus (GPa) = 11.59482 19.02542 15.31012
#
# Velocity S-wave (km/s) = 2.46579 3.15857 2.83343
# Velocity P-wave (km/s) = 4.65812 5.91811 5.32551
#
# Compressibility (1/GPa) = 0.03858235
#
# Stress axis : x y z
#
# Youngs Moduli (GPa) = 90.43287 37.07690 36.10309
#
# Poissons Ratio (x) = 0.08151 0.34729
# Poissons Ratio (y) = 0.19881 0.06335
# Poissons Ratio (z) = 0.86990 0.06506
#
# Static dielectric constant tensor:
#      x y z
#    x 1.729890 -0.000010 -0.031520 
#    y -0.000010 1.708400 0.000010 
#    z -0.031520 0.000010 1.662140 
# 
# From -- ./inp_files/174734.got.cif
#   From: 2010.05.17/outbox.cif.g08.bks.cpg/sg15_88_cif.got.tgz:174734.got - 2010.06.03 18:47:42.
