data_PCOD9262348
_publ_section_title
;
Structure prediction by ZEFSAII (Michael W. Deem and Ramdas Pophale) SiO2 
 PCOD9262348
Probable space group: C 2/C
;
_chemical_formula_sum "Si O2"
_cell_formula_units_Z 48
_cell_length_a 24.151396
_cell_length_b 15.060880
_cell_length_c 11.245002
_cell_angle_alpha 90.000000
_cell_angle_beta 30.562952
_cell_angle_gamma 90.000000
_cell_volume 2079.840605
_symmetry_space_group_name_H-M "C 2/C"
_symmetry_group_IT_number 15
_symmetry_cell_setting 'monoclinic'
loop_
_space_group_symop_operation_xyz
x,y,z
-x,y,1/2-z
-x,-y,-z
x,-y,1/2+z
1/2+x,1/2+y,z
1/2-x,1/2+y,1/2-z
1/2-x,1/2-y,-z
1/2+x,1/2-y,1/2+z
loop_
_atom_site_type_symbol
_atom_site_label
_atom_site_fract_x
_atom_site_fract_y
_atom_site_fract_z
Si Si1 0.209057 0.788456 0.701425
Si Si2 0.204572 0.488265 0.920789
Si Si3 0.070248 0.062703 0.020495
Si Si4 0.027199 0.132579 0.855425
Si Si5 0.252988 0.205854 0.366455
Si Si6 0.111179 0.461479 0.847282
O O1 0.250000 0.750000 0.500000
O O2 0.263918 0.885414 0.616708
O O3 0.248942 0.740466 0.749527
O O4 0.077787 0.802925 0.947186
O O5 0.309271 0.535868 0.672222
O O6 0.122402 0.500251 0.961515
O O7 0.185929 0.521122 0.090799
O O8 0.000000 0.108167 0.250000
O O9 0.069943 0.125159 0.908968
O O10 0.011639 0.967664 0.102111
O O11 0.133444 0.156567 0.582361
O O12 0.250000 0.250000 0.500000
O O13 0.356497 0.140183 0.183529
O O14 0.000000 0.500000 0.000000
#
# Coordination Sequence:
#
# PCOD9262348 Si02
#       6
#     8   8   8   8   8   8
#     4  10  23  40  64  95 130 172 218 275 335 405
#     4  10  22  39  65  94 134 164 219 280 337 401
#     4  10  19  32  64  97 122 153 201 268 328 391
#     4  10  20  38  62  91 124 162 208 262 334 388
#     4  11  24  43  64  91 135 179 223 275 335 411
#     4  11  23  42  64  95 130 177 226 279 336 402
#
# _framework density 23.078692
#
# number of rings (size 3 to 8) (size 9 to 14) (size 15 to 20)
#    0.000    1.667    1.667    4.000    4.667    4.000 
#    0.000    3.333    0.000    0.000    0.000    0.000 
#    0.000    0.000    0.000    0.000    0.000    0.000 
#
# Total GULP energy -133629.242535 kJ/mol
# GULP energy per Si atom -5567.885106 kJ/mol
# Density = 2.302616 g / cm^3
# Si number density = 23.078692 Si / 1000 Ang^3
#
#
#
# Elastic Constant Matrix: (Units=GPa)
#
#
# Indices 1 2 3 4 5 6 
#
# 1 178.9959 38.3970 47.8620 0.0000 16.9200 0.0000
# 2 38.3970 44.2131 16.1931 0.0000 -2.7700 0.0000
# 3 47.8620 16.1931 88.9621 0.0000 7.8385 0.0000
# 4 0.0000 0.0000 0.0000 28.8849 0.0000 5.2992
# 5 16.9200 -2.7700 7.8385 0.0000 53.2031 0.0000
# 6 0.0000 0.0000 0.0000 5.2992 0.0000 24.8355
#
#
#
# Elastic Compliance Matrix: (Units=1/GPa)
#
#
# Indices 1 2 3 4 5 6 
#
# 1 0.007865 -0.005899 -0.002948 0.000000 -0.002374 0.000000
# 2 -0.005899 0.028857 -0.002408 0.000000 0.003733 0.000000
# 3 -0.002948 -0.002408 0.013367 0.000000 -0.001157 0.000000
# 4 0.000000 0.000000 0.000000 0.036031 0.000000 -0.007688
# 5 -0.002374 0.003733 -0.001157 0.000000 0.019916 0.000000
# 6 0.000000 0.000000 0.000000 -0.007688 0.000000 0.041905
#
#
# Mechanical properties :
#
#
# Convention : Reuss Voigt Hill
#
# Bulk Modulus (GPa) = 36.26060 57.45280 46.85670
# Shear Modulus (GPa) = 27.83286 35.36598 31.59942
#
# Velocity S-wave (km/s) = 3.47652 3.91885 3.70429
# Velocity P-wave (km/s) = 5.64453 6.73979 6.21633
#
# Compressibility (1/GPa) = 0.02757814
#
# Stress axis : x y z
#
# Youngs Moduli (GPa) = 127.14610 34.65413 74.80994
#
# Poissons Ratio (x) = 0.20443 0.22057
# Poissons Ratio (y) = 0.75006 0.18012
# Poissons Ratio (z) = 0.37488 0.08344
#
# Static dielectric constant tensor:
#      x y z
#    x 1.951240 0.000000 0.039560 
#    y 0.000000 1.834140 0.000000 
#    z 0.039560 0.000000 1.993760 
# 
# From -- ./inp_files/119363.got.cif
#   From: 2010.05.17/outbox.cif.g08.bks.cpg/sg15_60_cif.got.tgz:119363.got - 2010.06.03 18:47:42.
