data_PCOD9262704
_publ_section_title
;
Structure prediction by ZEFSAII (Michael W. Deem and Ramdas Pophale) SiO2 
 PCOD9262704
Probable space group: C 2/C
;
_chemical_formula_sum "Si O2"
_cell_formula_units_Z 40
_cell_length_a 13.390265
_cell_length_b 7.392705
_cell_length_c 17.551775
_cell_angle_alpha 90.000000
_cell_angle_beta 129.252029
_cell_angle_gamma 90.000000
_cell_volume 1345.433522
_symmetry_space_group_name_H-M "C 2/C"
_symmetry_group_IT_number 15
_symmetry_cell_setting 'monoclinic'
loop_
_space_group_symop_operation_xyz
x,y,z
-x,y,1/2-z
-x,-y,-z
x,-y,1/2+z
1/2+x,1/2+y,z
1/2-x,1/2+y,1/2-z
1/2-x,1/2-y,-z
1/2+x,1/2-y,1/2+z
loop_
_atom_site_type_symbol
_atom_site_label
_atom_site_fract_x
_atom_site_fract_y
_atom_site_fract_z
Si Si1 0.084927 0.798386 0.528762
Si Si2 0.862022 0.219078 0.142238
Si Si3 0.855724 0.168058 0.671331
Si Si4 0.490424 0.003127 0.879555
Si Si5 0.287396 0.577300 0.812596
O O1 0.239507 0.792353 0.589160
O O2 0.322585 0.604369 0.741865
O O3 0.092979 0.976227 0.588813
O O4 0.049710 0.642032 0.573119
O O5 0.889271 0.383375 0.097988
O O6 0.746820 0.262227 0.145119
O O7 0.000000 0.214155 0.250000
O O8 0.850158 0.009976 0.114400
O O9 0.000000 0.239349 0.750000
O O10 0.525882 0.196278 0.426478
O O11 0.358379 0.994490 0.765871
#
# Coordination Sequence:
#
# PCOD9262704 Si02
#       5
#     8   8   8   8   8
#     4  10  20  35  59  83 107 142 185 227 265 319
#     4   9  18  34  54  75 109 147 176 217 273 321
#     4  10  19  33  55  80 107 143 183 223 269 318
#     4   9  20  37  57  81 111 145 180 220 277 326
#     4  10  19  35  57  79 109 146 180 220 272 325
#
# _framework density 29.730194000000001
#
# number of rings (size 3 to 8) (size 9 to 14) (size 15 to 20)
#    0.000    2.400    0.000    4.800    0.000    4.000 
#    0.000    2.000    0.000   24.000    0.000    0.000 
#    0.000    0.000    0.000    0.000    0.000    0.000 
#
# Total GULP energy -111778.257876 kJ/mol
# GULP energy per Si atom -5588.912894 kJ/mol
# Density = 2.966253 g / cm^3
# Si number density = 29.730194 Si / 1000 Ang^3
#
#
#
# Elastic Constant Matrix: (Units=GPa)
#
#
# Indices 1 2 3 4 5 6 
#
# 1 74.3883 -368.3373 -350.1742 0.0000 -131.9412 0.0000
# 2 -368.3373-2007.3523-1957.4704 0.0000 -790.5821 0.0000
# 3 -350.1742-1957.4704-1619.1628 0.0000 -711.3340 0.0000
# 4 0.0000 0.0000 0.0000 112.5180 0.0000 43.6749
# 5 -131.9412 -790.5821 -711.3340 0.0000 -257.7285 0.0000
# 6 0.0000 0.0000 0.0000 43.6749 0.0000 99.1534
#
#
#
# Elastic Compliance Matrix: (Units=1/GPa)
#
#
# Indices 1 2 3 4 5 6 
#
# 1 0.007214 -0.000725 0.000180 0.000000 -0.001965 0.000000
# 2 -0.000725 0.003760 -0.002424 0.000000 -0.004472 0.000000
# 3 0.000180 -0.002424 0.004480 0.000000 -0.005022 0.000000
# 4 0.000000 0.000000 0.000000 0.010720 0.000000 -0.004722
# 5 -0.001965 -0.004472 -0.005022 0.000000 0.024706 0.000000
# 6 0.000000 0.000000 0.000000 -0.004722 0.000000 0.012165
#
#
# Mechanical properties :
#
#
# Convention : Reuss Voigt Hill
#
# Bulk Modulus (GPa) = 105.08959 -989.34340 -442.12690
# Shear Modulus (GPa) = 69.29542 -67.62110 0.83716
#
# Velocity S-wave (km/s) = 4.83308 -4.77434 0.53122
# Velocity P-wave (km/s) = 8.15901 19.07587 12.19261
#
# Compressibility (1/GPa) = 0.00951569
#
# Stress axis : x y z
#
# Youngs Moduli (GPa) = 138.62468 265.98021 223.20973
#
# Poissons Ratio (x) = 0.19288 -0.04018
# Poissons Ratio (y) = 0.10053 0.54100
# Poissons Ratio (z) = -0.02495 0.64467
#
# Static dielectric constant tensor:
#      x y z
#    x 2.408280 0.000000 -0.022560 
#    y 0.000000 2.833930 0.000000 
#    z -0.022560 0.000000 2.307420 
# 
# From -- ./inp_files/276431.got.cif
#   From: 2010.05.17/outbox.cif.g08.bks.cpg/sg15_139_cif.got.tgz:276431.got - 2010.06.03 18:47:42.
