data_PCOD9262286
_publ_section_title
;
Structure prediction by ZEFSAII (Michael W. Deem and Ramdas Pophale) SiO2 
 PCOD9262286
Probable space group: C 2/C
;
_chemical_formula_sum "Si O2"
_cell_formula_units_Z 64
_cell_length_a 17.292131
_cell_length_b 20.255071
_cell_length_c 9.109458
_cell_angle_alpha 90.000000
_cell_angle_beta 123.422586
_cell_angle_gamma 90.000000
_cell_volume 2662.988134
_symmetry_space_group_name_H-M "C 2/C"
_symmetry_group_IT_number 15
_symmetry_cell_setting 'monoclinic'
loop_
_space_group_symop_operation_xyz
x,y,z
-x,y,1/2-z
-x,-y,-z
x,-y,1/2+z
1/2+x,1/2+y,z
1/2-x,1/2+y,1/2-z
1/2-x,1/2-y,-z
1/2+x,1/2-y,1/2+z
loop_
_atom_site_type_symbol
_atom_site_label
_atom_site_fract_x
_atom_site_fract_y
_atom_site_fract_z
Si Si1 0.910731 0.068474 0.578951
Si Si2 0.488506 0.361286 0.583628
Si Si3 0.693543 0.648447 0.771471
Si Si4 0.706966 0.217947 0.166387
Si Si5 0.897943 0.729177 0.738397
Si Si6 0.619136 0.993155 0.887691
Si Si7 0.733320 0.934567 0.756186
Si Si8 0.398027 0.903036 0.383421
O O1 0.959520 0.109562 0.501202
O O2 0.853159 0.112463 0.637274
O O3 0.829527 0.031390 0.406820
O O4 0.000000 0.037063 0.750000
O O5 0.500000 0.397249 0.750000
O O6 0.379814 0.360059 0.437079
O O7 0.538608 0.291388 0.660895
O O8 0.689824 0.729144 0.780040
O O9 0.791982 0.615814 0.826470
O O10 0.796659 0.252046 0.190194
O O11 0.736794 0.143634 0.234569
O O12 0.626105 0.213972 0.957852
O O13 0.935173 0.667284 0.870294
O O14 0.589408 0.052183 0.748495
O O15 0.665179 0.944229 0.820534
O O16 0.692401 0.028931 0.072644
O O17 0.561765 0.947532 0.942086
#
# Coordination Sequence:
#
# PCOD9262286 Si02
#       8
#     8   8   8   8   8   8   8   8
#     4  10  22  37  52  77 117 151 184 229 289 347
#     4  11  21  34  57  82 116 155 186 228 303 347
#     4  10  21  36  57  87 118 148 185 242 298 355
#     4  10  19  32  58  84 112 138 191 240 304 342
#     4  10  19  33  55  90 111 147 189 244 293 354
#     4  10  22  34  57  82 111 154 194 240 283 332
#     4  11  20  38  55  77 109 148 189 241 279 336
#     4  10  20  37  58  86 119 146 201 243 283 350
#
# _framework density 24.033154
#
# number of rings (size 3 to 8) (size 9 to 14) (size 15 to 20)
#    0.000    1.750    5.000    0.000    1.750    1.500 
#    0.000    0.625    0.000    0.000    0.000    9.625 
#    0.000    0.000    0.000    0.000    0.000    0.000 
#
# Total GULP energy -178458.111661 kJ/mol
# GULP energy per Si atom -5576.815989 kJ/mol
# Density = 2.397845 g / cm^3
# Si number density = 24.033154 Si / 1000 Ang^3
#
#
#
# Elastic Constant Matrix: (Units=GPa)
#
#
# Indices 1 2 3 4 5 6 
#
# 1 91.9923 17.9818 22.1413 0.0000 -5.7083 0.0000
# 2 17.9818 136.2844 30.6687 0.0000 -19.9551 0.0000
# 3 22.1413 30.6687 118.6538 0.0000 -16.1921 0.0000
# 4 0.0000 0.0000 0.0000 0.5039 0.0000 8.6407
# 5 -5.7083 -19.9551 -16.1921 0.0000 29.8973 0.0000
# 6 0.0000 0.0000 0.0000 8.6407 0.0000 5.0382
#
#
#
# Elastic Compliance Matrix: (Units=1/GPa)
#
#
# Indices 1 2 3 4 5 6 
#
# 1 0.011543 -0.001037 -0.001814 0.000000 0.000529 0.000000
# 2 -0.001037 0.008470 -0.001351 0.000000 0.004724 0.000000
# 3 -0.001814 -0.001351 0.009659 0.000000 0.003983 0.000000
# 4 0.000000 0.000000 0.000000 -0.069856 0.000000 0.119805
# 5 0.000529 0.004724 0.003983 0.000000 0.038859 0.000000
# 6 0.000000 0.000000 0.000000 0.119805 0.000000 -0.006986
#
#
# Mechanical properties :
#
#
# Convention : Reuss Voigt Hill
#
# Bulk Modulus (GPa) = 47.01940 54.27932 50.64936
# Shear Modulus (GPa) = 696.22485 25.49714 360.86100
#
# Velocity S-wave (km/s) = 17.03885 3.26070 12.26692
# Velocity P-wave (km/s) = 20.16689 6.06716 14.89151
#
# Compressibility (1/GPa) = 0.02126782
#
# Stress axis : x y z
#
# Youngs Moduli (GPa) = 86.63573 118.06147 103.52945
#
# Poissons Ratio (x) = 0.12247 0.18775
# Poissons Ratio (y) = 0.08987 0.13988
# Poissons Ratio (z) = 0.15712 0.15951
#
# Static dielectric constant tensor:
#      x y z
#    x 2.029890 0.000000 0.039890 
#    y 0.000000 1.943960 0.000000 
#    z 0.039890 0.000000 1.984360 
# 
# From -- ./inp_files/57883.got.cif
#   From: 2010.05.17/outbox.cif.g08.bks.cpg/sg15_29_cif.got.tgz:57883.got - 2010.06.03 18:47:42.
