data_PCOD9262610
_publ_section_title
;
Structure prediction by ZEFSAII (Michael W. Deem and Ramdas Pophale) SiO2 
 PCOD9262610
Probable space group: C 2/C
;
_chemical_formula_sum "Si O2"
_cell_formula_units_Z 56
_cell_length_a 9.183466
_cell_length_b 27.586877
_cell_length_c 14.942567
_cell_angle_alpha 90.000000
_cell_angle_beta 55.225956
_cell_angle_gamma 90.000000
_cell_volume 3109.518361
_symmetry_space_group_name_H-M "C 2/C"
_symmetry_group_IT_number 15
_symmetry_cell_setting 'monoclinic'
loop_
_space_group_symop_operation_xyz
x,y,z
-x,y,1/2-z
-x,-y,-z
x,-y,1/2+z
1/2+x,1/2+y,z
1/2-x,1/2+y,1/2-z
1/2-x,1/2-y,-z
1/2+x,1/2-y,1/2+z
loop_
_atom_site_type_symbol
_atom_site_label
_atom_site_fract_x
_atom_site_fract_y
_atom_site_fract_z
Si Si1 0.904872 0.551867 0.025536
Si Si2 0.637569 0.335196 0.282709
Si Si3 0.165869 0.541089 0.255412
Si Si4 0.469739 0.586666 0.367979
Si Si5 0.866569 0.426401 0.214259
Si Si6 0.386160 0.683943 0.505869
Si Si7 0.496635 0.774429 0.147964
O O1 0.885448 0.567958 0.134324
O O2 0.703321 0.552459 0.060667
O O3 0.000000 0.500000 0.000000
O O4 0.024117 0.581615 0.915434
O O5 0.500000 0.330464 0.250000
O O6 0.702340 0.390541 0.272689
O O7 0.568096 0.319561 0.405027
O O8 0.816138 0.304429 0.199859
O O9 0.352243 0.561910 0.158387
O O10 0.185792 0.483118 0.263466
O O11 0.000000 0.547484 0.250000
O O12 0.500000 0.594194 0.250000
O O13 0.432547 0.635927 0.434005
O O14 0.000000 0.416662 0.250000
O O15 0.481592 0.729578 0.426367
O O16 0.173705 0.693094 0.575010
O O17 0.500000 0.756732 0.250000
#
# Coordination Sequence:
#
# PCOD9262610 Si02
#       7
#     8   8   8   8   8   8   8
#     4   9  18  32  51  73 101 138 175 217 261 302
#     4  11  23  35  53  83 111 136 171 218 271 318
#     4   9  20  35  51  76 109 143 180 221 264 313
#     4  10  19  33  54  80 107 138 181 222 264 315
#     4  10  19  36  55  73 104 144 184 219 254 309
#     4  10  20  37  59  79 104 140 179 218 262 316
#     4   9  19  38  61  81 102 135 179 219 261 319
#
# _framework density 18.009219999999999
#
# number of rings (size 3 to 8) (size 9 to 14) (size 15 to 20)
#    0.000    2.286    0.000    3.429    0.000    4.571 
#    0.000   10.714    0.000    0.000    0.000    0.000 
#    0.000    0.000    0.000    0.000    0.000    0.000 
#
# Total GULP energy -156094.834768 kJ/mol
# GULP energy per Si atom -5574.815527 kJ/mol
# Density = 1.796823 g / cm^3
# Si number density = 18.009220 Si / 1000 Ang^3
#
#
#
# Elastic Constant Matrix: (Units=GPa)
#
#
# Indices 1 2 3 4 5 6 
#
# 1 111.4946 62.8235 43.9622 0.0000 6.3229 0.0000
# 2 62.8235 74.9851 52.5647 0.0000 1.5429 0.0000
# 3 43.9622 52.5647 87.4107 0.0000 -1.3678 0.0000
# 4 0.0000 0.0000 0.0000 29.1562 0.0000 -4.3969
# 5 6.3229 1.5429 -1.3678 0.0000 20.2995 0.0000
# 6 0.0000 0.0000 0.0000 -4.3969 0.0000 12.2423
#
#
#
# Elastic Compliance Matrix: (Units=1/GPa)
#
#
# Indices 1 2 3 4 5 6 
#
# 1 0.017359 -0.014326 -0.000183 0.000000 -0.004331 0.000000
# 2 -0.014326 0.035025 -0.013844 0.000000 0.000867 0.000000
# 3 -0.000183 -0.013844 0.019896 0.000000 0.002450 0.000000
# 4 0.000000 0.000000 0.000000 0.036262 0.000000 0.013024
# 5 -0.004331 0.000867 0.002450 0.000000 0.050710 0.000000
# 6 0.000000 0.000000 0.000000 0.013024 0.000000 0.086362
#
#
# Mechanical properties :
#
#
# Convention : Reuss Voigt Hill
#
# Bulk Modulus (GPa) = 64.21064 65.84347 65.02706
# Shear Modulus (GPa) = 16.25951 19.97561 18.11756
#
# Velocity S-wave (km/s) = 3.00800 3.33406 3.17522
# Velocity P-wave (km/s) = 6.91345 7.17368 7.04476
#
# Compressibility (1/GPa) = 0.01557374
#
# Stress axis : x y z
#
# Youngs Moduli (GPa) = 57.60614 28.55070 50.26183
#
# Poissons Ratio (x) = 0.40902 0.00921
# Poissons Ratio (y) = 0.82528 0.69582
# Poissons Ratio (z) = 0.01056 0.39525
#
# Static dielectric constant tensor:
#      x y z
#    x 1.602550 0.000000 0.003860 
#    y 0.000000 1.605370 0.000000 
#    z 0.003860 0.000000 1.653990 
# 
# From -- ./inp_files/138529.got.cif
#   From: 2010.05.17/outbox.cif.g08.bks.cpg/sg15_70_cif.got.tgz:138529.got - 2010.06.03 18:47:42.
