data_PCOD9262300
_publ_section_title
;
Structure prediction by ZEFSAII (Michael W. Deem and Ramdas Pophale) SiO2 
 PCOD9262300
Probable space group: C 2/C
;
_chemical_formula_sum "Si O2"
_cell_formula_units_Z 56
_cell_length_a 11.341450
_cell_length_b 22.221716
_cell_length_c 23.787887
_cell_angle_alpha 90.000000
_cell_angle_beta 30.452544
_cell_angle_gamma 90.000000
_cell_volume 3038.503011
_symmetry_space_group_name_H-M "C 2/C"
_symmetry_group_IT_number 15
_symmetry_cell_setting 'monoclinic'
loop_
_space_group_symop_operation_xyz
x,y,z
-x,y,1/2-z
-x,-y,-z
x,-y,1/2+z
1/2+x,1/2+y,z
1/2-x,1/2+y,1/2-z
1/2-x,1/2-y,-z
1/2+x,1/2-y,1/2+z
loop_
_atom_site_type_symbol
_atom_site_label
_atom_site_fract_x
_atom_site_fract_y
_atom_site_fract_z
Si Si1 0.026436 0.483130 0.422986
Si Si2 0.084327 0.656291 0.525701
Si Si3 0.718475 0.742156 0.733764
Si Si4 0.225218 0.157676 0.578324
Si Si5 0.000000 0.942839 0.250000
Si Si6 0.547921 0.902931 0.615829
Si Si7 0.000000 0.343108 0.750000
Si Si8 0.411590 0.336011 0.723713
O O1 0.303927 0.481595 0.300996
O O2 0.916976 0.530923 0.425172
O O3 0.000000 0.500000 0.500000
O O4 0.943273 0.414627 0.449925
O O5 0.357452 0.668133 0.409605
O O6 0.923177 0.696536 0.632401
O O7 0.961370 0.669533 0.515936
O O8 0.471760 0.708143 0.836561
O O9 0.684141 0.797289 0.703650
O O10 0.778532 0.773325 0.767891
O O11 0.117031 0.100661 0.656009
O O12 0.295037 0.140692 0.487061
O O13 0.592405 0.885813 0.662065
O O14 0.277646 0.885942 0.715159
O O15 0.500000 0.346110 0.750000
#
# Coordination Sequence:
#
# PCOD9262300 Si02
#       8
#     8   8   8   8   4   8   4   8
#     4  11  20  33  60  89 118 150 192 259 301 352
#     4  11  20  37  57  89 121 148 197 247 310 350
#     4  11  21  39  62  83 118 160 201 252 299 365
#     4  11  18  36  61  89 116 150 207 246 294 360
#     4  10  19  32  58  92 116 141 196 254 300 340
#     4  11  24  37  59  92 122 161 201 249 302 363
#     4  10  23  40  58  84 124 163 206 242 298 364
#     4  11  23  36  55  89 123 152 194 250 309 352
#
# _framework density 18.430128
#
# number of rings (size 3 to 8) (size 9 to 14) (size 15 to 20)
#    0.000    1.143    8.571    0.429    3.000    3.429 
#    0.000    0.000    1.571    7.714    0.000    0.000 
#    0.000    0.000    0.000    0.000    0.000    0.000 
#
# Total GULP energy -156070.905608 kJ/mol
# GULP energy per Si atom -5573.960915 kJ/mol
# Density = 1.838818 g / cm^3
# Si number density = 18.430128 Si / 1000 Ang^3
#
#
#
# Elastic Constant Matrix: (Units=GPa)
#
#
# Indices 1 2 3 4 5 6 
#
# 1 49.8892 23.8096 23.2848 0.0251 8.6148 -0.0608
# 2 23.8096 100.0774 20.0254 0.0429 3.1334 0.1010
# 3 23.2848 20.0254 78.4890 0.1064 -1.0960 -0.1370
# 4 0.0251 0.0429 0.1064 15.9218 -0.0122 -2.3646
# 5 8.6148 3.1334 -1.0960 -0.0122 34.2824 0.0910
# 6 -0.0608 0.1010 -0.1370 -2.3646 0.0910 -3.2084
#
#
#
# Elastic Compliance Matrix: (Units=1/GPa)
#
#
# Indices 1 2 3 4 5 6 
#
# 1 0.026593 -0.004771 -0.006763 -0.000063 -0.006461 -0.000502
# 2 -0.004771 0.011423 -0.001497 0.000057 0.000106 0.000475
# 3 -0.006763 -0.001497 0.015161 -0.000144 0.002322 -0.000395
# 4 -0.000063 0.000057 -0.000144 0.056613 0.000137 -0.041711
# 5 -0.006461 0.000106 0.002322 0.000137 0.030856 0.000801
# 6 -0.000502 0.000475 -0.000395 -0.041711 0.000801 -0.280872
#
#
# Mechanical properties :
#
#
# Convention : Reuss Voigt Hill
#
# Bulk Modulus (GPa) = 36.87920 40.29949 38.58934
# Shear Modulus (GPa) = -47.56143 20.15486 -13.70329
#
# Velocity S-wave (km/s) = -5.08551 3.31052 -2.72973
# Velocity P-wave (km/s) = 3.79861 6.04370 3.32392
#
# Compressibility (1/GPa) = 0.02711556
#
# Stress axis : x y z
#
# Youngs Moduli (GPa) = 37.60406 87.54284 65.95945
#
# Poissons Ratio (x) = 0.41764 0.44608
# Poissons Ratio (y) = 0.17940 0.09874
# Poissons Ratio (z) = 0.25432 0.13104
#
# Static dielectric constant tensor:
#      x y z
#    x 1.634710 -0.000020 0.005830 
#    y -0.000020 1.668730 0.000020 
#    z 0.005830 0.000020 1.672250 
# 
# From -- ./inp_files/270937.got.cif
#   From: 2010.05.17/outbox.cif.g08.bks.cpg/sg15_136_cif.got.tgz:270937.got - 2010.06.03 18:47:42.
