data_PCOD9262264
_publ_section_title
;
Structure prediction by ZEFSAII (Michael W. Deem and Ramdas Pophale) SiO2 
 PCOD9262264
Probable space group: C 2/C
;
_chemical_formula_sum "Si O2"
_cell_formula_units_Z 40
_cell_length_a 10.006372
_cell_length_b 10.514589
_cell_length_c 15.124068
_cell_angle_alpha 90.000000
_cell_angle_beta 104.326549
_cell_angle_gamma 90.000000
_cell_volume 1541.760980
_symmetry_space_group_name_H-M "C 2/C"
_symmetry_group_IT_number 15
_symmetry_cell_setting 'monoclinic'
loop_
_space_group_symop_operation_xyz
x,y,z
-x,y,1/2-z
-x,-y,-z
x,-y,1/2+z
1/2+x,1/2+y,z
1/2-x,1/2+y,1/2-z
1/2-x,1/2-y,-z
1/2+x,1/2-y,1/2+z
loop_
_atom_site_type_symbol
_atom_site_label
_atom_site_fract_x
_atom_site_fract_y
_atom_site_fract_z
Si Si1 0.675498 0.247014 0.693706
Si Si2 0.393409 0.405612 0.311067
Si Si3 0.632678 0.687848 0.378811
Si Si4 0.060253 0.650486 0.352653
Si Si5 0.253452 0.456773 0.453228
O O1 0.741829 0.117164 0.743012
O O2 0.522409 0.259715 0.633866
O O3 0.666863 0.331867 0.781389
O O4 0.793740 0.284762 0.645891
O O5 0.500000 0.440785 0.250000
O O6 0.362299 0.489598 0.392407
O O7 0.458122 0.268473 0.355307
O O8 0.674362 0.563645 0.441035
O O9 0.715218 0.813248 0.420639
O O10 0.114948 0.542152 0.427563
O O11 0.000000 0.595831 0.250000
#
# Coordination Sequence:
#
# PCOD9262264 Si02
#       5
#     8   8   8   8   8
#     4   8  16  34  53  67 109 140 163 221 278 298
#     4   8  17  35  51  74 112 139 172 228 263 311
#     4   9  18  32  53  80 106 135 175 225 264 315
#     4   9  19  34  54  76 103 145 179 215 266 324
#     4  10  19  32  57  80 104 140 182 215 270 327
#
# _framework density 25.944358000000001
#
# number of rings (size 3 to 8) (size 9 to 14) (size 15 to 20)
#    0.000    3.600    0.000    0.000    5.600    0.800 
#    3.600   20.000    0.000    0.000    0.000    0.000 
#    0.000    0.000    0.000    0.000    0.000    0.000 
#
# Total GULP energy -111476.259137 kJ/mol
# GULP energy per Si atom -5573.812957 kJ/mol
# Density = 2.588531 g / cm^3
# Si number density = 25.944358 Si / 1000 Ang^3
#
#
#
# Elastic Constant Matrix: (Units=GPa)
#
#
# Indices 1 2 3 4 5 6 
#
# 1 148.7875 21.7967 13.3025 0.0000 3.9974 0.0000
# 2 21.7967 66.1891 -4.5336 0.0000 -4.9275 0.0000
# 3 13.3025 -4.5336 44.3442 0.0000 1.8051 0.0000
# 4 0.0000 0.0000 0.0000 3.5703 0.0000 -8.4520
# 5 3.9974 -4.9275 1.8051 0.0000 18.9637 0.0000
# 6 0.0000 0.0000 0.0000 -8.4520 0.0000 39.6351
#
#
#
# Elastic Compliance Matrix: (Units=1/GPa)
#
#
# Indices 1 2 3 4 5 6 
#
# 1 0.007395 -0.002753 -0.002417 0.000000 -0.002044 0.000000
# 2 -0.002753 0.016520 0.002326 0.000000 0.004652 0.000000
# 3 -0.002417 0.002326 0.023560 0.000000 -0.001129 0.000000
# 4 0.000000 0.000000 0.000000 0.565634 0.000000 0.120619
# 5 -0.002044 0.004652 -0.001129 0.000000 0.054479 0.000000
# 6 0.000000 0.000000 0.000000 0.120619 0.000000 0.050952
#
#
# Mechanical properties :
#
#
# Convention : Reuss Voigt Hill
#
# Bulk Modulus (GPa) = 23.93104 35.60577 29.76841
# Shear Modulus (GPa) = 6.77363 27.68416 17.22889
#
# Velocity S-wave (km/s) = 1.61756 3.27013 2.57975
# Velocity P-wave (km/s) = 3.56829 5.29264 4.51357
#
# Compressibility (1/GPa) = 0.04178673
#
# Stress axis : x y z
#
# Youngs Moduli (GPa) = 135.22120 60.53121 42.44564
#
# Poissons Ratio (x) = 0.16665 0.10258
# Poissons Ratio (y) = 0.37227 -0.09871
# Poissons Ratio (z) = 0.32679 -0.14077
#
# Static dielectric constant tensor:
#      x y z
#    x 1.995490 0.000000 0.017380 
#    y 0.000000 2.138150 0.000000 
#    z 0.017380 0.000000 2.206210 
# 
# From -- ./inp_files/142625.got.cif
#   From: 2010.05.17/outbox.cif.g08.bks.cpg/sg15_72_cif.got.tgz:142625.got - 2010.06.03 18:47:42.
