data_PCOD9262160
_publ_section_title
;
Structure prediction by ZEFSAII (Michael W. Deem and Ramdas Pophale) SiO2 
 PCOD9262160
Probable space group: C 2/C
;
_chemical_formula_sum "Si O2"
_cell_formula_units_Z 40
_cell_length_a 31.881288
_cell_length_b 7.099683
_cell_length_c 19.023642
_cell_angle_alpha 90.000000
_cell_angle_beta 18.313654
_cell_angle_gamma 90.000000
_cell_volume 1353.008457
_symmetry_space_group_name_H-M "C 2/C"
_symmetry_group_IT_number 15
_symmetry_cell_setting 'monoclinic'
loop_
_space_group_symop_operation_xyz
x,y,z
-x,y,1/2-z
-x,-y,-z
x,-y,1/2+z
1/2+x,1/2+y,z
1/2-x,1/2+y,1/2-z
1/2-x,1/2-y,-z
1/2+x,1/2-y,1/2+z
loop_
_atom_site_type_symbol
_atom_site_label
_atom_site_fract_x
_atom_site_fract_y
_atom_site_fract_z
Si Si1 0.412131 0.781252 0.484078
Si Si2 0.465018 0.292607 0.527942
Si Si3 0.751774 0.286275 0.080127
Si Si4 0.614106 0.775420 0.504159
Si Si5 0.311469 0.764088 0.493580
O O1 0.421939 0.005931 0.453598
O O2 0.368502 0.703877 0.477767
O O3 0.565151 0.718795 0.254015
O O4 0.279206 0.731406 0.738164
O O5 0.500000 0.500000 0.500000
O O6 0.604308 0.200624 0.328011
O O7 0.432902 0.315695 0.495090
O O8 0.338899 0.192016 0.764457
O O9 0.881284 0.217071 0.919013
O O10 0.750000 0.250000 0.000000
O O11 0.777740 0.512310 0.045525
#
# Coordination Sequence:
#
# PCOD9262160 Si02
#       5
#     8   8   8   8   8
#     4   9  17  33  58  83 113 155 199 247 305 358
#     4   9  18  34  57  83 114 156 202 247 301 363
#     4  10  19  32  54  84 115 154 203 252 299 354
#     4  10  20  35  59  89 119 157 204 255 303 364
#     4   8  16  32  55  77 107 156 195 233 300 365
#
# _framework density 29.563749000000001
#
# number of rings (size 3 to 8) (size 9 to 14) (size 15 to 20)
#    0.000    2.800    0.000    2.400    0.000    2.400 
#    0.000    5.000    0.000   64.800    0.000    4.200 
#    0.000    0.000    0.000    0.000    0.000    0.000 
#
# Total GULP energy -111429.088730 kJ/mol
# GULP energy per Si atom -5571.454437 kJ/mol
# Density = 2.949646 g / cm^3
# Si number density = 29.563749 Si / 1000 Ang^3
#
#
#
# Elastic Constant Matrix: (Units=GPa)
#
#
# Indices 1 2 3 4 5 6 
#
# 1 231.1751 0.8636 -1.1878 0.0000 -67.2002 0.0000
# 2 0.8636 142.8028 -41.5462 0.0000 -20.9049 -0.0001
# 3 -1.1878 -41.5462 -401.7321 0.0000 -226.5011 0.0000
# 4 0.0000 0.0000 0.0000 18.3249 0.0000 -0.6318
# 5 -67.2002 -20.9049 -226.5011 0.0000 6.3555 0.0000
# 6 0.0000 -0.0001 0.0000 -0.6318 0.0000 24.5759
#
#
#
# Elastic Compliance Matrix: (Units=1/GPa)
#
#
# Indices 1 2 3 4 5 6 
#
# 1 0.005047 -0.000077 -0.001420 0.000000 0.002506 0.000000
# 2 -0.000077 0.006801 -0.000610 0.000000 -0.000166 0.000000
# 3 -0.001420 -0.000610 0.000340 0.000000 -0.004899 0.000000
# 4 0.000000 0.000000 0.000000 0.054619 0.000000 0.001404
# 5 0.002506 -0.000166 -0.004899 0.000000 0.008706 0.000000
# 6 0.000000 0.000000 0.000000 0.001404 0.000000 0.040726
#
#
# Mechanical properties :
#
#
# Convention : Reuss Voigt Hill
#
# Bulk Modulus (GPa) = 125.37654 -12.38832 56.49411
# Shear Modulus (GPa) = 40.61345 10.79234 25.70289
#
# Velocity S-wave (km/s) = 3.71045 1.91271 2.95177
# Velocity P-wave (km/s) = 7.80112 0.82369 5.54689
#
# Compressibility (1/GPa) = 0.00797597
#
# Stress axis : x y z
#
# Youngs Moduli (GPa) = 198.12705 147.02686 2940.17127
#
# Poissons Ratio (x) = 0.01129 4.17520
# Poissons Ratio (y) = 0.01521 1.79239
# Poissons Ratio (z) = 0.28135 0.08963
#
# Static dielectric constant tensor:
#      x y z
#    x 2.004470 0.000000 0.222060 
#    y 0.000000 2.819460 0.000000 
#    z 0.222060 0.000000 2.940790 
# 
# From -- ./inp_files/224968.got.cif
#   From: 2010.05.17/outbox.cif.g08.bks.cpg/sg15_113_cif.got.tgz:224968.got - 2010.06.03 18:47:42.
