data_PCOD9262695
_publ_section_title
;
Structure prediction by ZEFSAII (Michael W. Deem and Ramdas Pophale) SiO2 
 PCOD9262695
Probable space group: C 2/C
;
_chemical_formula_sum "Si O2"
_cell_formula_units_Z 56
_cell_length_a 13.852405
_cell_length_b 27.313029
_cell_length_c 7.438858
_cell_angle_alpha 90.000000
_cell_angle_beta 115.785019
_cell_angle_gamma 90.000000
_cell_volume 2534.267743
_symmetry_space_group_name_H-M "C 2/C"
_symmetry_group_IT_number 15
_symmetry_cell_setting 'monoclinic'
loop_
_space_group_symop_operation_xyz
x,y,z
-x,y,1/2-z
-x,-y,-z
x,-y,1/2+z
1/2+x,1/2+y,z
1/2-x,1/2+y,1/2-z
1/2-x,1/2-y,-z
1/2+x,1/2-y,1/2+z
loop_
_atom_site_type_symbol
_atom_site_label
_atom_site_fract_x
_atom_site_fract_y
_atom_site_fract_z
Si Si1 0.756863 0.662499 0.735980
Si Si2 0.986058 0.181547 0.954376
Si Si3 0.090283 0.373107 0.451632
Si Si4 0.745421 0.047126 0.160388
Si Si5 0.702055 0.443285 0.218116
Si Si6 0.971644 0.928385 0.930273
Si Si7 0.046110 0.285358 0.984107
O O1 0.640213 0.683764 0.608290
O O2 0.821175 0.652531 0.603796
O O3 0.739458 0.609667 0.815039
O O4 0.832200 0.696757 0.914239
O O5 0.000000 0.176815 0.750000
O O6 0.038396 0.231656 0.065104
O O7 0.028917 0.130610 0.066594
O O8 0.149596 0.414624 0.617318
O O9 0.000000 0.397724 0.250000
O O10 0.025754 0.329000 0.492039
O O11 0.850702 0.054927 0.369947
O O12 0.730301 0.988868 0.156181
O O13 0.777617 0.058324 0.980374
O O14 0.572387 0.446257 0.131438
O O15 0.000000 0.944193 0.750000
O O16 0.000000 0.278414 0.750000
#
# Coordination Sequence:
#
# PCOD9262695 Si02
#       7
#     8   8   8   8   8   8   8
#     4   9  20  40  55  74 115 147 175 225 272 323
#     4  10  22  36  55  84 113 143 179 222 275 328
#     4   9  20  39  57  77 109 146 186 225 265 322
#     4  10  19  33  55  79 106 140 180 226 269 317
#     4   9  19  34  52  79 109 141 178 221 273 322
#     4   9  19  34  52  79 111 141 181 222 264 329
#     4  10  22  37  56  83 108 139 185 231 274 320
#
# _framework density 22.097114000000001
#
# number of rings (size 3 to 8) (size 9 to 14) (size 15 to 20)
#    0.000    2.571    0.000    1.286    0.000   10.286 
#    0.000    7.857    0.000    0.000    0.000    0.000 
#    0.000    0.000    0.000    0.000    0.000    0.000 
#
# Total GULP energy -156250.256138 kJ/mol
# GULP energy per Si atom -5580.366291 kJ/mol
# Density = 2.204682 g / cm^3
# Si number density = 22.097114 Si / 1000 Ang^3
#
#
#
# Elastic Constant Matrix: (Units=GPa)
#
#
# Indices 1 2 3 4 5 6 
#
# 1 55.6645 6.4715 -1.7356 0.0000 12.6223 0.0000
# 2 6.4715 118.9288 15.9159 0.0000 24.0786 0.0000
# 3 -1.7356 15.9159 22.1610 0.0000 5.8233 0.0000
# 4 0.0000 0.0000 0.0000 5.9394 0.0000 -10.7872
# 5 12.6223 24.0786 5.8233 0.0000 24.4301 0.0000
# 6 0.0000 0.0000 0.0000 -10.7872 0.0000 3.8007
#
#
#
# Elastic Compliance Matrix: (Units=1/GPa)
#
#
# Indices 1 2 3 4 5 6 
#
# 1 0.020872 0.000843 0.004354 0.000000 -0.012653 0.000000
# 2 0.000843 0.011119 -0.005254 0.000000 -0.010142 0.000000
# 3 0.004354 -0.005254 0.051708 0.000000 -0.009396 0.000000
# 4 0.000000 0.000000 0.000000 -0.040524 0.000000 -0.115015
# 5 -0.012653 -0.010142 -0.009396 0.000000 0.059706 0.000000
# 6 0.000000 0.000000 0.000000 -0.115015 0.000000 -0.063327
#
#
# Mechanical properties :
#
#
# Convention : Reuss Voigt Hill
#
# Bulk Modulus (GPa) = 11.96405 26.45088 19.20747
# Shear Modulus (GPa) = 74.04045 18.57422 46.30734
#
# Velocity S-wave (km/s) = 5.79479 2.90241 4.58277
# Velocity P-wave (km/s) = 7.08511 4.81957 6.05917
#
# Compressibility (1/GPa) = 0.08358371
#
# Stress axis : x y z
#
# Youngs Moduli (GPa) = 47.91212 89.93510 19.33939
#
# Poissons Ratio (x) = -0.07584 -0.08420
# Poissons Ratio (y) = -0.04040 0.10162
# Poissons Ratio (z) = -0.20860 0.47256
#
# Static dielectric constant tensor:
#      x y z
#    x 1.824010 0.000000 -0.021370 
#    y 0.000000 1.863200 0.000000 
#    z -0.021370 0.000000 1.851030 
# 
# From -- ./inp_files/43608.got.cif
#   From: 2010.05.17/outbox.cif.g08.bks.cpg/sg15_22_cif.got.tgz:43608.got - 2010.06.03 18:47:42.
