data_PCOD9262468
_publ_section_title
;
Structure prediction by ZEFSAII (Michael W. Deem and Ramdas Pophale) SiO2 
 PCOD9262468
Probable space group: C 2/C
;
_chemical_formula_sum "Si O2"
_cell_formula_units_Z 40
_cell_length_a 19.295618
_cell_length_b 14.426380
_cell_length_c 13.175786
_cell_angle_alpha 90.000000
_cell_angle_beta 29.884067
_cell_angle_gamma 90.000000
_cell_volume 1827.414140
_symmetry_space_group_name_H-M "C 2/C"
_symmetry_group_IT_number 15
_symmetry_cell_setting 'monoclinic'
loop_
_space_group_symop_operation_xyz
x,y,z
-x,y,1/2-z
-x,-y,-z
x,-y,1/2+z
1/2+x,1/2+y,z
1/2-x,1/2+y,1/2-z
1/2-x,1/2-y,-z
1/2+x,1/2-y,1/2+z
loop_
_atom_site_type_symbol
_atom_site_label
_atom_site_fract_x
_atom_site_fract_y
_atom_site_fract_z
Si Si1 0.646100 0.394961 0.378416
Si Si2 0.846306 0.899211 0.710200
Si Si3 0.564504 0.907851 0.557254
Si Si4 0.272531 0.146280 0.935344
Si Si5 0.074297 0.380861 0.966912
O O1 0.496917 0.353425 0.536661
O O2 0.629099 0.506078 0.383024
O O3 0.687368 0.376352 0.442092
O O4 0.780819 0.365470 0.142375
O O5 0.781486 0.918237 0.904395
O O6 0.723132 0.841564 0.812445
O O7 0.500000 0.912010 0.750000
O O8 0.461106 0.864001 0.605407
O O9 0.587558 0.009854 0.478582
O O10 0.436116 0.141974 0.705003
O O11 0.250000 0.250000 0.000000
#
# Coordination Sequence:
#
# PCOD9262468 Si02
#       5
#     8   8   8   8   8
#     4   9  20  34  51  81 114 150 193 234 290 349
#     4  10  19  33  52  79 117 150 185 241 290 343
#     4   9  16  31  52  74 106 145 188 233 274 335
#     4  11  22  36  56  85 120 154 188 237 295 350
#     4   9  18  30  49  78 106 144 191 226 277 342
#
# _framework density 21.888853999999998
#
# number of rings (size 3 to 8) (size 9 to 14) (size 15 to 20)
#    0.000    2.400    0.000    4.800    0.000    3.200 
#    0.000    3.000    0.000    0.000    0.000   51.800 
#    0.000    0.000    0.000    0.000    0.000    0.000 
#
# Total GULP energy -111579.711518 kJ/mol
# GULP energy per Si atom -5578.985576 kJ/mol
# Density = 2.183903 g / cm^3
# Si number density = 21.888854 Si / 1000 Ang^3
#
#
#
# Elastic Constant Matrix: (Units=GPa)
#
#
# Indices 1 2 3 4 5 6 
#
# 1 172.4413 16.0654 105.7971 0.0000 -29.9258 0.0000
# 2 16.0654 53.4606 4.4616 0.0000 2.5762 0.0000
# 3 105.7971 4.4616 134.7785 0.0000 -32.5453 0.0000
# 4 0.0000 0.0000 0.0000 19.1873 0.0000 14.0252
# 5 -29.9258 2.5762 -32.5453 0.0000 60.9530 0.0000
# 6 0.0000 0.0000 0.0000 14.0252 0.0000 8.3302
#
#
#
# Elastic Compliance Matrix: (Units=1/GPa)
#
#
# Indices 1 2 3 4 5 6 
#
# 1 0.011640 -0.002822 -0.008765 0.000000 0.001154 0.000000
# 2 -0.002822 0.019530 0.001188 0.000000 -0.001577 0.000000
# 3 -0.008765 0.001188 0.015164 0.000000 0.003743 0.000000
# 4 0.000000 0.000000 0.000000 -0.225911 0.000000 0.380360
# 5 0.001154 -0.001577 0.003743 0.000000 0.019038 0.000000
# 6 0.000000 0.000000 0.000000 0.380360 0.000000 -0.520355
#
#
# Mechanical properties :
#
#
# Convention : Reuss Voigt Hill
#
# Bulk Modulus (GPa) = 39.15940 68.14761 53.65350
# Shear Modulus (GPa) = -7.67360 33.31785 12.82212
#
# Velocity S-wave (km/s) = -1.87439 3.90569 2.42292
# Velocity P-wave (km/s) = 3.63930 7.17916 5.69143
#
# Compressibility (1/GPa) = 0.02553666
#
# Stress axis : x y z
#
# Youngs Moduli (GPa) = 85.91374 51.20271 65.94497
#
# Poissons Ratio (x) = 0.14449 0.57798
# Poissons Ratio (y) = 0.24245 -0.07834
# Poissons Ratio (z) = 0.75300 -0.06083
#
# Static dielectric constant tensor:
#      x y z
#    x 1.871500 0.000000 -0.079260 
#    y 0.000000 1.851390 0.000000 
#    z -0.079260 0.000000 1.864420 
# 
# From -- ./inp_files/106828.got.cif
#   From: 2010.05.17/outbox.cif.g08.bks.cpg/sg15_54_cif.got.tgz:106828.got - 2010.06.03 18:47:42.
