data_PCOD9262756
_publ_section_title
;
Structure prediction by ZEFSAII (Michael W. Deem and Ramdas Pophale) SiO2 
 PCOD9262756
Probable space group: C 2/C
;
_chemical_formula_sum "Si O2"
_cell_formula_units_Z 56
_cell_length_a 11.394313
_cell_length_b 16.717424
_cell_length_c 20.194448
_cell_angle_alpha 90.000000
_cell_angle_beta 127.259768
_cell_angle_gamma 90.000000
_cell_volume 3061.592168
_symmetry_space_group_name_H-M "C 2/C"
_symmetry_group_IT_number 15
_symmetry_cell_setting 'monoclinic'
loop_
_space_group_symop_operation_xyz
x,y,z
-x,y,1/2-z
-x,-y,-z
x,-y,1/2+z
1/2+x,1/2+y,z
1/2-x,1/2+y,1/2-z
1/2-x,1/2-y,-z
1/2+x,1/2-y,1/2+z
loop_
_atom_site_type_symbol
_atom_site_label
_atom_site_fract_x
_atom_site_fract_y
_atom_site_fract_z
Si Si1 0.399319 0.477956 0.856473
Si Si2 0.590810 0.953022 0.216793
Si Si3 0.884924 0.279658 0.498810
Si Si4 0.449287 0.608312 0.502722
Si Si5 0.604864 0.090384 0.401807
Si Si6 0.266139 0.337651 0.185219
Si Si7 0.500000 0.526080 0.750000
Si Si8 0.000000 0.706821 0.250000
O O1 0.224951 0.487898 0.784359
O O2 0.449186 0.408927 0.923954
O O3 0.472939 0.478999 0.809092
O O4 0.445712 0.555499 0.915629
O O5 0.500000 0.928447 0.250000
O O6 0.662511 0.877072 0.205001
O O7 0.480286 0.007465 0.135591
O O8 0.750000 0.250000 0.500000
O O9 0.981580 0.200627 0.526913
O O10 0.949639 0.358324 0.554349
O O11 0.823184 0.302287 0.406481
O O12 0.281969 0.583016 0.466282
O O13 0.572806 0.148882 0.328697
O O14 0.362750 0.413586 0.194063
O O15 0.381150 0.267031 0.243017
#
# Coordination Sequence:
#
# PCOD9262756 Si02
#       8
#     8   8   8   8   8   8   4   4
#     4  10  20  34  57  85 118 153 193 244 296 358
#     4  11  22  38  56  87 119 161 192 235 295 366
#     4  10  19  33  55  86 110 144 185 251 293 336
#     4  10  19  34  57  88 114 151 193 246 301 347
#     4  11  20  34  62  88 117 144 207 240 296 342
#     4  10  21  33  57  86 123 144 192 249 298 338
#     4   9  18  32  52  84 113 146 192 237 292 336
#     4  11  18  34  60  96 113 150 196 261 286 340
#
# _framework density 18.291136999999999
#
# number of rings (size 3 to 8) (size 9 to 14) (size 15 to 20)
#    0.000    1.714    5.000    1.714    4.000    0.571 
#    0.000    0.000    1.571    0.857    0.000    0.000 
#    0.000    0.000    0.000    0.000    0.000    0.000 
#
# Total GULP energy -156067.540678 kJ/mol
# GULP energy per Si atom -5573.840738 kJ/mol
# Density = 1.824951 g / cm^3
# Si number density = 18.291137 Si / 1000 Ang^3
#
#
#
# Elastic Constant Matrix: (Units=GPa)
#
#
# Indices 1 2 3 4 5 6 
#
# 1 76.2989 10.2423 -1.7991 0.0000 -11.1729 0.0000
# 2 10.2423 46.8157 -7.2377 0.0000 -1.7815 0.0000
# 3 -1.7991 -7.2377 32.3684 0.0000 0.9137 0.0000
# 4 0.0000 0.0000 0.0000 26.0100 0.0000 -3.2556
# 5 -11.1729 -1.7815 0.9137 0.0000 27.0531 0.0000
# 6 0.0000 0.0000 0.0000 -3.2556 0.0000 19.9874
#
#
#
# Elastic Compliance Matrix: (Units=1/GPa)
#
#
# Indices 1 2 3 4 5 6 
#
# 1 0.014337 -0.002921 -0.000018 0.000000 0.005729 0.000000
# 2 -0.002921 0.022766 0.004925 0.000000 0.000126 0.000000
# 3 -0.000018 0.004925 0.032016 0.000000 -0.000765 0.000000
# 4 0.000000 0.000000 0.000000 0.039247 0.000000 0.006393
# 5 0.005729 0.000126 -0.000765 0.000000 0.039365 0.000000
# 6 0.000000 0.000000 0.000000 0.006393 0.000000 0.051073
#
#
# Mechanical properties :
#
#
# Convention : Reuss Voigt Hill
#
# Bulk Modulus (GPa) = 13.68198 17.54377 15.61288
# Shear Modulus (GPa) = 22.81064 24.89527 23.85296
#
# Velocity S-wave (km/s) = 3.53524 3.69325 3.61511
# Velocity P-wave (km/s) = 4.91531 5.27248 5.09702
#
# Compressibility (1/GPa) = 0.07308885
#
# Stress axis : x y z
#
# Youngs Moduli (GPa) = 69.74920 43.92587 31.23430
#
# Poissons Ratio (x) = 0.12833 0.00057
# Poissons Ratio (y) = 0.20377 -0.15381
# Poissons Ratio (z) = 0.00126 -0.21631
#
# Static dielectric constant tensor:
#      x y z
#    x 1.649690 0.000000 -0.001390 
#    y 0.000000 1.644030 0.000000 
#    z -0.001390 0.000000 1.653500 
# 
# From -- ./inp_files/199318.got.cif
#   From: 2010.05.17/outbox.cif.g08.bks.cpg/sg15_100_cif.got.tgz:199318.got - 2010.06.03 18:47:42.
