data_PCOD9262302
_publ_section_title
;
Structure prediction by ZEFSAII (Michael W. Deem and Ramdas Pophale) SiO2 
 PCOD9262302
Probable space group: C 2/C
;
_chemical_formula_sum "Si O2"
_cell_formula_units_Z 36
_cell_length_a 14.547538
_cell_length_b 22.586471
_cell_length_c 8.140075
_cell_angle_alpha 90.000000
_cell_angle_beta 35.810235
_cell_angle_gamma 90.000000
_cell_volume 1564.942112
_symmetry_space_group_name_H-M "C 2/C"
_symmetry_group_IT_number 15
_symmetry_cell_setting 'monoclinic'
loop_
_space_group_symop_operation_xyz
x,y,z
-x,y,1/2-z
-x,-y,-z
x,-y,1/2+z
1/2+x,1/2+y,z
1/2-x,1/2+y,1/2-z
1/2-x,1/2-y,-z
1/2+x,1/2-y,1/2+z
loop_
_atom_site_type_symbol
_atom_site_label
_atom_site_fract_x
_atom_site_fract_y
_atom_site_fract_z
Si Si1 0.424086 0.678942 0.044221
Si Si2 0.166471 0.521918 0.189218
Si Si3 0.500000 0.117023 0.250000
Si Si4 0.622824 0.446680 0.815921
Si Si5 0.372129 0.215935 0.197581
O O1 0.452510 0.617030 0.090803
O O2 0.239825 0.691405 0.281861
O O3 0.500000 0.674696 0.750000
O O4 0.504282 0.733138 0.020668
O O5 0.139487 0.569289 0.081106
O O6 0.275638 0.552893 0.164646
O O7 0.000000 0.500000 0.500000
O O8 0.255781 0.463930 0.000120
O O9 0.467627 0.162862 0.148160
O O10 0.500000 0.500000 0.000000
O O11 0.250000 0.250000 0.500000
#
# Coordination Sequence:
#
# PCOD9262302 Si02
#       5
#     8   8   4   8   8
#     4  10  20  35  59  94 130 164 217 266 320 381
#     4  12  25  43  64  96 131 178 214 260 327 399
#     4  12  20  36  66  92 128 168 232 254 314 400
#     4  12  25  40  65 100 131 165 214 277 329 375
#     4  10  19  32  58  94 123 169 212 265 313 381
#
# _framework density 23.004047
#
# number of rings (size 3 to 8) (size 9 to 14) (size 15 to 20)
#    0.000    0.889    7.778    2.000    3.111    0.000 
#    0.000    0.000    0.000    1.333    5.778    0.000 
#    0.000    0.000    0.000    0.000    0.000    0.000 
#
# Total GULP energy -100508.497892 kJ/mol
# GULP energy per Si atom -5583.805438 kJ/mol
# Density = 2.295169 g / cm^3
# Si number density = 23.004047 Si / 1000 Ang^3
#
#
#
# Elastic Constant Matrix: (Units=GPa)
#
#
# Indices 1 2 3 4 5 6 
#
# 1 68.0188 33.5547 22.5164 0.0000 -28.9885 0.0000
# 2 33.5547 177.5256 33.0854 0.0000 -22.0124 0.0000
# 3 22.5164 33.0854 69.2485 0.0000 -15.4100 0.0000
# 4 0.0000 0.0000 0.0000 24.9629 0.0000 -4.5085
# 5 -28.9885 -22.0124 -15.4100 0.0000 28.8417 0.0000
# 6 0.0000 0.0000 0.0000 -4.5085 0.0000 42.2479
#
#
#
# Elastic Compliance Matrix: (Units=1/GPa)
#
#
# Indices 1 2 3 4 5 6 
#
# 1 0.026633 -0.001559 -0.002523 0.000000 0.024230 0.000000
# 2 -0.001559 0.006616 -0.002132 0.000000 0.002342 0.000000
# 3 -0.002523 -0.002132 0.017425 0.000000 0.005147 0.000000
# 4 0.000000 0.000000 0.000000 0.040847 0.000000 0.004359
# 5 0.024230 0.002342 0.005147 0.000000 0.063563 0.000000
# 6 0.000000 0.000000 0.000000 0.004359 0.000000 0.024135
#
#
# Mechanical properties :
#
#
# Convention : Reuss Voigt Hill
#
# Bulk Modulus (GPa) = 26.14756 54.78953 40.46855
# Shear Modulus (GPa) = 24.46233 34.25294 29.35763
#
# Velocity S-wave (km/s) = 3.26451 3.86294 3.57626
# Velocity P-wave (km/s) = 5.05970 6.61554 5.88923
#
# Compressibility (1/GPa) = 0.03824449
#
# Stress axis : x y z
#
# Youngs Moduli (GPa) = 37.54784 151.15751 57.38788
#
# Poissons Ratio (x) = 0.23570 0.14477
# Poissons Ratio (y) = 0.05855 0.12238
# Poissons Ratio (z) = 0.09472 0.32234
#
# Static dielectric constant tensor:
#      x y z
#    x 1.963610 0.000000 -0.037020 
#    y 0.000000 1.854240 0.000000 
#    z -0.037020 0.000000 1.932010 
# 
# From -- ./inp_files/23290.got.cif
#   From: 2010.05.17/outbox.cif.g08.bks.cpg/sg15_12_cif.got.tgz:23290.got - 2010.06.03 18:47:42.
