data_PCOD9262959
_publ_section_title
;
Structure prediction by ZEFSAII (Michael W. Deem and Ramdas Pophale) SiO2 
 PCOD9262959
Probable space group: C 2/C
;
_chemical_formula_sum "Si O2"
_cell_formula_units_Z 40
_cell_length_a 11.991225
_cell_length_b 16.323964
_cell_length_c 22.007293
_cell_angle_alpha 90.000000
_cell_angle_beta 159.055108
_cell_angle_gamma 90.000000
_cell_volume 1539.909597
_symmetry_space_group_name_H-M "C 2/C"
_symmetry_group_IT_number 15
_symmetry_cell_setting 'monoclinic'
loop_
_space_group_symop_operation_xyz
x,y,z
-x,y,1/2-z
-x,-y,-z
x,-y,1/2+z
1/2+x,1/2+y,z
1/2-x,1/2+y,1/2-z
1/2-x,1/2-y,-z
1/2+x,1/2-y,1/2+z
loop_
_atom_site_type_symbol
_atom_site_label
_atom_site_fract_x
_atom_site_fract_y
_atom_site_fract_z
Si Si1 0.146254 0.157922 0.043606
Si Si2 0.053603 0.870307 0.193738
Si Si3 0.963692 0.322883 0.974474
Si Si4 0.162892 0.944891 0.728419
Si Si5 0.175692 0.518395 0.895409
O O1 0.500000 0.175307 0.250000
O O2 0.149773 0.059440 0.046351
O O3 0.922718 0.225911 0.959265
O O4 0.039747 0.165365 0.918878
O O5 0.406647 0.852231 0.394677
O O6 0.042212 0.968894 0.193467
O O7 0.778716 0.834463 0.094810
O O8 0.733912 0.379296 0.817144
O O9 0.898384 0.921202 0.545495
O O10 0.448402 0.973778 0.829622
O O11 0.000000 0.559249 0.750000
#
# Coordination Sequence:
#
# PCOD9262959 Si02
#       5
#     8   8   8   8   8
#     4  10  19  33  58  86 114 143 199 254 284 325
#     4  10  21  34  53  87 120 148 192 234 299 334
#     4  11  20  33  58  84 118 154 192 246 282 340
#     4  11  20  37  54  86 124 153 194 238 288 356
#     4  10  22  36  60  88 119 152 192 243 297 345
#
# _framework density 25.975550999999999
#
# number of rings (size 3 to 8) (size 9 to 14) (size 15 to 20)
#    0.000    1.600    6.000    1.800    0.000    0.000 
#    0.000    0.000    0.000    4.800    0.000    5.600 
#    0.000    0.000    0.000    0.000    0.000    0.000 
#
# Total GULP energy -111436.629442 kJ/mol
# GULP energy per Si atom -5571.831472 kJ/mol
# Density = 2.591643 g / cm^3
# Si number density = 25.975551 Si / 1000 Ang^3
#
#
#
# Elastic Constant Matrix: (Units=GPa)
#
#
# Indices 1 2 3 4 5 6 
#
# 1 60.4446 25.0265 43.4852 -0.1471 -6.4362 0.0281
# 2 25.0265 133.6859 55.6949 0.2399 -7.7198 -0.0283
# 3 43.4852 55.6949 242.5592 -1.0614 -48.7838 0.2051
# 4 -0.1471 0.2399 -1.0614-1446.0196 -0.0337 249.2979
# 5 -6.4362 -7.7198 -48.7838 -0.0337 37.9096 0.0138
# 6 0.0281 -0.0283 0.2051 249.2979 0.0138 -20.0597
#
#
#
# Elastic Compliance Matrix: (Units=1/GPa)
#
#
# Indices 1 2 3 4 5 6 
#
# 1 0.019743 -0.002418 -0.003250 0.000000 -0.001323 0.000003
# 2 -0.002418 0.008597 -0.001715 0.000002 -0.000866 -0.000003
# 3 -0.003250 -0.001715 0.006635 -0.000006 0.007637 -0.000008
# 4 0.000000 0.000002 -0.000006 0.000605 -0.000010 0.007522
# 5 -0.001323 -0.000866 0.007637 -0.000010 0.035806 -0.000019
# 6 0.000003 -0.000003 -0.000008 0.007522 -0.000019 0.043630
#
#
# Mechanical properties :
#
#
# Convention : Reuss Voigt Hill
#
# Bulk Modulus (GPa) = 49.48382 76.12254 62.80318
# Shear Modulus (GPa) = 36.62493 -264.80175 -114.08841
#
# Velocity S-wave (km/s) = 3.75904 -10.10762 -6.63452
# Velocity P-wave (km/s) = 6.15890 10.33681 5.87016
#
# Compressibility (1/GPa) = 0.02020863
#
# Stress axis : x y z
#
# Youngs Moduli (GPa) = 50.65155 116.31592 150.71216
#
# Poissons Ratio (x) = 0.28128 0.48985
# Poissons Ratio (y) = 0.12249 0.25844
# Poissons Ratio (z) = 0.16463 0.19946
#
# Static dielectric constant tensor:
#      x y z
#    x 2.203090 0.000000 0.042190 
#    y 0.000000 2.043750 -0.000040 
#    z 0.042190 -0.000040 2.268450 
# 
# From -- ./inp_files/274759.got.cif
#   From: 2010.05.17/outbox.cif.g08.bks.cpg/sg15_138_cif.got.tgz:274759.got - 2010.06.03 18:47:42.
