data_PCOD9262846
_publ_section_title
;
Structure prediction by ZEFSAII (Michael W. Deem and Ramdas Pophale) SiO2 
 PCOD9262846
Probable space group: C 2/C
;
_chemical_formula_sum "Si O2"
_cell_formula_units_Z 56
_cell_length_a 16.300088
_cell_length_b 15.695140
_cell_length_c 10.521521
_cell_angle_alpha 90.000000
_cell_angle_beta 74.540371
_cell_angle_gamma 90.000000
_cell_volume 2594.352193
_symmetry_space_group_name_H-M "C 2/C"
_symmetry_group_IT_number 15
_symmetry_cell_setting 'monoclinic'
loop_
_space_group_symop_operation_xyz
x,y,z
-x,y,1/2-z
-x,-y,-z
x,-y,1/2+z
1/2+x,1/2+y,z
1/2-x,1/2+y,1/2-z
1/2-x,1/2-y,-z
1/2+x,1/2-y,1/2+z
loop_
_atom_site_type_symbol
_atom_site_label
_atom_site_fract_x
_atom_site_fract_y
_atom_site_fract_z
Si Si1 0.475855 0.126307 0.022091
Si Si2 0.577863 0.016102 0.803310
Si Si3 0.266369 0.537753 0.780420
Si Si4 0.443786 0.733552 0.148252
Si Si5 0.211742 0.623026 0.457661
Si Si6 0.447799 0.467833 0.641372
Si Si7 0.744851 0.788684 0.204324
O O1 0.554716 0.067628 0.942264
O O2 0.510298 0.220696 0.989071
O O3 0.389039 0.117719 0.976287
O O4 0.441942 0.083234 0.163894
O O5 0.500000 0.046800 0.750000
O O6 0.677395 0.027991 0.737809
O O7 0.248689 0.468639 0.900283
O O8 0.354003 0.507456 0.683354
O O9 0.276955 0.640217 0.791956
O O10 0.500000 0.749943 0.250000
O O11 0.437420 0.633437 0.135013
O O12 0.352460 0.772943 0.216445
O O13 0.220544 0.693769 0.340489
O O14 0.255625 0.663552 0.563286
O O15 0.500000 0.485971 0.750000
O O16 0.500000 0.500000 0.500000
#
# Coordination Sequence:
#
# PCOD9262846 Si02
#       7
#     8   8   8   8   8   8   8
#     4  10  19  33  56  88 122 154 206 265 332 393
#     4  10  20  36  57  92 129 166 199 261 346 411
#     4  11  23  39  65  96 135 169 223 288 351 407
#     4  11  20  39  64  95 123 166 225 288 330 386
#     4  10  22  36  60  96 124 171 228 282 341 409
#     4  11  28  48  70  97 133 185 237 285 335 403
#     4  11  21  36  64  91 128 169 226 288 340 395
#
# _framework density 21.585349999999998
#
# number of rings (size 3 to 8) (size 9 to 14) (size 15 to 20)
#    0.000    1.429    4.286    1.286    4.000    0.000 
#    0.000    0.714    0.000    2.571    0.000    0.000 
#    0.000    0.000    0.000    0.000    0.000    0.000 
#
# Total GULP energy -155951.197396 kJ/mol
# GULP energy per Si atom -5569.685621 kJ/mol
# Density = 2.153622 g / cm^3
# Si number density = 21.585350 Si / 1000 Ang^3
#
#
#
# Elastic Constant Matrix: (Units=GPa)
#
#
# Indices 1 2 3 4 5 6 
#
# 1 88.3580 23.0035 31.5049 0.0000 -36.3092 0.0000
# 2 23.0035 114.8125 36.2655 0.0000 -11.1904 0.0000
# 3 31.5049 36.2655 65.7428 0.0000 -30.2480 0.0000
# 4 0.0000 0.0000 0.0000 38.0226 0.0000 -11.5481
# 5 -36.3092 -11.1904 -30.2480 0.0000 37.2150 0.0000
# 6 0.0000 0.0000 0.0000 -11.5481 0.0000 35.3163
#
#
#
# Elastic Compliance Matrix: (Units=1/GPa)
#
#
# Indices 1 2 3 4 5 6 
#
# 1 0.019381 -0.002232 0.000535 0.000000 0.018673 0.000000
# 2 -0.002232 0.010951 -0.007121 0.000000 -0.004673 0.000000
# 3 0.000535 -0.007121 0.028972 0.000000 0.021929 0.000000
# 4 0.000000 0.000000 0.000000 0.029200 0.000000 0.009548
# 5 0.018673 -0.004673 0.021929 0.000000 0.061508 0.000000
# 6 0.000000 0.000000 0.000000 0.009548 0.000000 0.031438
#
#
# Mechanical properties :
#
#
# Convention : Reuss Voigt Hill
#
# Bulk Modulus (GPa) = 23.99936 50.05123 37.02529
# Shear Modulus (GPa) = 23.47679 33.98674 28.73177
#
# Velocity S-wave (km/s) = 3.30150 3.97234 3.65235
# Velocity P-wave (km/s) = 5.06711 6.65411 5.91409
#
# Compressibility (1/GPa) = 0.04166778
#
# Stress axis : x y z
#
# Youngs Moduli (GPa) = 51.59570 91.31609 34.51609
#
# Poissons Ratio (x) = 0.20383 -0.01847
# Poissons Ratio (y) = 0.11517 0.24579
# Poissons Ratio (z) = -0.02760 0.65028
#
# Static dielectric constant tensor:
#      x y z
#    x 1.805200 0.000000 0.050280 
#    y 0.000000 1.863080 0.000000 
#    z 0.050280 0.000000 1.858460 
# 
# From -- ./inp_files/105635.got.cif
#   From: 2010.05.17/outbox.cif.g08.bks.cpg/sg15_53_cif.got.tgz:105635.got - 2010.06.03 18:47:42.
