data_PCOD9262274
_publ_section_title
;
Structure prediction by ZEFSAII (Michael W. Deem and Ramdas Pophale) SiO2 
 PCOD9262274
Probable space group: C 2/C
;
_chemical_formula_sum "Si O2"
_cell_formula_units_Z 60
_cell_length_a 15.596252
_cell_length_b 15.427759
_cell_length_c 26.414503
_cell_angle_alpha 90.000000
_cell_angle_beta 149.216014
_cell_angle_gamma 90.000000
_cell_volume 3252.880912
_symmetry_space_group_name_H-M "C 2/C"
_symmetry_group_IT_number 15
_symmetry_cell_setting 'monoclinic'
loop_
_space_group_symop_operation_xyz
x,y,z
-x,y,1/2-z
-x,-y,-z
x,-y,1/2+z
1/2+x,1/2+y,z
1/2-x,1/2+y,1/2-z
1/2-x,1/2-y,-z
1/2+x,1/2-y,1/2+z
loop_
_atom_site_type_symbol
_atom_site_label
_atom_site_fract_x
_atom_site_fract_y
_atom_site_fract_z
Si Si1 0.249670 0.937094 0.968148
Si Si2 0.088372 0.112933 0.240712
Si Si3 0.000000 0.601221 0.750000
Si Si4 0.192000 0.530411 0.602246
Si Si5 0.493021 0.641708 0.495533
Si Si6 0.293614 0.497580 0.944317
Si Si7 0.208474 0.295461 0.280681
Si Si8 0.429752 0.183934 0.899795
O O1 0.067969 0.891308 0.876571
O O2 0.234916 0.007552 0.915531
O O3 0.397986 0.869001 0.028404
O O4 0.270344 0.986767 0.031250
O O5 0.206482 0.193037 0.288873
O O6 0.000000 0.128838 0.250000
O O7 0.200478 0.027273 0.303987
O O8 0.847571 0.538375 0.662311
O O9 0.953083 0.662858 0.773004
O O10 0.000000 0.500000 0.500000
O O11 0.175411 0.626813 0.613714
O O12 0.552610 0.563380 0.488977
O O13 0.342664 0.598357 0.451391
O O14 0.633365 0.665614 0.609043
O O15 0.466696 0.725267 0.446465
O O16 0.179441 0.309915 0.206694
#
# Coordination Sequence:
#
# PCOD9262274 Si02
#       8
#     8   8   4   8   8   8   8   8
#     4  10  20  35  61  86 114 150 201 246 296 346
#     4  10  19  32  57  87 113 140 187 249 294 336
#     4  10  20  36  58  84 118 148 204 236 290 370
#     4   9  20  36  54  83 118 149 196 243 288 354
#     4  10  23  38  57  87 128 147 198 248 294 365
#     4  10  21  39  58  86 117 159 188 245 303 351
#     4  11  20  34  59  87 116 153 188 251 301 351
#     4  11  22  38  58  88 119 163 194 245 301 357
#
# _framework density 18.445188000000002
#
# number of rings (size 3 to 8) (size 9 to 14) (size 15 to 20)
#    0.000    1.867    2.000    3.200    3.733    1.067 
#    2.400    2.000    4.400    0.000    0.000    0.000 
#    0.000    0.000    0.000    0.000    0.000    0.000 
#
# Total GULP energy -167058.533329 kJ/mol
# GULP energy per Si atom -5568.617778 kJ/mol
# Density = 1.840321 g / cm^3
# Si number density = 18.445188 Si / 1000 Ang^3
#
#
#
# Elastic Constant Matrix: (Units=GPa)
#
#
# Indices 1 2 3 4 5 6 
#
# 1 65.2067 53.1139 16.5832 0.0000 -17.7209 0.0000
# 2 53.1139 92.8649 19.4483 0.0001 -7.3867 0.0000
# 3 16.5832 19.4483 44.5243 -0.0001 -15.9475 -0.0001
# 4 0.0000 0.0001 -0.0001 14.8345 0.0000 10.7585
# 5 -17.7209 -7.3867 -15.9475 0.0000 27.2215 0.0000
# 6 0.0000 0.0000 -0.0001 10.7585 0.0000 29.6063
#
#
#
# Elastic Compliance Matrix: (Units=1/GPa)
#
#
# Indices 1 2 3 4 5 6 
#
# 1 0.035860 -0.019400 0.002017 0.000000 0.019262 0.000000
# 2 -0.019400 0.022349 -0.006186 0.000000 -0.010189 0.000000
# 3 0.002017 -0.006186 0.030727 0.000000 0.017636 0.000000
# 4 0.000000 0.000000 0.000000 0.091533 0.000000 -0.033262
# 5 0.019262 -0.010189 0.017636 0.000000 0.056842 0.000000
# 6 0.000000 0.000000 0.000000 -0.033262 0.000000 0.045864
#
#
# Mechanical properties :
#
#
# Convention : Reuss Voigt Hill
#
# Bulk Modulus (GPa) = 23.92459 42.32075 33.12267
# Shear Modulus (GPa) = 14.52450 21.89583 18.21016
#
# Velocity S-wave (km/s) = 2.80918 3.44913 3.14548
# Velocity P-wave (km/s) = 4.84983 6.23345 5.58465
#
# Compressibility (1/GPa) = 0.04179799
#
# Stress axis : x y z
#
# Youngs Moduli (GPa) = 27.88620 44.74395 32.54458
#
# Poissons Ratio (x) = 0.86805 -0.06564
# Poissons Ratio (y) = 0.54100 0.20132
# Poissons Ratio (z) = -0.05625 0.27678
#
# Static dielectric constant tensor:
#      x y z
#    x 1.673310 0.000000 0.003030 
#    y 0.000000 1.636950 0.000000 
#    z 0.003030 0.000000 1.689920 
# 
# From -- ./inp_files/316089.got.cif
#   From: 2010.05.17/outbox.cif.g08.bks.cpg/sg15_159_cif.got.tgz:316089.got - 2010.06.03 18:47:42.
