data_PCOD9262362
_publ_section_title
;
Structure prediction by ZEFSAII (Michael W. Deem and Ramdas Pophale) SiO2 
 PCOD9262362
Probable space group: C 2/C
;
_chemical_formula_sum "Si O2"
_cell_formula_units_Z 40
_cell_length_a 13.601014
_cell_length_b 24.813410
_cell_length_c 5.457028
_cell_angle_alpha 90.000000
_cell_angle_beta 80.229316
_cell_angle_gamma 90.000000
_cell_volume 1814.965125
_symmetry_space_group_name_H-M "C 2/C"
_symmetry_group_IT_number 15
_symmetry_cell_setting 'monoclinic'
loop_
_space_group_symop_operation_xyz
x,y,z
-x,y,1/2-z
-x,-y,-z
x,-y,1/2+z
1/2+x,1/2+y,z
1/2-x,1/2+y,1/2-z
1/2-x,1/2-y,-z
1/2+x,1/2-y,1/2+z
loop_
_atom_site_type_symbol
_atom_site_label
_atom_site_fract_x
_atom_site_fract_y
_atom_site_fract_z
Si Si1 0.267966 0.580511 0.842714
Si Si2 0.244867 0.797021 0.192728
Si Si3 0.043012 0.439968 0.479702
Si Si4 0.119780 0.096998 0.219500
Si Si5 0.110498 0.779530 0.628901
O O1 0.232596 0.642727 0.881761
O O2 0.161936 0.551712 0.908706
O O3 0.324730 0.577465 0.554944
O O4 0.337245 0.569982 0.051062
O O5 0.131989 0.795086 0.340516
O O6 0.324831 0.774092 0.353281
O O7 0.250000 0.750000 0.000000
O O8 0.000000 0.412894 0.250000
O O9 0.000000 0.500000 0.500000
O O10 0.000000 0.414205 0.750000
O O11 0.138660 0.162220 0.237654
O O12 0.000000 0.090029 0.250000
O O13 0.000000 0.767874 0.750000
#
# Coordination Sequence:
#
# PCOD9262362 Si02
#       5
#     8   8   8   8   8
#     4  11  21  36  60  85 121 156 202 258 297 360
#     4  10  19  33  48  73 114 152 202 241 297 340
#     4  10  22  42  65  92 120 154 202 249 316 383
#     4  10  20  35  57  86 118 159 203 241 296 363
#     4   9  19  33  48  69 107 160 202 243 291 340
#
# _framework density 22.038989999999998
#
# number of rings (size 3 to 8) (size 9 to 14) (size 15 to 20)
#    0.000    2.000    2.000    1.800    0.000    1.600 
#    3.600    0.000    0.000    0.000    0.000   56.000 
#    0.000    0.000    0.000    0.000    0.000    0.000 
#
# Total GULP energy -111354.777222 kJ/mol
# GULP energy per Si atom -5567.738861 kJ/mol
# Density = 2.198883 g / cm^3
# Si number density = 22.038990 Si / 1000 Ang^3
#
#
#
# Elastic Constant Matrix: (Units=GPa)
#
#
# Indices 1 2 3 4 5 6 
#
# 1 151.1176 29.6432 65.1624 0.0000 -16.8353 0.0000
# 2 29.6432 40.4301 12.5590 0.0000 -11.4155 0.0000
# 3 65.1624 12.5590 141.8503 0.0000 0.0490 0.0000
# 4 0.0000 0.0000 0.0000 4.5882 0.0000 -6.6394
# 5 -16.8353 -11.4155 0.0490 0.0000 41.4051 0.0000
# 6 0.0000 0.0000 0.0000 -6.6394 0.0000 30.3347
#
#
#
# Elastic Compliance Matrix: (Units=1/GPa)
#
#
# Indices 1 2 3 4 5 6 
#
# 1 0.009606 -0.005106 -0.003962 0.000000 0.002503 0.000000
# 2 -0.005106 0.030362 -0.000345 0.000000 0.006295 0.000000
# 3 -0.003962 -0.000345 0.008901 0.000000 -0.001716 0.000000
# 4 0.000000 0.000000 0.000000 0.318980 0.000000 0.069816
# 5 0.002503 0.006295 -0.001716 0.000000 0.026907 0.000000
# 6 0.000000 0.000000 0.000000 0.069816 0.000000 0.048246
#
#
# Mechanical properties :
#
#
# Convention : Reuss Voigt Hill
#
# Bulk Modulus (GPa) = 33.28407 60.90299 47.09353
# Shear Modulus (GPa) = 10.59679 30.33448 20.46564
#
# Velocity S-wave (km/s) = 2.19514 3.71401 3.05062
# Velocity P-wave (km/s) = 4.64327 6.78867 5.81576
#
# Compressibility (1/GPa) = 0.03004440
#
# Stress axis : x y z
#
# Youngs Moduli (GPa) = 104.10194 32.93565 112.35137
#
# Poissons Ratio (x) = 0.16816 0.44509
# Poissons Ratio (y) = 0.53152 0.03875
# Poissons Ratio (z) = 0.41240 0.01136
#
# Static dielectric constant tensor:
#      x y z
#    x 1.810660 0.000000 0.073800 
#    y 0.000000 2.886060 0.000000 
#    z 0.073800 0.000000 2.248450 
# 
# From -- ./inp_files/4896.got.cif
#   From: 2010.05.17/outbox.cif.g08.bks.cpg/sg15_3_cif.got.tgz:4896.got - 2010.06.03 18:47:42.
