data_PCOD9262097
_publ_section_title
;
Structure prediction by ZEFSAII (Michael W. Deem and Ramdas Pophale) SiO2 
 PCOD9262097
Probable space group: C 2/C
;
_chemical_formula_sum "Si O2"
_cell_formula_units_Z 56
_cell_length_a 20.498985
_cell_length_b 12.057658
_cell_length_c 22.203486
_cell_angle_alpha 90.000000
_cell_angle_beta 143.196628
_cell_angle_gamma 90.000000
_cell_volume 3287.718154
_symmetry_space_group_name_H-M "C 2/C"
_symmetry_group_IT_number 15
_symmetry_cell_setting 'monoclinic'
loop_
_space_group_symop_operation_xyz
x,y,z
-x,y,1/2-z
-x,-y,-z
x,-y,1/2+z
1/2+x,1/2+y,z
1/2-x,1/2+y,1/2-z
1/2-x,1/2-y,-z
1/2+x,1/2-y,1/2+z
loop_
_atom_site_type_symbol
_atom_site_label
_atom_site_fract_x
_atom_site_fract_y
_atom_site_fract_z
Si Si1 0.396687 0.500779 0.813726
Si Si2 0.915739 0.067914 0.634501
Si Si3 0.729816 0.009859 0.579259
Si Si4 0.959805 0.389568 0.005619
Si Si5 0.866988 0.790767 0.874842
Si Si6 0.893174 0.740537 0.030353
Si Si7 0.621042 0.252192 0.163306
O O1 0.507623 0.506346 0.856922
O O2 0.296739 0.500731 0.691647
O O3 0.396674 0.396865 0.857502
O O4 0.387258 0.615015 0.843579
O O5 0.820034 0.996392 0.593941
O O6 0.867160 0.174822 0.564366
O O7 0.000000 0.102269 0.750000
O O8 0.680864 0.132916 0.532790
O O9 0.625837 0.929195 0.507484
O O10 0.895635 0.309865 0.911939
O O11 0.000000 0.500000 0.000000
O O12 0.065763 0.316343 0.099576
O O13 0.738672 0.774655 0.775101
O O14 0.891449 0.800410 0.963878
O O15 0.021273 0.710213 0.131378
#
# Coordination Sequence:
#
# PCOD9262097 Si02
#       7
#     8   8   8   8   8   8   8
#     4  10  20  36  56  82 115 145 194 228 283 327
#     4   9  21  35  55  81 112 155 190 229 275 333
#     4  11  18  36  56  79 115 148 187 229 275 349
#     4  11  20  34  55  84 112 145 185 222 292 335
#     4  11  21  33  58  86 113 145 182 242 279 336
#     4  10  20  33  56  86 110 144 189 227 293 328
#     4  10  19  32  53  81 114 140 177 237 278 329
#
# _framework density 17.033090999999999
#
# number of rings (size 3 to 8) (size 9 to 14) (size 15 to 20)
#    0.000    1.714    5.714    0.429    0.000    5.143 
#    0.000    0.714    0.000    0.000    0.000    0.000 
#    0.000    0.000    0.000    0.000    0.000    0.000 
#
# Total GULP energy -155975.690157 kJ/mol
# GULP energy per Si atom -5570.560363 kJ/mol
# Density = 1.699432 g / cm^3
# Si number density = 17.033091 Si / 1000 Ang^3
#
#
#
# Elastic Constant Matrix: (Units=GPa)
#
#
# Indices 1 2 3 4 5 6 
#
# 1 97.9064 46.0398 33.1075 0.0000 4.3360 0.0000
# 2 46.0398 81.7678 22.6377 0.0000 -5.2188 0.0000
# 3 33.1075 22.6377 73.5501 0.0000 14.5220 0.0000
# 4 0.0000 0.0000 0.0000 24.7948 0.0000 2.8818
# 5 4.3360 -5.2188 14.5220 0.0000 21.8887 0.0000
# 6 0.0000 0.0000 0.0000 2.8818 0.0000 30.2413
#
#
#
# Elastic Compliance Matrix: (Units=1/GPa)
#
#
# Indices 1 2 3 4 5 6 
#
# 1 0.015270 -0.007591 -0.004123 0.000000 -0.002099 0.000000
# 2 -0.007591 0.018086 -0.003795 0.000000 0.008334 0.000000
# 3 -0.004123 -0.003795 0.019146 0.000000 -0.012790 0.000000
# 4 0.000000 0.000000 0.000000 0.040783 0.000000 -0.003886
# 5 -0.002099 0.008334 -0.012790 0.000000 0.056574 0.000000
# 6 0.000000 0.000000 0.000000 -0.003886 0.000000 0.033438
#
#
# Mechanical properties :
#
#
# Convention : Reuss Voigt Hill
#
# Bulk Modulus (GPa) = 46.54536 50.75491 48.65014
# Shear Modulus (GPa) = 22.57577 25.48093 24.02835
#
# Velocity S-wave (km/s) = 3.64456 3.87197 3.75998
# Velocity P-wave (km/s) = 6.71537 7.06060 6.89015
#
# Compressibility (1/GPa) = 0.02148442
#
# Stress axis : x y z
#
# Youngs Moduli (GPa) = 65.48587 55.29017 52.23137
#
# Poissons Ratio (x) = 0.41969 0.21535
# Poissons Ratio (y) = 0.49708 0.19824
# Poissons Ratio (z) = 0.27000 0.20985
#
# Static dielectric constant tensor:
#      x y z
#    x 1.600590 0.000000 0.027820 
#    y 0.000000 1.566190 0.000000 
#    z 0.027820 0.000000 1.616510 
# 
# From -- ./inp_files/279817.got.cif
#   From: 2010.05.17/outbox.cif.g08.bks.cpg/sg15_140_cif.got.tgz:279817.got - 2010.06.03 18:47:42.
