data_PCOD9262948
_publ_section_title
;
Structure prediction by ZEFSAII (Michael W. Deem and Ramdas Pophale) SiO2 
 PCOD9262948
Probable space group: C 2/C
;
_chemical_formula_sum "Si O2"
_cell_formula_units_Z 48
_cell_length_a 15.629563
_cell_length_b 12.046909
_cell_length_c 16.868929
_cell_angle_alpha 90.000000
_cell_angle_beta 132.125835
_cell_angle_gamma 90.000000
_cell_volume 2355.714839
_symmetry_space_group_name_H-M "C 2/C"
_symmetry_group_IT_number 15
_symmetry_cell_setting 'monoclinic'
loop_
_space_group_symop_operation_xyz
x,y,z
-x,y,1/2-z
-x,-y,-z
x,-y,1/2+z
1/2+x,1/2+y,z
1/2-x,1/2+y,1/2-z
1/2-x,1/2-y,-z
1/2+x,1/2-y,1/2+z
loop_
_atom_site_type_symbol
_atom_site_label
_atom_site_fract_x
_atom_site_fract_y
_atom_site_fract_z
Si Si1 0.352674 0.908778 0.341396
Si Si2 0.606620 0.389022 0.153511
Si Si3 0.575829 0.861334 0.585509
Si Si4 0.900869 0.047831 0.029929
Si Si5 0.983784 0.257654 0.325442
Si Si6 0.198216 0.368239 0.495837
O O1 0.217813 0.910424 0.277110
O O2 0.447389 0.876431 0.467583
O O3 0.367554 0.813378 0.283386
O O4 0.392710 0.032268 0.342193
O O5 0.587431 0.258147 0.131330
O O6 0.488827 0.449760 0.103746
O O7 0.634037 0.444459 0.084013
O O8 0.667873 0.870580 0.569527
O O9 0.972417 0.162869 0.088053
O O10 0.789426 0.047212 0.017065
O O11 0.000000 0.204657 0.250000
O O12 0.072022 0.361767 0.379088
O O13 0.250000 0.250000 0.500000
#
# Coordination Sequence:
#
# PCOD9262948 Si02
#       6
#     8   8   8   8   8   8
#     4  10  22  35  57  83 111 165 193 239 303 361
#     4  11  21  34  57  85 124 151 191 253 297 350
#     4  10  21  39  56  82 122 152 204 238 296 363
#     4  10  21  33  52  93 117 143 191 252 299 337
#     4  10  19  33  58  84 114 150 200 241 298 347
#     4   9  16  33  53  78 113 148 179 250 286 332
#
# _framework density 20.375982
#
# number of rings (size 3 to 8) (size 9 to 14) (size 15 to 20)
#    0.000    2.000    5.000    1.000    4.667    0.000 
#    0.000    0.000    0.000   12.000    0.000    0.000 
#    0.000    0.000    0.000    0.000    0.000    0.000 
#
# Total GULP energy -133669.595820 kJ/mol
# GULP energy per Si atom -5569.566493 kJ/mol
# Density = 2.032961 g / cm^3
# Si number density = 20.375982 Si / 1000 Ang^3
#
#
#
# Elastic Constant Matrix: (Units=GPa)
#
#
# Indices 1 2 3 4 5 6 
#
# 1 54.9797 10.3217 11.2084 0.0000 15.5414 0.0000
# 2 10.3217 92.0559 34.6328 0.0000 22.8032 0.0000
# 3 11.2084 34.6328 65.3483 0.0000 22.1953 0.0000
# 4 0.0000 0.0000 0.0000 20.8258 0.0000 5.5929
# 5 15.5414 22.8032 22.1953 0.0000 30.2799 0.0000
# 6 0.0000 0.0000 0.0000 5.5929 0.0000 27.3055
#
#
#
# Elastic Compliance Matrix: (Units=1/GPa)
#
#
# Indices 1 2 3 4 5 6 
#
# 1 0.021287 0.000410 -0.000070 0.000000 -0.011183 0.000000
# 2 0.000410 0.014640 -0.005343 0.000000 -0.007319 0.000000
# 3 -0.000070 -0.005343 0.022326 0.000000 -0.012305 0.000000
# 4 0.000000 0.000000 0.000000 0.050812 0.000000 -0.010408
# 5 -0.011183 -0.007319 -0.012305 0.000000 0.053296 0.000000
# 6 0.000000 0.000000 0.000000 -0.010408 0.000000 0.038755
#
#
# Mechanical properties :
#
#
# Convention : Reuss Voigt Hill
#
# Bulk Modulus (GPa) = 20.72720 36.07885 28.40303
# Shear Modulus (GPa) = 22.00650 26.09698 24.05174
#
# Velocity S-wave (km/s) = 3.28993 3.58267 3.43942
# Velocity P-wave (km/s) = 4.96246 5.90415 5.45367
#
# Compressibility (1/GPa) = 0.04824579
#
# Stress axis : x y z
#
# Youngs Moduli (GPa) = 46.97688 68.30493 44.79118
#
# Poissons Ratio (x) = -0.02798 0.00313
# Poissons Ratio (y) = -0.01924 0.23934
# Poissons Ratio (z) = 0.00329 0.36498
#
# Static dielectric constant tensor:
#      x y z
#    x 1.812060 0.000000 -0.034380 
#    y 0.000000 1.742410 0.000000 
#    z -0.034380 0.000000 1.829600 
# 
# From -- ./inp_files/248464.got.cif
#   From: 2010.05.17/outbox.cif.g08.bks.cpg/sg15_125_cif.got.tgz:248464.got - 2010.06.03 18:47:42.
