data_PCOD9262446
_publ_section_title
;
Structure prediction by ZEFSAII (Michael W. Deem and Ramdas Pophale) SiO2 
 PCOD9262446
Probable space group: C 2/C
;
_chemical_formula_sum "Si O2"
_cell_formula_units_Z 64
_cell_length_a 21.636682
_cell_length_b 17.297075
_cell_length_c 7.452805
_cell_angle_alpha 90.000000
_cell_angle_beta 81.966807
_cell_angle_gamma 90.000000
_cell_volume 2761.852178
_symmetry_space_group_name_H-M "C 2/C"
_symmetry_group_IT_number 15
_symmetry_cell_setting 'monoclinic'
loop_
_space_group_symop_operation_xyz
x,y,z
-x,y,1/2-z
-x,-y,-z
x,-y,1/2+z
1/2+x,1/2+y,z
1/2-x,1/2+y,1/2-z
1/2-x,1/2-y,-z
1/2+x,1/2-y,1/2+z
loop_
_atom_site_type_symbol
_atom_site_label
_atom_site_fract_x
_atom_site_fract_y
_atom_site_fract_z
Si Si1 0.890109 0.450910 0.128084
Si Si2 0.126723 0.380551 0.975657
Si Si3 0.758943 0.113947 0.463712
Si Si4 0.494682 0.840982 0.963092
Si Si5 0.608785 0.393515 0.516906
Si Si6 0.018583 0.825656 0.027573
Si Si7 0.257354 0.064059 0.616138
Si Si8 0.873523 0.926806 0.412029
O O1 0.874863 0.418601 0.328514
O O2 0.829629 0.424370 0.035206
O O3 0.889233 0.543586 0.136318
O O4 0.955953 0.413760 0.049196
O O5 0.195502 0.345136 0.921361
O O6 0.066067 0.328260 0.993103
O O7 0.829412 0.144864 0.419974
O O8 0.751903 0.098059 0.680984
O O9 0.752600 0.028779 0.376864
O O10 0.500000 0.849869 0.750000
O O11 0.461008 0.761251 0.025399
O O12 0.541639 0.353923 0.558406
O O13 0.618151 0.400745 0.297410
O O14 0.611256 0.482324 0.582175
O O15 0.076677 0.882828 0.987526
O O16 0.000000 0.825119 0.250000
O O17 0.199332 0.090465 0.517549
#
# Coordination Sequence:
#
# PCOD9262446 Si02
#       8
#     8   8   8   8   8   8   8   8
#     4  10  19  33  52  74  96 122 155 196 240 284
#     4  10  19  33  52  74  96 122 155 196 240 284
#     4   8  15  27  47  72  97 120 149 190 236 279
#     4  11  22  35  48  66  94 131 166 197 232 278
#     4   9  16  30  51  75  98 124 157 194 233 279
#     4   9  19  33  49  68  97 133 164 191 230 280
#     4   8  15  27  47  72  97 120 149 190 236 279
#     4   9  16  30  51  75  98 124 157 194 233 279
#
# _framework density 23.172854000000001
#
# number of rings (size 3 to 8) (size 9 to 14) (size 15 to 20)
#    0.000    2.750    0.000    1.875    0.000    1.000 
#    0.000    3.750    0.000    0.000    0.000    0.000 
#    0.000    0.000    0.000    0.000    0.000    0.000 
#
# Total GULP energy -178428.196561 kJ/mol
# GULP energy per Si atom -5575.881143 kJ/mol
# Density = 2.312011 g / cm^3
# Si number density = 23.172854 Si / 1000 Ang^3
#
#
#
# Elastic Constant Matrix: (Units=GPa)
#
#
# Indices 1 2 3 4 5 6 
#
# 1 149.2140 17.0573 22.7344 0.0000 14.7876 0.0000
# 2 17.0573 27.2156 -0.2961 0.0000 5.9527 0.0000
# 3 22.7344 -0.2961 38.1671 0.0000 2.1813 0.0000
# 4 0.0000 0.0000 0.0000 6.7025 0.0000 -8.3203
# 5 14.7876 5.9527 2.1813 0.0000 19.9708 0.0000
# 6 0.0000 0.0000 0.0000 -8.3203 0.0000 -17.7152
#
#
#
# Elastic Compliance Matrix: (Units=1/GPa)
#
#
# Indices 1 2 3 4 5 6 
#
# 1 0.008356 -0.004332 -0.004761 0.000000 -0.004376 0.000000
# 2 -0.004332 0.041588 0.003450 0.000000 -0.009566 0.000000
# 3 -0.004761 0.003450 0.029102 0.000000 -0.000682 0.000000
# 4 0.000000 0.000000 0.000000 0.094248 0.000000 -0.044265
# 5 -0.004376 -0.009566 -0.000682 0.000000 0.056239 0.000000
# 6 0.000000 0.000000 0.000000 -0.044265 0.000000 -0.035658
#
#
# Mechanical properties :
#
#
# Convention : Reuss Voigt Hill
#
# Bulk Modulus (GPa) = 14.75785 32.62086 23.68935
# Shear Modulus (GPa) = 21.95411 13.46502 17.70956
#
# Velocity S-wave (km/s) = 3.08134 2.41315 2.76748
# Velocity P-wave (km/s) = 4.36371 4.67677 4.52295
#
# Compressibility (1/GPa) = 0.06776056
#
# Stress axis : x y z
#
# Youngs Moduli (GPa) = 119.67423 24.04521 34.36176
#
# Poissons Ratio (x) = 0.10416 0.16359
# Poissons Ratio (y) = 0.51840 -0.11853
# Poissons Ratio (z) = 0.56975 -0.08295
#
# Static dielectric constant tensor:
#      x y z
#    x 2.025530 0.000000 0.013300 
#    y 0.000000 1.899750 0.000000 
#    z 0.013300 0.000000 1.884980 
# 
# From -- ./inp_files/56616.got.cif
#   From: 2010.05.17/outbox.cif.g08.bks.cpg/sg15_29_cif.got.tgz:56616.got - 2010.06.03 18:47:42.
