data_PCOD9262065
_publ_section_title
;
Structure prediction by ZEFSAII (Michael W. Deem and Ramdas Pophale) SiO2 
 PCOD9262065
Probable space group: C 2/C
;
_chemical_formula_sum "Si O2"
_cell_formula_units_Z 44
_cell_length_a 11.359603
_cell_length_b 29.501575
_cell_length_c 5.093992
_cell_angle_alpha 90.000000
_cell_angle_beta 88.789142
_cell_angle_gamma 90.000000
_cell_volume 1706.748872
_symmetry_space_group_name_H-M "C 2/C"
_symmetry_group_IT_number 15
_symmetry_cell_setting 'monoclinic'
loop_
_space_group_symop_operation_xyz
x,y,z
-x,y,1/2-z
-x,-y,-z
x,-y,1/2+z
1/2+x,1/2+y,z
1/2-x,1/2+y,1/2-z
1/2-x,1/2-y,-z
1/2+x,1/2-y,1/2+z
loop_
_atom_site_type_symbol
_atom_site_label
_atom_site_fract_x
_atom_site_fract_y
_atom_site_fract_z
Si Si1 0.150216 0.732775 0.215577
Si Si2 0.500000 0.032211 0.750000
Si Si3 0.157389 0.873793 0.069983
Si Si4 0.230983 0.968655 0.194446
Si Si5 0.358533 0.682826 0.430553
Si Si6 0.430515 0.146159 0.496703
O O1 0.221499 0.697751 0.398890
O O2 0.101762 0.772121 0.410122
O O3 0.068648 0.700765 0.042663
O O4 0.250000 0.750000 0.000000
O O5 0.500000 0.000000 0.500000
O O6 0.634029 0.050980 0.778737
O O7 0.147664 0.927918 0.093063
O O8 0.127716 0.856389 0.359805
O O9 0.105529 0.838411 0.854643
O O10 0.295350 0.866160 0.012078
O O11 0.214919 0.991626 0.479704
O O12 0.500000 0.124779 0.250000
O O13 0.500000 0.134015 0.750000
#
# Coordination Sequence:
#
# PCOD9262065 Si02
#       6
#     8   4   8   8   8   8
#     4  10  19  35  54  66  97 128 163 197 246 310
#     4   8  16  30  42  56  74 114 162 186 232 298
#     4  11  21  34  49  71  95 122 170 215 249 284
#     4  10  20  34  47  62  88 125 162 205 254 293
#     4  10  19  32  53  71  85 123 165 202 235 296
#     4  11  23  33  47  74 100 124 161 218 256 271
#
# _framework density 25.780006
#
# number of rings (size 3 to 8) (size 9 to 14) (size 15 to 20)
#    0.000    1.818    3.636    3.273    3.818    0.000 
#    6.545    0.000    0.000    0.000    0.000    0.000 
#    0.000    0.000    0.000    0.000    0.000   63.636 
#
# Total GULP energy -122673.588442 kJ/mol
# GULP energy per Si atom -5576.072202 kJ/mol
# Density = 2.572133 g / cm^3
# Si number density = 25.780006 Si / 1000 Ang^3
#
#
#
# Elastic Constant Matrix: (Units=GPa)
#
#
# Indices 1 2 3 4 5 6 
#
# 1 42.5435 -8.3377 14.7141 0.0000 6.7830 0.0000
# 2 -8.3377 117.6440 18.8162 0.0000 6.0950 0.0000
# 3 14.7141 18.8162 176.8547 0.0000 0.5474 0.0000
# 4 0.0000 0.0000 0.0000 12.1056 0.0000 -5.3164
# 5 6.7830 6.0950 0.5474 0.0000 44.5354 0.0000
# 6 0.0000 0.0000 0.0000 -5.3164 0.0000 33.1223
#
#
#
# Elastic Compliance Matrix: (Units=1/GPa)
#
#
# Indices 1 2 3 4 5 6 
#
# 1 0.025458 0.002398 -0.002360 0.000000 -0.004177 0.000000
# 2 0.002398 0.008935 -0.001145 0.000000 -0.001574 0.000000
# 3 -0.002360 -0.001145 0.005971 0.000000 0.000443 0.000000
# 4 0.000000 0.000000 0.000000 0.088871 0.000000 0.014264
# 5 -0.004177 -0.001574 0.000443 0.000000 0.023300 0.000000
# 6 0.000000 0.000000 0.000000 0.014264 0.000000 0.032481
#
#
# Mechanical properties :
#
#
# Convention : Reuss Voigt Hill
#
# Bulk Modulus (GPa) = 26.21311 43.04748 34.63030
# Shear Modulus (GPa) = 25.00670 38.74263 31.87467
#
# Velocity S-wave (km/s) = 3.11787 3.88082 3.52008
# Velocity P-wave (km/s) = 4.81160 6.06756 5.47571
#
# Compressibility (1/GPa) = 0.03814885
#
# Stress axis : x y z
#
# Youngs Moduli (GPa) = 39.28111 111.92060 167.47037
#
# Poissons Ratio (x) = -0.26840 0.39527
# Poissons Ratio (y) = -0.09420 0.19180
# Poissons Ratio (z) = 0.09271 0.12818
#
# Static dielectric constant tensor:
#      x y z
#    x 2.256400 0.000000 0.019550 
#    y 0.000000 2.073770 0.000000 
#    z 0.019550 0.000000 2.011960 
# 
# From -- ./inp_files/8539.got.cif
#   From: 2010.05.17/outbox.cif.g08.bks.cpg/sg15_5_cif.got.tgz:8539.got - 2010.06.03 18:47:42.
