data_PCOD9262238
_publ_section_title
;
Structure prediction by ZEFSAII (Michael W. Deem and Ramdas Pophale) SiO2 
 PCOD9262238
Probable space group: C 2/C
;
_chemical_formula_sum "Si O2"
_cell_formula_units_Z 52
_cell_length_a 12.446428
_cell_length_b 12.796674
_cell_length_c 15.312695
_cell_angle_alpha 90.000000
_cell_angle_beta 102.796622
_cell_angle_gamma 90.000000
_cell_volume 2378.320743
_symmetry_space_group_name_H-M "C 2/C"
_symmetry_group_IT_number 15
_symmetry_cell_setting 'monoclinic'
loop_
_space_group_symop_operation_xyz
x,y,z
-x,y,1/2-z
-x,-y,-z
x,-y,1/2+z
1/2+x,1/2+y,z
1/2-x,1/2+y,1/2-z
1/2-x,1/2-y,-z
1/2+x,1/2-y,1/2+z
loop_
_atom_site_type_symbol
_atom_site_label
_atom_site_fract_x
_atom_site_fract_y
_atom_site_fract_z
Si Si1 0.877659 0.875508 0.488243
Si Si2 0.818602 0.608280 0.202857
Si Si3 0.000000 0.015440 0.750000
Si Si4 0.127321 0.124685 0.031605
Si Si5 0.222717 0.631286 0.795269
Si Si6 0.871033 0.817526 0.152925
Si Si7 0.178672 0.155577 0.325804
O O1 0.807249 0.846626 0.390610
O O2 0.820524 0.850697 0.570149
O O3 0.002777 0.833359 0.518799
O O4 0.882348 0.000648 0.482468
O O5 0.707127 0.637585 0.128256
O O6 0.830359 0.483177 0.199832
O O7 0.898565 0.696772 0.177795
O O8 0.794605 0.634533 0.299137
O O9 0.026001 0.100722 0.829606
O O10 0.100908 0.936064 0.773950
O O11 0.177677 0.168925 0.951455
O O12 0.290463 0.641716 0.716179
O O13 0.141769 0.729745 0.787890
#
# Coordination Sequence:
#
# PCOD9262238 Si02
#       7
#     8   8   4   8   8   8   8
#     4  10  19  32  56  85 111 144 189 236 277 330
#     4  10  21  36  55  84 116 152 187 229 288 336
#     4  12  20  36  60  84 106 148 190 232 278 330
#     4  10  19  32  56  85 111 144 189 236 277 330
#     4  10  21  36  55  84 116 152 187 229 288 336
#     4  11  21  35  57  83 117 146 189 240 275 334
#     4  11  21  35  57  83 117 146 189 240 275 334
#
# _framework density 21.864165
#
# number of rings (size 3 to 8) (size 9 to 14) (size 15 to 20)
#    0.000    1.538    3.077    2.769    4.308    0.000 
#    0.000    0.769    0.000    0.923    0.000    0.000 
#    0.000    0.000    0.000    0.000    0.000    0.000 
#
# Total GULP energy -144870.967044 kJ/mol
# GULP energy per Si atom -5571.960271 kJ/mol
# Density = 2.181440 g / cm^3
# Si number density = 21.864165 Si / 1000 Ang^3
#
#
#
# Elastic Constant Matrix: (Units=GPa)
#
#
# Indices 1 2 3 4 5 6 
#
# 1 33.0249 25.7575 33.1445 0.0000 -2.6329 0.0000
# 2 25.7575 171.5770 19.3146 0.0000 8.0124 0.0000
# 3 33.1445 19.3146 131.5041 0.0000 -19.0270 0.0000
# 4 0.0000 0.0000 0.0000 34.5527 0.0000 -1.3977
# 5 -2.6329 8.0124 -19.0270 0.0000 23.6196 0.0000
# 6 0.0000 0.0000 0.0000 -1.3977 0.0000 9.9635
#
#
#
# Elastic Compliance Matrix: (Units=1/GPa)
#
#
# Indices 1 2 3 4 5 6 
#
# 1 0.045349 -0.005495 -0.010891 0.000000 -0.001854 0.000000
# 2 -0.005495 0.006795 -0.000040 0.000000 -0.002950 0.000000
# 3 -0.010891 -0.000040 0.011525 0.000000 0.008083 0.000000
# 4 0.000000 0.000000 0.000000 0.029106 0.000000 0.004083
# 5 -0.001854 -0.002950 0.008083 0.000000 0.049643 0.000000
# 6 0.000000 0.000000 0.000000 0.004083 0.000000 0.100939
#
#
# Mechanical properties :
#
#
# Convention : Reuss Voigt Hill
#
# Bulk Modulus (GPa) = 32.44980 54.72658 43.58819
# Shear Modulus (GPa) = 17.45314 30.81980 24.13647
#
# Velocity S-wave (km/s) = 2.82840 3.75854 3.32615
# Velocity P-wave (km/s) = 5.05374 6.62723 5.89323
#
# Compressibility (1/GPa) = 0.03081683
#
# Stress axis : x y z
#
# Youngs Moduli (GPa) = 22.05139 147.15634 86.77036
#
# Poissons Ratio (x) = 0.80866 0.94500
# Poissons Ratio (y) = 0.12118 0.00346
# Poissons Ratio (z) = 0.24016 0.00587
#
# Static dielectric constant tensor:
#      x y z
#    x 1.919270 0.000000 0.049860 
#    y 0.000000 1.856860 0.000000 
#    z 0.049860 0.000000 1.844580 
# 
# From -- ./inp_files/203605.got.cif
#   From: 2010.05.17/outbox.cif.g08.bks.cpg/sg15_102_cif.got.tgz:203605.got - 2010.06.03 18:47:42.
