data_PCOD9262885
_publ_section_title
;
Structure prediction by ZEFSAII (Michael W. Deem and Ramdas Pophale) SiO2 
 PCOD9262885
Probable space group: C 2/C
;
_chemical_formula_sum "Si O2"
_cell_formula_units_Z 64
_cell_length_a 5.262157
_cell_length_b 25.666109
_cell_length_c 24.882204
_cell_angle_alpha 90.000000
_cell_angle_beta 102.621562
_cell_angle_gamma 90.000000
_cell_volume 3279.358486
_symmetry_space_group_name_H-M "C 2/C"
_symmetry_group_IT_number 15
_symmetry_cell_setting 'monoclinic'
loop_
_space_group_symop_operation_xyz
x,y,z
-x,y,1/2-z
-x,-y,-z
x,-y,1/2+z
1/2+x,1/2+y,z
1/2-x,1/2+y,1/2-z
1/2-x,1/2-y,-z
1/2+x,1/2-y,1/2+z
loop_
_atom_site_type_symbol
_atom_site_label
_atom_site_fract_x
_atom_site_fract_y
_atom_site_fract_z
Si Si1 0.143727 0.702604 0.059576
Si Si2 0.885934 0.966432 0.920958
Si Si3 0.816633 0.253921 0.393969
Si Si4 0.779374 0.326292 0.693951
Si Si5 0.481309 0.432773 0.691926
Si Si6 0.464642 0.891879 0.885416
Si Si7 0.170242 0.354627 0.048556
Si Si8 0.335899 0.578331 0.967788
O O1 0.418324 0.731750 0.065327
O O2 0.218976 0.647017 0.090394
O O3 0.947685 0.736620 0.087021
O O4 0.961526 0.682711 0.002759
O O5 0.913490 0.957176 0.858480
O O6 0.642015 0.930459 0.927121
O O7 0.110665 0.942918 0.969266
O O8 0.858411 0.026688 0.932737
O O9 0.826361 0.228626 0.334210
O O10 0.807862 0.316228 0.399337
O O11 0.596143 0.374051 0.703565
O O12 0.000000 0.319350 0.750000
O O13 0.876447 0.351217 0.642587
O O14 0.500000 0.460318 0.750000
O O15 0.180868 0.426177 0.664698
O O16 0.440604 0.380084 0.040124
O O17 0.950236 0.397670 0.049046
#
# Coordination Sequence:
#
# PCOD9262885 Si02
#       8
#     8   8   8   8   8   8   8   8
#     4  11  20  36  56  87 122 158 192 238 292 361
#     4  10  24  38  59  90 118 161 198 251 310 362
#     4  11  23  36  58  85 122 160 197 241 293 355
#     4  10  20  34  52  88 118 151 192 239 299 361
#     4  11  20  35  61  89 120 152 191 248 306 368
#     4  10  19  33  57  83 123 149 189 239 305 359
#     4  12  23  39  58  87 119 166 204 244 291 349
#     4  11  25  41  62  86 123 162 207 250 295 360
#
# _framework density 19.516012
#
# number of rings (size 3 to 8) (size 9 to 14) (size 15 to 20)
#    0.000    1.250    3.750    3.000    3.500    1.000 
#    0.000    0.000    0.000    0.750    0.000    0.000 
#    0.000    0.000    0.000    0.000    0.000    0.000 
#
# Total GULP energy -178192.936404 kJ/mol
# GULP energy per Si atom -5568.529263 kJ/mol
# Density = 1.947159 g / cm^3
# Si number density = 19.516012 Si / 1000 Ang^3
#
#
#
# Elastic Constant Matrix: (Units=GPa)
#
#
# Indices 1 2 3 4 5 6 
#
# 1 55.2709 12.7138 7.9598 0.0000 -5.4751 0.0000
# 2 12.7138 76.2163 30.8231 0.0000 -10.5003 0.0000
# 3 7.9598 30.8231 66.6138 0.0000 -9.1613 0.0000
# 4 0.0000 0.0000 0.0000 57.2877 0.0000 -33.0216
# 5 -5.4751 -10.5003 -9.1613 0.0000 24.5823 0.0000
# 6 0.0000 0.0000 0.0000 -33.0216 0.0000 56.2626
#
#
#
# Elastic Compliance Matrix: (Units=1/GPa)
#
#
# Indices 1 2 3 4 5 6 
#
# 1 0.019057 -0.002484 -0.000727 0.000000 0.002913 0.000000
# 2 -0.002484 0.016915 -0.006970 0.000000 0.004075 0.000000
# 3 -0.000727 -0.006970 0.018859 0.000000 0.003889 0.000000
# 4 0.000000 0.000000 0.000000 0.026381 0.000000 0.015483
# 5 0.002913 0.004075 0.003889 0.000000 0.044518 0.000000
# 6 0.000000 0.000000 0.000000 0.015483 0.000000 0.026861
#
#
# Mechanical properties :
#
#
# Convention : Reuss Voigt Hill
#
# Bulk Modulus (GPa) = 29.01109 33.45494 31.23301
# Shear Modulus (GPa) = 27.10882 37.40013 32.25447
#
# Velocity S-wave (km/s) = 3.73105 4.38240 4.06977
# Velocity P-wave (km/s) = 5.78433 6.54116 6.17435
#
# Compressibility (1/GPa) = 0.03446958
#
# Stress axis : x y z
#
# Youngs Moduli (GPa) = 52.47340 59.11984 53.02616
#
# Poissons Ratio (x) = 0.14683 0.03857
# Poissons Ratio (y) = 0.13032 0.36957
# Poissons Ratio (z) = 0.03817 0.41204
#
# Static dielectric constant tensor:
#      x y z
#    x 1.656100 0.000000 0.185730 
#    y 0.000000 1.704910 0.000000 
#    z 0.185730 0.000000 1.360770 
# 
# From -- ./inp_files/286622.got.cif
#   From: 2010.05.17/outbox.cif.g08.bks.cpg/sg15_144_cif.got.tgz:286622.got - 2010.06.03 18:47:42.
