data_PCOD9262079
_publ_section_title
;
Structure prediction by ZEFSAII (Michael W. Deem and Ramdas Pophale) SiO2 
 PCOD9262079
Probable space group: C 2/C
;
_chemical_formula_sum "Si O2"
_cell_formula_units_Z 48
_cell_length_a 30.262200
_cell_length_b 13.702583
_cell_length_c 8.649509
_cell_angle_alpha 90.000000
_cell_angle_beta 37.675930
_cell_angle_gamma 90.000000
_cell_volume 2192.168317
_symmetry_space_group_name_H-M "C 2/C"
_symmetry_group_IT_number 15
_symmetry_cell_setting 'monoclinic'
loop_
_space_group_symop_operation_xyz
x,y,z
-x,y,1/2-z
-x,-y,-z
x,-y,1/2+z
1/2+x,1/2+y,z
1/2-x,1/2+y,1/2-z
1/2-x,1/2-y,-z
1/2+x,1/2-y,1/2+z
loop_
_atom_site_type_symbol
_atom_site_label
_atom_site_fract_x
_atom_site_fract_y
_atom_site_fract_z
Si Si1 0.224949 0.362217 0.609185
Si Si2 0.302622 0.490186 0.660949
Si Si3 0.957771 0.366142 0.713640
Si Si4 0.829455 0.130372 0.348204
Si Si5 0.660139 0.156282 0.764007
Si Si6 0.416463 0.908715 0.318933
O O1 0.250000 0.250000 0.500000
O O2 0.264209 0.413567 0.650049
O O3 0.248960 0.436811 0.405631
O O4 0.140590 0.370194 0.896558
O O5 0.349918 0.566510 0.435194
O O6 0.352630 0.425830 0.632147
O O7 0.942191 0.481452 0.778921
O O8 0.000000 0.330543 0.750000
O O9 0.008998 0.351164 0.425464
O O10 0.878027 0.325905 0.964885
O O11 0.741685 0.127131 0.571584
O O12 0.845763 0.242389 0.310121
O O13 0.622570 0.086299 0.742646
#
# Coordination Sequence:
#
# PCOD9262079 Si02
#       6
#     8   8   8   8   8   8
#     4  11  22  36  56  83 117 155 193 240 296 347
#     4  10  21  35  51  83 113 146 188 244 286 341
#     4   9  19  33  54  82 117 153 189 229 297 356
#     4  10  20  34  55  78 113 148 193 234 290 333
#     4  10  19  32  53  79 109 154 188 226 281 357
#     4  10  19  34  52  82 116 150 188 233 282 357
#
# _framework density 21.896129999999999
#
# number of rings (size 3 to 8) (size 9 to 14) (size 15 to 20)
#    0.000    2.000    1.667    3.000    4.667    0.000 
#    0.000    0.000    0.000    0.000    0.000   31.500 
#    0.000    0.000    0.000    0.000    0.000    0.000 
#
# Total GULP energy -133650.818123 kJ/mol
# GULP energy per Si atom -5568.784088 kJ/mol
# Density = 2.184629 g / cm^3
# Si number density = 21.896130 Si / 1000 Ang^3
#
#
#
# Elastic Constant Matrix: (Units=GPa)
#
#
# Indices 1 2 3 4 5 6 
#
# 1 38.7664 10.9727 11.0562 0.0000 15.9970 0.0000
# 2 10.9727 94.8179 13.5988 0.0000 10.3558 0.0000
# 3 11.0562 13.5988 66.2302 0.0000 13.6214 0.0000
# 4 0.0000 0.0000 0.0000 25.0286 0.0000 8.1240
# 5 15.9970 10.3558 13.6214 0.0000 27.4625 0.0000
# 6 0.0000 0.0000 0.0000 8.1240 0.0000 16.7758
#
#
#
# Elastic Compliance Matrix: (Units=1/GPa)
#
#
# Indices 1 2 3 4 5 6 
#
# 1 0.034413 -0.001725 -0.001561 0.000000 -0.018621 0.000000
# 2 -0.001725 0.011234 -0.001508 0.000000 -0.002484 0.000000
# 3 -0.001561 -0.001508 0.017111 0.000000 -0.007009 0.000000
# 4 0.000000 0.000000 0.000000 0.047406 0.000000 -0.022957
# 5 -0.018621 -0.002484 -0.007009 0.000000 0.051673 0.000000
# 6 0.000000 0.000000 0.000000 -0.022957 0.000000 0.070727
#
#
# Mechanical properties :
#
#
# Convention : Reuss Voigt Hill
#
# Bulk Modulus (GPa) = 18.80758 30.11888 24.46323
# Shear Modulus (GPa) = 19.24013 24.79916 22.01964
#
# Velocity S-wave (km/s) = 2.96750 3.36904 3.17462
# Velocity P-wave (km/s) = 4.51105 5.37765 4.96330
#
# Compressibility (1/GPa) = 0.05317004
#
# Stress axis : x y z
#
# Youngs Moduli (GPa) = 29.05894 89.01845 58.44344
#
# Poissons Ratio (x) = 0.15354 0.09122
# Poissons Ratio (y) = 0.05012 0.08812
# Poissons Ratio (z) = 0.04536 0.13423
#
# Static dielectric constant tensor:
#      x y z
#    x 1.883250 0.000000 0.022850 
#    y 0.000000 1.821170 0.000000 
#    z 0.022850 0.000000 1.994040 
# 
# From -- ./inp_files/69844.got.cif
#   From: 2010.05.17/outbox.cif.g08.bks.cpg/sg15_35_cif.got.tgz:69844.got - 2010.06.03 18:47:42.
