data_PCOD9262153
_publ_section_title
;
Structure prediction by ZEFSAII (Michael W. Deem and Ramdas Pophale) SiO2 
 PCOD9262153
Probable space group: C 2/C
;
_chemical_formula_sum "Si O2"
_cell_formula_units_Z 56
_cell_length_a 12.071436
_cell_length_b 18.018658
_cell_length_c 23.197861
_cell_angle_alpha 90.000000
_cell_angle_beta 37.057306
_cell_angle_gamma 90.000000
_cell_volume 3040.662213
_symmetry_space_group_name_H-M "C 2/C"
_symmetry_group_IT_number 15
_symmetry_cell_setting 'monoclinic'
loop_
_space_group_symop_operation_xyz
x,y,z
-x,y,1/2-z
-x,-y,-z
x,-y,1/2+z
1/2+x,1/2+y,z
1/2-x,1/2+y,1/2-z
1/2-x,1/2-y,-z
1/2+x,1/2-y,1/2+z
loop_
_atom_site_type_symbol
_atom_site_label
_atom_site_fract_x
_atom_site_fract_y
_atom_site_fract_z
Si Si1 0.500000 0.329115 0.250000
Si Si2 0.736758 0.346714 0.729191
Si Si3 0.184804 0.415590 0.913369
Si Si4 0.286953 0.296593 0.638268
Si Si5 0.000000 0.262447 0.250000
Si Si6 0.745957 0.069000 0.934030
Si Si7 0.837708 0.676016 0.435978
Si Si8 0.201663 0.250570 0.953032
O O1 0.340923 0.274246 0.291529
O O2 0.606431 0.381564 0.161197
O O3 0.737031 0.416037 0.684803
O O4 0.696304 0.350804 0.813804
O O5 0.605878 0.285858 0.754547
O O6 0.947533 0.320481 0.638787
O O7 0.272148 0.481589 0.913993
O O8 0.227197 0.334912 0.920771
O O9 0.962394 0.420128 0.004110
O O10 0.193406 0.327265 0.619287
O O11 0.489547 0.271116 0.535796
O O12 0.837152 0.298136 0.356017
O O13 0.739987 0.103184 0.000186
O O14 0.750000 0.750000 0.500000
O O15 0.250000 0.250000 0.000000
#
# Coordination Sequence:
#
# PCOD9262153 Si02
#       8
#     4   8   8   8   4   8   8   8
#     4  12  20  33  56  88 119 148 184 248 300 345
#     4  10  19  32  54  83 110 149 191 240 290 347
#     4   9  20  37  54  82 115 152 196 238 283 355
#     4  12  20  34  57  90 119 144 195 251 300 351
#     4  10  20  33  52  80 109 150 196 232 284 347
#     4  10  20  34  55  85 115 150 189 237 295 348
#     4  11  18  33  55  83 117 148 188 243 298 349
#     4  11  21  36  57  83 113 155 198 245 289 349
#
# _framework density 18.417041000000001
#
# number of rings (size 3 to 8) (size 9 to 14) (size 15 to 20)
#    0.000    1.429    5.714    1.714    0.000    2.286 
#    0.000    0.000    0.000    0.857   18.571    0.000 
#    0.000    0.000    0.000    0.000    0.000    0.000 
#
# Total GULP energy -155970.736390 kJ/mol
# GULP energy per Si atom -5570.383443 kJ/mol
# Density = 1.837512 g / cm^3
# Si number density = 18.417041 Si / 1000 Ang^3
#
#
#
# Elastic Constant Matrix: (Units=GPa)
#
#
# Indices 1 2 3 4 5 6 
#
# 1 87.9786 15.3156 29.4387 -0.0011 9.3973 0.0002
# 2 15.3156 60.1764 30.8379 -0.0043 10.8590 0.0019
# 3 29.4387 30.8379 124.5830 -0.0091 1.2885 0.0036
# 4 -0.0011 -0.0043 -0.0091 15.6966 0.0036 9.9183
# 5 9.3973 10.8590 1.2885 0.0036 38.6212 -0.0011
# 6 0.0002 0.0019 0.0036 9.9183 -0.0011 14.4013
#
#
#
# Elastic Compliance Matrix: (Units=1/GPa)
#
#
# Indices 1 2 3 4 5 6 
#
# 1 0.012778 -0.001427 -0.002639 -0.000001 -0.002620 0.000001
# 2 -0.001427 0.020294 -0.004632 0.000009 -0.005204 -0.000008
# 3 -0.002639 -0.004632 0.009780 0.000009 0.001618 -0.000008
# 4 -0.000001 0.000009 0.000009 0.112792 -0.000015 -0.077681
# 5 -0.002620 -0.005204 0.001618 -0.000015 0.027939 0.000013
# 6 0.000001 -0.000008 -0.000008 -0.077681 0.000013 0.122937
#
#
# Mechanical properties :
#
#
# Convention : Reuss Voigt Hill
#
# Bulk Modulus (GPa) = 39.28451 47.10249 43.19350
# Shear Modulus (GPa) = 15.04200 26.88688 20.96444
#
# Velocity S-wave (km/s) = 2.86097 3.82500 3.37756
# Velocity P-wave (km/s) = 5.68246 6.71852 6.22209
#
# Compressibility (1/GPa) = 0.02545533
#
# Stress axis : x y z
#
# Youngs Moduli (GPa) = 78.26145 49.27568 102.24656
#
# Poissons Ratio (x) = 0.07031 0.26983
# Poissons Ratio (y) = 0.11167 0.47364
# Poissons Ratio (z) = 0.20653 0.22826
#
# Static dielectric constant tensor:
#      x y z
#    x 1.649720 0.000000 -0.005100 
#    y 0.000000 1.632270 0.000000 
#    z -0.005100 0.000000 1.727950 
# 
# From -- ./inp_files/240227.got.cif
#   From: 2010.05.17/outbox.cif.g08.bks.cpg/sg15_121_cif.got.tgz:240227.got - 2010.06.03 18:47:42.
