data_PCOD9262212
_publ_section_title
;
Structure prediction by ZEFSAII (Michael W. Deem and Ramdas Pophale) SiO2 
 PCOD9262212
Probable space group: C 2/C
;
_chemical_formula_sum "Si O2"
_cell_formula_units_Z 40
_cell_length_a 17.380931
_cell_length_b 7.145482
_cell_length_c 23.625870
_cell_angle_alpha 90.000000
_cell_angle_beta 141.712281
_cell_angle_gamma 90.000000
_cell_volume 1818.073170
_symmetry_space_group_name_H-M "C 2/C"
_symmetry_group_IT_number 15
_symmetry_cell_setting 'monoclinic'
loop_
_space_group_symop_operation_xyz
x,y,z
-x,y,1/2-z
-x,-y,-z
x,-y,1/2+z
1/2+x,1/2+y,z
1/2-x,1/2+y,1/2-z
1/2-x,1/2-y,-z
1/2+x,1/2-y,1/2+z
loop_
_atom_site_type_symbol
_atom_site_label
_atom_site_fract_x
_atom_site_fract_y
_atom_site_fract_z
Si Si1 0.635545 0.699740 0.111675
Si Si2 0.878354 0.410829 0.706960
Si Si3 0.246253 0.970502 0.514920
Si Si4 0.999809 0.538271 0.880269
Si Si5 0.999047 0.115321 0.913992
O O1 0.778663 0.724368 0.178775
O O2 0.618449 0.510697 0.138816
O O3 0.567816 0.858623 0.108087
O O4 0.563662 0.666325 0.011341
O O5 0.803123 0.494409 0.610449
O O6 0.930743 0.567112 0.780329
O O7 0.000000 0.315847 0.750000
O O8 0.250000 0.750000 0.500000
O O9 0.350532 0.067620 0.536042
O O10 0.099363 0.005116 0.435619
O O11 0.980175 0.314842 0.875157
#
# Coordination Sequence:
#
# PCOD9262212 Si02
#       5
#     8   8   8   8   8
#     4  10  20  33  54  80 105 141 184 222 270 317
#     4   9  19  34  52  78 112 147 178 224 278 326
#     4   8  16  34  56  77 108 149 178 217 277 329
#     4  10  19  32  56  78 107 143 181 221 271 322
#     4   9  19  35  53  78 109 138 181 224 265 325
#
# _framework density 22.001315999999999
#
# number of rings (size 3 to 8) (size 9 to 14) (size 15 to 20)
#    0.000    2.800    0.000    0.600    2.800    0.800 
#    0.000    0.000    0.000   19.200    0.000    0.000 
#    0.000    0.000    0.000    0.000    0.000    0.000 
#
# Total GULP energy -111398.152166 kJ/mol
# GULP energy per Si atom -5569.907608 kJ/mol
# Density = 2.195124 g / cm^3
# Si number density = 22.001316 Si / 1000 Ang^3
#
#
#
# Elastic Constant Matrix: (Units=GPa)
#
#
# Indices 1 2 3 4 5 6 
#
# 1 170.7646 31.9523 25.5060 0.0000 42.7653 0.0000
# 2 31.9523 48.5461 -3.6149 0.0000 10.3361 0.0001
# 3 25.5060 -3.6149 37.4605 0.0000 10.8182 0.0000
# 4 0.0000 0.0000 0.0000 5.9182 0.0000 6.6138
# 5 42.7653 10.3361 10.8182 0.0000 25.7796 0.0000
# 6 0.0000 0.0001 0.0000 6.6138 0.0000 27.3830
#
#
#
# Elastic Compliance Matrix: (Units=1/GPa)
#
#
# Indices 1 2 3 4 5 6 
#
# 1 0.010920 -0.004275 -0.003540 0.000000 -0.014915 0.000000
# 2 -0.004275 0.025214 0.007073 0.000000 -0.005985 0.000000
# 3 -0.003540 0.007073 0.032898 0.000000 -0.010768 0.000000
# 4 0.000000 0.000000 0.000000 0.231439 0.000000 -0.055900
# 5 -0.014915 -0.005985 -0.010768 0.000000 0.070451 0.000000
# 6 0.000000 0.000000 0.000000 -0.055900 0.000000 0.050021
#
#
# Mechanical properties :
#
#
# Convention : Reuss Voigt Hill
#
# Bulk Modulus (GPa) = 14.80498 40.49533 27.65016
# Shear Modulus (GPa) = 11.23737 25.34467 18.29102
#
# Velocity S-wave (km/s) = 2.26245 3.39774 2.88646
# Velocity P-wave (km/s) = 3.68356 5.81710 4.86864
#
# Compressibility (1/GPa) = 0.06754482
#
# Stress axis : x y z
#
# Youngs Moduli (GPa) = 91.57413 39.66065 30.39740
#
# Poissons Ratio (x) = 0.16957 0.10762
# Poissons Ratio (y) = 0.39152 -0.21499
# Poissons Ratio (z) = 0.32422 -0.28050
#
# Static dielectric constant tensor:
#      x y z
#    x 1.885500 0.000000 -0.007540 
#    y 0.000000 1.805850 0.000000 
#    z -0.007540 0.000000 1.880440 
# 
# From -- ./inp_files/158774.got.cif
#   From: 2010.05.17/outbox.cif.g08.bks.cpg/sg15_80_cif.got.tgz:158774.got - 2010.06.03 18:47:42.
