data_PCOD9262250
_publ_section_title
;
Structure prediction by ZEFSAII (Michael W. Deem and Ramdas Pophale) SiO2 
 PCOD9262250
Probable space group: C 2/C
;
_chemical_formula_sum "Si O2"
_cell_formula_units_Z 64
_cell_length_a 8.899081
_cell_length_b 25.738889
_cell_length_c 16.624295
_cell_angle_alpha 90.000000
_cell_angle_beta 61.797427
_cell_angle_gamma 90.000000
_cell_volume 3355.777879
_symmetry_space_group_name_H-M "C 2/C"
_symmetry_group_IT_number 15
_symmetry_cell_setting 'monoclinic'
loop_
_space_group_symop_operation_xyz
x,y,z
-x,y,1/2-z
-x,-y,-z
x,-y,1/2+z
1/2+x,1/2+y,z
1/2-x,1/2+y,1/2-z
1/2-x,1/2-y,-z
1/2+x,1/2-y,1/2+z
loop_
_atom_site_type_symbol
_atom_site_label
_atom_site_fract_x
_atom_site_fract_y
_atom_site_fract_z
Si Si1 0.321222 0.992658 0.767105
Si Si2 0.335407 0.970754 0.576567
Si Si3 0.916750 0.214975 0.453309
Si Si4 0.802684 0.627103 0.298673
Si Si5 0.868406 0.709759 0.520784
Si Si6 0.286238 0.149740 0.117444
Si Si7 0.391777 0.646115 0.987273
Si Si8 0.981164 0.029725 0.921715
O O1 0.500000 0.016024 0.750000
O O2 0.156673 0.025568 0.828972
O O3 0.338119 0.980786 0.670032
O O4 0.297541 0.935342 0.811695
O O5 0.325666 0.907880 0.570739
O O6 0.500000 0.000000 0.500000
O O7 0.169229 0.999313 0.584897
O O8 0.750000 0.250000 0.500000
O O9 0.869962 0.175784 0.392632
O O10 0.069668 0.257750 0.417055
O O11 0.950002 0.182901 0.527796
O O12 0.744001 0.641874 0.223004
O O13 0.708585 0.648532 0.401205
O O14 0.000000 0.643039 0.250000
O O15 0.750000 0.750000 0.500000
O O16 0.732541 0.663375 0.553742
O O17 0.042273 0.685369 0.437783
O O18 0.443452 0.588551 0.953209
O O19 0.000000 0.000000 0.000000
#
# Coordination Sequence:
#
# PCOD9262250 Si02
#       8
#     8   8   8   8   8   8   8   8
#     4  10  22  39  56  84 129 165 202 256 298 363
#     4  11  23  36  58  92 127 165 211 246 303 372
#     4   9  20  36  55  86 113 143 199 257 315 356
#     4  10  19  32  56  87 126 150 194 246 311 364
#     4   9  18  34  56  81 111 151 203 250 304 370
#     4  10  19  34  55  87 123 154 191 256 310 351
#     4  11  20  35  60  91 114 162 201 243 305 377
#     4  12  22  36  58  91 130 165 204 243 307 379
#
# _framework density 19.071584000000001
#
# number of rings (size 3 to 8) (size 9 to 14) (size 15 to 20)
#    0.000    1.750    2.500    2.625    1.750    0.500 
#    0.000    0.000    0.000    0.000  123.500    0.000 
#    0.000    0.000    0.000    0.000    0.000    0.000 
#
# Total GULP energy -178171.558507 kJ/mol
# GULP energy per Si atom -5567.861203 kJ/mol
# Density = 1.902818 g / cm^3
# Si number density = 19.071584 Si / 1000 Ang^3
#
#
#
# Elastic Constant Matrix: (Units=GPa)
#
#
# Indices 1 2 3 4 5 6 
#
# 1 151.0183 57.7362 27.7046 0.0000 6.8135 0.0000
# 2 57.7362 119.9544 34.1533 0.0000 -6.7909 0.0000
# 3 27.7046 34.1533 48.3230 0.0000 -8.8702 0.0000
# 4 0.0000 0.0000 0.0000 17.9547 0.0000 4.9942
# 5 6.8135 -6.7909 -8.8702 0.0000 29.3785 0.0000
# 6 0.0000 0.0000 0.0000 4.9942 0.0000 37.4905
#
#
#
# Elastic Compliance Matrix: (Units=1/GPa)
#
#
# Indices 1 2 3 4 5 6 
#
# 1 0.008722 -0.003494 -0.003229 0.000000 -0.003805 0.000000
# 2 -0.003494 0.011837 -0.006047 0.000000 0.001721 0.000000
# 3 -0.003229 -0.006047 0.028267 0.000000 0.007886 0.000000
# 4 0.000000 0.000000 0.000000 0.057839 0.000000 -0.007705
# 5 -0.003805 0.001721 0.007886 0.000000 0.037700 0.000000
# 6 0.000000 0.000000 0.000000 -0.007705 0.000000 0.027700
#
#
# Mechanical properties :
#
#
# Convention : Reuss Voigt Hill
#
# Bulk Modulus (GPa) = 42.94638 62.05378 52.50008
# Shear Modulus (GPa) = 24.34661 30.27817 27.31239
#
# Velocity S-wave (km/s) = 3.57682 3.98880 3.78841
# Velocity P-wave (km/s) = 6.29488 7.33635 6.83548
#
# Compressibility (1/GPa) = 0.02328485
#
# Stress axis : x y z
#
# Youngs Moduli (GPa) = 114.65823 84.47846 35.37665
#
# Poissons Ratio (x) = 0.29515 0.11425
# Poissons Ratio (y) = 0.40059 0.21394
# Poissons Ratio (z) = 0.37028 0.51087
#
# Static dielectric constant tensor:
#      x y z
#    x 1.718190 0.000000 -0.005660 
#    y 0.000000 1.835180 0.000000 
#    z -0.005660 0.000000 1.647500 
# 
# From -- ./inp_files/138564.got.cif
#   From: 2010.05.17/outbox.cif.g08.bks.cpg/sg15_70_cif.got.tgz:138564.got - 2010.06.03 18:47:42.
