data_PCOD9262523
_publ_section_title
;
Structure prediction by ZEFSAII (Michael W. Deem and Ramdas Pophale) SiO2 
 PCOD9262523
Probable space group: C 2/C
;
_chemical_formula_sum "Si O2"
_cell_formula_units_Z 56
_cell_length_a 5.121033
_cell_length_b 27.802346
_cell_length_c 21.930658
_cell_angle_alpha 90.000000
_cell_angle_beta 117.956061
_cell_angle_gamma 90.000000
_cell_volume 2758.052511
_symmetry_space_group_name_H-M "C 2/C"
_symmetry_group_IT_number 15
_symmetry_cell_setting 'monoclinic'
loop_
_space_group_symop_operation_xyz
x,y,z
-x,y,1/2-z
-x,-y,-z
x,-y,1/2+z
1/2+x,1/2+y,z
1/2-x,1/2+y,1/2-z
1/2-x,1/2-y,-z
1/2+x,1/2-y,1/2+z
loop_
_atom_site_type_symbol
_atom_site_label
_atom_site_fract_x
_atom_site_fract_y
_atom_site_fract_z
Si Si1 0.665380 0.764525 0.081830
Si Si2 0.129941 0.738226 0.827375
Si Si3 0.287850 0.329521 0.981902
Si Si4 0.150386 0.079915 0.524937
Si Si5 0.209856 0.601623 0.091988
Si Si6 0.411380 0.988121 0.560540
Si Si7 0.347992 0.655505 0.293926
O O1 0.481479 0.782235 0.120039
O O2 0.574754 0.711575 0.046771
O O3 0.015399 0.760505 0.136498
O O4 0.649643 0.800146 0.022869
O O5 0.000000 0.716825 0.750000
O O6 0.986865 0.791538 0.815253
O O7 0.507092 0.370615 0.031813
O O8 0.030253 0.357978 0.917543
O O9 0.327294 0.095890 0.484528
O O10 0.878302 0.045894 0.473057
O O11 0.343263 0.040225 0.582273
O O12 0.531757 0.621757 0.139988
O O13 0.152240 0.548835 0.112891
O O14 0.500000 0.000000 0.500000
O O15 0.500000 0.634570 0.250000
O O16 0.000000 0.658565 0.250000
#
# Coordination Sequence:
#
# PCOD9262523 Si02
#       7
#     8   8   8   8   8   8   8
#     4  11  23  36  55  83 115 154 198 233 297 344
#     4  11  22  39  56  74 108 155 202 243 275 332
#     4  10  22  32  53  82 119 153 183 241 294 357
#     4   9  17  30  53  75 114 143 179 219 288 345
#     4  10  19  33  53  78 117 152 180 233 288 344
#     4   8  16  30  49  79 106 140 175 217 276 347
#     4  11  23  35  53  78 109 153 196 225 270 339
#
# _framework density 20.304183999999999
#
# number of rings (size 3 to 8) (size 9 to 14) (size 15 to 20)
#    0.000    2.000    1.429    3.000    6.000    1.143 
#    0.000    0.000    0.000    0.000    0.000    0.000 
#   25.714    0.000    0.000    0.000    0.000    0.000 
#
# Total GULP energy -156067.766030 kJ/mol
# GULP energy per Si atom -5573.848787 kJ/mol
# Density = 2.025797 g / cm^3
# Si number density = 20.304184 Si / 1000 Ang^3
#
#
#
# Elastic Constant Matrix: (Units=GPa)
#
#
# Indices 1 2 3 4 5 6 
#
# 1 83.7526 25.1196 13.6260 0.0000 1.6145 0.0000
# 2 25.1196 105.0153 16.1998 0.0000 5.3901 0.0000
# 3 13.6260 16.1998 48.7750 0.0000 0.5832 0.0000
# 4 0.0000 0.0000 0.0000 7.9628 0.0000 3.7377
# 5 1.6145 5.3901 0.5832 0.0000 39.9202 0.0000
# 6 0.0000 0.0000 0.0000 3.7377 0.0000 24.8442
#
#
#
# Elastic Compliance Matrix: (Units=1/GPa)
#
#
# Indices 1 2 3 4 5 6 
#
# 1 0.013213 -0.002724 -0.002785 0.000000 -0.000126 0.000000
# 2 -0.002724 0.010667 -0.002766 0.000000 -0.001290 0.000000
# 3 -0.002785 -0.002766 0.022197 0.000000 0.000162 0.000000
# 4 0.000000 0.000000 0.000000 0.135126 0.000000 -0.020329
# 5 -0.000126 -0.001290 0.000162 0.000000 0.025227 0.000000
# 6 0.000000 0.000000 0.000000 -0.020329 0.000000 0.043309
#
#
# Mechanical properties :
#
#
# Convention : Reuss Voigt Hill
#
# Bulk Modulus (GPa) = 33.86880 38.60374 36.23627
# Shear Modulus (GPa) = 18.10731 26.71860 22.41296
#
# Velocity S-wave (km/s) = 2.98955 3.63149 3.32604
# Velocity P-wave (km/s) = 5.35102 6.05290 5.71275
#
# Compressibility (1/GPa) = 0.02952570
#
# Stress axis : x y z
#
# Youngs Moduli (GPa) = 75.68572 93.74677 45.05085
#
# Poissons Ratio (x) = 0.25540 0.12546
# Poissons Ratio (y) = 0.20620 0.12463
# Poissons Ratio (z) = 0.21077 0.25934
#
# Static dielectric constant tensor:
#      x y z
#    x 1.864470 0.000000 -0.036770 
#    y 0.000000 1.781740 0.000000 
#    z -0.036770 0.000000 1.849060 
# 
# From -- ./inp_files/261966.got.cif
#   From: 2010.05.17/outbox.cif.g08.bks.cpg/sg15_131_cif.got.tgz:261966.got - 2010.06.03 18:47:42.
