data_PCOD9262945
_publ_section_title
;
Structure prediction by ZEFSAII (Michael W. Deem and Ramdas Pophale) SiO2 
 PCOD9262945
Probable space group: C 2/C
;
_chemical_formula_sum "Si O2"
_cell_formula_units_Z 48
_cell_length_a 18.127429
_cell_length_b 13.888192
_cell_length_c 19.695683
_cell_angle_alpha 90.000000
_cell_angle_beta 30.742016
_cell_angle_gamma 90.000000
_cell_volume 2534.668416
_symmetry_space_group_name_H-M "C 2/C"
_symmetry_group_IT_number 15
_symmetry_cell_setting 'monoclinic'
loop_
_space_group_symop_operation_xyz
x,y,z
-x,y,1/2-z
-x,-y,-z
x,-y,1/2+z
1/2+x,1/2+y,z
1/2-x,1/2+y,1/2-z
1/2-x,1/2-y,-z
1/2+x,1/2-y,1/2+z
loop_
_atom_site_type_symbol
_atom_site_label
_atom_site_fract_x
_atom_site_fract_y
_atom_site_fract_z
Si Si1 0.188143 0.923474 0.311963
Si Si2 0.583076 0.758659 0.114938
Si Si3 0.465209 0.394583 0.605972
Si Si4 0.527243 0.862982 0.555320
Si Si5 0.025964 0.575131 0.553518
Si Si6 0.746090 0.230976 0.188091
O O1 0.354769 0.944499 0.193433
O O2 0.184648 0.820088 0.279906
O O3 0.102004 0.918213 0.450311
O O4 0.117343 0.004620 0.320454
O O5 0.500000 0.778051 0.250000
O O6 0.515428 0.664835 0.131432
O O7 0.567285 0.845893 0.074936
O O8 0.750000 0.750000 0.000000
O O9 0.357550 0.329211 0.646019
O O10 0.456027 0.878423 0.535891
O O11 0.397840 0.833269 0.708498
O O12 0.652947 0.782544 0.448538
O O13 0.592912 0.969950 0.513721
#
# Coordination Sequence:
#
# PCOD9262945 Si02
#       6
#     8   8   8   8   8   8
#     4  10  19  33  58  83 113 153 180 267 287 336
#     4  12  26  38  57  82 127 169 184 223 282 372
#     4  11  21  34  55  84 123 143 201 233 299 348
#     4  10  20  31  57  80 115 142 180 259 288 335
#     4  10  20  36  55  81 112 154 202 225 296 339
#     4  11  18  32  52  85 112 139 177 238 313 331
#
# _framework density 18.937387999999999
#
# number of rings (size 3 to 8) (size 9 to 14) (size 15 to 20)
#    0.000    1.333    6.667    1.000    2.333    0.000 
#    0.000    0.000    0.000    0.000    0.000    5.833 
#    0.000    0.000    0.000    0.000    0.000    0.000 
#
# Total GULP energy -133848.396200 kJ/mol
# GULP energy per Si atom -5577.016508 kJ/mol
# Density = 1.889429 g / cm^3
# Si number density = 18.937388 Si / 1000 Ang^3
#
#
#
# Elastic Constant Matrix: (Units=GPa)
#
#
# Indices 1 2 3 4 5 6 
#
# 1 42.7123 14.5050 19.2330 0.0000 6.2333 0.0000
# 2 14.5050 88.0694 19.7198 -0.0005 5.2156 0.0001
# 3 19.2330 19.7198 91.8310 -0.0010 -14.3830 0.0002
# 4 0.0000 -0.0005 -0.0010 35.0844 0.0001 -4.2816
# 5 6.2333 5.2156 -14.3830 0.0001 14.4161 0.0000
# 6 0.0000 0.0001 0.0002 -4.2816 0.0000 24.7664
#
#
#
# Elastic Compliance Matrix: (Units=1/GPa)
#
#
# Indices 1 2 3 4 5 6 
#
# 1 0.031801 -0.001653 -0.009915 0.000000 -0.023044 0.000000
# 2 -0.001653 0.012879 -0.003600 0.000000 -0.007536 0.000000
# 3 -0.009915 -0.003600 0.017321 0.000000 0.022871 0.000000
# 4 0.000000 0.000000 0.000000 0.029117 0.000000 0.005034
# 5 -0.023044 -0.007536 0.022871 0.000000 0.104876 0.000000
# 6 0.000000 0.000000 0.000000 0.005034 0.000000 0.041248
#
#
# Mechanical properties :
#
#
# Convention : Reuss Voigt Hill
#
# Bulk Modulus (GPa) = 31.57895 36.61426 34.09660
# Shear Modulus (GPa) = 17.97701 26.13039 22.05370
#
# Velocity S-wave (km/s) = 3.08439 3.71864 3.41627
# Velocity P-wave (km/s) = 5.42183 6.14931 5.79700
#
# Compressibility (1/GPa) = 0.03166667
#
# Stress axis : x y z
#
# Youngs Moduli (GPa) = 31.44518 77.64400 57.73237
#
# Poissons Ratio (x) = 0.12834 0.57241
# Poissons Ratio (y) = 0.05198 0.20783
# Poissons Ratio (z) = 0.31177 0.27951
#
# Static dielectric constant tensor:
#      x y z
#    x 1.609160 0.000000 0.004190 
#    y 0.000000 1.723020 0.000000 
#    z 0.004190 0.000000 1.708810 
# 
# From -- ./inp_files/248954.got.cif
#   From: 2010.05.17/outbox.cif.g08.bks.cpg/sg15_125_cif.got.tgz:248954.got - 2010.06.03 18:47:42.
