data_PCOD9262289
_publ_section_title
;
Structure prediction by ZEFSAII (Michael W. Deem and Ramdas Pophale) SiO2 
 PCOD9262289
Probable space group: C 2/C
;
_chemical_formula_sum "Si O2"
_cell_formula_units_Z 48
_cell_length_a 8.666675
_cell_length_b 19.094663
_cell_length_c 15.092913
_cell_angle_alpha 90.000000
_cell_angle_beta 96.938612
_cell_angle_gamma 90.000000
_cell_volume 2479.391840
_symmetry_space_group_name_H-M "C 2/C"
_symmetry_group_IT_number 15
_symmetry_cell_setting 'monoclinic'
loop_
_space_group_symop_operation_xyz
x,y,z
-x,y,1/2-z
-x,-y,-z
x,-y,1/2+z
1/2+x,1/2+y,z
1/2-x,1/2+y,1/2-z
1/2-x,1/2-y,-z
1/2+x,1/2-y,1/2+z
loop_
_atom_site_type_symbol
_atom_site_label
_atom_site_fract_x
_atom_site_fract_y
_atom_site_fract_z
Si Si1 0.667339 0.790246 0.413351
Si Si2 0.883428 0.853102 0.661381
Si Si3 0.824384 0.150276 0.424361
Si Si4 0.689936 0.895858 0.272971
Si Si5 0.195349 0.312569 0.099837
Si Si6 0.684668 0.944082 0.761232
O O1 0.750000 0.750000 0.500000
O O2 0.660657 0.728400 0.339762
O O3 0.735711 0.857419 0.367619
O O4 0.492199 0.812695 0.427257
O O5 0.744175 0.904544 0.676351
O O6 0.000000 0.866601 0.750000
O O7 0.991213 0.860204 0.581937
O O8 0.773758 0.229371 0.393420
O O9 0.777698 0.149519 0.523333
O O10 0.740557 0.096935 0.352686
O O11 0.500000 0.894687 0.250000
O O12 0.742620 0.850661 0.192840
O O13 0.741819 0.975925 0.269475
O O14 0.500000 0.944727 0.750000
#
# Coordination Sequence:
#
# PCOD9262289 Si02
#       6
#     8   8   8   8   8   8
#     4  10  19  32  58  86 111 136 189 244 276 316
#     4   9  18  36  58  75 106 155 184 216 286 344
#     4   9  18  35  60  77 105 149 192 223 276 343
#     4   9  18  36  53  81 112 152 183 223 288 344
#     4   9  18  36  60  77 106 152 193 222 276 347
#     4  10  20  33  56  83 113 143 186 234 280 330
#
# _framework density 19.359584999999999
#
# number of rings (size 3 to 8) (size 9 to 14) (size 15 to 20)
#    0.000    2.667    0.000    3.500    2.333    0.000 
#    3.000    3.333   29.333    0.000    0.000    0.000 
#    0.000    0.000    0.000    0.000    0.000    0.000 
#
# Total GULP energy -133627.878085 kJ/mol
# GULP energy per Si atom -5567.828254 kJ/mol
# Density = 1.931552 g / cm^3
# Si number density = 19.359585 Si / 1000 Ang^3
#
#
#
# Elastic Constant Matrix: (Units=GPa)
#
#
# Indices 1 2 3 4 5 6 
#
# 1 41.8114 34.9104 31.9048 0.0000 -14.4001 0.0000
# 2 34.9104 94.7554 48.2397 0.0000 -23.1411 0.0000
# 3 31.9048 48.2397 102.3378 0.0000 -27.1625 0.0000
# 4 0.0000 0.0000 0.0000 10.9844 0.0000 7.3625
# 5 -14.4001 -23.1411 -27.1625 0.0000 29.2808 0.0000
# 6 0.0000 0.0000 0.0000 7.3625 0.0000 22.2409
#
#
#
# Elastic Compliance Matrix: (Units=1/GPa)
#
#
# Indices 1 2 3 4 5 6 
#
# 1 0.038579 -0.009816 -0.005868 0.000000 0.005771 0.000000
# 2 -0.009816 0.017384 -0.003673 0.000000 0.005504 0.000000
# 3 -0.005868 -0.003673 0.015649 0.000000 0.008728 0.000000
# 4 0.000000 0.000000 0.000000 0.116998 0.000000 -0.038730
# 5 0.005771 0.005504 0.008728 0.000000 0.049436 0.000000
# 6 0.000000 0.000000 0.000000 -0.038730 0.000000 0.057783
#
#
# Mechanical properties :
#
#
# Convention : Reuss Voigt Hill
#
# Bulk Modulus (GPa) = 30.39905 52.11270 41.25588
# Shear Modulus (GPa) = 14.47131 20.75786 17.61458
#
# Velocity S-wave (km/s) = 2.73701 3.27804 3.01967
# Velocity P-wave (km/s) = 5.07195 6.42683 5.78916
#
# Compressibility (1/GPa) = 0.03289577
#
# Stress axis : x y z
#
# Youngs Moduli (GPa) = 25.92117 57.52283 63.90114
#
# Poissons Ratio (x) = 0.56467 0.37499
# Poissons Ratio (y) = 0.25445 0.23473
# Poissons Ratio (z) = 0.15211 0.21130
#
# Static dielectric constant tensor:
#      x y z
#    x 1.736400 0.000000 -0.021570 
#    y 0.000000 1.697220 0.000000 
#    z -0.021570 0.000000 1.706570 
# 
# From -- ./inp_files/144696.got.cif
#   From: 2010.05.17/outbox.cif.g08.bks.cpg/sg15_73_cif.got.tgz:144696.got - 2010.06.03 18:47:42.
