data_PCOD9262404
_publ_section_title
;
Structure prediction by ZEFSAII (Michael W. Deem and Ramdas Pophale) SiO2 
 PCOD9262404
Probable space group: C 2/C
;
_chemical_formula_sum "Si O2"
_cell_formula_units_Z 52
_cell_length_a 9.377462
_cell_length_b 23.558150
_cell_length_c 9.301731
_cell_angle_alpha 90.000000
_cell_angle_beta 97.585734
_cell_angle_gamma 90.000000
_cell_volume 2036.914446
_symmetry_space_group_name_H-M "C 2/C"
_symmetry_group_IT_number 15
_symmetry_cell_setting 'monoclinic'
loop_
_space_group_symop_operation_xyz
x,y,z
-x,y,1/2-z
-x,-y,-z
x,-y,1/2+z
1/2+x,1/2+y,z
1/2-x,1/2+y,1/2-z
1/2-x,1/2-y,-z
1/2+x,1/2-y,1/2+z
loop_
_atom_site_type_symbol
_atom_site_label
_atom_site_fract_x
_atom_site_fract_y
_atom_site_fract_z
Si Si1 0.252070 0.461567 0.427947
Si Si2 0.000000 0.315369 0.750000
Si Si3 0.758408 0.598066 0.297837
Si Si4 0.835680 0.687767 0.949949
Si Si5 0.817192 0.073560 0.618046
Si Si6 0.000000 0.756758 0.750000
Si Si7 0.553121 0.653973 0.048165
Si Si8 0.000000 0.505517 0.250000
O O1 0.287677 0.411834 0.545159
O O2 0.304764 0.519212 0.511968
O O3 0.312369 0.450048 0.277825
O O4 0.079382 0.467751 0.379962
O O5 0.861327 0.350046 0.780933
O O6 0.949208 0.294338 0.587407
O O7 0.626917 0.611022 0.174302
O O8 0.867633 0.545649 0.280126
O O9 0.816526 0.618560 0.922133
O O10 0.879467 0.716578 0.805356
O O11 0.680774 0.695446 0.004308
O O12 0.953050 0.112273 0.588996
O O13 0.047899 0.801764 0.881193
#
# Coordination Sequence:
#
# PCOD9262404 Si02
#       8
#     8   4   8   8   8   4   8   4
#     4  12  20  30  55  88 126 163 173 222 301 372
#     4   9  18  34  51  74 124 143 176 236 290 353
#     4  10  19  33  50  82 126 154 184 225 292 358
#     4   9  22  38  56  90 112 151 196 256 285 356
#     4  10  21  35  53  86 128 146 191 229 292 354
#     4  12  22  41  71  74 108 159 215 246 318 318
#     4   9  21  42  56  85 116 152 199 261 281 351
#     4  11  18  27  50  88 124 158 183 218 286 377
#
# _framework density 25.528808999999999
#
# number of rings (size 3 to 8) (size 9 to 14) (size 15 to 20)
#    0.923    0.923    3.077    1.846    4.308    0.000 
#    0.000    4.615    0.000    3.692    0.000    0.000 
#    0.000    0.000    0.000    0.000    0.000    0.000 
#
# Total GULP energy -144742.367863 kJ/mol
# GULP energy per Si atom -5567.014149 kJ/mol
# Density = 2.547070 g / cm^3
# Si number density = 25.528809 Si / 1000 Ang^3
#
#
#
# Elastic Constant Matrix: (Units=GPa)
#
#
# Indices 1 2 3 4 5 6 
#
# 1 64.3284 26.6448 43.6802 0.0000 -12.8058 0.0000
# 2 26.6448 108.9345 85.4287 0.0000 -5.7253 0.0000
# 3 43.6802 85.4287 208.7129 0.0000 -20.5210 0.0000
# 4 0.0000 0.0000 0.0000 137.6752 0.0000 97.2228
# 5 -12.8058 -5.7253 -20.5210 0.0000 54.4572 0.0000
# 6 0.0000 0.0000 0.0000 97.2228 0.0000 231.4976
#
#
#
# Elastic Compliance Matrix: (Units=1/GPa)
#
#
# Indices 1 2 3 4 5 6 
#
# 1 0.018990 -0.002366 -0.002691 0.000000 0.003203 0.000000
# 2 -0.002366 0.013839 -0.005277 0.000000 -0.001090 0.000000
# 3 -0.002691 -0.005277 0.007682 0.000000 0.001707 0.000000
# 4 0.000000 0.000000 0.000000 0.010326 0.000000 -0.004337
# 5 0.003203 -0.001090 0.001707 0.000000 0.019645 0.000000
# 6 0.000000 0.000000 0.000000 -0.004337 0.000000 0.006141
#
#
# Mechanical properties :
#
#
# Convention : Reuss Voigt Hill
#
# Bulk Modulus (GPa) = 50.39297 77.05370 63.72333
# Shear Modulus (GPa) = 48.12078 99.80748 73.96413
#
# Velocity S-wave (km/s) = 4.34632 6.25946 5.38848
# Velocity P-wave (km/s) = 6.70596 9.08239 7.98310
#
# Compressibility (1/GPa) = 0.01984404
#
# Stress axis : x y z
#
# Youngs Moduli (GPa) = 52.65908 72.25804 130.17409
#
# Poissons Ratio (x) = 0.17099 0.35028
# Poissons Ratio (y) = 0.12461 0.68686
# Poissons Ratio (z) = 0.14170 0.38127
#
# Static dielectric constant tensor:
#      x y z
#    x 2.082310 0.000000 -0.020360 
#    y 0.000000 2.124470 0.000000 
#    z -0.020360 0.000000 2.101620 
# 
# From -- ./inp_files/41759.got.cif
#   From: 2010.05.17/outbox.cif.g08.bks.cpg/sg15_21_cif.got.tgz:41759.got - 2010.06.03 18:47:42.
