data_PCOD9262541
_publ_section_title
;
Structure prediction by ZEFSAII (Michael W. Deem and Ramdas Pophale) SiO2 
 PCOD9262541
Probable space group: C 2/C
;
_chemical_formula_sum "Si O2"
_cell_formula_units_Z 48
_cell_length_a 30.048508
_cell_length_b 9.182020
_cell_length_c 8.521683
_cell_angle_alpha 90.000000
_cell_angle_beta 82.788919
_cell_angle_gamma 90.000000
_cell_volume 2332.586663
_symmetry_space_group_name_H-M "C 2/C"
_symmetry_group_IT_number 15
_symmetry_cell_setting 'monoclinic'
loop_
_space_group_symop_operation_xyz
x,y,z
-x,y,1/2-z
-x,-y,-z
x,-y,1/2+z
1/2+x,1/2+y,z
1/2-x,1/2+y,1/2-z
1/2-x,1/2-y,-z
1/2+x,1/2-y,1/2+z
loop_
_atom_site_type_symbol
_atom_site_label
_atom_site_fract_x
_atom_site_fract_y
_atom_site_fract_z
Si Si1 0.638424 0.398634 0.800385
Si Si2 0.578609 0.856117 0.290177
Si Si3 0.455855 0.885109 0.870259
Si Si4 0.169855 0.534602 0.319530
Si Si5 0.132453 0.796466 0.157778
Si Si6 0.205796 0.306141 0.103911
O O1 0.595229 0.307450 0.757236
O O2 0.633722 0.568792 0.775311
O O3 0.679333 0.331443 0.684151
O O4 0.643470 0.357316 0.980482
O O5 0.542157 0.862418 0.444706
O O6 0.560956 0.950305 0.154747
O O7 0.623674 0.940759 0.332639
O O8 0.500000 0.859312 0.750000
O O9 0.416437 0.777646 0.829737
O O10 0.165066 0.669091 0.201973
O O11 0.208376 0.423434 0.244631
O O12 0.177535 0.605951 0.484862
O O13 0.250000 0.250000 0.000000
#
# Coordination Sequence:
#
# PCOD9262541 Si02
#       6
#     8   8   8   8   8   8
#     4  10  20  37  55  81 108 145 187 223 273 334
#     4   9  18  34  56  76 104 141 181 220 268 331
#     4  10  19  33  53  81 108 139 182 230 272 317
#     4  10  20  39  59  79 109 148 183 219 270 333
#     4  10  21  37  59  79 110 150 185 222 272 336
#     4  11  23  38  59  86 112 141 183 232 273 317
#
# _framework density 20.578012999999999
#
# number of rings (size 3 to 8) (size 9 to 14) (size 15 to 20)
#    0.000    2.000    0.000    6.500    0.000    4.000 
#    0.000    6.667    0.000    0.000    0.000    0.000 
#    0.000    0.000    0.000    0.000    0.000    0.000 
#
# Total GULP energy -134053.949385 kJ/mol
# GULP energy per Si atom -5585.581224 kJ/mol
# Density = 2.053118 g / cm^3
# Si number density = 20.578013 Si / 1000 Ang^3
#
#
#
# Elastic Constant Matrix: (Units=GPa)
#
#
# Indices 1 2 3 4 5 6 
#
# 1 40.1443 5.8887 11.9207 0.0000 -27.0742 0.0000
# 2 5.8887 113.3628 11.7290 0.0000 -4.3901 0.0000
# 3 11.9207 11.7290 50.1833 0.0000 -21.0490 0.0000
# 4 0.0000 0.0000 0.0000 40.8832 0.0000 -4.5661
# 5 -27.0742 -4.3901 -21.0490 0.0000 33.2518 0.0000
# 6 0.0000 0.0000 0.0000 -4.5661 0.0000 15.0218
#
#
#
# Elastic Compliance Matrix: (Units=1/GPa)
#
#
# Indices 1 2 3 4 5 6 
#
# 1 0.057987 -0.001877 0.008665 0.000000 0.052451 0.000000
# 2 -0.001877 0.009102 -0.002476 0.000000 -0.001894 0.000000
# 3 0.008665 -0.002476 0.028958 0.000000 0.025059 0.000000
# 4 0.000000 0.000000 0.000000 0.025319 0.000000 0.007696
# 5 0.052451 -0.001894 0.025059 0.000000 0.088393 0.000000
# 6 0.000000 0.000000 0.000000 0.007696 0.000000 0.068909
#
#
# Mechanical properties :
#
#
# Convention : Reuss Voigt Hill
#
# Bulk Modulus (GPa) = 9.55392 29.19636 19.37514
# Shear Modulus (GPa) = 16.39693 29.44150 22.91921
#
# Velocity S-wave (km/s) = 2.82586 3.78660 3.34094
# Velocity P-wave (km/s) = 3.91154 5.77379 4.93137
#
# Compressibility (1/GPa) = 0.10466903
#
# Stress axis : x y z
#
# Youngs Moduli (GPa) = 17.24533 109.87120 34.53253
#
# Poissons Ratio (x) = 0.20628 -0.29921
# Poissons Ratio (y) = 0.03238 0.08550
# Poissons Ratio (z) = -0.14942 0.27202
#
# Static dielectric constant tensor:
#      x y z
#    x 1.760990 0.000000 0.013710 
#    y 0.000000 1.719450 0.000000 
#    z 0.013710 0.000000 1.768630 
# 
# From -- ./inp_files/68579.got.cif
#   From: 2010.05.17/outbox.cif.g08.bks.cpg/sg15_35_cif.got.tgz:68579.got - 2010.06.03 18:47:42.
