data_PCOD9262354
_publ_section_title
;
Structure prediction by ZEFSAII (Michael W. Deem and Ramdas Pophale) SiO2 
 PCOD9262354
Probable space group: C 2/C
;
_chemical_formula_sum "Si O2"
_cell_formula_units_Z 64
_cell_length_a 21.924033
_cell_length_b 18.798284
_cell_length_c 19.942844
_cell_angle_alpha 90.000000
_cell_angle_beta 29.297656
_cell_angle_gamma 90.000000
_cell_volume 4022.003792
_symmetry_space_group_name_H-M "C 2/C"
_symmetry_group_IT_number 15
_symmetry_cell_setting 'monoclinic'
loop_
_space_group_symop_operation_xyz
x,y,z
-x,y,1/2-z
-x,-y,-z
x,-y,1/2+z
1/2+x,1/2+y,z
1/2-x,1/2+y,1/2-z
1/2-x,1/2-y,-z
1/2+x,1/2-y,1/2+z
loop_
_atom_site_type_symbol
_atom_site_label
_atom_site_fract_x
_atom_site_fract_y
_atom_site_fract_z
Si Si1 0.883431 0.827139 0.150876
Si Si2 0.877809 0.168747 0.979363
Si Si3 0.748581 0.926132 0.377723
Si Si4 0.862595 0.667289 0.196893
Si Si5 0.571274 0.825404 0.611786
Si Si6 0.642987 0.977095 0.871877
Si Si7 0.022242 0.025603 0.656961
Si Si8 0.888760 0.038453 0.563892
O O1 0.772416 0.863590 0.300032
O O2 0.858728 0.744320 0.165842
O O3 0.898660 0.878333 0.072689
O O4 0.007057 0.831510 0.078445
O O5 0.877585 0.244676 0.942748
O O6 0.902761 0.100346 0.908979
O O7 0.753944 0.160426 0.141277
O O8 0.675340 0.886165 0.506194
O O9 0.884545 0.953560 0.265025
O O10 0.678787 0.992056 0.410327
O O11 0.856548 0.605678 0.147673
O O12 0.981768 0.663380 0.132570
O O13 0.500000 0.831589 0.750000
O O14 0.753638 0.010437 0.718825
O O15 0.500000 0.000000 0.000000
O O16 0.000000 0.990406 0.750000
O O17 0.087578 0.980925 0.535809
O O18 0.000000 0.000000 0.500000
#
# Coordination Sequence:
#
# PCOD9262354 Si02
#       8
#     8   8   8   8   8   8   8   8
#     4   9  19  32  51  72 100 132 172 222 257 294
#     4  10  19  33  47  74 102 138 181 205 245 313
#     4  10  20  36  48  72 108 134 175 225 256 299
#     4  11  20  32  52  74 101 136 177 209 257 323
#     4  11  23  32  45  70 111 151 168 205 260 312
#     4  11  20  33  54  77 104 135 175 221 266 305
#     4  11  22  34  54  78 101 139 181 220 255 312
#     4  11  18  35  56  74 102 142 177 223 266 299
#
# _framework density 15.912466999999999
#
# number of rings (size 3 to 8) (size 9 to 14) (size 15 to 20)
#    0.000    1.500    7.500    0.375    1.750    0.500 
#    0.000    0.000    0.000    0.000    0.000    1.750 
#    0.000    0.000    0.000    0.000    0.000    0.000 
#
# Total GULP energy -178331.403879 kJ/mol
# GULP energy per Si atom -5572.856371 kJ/mol
# Density = 1.587625 g / cm^3
# Si number density = 15.912467 Si / 1000 Ang^3
#
#
#
# Elastic Constant Matrix: (Units=GPa)
#
#
# Indices 1 2 3 4 5 6 
#
# 1 41.2275 30.2776 19.1862 -0.0002 8.8755 0.0000
# 2 30.2776 89.1218 24.4313 -0.0004 7.0071 0.0002
# 3 19.1862 24.4313 88.5757 -0.0011 4.9886 0.0005
# 4 -0.0002 -0.0004 -0.0011 25.2643 0.0008 2.2469
# 5 8.8755 7.0071 4.9886 0.0008 31.3454 -0.0004
# 6 0.0000 0.0002 0.0005 2.2469 -0.0004 8.9724
#
#
#
# Elastic Compliance Matrix: (Units=1/GPa)
#
#
# Indices 1 2 3 4 5 6 
#
# 1 0.035353 -0.010243 -0.004438 0.000000 -0.007014 0.000000
# 2 -0.010243 0.015258 -0.001979 0.000000 -0.000196 0.000000
# 3 -0.004438 -0.001979 0.012816 0.000001 -0.000341 -0.000001
# 4 0.000000 0.000000 0.000001 0.040483 -0.000001 -0.010138
# 5 -0.007014 -0.000196 -0.000341 -0.000001 0.033987 0.000002
# 6 0.000000 0.000000 -0.000001 -0.010138 0.000002 0.113992
#
#
# Mechanical properties :
#
#
# Convention : Reuss Voigt Hill
#
# Bulk Modulus (GPa) = 33.21257 40.74616 36.97936
# Shear Modulus (GPa) = 16.93515 22.78506 19.86011
#
# Velocity S-wave (km/s) = 3.26585 3.78815 3.53666
# Velocity P-wave (km/s) = 5.92777 6.69294 6.32194
#
# Compressibility (1/GPa) = 0.03010908
#
# Stress axis : x y z
#
# Youngs Moduli (GPa) = 28.28613 65.53843 78.02736
#
# Poissons Ratio (x) = 0.67128 0.34625
# Poissons Ratio (y) = 0.28972 0.15441
# Poissons Ratio (z) = 0.12552 0.12970
#
# Static dielectric constant tensor:
#      x y z
#    x 1.547540 0.000000 -0.026610 
#    y 0.000000 1.539720 0.000000 
#    z -0.026610 0.000000 1.577140 
# 
# From -- ./inp_files/253221.got.cif
#   From: 2010.05.17/outbox.cif.g08.bks.cpg/sg15_127_cif.got.tgz:253221.got - 2010.06.03 18:47:42.
