data_PCOD9262803
_publ_section_title
;
Structure prediction by ZEFSAII (Michael W. Deem and Ramdas Pophale) SiO2 
 PCOD9262803
Probable space group: C 2/C
;
_chemical_formula_sum "Si O2"
_cell_formula_units_Z 64
_cell_length_a 13.989332
_cell_length_b 17.825523
_cell_length_c 14.057762
_cell_angle_alpha 90.000000
_cell_angle_beta 105.415077
_cell_angle_gamma 90.000000
_cell_volume 3379.433948
_symmetry_space_group_name_H-M "C 2/C"
_symmetry_group_IT_number 15
_symmetry_cell_setting 'monoclinic'
loop_
_space_group_symop_operation_xyz
x,y,z
-x,y,1/2-z
-x,-y,-z
x,-y,1/2+z
1/2+x,1/2+y,z
1/2-x,1/2+y,1/2-z
1/2-x,1/2-y,-z
1/2+x,1/2-y,1/2+z
loop_
_atom_site_type_symbol
_atom_site_label
_atom_site_fract_x
_atom_site_fract_y
_atom_site_fract_z
Si Si1 0.389849 0.022154 0.073181
Si Si2 0.533811 0.262949 0.096598
Si Si3 0.402894 0.496110 0.768999
Si Si4 0.218552 0.094281 0.910443
Si Si5 0.340579 0.253119 0.179213
Si Si6 0.723818 0.910010 0.787685
Si Si7 0.015052 0.080337 0.953714
Si Si8 0.590731 0.100820 0.068471
O O1 0.342034 0.034442 0.163919
O O2 0.498953 0.056949 0.093737
O O3 0.319811 0.068188 0.982583
O O4 0.389271 0.939707 0.026435
O O5 0.429893 0.251143 0.125740
O O6 0.611751 0.268943 0.204644
O O7 0.527561 0.338000 0.030904
O O8 0.560904 0.187244 0.049288
O O9 0.500000 0.456537 0.750000
O O10 0.326362 0.535352 0.676950
O O11 0.335451 0.440201 0.811499
O O12 0.455623 0.563076 0.840442
O O13 0.225730 0.176614 0.868082
O O14 0.130750 0.092789 0.965007
O O15 0.288473 0.172633 0.170730
O O16 0.678676 0.904825 0.669205
O O17 0.000000 0.000000 0.000000
#
# Coordination Sequence:
#
# PCOD9262803 Si02
#       8
#     8   8   8   8   8   8   8   8
#     4  11  21  34  56  87 117 151 192 234 287 347
#     4   9  16  33  55  81 115 146 189 234 285 348
#     4  10  20  36  56  82 112 150 186 238 290 342
#     4  10  19  35  53  83 116 141 191 244 288 335
#     4   9  17  31  57  82 109 148 184 236 299 331
#     4  11  20  36  59  84 113 153 195 235 290 358
#     4  10  19  33  56  83 110 148 191 239 289 341
#     4  10  21  36  55  84 120 153 187 239 288 342
#
# _framework density 18.938082999999999
#
# number of rings (size 3 to 8) (size 9 to 14) (size 15 to 20)
#    0.000    2.000    3.750    1.125    0.000    0.500 
#    2.250    0.000    0.000    6.000    0.000    0.000 
#    0.000    0.000    0.000    0.000    0.000    0.000 
#
# Total GULP energy -178339.403845 kJ/mol
# GULP energy per Si atom -5573.106370 kJ/mol
# Density = 1.889498 g / cm^3
# Si number density = 18.938083 Si / 1000 Ang^3
#
#
#
# Elastic Constant Matrix: (Units=GPa)
#
#
# Indices 1 2 3 4 5 6 
#
# 1 57.1637 26.8906 -1.2926 0.0000 0.6987 0.0000
# 2 26.8906 148.6923 30.8591 0.0000 -15.1203 0.0000
# 3 -1.2926 30.8591 34.1402 0.0000 -1.0173 0.0000
# 4 0.0000 0.0000 0.0000 28.9951 0.0000 1.7072
# 5 0.6987 -15.1203 -1.0173 0.0000 25.2577 0.0000
# 6 0.0000 0.0000 0.0000 1.7072 0.0000 28.0254
#
#
#
# Elastic Compliance Matrix: (Units=1/GPa)
#
#
# Indices 1 2 3 4 5 6 
#
# 1 0.020027 -0.005048 0.005220 0.000000 -0.003365 0.000000
# 2 -0.005048 0.010137 -0.009180 0.000000 0.005838 0.000000
# 3 0.005220 -0.009180 0.037663 0.000000 -0.004123 0.000000
# 4 0.000000 0.000000 0.000000 0.034613 0.000000 -0.002108
# 5 -0.003365 0.005838 -0.004123 0.000000 0.043014 0.000000
# 6 0.000000 0.000000 0.000000 -0.002108 0.000000 0.035810
#
#
# Mechanical properties :
#
#
# Convention : Reuss Voigt Hill
#
# Bulk Modulus (GPa) = 20.07486 39.21228 29.64357
# Shear Modulus (GPa) = 23.16067 28.69156 25.92612
#
# Velocity S-wave (km/s) = 3.50089 3.89655 3.70401
# Velocity P-wave (km/s) = 5.19278 6.40270 5.82921
#
# Compressibility (1/GPa) = 0.04981354
#
# Stress axis : x y z
#
# Youngs Moduli (GPa) = 49.93208 98.64877 26.55100
#
# Poissons Ratio (x) = 0.49793 -0.13861
# Poissons Ratio (y) = 0.25203 0.24373
# Poissons Ratio (z) = -0.26066 0.90558
#
# Static dielectric constant tensor:
#      x y z
#    x 1.647910 0.000000 -0.014050 
#    y 0.000000 1.681870 0.000000 
#    z -0.014050 0.000000 1.721420 
# 
# From -- ./inp_files/154880.got.cif
#   From: 2010.05.17/outbox.cif.g08.bks.cpg/sg15_78_cif.got.tgz:154880.got - 2010.06.03 18:47:42.
