data_PCOD9262891
_publ_section_title
;
Structure prediction by ZEFSAII (Michael W. Deem and Ramdas Pophale) SiO2 
 PCOD9262891
Probable space group: C 2/C
;
_chemical_formula_sum "Si O2"
_cell_formula_units_Z 44
_cell_length_a 7.841789
_cell_length_b 22.584008
_cell_length_c 12.179930
_cell_angle_alpha 90.000000
_cell_angle_beta 57.173475
_cell_angle_gamma 90.000000
_cell_volume 1812.606184
_symmetry_space_group_name_H-M "C 2/C"
_symmetry_group_IT_number 15
_symmetry_cell_setting 'monoclinic'
loop_
_space_group_symop_operation_xyz
x,y,z
-x,y,1/2-z
-x,-y,-z
x,-y,1/2+z
1/2+x,1/2+y,z
1/2-x,1/2+y,1/2-z
1/2-x,1/2-y,-z
1/2+x,1/2-y,1/2+z
loop_
_atom_site_type_symbol
_atom_site_label
_atom_site_fract_x
_atom_site_fract_y
_atom_site_fract_z
Si Si1 0.452907 0.078050 0.895344
Si Si2 0.386141 0.677329 0.174954
Si Si3 0.256068 0.969178 0.022916
Si Si4 0.170443 0.313632 0.367365
Si Si5 0.500000 0.102550 0.250000
Si Si6 0.995187 0.135927 0.910945
O O1 0.500000 0.074779 0.750000
O O2 0.471554 0.145709 0.928863
O O3 0.260556 0.038419 0.996415
O O4 0.631112 0.045289 0.902578
O O5 0.500000 0.673609 0.250000
O O6 0.360819 0.745620 0.147370
O O7 0.169368 0.643895 0.248084
O O8 0.510736 0.648079 0.032638
O O9 0.387069 0.937891 0.879727
O O10 0.048205 0.932879 0.096728
O O11 0.317535 0.339533 0.221643
O O12 0.296162 0.328667 0.433932
#
# Coordination Sequence:
#
# PCOD9262891 Si02
#       6
#     8   8   8   8   4   8
#     4  10  19  33  57  84 113 152 205 254 299 368
#     4  11  23  37  61  94 125 162 207 250 308 374
#     4   9  19  36  59  81 114 161 209 245 310 369
#     4  10  20  36  59  88 123 161 201 255 312 359
#     4  10  20  40  64  82 126 166 198 258 306 366
#     4   9  20  38  59  84 124 162 205 251 307 369
#
# _framework density 24.274439000000001
#
# number of rings (size 3 to 8) (size 9 to 14) (size 15 to 20)
#    0.000    2.182    0.909    2.182    0.000    5.091 
#    0.000    0.909   12.000    0.000    0.000    0.000 
#    0.000    0.000    0.000    0.000    0.000    0.000 
#
# Total GULP energy -123164.792269 kJ/mol
# GULP energy per Si atom -5598.399649 kJ/mol
# Density = 2.421919 g / cm^3
# Si number density = 24.274439 Si / 1000 Ang^3
#
#
#
# Elastic Constant Matrix: (Units=GPa)
#
#
# Indices 1 2 3 4 5 6 
#
# 1 130.4227 65.2590 39.5019 0.0000 34.4182 0.0000
# 2 65.2590 158.6484 26.1062 0.0000 1.1678 0.0000
# 3 39.5019 26.1062 97.1018 0.0000 34.8826 0.0000
# 4 0.0000 0.0000 0.0000 3.9087 0.0000 -3.9552
# 5 34.4182 1.1678 34.8826 0.0000 44.1639 0.0000
# 6 0.0000 0.0000 0.0000 -3.9552 0.0000 15.3413
#
#
#
# Elastic Compliance Matrix: (Units=1/GPa)
#
#
# Indices 1 2 3 4 5 6 
#
# 1 0.012915 -0.005174 -0.000414 0.000000 -0.009602 0.000000
# 2 -0.005174 0.008762 -0.002256 0.000000 0.005583 0.000000
# 3 -0.000414 -0.002256 0.015268 0.000000 -0.011678 0.000000
# 4 0.000000 0.000000 0.000000 0.346144 0.000000 0.089242
# 5 -0.009602 0.005583 -0.011678 0.000000 0.039202 0.000000
# 6 0.000000 0.000000 0.000000 0.089242 0.000000 0.088192
#
#
# Mechanical properties :
#
#
# Convention : Reuss Voigt Hill
#
# Bulk Modulus (GPa) = 47.04211 71.98968 59.51590
# Shear Modulus (GPa) = 9.37635 29.70315 19.53975
#
# Velocity S-wave (km/s) = 1.96749 3.50185 2.84025
# Velocity P-wave (km/s) = 4.95810 6.78760 5.94366
#
# Compressibility (1/GPa) = 0.02125755
#
# Stress axis : x y z
#
# Youngs Moduli (GPa) = 77.42689 114.13315 65.49452
#
# Poissons Ratio (x) = 0.59051 0.02710
# Poissons Ratio (y) = 0.40060 0.14778
# Poissons Ratio (z) = 0.03204 0.25752
#
# Static dielectric constant tensor:
#      x y z
#    x 1.976060 0.000000 -0.016840 
#    y 0.000000 1.932950 0.000000 
#    z -0.016840 0.000000 1.895080 
# 
# From -- ./inp_files/79033.got.cif
#   From: 2010.05.17/outbox.cif.g08.bks.cpg/sg15_40_cif.got.tgz:79033.got - 2010.06.03 18:47:42.
