data_PCOD9262562
_publ_section_title
;
Structure prediction by ZEFSAII (Michael W. Deem and Ramdas Pophale) SiO2 
 PCOD9262562
Probable space group: C 2/C
;
_chemical_formula_sum "Si O2"
_cell_formula_units_Z 56
_cell_length_a 15.621129
_cell_length_b 14.855979
_cell_length_c 16.747225
_cell_angle_alpha 90.000000
_cell_angle_beta 137.626360
_cell_angle_gamma 90.000000
_cell_volume 2619.342758
_symmetry_space_group_name_H-M "C 2/C"
_symmetry_group_IT_number 15
_symmetry_cell_setting 'monoclinic'
loop_
_space_group_symop_operation_xyz
x,y,z
-x,y,1/2-z
-x,-y,-z
x,-y,1/2+z
1/2+x,1/2+y,z
1/2-x,1/2+y,1/2-z
1/2-x,1/2-y,-z
1/2+x,1/2-y,1/2+z
loop_
_atom_site_type_symbol
_atom_site_label
_atom_site_fract_x
_atom_site_fract_y
_atom_site_fract_z
Si Si1 0.962163 0.987759 0.602732
Si Si2 0.127248 0.693868 0.883095
Si Si3 0.450689 0.628780 0.466709
Si Si4 0.134167 0.325241 0.067941
Si Si5 0.366340 0.867420 0.936362
Si Si6 0.258144 0.678291 0.821605
Si Si7 0.198936 0.971324 0.363585
O O1 0.853641 0.977700 0.594009
O O2 0.909792 0.044802 0.492281
O O3 0.074075 0.042152 0.724079
O O4 0.032572 0.900758 0.614217
O O5 0.190062 0.638901 0.853221
O O6 0.000000 0.733368 0.750000
O O7 0.250000 0.750000 0.000000
O O8 0.088359 0.649191 0.940285
O O9 0.372872 0.716951 0.436504
O O10 0.597160 0.649253 0.586337
O O11 0.187877 0.346002 0.192860
O O12 0.226842 0.378061 0.072068
O O13 0.989918 0.360468 0.966038
O O14 0.271580 0.786172 0.846227
O O15 0.295462 0.961647 0.886355
#
# Coordination Sequence:
#
# PCOD9262562 Si02
#       7
#     8   8   8   8   8   8   8
#     4  10  22  40  62  85 120 156 209 254 312 371
#     4  10  19  33  53  85 124 161 205 260 319 377
#     4  10  21  39  62  88 111 160 207 256 303 374
#     4  11  21  36  61  87 121 157 203 253 315 374
#     4  10  21  35  56  85 121 159 202 252 312 377
#     4  10  19  35  56  85 118 155 202 251 310 376
#     4  11  22  39  58  90 121 162 197 258 313 384
#
# _framework density 21.379408999999999
#
# number of rings (size 3 to 8) (size 9 to 14) (size 15 to 20)
#    0.000    1.714    2.857    2.143    0.000    1.714 
#   10.286    0.000    0.000    0.000    0.000    0.000 
#    0.000    0.000    0.000    0.000    0.000    0.000 
#
# Total GULP energy -155970.402716 kJ/mol
# GULP energy per Si atom -5570.371526 kJ/mol
# Density = 2.133075 g / cm^3
# Si number density = 21.379409 Si / 1000 Ang^3
#
#
#
# Elastic Constant Matrix: (Units=GPa)
#
#
# Indices 1 2 3 4 5 6 
#
# 1 27.5388 17.6576 20.2400 0.0000 2.7499 0.0000
# 2 17.6576 83.8838 4.6729 0.0000 8.5821 0.0000
# 3 20.2400 4.6729 66.6339 0.0000 8.9360 0.0000
# 4 0.0000 0.0000 0.0000 22.1360 0.0000 2.3976
# 5 2.7499 8.5821 8.9360 0.0000 28.4826 0.0000
# 6 0.0000 0.0000 0.0000 2.3976 0.0000 15.0436
#
#
#
# Elastic Compliance Matrix: (Units=1/GPa)
#
#
# Indices 1 2 3 4 5 6 
#
# 1 0.055099 -0.011007 -0.016385 0.000000 0.003137 0.000000
# 2 -0.011007 0.014508 0.002891 0.000000 -0.004216 0.000000
# 3 -0.016385 0.002891 0.020551 0.000000 -0.005737 0.000000
# 4 0.000000 0.000000 0.000000 0.045969 0.000000 -0.007327
# 5 0.003137 -0.004216 -0.005737 0.000000 0.037876 0.000000
# 6 0.000000 0.000000 0.000000 -0.007327 0.000000 0.067641
#
#
# Mechanical properties :
#
#
# Convention : Reuss Voigt Hill
#
# Bulk Modulus (GPa) = 24.29708 29.24415 26.77062
# Shear Modulus (GPa) = 16.42768 22.16484 19.29626
#
# Velocity S-wave (km/s) = 2.77499 3.22333 3.00753
# Velocity P-wave (km/s) = 4.65369 5.24991 4.96076
#
# Compressibility (1/GPa) = 0.04115720
#
# Stress axis : x y z
#
# Youngs Moduli (GPa) = 18.14926 68.92554 48.65968
#
# Poissons Ratio (x) = 0.75863 0.79729
# Poissons Ratio (y) = 0.19976 -0.14068
# Poissons Ratio (z) = 0.29738 -0.19927
#
# Static dielectric constant tensor:
#      x y z
#    x 1.821930 0.000000 -0.010350 
#    y 0.000000 1.844000 0.000000 
#    z -0.010350 0.000000 1.800570 
# 
# From -- ./inp_files/105307.got.cif
#   From: 2010.05.17/outbox.cif.g08.bks.cpg/sg15_53_cif.got.tgz:105307.got - 2010.06.03 18:47:42.
