data_PCOD9262558
_publ_section_title
;
Structure prediction by ZEFSAII (Michael W. Deem and Ramdas Pophale) SiO2 
 PCOD9262558
Probable space group: C 2/C
;
_chemical_formula_sum "Si O2"
_cell_formula_units_Z 40
_cell_length_a 21.830781
_cell_length_b 13.315085
_cell_length_c 8.895806
_cell_angle_alpha 90.000000
_cell_angle_beta 132.481962
_cell_angle_gamma 90.000000
_cell_volume 1907.017376
_symmetry_space_group_name_H-M "C 2/C"
_symmetry_group_IT_number 15
_symmetry_cell_setting 'monoclinic'
loop_
_space_group_symop_operation_xyz
x,y,z
-x,y,1/2-z
-x,-y,-z
x,-y,1/2+z
1/2+x,1/2+y,z
1/2-x,1/2+y,1/2-z
1/2-x,1/2-y,-z
1/2+x,1/2-y,1/2+z
loop_
_atom_site_type_symbol
_atom_site_label
_atom_site_fract_x
_atom_site_fract_y
_atom_site_fract_z
Si Si1 0.335661 0.495655 0.400881
Si Si2 0.155031 0.367287 0.845162
Si Si3 0.141836 0.861976 0.314809
Si Si4 0.259262 0.130304 0.506220
Si Si5 0.902880 0.547108 0.571285
O O1 0.384915 0.415937 0.382318
O O2 0.385549 0.567208 0.595065
O O3 0.274408 0.426982 0.402144
O O4 0.289701 0.573487 0.211255
O O5 0.122227 0.254070 0.796623
O O6 0.121758 0.433247 0.927525
O O7 0.126167 0.416471 0.640436
O O8 0.255897 0.366696 0.015970
O O9 0.250000 0.250000 0.500000
O O10 0.353838 0.109193 0.617639
O O11 0.000000 0.559876 0.750000
#
# Coordination Sequence:
#
# PCOD9262558 Si02
#       5
#     8   8   8   8   8
#     4  10  19  33  53  85 113 140 187 250 284 321
#     4  11  21  35  55  83 117 158 188 233 288 345
#     4  10  19  34  58  81 120 143 198 246 286 327
#     4  11  21  34  56  83 115 149 194 232 285 330
#     4  12  23  38  55  85 127 155 184 233 297 358
#
# _framework density 20.975163999999999
#
# number of rings (size 3 to 8) (size 9 to 14) (size 15 to 20)
#    0.000    1.200    6.000    1.800    2.800    0.000 
#    0.000    0.000    0.000    0.000    0.000   36.400 
#    0.000    0.000    0.000    0.000    0.000    0.000 
#
# Total GULP energy -111680.475179 kJ/mol
# GULP energy per Si atom -5584.023759 kJ/mol
# Density = 2.092742 g / cm^3
# Si number density = 20.975164 Si / 1000 Ang^3
#
#
#
# Elastic Constant Matrix: (Units=GPa)
#
#
# Indices 1 2 3 4 5 6 
#
# 1 49.7662 47.6400 33.9727 0.0000 -21.9390 0.0000
# 2 47.6400 225.9579 36.3149 0.0000 -33.6198 0.0000
# 3 33.9727 36.3149 58.1176 0.0000 -33.9630 0.0000
# 4 0.0000 0.0000 0.0000 17.8004 0.0000 -9.9234
# 5 -21.9390 -33.6198 -33.9630 0.0000 36.2068 0.0000
# 6 0.0000 0.0000 0.0000 -9.9234 0.0000 18.9069
#
#
#
# Elastic Compliance Matrix: (Units=1/GPa)
#
#
# Indices 1 2 3 4 5 6 
#
# 1 0.037791 -0.004840 -0.018394 0.000000 0.001150 0.000000
# 2 -0.004840 0.005778 0.001417 0.000000 0.003762 0.000000
# 3 -0.018394 0.001417 0.047205 0.000000 0.034450 0.000000
# 4 0.000000 0.000000 0.000000 0.079415 0.000000 0.041682
# 5 0.001150 0.003762 0.034450 0.000000 0.064125 0.000000
# 6 0.000000 0.000000 0.000000 0.041682 0.000000 0.074768
#
#
# Mechanical properties :
#
#
# Convention : Reuss Voigt Hill
#
# Bulk Modulus (GPa) = 21.21325 63.29965 42.25645
# Shear Modulus (GPa) = 13.57107 28.97709 21.27408
#
# Velocity S-wave (km/s) = 2.54639 3.72088 3.18819
# Velocity P-wave (km/s) = 4.33370 6.97881 5.80882
#
# Compressibility (1/GPa) = 0.04714035
#
# Stress axis : x y z
#
# Youngs Moduli (GPa) = 26.46098 173.06886 21.18398
#
# Poissons Ratio (x) = 0.83772 0.38966
# Poissons Ratio (y) = 0.12808 -0.03002
# Poissons Ratio (z) = 0.48673 -0.24530
#
# Static dielectric constant tensor:
#      x y z
#    x 1.762590 0.000000 -0.020180 
#    y 0.000000 1.767050 0.000000 
#    z -0.020180 0.000000 1.788900 
# 
# From -- ./inp_files/55504.got.cif
#   From: 2010.05.17/outbox.cif.g08.bks.cpg/sg15_28_cif.got.tgz:55504.got - 2010.06.03 18:47:42.
