data_PCOD9262131
_publ_section_title
;
Structure prediction by ZEFSAII (Michael W. Deem and Ramdas Pophale) SiO2 
 PCOD9262131
Probable space group: C 2/C
;
_chemical_formula_sum "Si O2"
_cell_formula_units_Z 56
_cell_length_a 9.340859
_cell_length_b 21.660605
_cell_length_c 19.277052
_cell_angle_alpha 90.000000
_cell_angle_beta 40.854949
_cell_angle_gamma 90.000000
_cell_volume 2551.366815
_symmetry_space_group_name_H-M "C 2/C"
_symmetry_group_IT_number 15
_symmetry_cell_setting 'monoclinic'
loop_
_space_group_symop_operation_xyz
x,y,z
-x,y,1/2-z
-x,-y,-z
x,-y,1/2+z
1/2+x,1/2+y,z
1/2-x,1/2+y,1/2-z
1/2-x,1/2-y,-z
1/2+x,1/2-y,1/2+z
loop_
_atom_site_type_symbol
_atom_site_label
_atom_site_fract_x
_atom_site_fract_y
_atom_site_fract_z
Si Si1 0.621952 0.998397 0.135818
Si Si2 0.028015 0.090406 0.524565
Si Si3 0.715613 0.248569 0.607753
Si Si4 0.111589 0.197002 0.821032
Si Si5 0.185099 0.310325 0.405230
Si Si6 0.373834 0.351713 0.952764
Si Si7 0.993358 0.560124 0.955195
O O1 0.500000 0.019004 0.250000
O O2 0.465598 0.962393 0.139141
O O3 0.819775 0.953871 0.087697
O O4 0.750055 0.052211 0.047814
O O5 0.954576 0.135285 0.612694
O O6 0.054097 0.126016 0.440985
O O7 0.732281 0.232621 0.682200
O O8 0.570961 0.302495 0.626742
O O9 0.709121 0.185586 0.565424
O O10 0.961128 0.275093 0.502573
O O11 0.234299 0.192248 0.703415
O O12 0.871460 0.219573 0.885307
O O13 0.141173 0.383950 0.429677
O O14 0.247451 0.408516 0.964079
O O15 0.000000 0.500000 0.000000
#
# Coordination Sequence:
#
# PCOD9262131 Si02
#       7
#     8   8   8   8   8   8   8
#     4  10  19  32  54  79 110 151 193 230 284 345
#     4   9  18  33  54  78 111 147 187 239 282 333
#     4   9  17  34  56  76 109 139 181 238 284 339
#     4  10  19  33  55  80 107 144 184 233 287 335
#     4  10  20  32  54  85 109 142 191 228 285 352
#     4   8  17  33  55  76 103 145 181 227 290 337
#     4  10  19  33  55  81 113 146 185 234 286 340
#
# _framework density 21.949020000000001
#
# number of rings (size 3 to 8) (size 9 to 14) (size 15 to 20)
#    0.000    2.571    0.000    2.143    0.000    0.000 
#    0.000   14.286   34.571    0.000    0.000    0.000 
#    0.000    0.000    0.000    0.000    0.000    0.000 
#
# Total GULP energy -156046.024938 kJ/mol
# GULP energy per Si atom -5573.072319 kJ/mol
# Density = 2.189906 g / cm^3
# Si number density = 21.949020 Si / 1000 Ang^3
#
#
#
# Elastic Constant Matrix: (Units=GPa)
#
#
# Indices 1 2 3 4 5 6 
#
# 1 81.8197 12.0945 2.0010 -0.0001 15.6421 0.0001
# 2 12.0945 72.1529 16.2853 0.0000 11.2830 0.0000
# 3 2.0010 16.2853 59.9481 0.0004 19.2022 -0.0001
# 4 -0.0001 0.0000 0.0004 29.7233 -0.0002 11.9677
# 5 15.6421 11.2830 19.2022 -0.0002 32.4888 0.0000
# 6 0.0001 0.0000 -0.0001 11.9677 0.0000 34.9431
#
#
#
# Elastic Compliance Matrix: (Units=1/GPa)
#
#
# Indices 1 2 3 4 5 6 
#
# 1 0.013846 -0.001690 0.002398 0.000000 -0.007497 0.000000
# 2 -0.001690 0.015282 -0.003276 0.000000 -0.002557 0.000000
# 3 0.002398 -0.003276 0.021582 0.000000 -0.012773 0.000000
# 4 0.000000 0.000000 0.000000 0.039025 0.000000 -0.013366
# 5 -0.007497 -0.002557 -0.012773 0.000000 0.042827 0.000000
# 6 0.000000 0.000000 0.000000 -0.013366 0.000000 0.033196
#
#
# Mechanical properties :
#
#
# Convention : Reuss Voigt Hill
#
# Bulk Modulus (GPa) = 21.94143 30.52025 26.23084
# Shear Modulus (GPa) = 26.86937 31.66703 29.26820
#
# Velocity S-wave (km/s) = 3.50261 3.80248 3.65562
# Velocity P-wave (km/s) = 5.13575 5.76314 5.45847
#
# Compressibility (1/GPa) = 0.04557589
#
# Stress axis : x y z
#
# Youngs Moduli (GPa) = 72.22077 65.43628 46.33423
#
# Poissons Ratio (x) = 0.11058 -0.11113
# Poissons Ratio (y) = 0.12205 0.15178
# Poissons Ratio (z) = -0.17321 0.21436
#
# Static dielectric constant tensor:
#      x y z
#    x 1.879290 0.000000 0.014570 
#    y 0.000000 1.852510 0.000000 
#    z 0.014570 0.000000 1.817100 
# 
# From -- ./inp_files/193210.got.cif
#   From: 2010.05.17/outbox.cif.g08.bks.cpg/sg15_97_cif.got.tgz:193210.got - 2010.06.03 18:47:42.
