data_PCOD9262469
_publ_section_title
;
Structure prediction by ZEFSAII (Michael W. Deem and Ramdas Pophale) SiO2 
 PCOD9262469
Probable space group: C 2/C
;
_chemical_formula_sum "Si O2"
_cell_formula_units_Z 60
_cell_length_a 19.318799
_cell_length_b 12.884026
_cell_length_c 12.943654
_cell_angle_alpha 90.000000
_cell_angle_beta 95.513614
_cell_angle_gamma 90.000000
_cell_volume 3206.820423
_symmetry_space_group_name_H-M "C 2/C"
_symmetry_group_IT_number 15
_symmetry_cell_setting 'monoclinic'
loop_
_space_group_symop_operation_xyz
x,y,z
-x,y,1/2-z
-x,-y,-z
x,-y,1/2+z
1/2+x,1/2+y,z
1/2-x,1/2+y,1/2-z
1/2-x,1/2-y,-z
1/2+x,1/2-y,1/2+z
loop_
_atom_site_type_symbol
_atom_site_label
_atom_site_fract_x
_atom_site_fract_y
_atom_site_fract_z
Si Si1 0.231236 0.760817 0.618680
Si Si2 0.142377 0.331728 0.723124
Si Si3 0.149282 0.229757 0.497152
Si Si4 0.711978 0.027546 0.653261
Si Si5 0.678218 0.474241 0.684558
Si Si6 0.000000 0.223430 0.750000
Si Si7 0.043154 0.083946 0.570033
Si Si8 0.222180 0.588398 0.953389
O O1 0.250000 0.750000 0.500000
O O2 0.301641 0.788392 0.689255
O O3 0.205211 0.650617 0.658077
O O4 0.181060 0.857030 0.641818
O O5 0.155271 0.276972 0.614069
O O6 0.158461 0.452912 0.706550
O O7 0.067263 0.296138 0.749749
O O8 0.079875 0.162418 0.493767
O O9 0.160736 0.329184 0.426001
O O10 0.214463 0.154921 0.488426
O O11 0.790959 0.990327 0.696207
O O12 0.700628 0.997592 0.531980
O O13 0.606408 0.529148 0.643364
O O14 0.740611 0.535470 0.636169
O O15 0.000243 0.150028 0.648310
O O16 0.000000 0.000000 0.500000
#
# Coordination Sequence:
#
# PCOD9262469 Si02
#       8
#     8   8   8   8   8   4   8   8
#     4  11  20  32  55  84 111 139 169 231 288 319
#     4   9  20  34  54  80 105 146 185 219 266 327
#     4   8  16  30  49  73  99 135 175 219 262 317
#     4  10  19  33  52  80 112 136 179 224 272 330
#     4  10  21  34  51  82 108 140 179 221 281 326
#     4  10  20  38  58  74 108 150 194 218 260 334
#     4  10  21  33  51  78 108 144 183 227 264 326
#     4   9  15  29  50  72 103 133 169 219 268 319
#
# _framework density 18.710121999999998
#
# number of rings (size 3 to 8) (size 9 to 14) (size 15 to 20)
#    0.000    2.400    1.333    2.400    1.867    3.200 
#    0.000    0.000    0.000    4.800    0.000    0.000 
#    0.000    0.000    0.000    0.000    0.000    0.000 
#
# Total GULP energy -167092.266028 kJ/mol
# GULP energy per Si atom -5569.742201 kJ/mol
# Density = 1.866754 g / cm^3
# Si number density = 18.710122 Si / 1000 Ang^3
#
#
#
# Elastic Constant Matrix: (Units=GPa)
#
#
# Indices 1 2 3 4 5 6 
#
# 1 80.0408 38.7326 26.3844 0.0000 -13.4537 0.0000
# 2 38.7326 143.3214 31.1348 0.0000 -10.6562 0.0000
# 3 26.3844 31.1348 37.4078 0.0000 -2.1821 0.0000
# 4 0.0000 0.0000 0.0000 17.2179 0.0000 0.5161
# 5 -13.4537 -10.6562 -2.1821 0.0000 20.0033 0.0000
# 6 0.0000 0.0000 0.0000 0.5161 0.0000 35.3421
#
#
#
# Elastic Compliance Matrix: (Units=1/GPa)
#
#
# Indices 1 2 3 4 5 6 
#
# 1 0.018822 -0.001903 -0.011083 0.000000 0.010436 0.000000
# 2 -0.001903 0.009005 -0.005985 0.000000 0.002864 0.000000
# 3 -0.011083 -0.005985 0.039159 0.000000 -0.006371 0.000000
# 4 0.000000 0.000000 0.000000 0.058105 0.000000 -0.000849
# 5 0.010436 0.002864 -0.006371 0.000000 0.057842 0.000000
# 6 0.000000 0.000000 0.000000 -0.000849 0.000000 0.028307
#
#
# Mechanical properties :
#
#
# Convention : Reuss Voigt Hill
#
# Bulk Modulus (GPa) = 34.43092 50.36372 42.39732
# Shear Modulus (GPa) = 19.31517 25.48054 22.39785
#
# Velocity S-wave (km/s) = 3.21649 3.69434 3.46366
# Velocity P-wave (km/s) = 5.67773 6.72115 6.22135
#
# Compressibility (1/GPa) = 0.02904367
#
# Stress axis : x y z
#
# Youngs Moduli (GPa) = 53.12912 111.05122 25.53664
#
# Poissons Ratio (x) = 0.21134 0.28302
# Poissons Ratio (y) = 0.10111 0.15285
# Poissons Ratio (z) = 0.58882 0.66469
#
# Static dielectric constant tensor:
#      x y z
#    x 1.631750 0.000000 -0.012540 
#    y 0.000000 1.706490 0.000000 
#    z -0.012540 0.000000 1.785420 
# 
# From -- ./inp_files/167265.got.cif
#   From: 2010.05.17/outbox.cif.g08.bks.cpg/sg15_84_cif.got.tgz:167265.got - 2010.06.03 18:47:42.
