data_PCOD9262835
_publ_section_title
;
Structure prediction by ZEFSAII (Michael W. Deem and Ramdas Pophale) SiO2 
 PCOD9262835
Probable space group: C 2/C
;
_chemical_formula_sum "Si O2"
_cell_formula_units_Z 56
_cell_length_a 11.786554
_cell_length_b 11.277502
_cell_length_c 21.742804
_cell_angle_alpha 90.000000
_cell_angle_beta 82.214456
_cell_angle_gamma 90.000000
_cell_volume 2863.475319
_symmetry_space_group_name_H-M "C 2/C"
_symmetry_group_IT_number 15
_symmetry_cell_setting 'monoclinic'
loop_
_space_group_symop_operation_xyz
x,y,z
-x,y,1/2-z
-x,-y,-z
x,-y,1/2+z
1/2+x,1/2+y,z
1/2-x,1/2+y,1/2-z
1/2-x,1/2-y,-z
1/2+x,1/2-y,1/2+z
loop_
_atom_site_type_symbol
_atom_site_label
_atom_site_fract_x
_atom_site_fract_y
_atom_site_fract_z
Si Si1 0.880463 0.955110 0.265242
Si Si2 0.083068 0.669615 0.689900
Si Si3 0.668150 0.079561 0.235097
Si Si4 0.996910 0.657762 0.063152
Si Si5 0.657347 0.740184 0.830484
Si Si6 0.440942 0.877893 0.080333
Si Si7 0.195160 0.768637 0.131446
O O1 0.766499 0.029299 0.271808
O O2 0.872704 0.879131 0.203086
O O3 0.872828 0.868063 0.324212
O O4 0.000000 0.020598 0.250000
O O5 0.110623 0.532212 0.706687
O O6 0.204681 0.735712 0.677549
O O7 0.015580 0.671561 0.631135
O O8 0.000000 0.712649 0.750000
O O9 0.601235 0.160679 0.289051
O O10 0.720655 0.167457 0.180484
O O11 0.960196 0.521015 0.079694
O O12 0.113345 0.704319 0.087820
O O13 0.897928 0.739325 0.099611
O O14 0.014185 0.665391 0.989046
O O15 0.310434 0.831555 0.098571
#
# Coordination Sequence:
#
# PCOD9262835 Si02
#       7
#     8   8   8   8   8   8   8
#     4  10  19  33  56  86 116 148 199 243 303 379
#     4  11  21  38  60  88 122 153 202 257 310 375
#     4  10  21  33  59  89 118 155 195 254 313 360
#     4  11  22  41  63  84 121 165 206 256 312 371
#     4  10  21  36  57  86 115 158 195 246 316 365
#     4  11  24  39  62  91 115 160 214 254 305 387
#     4  11  21  39  60  89 123 160 205 258 315 370
#
# _framework density 19.556654999999999
#
# number of rings (size 3 to 8) (size 9 to 14) (size 15 to 20)
#    0.000    1.429    2.857    4.714    0.000    2.286 
#    0.000    0.000    0.000    3.429    0.000    0.000 
#    0.000    0.000    0.000    0.000    0.000    0.000 
#
# Total GULP energy -156159.483353 kJ/mol
# GULP energy per Si atom -5577.124405 kJ/mol
# Density = 1.951214 g / cm^3
# Si number density = 19.556655 Si / 1000 Ang^3
#
#
#
# Elastic Constant Matrix: (Units=GPa)
#
#
# Indices 1 2 3 4 5 6 
#
# 1 117.2823 27.3922 54.2783 0.0000 -6.9287 0.0000
# 2 27.3922 75.8256 30.2169 0.0000 -2.0146 0.0000
# 3 54.2783 30.2169 132.7037 0.0000 -8.1202 0.0000
# 4 0.0000 0.0000 0.0000 0.1958 0.0000 -1.9656
# 5 -6.9287 -2.0146 -8.1202 0.0000 35.0509 0.0000
# 6 0.0000 0.0000 0.0000 -1.9656 0.0000 21.8206
#
#
#
# Elastic Compliance Matrix: (Units=1/GPa)
#
#
# Indices 1 2 3 4 5 6 
#
# 1 0.010937 -0.002382 -0.003862 0.000000 0.001130 0.000000
# 2 -0.002382 0.015023 -0.002457 0.000000 -0.000177 0.000000
# 3 -0.003862 -0.002457 0.009758 0.000000 0.001356 0.000000
# 4 0.000000 0.000000 0.000000 53.360400 0.000000 4.806689
# 5 0.001130 -0.000177 0.001356 0.000000 0.029057 0.000000
# 6 0.000000 0.000000 0.000000 4.806689 0.000000 0.478813
#
#
# Mechanical properties :
#
#
# Convention : Reuss Voigt Hill
#
# Bulk Modulus (GPa) = 54.59884 61.06517 57.83200
# Shear Modulus (GPa) = 0.09272 25.67507 12.88389
#
# Velocity S-wave (km/s) = 0.21797 3.62727 2.56949
# Velocity P-wave (km/s) = 5.29549 6.98822 6.19990
#
# Compressibility (1/GPa) = 0.01831541
#
# Stress axis : x y z
#
# Youngs Moduli (GPa) = 91.43450 66.56358 102.48371
#
# Poissons Ratio (x) = 0.15855 0.39577
# Poissons Ratio (y) = 0.21779 0.25184
# Poissons Ratio (z) = 0.35310 0.16357
#
# Static dielectric constant tensor:
#      x y z
#    x 1.747690 0.000000 -0.017780 
#    y 0.000000 1.717270 0.000000 
#    z -0.017780 0.000000 1.662950 
# 
# From -- ./inp_files/237128.got.cif
#   From: 2010.05.17/outbox.cif.g08.bks.cpg/sg15_119_cif.got.tgz:237128.got - 2010.06.03 18:47:42.
