data_PCOD9262393
_publ_section_title
;
Structure prediction by ZEFSAII (Michael W. Deem and Ramdas Pophale) SiO2 
 PCOD9262393
Probable space group: C 2/C
;
_chemical_formula_sum "Si O2"
_cell_formula_units_Z 56
_cell_length_a 21.306606
_cell_length_b 18.684263
_cell_length_c 5.553624
_cell_angle_alpha 90.000000
_cell_angle_beta 101.491099
_cell_angle_gamma 90.000000
_cell_volume 2166.572108
_symmetry_space_group_name_H-M "C 2/C"
_symmetry_group_IT_number 15
_symmetry_cell_setting 'monoclinic'
loop_
_space_group_symop_operation_xyz
x,y,z
-x,y,1/2-z
-x,-y,-z
x,-y,1/2+z
1/2+x,1/2+y,z
1/2-x,1/2+y,1/2-z
1/2-x,1/2-y,-z
1/2+x,1/2-y,1/2+z
loop_
_atom_site_type_symbol
_atom_site_label
_atom_site_fract_x
_atom_site_fract_y
_atom_site_fract_z
Si Si1 0.641437 0.046692 0.353043
Si Si2 0.327336 0.247530 0.564063
Si Si3 0.131497 0.746338 0.414780
Si Si4 0.500000 0.314801 0.250000
Si Si5 0.457210 0.432375 0.527137
Si Si6 0.226619 0.113546 0.957803
Si Si7 0.500000 0.045301 0.250000
Si Si8 0.328071 0.413708 0.590447
O O1 0.699539 0.102225 0.421400
O O2 0.570136 0.081060 0.305743
O O3 0.646785 0.995350 0.597985
O O4 0.250000 0.250000 0.500000
O O5 0.360329 0.218429 0.350662
O O6 0.349587 0.330002 0.609568
O O7 0.347630 0.208701 0.822454
O O8 0.056437 0.765834 0.400078
O O9 0.187700 0.810749 0.438875
O O10 0.449979 0.374969 0.315861
O O11 0.500000 0.500000 0.500000
O O12 0.391847 0.457144 0.589714
O O13 0.500000 0.388795 0.750000
O O14 0.197094 0.071812 0.164215
O O15 0.215945 0.084376 0.679769
O O16 0.500000 0.000000 0.500000
#
# Coordination Sequence:
#
# PCOD9262393 Si02
#       8
#     8   8   8   4   8   8   4   8
#     4  10  19  33  50  75 101 137 182 233 282 336
#     4  10  19  37  62  85 104 133 191 243 306 360
#     4  10  22  36  57  84 116 150 190 241 290 354
#     4  12  22  42  54  78 125 172 212 251 298 344
#     4  12  24  38  53  75 112 175 229 251 285 336
#     4  10  19  38  50  74 112 148 183 243 293 327
#     4   8  16  30  50  70  97 122 162 219 274 338
#     4  10  22  39  53  78 114 142 198 247 285 339
#
# _framework density 25.847283999999998
#
# number of rings (size 3 to 8) (size 9 to 14) (size 15 to 20)
#    0.000    1.714    3.571    3.000    0.000    0.000 
#   12.857    0.000    0.000    0.000    0.000   24.000 
#    0.000    0.000    0.000    0.000    0.000    0.000 
#
# Total GULP energy -156094.921755 kJ/mol
# GULP energy per Si atom -5574.818634 kJ/mol
# Density = 2.578845 g / cm^3
# Si number density = 25.847284 Si / 1000 Ang^3
#
#
#
# Elastic Constant Matrix: (Units=GPa)
#
#
# Indices 1 2 3 4 5 6 
#
# 1 179.1300 19.9917 43.2280 0.0000 20.7017 0.0000
# 2 19.9917 52.5743 15.7377 0.0000 -3.1801 0.0000
# 3 43.2280 15.7377 171.1297 0.0000 -14.5429 0.0000
# 4 0.0000 0.0000 0.0000 -8.4229 0.0000 11.8327
# 5 20.7017 -3.1801 -14.5429 0.0000 61.7587 0.0000
# 6 0.0000 0.0000 0.0000 11.8327 0.0000 27.0027
#
#
#
# Elastic Compliance Matrix: (Units=1/GPa)
#
#
# Indices 1 2 3 4 5 6 
#
# 1 0.006540 -0.002146 -0.001684 0.000000 -0.002699 0.000000
# 2 -0.002146 0.020285 -0.001197 0.000000 0.001482 0.000000
# 3 -0.001684 -0.001197 0.006553 0.000000 0.002046 0.000000
# 4 0.000000 0.000000 0.000000 -0.073486 0.000000 0.032202
# 5 -0.002699 0.001482 0.002046 0.000000 0.017655 0.000000
# 6 0.000000 0.000000 0.000000 0.032202 0.000000 0.022922
#
#
# Mechanical properties :
#
#
# Convention : Reuss Voigt Hill
#
# Bulk Modulus (GPa) = 42.87659 62.30541 52.59100
# Shear Modulus (GPa) = 273.23780 37.65948 155.44864
#
# Velocity S-wave (km/s) = 10.29281 3.82121 7.76349
# Velocity P-wave (km/s) = 12.56504 6.60503 10.03760
#
# Compressibility (1/GPa) = 0.02332275
#
# Stress axis : x y z
#
# Youngs Moduli (GPa) = 152.89423 49.29782 152.60329
#
# Poissons Ratio (x) = 0.10580 0.25701
# Poissons Ratio (y) = 0.32814 0.18273
# Poissons Ratio (z) = 0.25750 0.05903
#
# Static dielectric constant tensor:
#      x y z
#    x 2.074530 0.000000 0.065930 
#    y 0.000000 2.115990 0.000000 
#    z 0.065930 0.000000 1.920010 
# 
# From -- ./inp_files/11592.got.cif
#   From: 2010.05.17/outbox.cif.g08.bks.cpg/sg15_6_cif.got.tgz:11592.got - 2010.06.03 18:47:42.
