data_PCOD9262888
_publ_section_title
;
Structure prediction by ZEFSAII (Michael W. Deem and Ramdas Pophale) SiO2 
 PCOD9262888
Probable space group: C 2/C
;
_chemical_formula_sum "Si O2"
_cell_formula_units_Z 40
_cell_length_a 16.222709
_cell_length_b 15.859920
_cell_length_c 20.997315
_cell_angle_alpha 90.000000
_cell_angle_beta 158.214641
_cell_angle_gamma 90.000000
_cell_volume 2005.002209
_symmetry_space_group_name_H-M "C 2/C"
_symmetry_group_IT_number 15
_symmetry_cell_setting 'monoclinic'
loop_
_space_group_symop_operation_xyz
x,y,z
-x,y,1/2-z
-x,-y,-z
x,-y,1/2+z
1/2+x,1/2+y,z
1/2-x,1/2+y,1/2-z
1/2-x,1/2-y,-z
1/2+x,1/2-y,1/2+z
loop_
_atom_site_type_symbol
_atom_site_label
_atom_site_fract_x
_atom_site_fract_y
_atom_site_fract_z
Si Si1 0.623552 0.138330 0.935569
Si Si2 0.186395 0.206028 0.556154
Si Si3 0.915835 0.551132 0.115550
Si Si4 0.574556 0.320087 0.399296
Si Si5 0.781482 0.811861 0.856200
O O1 0.384297 0.176402 0.743826
O O2 0.777233 0.155991 0.983928
O O3 0.594679 0.039452 0.924161
O O4 0.708867 0.195567 0.054244
O O5 0.951888 0.190630 0.420928
O O6 0.000000 0.540877 0.250000
O O7 0.091665 0.617116 0.212046
O O8 0.673286 0.594381 0.941602
O O9 0.750000 0.250000 0.500000
O O10 0.338155 0.278221 0.217136
O O11 0.592887 0.330636 0.488134
#
# Coordination Sequence:
#
# PCOD9262888 Si02
#       5
#     8   8   8   8   8
#     4  10  20  37  55  74 112 147 183 217 276 320
#     4  10  20  34  56  78 108 147 180 223 266 327
#     4   9  17  34  55  81 107 139 184 227 268 322
#     4   9  18  33  57  78 112 143 167 225 280 322
#     4  10  19  33  57  84 108 139 186 223 273 321
#
# _framework density 19.950102000000001
#
# number of rings (size 3 to 8) (size 9 to 14) (size 15 to 20)
#    0.000    2.400    2.000    3.000    0.000    0.800 
#    3.600    0.000   35.200    6.000    0.000    0.000 
#    0.000    0.000    0.000    0.000    0.000    0.000 
#
# Total GULP energy -111561.681217 kJ/mol
# GULP energy per Si atom -5578.084061 kJ/mol
# Density = 1.990470 g / cm^3
# Si number density = 19.950102 Si / 1000 Ang^3
#
#
#
# Elastic Constant Matrix: (Units=GPa)
#
#
# Indices 1 2 3 4 5 6 
#
# 1 80.2409 24.8167 29.6724 0.0006 32.5895 0.0009
# 2 24.8167 145.8842 40.4065 -0.0401 3.4897 -0.0005
# 3 29.6724 40.4065 57.9920 -0.0538 20.7217 -0.0018
# 4 0.0006 -0.0401 -0.0538 23.5715 -0.0059 -3.6014
# 5 32.5895 3.4897 20.7217 -0.0059 28.3728 0.0006
# 6 0.0009 -0.0005 -0.0018 -3.6014 0.0006 10.0115
#
#
#
# Elastic Compliance Matrix: (Units=1/GPa)
#
#
# Indices 1 2 3 4 5 6 
#
# 1 0.025110 -0.003502 -0.000346 -0.000015 -0.028158 -0.000006
# 2 -0.003502 0.009416 -0.007838 0.000000 0.008588 -0.000001
# 3 -0.000346 -0.007838 0.030303 0.000055 -0.020770 0.000026
# 4 -0.000015 0.000000 0.000055 0.044891 -0.000013 0.016148
# 5 -0.028158 0.008588 -0.020770 -0.000013 0.081700 -0.000010
# 6 -0.000006 -0.000001 0.000026 0.016148 -0.000010 0.105694
#
#
# Mechanical properties :
#
#
# Convention : Reuss Voigt Hill
#
# Bulk Modulus (GPa) = 24.12129 52.65648 38.38888
# Shear Modulus (GPa) = 14.95638 25.00593 19.98115
#
# Velocity S-wave (km/s) = 2.74102 3.54421 3.16817
# Velocity P-wave (km/s) = 4.70474 6.57267 5.71553
#
# Compressibility (1/GPa) = 0.04145716
#
# Stress axis : x y z
#
# Youngs Moduli (GPa) = 39.82496 106.20382 32.99967
#
# Poissons Ratio (x) = 0.37193 0.01143
# Poissons Ratio (y) = 0.13947 0.25864
# Poissons Ratio (z) = 0.01380 0.83238
#
# Static dielectric constant tensor:
#      x y z
#    x 1.701240 -0.000010 -0.020800 
#    y -0.000010 1.718650 -0.000010 
#    z -0.020800 -0.000010 1.738560 
# 
# From -- ./inp_files/46912.got.cif
#   From: 2010.05.17/outbox.cif.g08.bks.cpg/sg15_24_cif.got.tgz:46912.got - 2010.06.03 18:47:42.
