data_PCOD9262811
_publ_section_title
;
Structure prediction by ZEFSAII (Michael W. Deem and Ramdas Pophale) SiO2 
 PCOD9262811
Probable space group: C 2/C
;
_chemical_formula_sum "Si O2"
_cell_formula_units_Z 32
_cell_length_a 8.240356
_cell_length_b 22.934710
_cell_length_c 12.015492
_cell_angle_alpha 90.000000
_cell_angle_beta 49.530026
_cell_angle_gamma 90.000000
_cell_volume 1727.510045
_symmetry_space_group_name_H-M "C 2/C"
_symmetry_group_IT_number 15
_symmetry_cell_setting 'monoclinic'
loop_
_space_group_symop_operation_xyz
x,y,z
-x,y,1/2-z
-x,-y,-z
x,-y,1/2+z
1/2+x,1/2+y,z
1/2-x,1/2+y,1/2-z
1/2-x,1/2-y,-z
1/2+x,1/2-y,1/2+z
loop_
_atom_site_type_symbol
_atom_site_label
_atom_site_fract_x
_atom_site_fract_y
_atom_site_fract_z
Si Si1 0.701682 0.950357 0.583760
Si Si2 0.109058 0.306567 0.081730
Si Si3 0.753651 0.875536 0.342580
Si Si4 0.674116 0.419897 0.437375
O O1 0.500000 0.936597 0.750000
O O2 0.694119 0.919827 0.467272
O O3 0.920226 0.928424 0.544179
O O4 0.725896 0.020149 0.563560
O O5 0.255263 0.364323 0.023347
O O6 0.000000 0.299337 0.250000
O O7 0.914638 0.322694 0.086090
O O8 0.250000 0.250000 0.000000
O O9 0.748826 0.907160 0.223965
O O10 0.000000 0.856856 0.250000
#
# Coordination Sequence:
#
# PCOD9262811 Si02
#       4
#     8   8   8   8
#     4  10  19  33  56  84 108 138 180 219 260 320
#     4  10  21  38  56  76 106 143 181 220 267 316
#     4   9  19  37  56  78 111 145 172 215 277 321
#     4   9  20  36  53  78 113 143 171 217 275 318
#
# _framework density 18.523771
#
# number of rings (size 3 to 8) (size 9 to 14) (size 15 to 20)
#    0.000    2.500    0.000    2.250    0.000    6.000 
#    0.000   18.750    0.000    0.000    0.000    0.000 
#    0.000    0.000    0.000    0.000    0.000    0.000 
#
# Total GULP energy -89271.336877 kJ/mol
# GULP energy per Si atom -5579.458555 kJ/mol
# Density = 1.848161 g / cm^3
# Si number density = 18.523771 Si / 1000 Ang^3
#
#
#
# Elastic Constant Matrix: (Units=GPa)
#
#
# Indices 1 2 3 4 5 6 
#
# 1 104.7009 80.4334 47.3397 0.0000 -12.6923 0.0000
# 2 80.4334 131.6062 52.1898 0.0000 -24.4491 0.0000
# 3 47.3397 52.1898 83.8180 0.0000 -27.6310 0.0000
# 4 0.0000 0.0000 0.0000 23.1139 0.0000 -13.3353
# 5 -12.6923 -24.4491 -27.6310 0.0000 25.7326 0.0000
# 6 0.0000 0.0000 0.0000 -13.3353 0.0000 30.8849
#
#
#
# Elastic Compliance Matrix: (Units=1/GPa)
#
#
# Indices 1 2 3 4 5 6 
#
# 1 0.020397 -0.011102 -0.007381 0.000000 -0.008413 0.000000
# 2 -0.011102 0.016465 -0.000975 0.000000 0.009121 0.000000
# 3 -0.007381 -0.000975 0.023530 0.000000 0.020699 0.000000
# 4 0.000000 0.000000 0.000000 0.057617 0.000000 0.024878
# 5 -0.008413 0.009121 0.020699 0.000000 0.065603 0.000000
# 6 0.000000 0.000000 0.000000 0.024878 0.000000 0.043120
#
#
# Mechanical properties :
#
#
# Convention : Reuss Voigt Hill
#
# Bulk Modulus (GPa) = 46.56291 75.56122 61.06207
# Shear Modulus (GPa) = 18.32811 25.29044 21.80928
#
# Velocity S-wave (km/s) = 3.14895 3.69900 3.43500
# Velocity P-wave (km/s) = 6.19779 7.68918 6.98341
#
# Compressibility (1/GPa) = 0.02147632
#
# Stress axis : x y z
#
# Youngs Moduli (GPa) = 49.02654 60.73650 42.49973
#
# Poissons Ratio (x) = 0.67430 0.31368
# Poissons Ratio (y) = 0.54429 0.04142
# Poissons Ratio (z) = 0.36185 0.05920
#
# Static dielectric constant tensor:
#      x y z
#    x 1.684110 0.000000 -0.020980 
#    y 0.000000 1.624050 0.000000 
#    z -0.020980 0.000000 1.623580 
# 
# From -- ./inp_files/22094.got.cif
#   From: 2010.05.17/outbox.cif.g08.bks.cpg/sg15_12_cif.got.tgz:22094.got - 2010.06.03 18:47:42.
