data_PCOD9262958
_publ_section_title
;
Structure prediction by ZEFSAII (Michael W. Deem and Ramdas Pophale) SiO2 
 PCOD9262958
Probable space group: C 2/C
;
_chemical_formula_sum "Si O2"
_cell_formula_units_Z 60
_cell_length_a 21.770350
_cell_length_b 9.212056
_cell_length_c 31.168175
_cell_angle_alpha 90.000000
_cell_angle_beta 152.440819
_cell_angle_gamma 90.000000
_cell_volume 2892.008673
_symmetry_space_group_name_H-M "C 2/C"
_symmetry_group_IT_number 15
_symmetry_cell_setting 'monoclinic'
loop_
_space_group_symop_operation_xyz
x,y,z
-x,y,1/2-z
-x,-y,-z
x,-y,1/2+z
1/2+x,1/2+y,z
1/2-x,1/2+y,1/2-z
1/2-x,1/2-y,-z
1/2+x,1/2-y,1/2+z
loop_
_atom_site_type_symbol
_atom_site_label
_atom_site_fract_x
_atom_site_fract_y
_atom_site_fract_z
Si Si1 0.500000 0.354230 0.250000
Si Si2 0.169821 0.392760 0.860887
Si Si3 0.925640 0.068790 0.393383
Si Si4 0.199655 0.109378 0.612422
Si Si5 0.561740 0.310566 0.433818
Si Si6 0.629637 0.530908 0.401015
Si Si7 0.396086 0.739785 0.289198
Si Si8 0.077279 0.488866 0.898519
O O1 0.403687 0.233294 0.211273
O O2 0.595098 0.458296 0.334910
O O3 0.188028 0.546318 0.849419
O O4 0.108381 0.430071 0.869699
O O5 0.313971 0.325964 0.957905
O O6 0.877146 0.173337 0.325160
O O7 0.064742 0.128035 0.500521
O O8 0.832767 0.023905 0.375215
O O9 0.950830 0.911002 0.386687
O O10 0.263034 0.243166 0.678030
O O11 0.606461 0.399071 0.419610
O O12 0.544389 0.146989 0.408654
O O13 0.515985 0.646580 0.342040
O O14 0.784542 0.567935 0.501412
O O15 0.457774 0.899875 0.328447
#
# Coordination Sequence:
#
# PCOD9262958 Si02
#       8
#     4   8   8   8   8   8   8   8
#     4  12  18  30  52  84 122 152 194 242 300 366
#     4  10  19  33  58  86 113 159 200 242 294 373
#     4   9  22  44  66  85 121 167 206 261 306 350
#     4  10  22  42  65  86 121 164 213 248 305 369
#     4   9  17  37  59  80 114 159 203 239 299 364
#     4  10  21  33  51  85 126 156 189 248 309 364
#     4  11  24  38  61  94 120 160 203 258 313 367
#     4  11  19  37  60  90 122 158 201 247 313 374
#
# _framework density 20.746825000000001
#
# number of rings (size 3 to 8) (size 9 to 14) (size 15 to 20)
#    0.000    1.867    2.667    2.800    0.000    3.200 
#    2.400    0.000    0.000    3.200    0.000    0.000 
#    0.000    0.000    0.000    0.000    0.000    0.000 
#
# Total GULP energy -167065.055430 kJ/mol
# GULP energy per Si atom -5568.835181 kJ/mol
# Density = 2.069960 g / cm^3
# Si number density = 20.746825 Si / 1000 Ang^3
#
#
#
# Elastic Constant Matrix: (Units=GPa)
#
#
# Indices 1 2 3 4 5 6 
#
# 1 39.5653 4.9304 12.3873 -0.0001 -16.6948 -0.0002
# 2 4.9304 67.2796 22.1242 -0.0001 -6.3407 -0.0005
# 3 12.3873 22.1242 91.0777 -0.0005 -14.4333 -0.0003
# 4 -0.0001 -0.0001 -0.0005 29.5392 -0.0001 -2.2811
# 5 -16.6948 -6.3407 -14.4333 -0.0001 18.6989 -0.0001
# 6 -0.0002 -0.0005 -0.0003 -2.2811 -0.0001 5.6943
#
#
#
# Elastic Compliance Matrix: (Units=1/GPa)
#
#
# Indices 1 2 3 4 5 6 
#
# 1 0.040567 0.000412 0.000165 0.000000 0.036486 0.000003
# 2 0.000412 0.016287 -0.003508 0.000000 0.003183 0.000001
# 3 0.000165 -0.003508 0.013267 0.000000 0.009198 0.000001
# 4 0.000000 0.000000 0.000000 0.034934 0.000001 0.013995
# 5 0.036486 0.003183 0.009198 0.000001 0.094233 0.000004
# 6 0.000003 0.000001 0.000001 0.013995 0.000004 0.181220
#
#
# Mechanical properties :
#
#
# Convention : Reuss Voigt Hill
#
# Bulk Modulus (GPa) = 15.56241 30.75629 23.15935
# Shear Modulus (GPa) = 12.26118 21.35184 16.80651
#
# Velocity S-wave (km/s) = 2.43367 3.21154 2.84927
# Velocity P-wave (km/s) = 3.92611 5.34871 4.69165
#
# Compressibility (1/GPa) = 0.06425740
#
# Stress axis : x y z
#
# Youngs Moduli (GPa) = 24.65039 61.39995 75.37493
#
# Poissons Ratio (x) = -0.02527 -0.01240
# Poissons Ratio (y) = -0.01015 0.26441
# Poissons Ratio (z) = -0.00406 0.21539
#
# Static dielectric constant tensor:
#      x y z
#    x 1.802760 0.000000 -0.020750 
#    y 0.000000 1.737070 0.000000 
#    z -0.020750 0.000000 1.885830 
# 
# From -- ./inp_files/318514.got.cif
#   From: 2010.05.17/outbox.cif.g08.bks.cpg/sg15_160_cif.got.tgz:318514.got - 2010.06.03 18:47:42.
