data_PCOD9262872
_publ_section_title
;
Structure prediction by ZEFSAII (Michael W. Deem and Ramdas Pophale) SiO2 
 PCOD9262872
Probable space group: C 2/C
;
_chemical_formula_sum "Si O2"
_cell_formula_units_Z 56
_cell_length_a 9.288990
_cell_length_b 19.984534
_cell_length_c 15.646514
_cell_angle_alpha 90.000000
_cell_angle_beta 58.730468
_cell_angle_gamma 90.000000
_cell_volume 2482.627651
_symmetry_space_group_name_H-M "C 2/C"
_symmetry_group_IT_number 15
_symmetry_cell_setting 'monoclinic'
loop_
_space_group_symop_operation_xyz
x,y,z
-x,y,1/2-z
-x,-y,-z
x,-y,1/2+z
1/2+x,1/2+y,z
1/2-x,1/2+y,1/2-z
1/2-x,1/2-y,-z
1/2+x,1/2-y,1/2+z
loop_
_atom_site_type_symbol
_atom_site_label
_atom_site_fract_x
_atom_site_fract_y
_atom_site_fract_z
Si Si1 0.470074 0.064503 0.099261
Si Si2 0.264280 0.476048 0.954687
Si Si3 0.454143 0.195616 0.862861
Si Si4 0.854188 0.571603 0.721348
Si Si5 0.500000 0.838223 0.750000
Si Si6 0.124648 0.887453 0.433332
Si Si7 0.120182 0.173022 0.366947
Si Si8 0.500000 0.575334 0.250000
O O1 0.350572 0.081556 0.056424
O O2 0.493644 0.116373 0.166821
O O3 0.375143 0.998876 0.168183
O O4 0.645517 0.038537 0.007605
O O5 0.413894 0.475691 0.842688
O O6 0.327521 0.452141 0.025931
O O7 0.500000 0.210414 0.750000
O O8 0.578978 0.135281 0.851569
O O9 0.264099 0.168310 0.917665
O O10 0.500825 0.262746 0.896259
O O11 0.679268 0.591750 0.820865
O O12 0.000000 0.566510 0.750000
O O13 0.684418 0.804876 0.690555
O O14 0.945277 0.864745 0.526823
O O15 0.091993 0.125229 0.291190
#
# Coordination Sequence:
#
# PCOD9262872 Si02
#       8
#     8   8   8   8   4   8   8   4
#     4  11  19  35  56  79 118 160 187 227 306 358
#     4  10  19  33  57  82 109 152 196 238 284 349
#     4   9  17  33  61  87 106 143 196 252 287 327
#     4   9  16  33  55  85 110 143 193 252 284 338
#     4  12  24  38  53  87 126 160 182 232 312 366
#     4   9  18  34  58  87 110 138 207 247 290 323
#     4  11  21  36  56  85 119 151 190 241 290 352
#     4  10  20  36  51  89 108 140 202 248 274 324
#
# _framework density 22.556744999999999
#
# number of rings (size 3 to 8) (size 9 to 14) (size 15 to 20)
#    0.000    2.286    5.714    0.429    0.000    0.000 
#    2.571    2.143    0.000    8.571    0.000    0.000 
#    0.000    0.000    0.000    0.000    0.000    0.000 
#
# Total GULP energy -155925.496009 kJ/mol
# GULP energy per Si atom -5568.767715 kJ/mol
# Density = 2.250540 g / cm^3
# Si number density = 22.556745 Si / 1000 Ang^3
#
#
#
# Elastic Constant Matrix: (Units=GPa)
#
#
# Indices 1 2 3 4 5 6 
#
# 1 39.6918 7.2557 2.8430 0.0000 -13.3267 0.0000
# 2 7.2557 41.4707 15.4529 0.0000 -2.5073 0.0000
# 3 2.8430 15.4529 140.3079 0.0000 -15.2142 0.0000
# 4 0.0000 0.0000 0.0000 16.7241 0.0000 -2.0687
# 5 -13.3267 -2.5073 -15.2142 0.0000 29.8100 0.0000
# 6 0.0000 0.0000 0.0000 -2.0687 0.0000 8.3995
#
#
#
# Elastic Compliance Matrix: (Units=1/GPa)
#
#
# Indices 1 2 3 4 5 6 
#
# 1 0.030737 -0.005072 0.001460 0.000000 0.014060 0.000000
# 2 -0.005072 0.025998 -0.002931 0.000000 -0.001577 0.000000
# 3 0.001460 -0.002931 0.007902 0.000000 0.004439 0.000000
# 4 0.000000 0.000000 0.000000 0.061673 0.000000 0.015190
# 5 0.014060 -0.001577 0.004439 0.000000 0.041964 0.000000
# 6 0.000000 0.000000 0.000000 0.015190 0.000000 0.122796
#
#
# Mechanical properties :
#
#
# Convention : Reuss Voigt Hill
#
# Bulk Modulus (GPa) = 19.39830 30.28596 24.84213
# Shear Modulus (GPa) = 15.55984 24.04797 19.80390
#
# Velocity S-wave (km/s) = 2.62927 3.26868 2.96625
# Velocity P-wave (km/s) = 4.22325 5.26321 4.77165
#
# Compressibility (1/GPa) = 0.05155092
#
# Stress axis : x y z
#
# Youngs Moduli (GPa) = 32.53366 38.46485 126.55322
#
# Poissons Ratio (x) = 0.19509 -0.18482
# Poissons Ratio (y) = 0.16501 0.37099
# Poissons Ratio (z) = -0.04751 0.11276
#
# Static dielectric constant tensor:
#      x y z
#    x 1.935150 0.000000 -0.031570 
#    y 0.000000 1.877250 0.000000 
#    z -0.031570 0.000000 1.919860 
# 
# From -- ./inp_files/193238.got.cif
#   From: 2010.05.17/outbox.cif.g08.bks.cpg/sg15_97_cif.got.tgz:193238.got - 2010.06.03 18:47:42.
