data_PCOD9262433
_publ_section_title
;
Structure prediction by ZEFSAII (Michael W. Deem and Ramdas Pophale) SiO2 
 PCOD9262433
Probable space group: C 2/C
;
_chemical_formula_sum "Si O2"
_cell_formula_units_Z 52
_cell_length_a 10.932045
_cell_length_b 24.966308
_cell_length_c 13.473025
_cell_angle_alpha 90.000000
_cell_angle_beta 133.939511
_cell_angle_gamma 90.000000
_cell_volume 2647.873541
_symmetry_space_group_name_H-M "C 2/C"
_symmetry_group_IT_number 15
_symmetry_cell_setting 'monoclinic'
loop_
_space_group_symop_operation_xyz
x,y,z
-x,y,1/2-z
-x,-y,-z
x,-y,1/2+z
1/2+x,1/2+y,z
1/2-x,1/2+y,1/2-z
1/2-x,1/2-y,-z
1/2+x,1/2-y,1/2+z
loop_
_atom_site_type_symbol
_atom_site_label
_atom_site_fract_x
_atom_site_fract_y
_atom_site_fract_z
Si Si1 0.476886 0.076843 0.988568
Si Si2 0.337644 0.982565 0.588655
Si Si3 0.268720 0.553678 0.812692
Si Si4 0.592488 0.612097 0.013905
Si Si5 0.639494 0.558858 0.242845
Si Si6 0.000000 0.246044 0.750000
Si Si7 0.191044 0.318772 0.006150
O O1 0.397730 0.029265 0.012220
O O2 0.677486 0.075761 0.112336
O O3 0.397630 0.130917 0.991036
O O4 0.405307 0.068769 0.838624
O O5 0.500000 0.969894 0.750000
O O6 0.195738 0.938517 0.529332
O O7 0.261861 0.037004 0.590534
O O8 0.339028 0.499258 0.799420
O O9 0.400205 0.601572 0.873295
O O10 0.598286 0.602786 0.134902
O O11 0.689042 0.661267 0.018299
O O12 0.500000 0.554814 0.250000
O O13 0.954053 0.282670 0.628121
O O14 0.826823 0.210569 0.654912
#
# Coordination Sequence:
#
# PCOD9262433 Si02
#       7
#     8   8   8   8   8   4   8
#     4  11  22  37  55  79 113 162 182 238 286 323
#     4  10  19  33  52  71 109 152 200 226 264 311
#     4  11  23  31  52  77 111 155 206 224 260 316
#     4  10  21  36  51  79 111 154 177 236 283 326
#     4  11  23  34  52  78 114 159 203 229 260 323
#     4  10  20  36  60  98 102 134 170 250 292 370
#     4  10  21  36  62  83 119 132 184 226 310 347
#
# _framework density 19.638401000000002
#
# number of rings (size 3 to 8) (size 9 to 14) (size 15 to 20)
#    0.000    1.538    3.077    4.154    8.615    0.000 
#    0.000    0.000    0.000    0.000    0.000   17.231 
#    0.000    0.000    0.000    0.000    0.000    0.000 
#
# Total GULP energy -145123.699859 kJ/mol
# GULP energy per Si atom -5581.680764 kJ/mol
# Density = 1.959370 g / cm^3
# Si number density = 19.638401 Si / 1000 Ang^3
#
#
#
# Elastic Constant Matrix: (Units=GPa)
#
#
# Indices 1 2 3 4 5 6 
#
# 1 116.6976 30.1239 27.4519 0.0000 1.9618 0.0000
# 2 30.1239 74.2705 39.2158 0.0000 1.5549 0.0000
# 3 27.4519 39.2158 118.4853 0.0000 13.2274 0.0000
# 4 0.0000 0.0000 0.0000 25.8721 0.0000 -1.1463
# 5 1.9618 1.5549 13.2274 0.0000 30.5899 0.0000
# 6 0.0000 0.0000 0.0000 -1.1463 0.0000 15.4760
#
#
#
# Elastic Compliance Matrix: (Units=1/GPa)
#
#
# Indices 1 2 3 4 5 6 
#
# 1 0.009698 -0.003327 -0.001151 0.000000 0.000045 0.000000
# 2 -0.003327 0.017530 -0.005207 0.000000 0.001574 0.000000
# 3 -0.001151 -0.005207 0.010919 0.000000 -0.004383 0.000000
# 4 0.000000 0.000000 0.000000 0.038779 0.000000 0.002872
# 5 0.000045 0.001574 -0.004383 0.000000 0.034503 0.000000
# 6 0.000000 0.000000 0.000000 0.002872 0.000000 0.064829
#
#
# Mechanical properties :
#
#
# Convention : Reuss Voigt Hill
#
# Bulk Modulus (GPa) = 53.25362 55.89298 54.57330
# Shear Modulus (GPa) = 24.76643 28.56505 26.66574
#
# Velocity S-wave (km/s) = 3.55508 3.81799 3.68888
# Velocity P-wave (km/s) = 6.63532 6.92524 6.78183
#
# Compressibility (1/GPa) = 0.01877807
#
# Stress axis : x y z
#
# Youngs Moduli (GPa) = 103.11542 57.04513 91.58190
#
# Poissons Ratio (x) = 0.18977 0.10540
# Poissons Ratio (y) = 0.34304 0.47686
# Poissons Ratio (z) = 0.11867 0.29703
#
# Static dielectric constant tensor:
#      x y z
#    x 1.738300 0.000000 0.003310 
#    y 0.000000 1.709970 0.000000 
#    z 0.003310 0.000000 1.739230 
# 
# From -- ./inp_files/148424.got.cif
#   From: 2010.05.17/outbox.cif.g08.bks.cpg/sg15_75_cif.got.tgz:148424.got - 2010.06.03 18:47:42.
