data_PCOD9262894
_publ_section_title
;
Structure prediction by ZEFSAII (Michael W. Deem and Ramdas Pophale) SiO2 
 PCOD9262894
Probable space group: C 2/C
;
_chemical_formula_sum "Si O2"
_cell_formula_units_Z 48
_cell_length_a 8.248327
_cell_length_b 26.954784
_cell_length_c 18.586738
_cell_angle_alpha 90.000000
_cell_angle_beta 148.669521
_cell_angle_gamma 90.000000
_cell_volume 2148.751420
_symmetry_space_group_name_H-M "C 2/C"
_symmetry_group_IT_number 15
_symmetry_cell_setting 'monoclinic'
loop_
_space_group_symop_operation_xyz
x,y,z
-x,y,1/2-z
-x,-y,-z
x,-y,1/2+z
1/2+x,1/2+y,z
1/2-x,1/2+y,1/2-z
1/2-x,1/2-y,-z
1/2+x,1/2-y,1/2+z
loop_
_atom_site_type_symbol
_atom_site_label
_atom_site_fract_x
_atom_site_fract_y
_atom_site_fract_z
Si Si1 0.365529 0.251010 0.775100
Si Si2 0.740418 0.440620 0.034630
Si Si3 0.311593 0.192608 0.103006
Si Si4 0.670269 0.495484 0.740838
Si Si5 0.359931 0.916177 0.614714
Si Si6 0.249248 0.324416 0.488130
O O1 0.500000 0.237381 0.750000
O O2 0.563573 0.299359 0.875631
O O3 0.005176 0.265481 0.636336
O O4 0.433808 0.206444 0.856656
O O5 0.578606 0.475404 0.912173
O O6 0.486479 0.437217 0.002917
O O7 0.770774 0.383636 0.018384
O O8 0.076474 0.462310 0.184134
O O9 0.500000 0.190857 0.250000
O O10 0.351464 0.139155 0.081613
O O11 0.962666 0.191679 0.000353
O O12 0.500000 0.509371 0.750000
O O13 0.905170 0.449135 0.841316
O O14 0.500000 0.915365 0.750000
#
# Coordination Sequence:
#
# PCOD9262894 Si02
#       6
#     8   8   8   8   8   8
#     4  10  19  33  57  85 109 143 189 239 289 345
#     4  10  21  39  58  80 116 162 197 233 288 353
#     4   8  15  31  53  77 106 144 184 225 276 340
#     4  11  21  35  57  86 116 146 194 248 294 339
#     4   8  16  32  55  77 105 149 195 227 273 345
#     4   9  20  38  56  78 116 155 188 233 291 350
#
# _framework density 22.338553999999998
#
# number of rings (size 3 to 8) (size 9 to 14) (size 15 to 20)
#    0.000    2.667    0.000    4.000    0.000    3.333 
#    0.000   10.000    0.000    0.000    0.000    0.000 
#    0.000    0.000    0.000    0.000    0.000    0.000 
#
# Total GULP energy -133756.327303 kJ/mol
# GULP energy per Si atom -5573.180304 kJ/mol
# Density = 2.228771 g / cm^3
# Si number density = 22.338554 Si / 1000 Ang^3
#
#
#
# Elastic Constant Matrix: (Units=GPa)
#
#
# Indices 1 2 3 4 5 6 
#
# 1 22.7573 -18.4084 43.3544 0.0041 14.9569 0.0016
# 2 -18.4084 64.5835 89.2728 0.0001 1.5660 0.0001
# 3 43.3544 89.2728 108.3795 -0.0349 10.6995 -0.0652
# 4 0.0041 0.0001 -0.0349 34.6898 -0.0010 34.2953
# 5 14.9569 1.5660 10.6995 -0.0010 22.9768 -0.0004
# 6 0.0016 0.0001 -0.0652 34.2953 -0.0004 61.2030
#
#
#
# Elastic Compliance Matrix: (Units=1/GPa)
#
#
# Indices 1 2 3 4 5 6 
#
# 1 0.004429 -0.019748 0.015352 -0.000003 -0.008686 0.000018
# 2 -0.019748 -0.000084 0.007022 0.000004 0.009591 0.000006
# 3 0.015352 0.007022 -0.001745 -0.000003 -0.009660 0.000000
# 4 -0.000003 0.000004 -0.000003 0.064631 0.000005 -0.036216
# 5 -0.008686 0.009591 -0.009660 0.000005 0.053021 -0.000013
# 6 0.000018 0.000006 0.000000 -0.036216 -0.000013 0.036633
#
#
# Mechanical properties :
#
#
# Convention : Reuss Voigt Hill
#
# Bulk Modulus (GPa) = 127.33975 47.12865 87.23420
# Shear Modulus (GPa) = 32.41441 29.20737 30.81089
#
# Velocity S-wave (km/s) = 3.81340 3.61984 3.71788
# Velocity P-wave (km/s) = 8.74743 6.21404 7.58722
#
# Compressibility (1/GPa) = 0.00785301
#
# Stress axis : x y z
#
# Youngs Moduli (GPa) = 225.76456 -11964.31982 -573.18635
#
# Poissons Ratio (x) = -236.27229 8.79972
# Poissons Ratio (y) = 4.45842 4.02475
# Poissons Ratio (z) = -3.46600 84.01000
#
# Static dielectric constant tensor:
#      x y z
#    x 1.832290 0.000000 0.032200 
#    y 0.000000 1.876910 -0.000010 
#    z 0.032200 -0.000010 1.893950 
# 
# From -- ./inp_files/234820.got.cif
#   From: 2010.05.17/outbox.cif.g08.bks.cpg/sg15_118_cif.got.tgz:234820.got - 2010.06.03 18:47:42.
