data_PCOD9262513
_publ_section_title
;
Structure prediction by ZEFSAII (Michael W. Deem and Ramdas Pophale) SiO2 
 PCOD9262513
Probable space group: C 2/C
;
_chemical_formula_sum "Si O2"
_cell_formula_units_Z 56
_cell_length_a 14.610383
_cell_length_b 28.889056
_cell_length_c 9.703589
_cell_angle_alpha 90.000000
_cell_angle_beta 131.617690
_cell_angle_gamma 90.000000
_cell_volume 3061.911339
_symmetry_space_group_name_H-M "C 2/C"
_symmetry_group_IT_number 15
_symmetry_cell_setting 'monoclinic'
loop_
_space_group_symop_operation_xyz
x,y,z
-x,y,1/2-z
-x,-y,-z
x,-y,1/2+z
1/2+x,1/2+y,z
1/2-x,1/2+y,1/2-z
1/2-x,1/2-y,-z
1/2+x,1/2-y,1/2+z
loop_
_atom_site_type_symbol
_atom_site_label
_atom_site_fract_x
_atom_site_fract_y
_atom_site_fract_z
Si Si1 0.359556 0.783641 0.442528
Si Si2 0.353993 0.457071 0.760162
Si Si3 0.359556 0.783641 0.776585
Si Si4 0.000000 0.543857 0.404172
Si Si5 0.271197 0.112589 0.181453
Si Si6 0.728803 0.112589 0.639060
Si Si7 0.646007 0.457071 0.052177
O O1 0.363987 0.779316 0.613987
O O2 0.500000 0.774875 0.534466
O O3 0.250000 0.750000 0.283973
O O4 0.318545 0.836292 0.372969
O O5 0.324750 0.409463 0.809393
O O6 0.303927 0.458766 0.553927
O O7 0.308993 0.500000 0.808993
O O8 0.500000 0.462008 0.896854
O O9 0.318545 0.836292 0.764122
O O10 0.115621 0.577389 0.535846
O O11 0.000000 0.525449 0.250000
O O12 0.000000 0.500000 0.500000
O O13 0.884379 0.577389 0.304604
O O14 0.228208 0.112906 0.978208
O O15 0.824750 0.090537 0.840106
#
# Coordination Sequence:
#
# PCOD9262513 Si02
#       7
#     8   8   8   8   8   8   8
#     4   9  17  31  52  79 112 147 185 233 286 338
#     4  10  21  36  53  76 108 144 182 225 273 329
#     4   9  17  31  52  79 112 147 185 233 286 338
#     4  10  20  32  48  74 108 142 174 216 267 318
#     4  10  19  33  53  77 109 143 179 225 275 326
#     4  10  19  33  53  77 109 143 179 225 275 326
#     4  10  21  36  53  76 108 144 182 225 273 329
#
# _framework density 18.289228999999999
#
# number of rings (size 3 to 8) (size 9 to 14) (size 15 to 20)
#    0.000    2.286    1.429    1.714    0.000    6.286 
#    0.000    2.857    0.000    0.857    0.000    0.000 
#    0.000    0.000    0.000    0.000    0.000    0.000 
#
# Total GULP energy -156072.108600 kJ/mol
# GULP energy per Si atom -5574.003879 kJ/mol
# Density = 1.824760 g / cm^3
# Si number density = 18.289229 Si / 1000 Ang^3
#
#
#
# Elastic Constant Matrix: (Units=GPa)
#
#
# Indices 1 2 3 4 5 6 
#
# 1 73.1353 58.7177 35.6548 0.0000 -2.4808 0.0000
# 2 58.7177 138.9445 59.3789 0.0000 -1.3876 0.0000
# 3 35.6548 59.3789 75.1357 0.0000 -1.7176 0.0000
# 4 0.0000 0.0000 0.0000 18.3882 0.0000 -0.5429
# 5 -2.4808 -1.3876 -1.7176 0.0000 17.7295 0.0000
# 6 0.0000 0.0000 0.0000 -0.5429 0.0000 18.1295
#
#
#
# Elastic Compliance Matrix: (Units=1/GPa)
#
#
# Indices 1 2 3 4 5 6 
#
# 1 0.021775 -0.007226 -0.004576 0.000000 0.002038 0.000000
# 2 -0.007226 0.013266 -0.007070 0.000000 -0.000658 0.000000
# 3 -0.004576 -0.007070 0.021087 0.000000 0.000849 0.000000
# 4 0.000000 0.000000 0.000000 0.054431 0.000000 0.001630
# 5 0.002038 -0.000658 0.000849 0.000000 0.056719 0.000000
# 6 0.000000 0.000000 0.000000 0.001630 0.000000 0.055208
#
#
# Mechanical properties :
#
#
# Convention : Reuss Voigt Hill
#
# Bulk Modulus (GPa) = 54.39342 66.07981 60.23661
# Shear Modulus (GPa) = 18.77189 19.74704 19.25946
#
# Velocity S-wave (km/s) = 3.20721 3.28946 3.24859
# Velocity P-wave (km/s) = 6.59698 7.11592 6.86136
#
# Compressibility (1/GPa) = 0.01838458
#
# Stress axis : x y z
#
# Youngs Moduli (GPa) = 45.92465 75.38327 47.42280
#
# Poissons Ratio (x) = 0.54474 0.21699
# Poissons Ratio (y) = 0.33186 0.33526
# Poissons Ratio (z) = 0.21013 0.53292
#
# Static dielectric constant tensor:
#      x y z
#    x 2.904210 0.000000 1.000690 
#    y 0.000000 1.602950 0.000000 
#    z 1.000690 0.000000 2.427390 
# 
# From -- ./inp_files/44596.got.cif
#   From: 2010.05.17/outbox.cif.g08.bks.cpg/sg15_23_cif.got.tgz:44596.got - 2010.06.03 18:47:42.
