data_PCOD9262967
_publ_section_title
;
Structure prediction by ZEFSAII (Michael W. Deem and Ramdas Pophale) SiO2 
 PCOD9262967
Probable space group: C 2/C
;
_chemical_formula_sum "Si O2"
_cell_formula_units_Z 64
_cell_length_a 7.581000
_cell_length_b 19.698869
_cell_length_c 21.256495
_cell_angle_alpha 90.000000
_cell_angle_beta 110.864817
_cell_angle_gamma 90.000000
_cell_volume 2966.218430
_symmetry_space_group_name_H-M "C 2/C"
_symmetry_group_IT_number 15
_symmetry_cell_setting 'monoclinic'
loop_
_space_group_symop_operation_xyz
x,y,z
-x,y,1/2-z
-x,-y,-z
x,-y,1/2+z
1/2+x,1/2+y,z
1/2-x,1/2+y,1/2-z
1/2-x,1/2-y,-z
1/2+x,1/2-y,1/2+z
loop_
_atom_site_type_symbol
_atom_site_label
_atom_site_fract_x
_atom_site_fract_y
_atom_site_fract_z
Si Si1 0.316759 0.536972 0.267787
Si Si2 0.689613 0.744845 0.230549
Si Si3 0.109227 0.592930 0.474730
Si Si4 0.021610 0.080200 0.518632
Si Si5 0.674403 0.103218 0.724412
Si Si6 0.989377 0.137218 0.378027
Si Si7 0.631382 0.861230 0.659723
Si Si8 0.570340 0.937391 0.422608
O O1 0.500000 0.554754 0.250000
O O2 0.301634 0.456791 0.267823
O O3 0.359184 0.574023 0.338269
O O4 0.147874 0.573028 0.207779
O O5 0.500000 0.745538 0.250000
O O6 0.752879 0.821376 0.227211
O O7 0.623165 0.703403 0.160412
O O8 0.838626 0.701433 0.289699
O O9 0.324288 0.599864 0.524910
O O10 0.079901 0.516581 0.443415
O O11 0.048329 0.639170 0.408372
O O12 0.976807 0.600312 0.518187
O O13 0.225218 0.086174 0.576498
O O14 0.026310 0.124256 0.455378
O O15 0.000000 0.000000 0.500000
O O16 0.500000 0.107455 0.750000
O O17 0.590994 0.077298 0.647804
O O18 0.188452 0.136135 0.365301
#
# Coordination Sequence:
#
# PCOD9262967 Si02
#       8
#     8   8   8   8   8   8   8   8
#     4   9  19  30  54  82 111 148 187 244 298 343
#     4   8  18  35  59  81 109 159 200 238 287 356
#     4  10  19  33  58  87 120 152 191 240 298 358
#     4  10  21  32  54  89 118 146 191 246 293 346
#     4  11  22  37  56  82 120 152 197 241 300 356
#     4   9  17  34  57  81 113 147 199 243 286 343
#     4   9  15  34  58  84 111 150 199 240 288 348
#     4  10  21  37  54  87 122 154 188 241 305 352
#
# _framework density 21.576294999999998
#
# number of rings (size 3 to 8) (size 9 to 14) (size 15 to 20)
#    0.000    2.500    2.500    1.500    3.500    0.000 
#    0.000    3.750    0.000    0.750    0.000    0.000 
#    0.000    0.000    0.000    0.000    0.000    0.000 
#
# Total GULP energy -178543.468169 kJ/mol
# GULP energy per Si atom -5579.483380 kJ/mol
# Density = 2.152719 g / cm^3
# Si number density = 21.576295 Si / 1000 Ang^3
#
#
#
# Elastic Constant Matrix: (Units=GPa)
#
#
# Indices 1 2 3 4 5 6 
#
# 1 57.0141 -0.3645 4.4704 0.0000 8.6563 0.0000
# 2 -0.3645 95.5070 10.2570 0.0000 0.8916 0.0000
# 3 4.4704 10.2570 42.2148 0.0000 -1.7433 0.0000
# 4 0.0000 0.0000 0.0000 5.2265 0.0000 1.6254
# 5 8.6563 0.8916 -1.7433 0.0000 24.7099 0.0000
# 6 0.0000 0.0000 0.0000 1.6254 0.0000 15.1139
#
#
#
# Elastic Compliance Matrix: (Units=1/GPa)
#
#
# Indices 1 2 3 4 5 6 
#
# 1 0.018752 0.000388 -0.002359 0.000000 -0.006749 0.000000
# 2 0.000388 0.010767 -0.002687 0.000000 -0.000714 0.000000
# 3 -0.002359 -0.002687 0.024701 0.000000 0.002666 0.000000
# 4 0.000000 0.000000 0.000000 0.197955 0.000000 -0.021288
# 5 -0.006749 -0.000714 0.002666 0.000000 0.043048 0.000000
# 6 0.000000 0.000000 0.000000 -0.021288 0.000000 0.068454
#
#
# Mechanical properties :
#
#
# Convention : Reuss Voigt Hill
#
# Bulk Modulus (GPa) = 22.26930 24.82908 23.54919
# Shear Modulus (GPa) = 12.88795 21.03492 16.96144
#
# Velocity S-wave (km/s) = 2.44666 3.12574 2.80681
# Velocity P-wave (km/s) = 4.28079 4.95576 4.63059
#
# Compressibility (1/GPa) = 0.04490488
#
# Stress axis : x y z
#
# Youngs Moduli (GPa) = 53.32852 92.87537 40.48419
#
# Poissons Ratio (x) = -0.03603 0.09549
# Poissons Ratio (y) = -0.02069 0.10877
# Poissons Ratio (z) = 0.12579 0.24953
#
# Static dielectric constant tensor:
#      x y z
#    x 1.851150 0.000000 0.022450 
#    y 0.000000 1.784150 0.000000 
#    z 0.022450 0.000000 1.780560 
# 
# From -- ./inp_files/265939.got.cif
#   From: 2010.05.17/outbox.cif.g08.bks.cpg/sg15_133_cif.got.tgz:265939.got - 2010.06.03 18:47:42.
