data_PCOD9262451
_publ_section_title
;
Structure prediction by ZEFSAII (Michael W. Deem and Ramdas Pophale) SiO2 
 PCOD9262451
Probable space group: C 2/C
;
_chemical_formula_sum "Si O2"
_cell_formula_units_Z 56
_cell_length_a 19.850436
_cell_length_b 24.977860
_cell_length_c 16.919382
_cell_angle_alpha 90.000000
_cell_angle_beta 23.165503
_cell_angle_gamma 90.000000
_cell_volume 3300.132418
_symmetry_space_group_name_H-M "C 2/C"
_symmetry_group_IT_number 15
_symmetry_cell_setting 'monoclinic'
loop_
_space_group_symop_operation_xyz
x,y,z
-x,y,1/2-z
-x,-y,-z
x,-y,1/2+z
1/2+x,1/2+y,z
1/2-x,1/2+y,1/2-z
1/2-x,1/2-y,-z
1/2+x,1/2-y,1/2+z
loop_
_atom_site_type_symbol
_atom_site_label
_atom_site_fract_x
_atom_site_fract_y
_atom_site_fract_z
Si Si1 0.817701 0.015934 0.405694
Si Si2 0.798804 0.630264 0.973595
Si Si3 0.326598 0.027490 0.279558
Si Si4 0.218123 0.328473 0.173456
Si Si5 0.151618 0.421125 0.353693
Si Si6 0.445268 0.278412 0.716178
Si Si7 0.031526 0.953704 0.401562
O O1 0.702597 0.989032 0.597911
O O2 0.861243 0.977037 0.287271
O O3 0.000000 0.028889 0.250000
O O4 0.740965 0.070858 0.454483
O O5 0.707041 0.678062 0.118799
O O6 0.733644 0.634154 0.953543
O O7 0.000000 0.637785 0.750000
O O8 0.157438 0.058475 0.428930
O O9 0.336104 0.971136 0.221065
O O10 0.496947 0.061217 0.077638
O O11 0.123034 0.366195 0.337438
O O12 0.111395 0.278518 0.255536
O O13 0.398727 0.302543 0.001935
O O14 0.335947 0.414659 0.197631
O O15 0.500000 0.272466 0.750000
O O16 0.000000 0.000000 0.500000
#
# Coordination Sequence:
#
# PCOD9262451 Si02
#       7
#     8   8   8   8   8   8   8
#     4  10  19  33  52  75 108 145 180 214 258 322
#     4  11  21  29  51  76 101 143 185 214 261 311
#     4   9  19  35  50  75 105 139 182 215 255 322
#     4  11  20  37  49  71 103 139 181 221 273 301
#     4  10  20  34  51  72 108 140 174 223 266 307
#     4  10  21  35  51  69 102 137 187 231 255 317
#     4   9  20  32  49  74 106 138 176 213 262 318
#
# _framework density 16.969016
#
# number of rings (size 3 to 8) (size 9 to 14) (size 15 to 20)
#    0.000    2.000    1.429    4.286    6.000    1.143 
#    2.571    0.000    0.000    0.000    0.000    0.000 
#    0.000    4.571    0.000    0.000    0.000    0.000 
#
# Total GULP energy -156116.213584 kJ/mol
# GULP energy per Si atom -5575.579057 kJ/mol
# Density = 1.693039 g / cm^3
# Si number density = 16.969016 Si / 1000 Ang^3
#
#
#
# Elastic Constant Matrix: (Units=GPa)
#
#
# Indices 1 2 3 4 5 6 
#
# 1 34.6071 14.6651 18.7329 0.0084 5.3546 0.0109
# 2 14.6651 61.5279 38.2795 0.0058 -1.2392 0.0185
# 3 18.7329 38.2795 91.2913 -0.0203 7.2620 0.0068
# 4 0.0084 0.0058 -0.0203 20.3309 0.0093 4.0381
# 5 5.3546 -1.2392 7.2620 0.0093 27.2402 -0.0058
# 6 0.0109 0.0185 0.0068 4.0381 -0.0058 15.4814
#
#
#
# Elastic Compliance Matrix: (Units=1/GPa)
#
#
# Indices 1 2 3 4 5 6 
#
# 1 0.034518 -0.005727 -0.004210 -0.000011 -0.005923 -0.000015
# 2 -0.005727 0.023277 -0.008949 -0.000012 0.004570 -0.000015
# 3 -0.004210 -0.008949 0.015873 0.000022 -0.003811 0.000000
# 4 -0.000011 -0.000012 0.000022 0.051874 -0.000025 -0.013530
# 5 -0.005923 0.004570 -0.003811 -0.000025 0.039099 0.000022
# 6 -0.000015 -0.000015 0.000000 -0.013530 0.000022 0.068123
#
#
# Mechanical properties :
#
#
# Convention : Reuss Voigt Hill
#
# Bulk Modulus (GPa) = 27.85807 36.75350 32.30579
# Shear Modulus (GPa) = 17.69894 20.32709 19.01302
#
# Velocity S-wave (km/s) = 3.23308 3.46482 3.35095
# Velocity P-wave (km/s) = 5.51269 6.14108 5.83535
#
# Compressibility (1/GPa) = 0.03589624
#
# Stress axis : x y z
#
# Youngs Moduli (GPa) = 28.97007 42.96012 62.99827
#
# Poissons Ratio (x) = 0.24604 0.26525
# Poissons Ratio (y) = 0.16592 0.56376
# Poissons Ratio (z) = 0.12198 0.38444
#
# Static dielectric constant tensor:
#      x y z
#    x 1.624710 -0.000020 -0.051690 
#    y -0.000020 1.555110 0.000040 
#    z -0.051690 0.000040 1.624810 
# 
# From -- ./inp_files/216866.got.cif
#   From: 2010.05.17/outbox.cif.g08.bks.cpg/sg15_109_cif.got.tgz:216866.got - 2010.06.03 18:47:42.
