data_PCOD9262308
_publ_section_title
;
Structure prediction by ZEFSAII (Michael W. Deem and Ramdas Pophale) SiO2 
 PCOD9262308
Probable space group: C 2/C
;
_chemical_formula_sum "Si O2"
_cell_formula_units_Z 44
_cell_length_a 10.538430
_cell_length_b 15.898811
_cell_length_c 25.542444
_cell_angle_alpha 90.000000
_cell_angle_beta 154.907154
_cell_angle_gamma 90.000000
_cell_volume 1814.919242
_symmetry_space_group_name_H-M "C 2/C"
_symmetry_group_IT_number 15
_symmetry_cell_setting 'monoclinic'
loop_
_space_group_symop_operation_xyz
x,y,z
-x,y,1/2-z
-x,-y,-z
x,-y,1/2+z
1/2+x,1/2+y,z
1/2-x,1/2+y,1/2-z
1/2-x,1/2-y,-z
1/2+x,1/2-y,1/2+z
loop_
_atom_site_type_symbol
_atom_site_label
_atom_site_fract_x
_atom_site_fract_y
_atom_site_fract_z
Si Si1 0.388887 0.391885 0.321706
Si Si2 0.231979 0.575792 0.271784
Si Si3 0.000000 0.067199 0.750000
Si Si4 0.438707 0.405131 0.955858
Si Si5 0.433080 0.264293 0.414431
Si Si6 0.414182 0.917010 0.900734
O O1 0.199016 0.474515 0.262173
O O2 0.415205 0.380914 0.269406
O O3 0.261850 0.311412 0.303659
O O4 0.724335 0.418833 0.467095
O O5 0.476104 0.599649 0.406802
O O6 0.249717 0.593270 0.216910
O O7 0.912315 0.611893 0.166841
O O8 0.727580 0.004041 0.632578
O O9 0.500000 0.500000 0.000000
O O10 0.572995 0.332204 0.041678
O O11 0.750000 0.250000 0.500000
O O12 0.351889 0.172316 0.404497
#
# Coordination Sequence:
#
# PCOD9262308 Si02
#       6
#     8   8   4   8   8   8
#     4  10  19  37  57  81 109 149 188 229 267 337
#     4  10  19  32  59  83 106 147 191 221 273 338
#     4  10  22  36  62  82 106 156 192 220 276 338
#     4  11  19  34  56  84 111 149 185 231 277 337
#     4  10  19  37  55  77 117 145 175 235 281 316
#     4  10  20  39  56  82 118 144 181 239 280 326
#
# _framework density 24.243501999999999
#
# number of rings (size 3 to 8) (size 9 to 14) (size 15 to 20)
#    0.000    1.818    5.455    0.545    0.000    0.000 
#    9.818    0.000    0.000    2.182    0.000    0.000 
#    0.000    0.000    0.000    0.000    0.000    0.000 
#
# Total GULP energy -122600.993077 kJ/mol
# GULP energy per Si atom -5572.772413 kJ/mol
# Density = 2.418832 g / cm^3
# Si number density = 24.243502 Si / 1000 Ang^3
#
#
#
# Elastic Constant Matrix: (Units=GPa)
#
#
# Indices 1 2 3 4 5 6 
#
# 1 50.6978 -5.8692 26.1297 0.0007 -27.6556 0.0004
# 2 -5.8692 78.6943 10.9718 -0.0028 -13.2446 -0.0015
# 3 26.1297 10.9718 86.1955 -0.0126 -10.9266 -0.0034
# 4 0.0007 -0.0028 -0.0126 24.1699 -0.0035 -5.2316
# 5 -27.6556 -13.2446 -10.9266 -0.0035 55.1471 -0.0003
# 6 0.0004 -0.0015 -0.0034 -5.2316 -0.0003 13.3331
#
#
#
# Elastic Compliance Matrix: (Units=1/GPa)
#
#
# Indices 1 2 3 4 5 6 
#
# 1 0.034585 0.006744 -0.009169 -0.000003 0.017147 -0.000003
# 2 0.006744 0.014705 -0.003118 0.000001 0.006296 0.000001
# 3 -0.009169 -0.003118 0.014463 0.000009 -0.002481 0.000007
# 4 -0.000003 0.000001 0.000009 0.045214 0.000003 0.017741
# 5 0.017147 0.006296 -0.002481 0.000003 0.027753 0.000002
# 6 -0.000003 0.000001 0.000007 0.017741 0.000002 0.081962
#
#
# Mechanical properties :
#
#
# Convention : Reuss Voigt Hill
#
# Bulk Modulus (GPa) = 18.98753 30.89469 24.94111
# Shear Modulus (GPa) = 20.21646 30.82038 25.51842
#
# Velocity S-wave (km/s) = 2.89085 3.56938 3.24788
# Velocity P-wave (km/s) = 4.35795 5.45513 4.93711
#
# Compressibility (1/GPa) = 0.05266615
#
# Stress axis : x y z
#
# Youngs Moduli (GPa) = 28.91457 68.00567 69.14011
#
# Poissons Ratio (x) = -0.45860 0.63394
# Poissons Ratio (y) = -0.19499 0.21558
# Poissons Ratio (z) = 0.26512 0.21204
#
# Static dielectric constant tensor:
#      x y z
#    x 1.914420 -0.000010 0.234890 
#    y -0.000010 1.961760 0.000000 
#    z 0.234890 0.000000 1.679960 
# 
# From -- ./inp_files/119315.got.cif
#   From: 2010.05.17/outbox.cif.g08.bks.cpg/sg15_60_cif.got.tgz:119315.got - 2010.06.03 18:47:42.
