data_PCOD9262800
_publ_section_title
;
Structure prediction by ZEFSAII (Michael W. Deem and Ramdas Pophale) SiO2 
 PCOD9262800
Probable space group: C 2/C
;
_chemical_formula_sum "Si O2"
_cell_formula_units_Z 56
_cell_length_a 25.550507
_cell_length_b 12.596035
_cell_length_c 25.132630
_cell_angle_alpha 90.000000
_cell_angle_beta 19.506463
_cell_angle_gamma 90.000000
_cell_volume 2700.877520
_symmetry_space_group_name_H-M "C 2/C"
_symmetry_group_IT_number 15
_symmetry_cell_setting 'monoclinic'
loop_
_space_group_symop_operation_xyz
x,y,z
-x,y,1/2-z
-x,-y,-z
x,-y,1/2+z
1/2+x,1/2+y,z
1/2-x,1/2+y,1/2-z
1/2-x,1/2-y,-z
1/2+x,1/2-y,1/2+z
loop_
_atom_site_type_symbol
_atom_site_label
_atom_site_fract_x
_atom_site_fract_y
_atom_site_fract_z
Si Si1 0.988189 0.558633 0.096041
Si Si2 0.843865 0.373117 0.629615
Si Si3 0.468833 0.297047 0.617597
Si Si4 0.000000 0.788283 0.750000
Si Si5 0.284013 0.889249 0.355826
Si Si6 0.297887 0.102956 0.969843
Si Si7 0.000000 0.206335 0.750000
Si Si8 0.312764 0.125359 0.500195
O O1 0.885092 0.622420 0.152206
O O2 0.868705 0.488899 0.246530
O O3 0.090244 0.476850 0.963289
O O4 0.111688 0.623963 0.013527
O O5 0.663350 0.361056 0.787296
O O6 0.937196 0.276237 0.513776
O O7 0.375579 0.215112 0.745840
O O8 0.601595 0.370888 0.516530
O O9 0.127676 0.864093 0.653659
O O10 0.096166 0.706304 0.621016
O O11 0.292707 0.903996 0.410961
O O12 0.352113 0.993044 0.941453
O O13 0.871421 0.142133 0.838024
O O14 0.097248 0.283356 0.618082
#
# Coordination Sequence:
#
# PCOD9262800 Si02
#       8
#     8   8   8   4   8   8   4   8
#     4  10  21  37  57  81 110 147 188 240 294 336
#     4   9  20  37  56  81 112 145 188 234 285 346
#     4   9  19  35  56  82 114 148 184 230 280 346
#     4  10  22  32  52  84 118 152 184 216 278 358
#     4  10  19  33  56  82 113 150 184 224 286 348
#     4  11  21  36  55  85 121 152 185 230 283 353
#     4  10  24  42  60  82 108 152 206 246 286 338
#     4  11  23  41  60  81 115 153 196 247 290 332
#
# _framework density 20.734002
#
# number of rings (size 3 to 8) (size 9 to 14) (size 15 to 20)
#    0.000    2.000    0.000    3.429    0.000    9.714 
#    0.000    0.000    0.000    0.000    0.000    0.000 
#    0.000    0.000    0.000    0.000    0.000    0.000 
#
# Total GULP energy -156316.245657 kJ/mol
# GULP energy per Si atom -5582.723059 kJ/mol
# Density = 2.068681 g / cm^3
# Si number density = 20.734002 Si / 1000 Ang^3
#
#
#
# Elastic Constant Matrix: (Units=GPa)
#
#
# Indices 1 2 3 4 5 6 
#
# 1 150.4338 19.2598 47.1953 0.0002 -21.0351 0.0002
# 2 19.2598 37.1776 9.3044 -0.0038 -1.5015 0.0017
# 3 47.1953 9.3044 111.1608 -0.0137 -31.6453 0.0036
# 4 0.0002 -0.0038 -0.0137 20.1187 0.0013 -9.3680
# 5 -21.0351 -1.5015 -31.6453 0.0013 34.7605 -0.0002
# 6 0.0002 0.0017 0.0036 -9.3680 -0.0002 25.2217
#
#
#
# Elastic Compliance Matrix: (Units=1/GPa)
#
#
# Indices 1 2 3 4 5 6 
#
# 1 0.008236 -0.003546 -0.002463 -0.000003 0.002588 0.000000
# 2 -0.003546 0.029039 -0.001591 0.000005 -0.002340 0.000000
# 3 -0.002463 -0.001591 0.013135 0.000009 0.010399 0.000002
# 4 -0.000003 0.000005 0.000009 0.060099 0.000004 0.022323
# 5 0.002588 -0.002340 0.010399 0.000004 0.039701 0.000001
# 6 0.000000 0.000000 0.000002 0.022323 0.000001 0.047940
#
#
# Mechanical properties :
#
#
# Convention : Reuss Voigt Hill
#
# Bulk Modulus (GPa) = 28.40139 50.03237 39.21688
# Shear Modulus (GPa) = 22.21369 30.88769 26.55069
#
# Velocity S-wave (km/s) = 3.27672 3.86387 3.58234
# Velocity P-wave (km/s) = 5.29562 6.63995 6.00552
#
# Compressibility (1/GPa) = 0.03520955
#
# Stress axis : x y z
#
# Youngs Moduli (GPa) = 121.41687 34.43698 76.13083
#
# Poissons Ratio (x) = 0.12210 0.18752
# Poissons Ratio (y) = 0.43051 0.12115
# Poissons Ratio (z) = 0.29906 0.05480
#
# Static dielectric constant tensor:
#      x y z
#    x 1.777540 0.000000 -0.022340 
#    y 0.000000 1.721330 0.000000 
#    z -0.022340 0.000000 1.790130 
# 
# From -- ./inp_files/282100.got.cif
#   From: 2010.05.17/outbox.cif.g08.bks.cpg/sg15_142_cif.got.tgz:282100.got - 2010.06.03 18:47:42.
