data_PCOD9262434
_publ_section_title
;
Structure prediction by ZEFSAII (Michael W. Deem and Ramdas Pophale) SiO2 
 PCOD9262434
Probable space group: C 2/C
;
_chemical_formula_sum "Si O2"
_cell_formula_units_Z 56
_cell_length_a 25.126785
_cell_length_b 19.064851
_cell_length_c 9.270606
_cell_angle_alpha 90.000000
_cell_angle_beta 43.279270
_cell_angle_gamma 90.000000
_cell_volume 3044.533538
_symmetry_space_group_name_H-M "C 2/C"
_symmetry_group_IT_number 15
_symmetry_cell_setting 'monoclinic'
loop_
_space_group_symop_operation_xyz
x,y,z
-x,y,1/2-z
-x,-y,-z
x,-y,1/2+z
1/2+x,1/2+y,z
1/2-x,1/2+y,1/2-z
1/2-x,1/2-y,-z
1/2+x,1/2-y,1/2+z
loop_
_atom_site_type_symbol
_atom_site_label
_atom_site_fract_x
_atom_site_fract_y
_atom_site_fract_z
Si Si1 0.681338 0.796577 0.706902
Si Si2 0.082478 0.833283 0.074014
Si Si3 0.253829 0.085314 0.610943
Si Si4 0.778777 0.052933 0.511179
Si Si5 0.903377 0.838831 0.130382
Si Si6 0.954094 0.929108 0.618817
Si Si7 0.760106 0.191841 0.358631
O O1 0.750000 0.750000 0.500000
O O2 0.685471 0.864949 0.595590
O O3 0.606353 0.745413 0.855011
O O4 0.704694 0.810015 0.827727
O O5 0.105679 0.860109 0.184159
O O6 0.000000 0.794797 0.250000
O O7 0.067776 0.896199 0.992811
O O8 0.154502 0.791519 0.872475
O O9 0.268560 0.060797 0.746070
O O10 0.173171 0.129034 0.789627
O O11 0.237985 0.018613 0.540773
O O12 0.872099 0.056448 0.356296
O O13 0.760445 0.117566 0.440154
O O14 0.986058 0.873075 0.929610
O O15 0.000000 0.000000 0.500000
O O16 0.750000 0.250000 0.500000
#
# Coordination Sequence:
#
# PCOD9262434 Si02
#       7
#     8   8   8   8   8   8   8
#     4  10  19  34  55  71 102 149 195 236 271 326
#     4   9  19  32  50  71 106 145 185 226 270 329
#     4  11  21  34  51  77 107 149 189 230 281 326
#     4  11  24  33  53  80 113 149 187 234 278 342
#     4  10  19  33  52  72 103 153 195 222 278 324
#     4  10  20  33  49  77 115 155 187 224 269 337
#     4  11  20  35  53  76 106 145 188 238 284 328
#
# _framework density 18.393622000000001
#
# number of rings (size 3 to 8) (size 9 to 14) (size 15 to 20)
#    0.000    1.714    4.286    2.571    2.000    1.714 
#    0.000    1.429    0.000    0.000    0.000    0.000 
#    0.000   10.286    3.429    0.000    0.000    0.000 
#
# Total GULP energy -155975.626243 kJ/mol
# GULP energy per Si atom -5570.558080 kJ/mol
# Density = 1.835176 g / cm^3
# Si number density = 18.393622 Si / 1000 Ang^3
#
#
#
# Elastic Constant Matrix: (Units=GPa)
#
#
# Indices 1 2 3 4 5 6 
#
# 1 54.0979 24.9082 30.3279 0.0000 14.7260 0.0000
# 2 24.9082 108.5043 39.8095 0.0000 0.3899 0.0000
# 3 30.3279 39.8095 77.8670 0.0000 25.8272 0.0000
# 4 0.0000 0.0000 0.0000 17.6950 0.0000 -5.7342
# 5 14.7260 0.3899 25.8272 0.0000 28.8897 0.0000
# 6 0.0000 0.0000 0.0000 -5.7342 0.0000 26.4757
#
#
#
# Elastic Compliance Matrix: (Units=1/GPa)
#
#
# Indices 1 2 3 4 5 6 
#
# 1 0.025438 -0.003922 -0.005145 0.000000 -0.008314 0.000000
# 2 -0.003922 0.013093 -0.008203 0.000000 0.009156 0.000000
# 3 -0.005145 -0.008203 0.025777 0.000000 -0.020311 0.000000
# 4 0.000000 0.000000 0.000000 0.060779 0.000000 0.013164
# 5 -0.008314 0.009156 -0.020311 0.000000 0.056887 0.000000
# 6 0.000000 0.000000 0.000000 0.013164 0.000000 0.040621
#
#
# Mechanical properties :
#
#
# Convention : Reuss Voigt Hill
#
# Bulk Modulus (GPa) = 33.59294 47.84004 40.71649
# Shear Modulus (GPa) = 18.72236 24.30699 21.51467
#
# Velocity S-wave (km/s) = 3.19387 3.63917 3.42377
# Velocity P-wave (km/s) = 5.64837 6.61238 6.14930
#
# Compressibility (1/GPa) = 0.02976816
#
# Stress axis : x y z
#
# Youngs Moduli (GPa) = 39.31059 76.37392 38.79393
#
# Poissons Ratio (x) = 0.29955 0.19959
# Poissons Ratio (y) = 0.15418 0.31824
# Poissons Ratio (z) = 0.20225 0.62653
#
# Static dielectric constant tensor:
#      x y z
#    x 1.708880 0.000000 -0.003980 
#    y 0.000000 1.661210 0.000000 
#    z -0.003980 0.000000 1.679960 
# 
# From -- ./inp_files/67100.got.cif
#   From: 2010.05.17/outbox.cif.g08.bks.cpg/sg15_34_cif.got.tgz:67100.got - 2010.06.03 18:47:42.
