data_PCOD9262350
_publ_section_title
;
Structure prediction by ZEFSAII (Michael W. Deem and Ramdas Pophale) SiO2 
 PCOD9262350
Probable space group: C 2/C
;
_chemical_formula_sum "Si O2"
_cell_formula_units_Z 64
_cell_length_a 16.079309
_cell_length_b 25.463818
_cell_length_c 7.016775
_cell_angle_alpha 90.000000
_cell_angle_beta 103.298666
_cell_angle_gamma 90.000000
_cell_volume 2795.912113
_symmetry_space_group_name_H-M "C 2/C"
_symmetry_group_IT_number 15
_symmetry_cell_setting 'monoclinic'
loop_
_space_group_symop_operation_xyz
x,y,z
-x,y,1/2-z
-x,-y,-z
x,-y,1/2+z
1/2+x,1/2+y,z
1/2-x,1/2+y,1/2-z
1/2-x,1/2-y,-z
1/2+x,1/2-y,1/2+z
loop_
_atom_site_type_symbol
_atom_site_label
_atom_site_fract_x
_atom_site_fract_y
_atom_site_fract_z
Si Si1 0.983187 0.603292 0.971621
Si Si2 0.660696 0.638619 0.646281
Si Si3 0.047621 0.719026 0.573040
Si Si4 0.478749 0.663349 0.466817
Si Si5 0.792236 0.144700 0.284213
Si Si6 0.742370 0.760217 0.269959
Si Si7 0.160426 0.560477 0.142699
Si Si8 0.805989 0.439303 0.283888
O O1 0.000000 0.602278 0.750000
O O2 0.981692 0.664260 0.031410
O O3 0.888668 0.579980 0.943679
O O4 0.059477 0.571254 0.111339
O O5 0.558823 0.634462 0.603243
O O6 0.684490 0.642308 0.431218
O O7 0.689564 0.695307 0.741439
O O8 0.718385 0.592726 0.766784
O O9 0.148660 0.718201 0.669806
O O10 0.000000 0.720137 0.750000
O O11 0.026030 0.775550 0.473781
O O12 0.500000 0.664114 0.250000
O O13 0.384064 0.639686 0.433477
O O14 0.752012 0.201705 0.309946
O O15 0.722382 0.100661 0.282051
O O16 0.750000 0.750000 0.500000
O O17 0.193246 0.501883 0.195562
O O18 0.173891 0.571664 0.926344
#
# Coordination Sequence:
#
# PCOD9262350 Si02
#       8
#     8   8   8   8   8   8   8   8
#     4   9  17  26  41  63  91 119 146 180 219 262
#     4   9  15  24  40  59  89 117 143 178 224 268
#     4   9  14  20  33  59  91 117 140 168 220 279
#     4   8  14  23  36  59  91 117 137 174 228 275
#     4   8  16  25  38  62  86 116 145 180 222 265
#     4   9  14  20  35  59  89 114 142 173 222 272
#     4  10  20  31  48  62  92 119 154 187 218 258
#     4  10  19  33  44  67  88 122 152 185 219 258
#
# _framework density 22.890563
#
# number of rings (size 3 to 8) (size 9 to 14) (size 15 to 20)
#    0.000    3.000    1.250    2.625    7.000    0.000 
#    0.000    0.625    0.000    0.000    0.000    0.875 
#    0.000    0.000    0.000    0.000    0.000    0.000 
#
# Total GULP energy -178807.676358 kJ/mol
# GULP energy per Si atom -5587.739886 kJ/mol
# Density = 2.283846 g / cm^3
# Si number density = 22.890563 Si / 1000 Ang^3
#
#
#
# Elastic Constant Matrix: (Units=GPa)
#
#
# Indices 1 2 3 4 5 6 
#
# 1 119.1753 69.3842 60.7324 0.0000 39.4685 0.0000
# 2 69.3842 150.4768 56.0753 0.0000 54.8562 0.0000
# 3 60.7324 56.0753 136.0640 0.0000 31.3558 0.0000
# 4 0.0000 0.0000 0.0000 378.9254 0.0000 357.0178
# 5 39.4685 54.8562 31.3558 0.0000 53.9630 0.0000
# 6 0.0000 0.0000 0.0000 357.0178 0.0000 345.2423
#
#
#
# Elastic Compliance Matrix: (Units=1/GPa)
#
#
# Indices 1 2 3 4 5 6 
#
# 1 0.013692 -0.003280 -0.003718 0.000000 -0.004519 0.000000
# 2 -0.003280 0.011929 -0.001398 0.000000 -0.008915 0.000000
# 3 -0.003718 -0.001398 0.009965 0.000000 -0.001650 0.000000
# 4 0.000000 0.000000 0.000000 0.102771 0.000000 -0.106276
# 5 -0.004519 -0.008915 -0.001650 0.000000 0.031858 0.000000
# 6 0.000000 0.000000 0.000000 -0.106276 0.000000 0.112797
#
#
# Mechanical properties :
#
#
# Convention : Reuss Voigt Hill
#
# Bulk Modulus (GPa) = 53.20724 86.45554 69.83139
# Shear Modulus (GPa) = 16.33615 170.26109 93.29862
#
# Velocity S-wave (km/s) = 2.67435 8.63377 6.39117
# Velocity P-wave (km/s) = 5.72982 11.71496 9.22147
#
# Compressibility (1/GPa) = 0.01879443
#
# Stress axis : x y z
#
# Youngs Moduli (GPa) = 73.03311 83.83048 100.34730
#
# Poissons Ratio (x) = 0.27499 0.37311
# Poissons Ratio (y) = 0.23958 0.14024
# Poissons Ratio (z) = 0.27155 0.11715
#
# Static dielectric constant tensor:
#      x y z
#    x 1.878340 0.000000 -0.085400 
#    y 0.000000 1.849490 0.000000 
#    z -0.085400 0.000000 1.916590 
# 
# From -- ./inp_files/107822.got.cif
#   From: 2010.05.17/outbox.cif.g08.bks.cpg/sg15_54_cif.got.tgz:107822.got - 2010.06.03 18:47:42.
