data_PCOD9262443
_publ_section_title
;
Structure prediction by ZEFSAII (Michael W. Deem and Ramdas Pophale) SiO2 
 PCOD9262443
Probable space group: C 2/C
;
_chemical_formula_sum "Si O2"
_cell_formula_units_Z 64
_cell_length_a 24.832950
_cell_length_b 5.068137
_cell_length_c 28.472457
_cell_angle_alpha 90.000000
_cell_angle_beta 81.729836
_cell_angle_gamma 90.000000
_cell_volume 3546.187178
_symmetry_space_group_name_H-M "C 2/C"
_symmetry_group_IT_number 15
_symmetry_cell_setting 'monoclinic'
loop_
_space_group_symop_operation_xyz
x,y,z
-x,y,1/2-z
-x,-y,-z
x,-y,1/2+z
1/2+x,1/2+y,z
1/2-x,1/2+y,1/2-z
1/2-x,1/2-y,-z
1/2+x,1/2-y,1/2+z
loop_
_atom_site_type_symbol
_atom_site_label
_atom_site_fract_x
_atom_site_fract_y
_atom_site_fract_z
Si Si1 0.776968 0.061915 0.140893
Si Si2 0.852220 0.600906 0.025939
Si Si3 0.243362 0.156674 0.554591
Si Si4 0.845047 0.565383 0.168035
Si Si5 0.559240 0.971568 0.406307
Si Si6 0.369159 0.404882 0.463036
Si Si7 0.218937 0.528896 0.737980
Si Si8 0.493141 0.469454 0.444102
O O1 0.756816 0.120790 0.091065
O O2 0.809200 0.323981 0.152596
O O3 0.725433 0.018494 0.181913
O O4 0.818907 0.825922 0.147525
O O5 0.865164 0.397118 0.981694
O O6 0.859244 0.899009 0.008276
O O7 0.791257 0.556401 0.051704
O O8 0.894341 0.513953 0.060188
O O9 0.250000 0.250000 0.500000
O O10 0.181578 0.055359 0.565623
O O11 0.907210 0.522804 0.145378
O O12 0.833403 0.555791 0.225388
O O13 0.514842 0.189257 0.424400
O O14 0.530631 0.691034 0.415654
O O15 0.429475 0.479704 0.439563
O O16 0.234877 0.831959 0.746124
O O17 0.500000 0.500000 0.500000
#
# Coordination Sequence:
#
# PCOD9262443 Si02
#       8
#     8   8   8   8   8   8   8   8
#     4  10  19  33  52  74 108 139 165 204 266 318
#     4  11  20  34  51  71  98 137 169 213 254 299
#     4  10  23  34  51  77 107 142 173 205 249 313
#     4  10  20  32  53  78 104 129 171 217 263 316
#     4  12  21  32  54  73  98 133 176 213 266 297
#     4  11  23  36  48  67 104 138 180 211 242 298
#     4   8  16  31  49  74 102 132 160 204 261 319
#     4  12  22  35  50  70  98 142 178 215 252 298
#
# _framework density 18.047554000000002
#
# number of rings (size 3 to 8) (size 9 to 14) (size 15 to 20)
#    0.000    1.500    3.750    2.250    3.500    2.000 
#    0.000    0.000    0.000    0.000    0.000    0.875 
#    0.000    2.000    0.000    0.000    0.000    0.000 
#
# Total GULP energy -178479.058156 kJ/mol
# GULP energy per Si atom -5577.470567 kJ/mol
# Density = 1.800648 g / cm^3
# Si number density = 18.047554 Si / 1000 Ang^3
#
#
#
# Elastic Constant Matrix: (Units=GPa)
#
#
# Indices 1 2 3 4 5 6 
#
# 1 101.1454 -8.3286 10.2796 0.0000 -6.2457 0.0000
# 2 -8.3286 48.7683 -2.6648 0.0000 14.5060 0.0000
# 3 10.2796 -2.6648 78.4215 0.0000 -16.0752 0.0000
# 4 0.0000 0.0000 0.0000 15.2415 0.0000 -10.0066
# 5 -6.2457 14.5060 -16.0752 0.0000 18.2141 0.0000
# 6 0.0000 0.0000 0.0000 -10.0066 0.0000 22.8822
#
#
#
# Elastic Compliance Matrix: (Units=1/GPa)
#
#
# Indices 1 2 3 4 5 6 
#
# 1 0.010186 0.001175 -0.000941 0.000000 0.001727 0.000000
# 2 0.001175 0.028213 -0.004540 0.000000 -0.026074 0.000000
# 3 -0.000941 -0.004540 0.016354 0.000000 0.017727 0.000000
# 4 0.000000 0.000000 0.000000 0.092035 0.000000 0.040248
# 5 0.001727 -0.026074 0.017727 0.000000 0.091905 0.000000
# 6 0.000000 0.000000 0.000000 0.040248 0.000000 0.061303
#
#
# Mechanical properties :
#
#
# Convention : Reuss Voigt Hill
#
# Bulk Modulus (GPa) = 21.67323 25.21195 23.44259
# Shear Modulus (GPa) = 15.43260 26.53748 20.98504
#
# Velocity S-wave (km/s) = 2.92739 3.83877 3.41363
# Velocity P-wave (km/s) = 4.84368 5.80071 5.34366
#
# Compressibility (1/GPa) = 0.04613987
#
# Stress axis : x y z
#
# Youngs Moduli (GPa) = 98.17635 35.44446 61.14539
#
# Poissons Ratio (x) = -0.04163 0.05756
# Poissons Ratio (y) = -0.11531 0.27760
# Poissons Ratio (z) = 0.09242 0.16092
#
# Static dielectric constant tensor:
#      x y z
#    x 1.638910 0.000000 -0.030010 
#    y 0.000000 1.598740 0.000000 
#    z -0.030010 0.000000 1.682830 
# 
# From -- ./inp_files/301600.got.cif
#   From: 2010.05.17/outbox.cif.g08.bks.cpg/sg15_151_cif.got.tgz:301600.got - 2010.06.03 18:47:42.
