data_PCOD9262542
_publ_section_title
;
Structure prediction by ZEFSAII (Michael W. Deem and Ramdas Pophale) SiO2 
 PCOD9262542
Probable space group: C 2/C
;
_chemical_formula_sum "Si O2"
_cell_formula_units_Z 56
_cell_length_a 21.321461
_cell_length_b 22.675462
_cell_length_c 8.731996
_cell_angle_alpha 90.000000
_cell_angle_beta 146.791578
_cell_angle_gamma 90.000000
_cell_volume 2312.162977
_symmetry_space_group_name_H-M "C 2/C"
_symmetry_group_IT_number 15
_symmetry_cell_setting 'monoclinic'
loop_
_space_group_symop_operation_xyz
x,y,z
-x,y,1/2-z
-x,-y,-z
x,-y,1/2+z
1/2+x,1/2+y,z
1/2-x,1/2+y,1/2-z
1/2-x,1/2-y,-z
1/2+x,1/2-y,1/2+z
loop_
_atom_site_type_symbol
_atom_site_label
_atom_site_fract_x
_atom_site_fract_y
_atom_site_fract_z
Si Si1 0.404623 0.750408 0.454019
Si Si2 0.918484 0.714787 0.392244
Si Si3 0.271762 0.578933 0.645147
Si Si4 0.370675 0.377768 0.017051
Si Si5 0.687975 0.955595 0.532896
Si Si6 0.957661 0.419331 0.967308
Si Si7 0.277496 0.303335 0.275095
O O1 0.480628 0.742235 0.461535
O O2 0.376145 0.692146 0.493633
O O3 0.293581 0.789786 0.218473
O O4 0.500000 0.785399 0.750000
O O5 0.969036 0.650294 0.526968
O O6 0.863551 0.750777 0.417642
O O7 0.813897 0.703336 0.055866
O O8 0.327520 0.599460 0.596049
O O9 0.275830 0.510431 0.697045
O O10 0.317274 0.629426 0.850610
O O11 0.132038 0.580726 0.354113
O O12 0.273828 0.401070 0.705636
O O13 0.500000 0.398988 0.250000
O O14 0.581736 0.948305 0.199021
O O15 0.615830 0.949564 0.544789
#
# Coordination Sequence:
#
# PCOD9262542 Si02
#       7
#     8   8   8   8   8   8   8
#     4   9  16  29  50  79 102 130 178 226 274 317
#     4   9  16  30  52  76 103 137 175 223 281 313
#     4  10  19  33  53  81 109 145 183 223 277 326
#     4  10  20  35  55  76 104 142 188 232 266 321
#     4  10  20  35  53  79 107 151 184 217 276 336
#     4   9  19  36  53  79 111 143 180 229 275 335
#     4   9  15  27  48  77 106 129 172 229 266 321
#
# _framework density 24.219746000000001
#
# number of rings (size 3 to 8) (size 9 to 14) (size 15 to 20)
#    0.000    2.571    0.000    5.571    0.000    0.571 
#   18.000    0.714    0.000    0.000    7.429    0.000 
#    0.000    0.000    0.000    0.000    0.000    0.000 
#
# Total GULP energy -155891.483139 kJ/mol
# GULP energy per Si atom -5567.552969 kJ/mol
# Density = 2.416462 g / cm^3
# Si number density = 24.219746 Si / 1000 Ang^3
#
#
#
# Elastic Constant Matrix: (Units=GPa)
#
#
# Indices 1 2 3 4 5 6 
#
# 1 62.6191 37.9082 28.3198 0.0000 29.8043 0.0000
# 2 37.9082 125.5697 -0.1460 0.0000 19.9725 0.0000
# 3 28.3198 -0.1460 51.5883 0.0000 20.3977 0.0000
# 4 0.0000 0.0000 0.0000 -19.9169 0.0000 -8.1650
# 5 29.8043 19.9725 20.3977 0.0000 41.1711 0.0000
# 6 0.0000 0.0000 0.0000 -8.1650 0.0000 21.2357
#
#
#
# Elastic Compliance Matrix: (Units=1/GPa)
#
#
# Indices 1 2 3 4 5 6 
#
# 1 0.032985 -0.007772 -0.012658 0.000000 -0.013837 0.000000
# 2 -0.007772 0.010646 0.005116 0.000000 -0.002073 0.000000
# 3 -0.012658 0.005116 0.029481 0.000000 -0.007924 0.000000
# 4 0.000000 0.000000 0.000000 -0.043372 0.000000 -0.016676
# 5 -0.013837 -0.002073 -0.007924 0.000000 0.039237 0.000000
# 6 0.000000 0.000000 0.000000 -0.016676 0.000000 0.040678
#
#
# Mechanical properties :
#
#
# Convention : Reuss Voigt Hill
#
# Bulk Modulus (GPa) = 23.53870 41.32678 32.43274
# Shear Modulus (GPa) = 32.37423 20.07765 26.22594
#
# Velocity S-wave (km/s) = 3.66004 2.88232 3.29421
# Velocity P-wave (km/s) = 5.25367 5.30823 5.28102
#
# Compressibility (1/GPa) = 0.04248324
#
# Stress axis : x y z
#
# Youngs Moduli (GPa) = 30.31689 93.93576 33.92038
#
# Poissons Ratio (x) = 0.73004 0.42938
# Poissons Ratio (y) = 0.23561 -0.17354
# Poissons Ratio (z) = 0.38376 -0.48058
#
# Static dielectric constant tensor:
#      x y z
#    x 2.129770 0.000000 -0.168380 
#    y 0.000000 1.997550 0.000000 
#    z -0.168380 0.000000 2.102040 
# 
# From -- ./inp_files/119806.got.cif
#   From: 2010.05.17/outbox.cif.g08.bks.cpg/sg15_60_cif.got.tgz:119806.got - 2010.06.03 18:47:42.
