data_PCOD9262840
_publ_section_title
;
Structure prediction by ZEFSAII (Michael W. Deem and Ramdas Pophale) SiO2 
 PCOD9262840
Probable space group: C 2/C
;
_chemical_formula_sum "Si O2"
_cell_formula_units_Z 60
_cell_length_a 25.844357
_cell_length_b 7.792032
_cell_length_c 18.594173
_cell_angle_alpha 90.000000
_cell_angle_beta 46.224968
_cell_angle_gamma 90.000000
_cell_volume 2703.757159
_symmetry_space_group_name_H-M "C 2/C"
_symmetry_group_IT_number 15
_symmetry_cell_setting 'monoclinic'
loop_
_space_group_symop_operation_xyz
x,y,z
-x,y,1/2-z
-x,-y,-z
x,-y,1/2+z
1/2+x,1/2+y,z
1/2-x,1/2+y,1/2-z
1/2-x,1/2-y,-z
1/2+x,1/2-y,1/2+z
loop_
_atom_site_type_symbol
_atom_site_label
_atom_site_fract_x
_atom_site_fract_y
_atom_site_fract_z
Si Si1 0.959406 0.522883 0.636829
Si Si2 0.682726 0.962143 0.296866
Si Si3 0.268185 0.740668 0.835066
Si Si4 0.634956 0.809755 0.541480
Si Si5 0.422505 0.623474 0.651926
Si Si6 0.572692 0.506134 0.516966
Si Si7 0.887860 0.343839 0.511535
Si Si8 0.000000 0.403184 0.750000
O O1 0.890199 0.610526 0.667968
O O2 0.951224 0.320180 0.627204
O O3 0.971662 0.517470 0.710912
O O4 0.031713 0.609164 0.540194
O O5 0.720704 0.059769 0.195053
O O6 0.661347 0.115472 0.372865
O O7 0.726853 0.838191 0.305510
O O8 0.219581 0.725107 0.952848
O O9 0.344623 0.641853 0.763558
O O10 0.606160 0.687773 0.504821
O O11 0.570940 0.791443 0.661055
O O12 0.630483 0.011105 0.527997
O O13 0.488954 0.514659 0.618969
O O14 0.417109 0.546734 0.576368
O O15 0.612176 0.347757 0.517189
#
# Coordination Sequence:
#
# PCOD9262840 Si02
#       8
#     8   8   8   8   8   8   8   4
#     4  10  19  36  56  80 114 150 191 238 274 335
#     4  10  20  32  53  86 122 142 188 224 302 367
#     4  10  20  34  52  85 121 149 172 241 299 352
#     4  10  22  38  59  80 115 154 195 235 289 333
#     4  10  20  33  54  90 121 139 193 231 295 367
#     4  11  19  33  59  86 115 145 185 245 290 349
#     4  10  19  33  56  87 110 145 184 238 293 343
#     4  10  20  40  58  78 108 158 210 238 262 338
#
# _framework density 22.191343
#
# number of rings (size 3 to 8) (size 9 to 14) (size 15 to 20)
#    0.000    1.867    5.333    1.200    0.000    2.133 
#    0.000    5.333    0.000    0.000    0.000    8.400 
#    0.000    0.000    0.000    0.000    0.000    0.000 
#
# Total GULP energy -167041.058158 kJ/mol
# GULP energy per Si atom -5568.035272 kJ/mol
# Density = 2.214083 g / cm^3
# Si number density = 22.191343 Si / 1000 Ang^3
#
#
#
# Elastic Constant Matrix: (Units=GPa)
#
#
# Indices 1 2 3 4 5 6 
#
# 1 61.5017 6.0198 24.8044 0.0245 0.2763 -0.0081
# 2 6.0198 35.5702 12.8862 0.0288 1.3884 -0.0146
# 3 24.8044 12.8862 156.2492 0.0104 -30.6643 -0.0213
# 4 0.0245 0.0288 0.0104 21.6784 -0.0236 -8.7019
# 5 0.2763 1.3884 -30.6643 -0.0236 33.2690 0.0209
# 6 -0.0081 -0.0146 -0.0213 -8.7019 0.0209 21.2941
#
#
#
# Elastic Compliance Matrix: (Units=1/GPa)
#
#
# Indices 1 2 3 4 5 6 
#
# 1 0.017767 -0.001693 -0.003291 -0.000021 -0.003110 -0.000003
# 2 -0.001693 0.029621 -0.002947 -0.000038 -0.003939 0.000005
# 3 -0.003291 -0.002947 0.008784 0.000014 0.008247 0.000003
# 4 -0.000021 -0.000038 0.000014 0.055181 0.000039 0.022550
# 5 -0.003110 -0.003939 0.008247 0.000039 0.037849 -0.000017
# 6 -0.000003 0.000005 0.000003 0.022550 -0.000017 0.056176
#
#
# Mechanical properties :
#
#
# Convention : Reuss Voigt Hill
#
# Bulk Modulus (GPa) = 24.80816 37.86022 31.33419
# Shear Modulus (GPa) = 21.30583 29.22235 25.26409
#
# Velocity S-wave (km/s) = 3.10190 3.63276 3.37778
# Velocity P-wave (km/s) = 4.90230 5.89014 5.41878
#
# Compressibility (1/GPa) = 0.04030931
#
# Stress axis : x y z
#
# Youngs Moduli (GPa) = 56.28470 33.75941 113.84342
#
# Poissons Ratio (x) = 0.05716 0.37469
# Poissons Ratio (y) = 0.09529 0.33551
# Poissons Ratio (z) = 0.18525 0.09949
#
# Static dielectric constant tensor:
#      x y z
#    x 1.862940 -0.000010 -0.022810 
#    y -0.000010 1.829280 0.000020 
#    z -0.022810 0.000020 1.922490 
# 
# From -- ./inp_files/258715.got.cif
#   From: 2010.05.17/outbox.cif.g08.bks.cpg/sg15_130_cif.got.tgz:258715.got - 2010.06.03 18:47:42.
