data_PCOD9262053
_publ_section_title
;
Structure prediction by ZEFSAII (Michael W. Deem and Ramdas Pophale) SiO2 
 PCOD9262053
Probable space group: C 2/C
;
_chemical_formula_sum "Si O2"
_cell_formula_units_Z 48
_cell_length_a 24.875420
_cell_length_b 7.369289
_cell_length_c 17.662994
_cell_angle_alpha 90.000000
_cell_angle_beta 147.001676
_cell_angle_gamma 90.000000
_cell_volume 1763.394711
_symmetry_space_group_name_H-M "C 2/C"
_symmetry_group_IT_number 15
_symmetry_cell_setting 'monoclinic'
loop_
_space_group_symop_operation_xyz
x,y,z
-x,y,1/2-z
-x,-y,-z
x,-y,1/2+z
1/2+x,1/2+y,z
1/2-x,1/2+y,1/2-z
1/2-x,1/2-y,-z
1/2+x,1/2-y,1/2+z
loop_
_atom_site_type_symbol
_atom_site_label
_atom_site_fract_x
_atom_site_fract_y
_atom_site_fract_z
Si Si1 0.410384 0.684307 0.329425
Si Si2 0.911676 0.677535 0.994950
Si Si3 0.124958 0.348381 0.796297
Si Si4 0.886837 0.103795 0.005536
Si Si5 0.697316 0.658970 0.743545
Si Si6 0.192319 0.046251 0.427115
O O1 0.419281 0.814410 0.412331
O O2 0.510376 0.687561 0.400042
O O3 0.387847 0.486777 0.339819
O O4 0.326503 0.678798 0.165716
O O5 0.806792 0.591240 0.892072
O O6 0.897745 0.886586 0.005130
O O7 0.010704 0.605051 0.150483
O O8 0.172360 0.327155 0.767992
O O9 0.135792 0.144962 0.842527
O O10 0.196397 0.476861 0.927894
O O11 0.857955 0.125160 0.057648
O O12 0.808205 0.183624 0.852574
#
# Coordination Sequence:
#
# PCOD9262053 Si02
#       6
#     8   8   8   8   8   8
#     4  10  20  35  53  84 110 140 181 233 270 324
#     4  11  19  34  56  75 114 142 180 223 275 329
#     4  10  19  34  51  84 112 136 174 236 277 316
#     4  11  18  32  56  80 109 138 183 224 273 325
#     4  10  19  32  52  82 101 148 186 218 267 331
#     4  10  20  31  54  84 111 135 179 229 279 316
#
# _framework density 27.220224000000002
#
# number of rings (size 3 to 8) (size 9 to 14) (size 15 to 20)
#    0.000    1.667    6.667    1.500    0.000    0.000 
#    0.000    1.667    0.000    0.000    0.000    0.000 
#    0.000    0.000    0.000    0.000    0.000    0.000 
#
# Total GULP energy -134429.697414 kJ/mol
# GULP energy per Si atom -5601.237392 kJ/mol
# Density = 2.715827 g / cm^3
# Si number density = 27.220224 Si / 1000 Ang^3
#
#
#
# Elastic Constant Matrix: (Units=GPa)
#
#
# Indices 1 2 3 4 5 6 
#
# 1 92.0667 1.2674 48.1911 0.0000 -21.9644 0.0000
# 2 1.2674 64.1253 18.6261 0.0000 -3.0181 0.0000
# 3 48.1911 18.6261 230.6125 0.0000 19.9091 0.0000
# 4 0.0000 0.0000 0.0000 22.9361 0.0000 -2.3143
# 5 -21.9644 -3.0181 19.9091 0.0000 65.2776 0.0000
# 6 0.0000 0.0000 0.0000 -2.3143 0.0000 12.2393
#
#
#
# Elastic Compliance Matrix: (Units=1/GPa)
#
#
# Indices 1 2 3 4 5 6 
#
# 1 0.014099 0.001025 -0.003536 0.000000 0.005870 0.000000
# 2 0.001025 0.016130 -0.001655 0.000000 0.001595 0.000000
# 3 -0.003536 -0.001655 0.005462 0.000000 -0.002932 0.000000
# 4 0.000000 0.000000 0.000000 0.044447 0.000000 0.008405
# 5 0.005870 0.001595 -0.002932 0.000000 0.018262 0.000000
# 6 0.000000 0.000000 0.000000 0.008405 0.000000 0.083294
#
#
# Mechanical properties :
#
#
# Convention : Reuss Voigt Hill
#
# Bulk Modulus (GPa) = 36.55099 58.10820 47.32959
# Shear Modulus (GPa) = 25.10739 41.33859 33.22299
#
# Velocity S-wave (km/s) = 3.04037 3.90124 3.49739
# Velocity P-wave (km/s) = 5.07761 6.45652 5.80813
#
# Compressibility (1/GPa) = 0.02735904
#
# Stress axis : x y z
#
# Youngs Moduli (GPa) = 70.92905 61.99664 183.08681
#
# Poissons Ratio (x) = -0.06352 0.64733
# Poissons Ratio (y) = -0.07267 0.30294
# Poissons Ratio (z) = 0.25078 0.10258
#
# Static dielectric constant tensor:
#      x y z
#    x 2.075830 0.000000 -0.059720 
#    y 0.000000 2.145420 0.000000 
#    z -0.059720 0.000000 2.151520 
# 
# From -- ./inp_files/210438.got.cif
#   From: 2010.05.17/outbox.cif.g08.bks.cpg/sg15_106_cif.got.tgz:210438.got - 2010.06.03 18:47:42.
