data_PCOD9262625
_publ_section_title
;
Structure prediction by ZEFSAII (Michael W. Deem and Ramdas Pophale) SiO2 
 PCOD9262625
Probable space group: C 2/C
;
_chemical_formula_sum "Si O2"
_cell_formula_units_Z 56
_cell_length_a 26.801580
_cell_length_b 14.759489
_cell_length_c 7.137784
_cell_angle_alpha 90.000000
_cell_angle_beta 135.144997
_cell_angle_gamma 90.000000
_cell_volume 1991.490680
_symmetry_space_group_name_H-M "C 2/C"
_symmetry_group_IT_number 15
_symmetry_cell_setting 'monoclinic'
loop_
_space_group_symop_operation_xyz
x,y,z
-x,y,1/2-z
-x,-y,-z
x,-y,1/2+z
1/2+x,1/2+y,z
1/2-x,1/2+y,1/2-z
1/2-x,1/2-y,-z
1/2+x,1/2-y,1/2+z
loop_
_atom_site_type_symbol
_atom_site_label
_atom_site_fract_x
_atom_site_fract_y
_atom_site_fract_z
Si Si1 0.365195 0.870460 0.060156
Si Si2 0.490875 0.891480 0.947826
Si Si3 0.723076 0.315038 0.762026
Si Si4 0.565313 0.359122 0.309535
Si Si5 0.697915 0.555649 0.509996
Si Si6 0.599214 0.438492 0.048665
Si Si7 0.349955 0.920190 0.456961
O O1 0.447781 0.841653 0.271840
O O2 0.358579 0.882580 0.270094
O O3 0.292139 0.819269 0.811390
O O4 0.361901 0.972007 0.972315
O O5 0.500000 0.877991 0.750000
O O6 0.407067 0.877119 0.749361
O O7 0.500000 0.000000 0.000000
O O8 0.638801 0.301565 0.501624
O O9 0.750000 0.250000 0.000000
O O10 0.716688 0.410387 0.853290
O O11 0.500000 0.317412 0.250000
O O12 0.548086 0.383068 0.047009
O O13 0.574142 0.459843 0.429547
O O14 0.666223 0.457822 0.368336
O O15 0.633476 0.601516 0.452640
O O16 0.769018 0.582328 0.806307
#
# Coordination Sequence:
#
# PCOD9262625 Si02
#       7
#     8   8   8   8   8   8   8
#     4   9  16  27  44  63  88 117 150 194 245 288
#     4   8  14  22  35  60  88 111 137 177 226 274
#     4  10  21  35  47  64  96 139 178 203 233 291
#     4  10  19  33  54  81 105 127 159 209 266 317
#     4   9  16  28  48  73 101 130 160 201 253 307
#     4   9  17  30  52  82 106 123 154 207 273 323
#     4   9  14  23  41  67  90 111 145 189 238 284
#
# _framework density 28.119637999999998
#
# number of rings (size 3 to 8) (size 9 to 14) (size 15 to 20)
#    0.000    2.857    0.000    3.857    0.000    0.000 
#    0.000    4.286    0.000    0.000    0.000   16.000 
#    0.000    0.000    0.000    0.000    0.000    0.000 
#
# Total GULP energy -155934.373757 kJ/mol
# GULP energy per Si atom -5569.084777 kJ/mol
# Density = 2.805564 g / cm^3
# Si number density = 28.119638 Si / 1000 Ang^3
#
#
#
# Elastic Constant Matrix: (Units=GPa)
#
#
# Indices 1 2 3 4 5 6 
#
# 1 127.3880 2.6778 42.5295 0.0000 23.0347 0.0000
# 2 2.6778 57.9155 14.1084 0.0000 10.8245 0.0000
# 3 42.5295 14.1084 125.0921 0.0000 31.2668 0.0000
# 4 0.0000 0.0000 0.0000 27.4479 0.0000 -3.8450
# 5 23.0347 10.8245 31.2668 0.0000 58.1964 0.0000
# 6 0.0000 0.0000 0.0000 -3.8450 0.0000 -10.6691
#
#
#
# Elastic Compliance Matrix: (Units=1/GPa)
#
#
# Indices 1 2 3 4 5 6 
#
# 1 0.009124 0.000646 -0.002590 0.000000 -0.002340 0.000000
# 2 0.000646 0.018140 -0.001569 0.000000 -0.002787 0.000000
# 3 -0.002590 -0.001569 0.010076 0.000000 -0.004096 0.000000
# 4 0.000000 0.000000 0.000000 0.034682 0.000000 -0.012499
# 5 -0.002340 -0.002787 -0.004096 0.000000 0.020829 0.000000
# 6 0.000000 0.000000 0.000000 -0.012499 0.000000 -0.089224
#
#
# Mechanical properties :
#
#
# Convention : Reuss Voigt Hill
#
# Bulk Modulus (GPa) = 32.98796 47.66967 40.32881
# Shear Modulus (GPa) = 240.89116 31.73368 136.31242
#
# Velocity S-wave (km/s) = 9.26566 3.36300 6.97002
# Velocity P-wave (km/s) = 11.23507 5.66294 8.89651
#
# Compressibility (1/GPa) = 0.03031409
#
# Stress axis : x y z
#
# Youngs Moduli (GPa) = 109.59702 55.12761 99.25046
#
# Poissons Ratio (x) = -0.03564 0.25707
# Poissons Ratio (y) = -0.07085 0.15573
# Poissons Ratio (z) = 0.28387 0.08650
#
# Static dielectric constant tensor:
#      x y z
#    x 2.230260 0.000000 0.128160 
#    y 0.000000 2.307280 0.000000 
#    z 0.128160 0.000000 2.459180 
# 
# From -- ./inp_files/70518.got.cif
#   From: 2010.05.17/outbox.cif.g08.bks.cpg/sg15_36_cif.got.tgz:70518.got - 2010.06.03 18:47:42.
