data_PCOD9262452
_publ_section_title
;
Structure prediction by ZEFSAII (Michael W. Deem and Ramdas Pophale) SiO2 
 PCOD9262452
Probable space group: C 2/C
;
_chemical_formula_sum "Si O2"
_cell_formula_units_Z 56
_cell_length_a 16.197791
_cell_length_b 18.139372
_cell_length_c 21.731565
_cell_angle_alpha 90.000000
_cell_angle_beta 23.914124
_cell_angle_gamma 90.000000
_cell_volume 2588.316472
_symmetry_space_group_name_H-M "C 2/C"
_symmetry_group_IT_number 15
_symmetry_cell_setting 'monoclinic'
loop_
_space_group_symop_operation_xyz
x,y,z
-x,y,1/2-z
-x,-y,-z
x,-y,1/2+z
1/2+x,1/2+y,z
1/2-x,1/2+y,1/2-z
1/2-x,1/2-y,-z
1/2+x,1/2-y,1/2+z
loop_
_atom_site_type_symbol
_atom_site_label
_atom_site_fract_x
_atom_site_fract_y
_atom_site_fract_z
Si Si1 0.854099 0.708422 0.046886
Si Si2 0.211190 0.311818 0.576604
Si Si3 0.105522 0.154306 0.421959
Si Si4 0.761610 0.062248 0.693416
Si Si5 0.022349 0.418600 0.617776
Si Si6 0.007016 0.299431 0.317664
Si Si7 0.378012 0.075850 0.583481
O O1 0.993637 0.780548 0.962668
O O2 0.828055 0.702468 0.990575
O O3 0.641109 0.725003 0.224656
O O4 0.971511 0.640069 0.995948
O O5 0.250000 0.250000 0.500000
O O6 0.369778 0.319797 0.523854
O O7 0.000000 0.287365 0.750000
O O8 0.159852 0.390701 0.580328
O O9 0.331416 0.138032 0.243286
O O10 0.973804 0.078597 0.513551
O O11 0.643021 0.136355 0.755178
O O12 0.601379 0.995647 0.789649
O O13 0.788923 0.065787 0.749205
O O14 0.160425 0.412911 0.462523
O O15 0.000000 0.319269 0.250000
O O16 0.500000 0.000000 0.500000
#
# Coordination Sequence:
#
# PCOD9262452 Si02
#       7
#     8   8   8   8   8   8   8
#     4  10  19  33  52  76 102 133 173 216 259 316
#     4  10  22  35  53  82 112 144 182 229 277 322
#     4  10  20  34  54  80 106 141 180 220 268 319
#     4   9  20  35  54  77 105 141 180 218 266 322
#     4  10  19  35  54  77 108 141 178 222 266 317
#     4  10  20  33  52  77 103 134 172 217 265 310
#     4   9  18  33  54  75 101 138 176 214 262 318
#
# _framework density 21.635684999999999
#
# number of rings (size 3 to 8) (size 9 to 14) (size 15 to 20)
#    0.000    2.286    0.000    2.571    0.000    8.571 
#    0.000    0.000    0.000    8.571    0.000    0.000 
#    0.000    0.000    0.000    0.000    0.000    0.000 
#
# Total GULP energy -155887.495848 kJ/mol
# GULP energy per Si atom -5567.410566 kJ/mol
# Density = 2.158644 g / cm^3
# Si number density = 21.635685 Si / 1000 Ang^3
#
#
#
# Elastic Constant Matrix: (Units=GPa)
#
#
# Indices 1 2 3 4 5 6 
#
# 1 75.1287 -2.9083 9.2998 -0.0169 21.6616 0.0055
# 2 -2.9083 71.0932 -1.6180 -0.0167 2.3172 0.0119
# 3 9.2998 -1.6180 43.8160 -0.0386 18.1773 0.0130
# 4 -0.0169 -0.0167 -0.0386 11.7956 0.0015 5.4790
# 5 21.6616 2.3172 18.1773 0.0015 31.3105 0.0076
# 6 0.0055 0.0119 0.0130 5.4790 0.0076 22.2962
#
#
#
# Elastic Compliance Matrix: (Units=1/GPa)
#
#
# Indices 1 2 3 4 5 6 
#
# 1 0.016809 0.001143 0.001757 0.000038 -0.012733 -0.000011
# 2 0.001143 0.014230 0.001380 0.000034 -0.002645 -0.000016
# 3 0.001757 0.001380 0.030359 0.000126 -0.018943 -0.000043
# 4 0.000038 0.000034 0.000126 0.095702 -0.000101 -0.023518
# 5 -0.012733 -0.002645 -0.018943 -0.000101 0.051941 0.000023
# 6 -0.000011 -0.000016 -0.000043 -0.023518 0.000023 0.050630
#
#
# Mechanical properties :
#
#
# Convention : Reuss Voigt Hill
#
# Bulk Modulus (GPa) = 14.29417 22.17611 18.23514
# Shear Modulus (GPa) = 18.21959 25.43142 21.82551
#
# Velocity S-wave (km/s) = 2.90506 3.43219 3.17957
# Velocity P-wave (km/s) = 4.22772 5.09692 4.68253
#
# Compressibility (1/GPa) = 0.06995861
#
# Stress axis : x y z
#
# Youngs Moduli (GPa) = 59.49337 70.27202 32.93872
#
# Poissons Ratio (x) = -0.08030 -0.05788
# Poissons Ratio (y) = -0.06798 -0.04546
# Poissons Ratio (z) = -0.10454 -0.09699
#
# Static dielectric constant tensor:
#      x y z
#    x 1.812810 0.000000 0.032670 
#    y 0.000000 1.791050 0.000030 
#    z 0.032670 0.000030 1.855250 
# 
# From -- ./inp_files/245114.got.cif
#   From: 2010.05.17/outbox.cif.g08.bks.cpg/sg15_123_cif.got.tgz:245114.got - 2010.06.03 18:47:42.
