data_PCOD9262511
_publ_section_title
;
Structure prediction by ZEFSAII (Michael W. Deem and Ramdas Pophale) SiO2 
 PCOD9262511
Probable space group: C 2/C
;
_chemical_formula_sum "Si O2"
_cell_formula_units_Z 40
_cell_length_a 23.187985
_cell_length_b 18.967105
_cell_length_c 13.071133
_cell_angle_alpha 90.000000
_cell_angle_beta 162.663048
_cell_angle_gamma 90.000000
_cell_volume 1713.088555
_symmetry_space_group_name_H-M "C 2/C"
_symmetry_group_IT_number 15
_symmetry_cell_setting 'monoclinic'
loop_
_space_group_symop_operation_xyz
x,y,z
-x,y,1/2-z
-x,-y,-z
x,-y,1/2+z
1/2+x,1/2+y,z
1/2-x,1/2+y,1/2-z
1/2-x,1/2-y,-z
1/2+x,1/2-y,1/2+z
loop_
_atom_site_type_symbol
_atom_site_label
_atom_site_fract_x
_atom_site_fract_y
_atom_site_fract_z
Si Si1 0.267176 0.177255 0.469005
Si Si2 0.234441 0.359734 0.149781
Si Si3 0.716653 0.194581 0.230855
Si Si4 0.758567 0.570145 0.625160
Si Si5 0.269099 0.915133 0.576981
O O1 0.250000 0.250000 0.500000
O O2 0.190169 0.184416 0.223383
O O3 0.189761 0.117827 0.413703
O O4 0.497216 0.167221 0.849078
O O5 0.288258 0.277204 0.249571
O O6 0.299536 0.400024 0.362542
O O7 0.000000 0.360350 0.750000
O O8 0.706300 0.396420 0.355759
O O9 0.793237 0.147410 0.452825
O O10 0.701975 0.490006 0.507205
O O11 0.994845 0.577691 0.025869
#
# Coordination Sequence:
#
# PCOD9262511 Si02
#       5
#     8   8   8   8   8
#     4  10  19  34  54  77 101 134 173 213 248 305
#     4  10  19  33  53  77 106 135 167 213 261 305
#     4  10  20  33  54  79 101 134 172 211 259 300
#     4   9  18  32  50  76 103 132 168 212 260 294
#     4   9  19  31  50  77 104 129 168 216 255 303
#
# _framework density 23.349640000000001
#
# number of rings (size 3 to 8) (size 9 to 14) (size 15 to 20)
#    0.000    2.400    2.000    0.600    2.800    0.000 
#    0.000    0.000    0.000    3.600    0.000    0.000 
#    0.000    0.000    0.000    0.000    0.000    0.000 
#
# Total GULP energy -111830.768963 kJ/mol
# GULP energy per Si atom -5591.538448 kJ/mol
# Density = 2.329650 g / cm^3
# Si number density = 23.349640 Si / 1000 Ang^3
#
#
#
# Elastic Constant Matrix: (Units=GPa)
#
#
# Indices 1 2 3 4 5 6 
#
# 1 250.4472 150.5414 35.6433 0.0000 -26.3544 0.0000
# 2 150.5414 216.1232 4.8390 0.0000 -26.7094 0.0000
# 3 35.6433 4.8390 76.3075 0.0000 -12.2068 0.0000
# 4 0.0000 0.0000 0.0000 22.4808 0.0000 -2.8155
# 5 -26.3544 -26.7094 -12.2068 0.0000 32.9009 0.0000
# 6 0.0000 0.0000 0.0000 -2.8155 0.0000 35.5118
#
#
#
# Elastic Compliance Matrix: (Units=1/GPa)
#
#
# Indices 1 2 3 4 5 6 
#
# 1 0.007597 -0.005127 -0.003100 0.000000 0.000773 0.000000
# 2 -0.005127 0.008612 0.002456 0.000000 0.003796 0.000000
# 3 -0.003100 0.002456 0.015222 0.000000 0.005158 0.000000
# 4 0.000000 0.000000 0.000000 0.044929 0.000000 0.003562
# 5 0.000773 0.003796 0.005158 0.000000 0.036009 0.000000
# 6 0.000000 0.000000 0.000000 0.003562 0.000000 0.028442
#
#
# Mechanical properties :
#
#
# Convention : Reuss Voigt Hill
#
# Bulk Modulus (GPa) = 50.27641 102.76947 76.52294
# Shear Modulus (GPa) = 31.44994 41.63565 36.54279
#
# Velocity S-wave (km/s) = 3.67401 4.22730 3.96033
# Velocity P-wave (km/s) = 6.29099 8.24231 7.33186
#
# Compressibility (1/GPa) = 0.01989005
#
# Stress axis : x y z
#
# Youngs Moduli (GPa) = 131.63023 116.11448 65.69344
#
# Poissons Ratio (x) = 0.59529 0.20363
# Poissons Ratio (y) = 0.67484 -0.16133
# Poissons Ratio (z) = 0.40802 -0.28516
#
# Static dielectric constant tensor:
#      x y z
#    x 1.853000 0.000000 0.047220 
#    y 0.000000 1.796480 0.000000 
#    z 0.047220 0.000000 2.168640 
# 
# From -- ./inp_files/174139.got.cif
#   From: 2010.05.17/outbox.cif.g08.bks.cpg/sg15_88_cif.got.tgz:174139.got - 2010.06.03 18:47:42.
