data_PCOD9262619
_publ_section_title
;
Structure prediction by ZEFSAII (Michael W. Deem and Ramdas Pophale) SiO2 
 PCOD9262619
Probable space group: C 2/C
;
_chemical_formula_sum "Si O2"
_cell_formula_units_Z 60
_cell_length_a 16.743834
_cell_length_b 21.638154
_cell_length_c 9.550663
_cell_angle_alpha 90.000000
_cell_angle_beta 96.752717
_cell_angle_gamma 90.000000
_cell_volume 3436.255022
_symmetry_space_group_name_H-M "C 2/C"
_symmetry_group_IT_number 15
_symmetry_cell_setting 'monoclinic'
loop_
_space_group_symop_operation_xyz
x,y,z
-x,y,1/2-z
-x,-y,-z
x,-y,1/2+z
1/2+x,1/2+y,z
1/2-x,1/2+y,1/2-z
1/2-x,1/2-y,-z
1/2+x,1/2-y,1/2+z
loop_
_atom_site_type_symbol
_atom_site_label
_atom_site_fract_x
_atom_site_fract_y
_atom_site_fract_z
Si Si1 0.946842 0.259745 0.425172
Si Si2 0.697871 0.728439 0.283229
Si Si3 0.724178 0.349109 0.068947
Si Si4 0.856674 0.698898 0.182801
Si Si5 0.139946 0.448653 0.413123
Si Si6 0.593374 0.939494 0.728192
Si Si7 0.500000 0.868463 0.250000
Si Si8 0.938912 0.188323 0.858697
O O1 0.891468 0.231695 0.293014
O O2 0.889234 0.281816 0.538938
O O3 0.987010 0.322020 0.376542
O O4 0.008794 0.209958 0.498350
O O5 0.709054 0.682321 0.415172
O O6 0.724169 0.797118 0.337472
O O7 0.761596 0.707149 0.179698
O O8 0.777168 0.410362 0.069861
O O9 0.636531 0.354926 0.121811
O O10 0.883010 0.630824 0.232892
O O11 0.898516 0.747764 0.296261
O O12 0.108618 0.452828 0.566933
O O13 0.143817 0.514593 0.337923
O O14 0.075572 0.410332 0.306622
O O15 0.500000 0.948147 0.750000
O O16 0.000000 0.166524 0.750000
#
# Coordination Sequence:
#
# PCOD9262619 Si02
#       8
#     8   8   8   8   8   8   4   8
#     4  11  20  31  54  86 110 148 185 225 277 343
#     4  10  19  33  54  80 113 147 180 229 282 334
#     4  10  20  37  54  76 115 149 182 229 286 336
#     4  10  20  35  54  79 120 150 181 227 280 326
#     4  12  25  39  55  82 112 154 196 226 278 322
#     4  12  24  39  57  79 112 155 194 231 262 329
#     4  12  22  34  52  80 114 150 190 226 266 332
#     4   9  19  35  57  84 113 145 178 229 289 337
#
# _framework density 17.46087
#
# number of rings (size 3 to 8) (size 9 to 14) (size 15 to 20)
#    0.000    1.333    3.333    4.400    3.733    0.000 
#    0.000    0.000    0.000    0.000    0.000    3.733 
#    0.000    0.000    0.000    0.000    0.000    0.000 
#
# Total GULP energy -167545.238372 kJ/mol
# GULP energy per Si atom -5584.841279 kJ/mol
# Density = 1.742113 g / cm^3
# Si number density = 17.460870 Si / 1000 Ang^3
#
#
#
# Elastic Constant Matrix: (Units=GPa)
#
#
# Indices 1 2 3 4 5 6 
#
# 1 79.8262 18.8230 18.0633 0.0000 -15.7346 0.0000
# 2 18.8230 43.6657 13.5772 0.0000 -10.8844 0.0000
# 3 18.0633 13.5772 63.5177 0.0000 -5.3334 0.0000
# 4 0.0000 0.0000 0.0000 14.0649 0.0000 1.7350
# 5 -15.7346 -10.8844 -5.3334 0.0000 26.2053 0.0000
# 6 0.0000 0.0000 0.0000 1.7350 0.0000 14.2577
#
#
#
# Elastic Compliance Matrix: (Units=1/GPa)
#
#
# Indices 1 2 3 4 5 6 
#
# 1 0.015537 -0.004016 -0.002967 0.000000 0.007057 0.000000
# 2 -0.004016 0.028009 -0.004141 0.000000 0.008379 0.000000
# 3 -0.002967 -0.004141 0.017477 0.000000 0.000055 0.000000
# 4 0.000000 0.000000 0.000000 0.072182 0.000000 -0.008784
# 5 0.007057 0.008379 0.000055 0.000000 0.045889 0.000000
# 6 0.000000 0.000000 0.000000 -0.008784 0.000000 0.071206
#
#
# Mechanical properties :
#
#
# Convention : Reuss Voigt Hill
#
# Bulk Modulus (GPa) = 25.79068 31.99294 28.89181
# Shear Modulus (GPa) = 17.51475 20.00868 18.76171
#
# Velocity S-wave (km/s) = 3.17059 3.38881 3.28151
# Velocity P-wave (km/s) = 5.31094 5.80297 5.56240
#
# Compressibility (1/GPa) = 0.03877370
#
# Stress axis : x y z
#
# Youngs Moduli (GPa) = 64.36436 35.70318 57.21675
#
# Poissons Ratio (x) = 0.14337 0.16979
# Poissons Ratio (y) = 0.25846 0.23696
# Poissons Ratio (z) = 0.19100 0.14786
#
# Static dielectric constant tensor:
#      x y z
#    x 1.616110 0.000000 -0.023780 
#    y 0.000000 1.563750 0.000000 
#    z -0.023780 0.000000 1.627510 
# 
# From -- ./inp_files/50268.got.cif
#   From: 2010.05.17/outbox.cif.g08.bks.cpg/sg15_26_cif.got.tgz:50268.got - 2010.06.03 18:47:42.
