data_PCOD9262110
_publ_section_title
;
Structure prediction by ZEFSAII (Michael W. Deem and Ramdas Pophale) SiO2 
 PCOD9262110
Probable space group: C 2/C
;
_chemical_formula_sum "Si O2"
_cell_formula_units_Z 56
_cell_length_a 22.620765
_cell_length_b 5.364873
_cell_length_c 23.565792
_cell_angle_alpha 90.000000
_cell_angle_beta 81.427101
_cell_angle_gamma 90.000000
_cell_volume 2827.932835
_symmetry_space_group_name_H-M "C 2/C"
_symmetry_group_IT_number 15
_symmetry_cell_setting 'monoclinic'
loop_
_space_group_symop_operation_xyz
x,y,z
-x,y,1/2-z
-x,-y,-z
x,-y,1/2+z
1/2+x,1/2+y,z
1/2-x,1/2+y,1/2-z
1/2-x,1/2-y,-z
1/2+x,1/2-y,1/2+z
loop_
_atom_site_type_symbol
_atom_site_label
_atom_site_fract_x
_atom_site_fract_y
_atom_site_fract_z
Si Si1 0.655283 0.044812 0.487462
Si Si2 0.147254 0.802785 0.640184
Si Si3 0.075165 0.828099 0.949158
Si Si4 0.058276 0.873400 0.565313
Si Si5 0.295836 0.796293 0.914560
Si Si6 0.811864 0.091529 0.602970
Si Si7 0.240165 0.819056 0.717009
O O1 0.605499 0.179574 0.532727
O O2 0.691081 0.856688 0.521904
O O3 0.697739 0.242777 0.451847
O O4 0.615323 0.915686 0.445332
O O5 0.081195 0.878796 0.627160
O O6 0.165491 0.517247 0.622287
O O7 0.173437 0.834282 0.699583
O O8 0.184380 0.017392 0.601484
O O9 0.010561 0.800462 0.931094
O O10 0.118211 0.022896 0.910709
O O11 0.065883 0.902902 0.017621
O O12 0.229853 0.850971 0.900854
O O13 0.786270 0.235202 0.660742
O O14 0.243341 0.588472 0.760347
#
# Coordination Sequence:
#
# PCOD9262110 Si02
#       7
#     8   8   8   8   8   8   8
#     4  10  19  32  53  86 124 161 185 229 274 357
#     4  10  20  38  60  85 113 152 195 236 287 348
#     4  10  19  33  56  82 126 160 189 222 273 351
#     4   9  19  35  52  88 120 162 194 216 273 353
#     4  10  20  34  55  86 124 153 183 226 284 356
#     4  10  23  34  54  87 112 153 195 239 300 348
#     4  11  24  42  63  84 108 145 197 261 308 339
#
# _framework density 19.80245
#
# number of rings (size 3 to 8) (size 9 to 14) (size 15 to 20)
#    0.000    2.000    1.429    2.571    6.000    1.714 
#    0.000    0.000    0.000    0.857    0.000    0.000 
#    0.000    0.000    0.000    0.000    0.000    0.000 
#
# Total GULP energy -155948.491579 kJ/mol
# GULP energy per Si atom -5569.588985 kJ/mol
# Density = 1.975738 g / cm^3
# Si number density = 19.802450 Si / 1000 Ang^3
#
#
#
# Elastic Constant Matrix: (Units=GPa)
#
#
# Indices 1 2 3 4 5 6 
#
# 1 97.5136 8.9903 24.8156 0.0000 29.8690 0.0000
# 2 8.9903 60.4534 1.1310 0.0000 3.7095 0.0000
# 3 24.8156 1.1310 46.8139 0.0000 15.6554 0.0000
# 4 0.0000 0.0000 0.0000 31.0444 0.0000 12.8815
# 5 29.8690 3.7095 15.6554 0.0000 34.0761 0.0000
# 6 0.0000 0.0000 0.0000 12.8815 0.0000 17.1233
#
#
#
# Elastic Compliance Matrix: (Units=1/GPa)
#
#
# Indices 1 2 3 4 5 6 
#
# 1 0.014783 -0.001452 -0.004160 0.000000 -0.010888 0.000000
# 2 -0.001452 0.016798 0.000650 0.000000 -0.000854 0.000000
# 3 -0.004160 0.000650 0.026413 0.000000 -0.008559 0.000000
# 4 0.000000 0.000000 0.000000 0.046830 0.000000 -0.035229
# 5 -0.010888 -0.000854 -0.008559 0.000000 0.042915 0.000000
# 6 0.000000 0.000000 0.000000 -0.035229 0.000000 0.084902
#
#
# Mechanical properties :
#
#
# Convention : Reuss Voigt Hill
#
# Bulk Modulus (GPa) = 20.80373 30.51718 25.66046
# Shear Modulus (GPa) = 19.33568 27.77167 23.55368
#
# Velocity S-wave (km/s) = 3.12818 3.74897 3.45256
# Velocity P-wave (km/s) = 4.85549 5.84671 5.37400
#
# Compressibility (1/GPa) = 0.04806830
#
# Stress axis : x y z
#
# Youngs Moduli (GPa) = 67.64681 59.53123 37.86026
#
# Poissons Ratio (x) = 0.08647 0.15749
# Poissons Ratio (y) = 0.09825 -0.02460
# Poissons Ratio (z) = 0.28140 -0.03867
#
# Static dielectric constant tensor:
#      x y z
#    x 1.701350 0.000000 0.033440 
#    y 0.000000 1.759940 0.000000 
#    z 0.033440 0.000000 1.754300 
# 
# From -- ./inp_files/278645.got.cif
#   From: 2010.05.17/outbox.cif.g08.bks.cpg/sg15_140_cif.got.tgz:278645.got - 2010.06.03 18:47:42.
