data_PCOD9262072
_publ_section_title
;
Structure prediction by ZEFSAII (Michael W. Deem and Ramdas Pophale) SiO2 
 PCOD9262072
Probable space group: C 2/C
;
_chemical_formula_sum "Si O2"
_cell_formula_units_Z 40
_cell_length_a 15.654021
_cell_length_b 25.221696
_cell_length_c 5.199785
_cell_angle_alpha 90.000000
_cell_angle_beta 63.720029
_cell_angle_gamma 90.000000
_cell_volume 1840.790252
_symmetry_space_group_name_H-M "C 2/C"
_symmetry_group_IT_number 15
_symmetry_cell_setting 'monoclinic'
loop_
_space_group_symop_operation_xyz
x,y,z
-x,y,1/2-z
-x,-y,-z
x,-y,1/2+z
1/2+x,1/2+y,z
1/2-x,1/2+y,1/2-z
1/2-x,1/2-y,-z
1/2+x,1/2-y,1/2+z
loop_
_atom_site_type_symbol
_atom_site_label
_atom_site_fract_x
_atom_site_fract_y
_atom_site_fract_z
Si Si1 0.885882 0.972720 0.914723
Si Si2 0.817445 0.247917 0.660435
Si Si3 0.297216 0.634196 0.732219
Si Si4 0.668379 0.861905 0.905437
Si Si5 0.393947 0.976213 0.611276
O O1 0.000000 0.973860 0.750000
O O2 0.854144 0.982915 0.664344
O O3 0.854517 0.917471 0.078357
O O4 0.750000 0.250000 0.500000
O O5 0.858222 0.188508 0.616431
O O6 0.875507 0.303062 0.577930
O O7 0.750000 0.250000 0.000000
O O8 0.212134 0.636321 0.633269
O O9 0.251517 0.633158 0.077606
O O10 0.605289 0.913995 0.945160
O O11 0.500000 0.000000 0.500000
O O12 0.346864 0.008600 0.442691
#
# Coordination Sequence:
#
# PCOD9262072 Si02
#       5
#     8   8   8   8   8
#     4  10  21  35  50  72 105 139 162 203 262 314
#     4   8  16  30  48  74 100 126 161 212 263 291
#     4  10  19  32  53  78 103 128 174 219 254 311
#     4  10  19  32  53  78 101 134 171 218 260 300
#     4  10  21  35  50  71 103 143 172 210 258 311
#
# _framework density 21.729799
#
# number of rings (size 3 to 8) (size 9 to 14) (size 15 to 20)
#    0.000    2.400    0.000    2.400    0.000    4.800 
#    0.000    0.000    4.400    0.000   10.400    0.000 
#    0.000    0.000    0.000    0.000    0.000    0.000 
#
# Total GULP energy -111492.404139 kJ/mol
# GULP energy per Si atom -5574.620207 kJ/mol
# Density = 2.168034 g / cm^3
# Si number density = 21.729799 Si / 1000 Ang^3
#
#
#
# Elastic Constant Matrix: (Units=GPa)
#
#
# Indices 1 2 3 4 5 6 
#
# 1 26.5555 8.7617 20.5182 0.0000 3.9964 0.0000
# 2 8.7617 189.8156 -1.4103 0.0000 -2.6486 0.0000
# 3 20.5182 -1.4103 69.7634 0.0000 27.9624 0.0000
# 4 0.0000 0.0000 0.0000 21.9820 0.0000 16.9048
# 5 3.9964 -2.6486 27.9624 0.0000 38.8535 0.0000
# 6 0.0000 0.0000 0.0000 16.9048 0.0000 -2.7720
#
#
#
# Elastic Compliance Matrix: (Units=1/GPa)
#
#
# Indices 1 2 3 4 5 6 
#
# 1 0.051386 -0.002400 -0.018239 0.000000 0.007677 0.000000
# 2 -0.002400 0.005386 0.000799 0.000000 0.000039 0.000000
# 3 -0.018239 0.000799 0.026620 0.000000 -0.017227 0.000000
# 4 0.000000 0.000000 0.000000 0.007995 0.000000 0.048758
# 5 0.007677 0.000039 -0.017227 0.000000 0.037349 0.000000
# 6 0.000000 0.000000 0.000000 0.048758 0.000000 -0.063402
#
#
# Mechanical properties :
#
#
# Convention : Reuss Voigt Hill
#
# Bulk Modulus (GPa) = 22.87739 37.98597 30.43168
# Shear Modulus (GPa) = 41.81186 28.83036 35.32111
#
# Velocity S-wave (km/s) = 4.39130 3.64643 4.03608
# Velocity P-wave (km/s) = 6.02182 5.93697 5.97954
#
# Compressibility (1/GPa) = 0.04371128
#
# Stress axis : x y z
#
# Youngs Moduli (GPa) = 19.46058 185.68218 37.56642
#
# Poissons Ratio (x) = 0.44570 0.68517
# Poissons Ratio (y) = 0.04671 -0.03003
# Poissons Ratio (z) = 0.35494 -0.14842
#
# Static dielectric constant tensor:
#      x y z
#    x 1.701080 0.000000 0.101500 
#    y 0.000000 1.868530 0.000000 
#    z 0.101500 0.000000 1.800390 
# 
# From -- ./inp_files/7264.got.cif
#   From: 2010.05.17/outbox.cif.g08.bks.cpg/sg15_4_cif.got.tgz:7264.got - 2010.06.03 18:47:42.
