data_PCOD9262416
_publ_section_title
;
Structure prediction by ZEFSAII (Michael W. Deem and Ramdas Pophale) SiO2 
 PCOD9262416
Probable space group: C 2/C
;
_chemical_formula_sum "Si O2"
_cell_formula_units_Z 64
_cell_length_a 12.595379
_cell_length_b 24.677140
_cell_length_c 23.880868
_cell_angle_alpha 90.000000
_cell_angle_beta 151.180473
_cell_angle_gamma 90.000000
_cell_volume 3578.082361
_symmetry_space_group_name_H-M "C 2/C"
_symmetry_group_IT_number 15
_symmetry_cell_setting 'monoclinic'
loop_
_space_group_symop_operation_xyz
x,y,z
-x,y,1/2-z
-x,-y,-z
x,-y,1/2+z
1/2+x,1/2+y,z
1/2-x,1/2+y,1/2-z
1/2-x,1/2-y,-z
1/2+x,1/2-y,1/2+z
loop_
_atom_site_type_symbol
_atom_site_label
_atom_site_fract_x
_atom_site_fract_y
_atom_site_fract_z
Si Si1 0.903514 0.214898 0.144514
Si Si2 0.341118 0.749821 0.795789
Si Si3 0.965171 0.436945 0.050656
Si Si4 0.958059 0.748718 0.990461
Si Si5 0.030035 0.897187 0.884596
Si Si6 0.697281 0.656801 0.806114
Si Si7 0.726592 0.463022 0.826903
Si Si8 0.214982 0.656344 0.320330
O O1 0.678176 0.245073 0.054125
O O2 0.000000 0.198954 0.250000
O O3 0.085925 0.251096 0.197989
O O4 0.882703 0.160380 0.099077
O O5 0.481731 0.755643 0.916823
O O6 0.388077 0.695615 0.782951
O O7 0.358317 0.802162 0.763483
O O8 0.127464 0.386624 0.133687
O O9 0.112934 0.490774 0.122499
O O10 0.748571 0.433799 0.989349
O O11 0.861888 0.434864 0.939880
O O12 0.813738 0.698688 0.902456
O O13 0.834523 0.804004 0.919367
O O14 0.862304 0.922349 0.761365
O O15 0.889232 0.884879 0.874503
O O16 0.500000 0.630252 0.750000
O O17 0.500000 0.485700 0.750000
O O18 0.000000 0.632041 0.250000
#
# Coordination Sequence:
#
# PCOD9262416 Si02
#       8
#     8   8   8   8   8   8   8   8
#     4   9  16  28  50  78 101 137 177 207 248 308
#     4   9  20  32  49  75 107 145 176 216 255 307
#     4  10  19  33  55  80 107 134 165 219 281 318
#     4  10  19  33  51  74 113 143 178 217 255 307
#     4  10  19  33  57  77 103 138 179 210 266 327
#     4  11  22  31  47  77 109 140 173 211 260 317
#     4   9  19  34  55  83 108 131 167 222 272 331
#     4  10  22  34  51  79 107 144 186 219 249 309
#
# _framework density 17.886676000000001
#
# number of rings (size 3 to 8) (size 9 to 14) (size 15 to 20)
#    0.000    2.250    1.250    3.000    5.250    3.500 
#    0.000    0.000    0.000    0.750    0.000    0.000 
#    0.000    0.000    0.000    0.000    0.000    0.000 
#
# Total GULP energy -178498.699357 kJ/mol
# GULP energy per Si atom -5578.084355 kJ/mol
# Density = 1.784596 g / cm^3
# Si number density = 17.886676 Si / 1000 Ang^3
#
#
#
# Elastic Constant Matrix: (Units=GPa)
#
#
# Indices 1 2 3 4 5 6 
#
# 1 85.7654 9.7426 22.6085 -0.0002 21.7999 -0.0004
# 2 9.7426 32.0857 -0.2132 0.0000 3.9929 -0.0009
# 3 22.6085 -0.2132 46.2780 0.0012 2.5349 -0.0016
# 4 -0.0002 0.0000 0.0012 20.2101 0.0000 9.1152
# 5 21.7999 3.9929 2.5349 0.0000 37.0922 -0.0001
# 6 -0.0004 -0.0009 -0.0016 9.1152 -0.0001 20.1533
#
#
#
# Elastic Compliance Matrix: (Units=1/GPa)
#
#
# Indices 1 2 3 4 5 6 
#
# 1 0.016275 -0.003917 -0.007496 0.000001 -0.008631 -0.000001
# 2 -0.003917 0.032538 0.002137 -0.000001 -0.001346 0.000002
# 3 -0.007496 0.002137 0.025146 -0.000003 0.002457 0.000003
# 4 0.000001 -0.000001 -0.000003 0.062161 0.000000 -0.028115
# 5 -0.008631 -0.001346 0.002457 0.000000 0.032009 0.000000
# 6 -0.000001 0.000002 0.000003 -0.028115 0.000000 0.062336
#
#
# Mechanical properties :
#
#
# Convention : Reuss Voigt Hill
#
# Bulk Modulus (GPa) = 18.04850 25.37832 21.71341
# Shear Modulus (GPa) = 18.69264 24.29052 21.49158
#
# Velocity S-wave (km/s) = 3.23625 3.68913 3.47009
# Velocity P-wave (km/s) = 4.90681 5.68907 5.31236
#
# Compressibility (1/GPa) = 0.05540626
#
# Stress axis : x y z
#
# Youngs Moduli (GPa) = 61.44564 30.73352 39.76792
#
# Poissons Ratio (x) = 0.12039 0.29810
# Poissons Ratio (y) = 0.24070 -0.08500
# Poissons Ratio (z) = 0.46060 -0.06569
#
# Static dielectric constant tensor:
#      x y z
#    x 1.636890 0.000000 0.030400 
#    y 0.000000 1.590320 0.000000 
#    z 0.030400 0.000000 1.634140 
# 
# From -- ./inp_files/120251.got.cif
#   From: 2010.05.17/outbox.cif.g08.bks.cpg/sg15_61_cif.got.tgz:120251.got - 2010.06.03 18:47:42.
