data_PCOD9262355
_publ_section_title
;
Structure prediction by ZEFSAII (Michael W. Deem and Ramdas Pophale) SiO2 
 PCOD9262355
Probable space group: C 2/C
;
_chemical_formula_sum "Si O2"
_cell_formula_units_Z 48
_cell_length_a 19.730065
_cell_length_b 15.104567
_cell_length_c 8.809868
_cell_angle_alpha 90.000000
_cell_angle_beta 106.082611
_cell_angle_gamma 90.000000
_cell_volume 2522.712687
_symmetry_space_group_name_H-M "C 2/C"
_symmetry_group_IT_number 15
_symmetry_cell_setting 'monoclinic'
loop_
_space_group_symop_operation_xyz
x,y,z
-x,y,1/2-z
-x,-y,-z
x,-y,1/2+z
1/2+x,1/2+y,z
1/2-x,1/2+y,1/2-z
1/2-x,1/2-y,-z
1/2+x,1/2-y,1/2+z
loop_
_atom_site_type_symbol
_atom_site_label
_atom_site_fract_x
_atom_site_fract_y
_atom_site_fract_z
Si Si1 0.192429 0.123217 0.403907
Si Si2 0.640802 0.910457 0.934487
Si Si3 0.654177 0.792118 0.535741
Si Si4 0.925981 0.541937 0.409996
Si Si5 0.328612 0.728346 0.607840
Si Si6 0.802351 0.057585 0.433803
O O1 0.273897 0.156072 0.462611
O O2 0.146958 0.210186 0.416446
O O3 0.182409 0.085390 0.228857
O O4 0.180741 0.042945 0.513174
O O5 0.585464 0.941484 0.773919
O O6 0.628106 0.806140 0.948097
O O7 0.718630 0.927930 0.914760
O O8 0.631626 0.968998 0.076119
O O9 0.593876 0.866293 0.517133
O O10 0.665710 0.748693 0.710130
O O11 0.000000 0.500000 0.500000
O O12 0.250000 0.750000 0.500000
O O13 0.341849 0.628280 0.567030
#
# Coordination Sequence:
#
# PCOD9262355 Si02
#       6
#     8   8   8   8   8   8
#     4  11  20  30  51  73 109 138 179 215 282 328
#     4  10  19  33  47  74 102 140 183 222 263 328
#     4  10  20  33  46  76 103 144 182 225 262 335
#     4  11  21  35  51  71 105 146 184 222 265 306
#     4   9  17  31  48  69 103 133 177 214 276 328
#     4  11  18  33  50  78 104 147 170 224 279 342
#
# _framework density 19.027138000000001
#
# number of rings (size 3 to 8) (size 9 to 14) (size 15 to 20)
#    0.000    1.667    6.667    1.500    0.000    2.667 
#    0.000    0.000    0.000    0.000    0.000    1.167 
#    0.000    2.667    0.000    0.667    0.000    0.000 
#
# Total GULP energy -133811.880765 kJ/mol
# GULP energy per Si atom -5575.495032 kJ/mol
# Density = 1.898383 g / cm^3
# Si number density = 19.027138 Si / 1000 Ang^3
#
#
#
# Elastic Constant Matrix: (Units=GPa)
#
#
# Indices 1 2 3 4 5 6 
#
# 1 36.4869 28.8127 23.6031 0.0000 -2.7115 0.0000
# 2 28.8127 156.1963 50.7306 0.0000 -12.9799 0.0000
# 3 23.6031 50.7306 46.1186 0.0000 -6.3552 0.0000
# 4 0.0000 0.0000 0.0000 37.4624 0.0000 -0.5721
# 5 -2.7115 -12.9799 -6.3552 0.0000 21.4164 0.0000
# 6 0.0000 0.0000 0.0000 -0.5721 0.0000 22.8524
#
#
#
# Elastic Compliance Matrix: (Units=1/GPa)
#
#
# Indices 1 2 3 4 5 6 
#
# 1 0.041150 -0.001254 -0.019880 0.000000 -0.001450 0.000000
# 2 -0.001254 0.010175 -0.010138 0.000000 0.003000 0.000000
# 3 -0.019880 -0.010138 0.043598 0.000000 0.004276 0.000000
# 4 0.000000 0.000000 0.000000 0.026704 0.000000 0.000669
# 5 -0.001450 0.003000 0.004276 0.000000 0.049597 0.000000
# 6 0.000000 0.000000 0.000000 0.000669 0.000000 0.043776
#
#
# Mechanical properties :
#
#
# Convention : Reuss Voigt Hill
#
# Bulk Modulus (GPa) = 30.88358 49.45496 40.16927
# Shear Modulus (GPa) = 17.34074 25.38995 21.36535
#
# Velocity S-wave (km/s) = 3.02216 3.65692 3.35459
# Velocity P-wave (km/s) = 5.33334 6.62412 6.01346
#
# Compressibility (1/GPa) = 0.03237967
#
# Stress axis : x y z
#
# Youngs Moduli (GPa) = 24.30114 98.27558 22.93659
#
# Poissons Ratio (x) = 0.12328 0.45599
# Poissons Ratio (y) = 0.03048 0.23252
# Poissons Ratio (z) = 0.48311 0.99628
#
# Static dielectric constant tensor:
#      x y z
#    x 1.738930 0.000000 -0.010170 
#    y 0.000000 1.724570 0.000000 
#    z -0.010170 0.000000 1.674450 
# 
# From -- ./inp_files/61276.got.cif
#   From: 2010.05.17/outbox.cif.g08.bks.cpg/sg15_31_cif.got.tgz:61276.got - 2010.06.03 18:47:42.
