data_PCOD9262369
_publ_section_title
;
Structure prediction by ZEFSAII (Michael W. Deem and Ramdas Pophale) SiO2 
 PCOD9262369
Probable space group: C 2/C
;
_chemical_formula_sum "Si O2"
_cell_formula_units_Z 56
_cell_length_a 20.231017
_cell_length_b 29.860555
_cell_length_c 5.554550
_cell_angle_alpha 90.000000
_cell_angle_beta 65.881679
_cell_angle_gamma 90.000000
_cell_volume 3062.627772
_symmetry_space_group_name_H-M "C 2/C"
_symmetry_group_IT_number 15
_symmetry_cell_setting 'monoclinic'
loop_
_space_group_symop_operation_xyz
x,y,z
-x,y,1/2-z
-x,-y,-z
x,-y,1/2+z
1/2+x,1/2+y,z
1/2-x,1/2+y,1/2-z
1/2-x,1/2-y,-z
1/2+x,1/2-y,1/2+z
loop_
_atom_site_type_symbol
_atom_site_label
_atom_site_fract_x
_atom_site_fract_y
_atom_site_fract_z
Si Si1 0.633952 0.403452 0.017907
Si Si2 0.918194 0.943600 0.902455
Si Si3 0.983044 0.179074 0.518002
Si Si4 0.278533 0.488962 0.610857
Si Si5 0.176139 0.810034 0.131251
Si Si6 0.798821 0.275615 0.232363
Si Si7 0.038079 0.279815 0.440459
O O1 0.596917 0.415594 0.819561
O O2 0.701068 0.437327 0.927904
O O3 0.591638 0.416184 0.331005
O O4 0.663113 0.352971 0.984086
O O5 0.000000 0.961899 0.750000
O O6 0.854864 0.981896 0.002488
O O7 0.899512 0.192283 0.617207
O O8 0.000000 0.157026 0.750000
O O9 0.029032 0.225237 0.455665
O O10 0.000000 0.153227 0.250000
O O11 0.240825 0.501279 0.418681
O O12 0.246975 0.812763 0.190884
O O13 0.182759 0.763227 0.986035
O O14 0.750000 0.250000 0.500000
O O15 0.877286 0.291818 0.198692
O O16 0.000000 0.294923 0.250000
O O17 0.000000 0.294030 0.750000
#
# Coordination Sequence:
#
# PCOD9262369 Si02
#       7
#     8   8   8   8   8   8   8
#     4  10  22  33  47  71  96 127 166 218 259 301
#     4  10  20  35  50  71  99 135 173 212 262 317
#     4  10  19  33  49  67  92 123 156 213 253 304
#     4   8  16  31  49  65  91 126 165 202 251 304
#     4  11  24  36  51  76 102 133 178 220 273 320
#     4  11  23  38  56  72  98 141 172 220 270 333
#     4  10  19  36  54  72  91 121 164 216 253 307
#
# _framework density 18.284953000000002
#
# number of rings (size 3 to 8) (size 9 to 14) (size 15 to 20)
#    0.000    2.000    2.857    2.143    4.000    6.857 
#    0.000    0.000    0.000    0.000    0.000    0.000 
#    0.000    0.000    0.000    0.000    0.000   38.571 
#
# Total GULP energy -156122.271530 kJ/mol
# GULP energy per Si atom -5575.795412 kJ/mol
# Density = 1.824334 g / cm^3
# Si number density = 18.284953 Si / 1000 Ang^3
#
#
#
# Elastic Constant Matrix: (Units=GPa)
#
#
# Indices 1 2 3 4 5 6 
#
# 1 119.7274 8.9448 45.9393 0.0000 0.5813 0.0000
# 2 8.9448 40.2751 -4.2521 0.0000 2.0547 0.0000
# 3 45.9393 -4.2521 114.0300 0.0000 27.0313 0.0000
# 4 0.0000 0.0000 0.0000 8.3054 0.0000 5.8608
# 5 0.5813 2.0547 27.0313 0.0000 32.6926 0.0000
# 6 0.0000 0.0000 0.0000 5.8608 0.0000 17.5635
#
#
#
# Elastic Compliance Matrix: (Units=1/GPa)
#
#
# Indices 1 2 3 4 5 6 
#
# 1 0.010679 -0.003185 -0.005502 0.000000 0.004560 0.000000
# 2 -0.003185 0.026101 0.003274 0.000000 -0.004291 0.000000
# 3 -0.005502 0.003274 0.013848 0.000000 -0.011558 0.000000
# 4 0.000000 0.000000 0.000000 0.157488 0.000000 -0.052553
# 5 0.004560 -0.004291 -0.011558 0.000000 0.040333 0.000000
# 6 0.000000 0.000000 0.000000 -0.052553 0.000000 0.074473
#
#
# Mechanical properties :
#
#
# Convention : Reuss Voigt Hill
#
# Bulk Modulus (GPa) = 25.12478 41.69961 33.41220
# Shear Modulus (GPa) = 14.40854 26.60567 20.50711
#
# Velocity S-wave (km/s) = 2.81018 3.81866 3.35256
# Velocity P-wave (km/s) = 4.92950 6.50368 5.77052
#
# Compressibility (1/GPa) = 0.03980134
#
# Stress axis : x y z
#
# Youngs Moduli (GPa) = 93.63964 38.31246 72.21186
#
# Poissons Ratio (x) = 0.12204 0.39731
# Poissons Ratio (y) = 0.29827 -0.23639
# Poissons Ratio (z) = 0.51520 -0.12542
#
# Static dielectric constant tensor:
#      x y z
#    x 1.624340 0.000000 0.092650 
#    y 0.000000 1.645530 0.000000 
#    z 0.092650 0.000000 1.694010 
# 
# From -- ./inp_files/12113.got.cif
#   From: 2010.05.17/outbox.cif.g08.bks.cpg/sg15_7_cif.got.tgz:12113.got - 2010.06.03 18:47:42.
