data_PCOD9262672
_publ_section_title
;
Structure prediction by ZEFSAII (Michael W. Deem and Ramdas Pophale) SiO2 
 PCOD9262672
Probable space group: C 2/C
;
_chemical_formula_sum "Si O2"
_cell_formula_units_Z 48
_cell_length_a 19.074934
_cell_length_b 11.802121
_cell_length_c 14.111905
_cell_angle_alpha 90.000000
_cell_angle_beta 135.313987
_cell_angle_gamma 90.000000
_cell_volume 2234.090092
_symmetry_space_group_name_H-M "C 2/C"
_symmetry_group_IT_number 15
_symmetry_cell_setting 'monoclinic'
loop_
_space_group_symop_operation_xyz
x,y,z
-x,y,1/2-z
-x,-y,-z
x,-y,1/2+z
1/2+x,1/2+y,z
1/2-x,1/2+y,1/2-z
1/2-x,1/2-y,-z
1/2+x,1/2-y,1/2+z
loop_
_atom_site_type_symbol
_atom_site_label
_atom_site_fract_x
_atom_site_fract_y
_atom_site_fract_z
Si Si1 0.264632 0.803870 0.117563
Si Si2 0.608448 0.639620 0.626636
Si Si3 0.987487 0.290046 0.632098
Si Si4 0.818456 0.562225 0.179514
Si Si5 0.269853 0.111235 0.931542
Si Si6 0.308224 0.587649 0.255926
O O1 0.315449 0.926592 0.164439
O O2 0.244865 0.519105 0.115123
O O3 0.328756 0.711304 0.237011
O O4 0.250000 0.750000 0.000000
O O5 0.512308 0.704739 0.570737
O O6 0.688009 0.670855 0.787499
O O7 0.606424 0.503255 0.635795
O O8 0.661701 0.676055 0.579796
O O9 0.878836 0.342088 0.515619
O O10 0.000000 0.236479 0.750000
O O11 0.070224 0.389424 0.711619
O O12 0.762124 0.590788 0.221131
O O13 0.758446 0.615102 0.033077
#
# Coordination Sequence:
#
# PCOD9262672 Si02
#       6
#     8   8   8   8   8   8
#     4  11  18  35  58  82 117 159 191 238 291 353
#     4   9  20  37  55  90 114 151 199 235 293 355
#     4  10  20  35  58  89 119 148 196 250 291 342
#     4  10  19  33  54  89 116 147 195 242 290 350
#     4   9  20  36  58  88 115 154 191 250 292 337
#     4   9  19  34  55  86 112 153 193 232 295 351
#
# _framework density 21.485258000000002
#
# number of rings (size 3 to 8) (size 9 to 14) (size 15 to 20)
#    1.000    1.333    3.333    0.000    0.000    3.333 
#    0.000    0.000    0.000    4.000    4.333    0.000 
#    0.000    0.000    0.000    0.000    0.000    0.000 
#
# Total GULP energy -133877.004830 kJ/mol
# GULP energy per Si atom -5578.208535 kJ/mol
# Density = 2.143636 g / cm^3
# Si number density = 21.485258 Si / 1000 Ang^3
#
#
#
# Elastic Constant Matrix: (Units=GPa)
#
#
# Indices 1 2 3 4 5 6 
#
# 1 74.5165 22.6482 11.1828 0.0000 -17.9972 0.0000
# 2 22.6482 132.1500 7.0420 0.0000 -4.2299 0.0000
# 3 11.1828 7.0420 65.8158 0.0000 -6.1555 0.0000
# 4 0.0000 0.0000 0.0000 26.3914 0.0000 -7.5321
# 5 -17.9972 -4.2299 -6.1555 0.0000 30.0458 0.0000
# 6 0.0000 0.0000 0.0000 -7.5321 0.0000 33.9551
#
#
#
# Elastic Compliance Matrix: (Units=1/GPa)
#
#
# Indices 1 2 3 4 5 6 
#
# 1 0.016669 -0.002469 -0.001699 0.000000 0.009289 0.000000
# 2 -0.002469 0.008001 -0.000479 0.000000 -0.000450 0.000000
# 3 -0.001699 -0.000479 0.015734 0.000000 0.002138 0.000000
# 4 0.000000 0.000000 0.000000 0.040452 0.000000 0.008973
# 5 0.009289 -0.000450 0.002138 0.000000 0.039221 0.000000
# 6 0.000000 0.000000 0.000000 0.008973 0.000000 0.031441
#
#
# Mechanical properties :
#
#
# Convention : Reuss Voigt Hill
#
# Bulk Modulus (GPa) = 32.14390 39.35868 35.75129
# Shear Modulus (GPa) = 29.20868 33.51906 31.36387
#
# Velocity S-wave (km/s) = 3.69111 3.95409 3.82486
# Velocity P-wave (km/s) = 5.75839 6.26140 6.01516
#
# Compressibility (1/GPa) = 0.03111010
#
# Stress axis : x y z
#
# Youngs Moduli (GPa) = 59.99289 124.97855 63.55721
#
# Poissons Ratio (x) = 0.30855 0.10800
# Poissons Ratio (y) = 0.14811 0.03043
# Poissons Ratio (z) = 0.10194 0.05983
#
# Static dielectric constant tensor:
#      x y z
#    x 1.762710 0.000000 -0.012390 
#    y 0.000000 1.838780 0.000000 
#    z -0.012390 0.000000 1.804310 
# 
# From -- ./inp_files/214886.got.cif
#   From: 2010.05.17/outbox.cif.g08.bks.cpg/sg15_108_cif.got.tgz:214886.got - 2010.06.03 18:47:42.
