data_PCOD9262845
_publ_section_title
;
Structure prediction by ZEFSAII (Michael W. Deem and Ramdas Pophale) SiO2 
 PCOD9262845
Probable space group: C 2/C
;
_chemical_formula_sum "Si O2"
_cell_formula_units_Z 48
_cell_length_a 16.939059
_cell_length_b 21.857714
_cell_length_c 7.995035
_cell_angle_alpha 90.000000
_cell_angle_beta 115.917544
_cell_angle_gamma 90.000000
_cell_volume 2662.434028
_symmetry_space_group_name_H-M "C 2/C"
_symmetry_group_IT_number 15
_symmetry_cell_setting 'monoclinic'
loop_
_space_group_symop_operation_xyz
x,y,z
-x,y,1/2-z
-x,-y,-z
x,-y,1/2+z
1/2+x,1/2+y,z
1/2-x,1/2+y,1/2-z
1/2-x,1/2-y,-z
1/2+x,1/2-y,1/2+z
loop_
_atom_site_type_symbol
_atom_site_label
_atom_site_fract_x
_atom_site_fract_y
_atom_site_fract_z
Si Si1 0.734853 0.178160 0.994409
Si Si2 0.602251 0.918964 0.307210
Si Si3 0.204202 0.113479 0.117560
Si Si4 0.831890 0.111207 0.780041
Si Si5 0.986720 0.929684 0.937508
Si Si6 0.202958 0.500462 0.672252
O O1 0.639160 0.149725 0.862565
O O2 0.794181 0.144718 0.908427
O O3 0.750000 0.250000 0.000000
O O4 0.759393 0.157045 0.204103
O O5 0.500000 0.923090 0.250000
O O6 0.662481 0.960376 0.485826
O O7 0.628381 0.951129 0.157699
O O8 0.266688 0.053524 0.173713
O O9 0.108393 0.092060 0.091255
O O10 0.195733 0.139682 0.923183
O O11 0.789236 0.042915 0.733838
O O12 0.935709 0.106384 0.897492
O O13 0.000000 0.923296 0.750000
O O14 0.000000 0.000000 0.000000
#
# Coordination Sequence:
#
# PCOD9262845 Si02
#       6
#     8   8   8   8   8   8
#     4  10  24  43  60  84 117 163 208 243 291 347
#     4  10  20  36  59  85 113 149 186 243 300 348
#     4  11  21  37  59  88 121 157 195 243 302 360
#     4  11  21  37  59  88 121 157 195 243 302 360
#     4  12  22  32  54  95 131 156 193 239 301 379
#     4  10  19  33  56  88 120 140 186 243 303 364
#
# _framework density 18.028614999999999
#
# number of rings (size 3 to 8) (size 9 to 14) (size 15 to 20)
#    0.000    1.333    5.000    2.000    0.000    0.667 
#    3.000    0.000    0.000    0.000    0.000    0.000 
#    0.000    0.000    0.000    0.000    0.000    0.000 
#
# Total GULP energy -133758.553503 kJ/mol
# GULP energy per Si atom -5573.273063 kJ/mol
# Density = 1.798758 g / cm^3
# Si number density = 18.028615 Si / 1000 Ang^3
#
#
#
# Elastic Constant Matrix: (Units=GPa)
#
#
# Indices 1 2 3 4 5 6 
#
# 1 57.7890 4.5085 -1.6204 0.0000 15.1787 0.0000
# 2 4.5085 89.3092 29.5754 0.0000 5.3348 0.0000
# 3 -1.6204 29.5754 77.7881 0.0000 -18.6596 0.0000
# 4 0.0000 0.0000 0.0000 16.4878 0.0000 -2.6180
# 5 15.1787 5.3348 -18.6596 0.0000 30.2039 0.0000
# 6 0.0000 0.0000 0.0000 -2.6180 0.0000 9.1389
#
#
#
# Elastic Compliance Matrix: (Units=1/GPa)
#
#
# Indices 1 2 3 4 5 6 
#
# 1 0.020327 0.000570 -0.002662 0.000000 -0.011960 0.000000
# 2 0.000570 0.013893 -0.006959 0.000000 -0.007040 0.000000
# 3 -0.002662 -0.006959 0.018856 0.000000 0.014216 0.000000
# 4 0.000000 0.000000 0.000000 0.063541 0.000000 0.018203
# 5 -0.011960 -0.007040 0.014216 0.000000 0.049145 0.000000
# 6 0.000000 0.000000 0.000000 0.018203 0.000000 0.114637
#
#
# Mechanical properties :
#
#
# Convention : Reuss Voigt Hill
#
# Bulk Modulus (GPa) = 28.59336 32.20148 30.39742
# Shear Modulus (GPa) = 16.12073 23.99432 20.05752
#
# Velocity S-wave (km/s) = 2.99352 3.65211 3.33909
# Velocity P-wave (km/s) = 5.27661 5.97361 5.63589
#
# Compressibility (1/GPa) = 0.03497316
#
# Stress axis : x y z
#
# Youngs Moduli (GPa) = 49.19629 71.97700 53.03359
#
# Poissons Ratio (x) = -0.04102 0.14119
# Poissons Ratio (y) = -0.02804 0.36906
# Poissons Ratio (z) = 0.13098 0.50089
#
# Static dielectric constant tensor:
#      x y z
#    x 1.634800 0.000000 -0.039240 
#    y 0.000000 1.598740 0.000000 
#    z -0.039240 0.000000 1.669300 
# 
# From -- ./inp_files/40940.got.cif
#   From: 2010.05.17/outbox.cif.g08.bks.cpg/sg15_21_cif.got.tgz:40940.got - 2010.06.03 18:47:42.
