data_PCOD9262057
_publ_section_title
;
Structure prediction by ZEFSAII (Michael W. Deem and Ramdas Pophale) SiO2 
 PCOD9262057
Probable space group: C 2/C
;
_chemical_formula_sum "Si O2"
_cell_formula_units_Z 56
_cell_length_a 12.747514
_cell_length_b 17.275930
_cell_length_c 14.236051
_cell_angle_alpha 90.000000
_cell_angle_beta 59.034454
_cell_angle_gamma 90.000000
_cell_volume 2688.307079
_symmetry_space_group_name_H-M "C 2/C"
_symmetry_group_IT_number 15
_symmetry_cell_setting 'monoclinic'
loop_
_space_group_symop_operation_xyz
x,y,z
-x,y,1/2-z
-x,-y,-z
x,-y,1/2+z
1/2+x,1/2+y,z
1/2-x,1/2+y,1/2-z
1/2-x,1/2-y,-z
1/2+x,1/2-y,1/2+z
loop_
_atom_site_type_symbol
_atom_site_label
_atom_site_fract_x
_atom_site_fract_y
_atom_site_fract_z
Si Si1 0.665173 0.788979 0.318859
Si Si2 0.858958 0.587632 0.039359
Si Si3 0.000000 0.422929 0.750000
Si Si4 0.820045 0.169771 0.491899
Si Si5 0.148908 0.724476 0.124353
Si Si6 0.546285 0.242818 0.426771
Si Si7 0.000000 0.798361 0.750000
Si Si8 0.378307 0.038555 0.660306
O O1 0.785261 0.749935 0.309122
O O2 0.559903 0.774477 0.446302
O O3 0.603348 0.752268 0.255177
O O4 0.684185 0.879864 0.291571
O O5 0.780865 0.606309 0.983283
O O6 0.874000 0.663587 0.099063
O O7 0.806268 0.515580 0.120738
O O8 0.994000 0.565173 0.945332
O O9 0.900694 0.364618 0.844718
O O10 0.921655 0.480079 0.720940
O O11 0.750000 0.250000 0.500000
O O12 0.878214 0.185818 0.565738
O O13 0.927177 0.157679 0.365459
O O14 0.025325 0.759847 0.135875
O O15 0.250000 0.750000 0.000000
#
# Coordination Sequence:
#
# PCOD9262057 Si02
#       8
#     8   8   4   8   8   8   4   8
#     4   9  19  33  54  83 117 154 180 249 298 340
#     4   9  17  32  53  80 116 149 182 246 308 338
#     4  12  23  36  62  97 112 152 202 250 283 368
#     4   9  18  30  54  81 113 154 189 243 295 339
#     4  10  21  36  57  87 122 151 194 242 301 345
#     4   8  15  33  51  82 112 148 196 235 283 356
#     4  10  19  32  52  83 116 140 210 236 275 366
#     4  10  20  33  55  86 118 140 193 248 301 347
#
# _framework density 20.830953999999998
#
# number of rings (size 3 to 8) (size 9 to 14) (size 15 to 20)
#    0.000    2.571    1.429    1.286    4.000    0.000 
#    0.000    0.000    0.000    1.714    0.000    0.000 
#    0.000    0.000    0.000    0.000    0.000    0.000 
#
# Total GULP energy -155897.838556 kJ/mol
# GULP energy per Si atom -5567.779948 kJ/mol
# Density = 2.078354 g / cm^3
# Si number density = 20.830954 Si / 1000 Ang^3
#
#
#
# Elastic Constant Matrix: (Units=GPa)
#
#
# Indices 1 2 3 4 5 6 
#
# 1 149.7128 53.7665 24.2413 0.0000 33.9213 0.0000
# 2 53.7665 75.0912 26.2803 0.0000 10.4422 0.0000
# 3 24.2413 26.2803 61.7792 0.0000 2.7201 0.0000
# 4 0.0000 0.0000 0.0000 26.4363 0.0000 5.9866
# 5 33.9213 10.4422 2.7201 0.0000 49.2022 0.0000
# 6 0.0000 0.0000 0.0000 5.9866 0.0000 31.4331
#
#
#
# Elastic Compliance Matrix: (Units=1/GPa)
#
#
# Indices 1 2 3 4 5 6 
#
# 1 0.010428 -0.006248 -0.001179 0.000000 -0.005798 0.000000
# 2 -0.006248 0.019832 -0.006004 0.000000 0.000430 0.000000
# 3 -0.001179 -0.006004 0.019158 0.000000 0.001028 0.000000
# 4 0.000000 0.000000 0.000000 0.039532 0.000000 -0.007529
# 5 -0.005798 0.000430 0.001028 0.000000 0.024174 0.000000
# 6 0.000000 0.000000 0.000000 -0.007529 0.000000 0.033248
#
#
# Mechanical properties :
#
#
# Convention : Reuss Voigt Hill
#
# Bulk Modulus (GPa) = 44.33158 55.01770 49.67464
# Shear Modulus (GPa) = 27.66258 33.56732 30.61495
#
# Velocity S-wave (km/s) = 3.64807 4.01860 3.83781
# Velocity P-wave (km/s) = 6.25078 6.92828 6.59823
#
# Compressibility (1/GPa) = 0.02255728
#
# Stress axis : x y z
#
# Youngs Moduli (GPa) = 95.89824 50.42393 52.19785
#
# Poissons Ratio (x) = 0.31503 0.06153
# Poissons Ratio (y) = 0.59913 0.31338
# Poissons Ratio (z) = 0.11304 0.30273
#
# Static dielectric constant tensor:
#      x y z
#    x 1.785730 0.000000 0.014240 
#    y 0.000000 1.760960 0.000000 
#    z 0.014240 0.000000 1.927170 
# 
# From -- ./inp_files/145609.got.cif
#   From: 2010.05.17/outbox.cif.g08.bks.cpg/sg15_73_cif.got.tgz:145609.got - 2010.06.03 18:47:42.
