data_PCOD9262173
_publ_section_title
;
Structure prediction by ZEFSAII (Michael W. Deem and Ramdas Pophale) SiO2 
 PCOD9262173
Probable space group: C 2/C
;
_chemical_formula_sum "Si O2"
_cell_formula_units_Z 56
_cell_length_a 5.265832
_cell_length_b 23.271817
_cell_length_c 21.733101
_cell_angle_alpha 90.000000
_cell_angle_beta 120.895623
_cell_angle_gamma 90.000000
_cell_volume 2285.382961
_symmetry_space_group_name_H-M "C 2/C"
_symmetry_group_IT_number 15
_symmetry_cell_setting 'monoclinic'
loop_
_space_group_symop_operation_xyz
x,y,z
-x,y,1/2-z
-x,-y,-z
x,-y,1/2+z
1/2+x,1/2+y,z
1/2-x,1/2+y,1/2-z
1/2-x,1/2-y,-z
1/2+x,1/2-y,1/2+z
loop_
_atom_site_type_symbol
_atom_site_label
_atom_site_fract_x
_atom_site_fract_y
_atom_site_fract_z
Si Si1 0.640239 0.600789 0.330773
Si Si2 0.783986 0.542907 0.667866
Si Si3 0.689616 0.085891 0.556943
Si Si4 0.188686 0.206108 0.894662
Si Si5 0.618652 0.020837 0.436131
Si Si6 0.351478 0.822319 0.666172
Si Si7 0.035991 0.331909 0.326606
O O1 0.500000 0.577166 0.250000
O O2 0.802439 0.550742 0.386965
O O3 0.407440 0.635916 0.342563
O O4 0.892727 0.643771 0.337561
O O5 0.457281 0.569397 0.637037
O O6 0.938945 0.600051 0.659692
O O7 0.000000 0.525511 0.750000
O O8 0.764620 0.491767 0.617086
O O9 0.633846 0.154037 0.549904
O O10 0.791322 0.063992 0.502057
O O11 0.429053 0.041359 0.538945
O O12 0.255305 0.273406 0.895285
O O13 0.266129 0.188988 0.833807
O O14 0.854675 0.197893 0.878262
O O15 0.500000 0.801093 0.750000
O O16 0.000000 0.322359 0.250000
#
# Coordination Sequence:
#
# PCOD9262173 Si02
#       7
#     8   8   8   8   8   8   8
#     4  10  24  41  64  93 127 173 227 269 328 388
#     4  10  22  36  62  96 131 167 218 270 329 391
#     4  10  24  41  63  96 131 177 217 263 343 401
#     4  11  20  38  62  91 127 166 216 268 332 392
#     4  11  23  43  63  89 136 181 214 270 324 409
#     4  10  21  40  62  92 127 168 218 283 333 385
#     4  10  19  32  54  92 126 159 199 262 327 393
#
# _framework density 24.503554999999999
#
# number of rings (size 3 to 8) (size 9 to 14) (size 15 to 20)
#    0.000    1.714    1.429    2.571    4.000    1.714 
#    0.000    1.429    0.000    0.000    0.000    0.000 
#    0.000    0.000    0.000    0.000    0.000    0.000 
#
# Total GULP energy -156222.609836 kJ/mol
# GULP energy per Si atom -5579.378923 kJ/mol
# Density = 2.444778 g / cm^3
# Si number density = 24.503555 Si / 1000 Ang^3
#
#
#
# Elastic Constant Matrix: (Units=GPa)
#
#
# Indices 1 2 3 4 5 6 
#
# 1 92.1253 14.0990 18.2438 0.0000 -2.4199 0.0000
# 2 14.0990 72.9282 18.2294 0.0000 9.3346 0.0000
# 3 18.2438 18.2294 60.3625 0.0000 4.8386 0.0000
# 4 0.0000 0.0000 0.0000 34.2891 0.0000 -0.1607
# 5 -2.4199 9.3346 4.8386 0.0000 19.8051 0.0000
# 6 0.0000 0.0000 0.0000 -0.1607 0.0000 24.9937
#
#
#
# Elastic Compliance Matrix: (Units=1/GPa)
#
#
# Indices 1 2 3 4 5 6 
#
# 1 0.011873 -0.001879 -0.003272 0.000000 0.003136 0.000000
# 2 -0.001879 0.015866 -0.003678 0.000000 -0.006809 0.000000
# 3 -0.003272 -0.003678 0.018930 0.000000 -0.003291 0.000000
# 4 0.000000 0.000000 0.000000 0.029165 0.000000 0.000188
# 5 0.003136 -0.006809 -0.003291 0.000000 0.054889 0.000000
# 6 0.000000 0.000000 0.000000 0.000188 0.000000 0.040011
#
#
# Mechanical properties :
#
#
# Convention : Reuss Voigt Hill
#
# Bulk Modulus (GPa) = 34.46960 36.28448 35.37704
# Shear Modulus (GPa) = 25.24464 27.47384 26.35924
#
# Velocity S-wave (km/s) = 3.21322 3.35209 3.28339
# Velocity P-wave (km/s) = 5.27865 5.46095 5.37058
#
# Compressibility (1/GPa) = 0.02901107
#
# Stress axis : x y z
#
# Youngs Moduli (GPa) = 84.22684 63.02700 52.82581
#
# Poissons Ratio (x) = 0.11841 0.17286
# Poissons Ratio (y) = 0.15824 0.19429
# Poissons Ratio (z) = 0.27562 0.23181
#
# Static dielectric constant tensor:
#      x y z
#    x 1.981290 0.000000 -0.006200 
#    y 0.000000 2.011210 0.000000 
#    z -0.006200 0.000000 2.031720 
# 
# From -- ./inp_files/186211.got.cif
#   From: 2010.05.17/outbox.cif.g08.bks.cpg/sg15_94_cif.got.tgz:186211.got - 2010.06.03 18:47:42.
