data_PCOD9262419
_publ_section_title
;
Structure prediction by ZEFSAII (Michael W. Deem and Ramdas Pophale) SiO2 
 PCOD9262419
Probable space group: C 2/C
;
_chemical_formula_sum "Si O2"
_cell_formula_units_Z 56
_cell_length_a 13.328139
_cell_length_b 17.376129
_cell_length_c 12.201458
_cell_angle_alpha 90.000000
_cell_angle_beta 84.970567
_cell_angle_gamma 90.000000
_cell_volume 2814.873772
_symmetry_space_group_name_H-M "C 2/C"
_symmetry_group_IT_number 15
_symmetry_cell_setting 'monoclinic'
loop_
_space_group_symop_operation_xyz
x,y,z
-x,y,1/2-z
-x,-y,-z
x,-y,1/2+z
1/2+x,1/2+y,z
1/2-x,1/2+y,1/2-z
1/2-x,1/2-y,-z
1/2+x,1/2-y,1/2+z
loop_
_atom_site_type_symbol
_atom_site_label
_atom_site_fract_x
_atom_site_fract_y
_atom_site_fract_z
Si Si1 0.622202 0.682316 0.937363
Si Si2 0.784609 0.353151 0.598158
Si Si3 0.226874 0.631964 0.745344
Si Si4 0.742672 0.291126 0.821190
Si Si5 0.898499 0.457440 0.421116
Si Si6 0.887221 0.597882 0.544161
Si Si7 0.898534 0.228575 0.970918
O O1 0.658623 0.771338 0.924692
O O2 0.667639 0.637463 0.828228
O O3 0.680809 0.650435 0.038563
O O4 0.502401 0.683948 0.951414
O O5 0.765841 0.355889 0.730046
O O6 0.853337 0.417805 0.535866
O O7 0.190364 0.721133 0.758685
O O8 0.155323 0.584141 0.672950
O O9 0.210033 0.598907 0.868136
O O10 0.676114 0.310804 0.933496
O O11 0.840138 0.247922 0.863795
O O12 0.874369 0.547319 0.436708
O O13 0.017046 0.441045 0.406262
O O14 0.916311 0.685334 0.515725
#
# Coordination Sequence:
#
# PCOD9262419 Si02
#       7
#     8   8   8   8   8   8   8
#     4   9  17  31  52  73 104 138 183 228 267 321
#     4   9  17  31  47  76 103 141 183 216 263 329
#     4   9  19  34  50  73 105 147 186 213 275 331
#     4   9  20  32  51  77 106 138 184 235 286 316
#     4  10  19  33  51  77 112 150 183 214 265 346
#     4  10  20  32  51  78 113 147 177 220 272 338
#     4  10  19  34  50  81 110 137 179 235 283 328
#
# _framework density 19.894321000000001
#
# number of rings (size 3 to 8) (size 9 to 14) (size 15 to 20)
#    0.000    2.571    1.429    1.286    0.000    4.000 
#    0.000    1.429    0.000    0.000    0.000   74.000 
#    0.000    0.000    0.000    0.000    0.000    0.000 
#
# Total GULP energy -156003.469721 kJ/mol
# GULP energy per Si atom -5571.552490 kJ/mol
# Density = 1.984904 g / cm^3
# Si number density = 19.894321 Si / 1000 Ang^3
#
#
#
# Elastic Constant Matrix: (Units=GPa)
#
#
# Indices 1 2 3 4 5 6 
#
# 1 117.4740 6.5244 46.6942 0.0000 -8.1456 0.0000
# 2 6.5244 18.2605 12.1012 0.0000 -7.6468 0.0000
# 3 46.6942 12.1012 104.8804 0.0000 -14.7593 0.0000
# 4 0.0000 0.0000 0.0000 24.2673 0.0000 -2.8168
# 5 -8.1456 -7.6468 -14.7593 0.0000 13.8629 0.0000
# 6 0.0000 0.0000 0.0000 -2.8168 0.0000 23.0928
#
#
#
# Elastic Compliance Matrix: (Units=1/GPa)
#
#
# Indices 1 2 3 4 5 6 
#
# 1 0.010366 -0.000256 -0.004409 0.000000 0.001256 0.000000
# 2 -0.000256 0.072122 -0.003094 0.000000 0.036338 0.000000
# 3 -0.004409 -0.003094 0.013232 0.000000 0.009791 0.000000
# 4 0.000000 0.000000 0.000000 0.041799 0.000000 0.005099
# 5 0.001256 0.036338 0.009791 0.000000 0.103341 0.000000
# 6 0.000000 0.000000 0.000000 0.005099 0.000000 0.043925
#
#
# Mechanical properties :
#
#
# Convention : Reuss Voigt Hill
#
# Bulk Modulus (GPa) = 12.46841 41.25050 26.85945
# Shear Modulus (GPa) = 15.28874 23.93096 19.60985
#
# Velocity S-wave (km/s) = 2.77519 3.47205 3.14299
# Velocity P-wave (km/s) = 4.06815 6.07070 5.16736
#
# Compressibility (1/GPa) = 0.08020268
#
# Stress axis : x y z
#
# Youngs Moduli (GPa) = 96.46632 13.86543 75.57226
#
# Poissons Ratio (x) = 0.00355 0.33319
# Poissons Ratio (y) = 0.02472 0.23380
# Poissons Ratio (z) = 0.42532 0.04290
#
# Static dielectric constant tensor:
#      x y z
#    x 1.705850 0.000000 -0.003970 
#    y 0.000000 1.721270 0.000000 
#    z -0.003970 0.000000 1.773050 
# 
# From -- ./inp_files/88961.got.cif
#   From: 2010.05.17/outbox.cif.g08.bks.cpg/sg15_45_cif.got.tgz:88961.got - 2010.06.03 18:47:42.
