data_PCOD9262714
_publ_section_title
;
Structure prediction by ZEFSAII (Michael W. Deem and Ramdas Pophale) SiO2 
 PCOD9262714
Probable space group: C 2/C
;
_chemical_formula_sum "Si O2"
_cell_formula_units_Z 40
_cell_length_a 18.046829
_cell_length_b 13.905660
_cell_length_c 10.563323
_cell_angle_alpha 90.000000
_cell_angle_beta 47.305218
_cell_angle_gamma 90.000000
_cell_volume 1948.347577
_symmetry_space_group_name_H-M "C 2/C"
_symmetry_group_IT_number 15
_symmetry_cell_setting 'monoclinic'
loop_
_space_group_symop_operation_xyz
x,y,z
-x,y,1/2-z
-x,-y,-z
x,-y,1/2+z
1/2+x,1/2+y,z
1/2-x,1/2+y,1/2-z
1/2-x,1/2-y,-z
1/2+x,1/2-y,1/2+z
loop_
_atom_site_type_symbol
_atom_site_label
_atom_site_fract_x
_atom_site_fract_y
_atom_site_fract_z
Si Si1 0.206200 0.255848 0.265896
Si Si2 0.978807 0.370204 0.909737
Si Si3 0.203134 0.409642 0.707981
Si Si4 0.617280 0.260160 0.608931
Si Si5 0.657703 0.965217 0.018812
O O1 0.114442 0.324019 0.409786
O O2 0.229997 0.185761 0.355697
O O3 0.166013 0.205093 0.183990
O O4 0.313239 0.296388 0.088577
O O5 0.938731 0.475681 0.919967
O O6 0.000000 0.320029 0.750000
O O7 0.085807 0.375479 0.853696
O O8 0.204384 0.474922 0.581736
O O9 0.225426 0.463358 0.813869
O O10 0.500000 0.284410 0.750000
O O11 0.628592 0.143093 0.591479
#
# Coordination Sequence:
#
# PCOD9262714 Si02
#       5
#     8   8   8   8   8
#     4  10  20  32  50  82 112 140 174 209 272 324
#     4  10  20  33  52  80 111 140 172 218 269 319
#     4  10  20  33  54  82 109 139 173 218 270 319
#     4  10  19  34  56  81 107 139 176 220 266 319
#     4  10  19  33  55  81 110 135 169 224 280 317
#
# _framework density 20.530218999999999
#
# number of rings (size 3 to 8) (size 9 to 14) (size 15 to 20)
#    0.000    2.000    0.000    6.000    0.000    3.200 
#    0.000    0.000    0.000    0.000    0.000  187.600 
#    0.000    0.000    0.000    0.000    0.000    0.000 
#
# Total GULP energy -111375.868882 kJ/mol
# GULP energy per Si atom -5568.793444 kJ/mol
# Density = 2.048349 g / cm^3
# Si number density = 20.530219 Si / 1000 Ang^3
#
#
#
# Elastic Constant Matrix: (Units=GPa)
#
#
# Indices 1 2 3 4 5 6 
#
# 1 105.8150 29.3540 31.0108 0.0000 10.1910 0.0000
# 2 29.3540 42.3652 20.3036 0.0000 1.3470 0.0000
# 3 31.0108 20.3036 118.4646 0.0000 -5.0994 0.0000
# 4 0.0000 0.0000 0.0000 14.2281 0.0000 7.6524
# 5 10.1910 1.3470 -5.0994 0.0000 27.3646 0.0000
# 6 0.0000 0.0000 0.0000 7.6524 0.0000 25.4641
#
#
#
# Elastic Compliance Matrix: (Units=1/GPa)
#
#
# Indices 1 2 3 4 5 6 
#
# 1 0.012655 -0.007552 -0.002223 0.000000 -0.004755 0.000000
# 2 -0.007552 0.030344 -0.003193 0.000000 0.000724 0.000000
# 3 -0.002223 -0.003193 0.009691 0.000000 0.002791 0.000000
# 4 0.000000 0.000000 0.000000 0.083833 0.000000 -0.025193
# 5 -0.004755 0.000724 0.002791 0.000000 0.038799 0.000000
# 6 0.000000 0.000000 0.000000 -0.025193 0.000000 0.046842
#
#
# Mechanical properties :
#
#
# Convention : Reuss Voigt Hill
#
# Bulk Modulus (GPa) = 37.37706 47.55351 42.46528
# Shear Modulus (GPa) = 19.45401 25.80979 22.63190
#
# Velocity S-wave (km/s) = 3.08162 3.54949 3.32380
# Velocity P-wave (km/s) = 5.55943 6.32547 5.95478
#
# Compressibility (1/GPa) = 0.02675438
#
# Stress axis : x y z
#
# Youngs Moduli (GPa) = 79.02086 32.95571 103.19261
#
# Poissons Ratio (x) = 0.24887 0.22941
# Poissons Ratio (y) = 0.59674 0.32946
# Poissons Ratio (z) = 0.17567 0.10522
#
# Static dielectric constant tensor:
#      x y z
#    x 1.765980 0.000000 0.034790 
#    y 0.000000 1.811700 0.000000 
#    z 0.034790 0.000000 1.844010 
# 
# From -- ./inp_files/104746.got.cif
#   From: 2010.05.17/outbox.cif.g08.bks.cpg/sg15_53_cif.got.tgz:104746.got - 2010.06.03 18:47:42.
