data_PCOD9262935
_publ_section_title
;
Structure prediction by ZEFSAII (Michael W. Deem and Ramdas Pophale) SiO2 
 PCOD9262935
Probable space group: C 2/C
;
_chemical_formula_sum "Si O2"
_cell_formula_units_Z 52
_cell_length_a 26.797402
_cell_length_b 12.734113
_cell_length_c 5.702019
_cell_angle_alpha 90.000000
_cell_angle_beta 97.035672
_cell_angle_gamma 90.000000
_cell_volume 1931.112058
_symmetry_space_group_name_H-M "C 2/C"
_symmetry_group_IT_number 15
_symmetry_cell_setting 'monoclinic'
loop_
_space_group_symop_operation_xyz
x,y,z
-x,y,1/2-z
-x,-y,-z
x,-y,1/2+z
1/2+x,1/2+y,z
1/2-x,1/2+y,1/2-z
1/2-x,1/2-y,-z
1/2+x,1/2-y,1/2+z
loop_
_atom_site_type_symbol
_atom_site_label
_atom_site_fract_x
_atom_site_fract_y
_atom_site_fract_z
Si Si1 0.048078 0.636117 0.393677
Si Si2 0.660296 0.390918 0.382225
Si Si3 0.000000 0.212927 0.250000
Si Si4 0.445640 0.353161 0.331097
Si Si5 0.189604 0.633147 0.154569
Si Si6 0.304314 0.373966 0.601509
Si Si7 0.153398 0.602975 0.632348
O O1 0.065552 0.728234 0.223756
O O2 0.095560 0.577216 0.526122
O O3 0.000000 0.578040 0.250000
O O4 0.026047 0.709824 0.583366
O O5 0.601962 0.412297 0.291474
O O6 0.663404 0.347092 0.648181
O O7 0.690226 0.499984 0.417797
O O8 0.680627 0.336333 0.152825
O O9 0.042841 0.141528 0.388746
O O10 0.500000 0.378792 0.250000
O O11 0.247654 0.654009 0.134428
O O12 0.174347 0.661731 0.413282
O O13 0.182770 0.506009 0.169708
O O14 0.159096 0.654673 0.892915
#
# Coordination Sequence:
#
# PCOD9262935 Si02
#       7
#     8   8   4   8   8   8   8
#     4   9  20  35  55  79 106 143 180 218 263 318
#     4  10  19  33  58  81 104 140 184 214 264 320
#     4   8  18  36  56  70 106 140 182 212 268 312
#     4   9  20  35  55  79 106 143 180 218 263 318
#     4  10  20  36  57  80 107 143 178 218 268 316
#     4  10  20  36  57  80 107 143 178 218 268 316
#     4  10  19  33  58  81 104 140 184 214 264 320
#
# _framework density 26.927488
#
# number of rings (size 3 to 8) (size 9 to 14) (size 15 to 20)
#    0.000    2.769    0.000    4.615    8.615    0.000 
#    0.000    6.154    0.000   10.154    0.000    0.000 
#    0.000    0.000    0.000    0.000    0.000    0.000 
#
# Total GULP energy -145279.034749 kJ/mol
# GULP energy per Si atom -5587.655183 kJ/mol
# Density = 2.686620 g / cm^3
# Si number density = 26.927488 Si / 1000 Ang^3
#
#
#
# Elastic Constant Matrix: (Units=GPa)
#
#
# Indices 1 2 3 4 5 6 
#
# 1 111.6752 -16.0041 1.6751 0.0000 16.7442 0.0000
# 2 -16.0041 38.5649 24.7507 0.0000 -7.5895 0.0000
# 3 1.6751 24.7507 180.6904 0.0000 -10.3717 0.0000
# 4 0.0000 0.0000 0.0000 194.3942 0.0000 -86.4992
# 5 16.7442 -7.5895 -10.3717 0.0000 47.2279 0.0000
# 6 0.0000 0.0000 0.0000 -86.4992 0.0000 -5.9023
#
#
#
# Elastic Compliance Matrix: (Units=1/GPa)
#
#
# Indices 1 2 3 4 5 6 
#
# 1 0.010013 0.004082 -0.000829 0.000000 -0.003076 0.000000
# 2 0.004082 0.030769 -0.004103 0.000000 0.002596 0.000000
# 3 -0.000829 -0.004103 0.006161 0.000000 0.000987 0.000000
# 4 0.000000 0.000000 0.000000 0.000684 0.000000 -0.010024
# 5 -0.003076 0.002596 0.000987 0.000000 0.022899 0.000000
# 6 0.000000 0.000000 0.000000 -0.010024 0.000000 -0.022527
#
#
# Mechanical properties :
#
#
# Convention : Reuss Voigt Hill
#
# Bulk Modulus (GPa) = 22.10331 39.08599 30.59465
# Shear Modulus (GPa) = 77.18481 68.51121 72.84801
#
# Velocity S-wave (km/s) = 5.35968 5.04956 5.20693
# Velocity P-wave (km/s) = 6.82113 6.96737 6.89464
#
# Compressibility (1/GPa) = 0.04524209
#
# Stress axis : x y z
#
# Youngs Moduli (GPa) = 99.86884 32.50057 162.31753
#
# Poissons Ratio (x) = -0.13266 0.13448
# Poissons Ratio (y) = -0.40764 0.66606
# Poissons Ratio (z) = 0.08274 0.13336
#
# Static dielectric constant tensor:
#      x y z
#    x 2.041000 0.000000 -0.010130 
#    y 0.000000 2.244470 0.000000 
#    z -0.010130 0.000000 2.201640 
# 
# From -- ./inp_files/13400.got.cif
#   From: 2010.05.17/outbox.cif.g08.bks.cpg/sg15_7_cif.got.tgz:13400.got - 2010.06.03 18:47:42.
