data_PCOD9262673
_publ_section_title
;
Structure prediction by ZEFSAII (Michael W. Deem and Ramdas Pophale) SiO2 
 PCOD9262673
Probable space group: C 2/C
;
_chemical_formula_sum "Si O2"
_cell_formula_units_Z 60
_cell_length_a 9.649443
_cell_length_b 16.457701
_cell_length_c 22.632919
_cell_angle_alpha 90.000000
_cell_angle_beta 60.063183
_cell_angle_gamma 90.000000
_cell_volume 3114.718237
_symmetry_space_group_name_H-M "C 2/C"
_symmetry_group_IT_number 15
_symmetry_cell_setting 'monoclinic'
loop_
_space_group_symop_operation_xyz
x,y,z
-x,y,1/2-z
-x,-y,-z
x,-y,1/2+z
1/2+x,1/2+y,z
1/2-x,1/2+y,1/2-z
1/2-x,1/2-y,-z
1/2+x,1/2-y,1/2+z
loop_
_atom_site_type_symbol
_atom_site_label
_atom_site_fract_x
_atom_site_fract_y
_atom_site_fract_z
Si Si1 0.855196 0.237209 0.554158
Si Si2 0.817257 0.524965 0.549362
Si Si3 0.077883 0.581971 0.853127
Si Si4 0.862953 0.322084 0.957968
Si Si5 0.720515 0.594159 0.377078
Si Si6 0.000000 0.496494 0.750000
Si Si7 0.298121 0.553817 0.536767
Si Si8 0.501508 0.742772 0.104341
O O1 0.869660 0.139351 0.544054
O O2 0.670874 0.260378 0.601787
O O3 0.932933 0.265289 0.475352
O O4 0.959993 0.286085 0.578096
O O5 0.808548 0.538419 0.622012
O O6 0.816606 0.609954 0.515383
O O7 0.703234 0.467023 0.533494
O O8 0.000000 0.500000 0.500000
O O9 0.076897 0.549269 0.786787
O O10 0.892969 0.564077 0.910805
O O11 0.098013 0.679306 0.852840
O O12 0.820931 0.355479 0.903455
O O13 0.750000 0.250000 0.000000
O O14 0.646947 0.520584 0.432849
O O15 0.595238 0.658720 0.377099
O O16 0.850850 0.555844 0.305796
#
# Coordination Sequence:
#
# PCOD9262673 Si02
#       8
#     8   8   8   8   8   4   8   8
#     4  10  19  33  54  91 125 147 168 227 305 355
#     4   9  16  29  50  77 108 140 180 225 284 338
#     4   9  16  34  54  77 102 155 189 225 273 346
#     4  11  19  34  56  86 117 147 182 235 291 354
#     4  10  20  38  57  85 113 151 198 236 275 342
#     4  10  22  38  58  74 106 158 208 236 268 328
#     4   8  18  30  52  83 118 140 178 224 292 335
#     4  10  19  33  58  84 120 143 187 232 288 345
#
# _framework density 19.263380000000002
#
# number of rings (size 3 to 8) (size 9 to 14) (size 15 to 20)
#    0.000    2.400    2.667    0.800    1.867    0.533 
#    0.000    4.000    0.000    0.000    0.000    0.000 
#    0.000    0.000    0.000    0.000    0.000    0.000 
#
# Total GULP energy -167081.335394 kJ/mol
# GULP energy per Si atom -5569.377846 kJ/mol
# Density = 1.921954 g / cm^3
# Si number density = 19.263380 Si / 1000 Ang^3
#
#
#
# Elastic Constant Matrix: (Units=GPa)
#
#
# Indices 1 2 3 4 5 6 
#
# 1 75.9707 42.6519 24.0579 0.0000 12.4029 0.0000
# 2 42.6519 109.5882 44.2724 0.0000 18.7844 0.0000
# 3 24.0579 44.2724 79.0546 0.0000 14.9354 0.0000
# 4 0.0000 0.0000 0.0000 24.5207 0.0000 1.7563
# 5 12.4029 18.7844 14.9354 0.0000 18.1899 0.0000
# 6 0.0000 0.0000 0.0000 1.7563 0.0000 43.2521
#
#
#
# Elastic Compliance Matrix: (Units=1/GPa)
#
#
# Indices 1 2 3 4 5 6 
#
# 1 0.017448 -0.005354 -0.001312 0.000000 -0.005291 0.000000
# 2 -0.005354 0.014508 -0.005154 0.000000 -0.007099 0.000000
# 3 -0.001312 -0.005154 0.017471 0.000000 -0.008128 0.000000
# 4 0.000000 0.000000 0.000000 0.040901 0.000000 -0.001661
# 5 -0.005291 -0.007099 -0.008128 0.000000 0.072589 0.000000
# 6 0.000000 0.000000 0.000000 -0.001661 0.000000 0.023188
#
#
# Mechanical properties :
#
#
# Convention : Reuss Voigt Hill
#
# Bulk Modulus (GPa) = 38.77958 54.06421 46.42190
# Shear Modulus (GPa) = 22.90012 27.43460 25.16736
#
# Velocity S-wave (km/s) = 3.45162 3.77793 3.61846
# Velocity P-wave (km/s) = 6.00499 6.86710 6.45046
#
# Compressibility (1/GPa) = 0.02578677
#
# Stress axis : x y z
#
# Youngs Moduli (GPa) = 57.31298 68.92764 57.23855
#
# Poissons Ratio (x) = 0.36903 0.07509
# Poissons Ratio (y) = 0.30685 0.29502
# Poissons Ratio (z) = 0.07519 0.35527
#
# Static dielectric constant tensor:
#      x y z
#    x 1.831890 0.000000 0.001170 
#    y 0.000000 1.705340 0.000000 
#    z 0.001170 0.000000 1.672280 
# 
# From -- ./inp_files/265218.got.cif
#   From: 2010.05.17/outbox.cif.g08.bks.cpg/sg15_133_cif.got.tgz:265218.got - 2010.06.03 18:47:42.
