data_PCOD9262851
_publ_section_title
;
Structure prediction by ZEFSAII (Michael W. Deem and Ramdas Pophale) SiO2 
 PCOD9262851
Probable space group: C 2/C
;
_chemical_formula_sum "Si O2"
_cell_formula_units_Z 60
_cell_length_a 23.582515
_cell_length_b 10.093686
_cell_length_c 14.354110
_cell_angle_alpha 90.000000
_cell_angle_beta 116.855062
_cell_angle_gamma 90.000000
_cell_volume 3048.281605
_symmetry_space_group_name_H-M "C 2/C"
_symmetry_group_IT_number 15
_symmetry_cell_setting 'monoclinic'
loop_
_space_group_symop_operation_xyz
x,y,z
-x,y,1/2-z
-x,-y,-z
x,-y,1/2+z
1/2+x,1/2+y,z
1/2-x,1/2+y,1/2-z
1/2-x,1/2-y,-z
1/2+x,1/2-y,1/2+z
loop_
_atom_site_type_symbol
_atom_site_label
_atom_site_fract_x
_atom_site_fract_y
_atom_site_fract_z
Si Si1 0.728575 0.942641 0.450141
Si Si2 0.177314 0.966991 0.331297
Si Si3 0.176004 0.292582 0.933912
Si Si4 0.480286 0.359739 0.528625
Si Si5 0.631999 0.242838 0.797705
Si Si6 0.000000 0.219191 0.250000
Si Si7 0.609787 0.254745 0.573098
Si Si8 0.843968 0.940224 0.393965
O O1 0.686096 0.814641 0.403458
O O2 0.789743 0.927295 0.430116
O O3 0.757643 0.982193 0.571875
O O4 0.683771 0.067373 0.388135
O O5 0.149570 0.838060 0.362760
O O6 0.185076 0.926647 0.230198
O O7 0.132929 0.096720 0.302878
O O8 0.250000 0.250000 0.000000
O O9 0.138800 0.311732 0.003078
O O10 0.500000 0.500000 0.500000
O O11 0.489988 0.360755 0.647025
O O12 0.533016 0.257513 0.527507
O O13 0.405324 0.346042 0.452506
O O14 0.563553 0.197378 0.781834
O O15 0.638715 0.207163 0.693484
O O16 0.631169 0.408530 0.579821
#
# Coordination Sequence:
#
# PCOD9262851 Si02
#       8
#     8   8   8   8   8   4   8   8
#     4  11  22  35  59  87 119 162 196 242 307 374
#     4  10  21  35  56  90 118 154 192 254 303 355
#     4  10  20  36  58  81 121 160 193 244 309 365
#     4   9  19  33  57  87 116 155 195 251 298 359
#     4  10  22  36  62  86 114 159 202 253 296 363
#     4  10  20  38  60  82 120 160 200 254 310 344
#     4   9  18  37  57  83 115 159 203 239 307 360
#     4  10  19  33  56  89 124 145 201 249 306 362
#
# _framework density 19.683221
#
# number of rings (size 3 to 8) (size 9 to 14) (size 15 to 20)
#    0.000    2.133    2.667    2.000    5.600    0.000 
#    0.000    0.000    2.933    1.600    0.000    0.000 
#    0.000    0.000    0.000    0.000    0.000    0.000 
#
# Total GULP energy -167096.353555 kJ/mol
# GULP energy per Si atom -5569.878452 kJ/mol
# Density = 1.963842 g / cm^3
# Si number density = 19.683221 Si / 1000 Ang^3
#
#
#
# Elastic Constant Matrix: (Units=GPa)
#
#
# Indices 1 2 3 4 5 6 
#
# 1 132.8528 20.3445 62.6456 0.0000 -8.0416 0.0000
# 2 20.3445 41.9571 15.9178 0.0000 -3.9067 0.0000
# 3 62.6456 15.9178 121.1208 0.0000 -3.9131 0.0000
# 4 0.0000 0.0000 0.0000 12.6373 0.0000 2.6271
# 5 -8.0416 -3.9067 -3.9131 0.0000 28.3826 0.0000
# 6 0.0000 0.0000 0.0000 2.6271 0.0000 13.4962
#
#
#
# Elastic Compliance Matrix: (Units=1/GPa)
#
#
# Indices 1 2 3 4 5 6 
#
# 1 0.010429 -0.003010 -0.004939 0.000000 0.001860 0.000000
# 2 -0.003010 0.026212 -0.001807 0.000000 0.002506 0.000000
# 3 -0.004939 -0.001807 0.011044 0.000000 -0.000125 0.000000
# 4 0.000000 0.000000 0.000000 0.082468 0.000000 -0.016053
# 5 0.001860 0.002506 -0.000125 0.000000 0.036087 0.000000
# 6 0.000000 0.000000 0.000000 -0.016053 0.000000 0.077220
#
#
# Mechanical properties :
#
#
# Convention : Reuss Voigt Hill
#
# Bulk Modulus (GPa) = 35.49355 54.86073 45.17714
# Shear Modulus (GPa) = 18.35780 24.03807 21.19793
#
# Velocity S-wave (km/s) = 3.05727 3.49843 3.28526
# Velocity P-wave (km/s) = 5.52576 6.65214 6.11494
#
# Compressibility (1/GPa) = 0.02817414
#
# Stress axis : x y z
#
# Youngs Moduli (GPa) = 95.88251 38.14995 90.54746
#
# Poissons Ratio (x) = 0.11484 0.44717
# Poissons Ratio (y) = 0.28864 0.16361
# Poissons Ratio (z) = 0.47352 0.06893
#
# Static dielectric constant tensor:
#      x y z
#    x 1.716410 0.000000 0.015300 
#    y 0.000000 1.749240 0.000000 
#    z 0.015300 0.000000 1.739480 
# 
# From -- ./inp_files/172984.got.cif
#   From: 2010.05.17/outbox.cif.g08.bks.cpg/sg15_87_cif.got.tgz:172984.got - 2010.06.03 18:47:42.
