data_PCOD9262324
_publ_section_title
;
Structure prediction by ZEFSAII (Michael W. Deem and Ramdas Pophale) SiO2 
 PCOD9262324
Probable space group: C 2/C
;
_chemical_formula_sum "Si O2"
_cell_formula_units_Z 52
_cell_length_a 9.707990
_cell_length_b 14.639611
_cell_length_c 15.334912
_cell_angle_alpha 90.000000
_cell_angle_beta 110.567989
_cell_angle_gamma 90.000000
_cell_volume 2040.491274
_symmetry_space_group_name_H-M "C 2/C"
_symmetry_group_IT_number 15
_symmetry_cell_setting 'monoclinic'
loop_
_space_group_symop_operation_xyz
x,y,z
-x,y,1/2-z
-x,-y,-z
x,-y,1/2+z
1/2+x,1/2+y,z
1/2-x,1/2+y,1/2-z
1/2-x,1/2-y,-z
1/2+x,1/2-y,1/2+z
loop_
_atom_site_type_symbol
_atom_site_label
_atom_site_fract_x
_atom_site_fract_y
_atom_site_fract_z
Si Si1 0.664565 0.029433 0.426918
Si Si2 0.360109 0.921340 0.910916
Si Si3 0.500000 0.432978 0.250000
Si Si4 0.775029 0.229016 0.226966
Si Si5 0.701749 0.053891 0.753895
Si Si6 0.947743 0.771254 0.120357
Si Si7 0.631469 0.675508 0.072777
O O1 0.668317 0.948065 0.496598
O O2 0.636513 0.996870 0.322583
O O3 0.534827 0.097043 0.433435
O O4 0.822686 0.076525 0.451767
O O5 0.240401 0.847096 0.852650
O O6 0.355339 0.013328 0.849902
O O7 0.627598 0.475565 0.220853
O O8 0.421381 0.368619 0.161517
O O9 0.811829 0.337413 0.230398
O O10 0.595615 0.233694 0.199881
O O11 0.881089 0.190049 0.326582
O O12 0.789641 0.725953 0.096680
O O13 0.979844 0.785913 0.023846
#
# Coordination Sequence:
#
# PCOD9262324 Si02
#       7
#     8   8   4   8   8   8   8
#     4  11  24  39  66 101 133 178 228 290 344 403
#     4  11  24  42  65  98 138 175 237 283 342 412
#     4  10  20  40  58  90 128 172 218 284 338 394
#     4  11  22  40  66  93 138 181 222 286 344 401
#     4  11  23  40  67  96 131 179 223 284 343 407
#     4  10  19  32  60  95 124 163 235 275 325 396
#     4  11  19  34  63  97 124 171 228 280 330 394
#
# _framework density 25.484058000000001
#
# number of rings (size 3 to 8) (size 9 to 14) (size 15 to 20)
#    0.000    1.231    6.154    1.385    2.154    0.615 
#    0.000    6.923    3.385    0.000    0.000    0.000 
#    0.000    0.000    0.000    0.000    0.000    0.000 
#
# Total GULP energy -144757.664396 kJ/mol
# GULP energy per Si atom -5567.602477 kJ/mol
# Density = 2.542606 g / cm^3
# Si number density = 25.484058 Si / 1000 Ang^3
#
#
#
# Elastic Constant Matrix: (Units=GPa)
#
#
# Indices 1 2 3 4 5 6 
#
# 1 57.1454 1.6377 9.3710 0.0000 -9.5276 0.0000
# 2 1.6377 67.0096 14.2196 0.0000 2.5574 0.0000
# 3 9.3710 14.2196 144.4881 0.0000 -4.0169 0.0000
# 4 0.0000 0.0000 0.0000 32.7366 0.0000 3.4959
# 5 -9.5276 2.5574 -4.0169 0.0000 20.1722 0.0000
# 6 0.0000 0.0000 0.0000 3.4959 0.0000 4.7203
#
#
#
# Elastic Compliance Matrix: (Units=1/GPa)
#
#
# Indices 1 2 3 4 5 6 
#
# 1 0.019161 -0.000611 -0.000934 0.000000 0.008941 0.000000
# 2 -0.000611 0.015363 -0.001543 0.000000 -0.002544 0.000000
# 3 -0.000934 -0.001543 0.007166 0.000000 0.001182 0.000000
# 4 0.000000 0.000000 0.000000 0.033170 0.000000 -0.024566
# 5 0.008941 -0.002544 0.001182 0.000000 0.054354 0.000000
# 6 0.000000 0.000000 0.000000 -0.024566 0.000000 0.230045
#
#
# Mechanical properties :
#
#
# Convention : Reuss Voigt Hill
#
# Bulk Modulus (GPa) = 28.15865 35.45551 31.80708
# Shear Modulus (GPa) = 13.25299 27.75349 20.50324
#
# Velocity S-wave (km/s) = 2.28293 3.30366 2.83954
# Velocity P-wave (km/s) = 4.24530 5.33809 4.82275
#
# Compressibility (1/GPa) = 0.03551306
#
# Stress axis : x y z
#
# Youngs Moduli (GPa) = 52.19032 65.09281 139.54292
#
# Poissons Ratio (x) = 0.03979 0.13033
# Poissons Ratio (y) = 0.03191 0.21531
# Poissons Ratio (z) = 0.04874 0.10044
#
# Static dielectric constant tensor:
#      x y z
#    x 2.163720 0.000000 -0.040720 
#    y 0.000000 2.216130 0.000000 
#    z -0.040720 0.000000 2.086690 
# 
# From -- ./inp_files/144309.got.cif
#   From: 2010.05.17/outbox.cif.g08.bks.cpg/sg15_73_cif.got.tgz:144309.got - 2010.06.03 18:47:42.
