data_PCOD9262123
_publ_section_title
;
Structure prediction by ZEFSAII (Michael W. Deem and Ramdas Pophale) SiO2 
 PCOD9262123
Probable space group: C 2/C
;
_chemical_formula_sum "Si O2"
_cell_formula_units_Z 56
_cell_length_a 22.447048
_cell_length_b 9.672859
_cell_length_c 13.439687
_cell_angle_alpha 90.000000
_cell_angle_beta 106.741110
_cell_angle_gamma 90.000000
_cell_volume 2794.439235
_symmetry_space_group_name_H-M "C 2/C"
_symmetry_group_IT_number 15
_symmetry_cell_setting 'monoclinic'
loop_
_space_group_symop_operation_xyz
x,y,z
-x,y,1/2-z
-x,-y,-z
x,-y,1/2+z
1/2+x,1/2+y,z
1/2-x,1/2+y,1/2-z
1/2-x,1/2-y,-z
1/2+x,1/2-y,1/2+z
loop_
_atom_site_type_symbol
_atom_site_label
_atom_site_fract_x
_atom_site_fract_y
_atom_site_fract_z
Si Si1 0.089111 0.688463 0.377418
Si Si2 0.795290 0.854833 0.123289
Si Si3 0.618757 0.955160 0.073945
Si Si4 0.952042 0.687302 0.370218
Si Si5 0.317480 0.318208 0.861018
Si Si6 0.760801 0.627689 0.372318
Si Si7 0.659978 0.630444 0.623461
O O1 0.143819 0.800417 0.402426
O O2 0.115139 0.558483 0.452443
O O3 0.072163 0.666392 0.254446
O O4 0.024142 0.727192 0.398787
O O5 0.738688 0.745032 0.099536
O O6 0.814317 0.863996 0.250018
O O7 0.771889 0.006642 0.080269
O O8 0.629306 0.798509 0.114204
O O9 0.560658 0.040385 0.084705
O O10 0.679191 0.040771 0.139250
O O11 0.908049 0.799631 0.402862
O O12 0.287589 0.332892 0.736940
O O13 0.339058 0.470070 0.902294
O O14 0.794446 0.770321 0.419468
#
# Coordination Sequence:
#
# PCOD9262123 Si02
#       7
#     8   8   8   8   8   8   8
#     4  10  19  32  54  78 101 133 178 216 253 309
#     4   8  15  27  46  72  98 126 166 210 252 301
#     4  10  19  32  54  78 101 135 176 214 254 307
#     4   9  19  35  54  73 100 137 175 216 256 299
#     4   9  16  28  50  76 103 133 165 207 261 307
#     4   8  15  27  46  72 101 132 165 202 249 302
#     4   8  14  28  49  69  96 137 167 199 255 306
#
# _framework density 20.039798000000001
#
# number of rings (size 3 to 8) (size 9 to 14) (size 15 to 20)
#    0.000    3.143    0.000    2.143    0.000    2.286 
#    0.000    0.714    0.000   34.286    0.000    0.000 
#    0.000    0.000    0.000    0.000    0.000    0.000 
#
# Total GULP energy -155921.168463 kJ/mol
# GULP energy per Si atom -5568.613159 kJ/mol
# Density = 1.999419 g / cm^3
# Si number density = 20.039798 Si / 1000 Ang^3
#
#
#
# Elastic Constant Matrix: (Units=GPa)
#
#
# Indices 1 2 3 4 5 6 
#
# 1 125.4273 78.3502 25.5934 0.0000 5.8783 0.0000
# 2 78.3502 181.3038 19.0715 0.0000 -1.5227 0.0000
# 3 25.5934 19.0715 44.4541 0.0000 9.4936 0.0000
# 4 0.0000 0.0000 0.0000 16.8410 0.0000 -2.2740
# 5 5.8783 -1.5227 9.4936 0.0000 22.4209 0.0000
# 6 0.0000 0.0000 0.0000 -2.2740 0.0000 18.4833
#
#
#
# Elastic Compliance Matrix: (Units=1/GPa)
#
#
# Indices 1 2 3 4 5 6 
#
# 1 0.011884 -0.004674 -0.004512 0.000000 -0.001523 0.000000
# 2 -0.004674 0.007666 -0.001067 0.000000 0.002198 0.000000
# 3 -0.004512 -0.001067 0.027830 0.000000 -0.010674 0.000000
# 4 0.000000 0.000000 0.000000 0.060382 0.000000 0.007429
# 5 -0.001523 0.002198 -0.010674 0.000000 0.049669 0.000000
# 6 0.000000 0.000000 0.000000 0.007429 0.000000 0.055017
#
#
# Mechanical properties :
#
#
# Convention : Reuss Voigt Hill
#
# Bulk Modulus (GPa) = 37.21011 66.35726 51.78369
# Shear Modulus (GPa) = 20.66855 26.76037 23.71446
#
# Velocity S-wave (km/s) = 3.21499 3.65822 3.44374
# Velocity P-wave (km/s) = 5.69122 7.14340 6.45825
#
# Compressibility (1/GPa) = 0.02687442
#
# Stress axis : x y z
#
# Youngs Moduli (GPa) = 84.14344 130.44221 35.93240
#
# Poissons Ratio (x) = 0.60969 0.16212
# Poissons Ratio (y) = 0.39329 0.03835
# Poissons Ratio (z) = 0.37963 0.13923
#
# Static dielectric constant tensor:
#      x y z
#    x 1.721420 0.000000 -0.008440 
#    y 0.000000 1.716160 0.000000 
#    z -0.008440 0.000000 1.748730 
# 
# From -- ./inp_files/171953.got.cif
#   From: 2010.05.17/outbox.cif.g08.bks.cpg/sg15_86_cif.got.tgz:171953.got - 2010.06.03 18:47:42.
