data_PCOD9262801
_publ_section_title
;
Structure prediction by ZEFSAII (Michael W. Deem and Ramdas Pophale) SiO2 
 PCOD9262801
Probable space group: C 2/C
;
_chemical_formula_sum "Si O2"
_cell_formula_units_Z 52
_cell_length_a 18.707052
_cell_length_b 14.554576
_cell_length_c 23.080358
_cell_angle_alpha 90.000000
_cell_angle_beta 153.786524
_cell_angle_gamma 90.000000
_cell_volume 2775.820922
_symmetry_space_group_name_H-M "C 2/C"
_symmetry_group_IT_number 15
_symmetry_cell_setting 'monoclinic'
loop_
_space_group_symop_operation_xyz
x,y,z
-x,y,1/2-z
-x,-y,-z
x,-y,1/2+z
1/2+x,1/2+y,z
1/2-x,1/2+y,1/2-z
1/2-x,1/2-y,-z
1/2+x,1/2-y,1/2+z
loop_
_atom_site_type_symbol
_atom_site_label
_atom_site_fract_x
_atom_site_fract_y
_atom_site_fract_z
Si Si1 0.994087 0.164685 0.056180
Si Si2 0.727208 0.297053 0.628492
Si Si3 0.853899 0.731723 0.725546
Si Si4 0.349702 0.512419 0.034844
Si Si5 0.500000 0.381537 0.750000
Si Si6 0.000000 0.578215 0.750000
Si Si7 0.000000 0.688070 0.250000
Si Si8 0.471472 0.304554 0.123338
O O1 0.130506 0.149510 0.107041
O O2 0.066489 0.234702 0.156822
O O3 0.935999 0.074113 0.048022
O O4 0.835202 0.207498 0.910471
O O5 0.863745 0.354928 0.692178
O O6 0.603183 0.263045 0.489440
O O7 0.836149 0.215545 0.734404
O O8 0.883188 0.815117 0.701848
O O9 0.943779 0.644993 0.761590
O O10 0.399198 0.558352 0.131646
O O11 0.419381 0.409995 0.085369
O O12 0.157241 0.523113 0.885788
O O13 0.085704 0.754388 0.359275
#
# Coordination Sequence:
#
# PCOD9262801 Si02
#       8
#     8   8   8   8   4   4   4   8
#     4  10  19  33  56  82 114 144 184 225 282 332
#     4  10  21  37  57  78 104 146 189 233 267 336
#     4   9  17  31  55  84 112 152 181 214 272 350
#     4  10  20  34  55  87 114 145 176 235 286 325
#     4   9  17  32  54  80 118 146 180 221 275 336
#     4   9  18  33  53  85 120 144 182 221 272 337
#     4   8  21  37  59  79  98 146 196 232 265 319
#     4  10  21  38  58  79 104 140 196 233 280 321
#
# _framework density 18.733197000000001
#
# number of rings (size 3 to 8) (size 9 to 14) (size 15 to 20)
#    0.923    1.538    0.000    2.769    0.000    4.923 
#    0.000    0.000    0.000   10.154    0.000    0.000 
#    0.000    0.000    0.000    0.000    0.000    0.000 
#
# Total GULP energy -144749.885661 kJ/mol
# GULP energy per Si atom -5567.303295 kJ/mol
# Density = 1.869056 g / cm^3
# Si number density = 18.733197 Si / 1000 Ang^3
#
#
#
# Elastic Constant Matrix: (Units=GPa)
#
#
# Indices 1 2 3 4 5 6 
#
# 1 102.9756 7.8218 55.0412 0.0086 18.1795 0.0044
# 2 7.8218 43.6309 54.7129 0.0069 5.9573 0.0026
# 3 55.0412 54.7129 143.1002 0.0051 -4.5356 0.0014
# 4 0.0086 0.0069 0.0051 -93.9077 0.0023 -62.7340
# 5 18.1795 5.9573 -4.5356 0.0023 33.4220 0.0010
# 6 0.0044 0.0026 0.0014 -62.7340 0.0010 -23.3613
#
#
#
# Elastic Compliance Matrix: (Units=1/GPa)
#
#
# Indices 1 2 3 4 5 6 
#
# 1 0.018283 0.015570 -0.013447 0.000001 -0.014545 0.000001
# 2 0.015570 0.061028 -0.030065 0.000001 -0.023427 0.000004
# 3 -0.013447 -0.030065 0.024161 -0.000001 0.015952 -0.000001
# 4 0.000001 0.000001 -0.000001 0.013413 -0.000001 -0.036018
# 5 -0.014545 -0.023427 0.015952 -0.000001 0.044173 -0.000001
# 6 0.000001 0.000004 -0.000001 -0.036018 -0.000001 0.053916
#
#
# Mechanical properties :
#
#
# Convention : Reuss Voigt Hill
#
# Bulk Modulus (GPa) = 21.01297 58.31762 39.66529
# Shear Modulus (GPa) = 17.43874 -5.29402 6.07236
#
# Velocity S-wave (km/s) = 3.05438 -1.68290 1.80237
# Velocity P-wave (km/s) = 4.86624 5.23660 5.05481
#
# Compressibility (1/GPa) = 0.04758965
#
# Stress axis : x y z
#
# Youngs Moduli (GPa) = 54.69428 16.38598 41.38972
#
# Poissons Ratio (x) = -0.25513 0.55655
# Poissons Ratio (y) = -0.85159 1.24437
# Poissons Ratio (z) = 0.73545 0.49264
#
# Static dielectric constant tensor:
#      x y z
#    x 1.667680 0.000000 0.012200 
#    y 0.000000 1.644170 0.000000 
#    z 0.012200 0.000000 1.678130 
# 
# From -- ./inp_files/112120.got.cif
#   From: 2010.05.17/outbox.cif.g08.bks.cpg/sg15_57_cif.got.tgz:112120.got - 2010.06.03 18:47:42.
