data_PCOD9262721
_publ_section_title
;
Structure prediction by ZEFSAII (Michael W. Deem and Ramdas Pophale) SiO2 
 PCOD9262721
Probable space group: C 2/C
;
_chemical_formula_sum "Si O2"
_cell_formula_units_Z 48
_cell_length_a 14.495969
_cell_length_b 11.988625
_cell_length_c 11.905620
_cell_angle_alpha 90.000000
_cell_angle_beta 65.516453
_cell_angle_gamma 90.000000
_cell_volume 1882.991526
_symmetry_space_group_name_H-M "C 2/C"
_symmetry_group_IT_number 15
_symmetry_cell_setting 'monoclinic'
loop_
_space_group_symop_operation_xyz
x,y,z
-x,y,1/2-z
-x,-y,-z
x,-y,1/2+z
1/2+x,1/2+y,z
1/2-x,1/2+y,1/2-z
1/2-x,1/2-y,-z
1/2+x,1/2-y,1/2+z
loop_
_atom_site_type_symbol
_atom_site_label
_atom_site_fract_x
_atom_site_fract_y
_atom_site_fract_z
Si Si1 0.814134 0.188181 0.809205
Si Si2 0.479433 0.323861 0.564628
Si Si3 0.674999 0.927317 0.057094
Si Si4 0.684348 0.699904 0.175156
Si Si5 0.141238 0.966738 0.402947
Si Si6 0.607977 0.149630 0.047865
O O1 0.758641 0.253533 0.735731
O O2 0.867103 0.084382 0.718271
O O3 0.883686 0.271856 0.846348
O O4 0.721243 0.151171 0.935909
O O5 0.418134 0.330765 0.709804
O O6 0.592057 0.369610 0.503850
O O7 0.416754 0.421795 0.531973
O O8 0.464772 0.209750 0.505058
O O9 0.651239 0.805327 0.116047
O O10 0.742921 0.981530 0.122161
O O11 0.589503 0.018626 0.076714
O O12 0.749862 0.896198 0.916693
#
# Coordination Sequence:
#
# PCOD9262721 Si02
#       6
#     8   8   8   8   8   8
#     4   9  18  32  52  76 107 142 188 235 283 339
#     4  10  21  34  52  82 117 147 184 233 294 347
#     4  10  19  34  58  80 106 146 195 238 281 338
#     4   9  19  34  54  80 106 144 193 238 282 344
#     4  10  20  34  53  81 114 147 181 236 294 344
#     4  10  19  33  55  82 110 147 193 239 282 341
#
# _framework density 25.491351000000002
#
# number of rings (size 3 to 8) (size 9 to 14) (size 15 to 20)
#    0.000    2.333    0.000    4.000    0.000    4.000 
#    0.000    3.333    0.000   22.000    0.000    0.000 
#    0.000    0.000    0.000    0.000    0.000    0.000 
#
# Total GULP energy -134103.618695 kJ/mol
# GULP energy per Si atom -5587.650779 kJ/mol
# Density = 2.543333 g / cm^3
# Si number density = 25.491351 Si / 1000 Ang^3
#
#
#
# Elastic Constant Matrix: (Units=GPa)
#
#
# Indices 1 2 3 4 5 6 
#
# 1 29.8866 17.6935 -1.5340 0.0000 4.6638 0.0000
# 2 17.6935 143.3002 29.2778 0.0000 18.0997 0.0000
# 3 -1.5340 29.2778 101.6922 0.0000 -0.2161 0.0000
# 4 0.0000 0.0000 0.0000 40.4500 0.0000 2.5559
# 5 4.6638 18.0997 -0.2161 0.0000 27.7073 0.0000
# 6 0.0000 0.0000 0.0000 2.5559 0.0000 25.5312
#
#
#
# Elastic Compliance Matrix: (Units=1/GPa)
#
#
# Indices 1 2 3 4 5 6 
#
# 1 0.036724 -0.004504 0.001844 0.000000 -0.003225 0.000000
# 2 -0.004504 0.008685 -0.002579 0.000000 -0.004935 0.000000
# 3 0.001844 -0.002579 0.010607 0.000000 0.001457 0.000000
# 4 0.000000 0.000000 0.000000 0.024879 0.000000 -0.002491
# 5 -0.003225 -0.004935 0.001457 0.000000 0.039870 0.000000
# 6 0.000000 0.000000 0.000000 -0.002491 0.000000 0.039417
#
#
# Mechanical properties :
#
#
# Convention : Reuss Voigt Hill
#
# Bulk Modulus (GPa) = 21.95960 40.63929 31.29944
# Shear Modulus (GPa) = 26.90506 34.03382 30.46944
#
# Velocity S-wave (km/s) = 3.25231 3.65788 3.46104
# Velocity P-wave (km/s) = 4.76829 5.81525 5.31760
#
# Compressibility (1/GPa) = 0.04553817
#
# Stress axis : x y z
#
# Youngs Moduli (GPa) = 27.23009 115.14545 94.27779
#
# Poissons Ratio (x) = 0.51858 -0.17383
# Poissons Ratio (y) = 0.12264 0.24312
# Poissons Ratio (z) = -0.05021 0.29694
#
# Static dielectric constant tensor:
#      x y z
#    x 1.992670 0.000000 0.048970 
#    y 0.000000 2.029000 0.000000 
#    z 0.048970 0.000000 2.063590 
# 
# From -- ./inp_files/110876.got.cif
#   From: 2010.05.17/outbox.cif.g08.bks.cpg/sg15_56_cif.got.tgz:110876.got - 2010.06.03 18:47:42.
