data_PCOD9262607
_publ_section_title
;
Structure prediction by ZEFSAII (Michael W. Deem and Ramdas Pophale) SiO2 
 PCOD9262607
Probable space group: C 2/C
;
_chemical_formula_sum "Si O2"
_cell_formula_units_Z 48
_cell_length_a 16.669276
_cell_length_b 17.706000
_cell_length_c 7.569690
_cell_angle_alpha 90.000000
_cell_angle_beta 72.708487
_cell_angle_gamma 90.000000
_cell_volume 2133.191785
_symmetry_space_group_name_H-M "C 2/C"
_symmetry_group_IT_number 15
_symmetry_cell_setting 'monoclinic'
loop_
_space_group_symop_operation_xyz
x,y,z
-x,y,1/2-z
-x,-y,-z
x,-y,1/2+z
1/2+x,1/2+y,z
1/2-x,1/2+y,1/2-z
1/2-x,1/2-y,-z
1/2+x,1/2-y,1/2+z
loop_
_atom_site_type_symbol
_atom_site_label
_atom_site_fract_x
_atom_site_fract_y
_atom_site_fract_z
Si Si1 0.593438 0.122576 0.226838
Si Si2 0.406241 0.581062 0.509819
Si Si3 0.767927 0.644339 0.855829
Si Si4 0.408132 0.961868 0.394539
Si Si5 0.588698 0.404276 0.916553
Si Si6 0.259963 0.697264 0.218125
O O1 0.500000 0.153768 0.250000
O O2 0.590582 0.079331 0.417885
O O3 0.670272 0.180804 0.186231
O O4 0.390250 0.051393 0.413301
O O5 0.322192 0.614179 0.645719
O O6 0.401391 0.490947 0.533142
O O7 0.408758 0.597047 0.298999
O O8 0.492713 0.614078 0.531432
O O9 0.837467 0.580006 0.825923
O O10 0.788662 0.716738 0.724751
O O11 0.754796 0.670361 0.068783
O O12 0.500000 0.953161 0.250000
O O13 0.666081 0.351752 0.918186
#
# Coordination Sequence:
#
# PCOD9262607 Si02
#       6
#     8   8   8   8   8   8
#     4  10  19  33  56  76 105 139 176 219 262 310
#     4   9  17  31  54  77 102 132 170 217 257 311
#     4   9  18  33  50  78 105 136 175 212 265 310
#     4  10  19  33  54  80 103 136 178 221 259 310
#     4   9  17  31  53  79 100 132 173 213 261 306
#     4   9  18  33  50  77 106 137 171 215 265 312
#
# _framework density 22.501493
#
# number of rings (size 3 to 8) (size 9 to 14) (size 15 to 20)
#    0.000    2.667    0.000    3.000    0.000    0.000 
#   12.000    1.667    7.333    5.000    0.000    0.000 
#    0.000    0.000    0.000    0.000    0.000    0.000 
#
# Total GULP energy -134030.814220 kJ/mol
# GULP energy per Si atom -5584.617259 kJ/mol
# Density = 2.245028 g / cm^3
# Si number density = 22.501493 Si / 1000 Ang^3
#
#
#
# Elastic Constant Matrix: (Units=GPa)
#
#
# Indices 1 2 3 4 5 6 
#
# 1 168.2012 50.1199 21.2901 0.0000 -26.5639 0.0000
# 2 50.1199 29.5774 -7.3856 0.0000 -13.5005 0.0000
# 3 21.2901 -7.3856 64.8254 0.0000 11.5528 0.0000
# 4 0.0000 0.0000 0.0000 57.9222 0.0000 -47.2756
# 5 -26.5639 -13.5005 11.5528 0.0000 22.8154 0.0000
# 6 0.0000 0.0000 0.0000 -47.2756 0.0000 72.7710
#
#
#
# Elastic Compliance Matrix: (Units=1/GPa)
#
#
# Indices 1 2 3 4 5 6 
#
# 1 0.016410 -0.026401 -0.009912 0.000000 0.008503 0.000000
# 2 -0.026401 0.088806 0.016379 0.000000 0.013517 0.000000
# 3 -0.009912 0.016379 0.022948 0.000000 -0.013469 0.000000
# 4 0.000000 0.000000 0.000000 0.036752 0.000000 0.023876
# 5 0.008503 0.013517 -0.013469 0.000000 0.068548 0.000000
# 6 0.000000 0.000000 0.000000 0.023876 0.000000 0.029252
#
#
# Mechanical properties :
#
#
# Convention : Reuss Voigt Hill
#
# Bulk Modulus (GPa) = 11.32549 43.40586 27.36568
# Shear Modulus (GPa) = 15.05954 43.94036 29.49995
#
# Velocity S-wave (km/s) = 2.58983 4.42382 3.62473
# Velocity P-wave (km/s) = 3.73993 6.73985 5.45035
#
# Compressibility (1/GPa) = 0.08829638
#
# Stress axis : x y z
#
# Youngs Moduli (GPa) = 60.94024 11.26048 43.57689
#
# Poissons Ratio (x) = 0.29728 0.43195
# Poissons Ratio (y) = 1.60886 -0.71376
# Poissons Ratio (z) = 0.60406 -0.18444
#
# Static dielectric constant tensor:
#      x y z
#    x 1.854120 0.000000 0.036450 
#    y 0.000000 1.808150 0.000000 
#    z 0.036450 0.000000 1.875100 
# 
# From -- ./inp_files/97738.got.cif
#   From: 2010.05.17/outbox.cif.g08.bks.cpg/sg15_49_cif.got.tgz:97738.got - 2010.06.03 18:47:42.
