data_PCOD9262390
_publ_section_title
;
Structure prediction by ZEFSAII (Michael W. Deem and Ramdas Pophale) SiO2 
 PCOD9262390
Probable space group: C 2/C
;
_chemical_formula_sum "Si O2"
_cell_formula_units_Z 60
_cell_length_a 27.507349
_cell_length_b 23.143863
_cell_length_c 9.365611
_cell_angle_alpha 90.000000
_cell_angle_beta 143.789191
_cell_angle_gamma 90.000000
_cell_volume 3522.331570
_symmetry_space_group_name_H-M "C 2/C"
_symmetry_group_IT_number 15
_symmetry_cell_setting 'monoclinic'
loop_
_space_group_symop_operation_xyz
x,y,z
-x,y,1/2-z
-x,-y,-z
x,-y,1/2+z
1/2+x,1/2+y,z
1/2-x,1/2+y,1/2-z
1/2-x,1/2-y,-z
1/2+x,1/2-y,1/2+z
loop_
_atom_site_type_symbol
_atom_site_label
_atom_site_fract_x
_atom_site_fract_y
_atom_site_fract_z
Si Si1 0.644619 0.281249 0.464803
Si Si2 0.907817 0.735907 0.473894
Si Si3 0.334286 0.571097 0.015109
Si Si4 0.000000 0.148817 0.750000
Si Si5 0.989255 0.931611 0.499042
Si Si6 0.269029 0.312804 0.285012
Si Si7 0.808973 0.962330 0.144081
Si Si8 0.281790 0.141197 0.148869
O O1 0.604208 0.260209 0.217329
O O2 0.578030 0.310539 0.407519
O O3 0.694006 0.228067 0.652046
O O4 0.714979 0.327323 0.590223
O O5 0.848654 0.774546 0.434601
O O6 0.869086 0.671228 0.385579
O O7 0.000000 0.738628 0.750000
O O8 0.291801 0.632766 0.935349
O O9 0.299801 0.539812 0.792185
O O10 0.431653 0.582459 0.216987
O O11 0.321659 0.526336 0.113611
O O12 0.995159 0.106750 0.603041
O O13 0.893916 0.926551 0.315239
O O14 0.000000 0.000000 0.500000
O O15 0.241636 0.338800 0.067024
O O16 0.735790 0.926949 0.894384
#
# Coordination Sequence:
#
# PCOD9262390 Si02
#       8
#     8   8   8   4   8   8   8   8
#     4   9  18  33  51  69 101 135 168 204 256 304
#     4   9  17  29  52  76  95 119 171 218 253 293
#     4  10  21  31  52  74 101 135 171 211 249 299
#     4  12  22  34  50  70 104 148 166 198 258 300
#     4  10  23  31  46  69 106 134 173 196 240 294
#     4   8  17  32  49  75  98 128 167 211 252 298
#     4  10  19  33  50  73 102 136 172 205 251 302
#     4   8  15  31  49  70  96 131 164 210 251 297
#
# _framework density 17.03417
#
# number of rings (size 3 to 8) (size 9 to 14) (size 15 to 20)
#    0.000    2.667    1.333    2.000    9.333    0.000 
#    0.000    0.667    2.933    0.000    1.733    2.800 
#    0.000    0.000    0.000    0.000    0.000    0.000 
#
# Total GULP energy -167039.682710 kJ/mol
# GULP energy per Si atom -5567.989424 kJ/mol
# Density = 1.699540 g / cm^3
# Si number density = 17.034170 Si / 1000 Ang^3
#
#
#
# Elastic Constant Matrix: (Units=GPa)
#
#
# Indices 1 2 3 4 5 6 
#
# 1 45.3887 22.6658 13.5582 0.0000 11.1360 0.0000
# 2 22.6658 86.4802 39.4711 0.0000 11.4004 0.0000
# 3 13.5582 39.4711 77.9420 0.0000 15.7409 0.0000
# 4 0.0000 0.0000 0.0000 27.9519 0.0000 3.2710
# 5 11.1360 11.4004 15.7409 0.0000 17.6606 0.0000
# 6 0.0000 0.0000 0.0000 3.2710 0.0000 24.1483
#
#
#
# Elastic Compliance Matrix: (Units=1/GPa)
#
#
# Indices 1 2 3 4 5 6 
#
# 1 0.028364 -0.005964 0.001123 0.000000 -0.015036 0.000000
# 2 -0.005964 0.016480 -0.007219 0.000000 -0.000443 0.000000
# 3 0.001123 -0.007219 0.018893 0.000000 -0.012888 0.000000
# 4 0.000000 0.000000 0.000000 0.036352 0.000000 -0.004924
# 5 -0.015036 -0.000443 -0.012888 0.000000 0.077877 0.000000
# 6 0.000000 0.000000 0.000000 -0.004924 0.000000 0.042078
#
#
# Mechanical properties :
#
#
# Convention : Reuss Voigt Hill
#
# Bulk Modulus (GPa) = 25.24171 40.13345 32.68758
# Shear Modulus (GPa) = 19.42737 22.89321 21.16029
#
# Velocity S-wave (km/s) = 3.38078 3.66998 3.52835
# Velocity P-wave (km/s) = 5.48544 6.44748 5.98582
#
# Compressibility (1/GPa) = 0.03961697
#
# Stress axis : x y z
#
# Youngs Moduli (GPa) = 35.25599 60.68083 52.92957
#
# Poissons Ratio (x) = 0.36193 -0.05945
# Poissons Ratio (y) = 0.21028 0.38207
# Poissons Ratio (z) = -0.03960 0.43803
#
# Static dielectric constant tensor:
#      x y z
#    x 2.285510 0.000000 -0.404470 
#    y 0.000000 1.609110 0.000000 
#    z -0.404470 0.000000 1.834730 
# 
# From -- ./inp_files/67673.got.cif
#   From: 2010.05.17/outbox.cif.g08.bks.cpg/sg15_34_cif.got.tgz:67673.got - 2010.06.03 18:47:42.
