data_PCOD9262220
_publ_section_title
;
Structure prediction by ZEFSAII (Michael W. Deem and Ramdas Pophale) SiO2 
 PCOD9262220
Probable space group: C 2/C
;
_chemical_formula_sum "Si O2"
_cell_formula_units_Z 40
_cell_length_a 27.539060
_cell_length_b 11.521347
_cell_length_c 12.955550
_cell_angle_alpha 90.000000
_cell_angle_beta 34.901931
_cell_angle_gamma 90.000000
_cell_volume 2351.992727
_symmetry_space_group_name_H-M "C 2/C"
_symmetry_group_IT_number 15
_symmetry_cell_setting 'monoclinic'
loop_
_space_group_symop_operation_xyz
x,y,z
-x,y,1/2-z
-x,-y,-z
x,-y,1/2+z
1/2+x,1/2+y,z
1/2-x,1/2+y,1/2-z
1/2-x,1/2-y,-z
1/2+x,1/2-y,1/2+z
loop_
_atom_site_type_symbol
_atom_site_label
_atom_site_fract_x
_atom_site_fract_y
_atom_site_fract_z
Si Si1 0.638855 0.798821 0.633174
Si Si2 0.839393 0.515141 0.035837
Si Si3 0.536607 0.912305 0.521618
Si Si4 0.691292 0.860092 0.116961
Si Si5 0.747747 0.406658 0.893288
O O1 0.664268 0.669615 0.556921
O O2 0.679424 0.831891 0.673670
O O3 0.681439 0.889301 0.477827
O O4 0.539880 0.830702 0.808965
O O5 0.922204 0.489119 0.959775
O O6 0.771809 0.568858 0.233078
O O7 0.848888 0.598620 0.921450
O O8 0.615343 0.845729 0.331437
O O9 0.500000 0.000000 0.500000
O O10 0.747340 0.968395 0.060440
O O11 0.750000 0.750000 0.000000
#
# Coordination Sequence:
#
# PCOD9262220 Si02
#       5
#     8   8   8   8   8
#     4  10  19  34  55  81 112 142 187 239 275 337
#     4  10  19  32  56  81 109 147 186 235 284 325
#     4  11  19  35  54  87 109 142 197 238 270 334
#     4  10  22  37  54  84 117 146 189 238 282 344
#     4   9  20  34  53  84 111 145 184 226 289 340
#
# _framework density 17.006855000000002
#
# number of rings (size 3 to 8) (size 9 to 14) (size 15 to 20)
#    0.000    2.000    6.000    0.600    5.600    0.000 
#    0.000    1.000    0.000    0.000   10.400    0.000 
#    0.000    0.000    0.000    0.000    0.000    0.000 
#
# Total GULP energy -111416.379806 kJ/mol
# GULP energy per Si atom -5570.818990 kJ/mol
# Density = 1.696815 g / cm^3
# Si number density = 17.006855 Si / 1000 Ang^3
#
#
#
# Elastic Constant Matrix: (Units=GPa)
#
#
# Indices 1 2 3 4 5 6 
#
# 1 72.4367 11.3993 31.4550 0.0000 10.7306 0.0000
# 2 11.3993 85.6420 77.1496 0.0000 -7.0904 0.0000
# 3 31.4550 77.1496 127.7176 0.0000 0.2806 0.0000
# 4 0.0000 0.0000 0.0000 37.8325 0.0000 -6.2710
# 5 10.7306 -7.0904 0.2806 0.0000 30.7728 0.0000
# 6 0.0000 0.0000 0.0000 -6.2710 0.0000 17.3373
#
#
#
# Elastic Compliance Matrix: (Units=1/GPa)
#
#
# Indices 1 2 3 4 5 6 
#
# 1 0.016583 0.002260 -0.005438 0.000000 -0.005212 0.000000
# 2 0.002260 0.027099 -0.016938 0.000000 0.005610 0.000000
# 3 -0.005438 -0.016938 0.019406 0.000000 -0.002184 0.000000
# 4 0.000000 0.000000 0.000000 0.028118 0.000000 0.010170
# 5 -0.005212 0.005610 -0.002184 0.000000 0.035626 0.000000
# 6 0.000000 0.000000 0.000000 0.010170 0.000000 0.061358
#
#
# Mechanical properties :
#
#
# Convention : Reuss Voigt Hill
#
# Bulk Modulus (GPa) = 43.75442 58.42270 51.08856
# Shear Modulus (GPa) = 21.18278 28.24133 24.71205
#
# Velocity S-wave (km/s) = 3.53305 4.07945 3.81604
# Velocity P-wave (km/s) = 6.51358 7.52437 7.03715
#
# Compressibility (1/GPa) = 0.02285483
#
# Stress axis : x y z
#
# Youngs Moduli (GPa) = 60.30284 36.90187 51.53148
#
# Poissons Ratio (x) = -0.08339 0.28021
# Poissons Ratio (y) = -0.13626 0.87286
# Poissons Ratio (z) = 0.32791 0.62506
#
# Static dielectric constant tensor:
#      x y z
#    x 1.616650 0.000000 0.020900 
#    y 0.000000 1.560880 0.000000 
#    z 0.020900 0.000000 1.604280 
# 
# From -- ./inp_files/94489.got.cif
#   From: 2010.05.17/outbox.cif.g08.bks.cpg/sg15_48_cif.got.tgz:94489.got - 2010.06.03 18:47:42.
