data_PCOD9262474
_publ_section_title
;
Structure prediction by ZEFSAII (Michael W. Deem and Ramdas Pophale) SiO2 
 PCOD9262474
Probable space group: C 2/C
;
_chemical_formula_sum "Si O2"
_cell_formula_units_Z 48
_cell_length_a 5.501703
_cell_length_b 16.352446
_cell_length_c 26.473856
_cell_angle_alpha 90.000000
_cell_angle_beta 101.994430
_cell_angle_gamma 90.000000
_cell_volume 2329.755973
_symmetry_space_group_name_H-M "C 2/C"
_symmetry_group_IT_number 15
_symmetry_cell_setting 'monoclinic'
loop_
_space_group_symop_operation_xyz
x,y,z
-x,y,1/2-z
-x,-y,-z
x,-y,1/2+z
1/2+x,1/2+y,z
1/2-x,1/2+y,1/2-z
1/2-x,1/2-y,-z
1/2+x,1/2-y,1/2+z
loop_
_atom_site_type_symbol
_atom_site_label
_atom_site_fract_x
_atom_site_fract_y
_atom_site_fract_z
Si Si1 0.884208 0.220499 0.634208
Si Si2 0.753621 0.917577 0.503621
Si Si3 0.285428 0.828891 0.535427
Si Si4 0.344727 0.470523 0.094727
Si Si5 0.061417 0.309635 0.311418
Si Si6 0.632459 0.035122 0.882459
O O1 0.842522 0.291925 0.592522
O O2 0.669305 0.226601 0.666937
O O3 0.164570 0.226601 0.666937
O O4 0.857183 0.127765 0.607183
O O5 0.527831 0.873144 0.522693
O O6 0.784803 0.003471 0.534803
O O7 0.691141 0.925471 0.441141
O O8 0.017556 0.873144 0.522693
O O9 0.250000 0.750000 0.500000
O O10 0.611591 0.508337 0.118766
O O11 0.125940 0.508337 0.118766
O O12 0.000000 0.311033 0.250000
O O13 0.087057 0.399629 0.337058
#
# Coordination Sequence:
#
# PCOD9262474 Si02
#       6
#     8   8   8   8   8   8
#     4  10  21  37  55  83 113 137 179 233 268 317
#     4  12  22  35  56  81 114 153 179 206 269 341
#     4  12  23  36  52  80 117 149 177 217 271 326
#     4  10  20  35  54  78 110 146 179 217 263 322
#     4  10  19  34  56  81 105 139 183 233 277 307
#     4  10  19  33  52  81 114 138 180 228 263 313
#
# _framework density 20.603017000000001
#
# number of rings (size 3 to 8) (size 9 to 14) (size 15 to 20)
#    0.000    1.333    0.000    9.000    0.000    0.000 
#    0.000    0.000    0.000    0.000    0.000   93.333 
#    0.000    0.000    0.000    0.000    0.000    0.000 
#
# Total GULP energy -133901.427921 kJ/mol
# GULP energy per Si atom -5579.226163 kJ/mol
# Density = 2.055612 g / cm^3
# Si number density = 20.603017 Si / 1000 Ang^3
#
#
#
# Elastic Constant Matrix: (Units=GPa)
#
#
# Indices 1 2 3 4 5 6 
#
# 1 253.6147 55.0347 80.3844 0.0000 5.5061 0.0000
# 2 55.0347 52.2558 37.0489 0.0000 0.7834 0.0000
# 3 80.3844 37.0489 154.2437 0.0000 -1.1777 0.0000
# 4 0.0000 0.0000 0.0000 20.6666 0.0000 0.0441
# 5 5.5061 0.7834 -1.1777 0.0000 23.7058 0.0000
# 6 0.0000 0.0000 0.0000 0.0441 0.0000 21.6790
#
#
#
# Elastic Compliance Matrix: (Units=1/GPa)
#
#
# Indices 1 2 3 4 5 6 
#
# 1 0.005521 -0.004519 -0.001801 0.000000 -0.001223 0.000000
# 2 -0.004519 0.026789 -0.004080 0.000000 -0.000038 0.000000
# 3 -0.001801 -0.004080 0.008409 0.000000 0.000971 0.000000
# 4 0.000000 0.000000 0.000000 0.048387 0.000000 -0.000099
# 5 -0.001223 -0.000038 0.000971 0.000000 0.042517 0.000000
# 6 0.000000 0.000000 0.000000 -0.000099 0.000000 0.046128
#
#
# Mechanical properties :
#
#
# Convention : Reuss Voigt Hill
#
# Bulk Modulus (GPa) = 50.20261 89.45003 69.82632
# Shear Modulus (GPa) = 24.36734 32.38670 28.37702
#
# Velocity S-wave (km/s) = 3.44278 3.96907 3.71526
# Velocity P-wave (km/s) = 6.34218 8.03212 7.23665
#
# Compressibility (1/GPa) = 0.01991928
#
# Stress axis : x y z
#
# Youngs Moduli (GPa) = 181.12251 37.32807 118.91643
#
# Poissons Ratio (x) = 0.16870 0.21418
# Poissons Ratio (y) = 0.81857 0.48515
# Poissons Ratio (z) = 0.32622 0.15229
#
# Static dielectric constant tensor:
#      x y z
#    x 1.846120 0.000000 0.005920 
#    y 0.000000 1.773780 0.000000 
#    z 0.005920 0.000000 1.710330 
# 
# From -- ./inp_files/260771.got.cif
#   From: 2010.05.17/outbox.cif.g08.bks.cpg/sg15_131_cif.got.tgz:260771.got - 2010.06.03 18:47:42.
