data_PCOD9262342
_publ_section_title
;
Structure prediction by ZEFSAII (Michael W. Deem and Ramdas Pophale) SiO2 
 PCOD9262342
Probable space group: C 2/C
;
_chemical_formula_sum "Si O2"
_cell_formula_units_Z 40
_cell_length_a 10.931775
_cell_length_b 19.749229
_cell_length_c 8.396292
_cell_angle_alpha 90.000000
_cell_angle_beta 70.484590
_cell_angle_gamma 90.000000
_cell_volume 1708.572983
_symmetry_space_group_name_H-M "C 2/C"
_symmetry_group_IT_number 15
_symmetry_cell_setting 'monoclinic'
loop_
_space_group_symop_operation_xyz
x,y,z
-x,y,1/2-z
-x,-y,-z
x,-y,1/2+z
1/2+x,1/2+y,z
1/2-x,1/2+y,1/2-z
1/2-x,1/2-y,-z
1/2+x,1/2-y,1/2+z
loop_
_atom_site_type_symbol
_atom_site_label
_atom_site_fract_x
_atom_site_fract_y
_atom_site_fract_z
Si Si1 0.735666 0.607582 0.149147
Si Si2 0.837697 0.418607 0.060024
Si Si3 0.005970 0.698937 0.429569
Si Si4 0.500000 0.985570 0.250000
Si Si5 0.349491 0.490406 0.530254
Si Si6 0.500000 0.288977 0.750000
O O1 0.875522 0.643872 0.104166
O O2 0.712602 0.552476 0.298037
O O3 0.626644 0.664476 0.211944
O O4 0.705000 0.563014 0.005454
O O5 0.903596 0.437991 0.195631
O O6 0.689631 0.439873 0.098893
O O7 0.871744 0.342322 0.006119
O O8 0.920240 0.466727 0.903823
O O9 0.000000 0.726561 0.250000
O O10 0.016566 0.746974 0.578490
O O11 0.500000 0.500000 0.500000
#
# Coordination Sequence:
#
# PCOD9262342 Si02
#       6
#     8   8   8   4   8   4
#     4  12  26  51  73 115 151 198 267 323 403 469
#     4  11  20  38  65 106 139 184 250 304 389 448
#     4  12  26  49  78 111 155 209 265 324 381 470
#     4  10  19  32  62  98 141 174 222 322 374 438
#     4  12  23  44  76 105 155 193 246 333 396 468
#     4  12  29  52  74 110 159 212 266 314 386 480
#
# _framework density 23.411348
#
# number of rings (size 3 to 8) (size 9 to 14) (size 15 to 20)
#    0.000    0.400    5.000    4.800    0.000    2.400 
#    3.600    0.000    0.000    0.000    0.000    0.000 
#    0.000    0.000    0.000    0.000    0.000    0.000 
#
# Total GULP energy -111768.040047 kJ/mol
# GULP energy per Si atom -5588.402002 kJ/mol
# Density = 2.335806 g / cm^3
# Si number density = 23.411348 Si / 1000 Ang^3
#
#
#
# Elastic Constant Matrix: (Units=GPa)
#
#
# Indices 1 2 3 4 5 6 
#
# 1 167.1988 45.1451 57.7893 0.0000 17.1934 0.0000
# 2 45.1451 101.8730 73.9787 0.0000 5.1216 0.0000
# 3 57.7893 73.9787 162.1006 0.0000 30.0043 0.0000
# 4 0.0000 0.0000 0.0000 49.2957 0.0000 -9.2564
# 5 17.1934 5.1216 30.0043 0.0000 38.5403 0.0000
# 6 0.0000 0.0000 0.0000 -9.2564 0.0000 46.7376
#
#
#
# Elastic Compliance Matrix: (Units=1/GPa)
#
#
# Indices 1 2 3 4 5 6 
#
# 1 0.007196 -0.002235 -0.001176 0.000000 -0.001998 0.000000
# 2 -0.002235 0.015872 -0.007292 0.000000 0.004565 0.000000
# 3 -0.001176 -0.007292 0.011263 0.000000 -0.007275 0.000000
# 4 0.000000 0.000000 0.000000 0.021069 0.000000 0.004173
# 5 -0.001998 0.004565 -0.007275 0.000000 0.031895 0.000000
# 6 0.000000 0.000000 0.000000 0.004173 0.000000 0.022222
#
#
# Mechanical properties :
#
#
# Convention : Reuss Voigt Hill
#
# Bulk Modulus (GPa) = 77.36256 87.22204 82.29230
# Shear Modulus (GPa) = 36.97373 43.86533 40.41953
#
# Velocity S-wave (km/s) = 3.97836 4.33330 4.15962
# Velocity P-wave (km/s) = 7.36341 7.89771 7.63523
#
# Compressibility (1/GPa) = 0.01292615
#
# Stress axis : x y z
#
# Youngs Moduli (GPa) = 138.96364 63.00299 88.79011
#
# Poissons Ratio (x) = 0.14079 0.10440
# Poissons Ratio (y) = 0.31054 0.64745
# Poissons Ratio (z) = 0.16339 0.45941
#
# Static dielectric constant tensor:
#      x y z
#    x 1.947100 0.000000 0.024150 
#    y 0.000000 1.858430 0.000000 
#    z 0.024150 0.000000 2.041760 
# 
# From -- ./inp_files/29124.got.cif
#   From: 2010.05.17/outbox.cif.g08.bks.cpg/sg15_15_cif.got.tgz:29124.got - 2010.06.03 18:47:42.
