data_PCOD9262527
_publ_section_title
;
Structure prediction by ZEFSAII (Michael W. Deem and Ramdas Pophale) SiO2 
 PCOD9262527
Probable space group: C 2/C
;
_chemical_formula_sum "Si O2"
_cell_formula_units_Z 56
_cell_length_a 15.851965
_cell_length_b 23.080620
_cell_length_c 13.656992
_cell_angle_alpha 90.000000
_cell_angle_beta 145.258001
_cell_angle_gamma 90.000000
_cell_volume 2847.544928
_symmetry_space_group_name_H-M "C 2/C"
_symmetry_group_IT_number 15
_symmetry_cell_setting 'monoclinic'
loop_
_space_group_symop_operation_xyz
x,y,z
-x,y,1/2-z
-x,-y,-z
x,-y,1/2+z
1/2+x,1/2+y,z
1/2-x,1/2+y,1/2-z
1/2-x,1/2-y,-z
1/2+x,1/2-y,1/2+z
loop_
_atom_site_type_symbol
_atom_site_label
_atom_site_fract_x
_atom_site_fract_y
_atom_site_fract_z
Si Si1 0.350813 0.935587 0.303726
Si Si2 0.336479 0.249736 0.874414
Si Si3 0.587840 0.851807 0.432458
Si Si4 0.083305 0.680838 0.226208
Si Si5 0.401400 0.279699 0.493123
Si Si6 0.848772 0.890717 0.559239
Si Si7 0.487029 0.946641 0.854504
O O1 0.479121 0.890259 0.394168
O O2 0.364435 0.937775 0.435978
O O3 0.401285 0.999019 0.316696
O O4 0.212155 0.918909 0.100544
O O5 0.237707 0.286138 0.856196
O O6 0.433587 0.288048 0.891602
O O7 0.222653 0.209143 0.707428
O O8 0.463131 0.211668 0.043422
O O9 0.500000 0.837823 0.250000
O O10 0.621259 0.788465 0.506534
O O11 0.725155 0.889869 0.526092
O O12 0.000000 0.684226 0.250000
O O13 0.101372 0.613510 0.219698
O O14 0.372748 0.323059 0.553774
O O15 0.000000 0.914279 0.750000
O O16 0.500000 0.956510 0.750000
#
# Coordination Sequence:
#
# PCOD9262527 Si02
#       7
#     8   8   8   8   8   8   8
#     4  10  21  38  60  83 110 145 194 240 272 323
#     4  10  20  32  51  78 111 144 182 229 282 335
#     4  10  19  33  53  79 113 153 196 232 267 325
#     4  10  20  35  56  80 107 139 183 234 285 334
#     4  11  19  31  50  78 116 152 185 221 272 337
#     4  11  21  32  52  83 120 154 184 226 285 340
#     4  10  20  37  63  85 103 142 196 239 274 324
#
# _framework density 19.666063999999999
#
# number of rings (size 3 to 8) (size 9 to 14) (size 15 to 20)
#    0.000    1.714    0.000    7.714    0.000    0.000 
#    0.000    0.000    0.000   24.857    0.000    0.000 
#    0.000    0.000    0.000    0.000    0.000    0.000 
#
# Total GULP energy -156037.523303 kJ/mol
# GULP energy per Si atom -5572.768689 kJ/mol
# Density = 1.962130 g / cm^3
# Si number density = 19.666064 Si / 1000 Ang^3
#
#
#
# Elastic Constant Matrix: (Units=GPa)
#
#
# Indices 1 2 3 4 5 6 
#
# 1 67.5866 13.1447 36.7046 0.0000 -6.7876 0.0000
# 2 13.1447 74.5459 15.2421 0.0000 -3.0713 0.0000
# 3 36.7046 15.2421 123.4670 0.0000 -4.1036 0.0000
# 4 0.0000 0.0000 0.0000 14.6793 0.0000 -8.9116
# 5 -6.7876 -3.0713 -4.1036 0.0000 36.7406 0.0000
# 6 0.0000 0.0000 0.0000 -8.9116 0.0000 14.2500
#
#
#
# Elastic Compliance Matrix: (Units=1/GPa)
#
#
# Indices 1 2 3 4 5 6 
#
# 1 0.018217 -0.002067 -0.005073 0.000000 0.002626 0.000000
# 2 -0.002067 0.014031 -0.001095 0.000000 0.000669 0.000000
# 3 -0.005073 -0.001095 0.009745 0.000000 0.000060 0.000000
# 4 0.000000 0.000000 0.000000 0.109816 0.000000 0.068676
# 5 0.002626 0.000669 0.000060 0.000000 0.027766 0.000000
# 6 0.000000 0.000000 0.000000 0.068676 0.000000 0.113124
#
#
# Mechanical properties :
#
#
# Convention : Reuss Voigt Hill
#
# Bulk Modulus (GPa) = 39.18287 43.97581 41.57934
# Shear Modulus (GPa) = 15.73940 26.50118 21.12029
#
# Velocity S-wave (km/s) = 2.83208 3.67489 3.28067
# Velocity P-wave (km/s) = 5.53729 6.35738 5.96146
#
# Compressibility (1/GPa) = 0.02552136
#
# Stress axis : x y z
#
# Youngs Moduli (GPa) = 54.89515 71.27329 102.62017
#
# Poissons Ratio (x) = 0.14730 0.52060
# Poissons Ratio (y) = 0.11345 0.11242
# Poissons Ratio (z) = 0.27849 0.07808
#
# Static dielectric constant tensor:
#      x y z
#    x 1.792130 0.000000 -0.043460 
#    y 0.000000 1.700110 0.000000 
#    z -0.043460 0.000000 1.741900 
# 
# From -- ./inp_files/163832.got.cif
#   From: 2010.05.17/outbox.cif.g08.bks.cpg/sg15_82_cif.got.tgz:163832.got - 2010.06.03 18:47:42.
