data_PCOD9262047
_publ_section_title
;
Structure prediction by ZEFSAII (Michael W. Deem and Ramdas Pophale) SiO2 
 PCOD9262047
Probable space group: C 2/C
;
_chemical_formula_sum "Si O2"
_cell_formula_units_Z 56
_cell_length_a 16.910222
_cell_length_b 5.351628
_cell_length_c 22.222897
_cell_angle_alpha 90.000000
_cell_angle_beta 81.404647
_cell_angle_gamma 90.000000
_cell_volume 1988.522570
_symmetry_space_group_name_H-M "C 2/C"
_symmetry_group_IT_number 15
_symmetry_cell_setting 'monoclinic'
loop_
_space_group_symop_operation_xyz
x,y,z
-x,y,1/2-z
-x,-y,-z
x,-y,1/2+z
1/2+x,1/2+y,z
1/2-x,1/2+y,1/2-z
1/2-x,1/2-y,-z
1/2+x,1/2-y,1/2+z
loop_
_atom_site_type_symbol
_atom_site_label
_atom_site_fract_x
_atom_site_fract_y
_atom_site_fract_z
Si Si1 0.910944 0.796678 0.783970
Si Si2 0.905948 0.146845 0.635136
Si Si3 0.499560 0.296472 0.946727
Si Si4 0.780508 0.126100 0.902823
Si Si5 0.238361 0.372339 0.177084
Si Si6 0.569622 0.194156 0.148374
Si Si7 0.133678 0.419234 0.977192
O O1 0.827318 0.695597 0.763324
O O2 0.904013 0.577837 0.834860
O O3 0.000000 0.748633 0.750000
O O4 0.915928 0.088211 0.803177
O O5 0.831174 0.143749 0.687214
O O6 0.867669 0.206652 0.574472
O O7 0.976487 0.332050 0.644911
O O8 0.962946 0.908388 0.618082
O O9 0.565954 0.102807 0.960317
O O10 0.500000 0.500000 0.000000
O O11 0.409287 0.190457 0.959194
O O12 0.760130 0.366619 0.862315
O O13 0.871707 0.196527 0.910278
O O14 0.775847 0.877104 0.862591
O O15 0.718631 0.055350 0.962954
#
# Coordination Sequence:
#
# PCOD9262047 Si02
#       7
#     8   8   8   8   8   8   8
#     4  10  21  40  57  77 106 142 173 208 265 337
#     4  10  19  32  52  81 107 134 178 230 260 303
#     4   9  17  29  49  76 104 142 183 216 261 303
#     4   9  17  33  50  76 102 141 180 210 250 325
#     4   9  18  32  55  75 101 140 175 207 258 322
#     4  10  22  34  58  82 107 134 174 222 271 303
#     4   9  17  30  52  73 105 145 182 214 257 315
#
# _framework density 28.161615000000001
#
# number of rings (size 3 to 8) (size 9 to 14) (size 15 to 20)
#    0.000    2.571    1.429    0.429    2.000    0.000 
#    0.000    2.143    0.000    7.714    0.000    0.000 
#    0.000    0.000    0.000    0.000    0.000    0.000 
#
# Total GULP energy -156041.915509 kJ/mol
# GULP energy per Si atom -5572.925554 kJ/mol
# Density = 2.809752 g / cm^3
# Si number density = 28.161615 Si / 1000 Ang^3
#
#
#
# Elastic Constant Matrix: (Units=GPa)
#
#
# Indices 1 2 3 4 5 6 
#
# 1 147.7351 33.1672 56.8859 0.0000 -63.7309 0.0000
# 2 33.1672 186.4370 41.2683 0.0000 -3.1182 0.0000
# 3 56.8859 41.2683 63.3316 0.0000 -28.0637 0.0000
# 4 0.0000 0.0000 0.0000 42.5097 0.0000 3.3912
# 5 -63.7309 -3.1182 -28.0637 0.0000 64.3780 0.0000
# 6 0.0000 0.0000 0.0000 3.3912 0.0000 44.2934
#
#
#
# Elastic Compliance Matrix: (Units=1/GPa)
#
#
# Indices 1 2 3 4 5 6 
#
# 1 0.014767 -0.000700 -0.007864 0.000000 0.011156 0.000000
# 2 -0.000700 0.006480 -0.004663 0.000000 -0.002411 0.000000
# 3 -0.007864 -0.004663 0.027691 0.000000 0.004060 0.000000
# 4 0.000000 0.000000 0.000000 0.023669 0.000000 -0.001812
# 5 0.011156 -0.002411 0.004060 0.000000 0.028230 0.000000
# 6 0.000000 0.000000 0.000000 -0.001812 0.000000 0.022715
#
#
# Mechanical properties :
#
#
# Convention : Reuss Voigt Hill
#
# Bulk Modulus (GPa) = 44.47450 73.34962 58.91206
# Shear Modulus (GPa) = 31.74592 47.98169 39.86380
#
# Velocity S-wave (km/s) = 3.36114 4.13219 3.76644
# Velocity P-wave (km/s) = 5.55786 6.99064 6.31502
#
# Compressibility (1/GPa) = 0.02248479
#
# Stress axis : x y z
#
# Youngs Moduli (GPa) = 67.71944 154.32236 36.11254
#
# Poissons Ratio (x) = 0.10797 0.28400
# Poissons Ratio (y) = 0.04738 0.16838
# Poissons Ratio (z) = 0.53257 0.71953
#
# Static dielectric constant tensor:
#      x y z
#    x 2.592810 0.000000 -0.064990 
#    y 0.000000 2.258320 0.000000 
#    z -0.064990 0.000000 2.324170 
# 
# From -- ./inp_files/314830.got.cif
#   From: 2010.05.17/outbox.cif.g08.bks.cpg/sg15_158_cif.got.tgz:314830.got - 2010.06.03 18:47:42.
