data_PCOD9262867
_publ_section_title
;
Structure prediction by ZEFSAII (Michael W. Deem and Ramdas Pophale) SiO2 
 PCOD9262867
Probable space group: C 2/C
;
_chemical_formula_sum "Si O2"
_cell_formula_units_Z 52
_cell_length_a 12.084340
_cell_length_b 29.693885
_cell_length_c 18.636139
_cell_angle_alpha 90.000000
_cell_angle_beta 24.946126
_cell_angle_gamma 90.000000
_cell_volume 2820.443187
_symmetry_space_group_name_H-M "C 2/C"
_symmetry_group_IT_number 15
_symmetry_cell_setting 'monoclinic'
loop_
_space_group_symop_operation_xyz
x,y,z
-x,y,1/2-z
-x,-y,-z
x,-y,1/2+z
1/2+x,1/2+y,z
1/2-x,1/2+y,1/2-z
1/2-x,1/2-y,-z
1/2+x,1/2-y,1/2+z
loop_
_atom_site_type_symbol
_atom_site_label
_atom_site_fract_x
_atom_site_fract_y
_atom_site_fract_z
Si Si1 0.798959 0.596167 0.044747
Si Si2 0.696228 0.998178 0.452820
Si Si3 0.000000 0.746507 0.750000
Si Si4 0.938824 0.319864 0.865762
Si Si5 0.078246 0.226042 0.786986
Si Si6 0.310269 0.100883 0.548646
Si Si7 0.949638 0.309260 0.418606
O O1 0.500000 0.598904 0.250000
O O2 0.838980 0.546313 0.987531
O O3 0.853496 0.639889 0.964623
O O4 0.005087 0.599414 0.989620
O O5 0.657919 0.948431 0.507561
O O6 0.000000 0.998225 0.250000
O O7 0.500000 0.000000 0.500000
O O8 0.060699 0.714024 0.781526
O O9 0.223205 0.778965 0.587217
O O10 0.000000 0.336104 0.750000
O O11 0.131836 0.278534 0.774065
O O12 0.661845 0.293496 0.026567
O O13 0.910060 0.359488 0.938921
O O14 0.319367 0.194000 0.659550
O O15 0.000000 0.224877 0.750000
O O16 0.000000 0.106916 0.750000
#
# Coordination Sequence:
#
# PCOD9262867 Si02
#       7
#     8   8   4   8   8   8   8
#     4  10  19  33  57  82 104 140 182 225 266 317
#     4   8  16  30  51  82 103 130 177 227 262 310
#     4  10  26  36  52  76 106 150 184 216 258 318
#     4  10  21  33  50  85 108 140 174 218 276 321
#     4  10  22  36  55  79 107 143 182 223 268 319
#     4  10  19  34  57  81 109 138 179 226 271 319
#     4  11  22  40  54  76 111 143 184 220 266 323
#
# _framework density 18.436817999999999
#
# number of rings (size 3 to 8) (size 9 to 14) (size 15 to 20)
#    0.000    2.154    0.769    2.308    8.615    0.615 
#    0.000    0.000    1.692    0.000    0.000    7.538 
#    0.000    0.000    0.000    0.000    0.000    0.000 
#
# Total GULP energy -144813.027940 kJ/mol
# GULP energy per Si atom -5569.731844 kJ/mol
# Density = 1.839486 g / cm^3
# Si number density = 18.436818 Si / 1000 Ang^3
#
#
#
# Elastic Constant Matrix: (Units=GPa)
#
#
# Indices 1 2 3 4 5 6 
#
# 1 47.7253 14.4119 26.5627 0.1748 -2.9754 -0.0718
# 2 14.4119 155.1595 15.5260 0.0705 17.6921 -0.0243
# 3 26.5627 15.5260 48.8695 0.2790 0.6078 -0.2353
# 4 0.1748 0.0705 0.2790 42.2576 -0.1656 -16.3018
# 5 -2.9754 17.6921 0.6078 -0.1656 33.0569 0.1089
# 6 -0.0718 -0.0243 -0.2353 -16.3018 0.1089 17.1869
#
#
#
# Elastic Compliance Matrix: (Units=1/GPa)
#
#
# Indices 1 2 3 4 5 6 
#
# 1 0.030738 -0.001684 -0.016222 -0.000076 0.003967 -0.000194
# 2 -0.001684 0.007186 -0.001318 -0.000013 -0.003974 -0.000002
# 3 -0.016222 -0.001318 0.029717 0.000002 -0.001302 0.000347
# 4 -0.000076 -0.000013 0.000002 0.037320 0.000070 0.035398
# 5 0.003967 -0.003974 -0.001302 0.000070 0.032759 -0.000148
# 6 -0.000194 -0.000002 0.000347 0.035398 -0.000148 0.091764
#
#
# Mechanical properties :
#
#
# Convention : Reuss Voigt Hill
#
# Bulk Modulus (GPa) = 34.25590 40.52835 37.39213
# Shear Modulus (GPa) = 18.00736 31.51721 24.76228
#
# Velocity S-wave (km/s) = 3.12862 4.13906 3.66879
# Velocity P-wave (km/s) = 5.62775 6.69869 6.18644
#
# Compressibility (1/GPa) = 0.02919205
#
# Stress axis : x y z
#
# Youngs Moduli (GPa) = 32.53308 139.15150 33.65097
#
# Poissons Ratio (x) = 0.23434 0.54589
# Poissons Ratio (y) = 0.05479 0.04436
# Poissons Ratio (z) = 0.52776 0.18344
#
# Static dielectric constant tensor:
#      x y z
#    x 1.647140 0.000000 -0.035210 
#    y 0.000000 1.716900 0.000020 
#    z -0.035210 0.000020 1.647150 
# 
# From -- ./inp_files/201353.got.cif
#   From: 2010.05.17/outbox.cif.g08.bks.cpg/sg15_101_cif.got.tgz:201353.got - 2010.06.03 18:47:42.
