data_PCOD9262735
_publ_section_title
;
Structure prediction by ZEFSAII (Michael W. Deem and Ramdas Pophale) SiO2 
 PCOD9262735
Probable space group: C 2/C
;
_chemical_formula_sum "Si O2"
_cell_formula_units_Z 52
_cell_length_a 18.950767
_cell_length_b 8.409559
_cell_length_c 15.905183
_cell_angle_alpha 90.000000
_cell_angle_beta 118.591689
_cell_angle_gamma 90.000000
_cell_volume 2225.661533
_symmetry_space_group_name_H-M "C 2/C"
_symmetry_group_IT_number 15
_symmetry_cell_setting 'monoclinic'
loop_
_space_group_symop_operation_xyz
x,y,z
-x,y,1/2-z
-x,-y,-z
x,-y,1/2+z
1/2+x,1/2+y,z
1/2-x,1/2+y,1/2-z
1/2-x,1/2-y,-z
1/2+x,1/2-y,1/2+z
loop_
_atom_site_type_symbol
_atom_site_label
_atom_site_fract_x
_atom_site_fract_y
_atom_site_fract_z
Si Si1 0.306566 0.179245 0.890475
Si Si2 0.500000 0.696844 0.750000
Si Si3 0.463338 0.325422 0.972538
Si Si4 0.280018 0.192416 0.672472
Si Si5 0.070226 0.119580 0.233405
Si Si6 0.878149 0.651552 0.395419
Si Si7 0.152734 0.639961 0.323851
O O1 0.374843 0.302927 0.959650
O O2 0.287570 0.181338 0.778725
O O3 0.222372 0.232061 0.881500
O O4 0.348388 0.008955 0.923554
O O5 0.452489 0.568272 0.781421
O O6 0.429134 0.809153 0.677095
O O7 0.443597 0.302895 0.863665
O O8 0.500000 0.500000 0.000000
O O9 0.530941 0.201561 0.037612
O O10 0.340224 0.338908 0.685673
O O11 0.185876 0.220251 0.605946
O O12 0.313009 0.036972 0.644715
O O13 0.000000 0.191027 0.250000
O O14 0.866506 0.638486 0.287931
#
# Coordination Sequence:
#
# PCOD9262735 Si02
#       7
#     8   4   8   8   8   8   8
#     4   9  19  34  54  83 114 137 180 232 276 317
#     4  10  20  32  54  74 112 142 186 212 274 324
#     4  11  20  34  58  84 110 141 185 230 272 319
#     4   9  18  34  57  82 107 143 187 224 267 326
#     4   9  21  37  54  78 112 148 179 218 276 330
#     4  10  19  33  58  83 108 137 185 235 275 310
#     4  10  19  33  55  84 107 144 184 228 269 326
#
# _framework density 23.36384
#
# number of rings (size 3 to 8) (size 9 to 14) (size 15 to 20)
#    0.462    1.846    0.000    3.231    1.077    4.923 
#    0.000    0.769    0.000    4.615    0.000    0.000 
#    0.000    0.000    0.000    0.000    0.000    0.000 
#
# Total GULP energy -144974.756339 kJ/mol
# GULP energy per Si atom -5575.952167 kJ/mol
# Density = 2.331066 g / cm^3
# Si number density = 23.363840 Si / 1000 Ang^3
#
#
#
# Elastic Constant Matrix: (Units=GPa)
#
#
# Indices 1 2 3 4 5 6 
#
# 1 99.0687 21.1491 14.1890 0.0000 39.3802 0.0000
# 2 21.1491 90.0646 2.7922 0.0000 20.8267 0.0000
# 3 14.1890 2.7922 36.1498 0.0000 18.2721 0.0000
# 4 0.0000 0.0000 0.0000 16.2489 0.0000 13.0444
# 5 39.3802 20.8267 18.2721 0.0000 40.6337 0.0000
# 6 0.0000 0.0000 0.0000 13.0444 0.0000 36.5490
#
#
#
# Elastic Compliance Matrix: (Units=1/GPa)
#
#
# Indices 1 2 3 4 5 6 
#
# 1 0.016540 -0.000029 0.002077 0.000000 -0.016949 0.000000
# 2 -0.000029 0.012846 0.003019 0.000000 -0.007914 0.000000
# 3 0.002077 0.003019 0.036772 0.000000 -0.020096 0.000000
# 4 0.000000 0.000000 0.000000 0.086257 0.000000 -0.030785
# 5 -0.016949 -0.007914 -0.020096 0.000000 0.054129 0.000000
# 6 0.000000 0.000000 0.000000 -0.030785 0.000000 0.038348
#
#
# Mechanical properties :
#
#
# Convention : Reuss Voigt Hill
#
# Bulk Modulus (GPa) = 13.10739 33.50488 23.30613
# Shear Modulus (GPa) = 19.21687 31.16316 25.19002
#
# Velocity S-wave (km/s) = 2.87105 3.65611 3.28710
# Velocity P-wave (km/s) = 4.07588 5.67402 4.94001
#
# Compressibility (1/GPa) = 0.07629286
#
# Stress axis : x y z
#
# Youngs Moduli (GPa) = 60.45970 77.84286 27.19473
#
# Poissons Ratio (x) = 0.00226 -0.05649
# Poissons Ratio (y) = 0.00176 -0.08211
# Poissons Ratio (z) = -0.12558 -0.23503
#
# Static dielectric constant tensor:
#      x y z
#    x 1.935000 0.000000 -0.048070 
#    y 0.000000 1.931180 0.000000 
#    z -0.048070 0.000000 1.906650 
# 
# From -- ./inp_files/209692.got.cif
#   From: 2010.05.17/outbox.cif.g08.bks.cpg/sg15_105_cif.got.tgz:209692.got - 2010.06.03 18:47:42.
