data_PCOD9262398
_publ_section_title
;
Structure prediction by ZEFSAII (Michael W. Deem and Ramdas Pophale) SiO2 
 PCOD9262398
Probable space group: C 2/C
;
_chemical_formula_sum "Si O2"
_cell_formula_units_Z 64
_cell_length_a 5.592096
_cell_length_b 22.845373
_cell_length_c 28.226748
_cell_angle_alpha 90.000000
_cell_angle_beta 102.768845
_cell_angle_gamma 90.000000
_cell_volume 3516.887206
_symmetry_space_group_name_H-M "C 2/C"
_symmetry_group_IT_number 15
_symmetry_cell_setting 'monoclinic'
loop_
_space_group_symop_operation_xyz
x,y,z
-x,y,1/2-z
-x,-y,-z
x,-y,1/2+z
1/2+x,1/2+y,z
1/2-x,1/2+y,1/2-z
1/2-x,1/2-y,-z
1/2+x,1/2-y,1/2+z
loop_
_atom_site_type_symbol
_atom_site_label
_atom_site_fract_x
_atom_site_fract_y
_atom_site_fract_z
Si Si1 0.255969 0.692499 0.559353
Si Si2 0.412328 0.388573 0.367636
Si Si3 0.221428 0.171345 0.047089
Si Si4 0.218649 0.473208 0.224230
Si Si5 0.744571 0.991125 0.119885
Si Si6 0.254070 0.104803 0.441268
Si Si7 0.108395 0.595821 0.949148
Si Si8 0.757098 0.158056 0.760471
O O1 0.387493 0.659194 0.607706
O O2 0.258829 0.761666 0.564408
O O3 0.360210 0.675629 0.511964
O O4 0.992118 0.661544 0.546616
O O5 0.515856 0.452232 0.360281
O O6 0.264822 0.398763 0.408963
O O7 0.292149 0.363349 0.315624
O O8 0.485215 0.137576 0.058905
O O9 0.994611 0.143181 0.065680
O O10 0.500000 0.491961 0.250000
O O11 0.138306 0.492959 0.168213
O O12 0.227999 0.401764 0.228017
O O13 0.000000 0.491332 0.250000
O O14 0.595535 0.951476 0.075460
O O15 0.780702 0.053662 0.098245
O O16 0.279708 0.078007 0.495639
O O17 0.500000 0.191564 0.750000
O O18 0.000000 0.187622 0.750000
#
# Coordination Sequence:
#
# PCOD9262398 Si02
#       8
#     8   8   8   8   8   8   8   8
#     4   9  21  36  60  82 111 154 196 247 280 327
#     4  11  20  34  58  85 118 150 191 231 299 352
#     4  10  22  41  57  81 114 154 206 238 271 326
#     4  10  19  34  53  77 109 142 184 233 278 335
#     4  11  23  35  54  85 122 153 185 231 292 360
#     4  11  24  38  56  82 120 161 193 232 277 338
#     4  10  21  35  54  85 118 156 188 230 290 351
#     4  10  19  33  50  77 114 138 179 233 282 342
#
# _framework density 18.197911000000001
#
# number of rings (size 3 to 8) (size 9 to 14) (size 15 to 20)
#    0.000    1.750    3.750    1.875    5.250    2.000 
#    0.000    0.000    0.000    0.000    0.000    3.500 
#    0.000    0.000    0.000    0.000    0.000    0.000 
#
# Total GULP energy -178158.222184 kJ/mol
# GULP energy per Si atom -5567.444443 kJ/mol
# Density = 1.815649 g / cm^3
# Si number density = 18.197911 Si / 1000 Ang^3
#
#
#
# Elastic Constant Matrix: (Units=GPa)
#
#
# Indices 1 2 3 4 5 6 
#
# 1 109.7345 29.1517 19.3081 0.0000 -9.7742 0.0000
# 2 29.1517 74.8411 30.4295 0.0000 -5.3039 0.0000
# 3 19.3081 30.4295 72.7926 0.0000 -10.5171 0.0000
# 4 0.0000 0.0000 0.0000 -14.8559 0.0000 6.0499
# 5 -9.7742 -5.3039 -10.5171 0.0000 29.1103 0.0000
# 6 0.0000 0.0000 0.0000 6.0499 0.0000 -3.1186
#
#
#
# Elastic Compliance Matrix: (Units=1/GPa)
#
#
# Indices 1 2 3 4 5 6 
#
# 1 0.010434 -0.003504 -0.000938 0.000000 0.002526 0.000000
# 2 -0.003504 0.017282 -0.006341 0.000000 -0.000319 0.000000
# 3 -0.000938 -0.006341 0.017329 0.000000 0.004791 0.000000
# 4 0.000000 0.000000 0.000000 -0.320536 0.000000 -0.621808
# 5 0.002526 -0.000319 0.004791 0.000000 0.036873 0.000000
# 6 0.000000 0.000000 0.000000 -0.621808 0.000000 -1.526898
#
#
# Mechanical properties :
#
#
# Convention : Reuss Voigt Hill
#
# Bulk Modulus (GPa) = 42.59005 46.12744 44.35874
# Shear Modulus (GPa) = -2.87998 14.12573 5.62288
#
# Velocity S-wave (km/s) = -1.25937 2.78911 1.75970
# Velocity P-wave (km/s) = 4.61952 5.98121 5.34391
#
# Compressibility (1/GPa) = 0.02347966
#
# Stress axis : x y z
#
# Youngs Moduli (GPa) = 95.84307 57.86351 57.70558
#
# Poissons Ratio (x) = 0.20274 0.05412
# Poissons Ratio (y) = 0.33581 0.36592
# Poissons Ratio (z) = 0.08989 0.36692
#
# Static dielectric constant tensor:
#      x y z
#    x 1.757720 0.000000 -0.004570 
#    y 0.000000 1.587140 0.000000 
#    z -0.004570 0.000000 1.706220 
# 
# From -- ./inp_files/261730.got.cif
#   From: 2010.05.17/outbox.cif.g08.bks.cpg/sg15_131_cif.got.tgz:261730.got - 2010.06.03 18:47:42.
