data_PCOD9262378
_publ_section_title
;
Structure prediction by ZEFSAII (Michael W. Deem and Ramdas Pophale) SiO2 
 PCOD9262378
Probable space group: C 2/C
;
_chemical_formula_sum "Si O2"
_cell_formula_units_Z 64
_cell_length_a 7.129876
_cell_length_b 23.805618
_cell_length_c 15.443253
_cell_angle_alpha 90.000000
_cell_angle_beta 73.397153
_cell_angle_gamma 90.000000
_cell_volume 2511.918291
_symmetry_space_group_name_H-M "C 2/C"
_symmetry_group_IT_number 15
_symmetry_cell_setting 'monoclinic'
loop_
_space_group_symop_operation_xyz
x,y,z
-x,y,1/2-z
-x,-y,-z
x,-y,1/2+z
1/2+x,1/2+y,z
1/2-x,1/2+y,1/2-z
1/2-x,1/2-y,-z
1/2+x,1/2-y,1/2+z
loop_
_atom_site_type_symbol
_atom_site_label
_atom_site_fract_x
_atom_site_fract_y
_atom_site_fract_z
Si Si1 0.241521 0.457081 0.542716
Si Si2 0.759681 0.733938 0.365264
Si Si3 0.292221 0.763614 0.677227
Si Si4 0.713303 0.863304 0.173986
Si Si5 0.283308 0.158493 0.032291
Si Si6 0.250215 0.337496 0.476317
Si Si7 0.264544 0.043963 0.102016
Si Si8 0.760592 0.513041 0.780787
O O1 0.319616 0.400351 0.487324
O O2 0.290620 0.509433 0.475785
O O3 0.297076 0.471183 0.633873
O O4 0.003167 0.454272 0.573849
O O5 0.683415 0.719735 0.280362
O O6 0.661874 0.701379 0.458423
O O7 0.767864 0.800079 0.387691
O O8 0.985874 0.715375 0.340196
O O9 0.303173 0.696658 0.684398
O O10 0.223190 0.784704 0.592098
O O11 0.500000 0.861903 0.250000
O O12 0.801979 0.922715 0.192497
O O13 0.729433 0.858281 0.067092
O O14 0.517379 0.157961 0.011633
O O15 0.196782 0.107653 0.100505
O O16 0.203109 0.010734 0.195374
O O17 0.000000 0.514919 0.750000
#
# Coordination Sequence:
#
# PCOD9262378 Si02
#       8
#     8   8   8   8   8   8   8   8
#     4   9  16  27  45  72  98 125 156 196 246 293
#     4   9  19  35  47  74  95 130 167 204 238 288
#     4  10  21  33  51  68 100 130 167 202 243 282
#     4  11  21  33  51  75  99 128 164 201 243 298
#     4  10  19  33  49  75 102 128 161 199 249 294
#     4   9  18  30  54  71 101 126 159 203 245 290
#     4   9  17  27  44  70 103 127 152 195 247 295
#     4   9  18  28  44  72 102 127 155 196 247 297
#
# _framework density 25.478538
#
# number of rings (size 3 to 8) (size 9 to 14) (size 15 to 20)
#    0.000    2.500    1.250    1.125    8.750    0.000 
#    0.000    0.000    0.000    0.750    0.000    0.000 
#    0.000    0.000    0.000    0.000    0.000    0.000 
#
# Total GULP energy -178599.277424 kJ/mol
# GULP energy per Si atom -5581.227419 kJ/mol
# Density = 2.542055 g / cm^3
# Si number density = 25.478538 Si / 1000 Ang^3
#
#
#
# Elastic Constant Matrix: (Units=GPa)
#
#
# Indices 1 2 3 4 5 6 
#
# 1 54.5168 -7.5809 20.0573 0.0000 -14.2008 0.0000
# 2 -7.5809 90.1777 61.2592 0.0000 -5.8227 0.0000
# 3 20.0573 61.2592 191.3816 0.0000 25.1949 0.0000
# 4 0.0000 0.0000 0.0000 37.2189 0.0000 -8.0801
# 5 -14.2008 -5.8227 25.1949 0.0000 38.2549 0.0000
# 6 0.0000 0.0000 0.0000 -8.0801 0.0000 14.4808
#
#
#
# Elastic Compliance Matrix: (Units=1/GPa)
#
#
# Indices 1 2 3 4 5 6 
#
# 1 0.026516 0.008436 -0.007603 0.000000 0.016135 0.000000
# 2 0.008436 0.018057 -0.008144 0.000000 0.011244 0.000000
# 3 -0.007603 -0.008144 0.010034 0.000000 -0.010670 0.000000
# 4 0.000000 0.000000 0.000000 0.030571 0.000000 0.017058
# 5 0.016135 0.011244 -0.010670 0.000000 0.040869 0.000000
# 6 0.000000 0.000000 0.000000 0.017058 0.000000 0.078575
#
#
# Mechanical properties :
#
#
# Convention : Reuss Voigt Hill
#
# Bulk Modulus (GPa) = 25.01010 53.72745 39.36878
# Shear Modulus (GPa) = 21.49860 35.48031 28.48945
#
# Velocity S-wave (km/s) = 2.90796 3.73575 3.34754
# Velocity P-wave (km/s) = 4.59483 6.30403 5.51604
#
# Compressibility (1/GPa) = 0.03998385
#
# Stress axis : x y z
#
# Youngs Moduli (GPa) = 37.71261 55.38057 99.66521
#
# Poissons Ratio (x) = -0.46720 0.75779
# Poissons Ratio (y) = -0.31815 0.81169
# Poissons Ratio (z) = 0.28674 0.45103
#
# Static dielectric constant tensor:
#      x y z
#    x 2.102710 0.000000 -0.046760 
#    y 0.000000 1.980050 0.000000 
#    z -0.046760 0.000000 2.146690 
# 
# From -- ./inp_files/147862.got.cif
#   From: 2010.05.17/outbox.cif.g08.bks.cpg/sg15_74_cif.got.tgz:147862.got - 2010.06.03 18:47:42.
