data_PCOD9262425
_publ_section_title
;
Structure prediction by ZEFSAII (Michael W. Deem and Ramdas Pophale) SiO2 
 PCOD9262425
Probable space group: C 2/C
;
_chemical_formula_sum "Si O2"
_cell_formula_units_Z 56
_cell_length_a 12.141309
_cell_length_b 8.897880
_cell_length_c 24.060173
_cell_angle_alpha 90.000000
_cell_angle_beta 72.418334
_cell_angle_gamma 90.000000
_cell_volume 2477.847895
_symmetry_space_group_name_H-M "C 2/C"
_symmetry_group_IT_number 15
_symmetry_cell_setting 'monoclinic'
loop_
_space_group_symop_operation_xyz
x,y,z
-x,y,1/2-z
-x,-y,-z
x,-y,1/2+z
1/2+x,1/2+y,z
1/2-x,1/2+y,1/2-z
1/2-x,1/2-y,-z
1/2+x,1/2-y,1/2+z
loop_
_atom_site_type_symbol
_atom_site_label
_atom_site_fract_x
_atom_site_fract_y
_atom_site_fract_z
Si Si1 0.224104 0.840787 0.784147
Si Si2 0.732132 0.655483 0.155888
Si Si3 0.163226 0.371090 0.387519
Si Si4 0.196505 0.487534 0.125533
Si Si5 0.499049 0.548484 0.810900
Si Si6 0.104095 0.747539 0.087317
Si Si7 0.084325 0.132083 0.468402
O O1 0.263648 0.814983 0.715508
O O2 0.190993 0.686873 0.820935
O O3 0.109491 0.942825 0.799014
O O4 0.306908 0.932345 0.813322
O O5 0.829685 0.550376 0.113022
O O6 0.701657 0.811067 0.131485
O O7 0.614941 0.556121 0.172075
O O8 0.275024 0.314742 0.406302
O O9 0.060860 0.267733 0.427953
O O10 0.100400 0.572235 0.103819
O O11 0.313559 0.539396 0.076968
O O12 0.500000 0.626033 0.750000
O O13 0.490941 0.660672 0.863709
O O14 0.106864 0.781556 0.022431
O O15 0.000000 0.000000 0.500000
#
# Coordination Sequence:
#
# PCOD9262425 Si02
#       7
#     8   8   8   8   8   8   8
#     4   9  17  33  54  76 104 142 177 210 256 318
#     4  10  19  33  51  79 111 136 169 219 270 318
#     4   9  18  31  52  76 102 139 176 213 264 320
#     4  10  20  33  54  79 101 137 179 217 263 315
#     4   9  18  33  53  75 104 137 170 211 266 317
#     4   9  17  34  53  73 101 138 178 214 254 319
#     4  10  19  35  55  74 100 139 184 224 263 317
#
# _framework density 22.600256999999999
#
# number of rings (size 3 to 8) (size 9 to 14) (size 15 to 20)
#    0.000    2.857    0.000    4.286    0.000    1.143 
#    0.000   12.143    0.000    0.000    0.000    1.000 
#    0.000    0.000    0.000    0.000    0.000    0.000 
#
# Total GULP energy -156207.726833 kJ/mol
# GULP energy per Si atom -5578.847387 kJ/mol
# Density = 2.254882 g / cm^3
# Si number density = 22.600257 Si / 1000 Ang^3
#
#
#
# Elastic Constant Matrix: (Units=GPa)
#
#
# Indices 1 2 3 4 5 6 
#
# 1 33.0370 8.5520 11.5869 0.0000 1.1895 0.0000
# 2 8.5520 174.3890 70.4726 0.0000 3.3419 0.0000
# 3 11.5869 70.4726 122.7249 0.0000 6.5225 0.0000
# 4 0.0000 0.0000 0.0000 6.9047 0.0000 0.9427
# 5 1.1895 3.3419 6.5225 0.0000 19.0888 0.0000
# 6 0.0000 0.0000 0.0000 0.9427 0.0000 18.9590
#
#
#
# Elastic Compliance Matrix: (Units=1/GPa)
#
#
# Indices 1 2 3 4 5 6 
#
# 1 0.031350 -0.000447 -0.002651 0.000000 -0.000969 0.000000
# 2 -0.000447 0.007474 -0.004259 0.000000 0.000175 0.000000
# 3 -0.002651 -0.004259 0.010995 0.000000 -0.002846 0.000000
# 4 0.000000 0.000000 0.000000 0.145818 0.000000 -0.007250
# 5 -0.000969 0.000175 -0.002846 0.000000 0.053389 0.000000
# 6 0.000000 0.000000 0.000000 -0.007250 0.000000 0.053106
#
#
# Mechanical properties :
#
#
# Convention : Reuss Voigt Hill
#
# Bulk Modulus (GPa) = 28.48686 56.81931 42.65308
# Shear Modulus (GPa) = 15.21844 24.95982 20.08913
#
# Velocity S-wave (km/s) = 2.59776 3.32686 2.98466
# Velocity P-wave (km/s) = 4.65079 6.32083 5.54900
#
# Compressibility (1/GPa) = 0.03510390
#
# Stress axis : x y z
#
# Youngs Moduli (GPa) = 31.89824 133.79837 90.94661
#
# Poissons Ratio (x) = 0.05985 0.24114
# Poissons Ratio (y) = 0.01427 0.38733
# Poissons Ratio (z) = 0.08458 0.56982
#
# Static dielectric constant tensor:
#      x y z
#    x 1.940530 0.000000 -0.025950 
#    y 0.000000 1.883360 0.000000 
#    z -0.025950 0.000000 1.838650 
# 
# From -- ./inp_files/272675.got.cif
#   From: 2010.05.17/outbox.cif.g08.bks.cpg/sg15_137_cif.got.tgz:272675.got - 2010.06.03 18:47:42.
