data_PCOD9262430
_publ_section_title
;
Structure prediction by ZEFSAII (Michael W. Deem and Ramdas Pophale) SiO2 
 PCOD9262430
Probable space group: C 2/C
;
_chemical_formula_sum "Si O2"
_cell_formula_units_Z 48
_cell_length_a 15.431739
_cell_length_b 14.730860
_cell_length_c 10.111383
_cell_angle_alpha 90.000000
_cell_angle_beta 52.496024
_cell_angle_gamma 90.000000
_cell_volume 1823.463439
_symmetry_space_group_name_H-M "C 2/C"
_symmetry_group_IT_number 15
_symmetry_cell_setting 'monoclinic'
loop_
_space_group_symop_operation_xyz
x,y,z
-x,y,1/2-z
-x,-y,-z
x,-y,1/2+z
1/2+x,1/2+y,z
1/2-x,1/2+y,1/2-z
1/2-x,1/2-y,-z
1/2+x,1/2-y,1/2+z
loop_
_atom_site_type_symbol
_atom_site_label
_atom_site_fract_x
_atom_site_fract_y
_atom_site_fract_z
Si Si1 0.773995 0.856491 0.454447
Si Si2 0.065645 0.841072 0.987083
Si Si3 0.269879 0.131641 0.103368
Si Si4 0.106850 0.464716 0.790819
Si Si5 0.398982 0.870133 0.075513
Si Si6 0.396227 0.676202 0.448475
O O1 0.750000 0.750000 0.500000
O O2 0.893508 0.869407 0.404950
O O3 0.690234 0.917215 0.616158
O O4 0.727427 0.870869 0.351712
O O5 0.169812 0.863008 0.800063
O O6 0.060685 0.732232 0.974037
O O7 0.953268 0.870749 0.022828
O O8 0.346954 0.059159 0.103652
O O9 0.199417 0.119587 0.035110
O O10 0.338528 0.226089 0.030555
O O11 0.096105 0.573195 0.793717
O O12 0.988420 0.420220 0.901688
O O13 0.500000 0.688453 0.250000
#
# Coordination Sequence:
#
# PCOD9262430 Si02
#       6
#     8   8   8   8   8   8
#     4   9  19  35  54  76 108 151 190 221 264 340
#     4   9  17  32  53  75 106 139 188 228 268 326
#     4   9  17  30  48  76 105 140 181 221 270 331
#     4  10  19  33  52  81 113 141 172 229 290 335
#     4  10  19  33  51  82 114 138 174 229 290 338
#     4   9  16  29  48  75 102 135 182 223 268 317
#
# _framework density 26.323532
#
# number of rings (size 3 to 8) (size 9 to 14) (size 15 to 20)
#    0.000    2.667    1.667    0.500    0.000    0.000 
#    9.000    0.000    0.000    1.000   13.000    0.000 
#    0.000    0.000    0.000    0.000    0.000    0.000 
#
# Total GULP energy -133906.374718 kJ/mol
# GULP energy per Si atom -5579.432280 kJ/mol
# Density = 2.626362 g / cm^3
# Si number density = 26.323532 Si / 1000 Ang^3
#
#
#
# Elastic Constant Matrix: (Units=GPa)
#
#
# Indices 1 2 3 4 5 6 
#
# 1 208.9748 -9.0570 9.0380 0.0000 -36.0998 0.0000
# 2 -9.0570 46.4060 4.5630 0.0000 -1.4208 0.0000
# 3 9.0380 4.5630 96.1896 0.0000 -42.6636 0.0000
# 4 0.0000 0.0000 0.0000 21.9046 0.0000 -3.6184
# 5 -36.0998 -1.4208 -42.6636 0.0000 36.7584 0.0000
# 6 0.0000 0.0000 0.0000 -3.6184 0.0000 27.9942
#
#
#
# Elastic Compliance Matrix: (Units=1/GPa)
#
#
# Indices 1 2 3 4 5 6 
#
# 1 0.006718 0.001222 0.004654 0.000000 0.012046 0.000000
# 2 0.001222 0.021882 -0.000506 0.000000 0.001460 0.000000
# 3 0.004654 -0.000506 0.024734 0.000000 0.033259 0.000000
# 4 0.000000 0.000000 0.000000 0.046649 0.000000 0.006030
# 5 0.012046 0.001460 0.033259 0.000000 0.077693 0.000000
# 6 0.000000 0.000000 0.000000 0.006030 0.000000 0.036501
#
#
# Mechanical properties :
#
#
# Convention : Reuss Voigt Hill
#
# Bulk Modulus (GPa) = 15.60669 40.07315 27.83992
# Shear Modulus (GPa) = 22.24258 40.46652 31.35455
#
# Velocity S-wave (km/s) = 2.90999 3.92506 3.45501
# Velocity P-wave (km/s) = 4.15119 5.98313 5.14928
#
# Compressibility (1/GPa) = 0.06407511
#
# Stress axis : x y z
#
# Youngs Moduli (GPa) = 148.85594 45.69984 40.42975
#
# Poissons Ratio (x) = -0.05586 -0.18815
# Poissons Ratio (y) = -0.18196 0.02044
# Poissons Ratio (z) = -0.69273 0.02310
#
# Static dielectric constant tensor:
#      x y z
#    x 2.191910 0.000000 0.116530 
#    y 0.000000 2.057410 0.000000 
#    z 0.116530 0.000000 2.024790 
# 
# From -- ./inp_files/153807.got.cif
#   From: 2010.05.17/outbox.cif.g08.bks.cpg/sg15_77_cif.got.tgz:153807.got - 2010.06.03 18:47:42.
