data_PCOD9262198
_publ_section_title
;
Structure prediction by ZEFSAII (Michael W. Deem and Ramdas Pophale) SiO2 
 PCOD9262198
Probable space group: C 2/C
;
_chemical_formula_sum "Si O2"
_cell_formula_units_Z 48
_cell_length_a 9.100461
_cell_length_b 22.696121
_cell_length_c 9.374597
_cell_angle_alpha 90.000000
_cell_angle_beta 94.241339
_cell_angle_gamma 90.000000
_cell_volume 1930.974939
_symmetry_space_group_name_H-M "C 2/C"
_symmetry_group_IT_number 15
_symmetry_cell_setting 'monoclinic'
loop_
_space_group_symop_operation_xyz
x,y,z
-x,y,1/2-z
-x,-y,-z
x,-y,1/2+z
1/2+x,1/2+y,z
1/2-x,1/2+y,1/2-z
1/2-x,1/2-y,-z
1/2+x,1/2-y,1/2+z
loop_
_atom_site_type_symbol
_atom_site_label
_atom_site_fract_x
_atom_site_fract_y
_atom_site_fract_z
Si Si1 0.371565 0.699901 0.446120
Si Si2 0.164806 0.954147 0.929431
Si Si3 0.005784 0.315826 0.425457
Si Si4 0.207168 0.828980 0.865033
Si Si5 0.096765 0.917159 0.397696
Si Si6 0.547704 0.053652 0.909891
O O1 0.393589 0.768923 0.486141
O O2 0.285557 0.698725 0.290102
O O3 0.546167 0.685863 0.417181
O O4 0.337530 0.645840 0.550562
O O5 0.276305 0.943118 0.067534
O O6 0.003093 0.938717 0.974750
O O7 0.211057 0.899669 0.833545
O O8 0.180876 0.020739 0.876736
O O9 0.166047 0.309971 0.514350
O O10 0.977537 0.384643 0.451229
O O11 0.000000 0.309117 0.250000
O O12 0.000000 0.906197 0.250000
O O13 0.500000 0.041639 0.750000
O O14 0.500000 0.000000 0.000000
#
# Coordination Sequence:
#
# PCOD9262198 Si02
#       6
#     8   8   8   8   8   8
#     4  10  19  32  55  86 115 149 191 248 298 348
#     4   9  21  36  59  84 120 155 194 250 296 357
#     4  10  19  35  58  85 115 153 200 247 289 357
#     4   9  18  32  55  85 112 143 196 242 294 343
#     4  10  22  35  57  89 122 158 196 246 311 361
#     4  10  23  40  62  88 115 159 206 248 299 362
#
# _framework density 24.857911000000001
#
# number of rings (size 3 to 8) (size 9 to 14) (size 15 to 20)
#    0.000    2.333    1.667    0.500    9.333    1.333 
#    0.000    0.833    0.000    2.000    0.000    0.000 
#    0.000    0.000    0.000    0.000    0.000    0.000 
#
# Total GULP energy -133958.201445 kJ/mol
# GULP energy per Si atom -5581.591727 kJ/mol
# Density = 2.480133 g / cm^3
# Si number density = 24.857911 Si / 1000 Ang^3
#
#
#
# Elastic Constant Matrix: (Units=GPa)
#
#
# Indices 1 2 3 4 5 6 
#
# 1 39.4614 13.7055 19.2828 0.0000 9.1294 0.0000
# 2 13.7055 232.2796 48.4156 0.0000 -1.9171 0.0000
# 3 19.2828 48.4156 114.6471 0.0000 37.5318 0.0000
# 4 0.0000 0.0000 0.0000 39.9999 0.0000 7.8226
# 5 9.1294 -1.9171 37.5318 0.0000 27.8384 0.0000
# 6 0.0000 0.0000 0.0000 7.8226 0.0000 5.9749
#
#
#
# Elastic Compliance Matrix: (Units=1/GPa)
#
#
# Indices 1 2 3 4 5 6 
#
# 1 0.028324 -0.001298 -0.002051 0.000000 -0.006614 0.000000
# 2 -0.001298 0.005280 -0.004063 0.000000 0.006268 0.000000
# 3 -0.002051 -0.004063 0.019073 0.000000 -0.025321 0.000000
# 4 0.000000 0.000000 0.000000 0.033604 0.000000 -0.043996
# 5 -0.006614 0.006268 -0.025321 0.000000 0.072660 0.000000
# 6 0.000000 0.000000 0.000000 -0.043996 0.000000 0.224970
#
#
# Mechanical properties :
#
#
# Convention : Reuss Voigt Hill
#
# Bulk Modulus (GPa) = 26.41831 61.02177 43.72004
# Shear Modulus (GPa) = 12.15498 35.09492 23.62495
#
# Velocity S-wave (km/s) = 2.21368 3.76150 3.08620
# Velocity P-wave (km/s) = 4.14544 6.59293 5.50687
#
# Compressibility (1/GPa) = 0.03785253
#
# Stress axis : x y z
#
# Youngs Moduli (GPa) = 35.30546 189.37724 52.43120
#
# Poissons Ratio (x) = 0.24589 0.10751
# Poissons Ratio (y) = 0.04584 0.21305
# Poissons Ratio (z) = 0.07240 0.76952
#
# Static dielectric constant tensor:
#      x y z
#    x 1.989210 0.000000 0.176740 
#    y 0.000000 2.001580 0.000000 
#    z 0.176740 0.000000 1.736740 
# 
# From -- ./inp_files/89164.got.cif
#   From: 2010.05.17/outbox.cif.g08.bks.cpg/sg15_45_cif.got.tgz:89164.got - 2010.06.03 18:47:42.
