data_PCOD9262032
_publ_section_title
;
Structure prediction by ZEFSAII (Michael W. Deem and Ramdas Pophale) SiO2 
 PCOD9262032
Probable space group: C 2/C
;
_chemical_formula_sum "Si O2"
_cell_formula_units_Z 40
_cell_length_a 19.278977
_cell_length_b 8.357648
_cell_length_c 15.440976
_cell_angle_alpha 90.000000
_cell_angle_beta 142.749736
_cell_angle_gamma 90.000000
_cell_volume 1505.954328
_symmetry_space_group_name_H-M "C 2/C"
_symmetry_group_IT_number 15
_symmetry_cell_setting 'monoclinic'
loop_
_space_group_symop_operation_xyz
x,y,z
-x,y,1/2-z
-x,-y,-z
x,-y,1/2+z
1/2+x,1/2+y,z
1/2-x,1/2+y,1/2-z
1/2-x,1/2-y,-z
1/2+x,1/2-y,1/2+z
loop_
_atom_site_type_symbol
_atom_site_label
_atom_site_fract_x
_atom_site_fract_y
_atom_site_fract_z
Si Si1 0.764083 0.562353 0.496512
Si Si2 0.063369 0.996021 0.904107
Si Si3 0.819820 0.547699 0.268261
Si Si4 0.644194 0.405886 0.215923
Si Si5 0.465708 0.117594 0.589377
O O1 0.750000 0.750000 0.500000
O O2 0.696204 0.479814 0.508203
O O3 0.692720 0.518080 0.339647
O O4 0.893795 0.533497 0.594975
O O5 0.041629 0.807683 0.901482
O O6 0.000000 0.036099 0.750000
O O7 0.992877 0.093577 0.906618
O O8 0.702277 0.468689 0.185680
O O9 0.811099 0.728060 0.226860
O O10 0.895243 0.575533 0.432337
O O11 0.904062 0.437133 0.295195
#
# Coordination Sequence:
#
# PCOD9262032 Si02
#       5
#     8   8   8   8   8
#     4   8  16  33  56  75  99 139 182 217 260 318
#     4   9  17  32  54  76 102 141 182 217 261 319
#     4  10  20  33  52  78 109 141 175 222 271 318
#     4  10  19  32  52  79 107 139 180 221 266 318
#     4   9  18  34  53  75 104 140 180 219 267 320
#
# _framework density 26.561232
#
# number of rings (size 3 to 8) (size 9 to 14) (size 15 to 20)
#    0.000    2.800    0.000    1.200    0.000    0.800 
#    0.000    4.000    0.000    0.000    0.000    0.000 
#    0.000    0.000    0.000    0.000    0.000    0.000 
#
# Total GULP energy -111925.119951 kJ/mol
# GULP energy per Si atom -5596.255998 kJ/mol
# Density = 2.650078 g / cm^3
# Si number density = 26.561232 Si / 1000 Ang^3
#
#
#
# Elastic Constant Matrix: (Units=GPa)
#
#
# Indices 1 2 3 4 5 6 
#
# 1 248.1710 56.9046 35.6718 0.0000 32.6364 0.0000
# 2 56.9046 99.0550 26.6885 0.0000 16.6848 0.0000
# 3 35.6718 26.6885 73.2374 0.0000 30.5611 0.0000
# 4 0.0000 0.0000 0.0000 32.5990 0.0000 -1.1288
# 5 32.6364 16.6848 30.5611 0.0000 68.0099 0.0000
# 6 0.0000 0.0000 0.0000 -1.1288 0.0000 43.6351
#
#
#
# Elastic Compliance Matrix: (Units=1/GPa)
#
#
# Indices 1 2 3 4 5 6 
#
# 1 0.004876 -0.002313 -0.000975 0.000000 -0.001334 0.000000
# 2 -0.002313 0.012363 -0.003170 0.000000 -0.000498 0.000000
# 3 -0.000975 -0.003170 0.018172 0.000000 -0.006920 0.000000
# 4 0.000000 0.000000 0.000000 0.030703 0.000000 0.000794
# 5 -0.001334 -0.000498 -0.006920 0.000000 0.018576 0.000000
# 6 0.000000 0.000000 0.000000 0.000794 0.000000 0.022938
#
#
# Mechanical properties :
#
#
# Convention : Reuss Voigt Hill
#
# Bulk Modulus (GPa) = 44.45937 73.22149 58.84043
# Shear Modulus (GPa) = 39.04956 48.92870 43.98913
#
# Velocity S-wave (km/s) = 3.83844 4.29664 4.07399
# Velocity P-wave (km/s) = 6.03487 7.22784 6.65813
#
# Compressibility (1/GPa) = 0.02249245
#
# Stress axis : x y z
#
# Youngs Moduli (GPa) = 205.10617 80.88964 55.02920
#
# Poissons Ratio (x) = 0.18714 0.05365
# Poissons Ratio (y) = 0.47451 0.17446
# Poissons Ratio (z) = 0.19998 0.25645
#
# Static dielectric constant tensor:
#      x y z
#    x 2.133720 0.000000 -0.037180 
#    y 0.000000 1.922180 0.000000 
#    z -0.037180 0.000000 2.310420 
# 
# From -- ./inp_files/159109.got.cif
#   From: 2010.05.17/outbox.cif.g08.bks.cpg/sg15_80_cif.got.tgz:159109.got - 2010.06.03 18:47:42.
