data_PCOD9262082
_publ_section_title
;
Structure prediction by ZEFSAII (Michael W. Deem and Ramdas Pophale) SiO2 
 PCOD9262082
Probable space group: C 2/C
;
_chemical_formula_sum "Si O2"
_cell_formula_units_Z 60
_cell_length_a 19.248279
_cell_length_b 27.169982
_cell_length_c 5.222261
_cell_angle_alpha 90.000000
_cell_angle_beta 108.399997
_cell_angle_gamma 90.000000
_cell_volume 2591.488608
_symmetry_space_group_name_H-M "C 2/C"
_symmetry_group_IT_number 15
_symmetry_cell_setting 'monoclinic'
loop_
_space_group_symop_operation_xyz
x,y,z
-x,y,1/2-z
-x,-y,-z
x,-y,1/2+z
1/2+x,1/2+y,z
1/2-x,1/2+y,1/2-z
1/2-x,1/2-y,-z
1/2+x,1/2-y,1/2+z
loop_
_atom_site_type_symbol
_atom_site_label
_atom_site_fract_x
_atom_site_fract_y
_atom_site_fract_z
Si Si1 0.137108 0.893138 0.166359
Si Si2 0.500000 0.389116 0.750000
Si Si3 0.721131 0.472363 0.583846
Si Si4 0.772046 0.359036 0.033032
Si Si5 0.073818 0.187656 0.951220
Si Si6 0.814940 0.730688 0.890089
Si Si7 0.358317 0.130470 0.120834
Si Si8 0.101164 0.469847 0.729263
O O1 0.178166 0.926531 0.418875
O O2 0.193007 0.879122 0.007484
O O3 0.114361 0.842138 0.274098
O O4 0.062108 0.917155 0.978815
O O5 0.544326 0.353153 0.612256
O O6 0.702349 0.514573 0.352961
O O7 0.809349 0.468654 0.670400
O O8 0.779874 0.301967 0.122785
O O9 0.825277 0.385161 0.305413
O O10 0.799362 0.368068 0.782040
O O11 0.000000 0.211707 0.750000
O O12 0.131778 0.225729 0.129833
O O13 0.750000 0.750000 0.000000
O O14 0.867760 0.689198 0.088506
O O15 0.416179 0.088541 0.266551
O O16 0.078485 0.498260 0.447817
#
# Coordination Sequence:
#
# PCOD9262082 Si02
#       8
#     8   4   8   8   8   8   8   8
#     4  11  22  39  57  79 113 151 199 247 299 354
#     4  10  26  36  64  74 114 154 202 240 304 354
#     4  10  22  34  55  81 104 144 195 253 303 344
#     4  10  22  33  61  80 122 142 192 238 294 337
#     4  10  22  43  59  87 115 158 196 240 293 359
#     4  10  21  37  58  92 118 154 194 243 295 347
#     4  10  21  36  52  91 115 153 183 244 286 354
#     4  10  19  32  53  79 118 156 190 229 295 354
#
# _framework density 23.152716000000002
#
# number of rings (size 3 to 8) (size 9 to 14) (size 15 to 20)
#    0.800    1.067    2.667    0.800    9.333    2.667 
#    0.000    0.667    0.000    0.000    0.000    0.000 
#    0.000    1.067    0.000    0.133    0.000    0.000 
#
# Total GULP energy -167495.196204 kJ/mol
# GULP energy per Si atom -5583.173207 kJ/mol
# Density = 2.310002 g / cm^3
# Si number density = 23.152716 Si / 1000 Ang^3
#
#
#
# Elastic Constant Matrix: (Units=GPa)
#
#
# Indices 1 2 3 4 5 6 
#
# 1 71.6867 24.3820 18.5039 0.0000 7.3549 0.0000
# 2 24.3820 87.2242 15.1077 0.0000 6.8608 0.0000
# 3 18.5039 15.1077 80.4526 0.0000 0.8252 0.0000
# 4 0.0000 0.0000 0.0000 34.9467 0.0000 -4.0711
# 5 7.3549 6.8608 0.8252 0.0000 31.7214 0.0000
# 6 0.0000 0.0000 0.0000 -4.0711 0.0000 5.3767
#
#
#
# Elastic Compliance Matrix: (Units=1/GPa)
#
#
# Indices 1 2 3 4 5 6 
#
# 1 0.016319 -0.003814 -0.003007 0.000000 -0.002880 0.000000
# 2 -0.003814 0.012944 -0.001534 0.000000 -0.001875 0.000000
# 3 -0.003007 -0.001534 0.013403 0.000000 0.000680 0.000000
# 4 0.000000 0.000000 0.000000 0.031383 0.000000 0.023763
# 5 -0.002880 -0.001875 0.000680 0.000000 0.032580 0.000000
# 6 0.000000 0.000000 0.000000 0.023763 0.000000 0.203981
#
#
# Mechanical properties :
#
#
# Convention : Reuss Voigt Hill
#
# Bulk Modulus (GPa) = 38.53021 39.48341 39.00681
# Shear Modulus (GPa) = 14.88218 26.50028 20.69123
#
# Velocity S-wave (km/s) = 2.53807 3.38684 2.99270
# Velocity P-wave (km/s) = 5.02662 5.69076 5.36897
#
# Compressibility (1/GPa) = 0.02595366
#
# Stress axis : x y z
#
# Youngs Moduli (GPa) = 61.27953 77.25516 74.61287
#
# Poissons Ratio (x) = 0.29466 0.22440
# Poissons Ratio (y) = 0.23373 0.11447
# Poissons Ratio (z) = 0.18430 0.11853
#
# Static dielectric constant tensor:
#      x y z
#    x 1.861490 0.000000 0.038500 
#    y 0.000000 1.948440 0.000000 
#    z 0.038500 0.000000 1.895120 
# 
# From -- ./inp_files/14298.got.cif
#   From: 2010.05.17/outbox.cif.g08.bks.cpg/sg15_8_cif.got.tgz:14298.got - 2010.06.03 18:47:42.
