data_PCOD9262185
_publ_section_title
;
Structure prediction by ZEFSAII (Michael W. Deem and Ramdas Pophale) SiO2 
 PCOD9262185
Probable space group: C 2/C
;
_chemical_formula_sum "Si O2"
_cell_formula_units_Z 48
_cell_length_a 18.609563
_cell_length_b 6.582917
_cell_length_c 17.745893
_cell_angle_alpha 90.000000
_cell_angle_beta 92.965206
_cell_angle_gamma 90.000000
_cell_volume 2171.053675
_symmetry_space_group_name_H-M "C 2/C"
_symmetry_group_IT_number 15
_symmetry_cell_setting 'monoclinic'
loop_
_space_group_symop_operation_xyz
x,y,z
-x,y,1/2-z
-x,-y,-z
x,-y,1/2+z
1/2+x,1/2+y,z
1/2-x,1/2+y,1/2-z
1/2-x,1/2-y,-z
1/2+x,1/2-y,1/2+z
loop_
_atom_site_type_symbol
_atom_site_label
_atom_site_fract_x
_atom_site_fract_y
_atom_site_fract_z
Si Si1 0.697545 0.454295 0.791225
Si Si2 0.443368 0.578755 0.557699
Si Si3 0.092502 0.673508 0.313170
Si Si4 0.148304 0.593151 0.701111
Si Si5 0.177373 0.361538 0.025329
Si Si6 0.654314 0.802648 0.413436
O O1 0.655514 0.658464 0.809382
O O2 0.775008 0.509188 0.763424
O O3 0.646071 0.319633 0.735379
O O4 0.711704 0.315080 0.865473
O O5 0.500000 0.500000 0.500000
O O6 0.463542 0.701036 0.636350
O O7 0.387641 0.729050 0.512965
O O8 0.403355 0.372063 0.577230
O O9 0.087844 0.560698 0.230890
O O10 0.118939 0.482626 0.363336
O O11 0.160735 0.617944 0.612934
O O12 0.250000 0.250000 0.000000
O O13 0.179398 0.585545 0.989350
#
# Coordination Sequence:
#
# PCOD9262185 Si02
#       6
#     8   8   8   8   8   8
#     4  10  19  32  55  82 120 168 199 245 321 388
#     4  10  22  42  66  87 119 168 217 263 323 389
#     4   9  19  35  56  85 113 157 215 247 308 390
#     4  11  20  32  55  84 126 162 197 254 322 382
#     4  11  24  36  58  98 130 155 212 275 323 380
#     4   9  20  38  59  86 118 159 204 261 308 379
#
# _framework density 22.109079000000001
#
# number of rings (size 3 to 8) (size 9 to 14) (size 15 to 20)
#    0.000    2.000    1.667    3.000    2.333    6.667 
#    0.000    0.000    0.000   24.000    0.000    0.000 
#    0.000    0.000    0.000    0.000    0.000    0.000 
#
# Total GULP energy -133681.534185 kJ/mol
# GULP energy per Si atom -5570.063924 kJ/mol
# Density = 2.205876 g / cm^3
# Si number density = 22.109079 Si / 1000 Ang^3
#
#
#
# Elastic Constant Matrix: (Units=GPa)
#
#
# Indices 1 2 3 4 5 6 
#
# 1 39.9084 20.3878 23.4360 0.0000 -19.9832 0.0000
# 2 20.3878 157.7721 68.8836 0.0000 -7.6135 0.0000
# 3 23.4360 68.8836 162.4310 0.0000 -19.6087 0.0000
# 4 0.0000 0.0000 0.0000 52.9315 0.0000 -13.0646
# 5 -19.9832 -7.6135 -19.6087 0.0000 33.7771 0.0000
# 6 0.0000 0.0000 0.0000 -13.0646 0.0000 22.4030
#
#
#
# Elastic Compliance Matrix: (Units=1/GPa)
#
#
# Indices 1 2 3 4 5 6 
#
# 1 0.038101 -0.003211 -0.001615 0.000000 0.020880 0.000000
# 2 -0.003211 0.008050 -0.003184 0.000000 -0.001934 0.000000
# 3 -0.001615 -0.003184 0.008106 0.000000 0.003033 0.000000
# 4 0.000000 0.000000 0.000000 0.022069 0.000000 0.012870
# 5 0.020880 -0.001934 0.003033 0.000000 0.043284 0.000000
# 6 0.000000 0.000000 0.000000 0.012870 0.000000 0.052142
#
#
# Mechanical properties :
#
#
# Convention : Reuss Voigt Hill
#
# Bulk Modulus (GPa) = 26.15233 65.05851 45.60542
# Shear Modulus (GPa) = 24.93545 38.31591 31.62568
#
# Velocity S-wave (km/s) = 3.36197 4.16750 3.78622
# Velocity P-wave (km/s) = 5.18892 7.25585 6.30763
#
# Compressibility (1/GPa) = 0.03823750
#
# Stress axis : x y z
#
# Youngs Moduli (GPa) = 26.24571 124.22354 123.36794
#
# Poissons Ratio (x) = 0.39886 0.19925
# Poissons Ratio (y) = 0.08427 0.39280
# Poissons Ratio (z) = 0.04239 0.39553
#
# Static dielectric constant tensor:
#      x y z
#    x 1.825590 0.000000 -0.022640 
#    y 0.000000 1.790720 0.000000 
#    z -0.022640 0.000000 1.998920 
# 
# From -- ./inp_files/217469.got.cif
#   From: 2010.05.17/outbox.cif.g08.bks.cpg/sg15_109_cif.got.tgz:217469.got - 2010.06.03 18:47:42.
