data_PCOD9262915
_publ_section_title
;
Structure prediction by ZEFSAII (Michael W. Deem and Ramdas Pophale) SiO2 
 PCOD9262915
Probable space group: C 2/C
;
_chemical_formula_sum "Si O2"
_cell_formula_units_Z 44
_cell_length_a 28.090163
_cell_length_b 9.094620
_cell_length_c 13.570765
_cell_angle_alpha 90.000000
_cell_angle_beta 140.522764
_cell_angle_gamma 90.000000
_cell_volume 2204.165853
_symmetry_space_group_name_H-M "C 2/C"
_symmetry_group_IT_number 15
_symmetry_cell_setting 'monoclinic'
loop_
_space_group_symop_operation_xyz
x,y,z
-x,y,1/2-z
-x,-y,-z
x,-y,1/2+z
1/2+x,1/2+y,z
1/2-x,1/2+y,1/2-z
1/2-x,1/2-y,-z
1/2+x,1/2-y,1/2+z
loop_
_atom_site_type_symbol
_atom_site_label
_atom_site_fract_x
_atom_site_fract_y
_atom_site_fract_z
Si Si1 0.159342 0.822350 0.072511
Si Si2 0.262304 0.212100 0.906807
Si Si3 0.800327 0.309032 0.170351
Si Si4 0.500000 0.163730 0.250000
Si Si5 0.367785 0.954395 0.105620
Si Si6 0.615105 0.362635 0.531602
O O1 0.187700 0.767747 0.223831
O O2 0.238302 0.871269 0.146517
O O3 0.107838 0.963455 0.006740
O O4 0.127338 0.692639 0.953201
O O5 0.326753 0.309539 0.959802
O O6 0.250000 0.250000 0.000000
O O7 0.294324 0.045584 0.953820
O O8 0.856047 0.416825 0.201864
O O9 0.846768 0.187873 0.305120
O O10 0.750000 0.250000 0.000000
O O11 0.540637 0.269542 0.393377
O O12 0.437753 0.059063 0.198421
#
# Coordination Sequence:
#
# PCOD9262915 Si02
#       6
#     8   8   8   4   8   8
#     4  10  19  35  60  88 113 146 191 246 295 331
#     4  10  19  33  57  89 116 143 185 240 296 336
#     4   9  18  34  60  90 112 138 183 241 297 335
#     4  10  24  40  52  80 118 164 198 224 280 346
#     4  10  21  37  59  82 117 156 192 232 285 356
#     4  10  21  36  56  82 118 149 188 238 279 342
#
# _framework density 19.962199999999999
#
# number of rings (size 3 to 8) (size 9 to 14) (size 15 to 20)
#    0.000    2.182    0.000    4.364    0.000    5.818 
#    0.000    1.818    0.000    9.818    0.000    0.000 
#    0.000    0.000    0.000    0.000    0.000    0.000 
#
# Total GULP energy -122710.150404 kJ/mol
# GULP energy per Si atom -5577.734109 kJ/mol
# Density = 1.991677 g / cm^3
# Si number density = 19.962200 Si / 1000 Ang^3
#
#
#
# Elastic Constant Matrix: (Units=GPa)
#
#
# Indices 1 2 3 4 5 6 
#
# 1 50.1007 23.0387 41.8500 0.0000 -10.6340 0.0000
# 2 23.0387 117.2647 46.0954 0.0000 8.8109 0.0000
# 3 41.8500 46.0954 104.4027 0.0000 -10.8063 0.0000
# 4 0.0000 0.0000 0.0000 28.8507 0.0000 1.2058
# 5 -10.6340 8.8109 -10.8063 0.0000 34.6917 0.0000
# 6 0.0000 0.0000 0.0000 1.2058 0.0000 27.1106
#
#
#
# Elastic Compliance Matrix: (Units=1/GPa)
#
#
# Indices 1 2 3 4 5 6 
#
# 1 0.031657 -0.002462 -0.010884 0.000000 0.006939 0.000000
# 2 -0.002462 0.011130 -0.004441 0.000000 -0.004965 0.000000
# 3 -0.010884 -0.004441 0.016196 0.000000 0.002836 0.000000
# 4 0.000000 0.000000 0.000000 0.034726 0.000000 -0.001545
# 5 0.006939 -0.004965 0.002836 0.000000 0.033097 0.000000
# 6 0.000000 0.000000 0.000000 -0.001545 0.000000 0.036955
#
#
# Mechanical properties :
#
#
# Convention : Reuss Voigt Hill
#
# Bulk Modulus (GPa) = 42.72188 54.85961 48.79074
# Shear Modulus (GPa) = 24.13854 28.84953 26.49404
#
# Velocity S-wave (km/s) = 3.48115 3.80571 3.64704
# Velocity P-wave (km/s) = 6.13235 6.84490 6.49840
#
# Compressibility (1/GPa) = 0.02340721
#
# Stress axis : x y z
#
# Youngs Moduli (GPa) = 31.58892 89.84507 61.74485
#
# Poissons Ratio (x) = 0.22123 0.67205
# Poissons Ratio (y) = 0.07778 0.27421
# Poissons Ratio (z) = 0.34382 0.39901
#
# Static dielectric constant tensor:
#      x y z
#    x 1.720680 0.000000 0.001810 
#    y 0.000000 1.763080 0.000000 
#    z 0.001810 0.000000 1.703550 
# 
# From -- ./inp_files/121778.got.cif
#   From: 2010.05.17/outbox.cif.g08.bks.cpg/sg15_61_cif.got.tgz:121778.got - 2010.06.03 18:47:42.
