data_PCOD9262998
_publ_section_title
;
Structure prediction by ZEFSAII (Michael W. Deem and Ramdas Pophale) SiO2 
 PCOD9262998
Probable space group: C 2/C
;
_chemical_formula_sum "Si O2"
_cell_formula_units_Z 32
_cell_length_a 14.658282
_cell_length_b 5.059675
_cell_length_c 19.993558
_cell_angle_alpha 90.000000
_cell_angle_beta 121.394561
_cell_angle_gamma 90.000000
_cell_volume 1265.756935
_symmetry_space_group_name_H-M "C 2/C"
_symmetry_group_IT_number 15
_symmetry_cell_setting 'monoclinic'
loop_
_space_group_symop_operation_xyz
x,y,z
-x,y,1/2-z
-x,-y,-z
x,-y,1/2+z
1/2+x,1/2+y,z
1/2-x,1/2+y,1/2-z
1/2-x,1/2-y,-z
1/2+x,1/2-y,1/2+z
loop_
_atom_site_type_symbol
_atom_site_label
_atom_site_fract_x
_atom_site_fract_y
_atom_site_fract_z
Si Si1 0.461695 0.450815 0.162258
Si Si2 0.421242 0.044594 0.577468
Si Si3 0.198609 0.929887 0.199229
Si Si4 0.904712 0.790329 0.945642
O O1 0.500000 0.534752 0.250000
O O2 0.415842 0.158882 0.136778
O O3 0.574237 0.413054 0.168128
O O4 0.392938 0.669869 0.096801
O O5 0.370737 0.890684 0.495191
O O6 0.539069 0.103988 0.589001
O O7 0.247175 0.151849 0.266710
O O8 0.193894 0.050280 0.123215
O O9 0.000000 0.000000 0.000000
#
# Coordination Sequence:
#
# PCOD9262998 Si02
#       4
#     8   8   8   8
#     4  11  22  38  59  86 120 158 193 232 286 363
#     4  10  19  33  59  87 105 151 207 232 270 334
#     4  11  23  36  58  91 119 144 190 253 302 321
#     4  10  19  35  61  85 117 149 201 242 279 345
#
# _framework density 25.281317000000001
#
# number of rings (size 3 to 8) (size 9 to 14) (size 15 to 20)
#    0.000    1.500    5.000    3.750    3.500    0.000 
#    0.000    0.000    0.000    9.000    0.000    0.000 
#    0.000    0.000    0.000    0.000    0.000    0.000 
#
# Total GULP energy -89288.975265 kJ/mol
# GULP energy per Si atom -5580.560954 kJ/mol
# Density = 2.522378 g / cm^3
# Si number density = 25.281317 Si / 1000 Ang^3
#
#
#
# Elastic Constant Matrix: (Units=GPa)
#
#
# Indices 1 2 3 4 5 6 
#
# 1 43.7343 13.2861 7.8497 0.0000 5.1642 0.0000
# 2 13.2861 160.7948 25.5433 0.0001 1.8403 -0.0001
# 3 7.8497 25.5433 81.7914 0.0000 -11.6555 0.0000
# 4 0.0000 0.0001 0.0000 58.7355 0.0000 -3.3800
# 5 5.1642 1.8403 -11.6555 0.0000 27.3018 0.0000
# 6 0.0000 -0.0001 0.0000 -3.3800 0.0000 10.2846
#
#
#
# Elastic Compliance Matrix: (Units=1/GPa)
#
#
# Indices 1 2 3 4 5 6 
#
# 1 0.024481 -0.001532 -0.002679 0.000000 -0.005671 0.000000
# 2 -0.001532 0.006690 -0.002093 0.000000 -0.001054 0.000000
# 3 -0.002679 -0.002093 0.014086 0.000000 0.006661 0.000000
# 4 0.000000 0.000000 0.000000 0.017354 0.000000 0.005703
# 5 -0.005671 -0.001054 0.006661 0.000000 0.040615 0.000000
# 6 0.000000 0.000000 0.000000 0.005703 0.000000 0.099107
#
#
# Mechanical properties :
#
#
# Convention : Reuss Voigt Hill
#
# Bulk Modulus (GPa) = 30.62818 42.18652 36.40735
# Shear Modulus (GPa) = 22.14101 35.24047 28.69074
#
# Velocity S-wave (km/s) = 2.96258 3.73759 3.37242
# Velocity P-wave (km/s) = 4.88300 5.94552 5.44026
#
# Compressibility (1/GPa) = 0.03264967
#
# Stress axis : x y z
#
# Youngs Moduli (GPa) = 40.84734 149.47231 70.99190
#
# Poissons Ratio (x) = 0.22904 0.19020
# Poissons Ratio (y) = 0.06259 0.14855
# Poissons Ratio (z) = 0.10944 0.31278
#
# Static dielectric constant tensor:
#      x y z
#    x 2.018700 0.000000 -0.076220 
#    y 0.000000 2.076960 0.000000 
#    z -0.076220 0.000000 2.133500 
# 
# From -- ./inp_files/212517.got.cif
#   From: 2010.05.17/outbox.cif.g08.bks.cpg/sg15_107_cif.got.tgz:212517.got - 2010.06.03 18:47:42.
