data_PCOD9262587
_publ_section_title
;
Structure prediction by ZEFSAII (Michael W. Deem and Ramdas Pophale) SiO2 
 PCOD9262587
Probable space group: C 2/C
;
_chemical_formula_sum "Si O2"
_cell_formula_units_Z 64
_cell_length_a 8.527032
_cell_length_b 21.731804
_cell_length_c 21.105912
_cell_angle_alpha 90.000000
_cell_angle_beta 67.063440
_cell_angle_gamma 90.000000
_cell_volume 3601.867062
_symmetry_space_group_name_H-M "C 2/C"
_symmetry_group_IT_number 15
_symmetry_cell_setting 'monoclinic'
loop_
_space_group_symop_operation_xyz
x,y,z
-x,y,1/2-z
-x,-y,-z
x,-y,1/2+z
1/2+x,1/2+y,z
1/2-x,1/2+y,1/2-z
1/2-x,1/2-y,-z
1/2+x,1/2-y,1/2+z
loop_
_atom_site_type_symbol
_atom_site_label
_atom_site_fract_x
_atom_site_fract_y
_atom_site_fract_z
Si Si1 0.507100 0.730458 0.382652
Si Si2 0.583503 0.853785 0.063968
Si Si3 0.112689 0.697021 0.418093
Si Si4 0.520456 0.321415 0.473314
Si Si5 0.722922 0.086897 0.323879
Si Si6 0.517748 0.994840 0.072458
Si Si7 0.404183 0.391955 0.674153
Si Si8 0.377013 0.442983 0.536302
O O1 0.524911 0.803491 0.379967
O O2 0.309796 0.716944 0.396594
O O3 0.528164 0.708855 0.451743
O O4 0.614502 0.682434 0.325165
O O5 0.782946 0.843252 0.049630
O O6 0.535087 0.923159 0.085081
O O7 0.565871 0.837209 0.991735
O O8 0.013780 0.762220 0.427747
O O9 0.112581 0.646613 0.362736
O O10 0.412219 0.383948 0.485149
O O11 0.760599 0.082798 0.243526
O O12 0.908912 0.094958 0.326592
O O13 0.634960 0.027619 0.367183
O O14 0.688109 0.031591 0.062189
O O15 0.500000 0.000000 0.000000
O O16 0.406032 0.419235 0.603408
O O17 0.500000 0.500000 0.500000
#
# Coordination Sequence:
#
# PCOD9262587 Si02
#       8
#     8   8   8   8   8   8   8   8
#     4   7  13  25  51  73  91 125 169 217 246 296
#     4   9  14  27  48  76 103 126 166 213 262 298
#     4   8  13  26  49  74 100 123 168 214 256 293
#     4   8  14  27  49  75  95 130 166 211 254 297
#     4  10  19  33  54  78 104 138 171 223 261 323
#     4  12  22  31  50  81 111 139 174 219 268 317
#     4   9  19  36  56  75  96 138 187 212 267 316
#     4  11  20  33  53  76 108 142 177 215 262 320
#
# _framework density 17.768560999999998
#
# number of rings (size 3 to 8) (size 9 to 14) (size 15 to 20)
#    0.000    2.750    2.500    3.000    0.000    0.500 
#    0.000    0.625    2.750    1.500    0.000    0.000 
#    0.000    0.000    0.000    0.000    0.000    0.000 
#
# Total GULP energy -178147.638401 kJ/mol
# GULP energy per Si atom -5567.113700 kJ/mol
# Density = 1.772812 g / cm^3
# Si number density = 17.768561 Si / 1000 Ang^3
#
#
#
# Elastic Constant Matrix: (Units=GPa)
#
#
# Indices 1 2 3 4 5 6 
#
# 1 16.9619 19.0528 10.1283 0.0000 -2.3983 0.0000
# 2 19.0528 169.1102 48.1747 0.0000 -16.4973 0.0000
# 3 10.1283 48.1747 79.9913 0.0000 -11.2627 0.0000
# 4 0.0000 0.0000 0.0000 25.1093 0.0000 -4.7209
# 5 -2.3983 -16.4973 -11.2627 0.0000 13.6056 0.0000
# 6 0.0000 0.0000 0.0000 -4.7209 0.0000 18.3970
#
#
#
# Elastic Compliance Matrix: (Units=1/GPa)
#
#
# Indices 1 2 3 4 5 6 
#
# 1 0.069054 -0.006353 -0.004854 0.000000 0.000451 0.000000
# 2 -0.006353 0.008146 -0.003247 0.000000 0.006070 0.000000
# 3 -0.004854 -0.003247 0.016296 0.000000 0.008697 0.000000
# 4 0.000000 0.000000 0.000000 0.041845 0.000000 0.010738
# 5 0.000451 0.006070 0.008697 0.000000 0.088138 0.000000
# 6 0.000000 0.000000 0.000000 0.010738 0.000000 0.057112
#
#
# Mechanical properties :
#
#
# Convention : Reuss Voigt Hill
#
# Bulk Modulus (GPa) = 15.48270 46.75276 31.11773
# Shear Modulus (GPa) = 15.10444 24.00288 19.55366
#
# Velocity S-wave (km/s) = 2.91875 3.67940 3.32092
# Velocity P-wave (km/s) = 4.48233 6.66482 5.67940
#
# Compressibility (1/GPa) = 0.06458820
#
# Stress axis : x y z
#
# Youngs Moduli (GPa) = 14.48143 122.75655 61.36495
#
# Poissons Ratio (x) = 0.77991 0.29785
# Poissons Ratio (y) = 0.09200 0.19925
# Poissons Ratio (z) = 0.07029 0.39859
#
# Static dielectric constant tensor:
#      x y z
#    x 1.644480 0.000000 0.009060 
#    y 0.000000 1.654280 0.000000 
#    z 0.009060 0.000000 1.600760 
# 
# From -- ./inp_files/233857.got.cif
#   From: 2010.05.17/outbox.cif.g08.bks.cpg/sg15_117_cif.got.tgz:233857.got - 2010.06.03 18:47:42.
