data_PCOD9262929
_publ_section_title
;
Structure prediction by ZEFSAII (Michael W. Deem and Ramdas Pophale) SiO2 
 PCOD9262929
Probable space group: C 2/C
;
_chemical_formula_sum "Si O2"
_cell_formula_units_Z 56
_cell_length_a 10.680899
_cell_length_b 28.924521
_cell_length_c 9.003830
_cell_angle_alpha 90.000000
_cell_angle_beta 104.076436
_cell_angle_gamma 90.000000
_cell_volume 2698.115421
_symmetry_space_group_name_H-M "C 2/C"
_symmetry_group_IT_number 15
_symmetry_cell_setting 'monoclinic'
loop_
_space_group_symop_operation_xyz
x,y,z
-x,y,1/2-z
-x,-y,-z
x,-y,1/2+z
1/2+x,1/2+y,z
1/2-x,1/2+y,1/2-z
1/2-x,1/2-y,-z
1/2+x,1/2-y,1/2+z
loop_
_atom_site_type_symbol
_atom_site_label
_atom_site_fract_x
_atom_site_fract_y
_atom_site_fract_z
Si Si1 0.346088 0.583035 0.869490
Si Si2 0.703268 0.841171 0.136356
Si Si3 0.899747 0.983260 0.847773
Si Si4 0.126805 0.888392 0.552858
Si Si5 0.048053 0.315591 0.596610
Si Si6 0.902856 0.208396 0.856970
Si Si7 0.329899 0.644545 0.115888
O O1 0.250892 0.617092 0.754785
O O2 0.328061 0.531705 0.800252
O O3 0.498848 0.598402 0.918320
O O4 0.315056 0.594294 0.032184
O O5 0.764298 0.796483 0.235233
O O6 0.779525 0.855023 0.009270
O O7 0.556064 0.834137 0.051428
O O8 0.822109 0.939444 0.886413
O O9 0.000000 0.968684 0.750000
O O10 0.000000 0.000000 0.000000
O O11 0.107361 0.863368 0.704965
O O12 0.000000 0.326715 0.750000
O O13 0.058140 0.260023 0.591131
O O14 0.188190 0.335722 0.606081
O O15 0.000000 0.193142 0.750000
O O16 0.891586 0.177989 0.004820
#
# Coordination Sequence:
#
# PCOD9262929 Si02
#       7
#     8   8   8   8   8   8   8
#     4  10  21  36  60  96 128 162 202 252 317 370
#     4  11  22  41  65  87 127 170 206 252 313 374
#     4  10  19  33  57  94 132 159 194 249 313 368
#     4  11  20  37  66  97 129 160 200 258 312 374
#     4  11  24  45  64  87 121 169 215 259 308 367
#     4  10  24  42  63  91 121 158 210 262 319 363
#     4  11  22  41  64  91 122 164 211 255 310 368
#
# _framework density 20.755226
#
# number of rings (size 3 to 8) (size 9 to 14) (size 15 to 20)
#    0.000    1.429    1.429    6.429    0.000    5.143 
#    7.714    0.000    0.000    5.143    0.000    0.000 
#    0.000    0.000    0.000    0.000    0.000    0.000 
#
# Total GULP energy -155941.144702 kJ/mol
# GULP energy per Si atom -5569.326597 kJ/mol
# Density = 2.070799 g / cm^3
# Si number density = 20.755226 Si / 1000 Ang^3
#
#
#
# Elastic Constant Matrix: (Units=GPa)
#
#
# Indices 1 2 3 4 5 6 
#
# 1 60.6480 42.8367 32.7811 0.0000 2.8130 0.0000
# 2 42.8367 98.1676 30.6602 0.0000 5.7477 0.0000
# 3 32.7811 30.6602 127.5875 0.0000 2.3995 0.0000
# 4 0.0000 0.0000 0.0000 27.1134 0.0000 0.9470
# 5 2.8130 5.7477 2.3995 0.0000 38.7565 0.0000
# 6 0.0000 0.0000 0.0000 0.9470 0.0000 -0.5799
#
#
#
# Elastic Compliance Matrix: (Units=1/GPa)
#
#
# Indices 1 2 3 4 5 6 
#
# 1 0.025797 -0.009924 -0.004240 0.000000 -0.000138 0.000000
# 2 -0.009924 0.014916 -0.001008 0.000000 -0.001429 0.000000
# 3 -0.004240 -0.001008 0.009171 0.000000 -0.000111 0.000000
# 4 0.000000 0.000000 0.000000 0.034892 0.000000 0.056979
# 5 -0.000138 -0.001429 -0.000111 0.000000 0.026031 0.000000
# 6 0.000000 0.000000 0.000000 0.056979 0.000000 -1.631384
#
#
# Mechanical properties :
#
#
# Convention : Reuss Voigt Hill
#
# Bulk Modulus (GPa) = 51.17936 55.43989 53.30962
# Shear Modulus (GPa) = -3.36991 25.06634 10.84821
#
# Velocity S-wave (km/s) = -1.27561 3.47899 2.28869
# Velocity P-wave (km/s) = 4.74790 6.55035 5.72056
#
# Compressibility (1/GPa) = 0.01953913
#
# Stress axis : x y z
#
# Youngs Moduli (GPa) = 38.76467 67.04385 109.03356
#
# Poissons Ratio (x) = 0.66536 0.46236
# Poissons Ratio (y) = 0.38471 0.10986
# Poissons Ratio (z) = 0.16438 0.06755
#
# Static dielectric constant tensor:
#      x y z
#    x 1.764790 0.000000 -0.032790 
#    y 0.000000 1.854320 0.000000 
#    z -0.032790 0.000000 1.809940 
# 
# From -- ./inp_files/35296.got.cif
#   From: 2010.05.17/outbox.cif.g08.bks.cpg/sg15_18_cif.got.tgz:35296.got - 2010.06.03 18:47:42.
