data_PCOD9262621
_publ_section_title
;
Structure prediction by ZEFSAII (Michael W. Deem and Ramdas Pophale) SiO2 
 PCOD9262621
Probable space group: C 2/C
;
_chemical_formula_sum "Si O2"
_cell_formula_units_Z 52
_cell_length_a 28.758974
_cell_length_b 17.012675
_cell_length_c 13.063744
_cell_angle_alpha 90.000000
_cell_angle_beta 161.381274
_cell_angle_gamma 90.000000
_cell_volume 2040.659181
_symmetry_space_group_name_H-M "C 2/C"
_symmetry_group_IT_number 15
_symmetry_cell_setting 'monoclinic'
loop_
_space_group_symop_operation_xyz
x,y,z
-x,y,1/2-z
-x,-y,-z
x,-y,1/2+z
1/2+x,1/2+y,z
1/2-x,1/2+y,1/2-z
1/2-x,1/2-y,-z
1/2+x,1/2-y,1/2+z
loop_
_atom_site_type_symbol
_atom_site_label
_atom_site_fract_x
_atom_site_fract_y
_atom_site_fract_z
Si Si1 0.224344 0.096121 0.214280
Si Si2 0.500000 0.197346 0.750000
Si Si3 0.945070 0.806700 0.831319
Si Si4 0.869766 0.968086 0.620171
Si Si5 0.349164 0.119055 0.981811
Si Si6 0.367582 0.250709 0.869272
Si Si7 0.837145 0.482953 0.626480
O O1 0.359324 0.141347 0.442494
O O2 0.157772 0.160937 0.149250
O O3 0.115202 0.050296 0.909921
O O4 0.297121 0.034929 0.444529
O O5 0.488715 0.254097 0.825252
O O6 0.980457 0.900073 0.891705
O O7 0.766790 0.799596 0.460076
O O8 0.981646 0.762820 0.014171
O O9 0.769419 0.992467 0.505645
O O10 0.785521 0.918205 0.357989
O O11 0.500000 0.082632 0.250000
O O12 0.335098 0.103711 0.072184
O O13 0.364404 0.207391 0.973702
O O14 0.000000 0.500000 0.000000
#
# Coordination Sequence:
#
# PCOD9262621 Si02
#       7
#     8   4   8   8   8   8   8
#     4  10  20  33  54  86 111 142 189 236 278 331
#     4  10  20  30  54  86 110 140 194 234 272 336
#     4   9  18  34  55  79 109 153 185 226 288 341
#     4  10  19  33  54  80 115 147 180 229 289 342
#     4  10  20  30  49  83 111 143 183 226 280 338
#     4   9  18  34  53  75 111 150 186 224 283 343
#     4  11  19  30  52  85 120 141 175 232 296 339
#
# _framework density 25.481960999999998
#
# number of rings (size 3 to 8) (size 9 to 14) (size 15 to 20)
#    0.000    2.154    3.077    0.923    4.308    1.231 
#    0.000    0.769    1.692    6.462    0.000    0.000 
#    0.000    0.000    0.000    0.000    0.000    0.000 
#
# Total GULP energy -144878.233928 kJ/mol
# GULP energy per Si atom -5572.239766 kJ/mol
# Density = 2.542396 g / cm^3
# Si number density = 25.481961 Si / 1000 Ang^3
#
#
#
# Elastic Constant Matrix: (Units=GPa)
#
#
# Indices 1 2 3 4 5 6 
#
# 1 149.5806 60.9643 16.3265 -0.0001 -22.9807 0.0001
# 2 60.9643 138.9905 36.8616 -0.0001 -14.7288 0.0002
# 3 16.3265 36.8616 44.5273 -0.0002 -20.3548 0.0004
# 4 -0.0001 -0.0001 -0.0002 -21.1431 0.0000 28.4962
# 5 -22.9807 -14.7288 -20.3548 0.0000 34.1140 0.0000
# 6 0.0001 0.0002 0.0004 28.4962 0.0000 -0.8152
#
#
#
# Elastic Compliance Matrix: (Units=1/GPa)
#
#
# Indices 1 2 3 4 5 6 
#
# 1 0.008935 -0.004024 0.002767 0.000000 0.005933 0.000000
# 2 -0.004024 0.011047 -0.009252 0.000000 -0.003462 0.000000
# 3 0.002767 -0.009252 0.038678 -0.000001 0.020948 0.000000
# 4 0.000000 0.000000 -0.000001 0.001026 0.000000 0.035853
# 5 0.005933 -0.003462 0.020948 0.000000 0.044314 0.000000
# 6 0.000000 0.000000 0.000000 0.035853 0.000000 0.026602
#
#
# Mechanical properties :
#
#
# Convention : Reuss Voigt Hill
#
# Bulk Modulus (GPa) = 26.56571 62.37813 44.47192
# Shear Modulus (GPa) = 30.45680 17.02755 23.74218
#
# Velocity S-wave (km/s) = 3.46096 2.58780 3.05573
# Velocity P-wave (km/s) = 5.13993 5.78458 5.47176
#
# Compressibility (1/GPa) = 0.03764251
#
# Stress axis : x y z
#
# Youngs Moduli (GPa) = 111.92006 90.52453 25.85419
#
# Poissons Ratio (x) = 0.36430 -0.07155
# Poissons Ratio (y) = 0.45040 0.23920
# Poissons Ratio (z) = -0.30973 0.83752
#
# Static dielectric constant tensor:
#      x y z
#    x 2.023260 0.000000 -0.008780 
#    y 0.000000 2.089580 0.000000 
#    z -0.008780 0.000000 2.403780 
# 
# From -- ./inp_files/123906.got.cif
#   From: 2010.05.17/outbox.cif.g08.bks.cpg/sg15_62_cif.got.tgz:123906.got - 2010.06.03 18:47:42.
