data_PCOD9262822
_publ_section_title
;
Structure prediction by ZEFSAII (Michael W. Deem and Ramdas Pophale) SiO2 
 PCOD9262822
Probable space group: C 2/C
;
_chemical_formula_sum "Si O2"
_cell_formula_units_Z 40
_cell_length_a 14.346037
_cell_length_b 11.532680
_cell_length_c 9.832548
_cell_angle_alpha 90.000000
_cell_angle_beta 118.056706
_cell_angle_gamma 90.000000
_cell_volume 1435.603062
_symmetry_space_group_name_H-M "C 2/C"
_symmetry_group_IT_number 15
_symmetry_cell_setting 'monoclinic'
loop_
_space_group_symop_operation_xyz
x,y,z
-x,y,1/2-z
-x,-y,-z
x,-y,1/2+z
1/2+x,1/2+y,z
1/2-x,1/2+y,1/2-z
1/2-x,1/2-y,-z
1/2+x,1/2-y,1/2+z
loop_
_atom_site_type_symbol
_atom_site_label
_atom_site_fract_x
_atom_site_fract_y
_atom_site_fract_z
Si Si1 0.139547 0.016978 0.816678
Si Si2 0.904491 0.629982 0.786298
Si Si3 0.654584 0.346215 0.052193
Si Si4 0.837287 0.802919 0.960707
Si Si5 0.169044 0.587816 0.144980
O O1 0.117519 0.073067 0.653583
O O2 0.268334 0.002402 0.909320
O O3 0.101417 0.111440 0.899075
O O4 0.112358 0.897143 0.879615
O O5 0.783981 0.647673 0.646817
O O6 0.902817 0.713106 0.916969
O O7 0.911307 0.494104 0.832054
O O8 0.000000 0.652371 0.750000
O O9 0.631352 0.211407 0.065474
O O10 0.768003 0.876186 0.807165
O O11 0.750000 0.750000 0.000000
#
# Coordination Sequence:
#
# PCOD9262822 Si02
#       5
#     8   8   8   8   8
#     4  11  18  34  58  85 106 151 198 234 266 341
#     4  10  21  35  57  89 117 147 186 245 292 332
#     4  10  21  34  59  86 116 145 197 234 281 337
#     4  11  18  36  58  81 115 156 190 226 285 350
#     4  10  19  33  56  85 114 145 196 232 277 338
#
# _framework density 27.862856000000001
#
# number of rings (size 3 to 8) (size 9 to 14) (size 15 to 20)
#    0.000    1.600   10.000    0.600    0.000    0.000 
#    0.000    9.000    0.000    6.000    0.000    0.000 
#    0.000    0.000    0.000    0.000    0.000    0.000 
#
# Total GULP energy -111738.014056 kJ/mol
# GULP energy per Si atom -5586.900703 kJ/mol
# Density = 2.779944 g / cm^3
# Si number density = 27.862856 Si / 1000 Ang^3
#
#
#
# Elastic Constant Matrix: (Units=GPa)
#
#
# Indices 1 2 3 4 5 6 
#
# 1 204.5732 84.0360 67.4431 0.0000 -24.4985 0.0000
# 2 84.0360 210.1813 58.1380 0.0000 -42.1703 0.0000
# 3 67.4431 58.1380 126.2183 0.0000 -25.0444 0.0000
# 4 0.0000 0.0000 0.0000 32.8768 0.0000 -37.7763
# 5 -24.4985 -42.1703 -25.0444 0.0000 57.2193 0.0000
# 6 0.0000 0.0000 0.0000 -37.7763 0.0000 16.9814
#
#
#
# Elastic Compliance Matrix: (Units=1/GPa)
#
#
# Indices 1 2 3 4 5 6 
#
# 1 0.006531 -0.001834 -0.002583 0.000000 0.000314 0.000000
# 2 -0.001834 0.006559 -0.001356 0.000000 0.003456 0.000000
# 3 -0.002583 -0.001356 0.010414 0.000000 0.002453 0.000000
# 4 0.000000 0.000000 0.000000 -0.019547 0.000000 -0.043483
# 5 0.000314 0.003456 0.002453 0.000000 0.021232 0.000000
# 6 0.000000 0.000000 0.000000 -0.043483 0.000000 -0.037844
#
#
# Mechanical properties :
#
#
# Convention : Reuss Voigt Hill
#
# Bulk Modulus (GPa) = 83.61368 106.68966 95.15167
# Shear Modulus (GPa) = 1738.64002 43.50587 891.07294
#
# Velocity S-wave (km/s) = 25.00708 3.95578 17.90254
# Velocity P-wave (km/s) = 29.39182 7.69665 21.48392
#
# Compressibility (1/GPa) = 0.01195977
#
# Stress axis : x y z
#
# Youngs Moduli (GPa) = 153.12756 152.45489 96.02462
#
# Poissons Ratio (x) = 0.27955 0.24798
# Poissons Ratio (y) = 0.28078 0.13020
# Poissons Ratio (z) = 0.39545 0.20671
#
# Static dielectric constant tensor:
#      x y z
#    x -2.077190 0.000000 1.536250 
#    y 0.000000 -0.918610 0.000000 
#    z 1.536250 0.000000 1.691350 
# 
# From -- ./inp_files/94668.got.cif
#   From: 2010.05.17/outbox.cif.g08.bks.cpg/sg15_48_cif.got.tgz:94668.got - 2010.06.03 18:47:42.
