data_PCOD9262043
_publ_section_title
;
Structure prediction by ZEFSAII (Michael W. Deem and Ramdas Pophale) SiO2 
 PCOD9262043
Probable space group: C 2/C
;
_chemical_formula_sum "Si O2"
_cell_formula_units_Z 64
_cell_length_a 8.671913
_cell_length_b 22.087687
_cell_length_c 18.984038
_cell_angle_alpha 90.000000
_cell_angle_beta 93.199435
_cell_angle_gamma 90.000000
_cell_volume 3630.582329
_symmetry_space_group_name_H-M "C 2/C"
_symmetry_group_IT_number 15
_symmetry_cell_setting 'monoclinic'
loop_
_space_group_symop_operation_xyz
x,y,z
-x,y,1/2-z
-x,-y,-z
x,-y,1/2+z
1/2+x,1/2+y,z
1/2-x,1/2+y,1/2-z
1/2-x,1/2-y,-z
1/2+x,1/2-y,1/2+z
loop_
_atom_site_type_symbol
_atom_site_label
_atom_site_fract_x
_atom_site_fract_y
_atom_site_fract_z
Si Si1 0.913072 0.620768 0.674921
Si Si2 0.576256 0.010369 0.613883
Si Si3 0.451612 0.641418 0.826875
Si Si4 0.034650 0.058958 0.048326
Si Si5 0.409266 0.509443 0.675678
Si Si6 0.616307 0.916583 0.969955
Si Si7 0.413296 0.681026 0.977828
Si Si8 0.956996 0.693218 0.539317
O O1 0.730634 0.627197 0.680340
O O2 0.976677 0.669040 0.619408
O O3 0.000000 0.628677 0.750000
O O4 0.949973 0.554355 0.645155
O O5 0.723785 0.006281 0.668448
O O6 0.623560 0.043935 0.542343
O O7 0.504380 0.947518 0.586451
O O8 0.500000 0.664003 0.750000
O O9 0.543532 0.578655 0.842584
O O10 0.468292 0.682057 0.897396
O O11 0.214029 0.076417 0.057065
O O12 0.954829 0.116573 0.011362
O O13 0.967978 0.039241 0.121280
O O14 0.000000 0.000000 0.000000
O O15 0.500000 0.498547 0.750000
O O16 0.556743 0.850906 0.992109
O O17 0.485849 0.736844 0.022527
O O18 0.227221 0.684726 0.977138
#
# Coordination Sequence:
#
# PCOD9262043 Si02
#       8
#     8   8   8   8   8   8   8   8
#     4  10  19  32  52  80 112 145 187 231 280 339
#     4  10  19  32  53  80 112 145 181 236 280 332
#     4  10  19  32  54  80 110 141 180 233 287 337
#     4  12  21  34  57  84 112 146 186 239 285 337
#     4  11  21  34  52  82 117 149 185 229 292 347
#     4  10  20  33  55  84 110 143 188 236 283 334
#     4  10  20  38  59  80 110 150 195 238 276 342
#     4   9  21  37  57  81 109 152 196 232 281 335
#
# _framework density 17.628025000000001
#
# number of rings (size 3 to 8) (size 9 to 14) (size 15 to 20)
#    0.000    1.750    2.500    3.000    3.500    1.500 
#    0.000    0.625    0.000    5.250    0.000    0.000 
#    0.000    0.000    0.000    0.000    0.000    0.000 
#
# Total GULP energy -178492.580721 kJ/mol
# GULP energy per Si atom -5577.893148 kJ/mol
# Density = 1.758790 g / cm^3
# Si number density = 17.628025 Si / 1000 Ang^3
#
#
#
# Elastic Constant Matrix: (Units=GPa)
#
#
# Indices 1 2 3 4 5 6 
#
# 1 46.2960 6.8342 12.2008 0.0000 -7.1223 0.0000
# 2 6.8342 93.9908 26.8396 0.0000 -3.2115 0.0000
# 3 12.2008 26.8396 62.4415 0.0000 1.9292 0.0000
# 4 0.0000 0.0000 0.0000 12.4855 0.0000 0.5228
# 5 -7.1223 -3.2115 1.9292 0.0000 30.0971 0.0000
# 6 0.0000 0.0000 0.0000 0.5228 0.0000 17.4750
#
#
#
# Elastic Compliance Matrix: (Units=1/GPa)
#
#
# Indices 1 2 3 4 5 6 
#
# 1 0.023789 -0.000169 -0.004759 0.000000 0.005917 0.000000
# 2 -0.000169 0.012210 -0.005265 0.000000 0.001600 0.000000
# 3 -0.004759 -0.005265 0.019298 0.000000 -0.002925 0.000000
# 4 0.000000 0.000000 0.000000 0.080193 0.000000 -0.002399
# 5 0.005917 0.001600 -0.002925 0.000000 0.034984 0.000000
# 6 0.000000 0.000000 0.000000 -0.002399 0.000000 0.057296
#
#
# Mechanical properties :
#
#
# Convention : Reuss Voigt Hill
#
# Bulk Modulus (GPa) = 28.64249 32.71973 30.68111
# Shear Modulus (GPa) = 19.24614 22.46844 20.85729
#
# Velocity S-wave (km/s) = 3.30781 3.57401 3.44348
# Velocity P-wave (km/s) = 5.55629 5.96933 5.76651
#
# Compressibility (1/GPa) = 0.03491316
#
# Stress axis : x y z
#
# Youngs Moduli (GPa) = 42.03555 81.90257 51.81857
#
# Poissons Ratio (x) = 0.01382 0.24658
# Poissons Ratio (y) = 0.00709 0.27281
# Poissons Ratio (z) = 0.20003 0.43119
#
# Static dielectric constant tensor:
#      x y z
#    x 1.628080 0.000000 0.004320 
#    y 0.000000 1.580320 0.000000 
#    z 0.004320 0.000000 1.634190 
# 
# From -- ./inp_files/193005.got.cif
#   From: 2010.05.17/outbox.cif.g08.bks.cpg/sg15_97_cif.got.tgz:193005.got - 2010.06.03 18:47:42.
