data_PCOD9262953
_publ_section_title
;
Structure prediction by ZEFSAII (Michael W. Deem and Ramdas Pophale) SiO2 
 PCOD9262953
Probable space group: C 2/C
;
_chemical_formula_sum "Si O2"
_cell_formula_units_Z 64
_cell_length_a 12.465851
_cell_length_b 27.074395
_cell_length_c 18.752419
_cell_angle_alpha 90.000000
_cell_angle_beta 150.072446
_cell_angle_gamma 90.000000
_cell_volume 3157.588133
_symmetry_space_group_name_H-M "C 2/C"
_symmetry_group_IT_number 15
_symmetry_cell_setting 'monoclinic'
loop_
_space_group_symop_operation_xyz
x,y,z
-x,y,1/2-z
-x,-y,-z
x,-y,1/2+z
1/2+x,1/2+y,z
1/2-x,1/2+y,1/2-z
1/2-x,1/2-y,-z
1/2+x,1/2-y,1/2+z
loop_
_atom_site_type_symbol
_atom_site_label
_atom_site_fract_x
_atom_site_fract_y
_atom_site_fract_z
Si Si1 0.581393 0.938649 0.622415
Si Si2 0.189973 0.866714 0.408256
Si Si3 0.520962 0.691166 0.584443
Si Si4 0.034852 0.098307 0.353419
Si Si5 0.856270 0.281410 0.400138
Si Si6 0.290313 0.805102 0.999151
Si Si7 0.632664 0.126140 0.764604
Si Si8 0.529992 0.951606 0.422121
O O1 0.389831 0.902746 0.535170
O O2 0.821156 0.917301 0.771857
O O3 0.557246 0.944452 0.522544
O O4 0.543896 0.992788 0.633372
O O5 0.264182 0.821295 0.401426
O O6 0.000000 0.890882 0.250000
O O7 0.109728 0.842899 0.435763
O O8 0.695890 0.718497 0.738609
O O9 0.390242 0.730639 0.462529
O O10 0.643935 0.654238 0.600804
O O11 0.000000 0.089346 0.250000
O O12 0.096357 0.156281 0.392661
O O13 0.247273 0.064893 0.487917
O O14 0.089361 0.300860 0.507407
O O15 0.250000 0.750000 0.000000
O O16 0.467533 0.830159 0.150985
O O17 0.500000 0.099428 0.750000
O O18 0.641749 0.088476 0.704233
#
# Coordination Sequence:
#
# PCOD9262953 Si02
#       8
#     8   8   8   8   8   8   8   8
#     4  10  19  33  58  85 110 142 186 238 292 349
#     4  10  20  35  54  79 114 151 192 241 293 354
#     4  10  21  36  57  83 115 156 199 239 290 356
#     4   9  18  32  50  79 112 136 173 230 279 329
#     4  10  20  35  55  83 117 156 197 241 295 351
#     4  10  20  33  52  80 112 147 189 236 289 341
#     4  10  20  36  56  78 110 148 188 232 289 359
#     4   9  19  34  54  83 111 141 181 235 297 348
#
# _framework density 20.268633000000001
#
# number of rings (size 3 to 8) (size 9 to 14) (size 15 to 20)
#    0.000    2.250    0.000    4.875    0.000    8.000 
#    0.000    1.250    0.000    9.750    0.000    0.000 
#    0.000    0.000    0.000    0.000    0.000    0.000 
#
# Total GULP energy -178317.282572 kJ/mol
# GULP energy per Si atom -5572.415080 kJ/mol
# Density = 2.022250 g / cm^3
# Si number density = 20.268633 Si / 1000 Ang^3
#
#
#
# Elastic Constant Matrix: (Units=GPa)
#
#
# Indices 1 2 3 4 5 6 
#
# 1 73.0195 28.2114 26.8949 -0.0003 14.6557 -0.0001
# 2 28.2114 107.1500 50.5907 -0.0005 24.0784 -0.0002
# 3 26.8949 50.5907 65.9113 -0.0012 20.8578 -0.0007
# 4 -0.0003 -0.0005 -0.0012 19.9616 -0.0005 -0.8485
# 5 14.6557 24.0784 20.8578 -0.0005 26.7727 0.0000
# 6 -0.0001 -0.0002 -0.0007 -0.8485 0.0000 18.0821
#
#
#
# Elastic Compliance Matrix: (Units=1/GPa)
#
#
# Indices 1 2 3 4 5 6 
#
# 1 0.016730 -0.001313 -0.004372 0.000000 -0.004571 0.000000
# 2 -0.001313 0.015466 -0.009504 0.000000 -0.005786 0.000000
# 3 -0.004372 -0.009504 0.027591 0.000001 -0.010554 0.000001
# 4 0.000000 0.000000 0.000001 0.050196 0.000000 0.002355
# 5 -0.004571 -0.005786 -0.010554 0.000000 0.053280 0.000000
# 6 0.000000 0.000000 0.000001 0.002355 0.000000 0.055414
#
#
# Mechanical properties :
#
#
# Convention : Reuss Voigt Hill
#
# Bulk Modulus (GPa) = 34.00464 50.83056 42.41760
# Shear Modulus (GPa) = 19.31553 22.32221 20.81887
#
# Velocity S-wave (km/s) = 3.09038 3.32221 3.20839
# Velocity P-wave (km/s) = 5.43575 6.31261 5.89051
#
# Compressibility (1/GPa) = 0.02940775
#
# Stress axis : x y z
#
# Youngs Moduli (GPa) = 59.77217 64.65726 36.24404
#
# Poissons Ratio (x) = 0.08492 0.15846
# Poissons Ratio (y) = 0.07851 0.34447
# Poissons Ratio (z) = 0.26133 0.61451
#
# Static dielectric constant tensor:
#      x y z
#    x 1.791170 0.000000 0.000330 
#    y 0.000000 1.720730 0.000000 
#    z 0.000330 0.000000 1.788610 
# 
# From -- ./inp_files/241027.got.cif
#   From: 2010.05.17/outbox.cif.g08.bks.cpg/sg15_121_cif.got.tgz:241027.got - 2010.06.03 18:47:42.
