data_PCOD9262863
_publ_section_title
;
Structure prediction by ZEFSAII (Michael W. Deem and Ramdas Pophale) SiO2 
 PCOD9262863
Probable space group: C 2/C
;
_chemical_formula_sum "Si O2"
_cell_formula_units_Z 40
_cell_length_a 12.257696
_cell_length_b 6.827961
_cell_length_c 25.205177
_cell_angle_alpha 90.000000
_cell_angle_beta 139.284944
_cell_angle_gamma 90.000000
_cell_volume 1376.053791
_symmetry_space_group_name_H-M "C 2/C"
_symmetry_group_IT_number 15
_symmetry_cell_setting 'monoclinic'
loop_
_space_group_symop_operation_xyz
x,y,z
-x,y,1/2-z
-x,-y,-z
x,-y,1/2+z
1/2+x,1/2+y,z
1/2-x,1/2+y,1/2-z
1/2-x,1/2-y,-z
1/2+x,1/2-y,1/2+z
loop_
_atom_site_type_symbol
_atom_site_label
_atom_site_fract_x
_atom_site_fract_y
_atom_site_fract_z
Si Si1 0.518341 0.362472 0.874767
Si Si2 0.145231 0.872206 0.504832
Si Si3 0.323753 0.805804 0.850531
Si Si4 0.341349 0.338646 0.159945
Si Si5 0.125232 0.500640 0.728210
O O1 0.606384 0.420617 0.962607
O O2 0.604085 0.493864 0.860914
O O3 0.323562 0.426438 0.805893
O O4 0.509161 0.140298 0.853044
O O5 0.250000 0.750000 0.500000
O O6 0.237877 0.830708 0.593891
O O7 0.964150 0.766275 0.442164
O O8 0.165013 0.664727 0.788463
O O9 0.263578 0.028567 0.838064
O O10 0.411414 0.813656 0.824457
O O11 0.500000 0.239146 0.250000
#
# Coordination Sequence:
#
# PCOD9262863 Si02
#       5
#     8   8   8   8   8
#     4   9  18  33  54  78 109 137 181 218 269 317
#     4   9  20  35  55  82 107 143 178 223 267 321
#     4  10  19  33  57  80 108 139 183 219 265 315
#     4  11  18  33  56  80 103 140 188 220 260 321
#     4   9  16  30  53  78 103 141 173 218 263 315
#
# _framework density 29.068631
#
# number of rings (size 3 to 8) (size 9 to 14) (size 15 to 20)
#    0.000    2.400    4.000    0.600    0.000    0.000 
#    0.000    5.000    0.000   52.800    0.000    0.000 
#    0.000    0.000    0.000    0.000    0.000    0.000 
#
# Total GULP energy -111365.889756 kJ/mol
# GULP energy per Si atom -5568.294488 kJ/mol
# Density = 2.900247 g / cm^3
# Si number density = 29.068631 Si / 1000 Ang^3
#
#
#
# Elastic Constant Matrix: (Units=GPa)
#
#
# Indices 1 2 3 4 5 6 
#
# 1 68.4749 3.7375 28.1375 0.0000 -0.9023 0.0000
# 2 3.7375 113.7901 29.1062 0.0000 0.3820 0.0000
# 3 28.1375 29.1062 211.2297 0.0000 -3.9530 0.0000
# 4 0.0000 0.0000 0.0000 34.4577 0.0000 28.4525
# 5 -0.9023 0.3820 -3.9530 0.0000 39.2783 0.0000
# 6 0.0000 0.0000 0.0000 28.4525 0.0000 -67.2785
#
#
#
# Elastic Compliance Matrix: (Units=1/GPa)
#
#
# Indices 1 2 3 4 5 6 
#
# 1 0.015450 0.000018 -0.002058 0.000000 0.000148 0.000000
# 2 0.000018 0.009111 -0.001262 0.000000 -0.000215 0.000000
# 3 -0.002058 -0.001262 0.005191 0.000000 0.000487 0.000000
# 4 0.000000 0.000000 0.000000 0.021510 0.000000 0.009097
# 5 0.000148 -0.000215 0.000487 0.000000 0.025514 0.000000
# 6 0.000000 0.000000 0.000000 0.009097 0.000000 -0.011017
#
#
# Mechanical properties :
#
#
# Convention : Reuss Voigt Hill
#
# Bulk Modulus (GPa) = 43.19661 57.27302 50.23482
# Shear Modulus (GPa) = 62.43803 23.45906 42.94855
#
# Velocity S-wave (km/s) = 4.63963 2.84390 3.84798
# Velocity P-wave (km/s) = 6.60258 5.52532 6.08782
#
# Compressibility (1/GPa) = 0.02314996
#
# Stress axis : x y z
#
# Youngs Moduli (GPa) = 64.72300 109.75725 192.62922
#
# Poissons Ratio (x) = -0.00202 0.39641
# Poissons Ratio (y) = -0.00119 0.24308
# Poissons Ratio (z) = 0.13319 0.13851
#
# Static dielectric constant tensor:
#      x y z
#    x 3.488490 0.000000 -0.146050 
#    y 0.000000 2.399050 0.000000 
#    z -0.146050 0.000000 2.225260 
# 
# From -- ./inp_files/241716.got.cif
#   From: 2010.05.17/outbox.cif.g08.bks.cpg/sg15_121_cif.got.tgz:241716.got - 2010.06.03 18:47:42.
