data_PCOD9262258
_publ_section_title
;
Structure prediction by ZEFSAII (Michael W. Deem and Ramdas Pophale) SiO2 
 PCOD9262258
Probable space group: C 2/C
;
_chemical_formula_sum "Si O2"
_cell_formula_units_Z 64
_cell_length_a 19.569328
_cell_length_b 27.158064
_cell_length_c 9.015576
_cell_angle_alpha 90.000000
_cell_angle_beta 144.798665
_cell_angle_gamma 90.000000
_cell_volume 2762.045722
_symmetry_space_group_name_H-M "C 2/C"
_symmetry_group_IT_number 15
_symmetry_cell_setting 'monoclinic'
loop_
_space_group_symop_operation_xyz
x,y,z
-x,y,1/2-z
-x,-y,-z
x,-y,1/2+z
1/2+x,1/2+y,z
1/2-x,1/2+y,1/2-z
1/2-x,1/2-y,-z
1/2+x,1/2-y,1/2+z
loop_
_atom_site_type_symbol
_atom_site_label
_atom_site_fract_x
_atom_site_fract_y
_atom_site_fract_z
Si Si1 0.891086 0.202915 0.440011
Si Si2 0.752920 0.375923 0.285963
Si Si3 0.051895 0.690401 0.508538
Si Si4 0.103874 0.536643 0.320252
Si Si5 0.099478 0.902980 0.552579
Si Si6 0.785660 0.695161 0.113521
Si Si7 0.883539 0.043518 0.122579
Si Si8 0.304039 0.038392 0.310856
O O1 0.892966 0.255484 0.361496
O O2 0.908245 0.151196 0.388133
O O3 0.775947 0.193503 0.336273
O O4 0.000000 0.205485 0.750000
O O5 0.845856 0.350924 0.332620
O O6 0.804633 0.421269 0.472560
O O7 0.731601 0.337069 0.381153
O O8 0.652590 0.404329 0.016838
O O9 0.000000 0.692262 0.250000
O O10 0.927489 0.684040 0.375691
O O11 0.090423 0.542026 0.121124
O O12 0.150598 0.483761 0.455506
O O13 0.000000 0.547660 0.250000
O O14 0.089964 0.944514 0.660270
O O15 0.225898 0.913868 0.699127
O O16 0.000000 0.905801 0.250000
O O17 0.750000 0.750000 0.000000
O O18 0.000000 0.024610 0.250000
O O19 0.782406 0.003047 0.914021
#
# Coordination Sequence:
#
# PCOD9262258 Si02
#       8
#     8   8   8   8   8   8   8   8
#     4  10  19  32  56  90 121 153 207 254 289 357
#     4  10  22  37  60  87 126 161 206 259 306 368
#     4   9  17  33  55  90 122 163 202 251 294 359
#     4  11  22  39  64  92 121 166 211 254 306 373
#     4  11  25  40  64  90 120 159 205 255 319 386
#     4  11  17  31  60  91 126 161 210 247 299 357
#     4  11  26  42  62  92 125 161 203 261 327 379
#     4  11  23  42  63  88 128 159 204 259 317 372
#
# _framework density 23.171233000000001
#
# number of rings (size 3 to 8) (size 9 to 14) (size 15 to 20)
#    0.000    1.500    5.000    2.625    7.000    1.000 
#    0.000    0.625    0.000    0.000    0.000    0.000 
#    0.000    0.000    0.000    0.000    0.000    0.000 
#
# Total GULP energy -178483.564472 kJ/mol
# GULP energy per Si atom -5577.611390 kJ/mol
# Density = 2.311849 g / cm^3
# Si number density = 23.171233 Si / 1000 Ang^3
#
#
#
# Elastic Constant Matrix: (Units=GPa)
#
#
# Indices 1 2 3 4 5 6 
#
# 1 90.3462 -14.7317 10.8422 0.0000 16.3994 0.0000
# 2 -14.7317 94.6525 17.8809 0.0000 -6.5706 0.0000
# 3 10.8422 17.8809 45.8698 0.0000 0.2984 0.0000
# 4 0.0000 0.0000 0.0000 14.9785 0.0000 0.7345
# 5 16.3994 -6.5706 0.2984 0.0000 19.6510 0.0000
# 6 0.0000 0.0000 0.0000 0.7345 0.0000 27.5849
#
#
#
# Elastic Compliance Matrix: (Units=1/GPa)
#
#
# Indices 1 2 3 4 5 6 
#
# 1 0.013868 0.002176 -0.004056 0.000000 -0.010784 0.000000
# 2 0.002176 0.012050 -0.005227 0.000000 0.002293 0.000000
# 3 -0.004056 -0.005227 0.024789 0.000000 0.001261 0.000000
# 4 0.000000 0.000000 0.000000 0.066850 0.000000 -0.001780
# 5 -0.010784 0.002293 0.001261 0.000000 0.060635 0.000000
# 6 0.000000 0.000000 0.000000 -0.001780 0.000000 0.036299
#
#
# Mechanical properties :
#
#
# Convention : Reuss Voigt Hill
#
# Bulk Modulus (GPa) = 27.40232 28.76126 28.08179
# Shear Modulus (GPa) = 20.75828 26.90135 23.82981
#
# Velocity S-wave (km/s) = 2.99635 3.41101 3.21038
# Velocity P-wave (km/s) = 4.88083 5.28704 5.08799
#
# Compressibility (1/GPa) = 0.03649325
#
# Stress axis : x y z
#
# Youngs Moduli (GPa) = 72.11099 82.98668 40.34089
#
# Poissons Ratio (x) = -0.18058 0.16362
# Poissons Ratio (y) = -0.15691 0.21085
# Poissons Ratio (z) = 0.29248 0.43374
#
# Static dielectric constant tensor:
#      x y z
#    x 1.949180 0.000000 0.081410 
#    y 0.000000 1.905860 0.000000 
#    z 0.081410 0.000000 1.857670 
# 
# From -- ./inp_files/52869.got.cif
#   From: 2010.05.17/outbox.cif.g08.bks.cpg/sg15_27_cif.got.tgz:52869.got - 2010.06.03 18:47:42.
