data_PCOD9262691
_publ_section_title
;
Structure prediction by ZEFSAII (Michael W. Deem and Ramdas Pophale) SiO2 
 PCOD9262691
Probable space group: C 2/C
;
_chemical_formula_sum "Si O2"
_cell_formula_units_Z 56
_cell_length_a 8.917481
_cell_length_b 27.268221
_cell_length_c 19.800937
_cell_angle_alpha 90.000000
_cell_angle_beta 140.172301
_cell_angle_gamma 90.000000
_cell_volume 3083.834194
_symmetry_space_group_name_H-M "C 2/C"
_symmetry_group_IT_number 15
_symmetry_cell_setting 'monoclinic'
loop_
_space_group_symop_operation_xyz
x,y,z
-x,y,1/2-z
-x,-y,-z
x,-y,1/2+z
1/2+x,1/2+y,z
1/2-x,1/2+y,1/2-z
1/2-x,1/2-y,-z
1/2+x,1/2-y,1/2+z
loop_
_atom_site_type_symbol
_atom_site_label
_atom_site_fract_x
_atom_site_fract_y
_atom_site_fract_z
Si Si1 0.549305 0.903908 0.950300
Si Si2 0.990412 0.737830 0.322838
Si Si3 0.787820 0.919166 0.541326
Si Si4 0.451455 0.519809 0.558328
Si Si5 0.271346 0.897583 0.132744
Si Si6 0.848888 0.149261 0.264959
Si Si7 0.609126 0.679929 0.965974
O O1 0.415111 0.915746 0.973067
O O2 0.352818 0.889122 0.827472
O O3 0.715840 0.947926 0.983647
O O4 0.712788 0.855633 0.013260
O O5 0.782077 0.698270 0.256972
O O6 0.000000 0.756298 0.250000
O O7 0.228982 0.709165 0.425401
O O8 0.980653 0.781804 0.372788
O O9 0.692434 0.914259 0.432056
O O10 0.976466 0.876657 0.622414
O O11 0.918854 0.971648 0.592115
O O12 0.500000 0.500000 0.500000
O O13 0.664214 0.557838 0.640721
O O14 0.500000 0.879819 0.250000
O O15 0.075871 0.855624 0.063527
O O16 0.000000 0.159787 0.250000
#
# Coordination Sequence:
#
# PCOD9262691 Si02
#       7
#     8   8   8   8   8   8   8
#     4   9  18  35  54  76 108 137 169 215 261 309
#     4  10  19  34  57  78 100 135 174 214 265 315
#     4  10  19  33  55  79 104 137 176 214 257 307
#     4   9  19  34  52  77 107 140 176 211 253 308
#     4  10  21  36  51  73 107 142 176 214 257 307
#     4   9  19  34  54  80 105 130 168 220 267 307
#     4   9  20  36  52  76 106 134 172 218 259 312
#
# _framework density 18.159212
#
# number of rings (size 3 to 8) (size 9 to 14) (size 15 to 20)
#    0.000    2.571    0.000    1.286    0.000    5.143 
#    0.000    3.571    0.000    8.571    0.000    0.000 
#    0.000    0.000    0.000    0.000    0.000    0.000 
#
# Total GULP energy -156026.156375 kJ/mol
# GULP energy per Si atom -5572.362728 kJ/mol
# Density = 1.811788 g / cm^3
# Si number density = 18.159212 Si / 1000 Ang^3
#
#
#
# Elastic Constant Matrix: (Units=GPa)
#
#
# Indices 1 2 3 4 5 6 
#
# 1 80.1132 21.7311 29.7913 0.0000 2.1523 0.0000
# 2 21.7311 60.6885 11.0321 0.0000 -4.4438 0.0000
# 3 29.7913 11.0321 51.3824 0.0001 -5.8622 0.0001
# 4 0.0000 0.0000 0.0001 18.2581 0.0001 -5.2912
# 5 2.1523 -4.4438 -5.8622 0.0001 20.2928 0.0001
# 6 0.0000 0.0000 0.0001 -5.2912 0.0001 12.8472
#
#
#
# Elastic Compliance Matrix: (Units=1/GPa)
#
#
# Indices 1 2 3 4 5 6 
#
# 1 0.017634 -0.004953 -0.009821 0.000000 -0.005792 0.000000
# 2 -0.004953 0.018691 -0.000635 0.000000 0.004435 0.000000
# 3 -0.009821 -0.000635 0.026261 0.000000 0.008489 0.000000
# 4 0.000000 0.000000 0.000000 0.062194 0.000000 0.025615
# 5 -0.005792 0.004435 0.008489 0.000000 0.053316 0.000000
# 6 0.000000 0.000000 0.000000 0.025615 0.000000 0.088388
#
#
# Mechanical properties :
#
#
# Convention : Reuss Voigt Hill
#
# Bulk Modulus (GPa) = 31.47946 35.25480 33.36713
# Shear Modulus (GPa) = 16.23943 18.92158 17.58051
#
# Velocity S-wave (km/s) = 2.99370 3.23148 3.11486
# Velocity P-wave (km/s) = 5.41503 5.77752 5.59921
#
# Compressibility (1/GPa) = 0.03176674
#
# Stress axis : x y z
#
# Youngs Moduli (GPa) = 56.70968 53.50056 38.07902
#
# Poissons Ratio (x) = 0.26499 0.37399
# Poissons Ratio (y) = 0.28088 0.02420
# Poissons Ratio (z) = 0.55696 0.03400
#
# Static dielectric constant tensor:
#      x y z
#    x 1.610540 0.000000 0.014470 
#    y 0.000000 1.633930 0.000000 
#    z 0.014470 0.000000 1.600720 
# 
# From -- ./inp_files/81295.got.cif
#   From: 2010.05.17/outbox.cif.g08.bks.cpg/sg15_41_cif.got.tgz:81295.got - 2010.06.03 18:47:42.
