data_PCOD9262767
_publ_section_title
;
Structure prediction by ZEFSAII (Michael W. Deem and Ramdas Pophale) SiO2 
 PCOD9262767
Probable space group: C 2/C
;
_chemical_formula_sum "Si O2"
_cell_formula_units_Z 44
_cell_length_a 23.103364
_cell_length_b 14.614914
_cell_length_c 13.877407
_cell_angle_alpha 90.000000
_cell_angle_beta 21.832296
_cell_angle_gamma 90.000000
_cell_volume 1742.591692
_symmetry_space_group_name_H-M "C 2/C"
_symmetry_group_IT_number 15
_symmetry_cell_setting 'monoclinic'
loop_
_space_group_symop_operation_xyz
x,y,z
-x,y,1/2-z
-x,-y,-z
x,-y,1/2+z
1/2+x,1/2+y,z
1/2-x,1/2+y,1/2-z
1/2-x,1/2-y,-z
1/2+x,1/2-y,1/2+z
loop_
_atom_site_type_symbol
_atom_site_label
_atom_site_fract_x
_atom_site_fract_y
_atom_site_fract_z
Si Si1 0.000000 0.267455 0.250000
Si Si2 0.203301 0.675845 0.656721
Si Si3 0.817525 0.354722 0.033031
Si Si4 0.679571 0.492586 0.627006
Si Si5 0.176145 0.978049 0.850037
Si Si6 0.375502 0.171670 0.138028
O O1 0.851472 0.202182 0.491217
O O2 0.972929 0.328820 0.385728
O O3 0.250000 0.750000 0.500000
O O4 0.224006 0.573023 0.589116
O O5 0.029400 0.683071 0.966964
O O6 0.756131 0.409983 0.033222
O O7 0.772532 0.429111 0.184717
O O8 0.726603 0.260707 0.184578
O O9 0.000000 0.340887 0.750000
O O10 0.673714 0.441091 0.741566
O O11 0.505933 0.502545 0.854908
O O12 0.257680 0.911823 0.800331
#
# Coordination Sequence:
#
# PCOD9262767 Si02
#       6
#     4   8   8   8   8   8
#     4  10  22  30  56  90 124 150 192 252 308 344
#     4  10  19  33  55  90 122 152 194 249 299 352
#     4  10  21  36  60  89 121 160 208 239 291 367
#     4   9  19  35  63  86 118 158 209 246 289 364
#     4   9  18  33  61  86 114 155 204 249 292 341
#     4  11  21  34  62  91 124 153 201 253 297 356
#
# _framework density 25.249746999999999
#
# number of rings (size 3 to 8) (size 9 to 14) (size 15 to 20)
#    1.091    1.091    0.000    5.455    3.818    0.000 
#    0.000    0.909    8.000    5.455    0.000    0.000 
#    0.000    0.000    0.000    0.000    0.000    0.000 
#
# Total GULP energy -122778.946081 kJ/mol
# GULP energy per Si atom -5580.861186 kJ/mol
# Density = 2.519228 g / cm^3
# Si number density = 25.249747 Si / 1000 Ang^3
#
#
#
# Elastic Constant Matrix: (Units=GPa)
#
#
# Indices 1 2 3 4 5 6 
#
# 1 56.4125 18.2752 26.6232 -0.0002 -10.2162 0.0000
# 2 18.2752 148.1889 92.4649 -0.0020 -26.0342 0.0011
# 3 26.6232 92.4649 238.9751 -0.0019 -59.1834 0.0011
# 4 -0.0002 -0.0020 -0.0019 39.3378 0.0006 -7.9946
# 5 -10.2162 -26.0342 -59.1834 0.0006 37.2522 -0.0004
# 6 0.0000 0.0011 0.0011 -7.9946 -0.0004 30.8819
#
#
#
# Elastic Compliance Matrix: (Units=1/GPa)
#
#
# Indices 1 2 3 4 5 6 
#
# 1 0.019096 -0.001274 -0.000920 0.000000 0.002885 0.000000
# 2 -0.001274 0.009015 -0.003087 0.000000 0.001046 0.000000
# 3 -0.000920 -0.003087 0.008053 0.000000 0.010385 0.000000
# 4 0.000000 0.000000 0.000000 0.026833 0.000000 0.006946
# 5 0.002885 0.001046 0.010385 0.000000 0.044865 0.000000
# 6 0.000000 0.000000 0.000000 0.006946 0.000000 0.034180
#
#
# Mechanical properties :
#
#
# Convention : Reuss Voigt Hill
#
# Bulk Modulus (GPa) = 39.05899 79.81147 59.43523
# Shear Modulus (GPa) = 31.02921 41.90859 36.46890
#
# Velocity S-wave (km/s) = 3.50936 4.07844 3.80455
# Velocity P-wave (km/s) = 5.65008 7.33864 6.54901
#
# Compressibility (1/GPa) = 0.02560230
#
# Stress axis : x y z
#
# Youngs Moduli (GPa) = 52.36712 110.92132 124.17206
#
# Poissons Ratio (x) = 0.14133 0.11423
# Poissons Ratio (y) = 0.06672 0.38334
# Poissons Ratio (z) = 0.04817 0.34243
#
# Static dielectric constant tensor:
#      x y z
#    x 2.799310 0.000000 -0.299000 
#    y 0.000000 1.933690 0.000000 
#    z -0.299000 0.000000 2.118030 
# 
# From -- ./inp_files/222755.got.cif
#   From: 2010.05.17/outbox.cif.g08.bks.cpg/sg15_112_cif.got.tgz:222755.got - 2010.06.03 18:47:42.
