data_PCOD9262179
_publ_section_title
;
Structure prediction by ZEFSAII (Michael W. Deem and Ramdas Pophale) SiO2 
 PCOD9262179
Probable space group: C 2/C
;
_chemical_formula_sum "Si O2"
_cell_formula_units_Z 60
_cell_length_a 7.012405
_cell_length_b 24.644971
_cell_length_c 18.515762
_cell_angle_alpha 90.000000
_cell_angle_beta 56.411848
_cell_angle_gamma 90.000000
_cell_volume 2665.633779
_symmetry_space_group_name_H-M "C 2/C"
_symmetry_group_IT_number 15
_symmetry_cell_setting 'monoclinic'
loop_
_space_group_symop_operation_xyz
x,y,z
-x,y,1/2-z
-x,-y,-z
x,-y,1/2+z
1/2+x,1/2+y,z
1/2-x,1/2+y,1/2-z
1/2-x,1/2-y,-z
1/2+x,1/2-y,1/2+z
loop_
_atom_site_type_symbol
_atom_site_label
_atom_site_fract_x
_atom_site_fract_y
_atom_site_fract_z
Si Si1 0.833457 0.012619 0.914274
Si Si2 0.255148 0.222079 0.230258
Si Si3 0.500000 0.566919 0.750000
Si Si4 0.482582 0.391716 0.043393
Si Si5 0.405628 0.083436 0.978938
Si Si6 0.935672 0.696819 0.038665
Si Si7 0.751657 0.151492 0.729533
Si Si8 0.916276 0.797278 0.582985
O O1 0.015447 0.027991 0.815399
O O2 0.896572 0.050322 0.969605
O O3 0.792888 0.949829 0.936366
O O4 0.600920 0.038544 0.930910
O O5 0.418261 0.205428 0.128926
O O6 0.283890 0.285898 0.239693
O O7 0.000000 0.214339 0.250000
O O8 0.245833 0.197994 0.313050
O O9 0.292978 0.610072 0.786023
O O10 0.438274 0.364635 0.130168
O O11 0.228717 0.399884 0.064158
O O12 0.601170 0.348928 0.965742
O O13 0.496714 0.135692 0.002430
O O14 0.675267 0.702835 0.062249
O O15 0.083905 0.742192 0.965247
O O16 0.500000 0.145706 0.750000
#
# Coordination Sequence:
#
# PCOD9262179 Si02
#       8
#     8   8   4   8   8   8   8   8
#     4  10  22  39  55  83 111 144 196 238 275 333
#     4   9  17  29  50  82 115 145 182 223 275 347
#     4  10  22  36  52  84 112 138 190 240 274 328
#     4  10  19  36  58  82 109 146 186 232 281 336
#     4  10  21  37  61  78 109 152 188 231 285 335
#     4   9  17  31  52  83 112 147 186 225 281 341
#     4  10  19  32  55  80 113 144 177 228 280 332
#     4   9  17  29  51  84 112 144 185 226 277 344
#
# _framework density 22.508718999999999
#
# number of rings (size 3 to 8) (size 9 to 14) (size 15 to 20)
#    0.000    2.400    1.333    1.200    7.467    0.000 
#    6.000    2.000    0.000    0.000    0.000    0.000 
#    0.000    0.000    0.000    0.000    0.000    0.000 
#
# Total GULP energy -167441.875080 kJ/mol
# GULP energy per Si atom -5581.395836 kJ/mol
# Density = 2.245749 g / cm^3
# Si number density = 22.508719 Si / 1000 Ang^3
#
#
#
# Elastic Constant Matrix: (Units=GPa)
#
#
# Indices 1 2 3 4 5 6 
#
# 1 73.0037 7.9970 11.8323 0.0000 8.2083 0.0000
# 2 7.9970 91.3552 36.0260 0.0000 14.5764 0.0000
# 3 11.8323 36.0260 108.9759 0.0000 23.9737 0.0000
# 4 0.0000 0.0000 0.0000 27.9546 0.0000 -1.5564
# 5 8.2083 14.5764 23.9737 0.0000 34.4352 0.0000
# 6 0.0000 0.0000 0.0000 -1.5564 0.0000 21.0359
#
#
#
# Elastic Compliance Matrix: (Units=1/GPa)
#
#
# Indices 1 2 3 4 5 6 
#
# 1 0.014176 -0.000511 -0.000797 0.000000 -0.002608 0.000000
# 2 -0.000511 0.012851 -0.003570 0.000000 -0.002833 0.000000
# 3 -0.000797 -0.003570 0.011890 0.000000 -0.006577 0.000000
# 4 0.000000 0.000000 0.000000 0.035920 0.000000 0.002658
# 5 -0.002608 -0.002833 -0.006577 0.000000 0.035440 0.000000
# 6 0.000000 0.000000 0.000000 0.002658 0.000000 0.047734
#
#
# Mechanical properties :
#
#
# Convention : Reuss Voigt Hill
#
# Bulk Modulus (GPa) = 34.29004 42.78282 38.53643
# Shear Modulus (GPa) = 28.17130 31.18377 29.67754
#
# Velocity S-wave (km/s) = 3.54160 3.72615 3.63504
# Velocity P-wave (km/s) = 5.65606 6.12868 5.89711
#
# Compressibility (1/GPa) = 0.02916299
#
# Stress axis : x y z
#
# Youngs Moduli (GPa) = 70.54048 77.81704 84.10626
#
# Poissons Ratio (x) = 0.03974 0.06700
# Poissons Ratio (y) = 0.03602 0.30023
# Poissons Ratio (z) = 0.05619 0.27778
#
# Static dielectric constant tensor:
#      x y z
#    x 1.927420 0.000000 -0.045760 
#    y 0.000000 1.812130 0.000000 
#    z -0.045760 0.000000 1.900890 
# 
# From -- ./inp_files/192545.got.cif
#   From: 2010.05.17/outbox.cif.g08.bks.cpg/sg15_97_cif.got.tgz:192545.got - 2010.06.03 18:47:42.
