data_PCOD9262623
_publ_section_title
;
Structure prediction by ZEFSAII (Michael W. Deem and Ramdas Pophale) SiO2 
 PCOD9262623
Probable space group: C 2/C
;
_chemical_formula_sum "Si O2"
_cell_formula_units_Z 56
_cell_length_a 24.300441
_cell_length_b 19.043254
_cell_length_c 5.421058
_cell_angle_alpha 90.000000
_cell_angle_beta 92.913130
_cell_angle_gamma 90.000000
_cell_volume 2505.404098
_symmetry_space_group_name_H-M "C 2/C"
_symmetry_group_IT_number 15
_symmetry_cell_setting 'monoclinic'
loop_
_space_group_symop_operation_xyz
x,y,z
-x,y,1/2-z
-x,-y,-z
x,-y,1/2+z
1/2+x,1/2+y,z
1/2-x,1/2+y,1/2-z
1/2-x,1/2-y,-z
1/2+x,1/2-y,1/2+z
loop_
_atom_site_type_symbol
_atom_site_label
_atom_site_fract_x
_atom_site_fract_y
_atom_site_fract_z
Si Si1 0.867970 0.155884 0.709982
Si Si2 0.769919 0.954872 0.219393
Si Si3 0.437677 0.325969 0.731224
Si Si4 0.331431 0.094785 0.073597
Si Si5 0.196118 0.282902 0.606433
Si Si6 0.920036 0.523483 0.612295
Si Si7 0.401234 0.824079 0.249108
O O1 0.823148 0.094354 0.717642
O O2 0.902445 0.150896 0.463928
O O3 0.831404 0.227322 0.711175
O O4 0.907088 0.157122 0.963819
O O5 0.770244 0.993336 0.482274
O O6 0.712824 0.913758 0.155087
O O7 0.500000 0.354577 0.750000
O O8 0.441380 0.241108 0.762591
O O9 0.299403 0.140092 0.270519
O O10 0.361819 0.020874 0.136766
O O11 0.383060 0.142664 0.003136
O O12 0.250000 0.250000 0.500000
O O13 0.152800 0.290182 0.378804
O O14 0.946853 0.491454 0.379331
O O15 0.915236 0.607155 0.591277
#
# Coordination Sequence:
#
# PCOD9262623 Si02
#       7
#     8   8   8   8   8   8   8
#     4  11  25  46  67  98 134 171 214 281 340 388
#     4  12  27  42  65  96 138 181 217 259 316 403
#     4  11  24  45  74  98 123 166 225 286 349 394
#     4  11  22  36  59  92 137 185 222 246 308 388
#     4  11  23  35  60  94 136 180 216 267 312 396
#     4  10  19  33  54  80 121 172 215 247 290 363
#     4  10  21  37  57  90 128 170 217 271 314 379
#
# _framework density 22.351685
#
# number of rings (size 3 to 8) (size 9 to 14) (size 15 to 20)
#    0.000    1.143    2.857    3.857    8.000    1.143 
#    0.000    0.000    0.000   12.000    0.000    0.000 
#    0.000    0.000    0.000    0.000    0.000    0.000 
#
# Total GULP energy -156329.145962 kJ/mol
# GULP energy per Si atom -5583.183784 kJ/mol
# Density = 2.230081 g / cm^3
# Si number density = 22.351685 Si / 1000 Ang^3
#
#
#
# Elastic Constant Matrix: (Units=GPa)
#
#
# Indices 1 2 3 4 5 6 
#
# 1 102.1230 24.7013 31.7487 0.0000 -0.5582 0.0000
# 2 24.7013 43.4428 25.8128 0.0000 1.6627 0.0000
# 3 31.7487 25.8128 126.9834 0.0000 -10.7543 0.0000
# 4 0.0000 0.0000 0.0000 34.2374 0.0000 -6.2720
# 5 -0.5582 1.6627 -10.7543 0.0000 30.1615 0.0000
# 6 0.0000 0.0000 0.0000 -6.2720 0.0000 10.7306
#
#
#
# Elastic Compliance Matrix: (Units=1/GPa)
#
#
# Indices 1 2 3 4 5 6 
#
# 1 0.011701 -0.005578 -0.001802 0.000000 -0.000118 0.000000
# 2 -0.005578 0.029192 -0.004830 0.000000 -0.003435 0.000000
# 3 -0.001802 -0.004830 0.009618 0.000000 0.003662 0.000000
# 4 0.000000 0.000000 0.000000 0.032710 0.000000 0.019119
# 5 -0.000118 -0.003435 0.003662 0.000000 0.034648 0.000000
# 6 0.000000 0.000000 0.000000 0.019119 0.000000 0.104366
#
#
# Mechanical properties :
#
#
# Convention : Reuss Voigt Hill
#
# Bulk Modulus (GPa) = 38.32826 48.56388 43.44607
# Shear Modulus (GPa) = 19.58090 27.71164 23.64627
#
# Velocity S-wave (km/s) = 2.96300 3.52490 3.25610
# Velocity P-wave (km/s) = 5.37502 6.19200 5.79792
#
# Compressibility (1/GPa) = 0.02609041
#
# Stress axis : x y z
#
# Youngs Moduli (GPa) = 85.46460 34.25602 103.97677
#
# Poissons Ratio (x) = 0.19108 0.18732
# Poissons Ratio (y) = 0.47672 0.50224
# Poissons Ratio (z) = 0.15397 0.16547
#
# Static dielectric constant tensor:
#      x y z
#    x 1.834740 0.000000 -0.028810 
#    y 0.000000 1.887040 0.000000 
#    z -0.028810 0.000000 1.879290 
# 
# From -- ./inp_files/15688.got.cif
#   From: 2010.05.17/outbox.cif.g08.bks.cpg/sg15_8_cif.got.tgz:15688.got - 2010.06.03 18:47:42.
