data_PCOD9262111
_publ_section_title
;
Structure prediction by ZEFSAII (Michael W. Deem and Ramdas Pophale) SiO2 
 PCOD9262111
Probable space group: C 2/C
;
_chemical_formula_sum "Si O2"
_cell_formula_units_Z 56
_cell_length_a 5.399052
_cell_length_b 22.586968
_cell_length_c 26.257935
_cell_angle_alpha 90.000000
_cell_angle_beta 115.604683
_cell_angle_gamma 90.000000
_cell_volume 2887.652319
_symmetry_space_group_name_H-M "C 2/C"
_symmetry_group_IT_number 15
_symmetry_cell_setting 'monoclinic'
loop_
_space_group_symop_operation_xyz
x,y,z
-x,y,1/2-z
-x,-y,-z
x,-y,1/2+z
1/2+x,1/2+y,z
1/2-x,1/2+y,1/2-z
1/2-x,1/2-y,-z
1/2+x,1/2-y,1/2+z
loop_
_atom_site_type_symbol
_atom_site_label
_atom_site_fract_x
_atom_site_fract_y
_atom_site_fract_z
Si Si1 0.926411 0.346354 0.986911
Si Si2 0.123138 0.828573 0.602256
Si Si3 0.777347 0.432854 0.549657
Si Si4 0.375343 0.717774 0.583523
Si Si5 0.017938 0.330395 0.362951
Si Si6 0.328513 0.726841 0.284329
Si Si7 0.260366 0.068752 0.563847
O O1 0.656191 0.309588 0.951026
O O2 0.971790 0.393262 0.946223
O O3 0.882058 0.388744 0.031269
O O4 0.184005 0.304880 0.020783
O O5 0.162099 0.896115 0.587562
O O6 0.353077 0.785890 0.598190
O O7 0.104253 0.812931 0.659826
O O8 0.841741 0.500468 0.567139
O O9 0.561718 0.431278 0.482330
O O10 0.685710 0.699967 0.599724
O O11 0.227326 0.684939 0.618879
O O12 0.116405 0.398832 0.375283
O O13 0.917028 0.294775 0.304551
O O14 0.500000 0.707756 0.250000
O O15 0.000000 0.724145 0.250000
#
# Coordination Sequence:
#
# PCOD9262111 Si02
#       7
#     8   8   8   8   8   8   8
#     4  10  19  32  53  86 124 161 190 224 276 356
#     4  10  23  34  54  87 114 154 195 236 299 351
#     4  10  19  33  56  82 129 159 191 218 281 353
#     4  10  20  34  55  86 124 152 182 229 282 353
#     4  10  20  38  60  85 111 151 193 239 293 338
#     4  11  24  42  63  84 108 145 197 259 308 342
#     4   9  19  35  52  88 120 161 193 227 268 352
#
# _framework density 19.392917000000001
#
# number of rings (size 3 to 8) (size 9 to 14) (size 15 to 20)
#    0.000    2.000    1.429    2.571    6.000    1.714 
#    0.000    0.000    0.000    0.857    0.000    0.000 
#    0.000    0.000    0.000    0.000    0.000    0.000 
#
# Total GULP energy -155925.721629 kJ/mol
# GULP energy per Si atom -5568.775772 kJ/mol
# Density = 1.934878 g / cm^3
# Si number density = 19.392917 Si / 1000 Ang^3
#
#
#
# Elastic Constant Matrix: (Units=GPa)
#
#
# Indices 1 2 3 4 5 6 
#
# 1 69.2163 5.7519 14.6552 0.0000 2.2933 0.0000
# 2 5.7519 66.4079 12.1096 0.0000 2.1515 0.0000
# 3 14.6552 12.1096 64.8133 0.0000 -6.5568 0.0000
# 4 0.0000 0.0000 0.0000 25.6527 0.0000 0.0678
# 5 2.2933 2.1515 -6.5568 0.0000 28.2167 0.0000
# 6 0.0000 0.0000 0.0000 0.0678 0.0000 10.9927
#
#
#
# Elastic Compliance Matrix: (Units=1/GPa)
#
#
# Indices 1 2 3 4 5 6 
#
# 1 0.015318 -0.000613 -0.003554 0.000000 -0.002024 0.000000
# 2 -0.000613 0.015715 -0.002984 0.000000 -0.001842 0.000000
# 3 -0.003554 -0.002984 0.017248 0.000000 0.004524 0.000000
# 4 0.000000 0.000000 0.000000 0.038983 0.000000 -0.000240
# 5 -0.002024 -0.001842 0.004524 0.000000 0.036796 0.000000
# 6 0.000000 0.000000 0.000000 -0.000240 0.000000 0.090971
#
#
# Mechanical properties :
#
#
# Convention : Reuss Voigt Hill
#
# Bulk Modulus (GPa) = 29.42970 29.49675 29.46322
# Shear Modulus (GPa) = 20.77628 24.16715 22.47171
#
# Velocity S-wave (km/s) = 3.27667 3.53396 3.40775
# Velocity P-wave (km/s) = 5.43359 5.64756 5.54161
#
# Compressibility (1/GPa) = 0.03397928
#
# Stress axis : x y z
#
# Youngs Moduli (GPa) = 65.28302 63.63207 57.97875
#
# Poissons Ratio (x) = 0.03902 0.20604
# Poissons Ratio (y) = 0.04003 0.17300
# Poissons Ratio (z) = 0.23200 0.18987
#
# Static dielectric constant tensor:
#      x y z
#    x 1.746380 0.000000 -0.030550 
#    y 0.000000 1.680540 0.000000 
#    z -0.030550 0.000000 1.736150 
# 
# From -- ./inp_files/261134.got.cif
#   From: 2010.05.17/outbox.cif.g08.bks.cpg/sg15_131_cif.got.tgz:261134.got - 2010.06.03 18:47:42.
