data_PCOD9262143
_publ_section_title
;
Structure prediction by ZEFSAII (Michael W. Deem and Ramdas Pophale) SiO2 
 PCOD9262143
Probable space group: C 2/C
;
_chemical_formula_sum "Si O2"
_cell_formula_units_Z 40
_cell_length_a 14.476176
_cell_length_b 12.633764
_cell_length_c 14.610267
_cell_angle_alpha 90.000000
_cell_angle_beta 36.636091
_cell_angle_gamma 90.000000
_cell_volume 1594.494303
_symmetry_space_group_name_H-M "C 2/C"
_symmetry_group_IT_number 15
_symmetry_cell_setting 'monoclinic'
loop_
_space_group_symop_operation_xyz
x,y,z
-x,y,1/2-z
-x,-y,-z
x,-y,1/2+z
1/2+x,1/2+y,z
1/2-x,1/2+y,1/2-z
1/2-x,1/2-y,-z
1/2+x,1/2-y,1/2+z
loop_
_atom_site_type_symbol
_atom_site_label
_atom_site_fract_x
_atom_site_fract_y
_atom_site_fract_z
Si Si1 0.028645 0.644891 0.876988
Si Si2 0.250000 0.250000 0.500000
Si Si3 0.627982 0.363590 0.469721
Si Si4 0.353473 0.935958 0.021808
Si Si5 0.007871 0.076484 0.866525
Si Si6 0.500000 0.774745 0.750000
O O1 0.191520 0.647063 0.695833
O O2 0.063509 0.614372 0.955722
O O3 0.940980 0.755400 0.936369
O O4 0.925991 0.544759 0.930169
O O5 0.385318 0.148584 0.414502
O O6 0.329603 0.236222 0.331764
O O7 0.593487 0.470171 0.553528
O O8 0.539022 0.384967 0.444304
O O9 0.175335 0.953295 0.191634
O O10 0.913709 0.170027 0.888460
#
# Coordination Sequence:
#
# PCOD9262143 Si02
#       6
#     8   4   8   8   8   4
#     4  10  19  32  54  81 111 144 190 240 292 344
#     4  10  20  34  54  78 112 148 184 226 284 342
#     4  10  19  32  54  81 110 146 190 243 294 349
#     4   9  19  34  52  79 112 150 189 236 288 351
#     4   9  19  34  52  78 110 147 189 233 290 347
#     4  10  20  34  54  78 110 148 184 232 284 350
#
# _framework density 25.086324000000001
#
# number of rings (size 3 to 8) (size 9 to 14) (size 15 to 20)
#    0.000    2.400    0.000    2.400    0.000    3.200 
#    0.000    0.000    0.000   12.000    0.000    0.000 
#    0.000    0.000    0.000    0.000    0.000    0.000 
#
# Total GULP energy -111656.732331 kJ/mol
# GULP energy per Si atom -5582.836617 kJ/mol
# Density = 2.502923 g / cm^3
# Si number density = 25.086324 Si / 1000 Ang^3
#
#
#
# Elastic Constant Matrix: (Units=GPa)
#
#
# Indices 1 2 3 4 5 6 
#
# 1 61.5672 48.0251 22.9458 0.0000 -1.5911 0.0000
# 2 48.0251 285.0764 104.5729 0.0000 -19.2039 0.0000
# 3 22.9458 104.5729 238.6305 0.0000 -54.1396 0.0000
# 4 0.0000 0.0000 0.0000 52.1595 0.0000 -4.0144
# 5 -1.5911 -19.2039 -54.1396 0.0000 40.3289 0.0000
# 6 0.0000 0.0000 0.0000 -4.0144 0.0000 45.8216
#
#
#
# Elastic Compliance Matrix: (Units=1/GPa)
#
#
# Indices 1 2 3 4 5 6 
#
# 1 0.018856 -0.002956 -0.000961 0.000000 -0.001954 0.000000
# 2 -0.002956 0.004656 -0.001840 0.000000 -0.000370 0.000000
# 3 -0.000961 -0.001840 0.007020 0.000000 0.008510 0.000000
# 4 0.000000 0.000000 0.000000 0.019302 0.000000 0.001691
# 5 -0.001954 -0.000370 0.008510 0.000000 0.035967 0.000000
# 6 0.000000 0.000000 0.000000 0.001691 0.000000 0.021972
#
#
# Mechanical properties :
#
#
# Convention : Reuss Voigt Hill
#
# Bulk Modulus (GPa) = 52.58146 104.04019 78.31083
# Shear Modulus (GPa) = 39.80093 54.97736 47.38914
#
# Velocity S-wave (km/s) = 3.98748 4.68645 4.35103
# Velocity P-wave (km/s) = 6.49660 8.41705 7.51839
#
# Compressibility (1/GPa) = 0.01901811
#
# Stress axis : x y z
#
# Youngs Moduli (GPa) = 53.03467 214.78797 142.45012
#
# Poissons Ratio (x) = 0.63481 0.13692
# Poissons Ratio (y) = 0.15674 0.26210
# Poissons Ratio (z) = 0.05098 0.39519
#
# Static dielectric constant tensor:
#      x y z
#    x 1.937850 0.000000 -0.029180 
#    y 0.000000 2.000170 0.000000 
#    z -0.029180 0.000000 2.060890 
# 
# From -- ./inp_files/54098.got.cif
#   From: 2010.05.17/outbox.cif.g08.bks.cpg/sg15_28_cif.got.tgz:54098.got - 2010.06.03 18:47:42.
