data_PCOD9262024
_publ_section_title
;
Structure prediction by ZEFSAII (Michael W. Deem and Ramdas Pophale) SiO2 
 PCOD9262024
Probable space group: C 2/C
;
_chemical_formula_sum "Si O2"
_cell_formula_units_Z 52
_cell_length_a 7.827624
_cell_length_b 11.653092
_cell_length_c 28.685121
_cell_angle_alpha 90.000000
_cell_angle_beta 106.793114
_cell_angle_gamma 90.000000
_cell_volume 2504.958163
_symmetry_space_group_name_H-M "C 2/C"
_symmetry_group_IT_number 15
_symmetry_cell_setting 'monoclinic'
loop_
_space_group_symop_operation_xyz
x,y,z
-x,y,1/2-z
-x,-y,-z
x,-y,1/2+z
1/2+x,1/2+y,z
1/2-x,1/2+y,1/2-z
1/2-x,1/2-y,-z
1/2+x,1/2-y,1/2+z
loop_
_atom_site_type_symbol
_atom_site_label
_atom_site_fract_x
_atom_site_fract_y
_atom_site_fract_z
Si Si1 0.857988 0.338437 0.588893
Si Si2 0.761502 0.181996 0.667578
Si Si3 0.144100 0.249010 0.370521
Si Si4 0.500000 0.158634 0.250000
Si Si5 0.043999 0.842603 0.050349
Si Si6 0.670522 0.931913 0.672008
Si Si7 0.949887 0.089925 0.050759
O O1 0.832177 0.236583 0.624993
O O2 0.664970 0.392803 0.566947
O O3 0.936605 0.275137 0.549884
O O4 0.004722 0.423560 0.622415
O O5 0.548833 0.199087 0.652622
O O6 0.856384 0.258122 0.714300
O O7 0.785729 0.046243 0.674560
O O8 0.293563 0.336708 0.400252
O O9 0.214425 0.180233 0.331543
O O10 0.126057 0.156680 0.411195
O O11 0.410114 0.081905 0.282977
O O12 0.922196 0.953837 0.050264
O O13 0.114189 0.859193 0.003458
#
# Coordination Sequence:
#
# PCOD9262024 Si02
#       7
#     8   8   8   4   8   8   8
#     4   9  19  35  53  78 108 140 175 209 253 307
#     4  10  21  38  57  77 105 136 169 214 263 311
#     4  10  21  35  54  78 104 138 176 211 255 308
#     4  10  24  38  54  82 102 126 174 216 260 322
#     4  10  19  32  52  78 108 141 176 213 251 295
#     4  10  21  38  57  77 105 136 169 214 263 311
#     4  10  19  32  52  78 108 141 176 213 251 295
#
# _framework density 20.75883
#
# number of rings (size 3 to 8) (size 9 to 14) (size 15 to 20)
#    0.000    2.154    0.000    2.769    0.000    3.077 
#    0.000    3.077    0.000   14.769    0.000    0.000 
#    0.000    0.000    0.000    0.000    0.000    0.000 
#
# Total GULP energy -145214.600928 kJ/mol
# GULP energy per Si atom -5585.176959 kJ/mol
# Density = 2.071158 g / cm^3
# Si number density = 20.758830 Si / 1000 Ang^3
#
#
#
# Elastic Constant Matrix: (Units=GPa)
#
#
# Indices 1 2 3 4 5 6 
#
# 1 39.6513 -14.7850 -12.8421 0.0000 2.9255 0.0000
# 2 -14.7850 61.3465 11.2366 0.0000 -3.0049 0.0000
# 3 -12.8421 11.2366 53.3354 0.0000 -8.7222 0.0000
# 4 0.0000 0.0000 0.0000 15.7494 0.0000 0.9784
# 5 2.9255 -3.0049 -8.7222 0.0000 24.5666 0.0000
# 6 0.0000 0.0000 0.0000 0.9784 0.0000 23.5485
#
#
#
# Elastic Compliance Matrix: (Units=1/GPa)
#
#
# Indices 1 2 3 4 5 6 
#
# 1 0.029351 0.005997 0.005682 0.000000 -0.000744 0.000000
# 2 0.005997 0.018197 -0.002275 0.000000 0.000704 0.000000
# 3 0.005682 -0.002275 0.021700 0.000000 0.006750 0.000000
# 4 0.000000 0.000000 0.000000 0.063659 0.000000 -0.002645
# 5 -0.000744 0.000704 0.006750 0.000000 0.043277 0.000000
# 6 0.000000 0.000000 0.000000 -0.002645 0.000000 0.042575
#
#
# Mechanical properties :
#
#
# Convention : Reuss Voigt Hill
#
# Bulk Modulus (GPa) = 11.35635 13.50581 12.43108
# Shear Modulus (GPa) = 21.80508 24.15447 22.97977
#
# Velocity S-wave (km/s) = 3.24450 3.41482 3.33075
# Velocity P-wave (km/s) = 4.41794 4.69768 4.55996
#
# Compressibility (1/GPa) = 0.08805647
#
# Stress axis : x y z
#
# Youngs Moduli (GPa) = 34.07037 54.95345 46.08194
#
# Poissons Ratio (x) = -0.32953 -0.26184
# Poissons Ratio (y) = -0.20431 0.10483
# Poissons Ratio (z) = -0.19359 0.12501
#
# Static dielectric constant tensor:
#      x y z
#    x 1.726430 0.000000 -0.000090 
#    y 0.000000 1.716350 0.000000 
#    z -0.000090 0.000000 1.732660 
# 
# From -- ./inp_files/287639.got.cif
#   From: 2010.05.17/outbox.cif.g08.bks.cpg/sg15_144_cif.got.tgz:287639.got - 2010.06.03 18:47:42.
