data_PCOD9262942
_publ_section_title
;
Structure prediction by ZEFSAII (Michael W. Deem and Ramdas Pophale) SiO2 
 PCOD9262942
Probable space group: C 2/C
;
_chemical_formula_sum "Si O2"
_cell_formula_units_Z 44
_cell_length_a 9.251948
_cell_length_b 12.875222
_cell_length_c 14.719657
_cell_angle_alpha 90.000000
_cell_angle_beta 99.024683
_cell_angle_gamma 90.000000
_cell_volume 1731.712741
_symmetry_space_group_name_H-M "C 2/C"
_symmetry_group_IT_number 15
_symmetry_cell_setting 'monoclinic'
loop_
_space_group_symop_operation_xyz
x,y,z
-x,y,1/2-z
-x,-y,-z
x,-y,1/2+z
1/2+x,1/2+y,z
1/2-x,1/2+y,1/2-z
1/2-x,1/2-y,-z
1/2+x,1/2-y,1/2+z
loop_
_atom_site_type_symbol
_atom_site_label
_atom_site_fract_x
_atom_site_fract_y
_atom_site_fract_z
Si Si1 0.834237 0.013140 0.588260
Si Si2 0.102549 0.862641 0.570510
Si Si3 0.704884 0.248640 0.749036
Si Si4 0.000000 0.843116 0.250000
Si Si5 0.891415 0.293283 0.064434
Si Si6 0.944001 0.464894 0.338886
O O1 0.802917 0.083089 0.496773
O O2 0.682627 0.975450 0.618836
O O3 0.923615 0.084376 0.668002
O O4 0.955370 0.930115 0.570019
O O5 0.180950 0.839208 0.673554
O O6 0.035329 0.753101 0.530988
O O7 0.623554 0.257733 0.836239
O O8 0.640983 0.140836 0.701209
O O9 0.874529 0.226556 0.781887
O O10 0.923145 0.414575 0.089134
O O11 0.750000 0.250000 0.000000
O O12 0.000000 0.513488 0.250000
#
# Coordination Sequence:
#
# PCOD9262942 Si02
#       6
#     8   8   8   4   8   8
#     4  10  21  35  58  89 120 157 201 250 311 362
#     4  10  21  36  55  87 121 161 197 251 309 366
#     4   9  19  34  56  85 119 155 207 243 298 360
#     4  10  20  34  60  90 114 154 202 250 292 366
#     4  10  19  33  58  82 116 159 208 250 295 360
#     4   8  17  35  56  83 112 158 201 249 294 354
#
# _framework density 25.408373000000001
#
# number of rings (size 3 to 8) (size 9 to 14) (size 15 to 20)
#    0.000    2.545    0.000    2.727    2.545    8.000 
#    0.000    0.909    2.000    0.000    0.000    0.000 
#    0.000    0.000    0.000    0.000    0.000    0.000 
#
# Total GULP energy -122918.310078 kJ/mol
# GULP energy per Si atom -5587.195913 kJ/mol
# Density = 2.535054 g / cm^3
# Si number density = 25.408373 Si / 1000 Ang^3
#
#
#
# Elastic Constant Matrix: (Units=GPa)
#
#
# Indices 1 2 3 4 5 6 
#
# 1 114.1622 11.6800 18.7661 0.0000 -7.4071 0.0000
# 2 11.6800 37.1538 17.4169 0.0000 -3.3163 0.0000
# 3 18.7661 17.4169 106.6330 0.0000 7.8652 0.0000
# 4 0.0000 0.0000 0.0000 14.1714 0.0000 1.6489
# 5 -7.4071 -3.3163 7.8652 0.0000 38.6919 0.0000
# 6 0.0000 0.0000 0.0000 1.6489 0.0000 41.4002
#
#
#
# Elastic Compliance Matrix: (Units=1/GPa)
#
#
# Indices 1 2 3 4 5 6 
#
# 1 0.009333 -0.002089 -0.001442 0.000000 0.001901 0.000000
# 2 -0.002089 0.030094 -0.004780 0.000000 0.003151 0.000000
# 3 -0.001442 -0.004780 0.010622 0.000000 -0.002845 0.000000
# 4 0.000000 0.000000 0.000000 0.070893 0.000000 -0.002824
# 5 0.001901 0.003151 -0.002845 0.000000 0.027057 0.000000
# 6 0.000000 0.000000 0.000000 -0.002824 0.000000 0.024267
#
#
# Mechanical properties :
#
#
# Convention : Reuss Voigt Hill
#
# Bulk Modulus (GPa) = 29.91453 39.29723 34.60588
# Shear Modulus (GPa) = 24.99608 32.85844 28.92726
#
# Velocity S-wave (km/s) = 3.13992 3.60003 3.37782
# Velocity P-wave (km/s) = 4.99445 5.72539 5.37236
#
# Compressibility (1/GPa) = 0.03342857
#
# Stress axis : x y z
#
# Youngs Moduli (GPa) = 107.14135 33.22930 94.14161
#
# Poissons Ratio (x) = 0.06941 0.13572
# Poissons Ratio (y) = 0.22378 0.45002
# Poissons Ratio (z) = 0.15446 0.15884
#
# Static dielectric constant tensor:
#      x y z
#    x 2.116490 0.000000 -0.000970 
#    y 0.000000 2.072110 0.000000 
#    z -0.000970 0.000000 2.033610 
# 
# From -- ./inp_files/134561.got.cif
#   From: 2010.05.17/outbox.cif.g08.bks.cpg/sg15_68_cif.got.tgz:134561.got - 2010.06.03 18:47:42.
