data_PCOD9262000
_publ_section_title
;
Structure prediction by ZEFSAII (Michael W. Deem and Ramdas Pophale) SiO2 
 PCOD9262000
Probable space group: C 2/C
;
_chemical_formula_sum "Si O2"
_cell_formula_units_Z 64
_cell_length_a 29.968044
_cell_length_b 5.544387
_cell_length_c 32.113491
_cell_angle_alpha 90.000000
_cell_angle_beta 142.995518
_cell_angle_gamma 90.000000
_cell_volume 3211.497281
_symmetry_space_group_name_H-M "C 2/C"
_symmetry_group_IT_number 15
_symmetry_cell_setting 'monoclinic'
loop_
_space_group_symop_operation_xyz
x,y,z
-x,y,1/2-z
-x,-y,-z
x,-y,1/2+z
1/2+x,1/2+y,z
1/2-x,1/2+y,1/2-z
1/2-x,1/2-y,-z
1/2+x,1/2-y,1/2+z
loop_
_atom_site_type_symbol
_atom_site_label
_atom_site_fract_x
_atom_site_fract_y
_atom_site_fract_z
Si Si1 0.898546 0.286158 0.045721
Si Si2 0.268551 0.724527 0.209610
Si Si3 0.315030 0.516279 0.915162
Si Si4 0.018749 0.479028 0.584696
Si Si5 0.564483 0.299641 0.547514
Si Si6 0.233875 0.328529 0.055519
Si Si7 0.316200 0.555558 0.051323
Si Si8 0.664551 0.770899 0.713419
O O1 0.888195 0.177811 0.084240
O O2 0.975322 0.407824 0.090804
O O3 0.879415 0.089085 0.995817
O O4 0.831586 0.476467 0.989920
O O5 0.227668 0.755174 0.134968
O O6 0.311631 0.473412 0.245738
O O7 0.208578 0.723374 0.202385
O O8 0.314573 0.974404 0.249108
O O9 0.356304 0.399993 0.906578
O O10 0.262768 0.330615 0.900563
O O11 0.065177 0.672768 0.592541
O O12 0.076635 0.274792 0.640127
O O13 0.958747 0.385982 0.506309
O O14 0.500000 0.500000 0.500000
O O15 0.308219 0.447252 0.091652
O O16 0.205543 0.147859 0.998265
O O17 0.250000 0.750000 0.000000
#
# Coordination Sequence:
#
# PCOD9262000 Si02
#       8
#     8   8   8   8   8   8   8   8
#     4  10  19  32  51  86 114 152 183 244 303 365
#     4  10  24  40  56  75 106 162 216 251 291 337
#     4  11  21  32  56  80 116 154 205 246 296 352
#     4  11  23  34  53  80 116 158 205 244 304 358
#     4  11  22  33  51  80 114 155 199 251 298 361
#     4   9  17  31  51  79 114 151 176 234 293 367
#     4   8  16  31  50  75 116 148 177 218 298 376
#     4  10  24  40  56  73 109 164 211 255 289 343
#
# _framework density 19.9284
#
# number of rings (size 3 to 8) (size 9 to 14) (size 15 to 20)
#    0.000    2.000    2.500    0.750   10.500    0.000 
#    0.000    0.000    0.000    0.000    0.000    0.000 
#    0.000   46.000    0.000    0.250    0.000    0.000 
#
# Total GULP energy -178542.730026 kJ/mol
# GULP energy per Si atom -5579.460313 kJ/mol
# Density = 1.988304 g / cm^3
# Si number density = 19.928400 Si / 1000 Ang^3
#
#
#
# Elastic Constant Matrix: (Units=GPa)
#
#
# Indices 1 2 3 4 5 6 
#
# 1 130.0231 51.2429 25.3114 -0.0098 6.1885 0.0343
# 2 51.2429 89.5114 19.9960 -0.0310 -0.8878 0.1612
# 3 25.3114 19.9960 47.0980 -0.0053 3.9298 -0.0007
# 4 -0.0098 -0.0310 -0.0053 33.8165 -0.0131 -4.3698
# 5 6.1885 -0.8878 3.9298 -0.0131 10.1457 -0.0080
# 6 0.0343 0.1612 -0.0007 -4.3698 -0.0080 38.8716
#
#
#
# Elastic Compliance Matrix: (Units=1/GPa)
#
#
# Indices 1 2 3 4 5 6 
#
# 1 0.010726 -0.005547 -0.002917 -0.000003 -0.005898 0.000012
# 2 -0.005547 0.015313 -0.004045 0.000007 0.006290 -0.000057
# 3 -0.002917 -0.004045 0.025213 -0.000001 -0.008341 0.000018
# 4 -0.000003 0.000007 -0.000001 0.030007 0.000044 0.003373
# 5 -0.005898 0.006290 -0.008341 0.000044 0.105942 0.000006
# 6 0.000012 -0.000057 0.000018 0.003373 0.000006 0.026105
#
#
# Mechanical properties :
#
#
# Convention : Reuss Voigt Hill
#
# Bulk Modulus (GPa) = 38.11870 51.08147 44.60008
# Shear Modulus (GPa) = 20.23716 27.90558 24.07137
#
# Velocity S-wave (km/s) = 3.19014 3.74611 3.47925
# Velocity P-wave (km/s) = 5.72177 6.66328 6.21039
#
# Compressibility (1/GPa) = 0.02623384
#
# Stress axis : x y z
#
# Youngs Moduli (GPa) = 93.23488 65.30213 39.66148
#
# Poissons Ratio (x) = 0.36223 0.11569
# Poissons Ratio (y) = 0.51717 0.16044
# Poissons Ratio (z) = 0.27197 0.26417
#
# Static dielectric constant tensor:
#      x y z
#    x 1.729710 -0.000080 -0.020690 
#    y -0.000080 1.821310 0.000040 
#    z -0.020690 0.000040 1.713040 
# 
# From -- ./inp_files/319311.got.cif
#   From: 2010.05.17/outbox.cif.g08.bks.cpg/sg15_160_cif.got.tgz:319311.got - 2010.06.03 18:47:42.
