data_PCOD9262054
_publ_section_title
;
Structure prediction by ZEFSAII (Michael W. Deem and Ramdas Pophale) SiO2 
 PCOD9262054
Probable space group: C 2/C
;
_chemical_formula_sum "Si O2"
_cell_formula_units_Z 40
_cell_length_a 26.765419
_cell_length_b 8.019026
_cell_length_c 14.192007
_cell_angle_alpha 90.000000
_cell_angle_beta 33.685825
_cell_angle_gamma 90.000000
_cell_volume 1689.466418
_symmetry_space_group_name_H-M "C 2/C"
_symmetry_group_IT_number 15
_symmetry_cell_setting 'monoclinic'
loop_
_space_group_symop_operation_xyz
x,y,z
-x,y,1/2-z
-x,-y,-z
x,-y,1/2+z
1/2+x,1/2+y,z
1/2-x,1/2+y,1/2-z
1/2-x,1/2-y,-z
1/2+x,1/2-y,1/2+z
loop_
_atom_site_type_symbol
_atom_site_label
_atom_site_fract_x
_atom_site_fract_y
_atom_site_fract_z
Si Si1 0.325031 0.493434 0.545899
Si Si2 0.000000 0.338874 0.750000
Si Si3 0.901496 0.114170 0.748900
Si Si4 0.500000 0.730493 0.250000
Si Si5 0.858682 0.339457 0.105887
Si Si6 0.014421 0.750233 0.928117
O O1 0.317553 0.421373 0.449783
O O2 0.412083 0.614978 0.407366
O O3 0.235626 0.584384 0.717931
O O4 0.342480 0.347984 0.593781
O O5 0.035538 0.217092 0.777376
O O6 0.089432 0.419278 0.564919
O O7 0.915978 0.218348 0.629757
O O8 0.940960 0.932863 0.660041
O O9 0.483679 0.825984 0.178218
O O10 0.922716 0.343756 0.096724
#
# Coordination Sequence:
#
# PCOD9262054 Si02
#       6
#     8   4   8   4   8   8
#     4  10  19  32  52  82 108 141 177 222 268 327
#     4   8  15  30  49  70  99 142 175 210 257 326
#     4   8  13  24  46  72  98 125 170 212 257 300
#     4  10  19  32  55  80 107 138 189 226 261 312
#     4  10  19  32  54  78 109 140 180 220 270 318
#     4   9  15  28  51  78 103 140 180 226 261 310
#
# _framework density 23.676113000000001
#
# number of rings (size 3 to 8) (size 9 to 14) (size 15 to 20)
#    0.000    2.800    0.000    9.000    0.000    3.200 
#    0.000    1.000    0.000   44.400    0.000    0.000 
#    0.000   14.400    0.000    0.000    0.000    0.000 
#
# Total GULP energy -111495.621362 kJ/mol
# GULP energy per Si atom -5574.781068 kJ/mol
# Density = 2.362222 g / cm^3
# Si number density = 23.676113 Si / 1000 Ang^3
#
#
#
# Elastic Constant Matrix: (Units=GPa)
#
#
# Indices 1 2 3 4 5 6 
#
# 1 91.4981 12.6334 62.2263 0.0000 30.9727 0.0000
# 2 12.6334 41.3381 36.6991 -0.0002 -10.2627 0.0000
# 3 62.2263 36.6991 234.7246 0.0000 5.2517 0.0000
# 4 0.0000 -0.0002 0.0000 37.0923 0.0000 -9.1424
# 5 30.9727 -10.2627 5.2517 0.0000 37.5941 0.0000
# 6 0.0000 0.0000 0.0000 -9.1424 0.0000 19.5840
#
#
#
# Elastic Compliance Matrix: (Units=1/GPa)
#
#
# Indices 1 2 3 4 5 6 
#
# 1 0.021074 -0.007598 -0.003976 0.000000 -0.018881 0.000000
# 2 -0.007598 0.033678 -0.003608 0.000000 0.015957 0.000000
# 3 -0.003976 -0.003608 0.005846 0.000000 0.001474 0.000000
# 4 0.000000 0.000000 0.000000 0.030465 0.000000 0.014222
# 5 -0.018881 0.015957 0.001474 0.000000 0.046305 0.000000
# 6 0.000000 0.000000 0.000000 0.014222 0.000000 0.057701
#
#
# Mechanical properties :
#
#
# Convention : Reuss Voigt Hill
#
# Bulk Modulus (GPa) = 33.07719 65.63095 49.35407
# Shear Modulus (GPa) = 21.23044 35.92089 28.57566
#
# Velocity S-wave (km/s) = 2.99775 3.89932 3.47787
# Velocity P-wave (km/s) = 5.09735 6.93206 6.08426
#
# Compressibility (1/GPa) = 0.03023231
#
# Stress axis : x y z
#
# Youngs Moduli (GPa) = 47.45256 29.69329 171.06742
#
# Poissons Ratio (x) = 0.22560 0.68023
# Poissons Ratio (y) = 0.36052 0.61727
# Poissons Ratio (z) = 0.18869 0.10714
#
# Static dielectric constant tensor:
#      x y z
#    x 1.913460 0.000000 0.037090 
#    y 0.000000 1.981650 0.000000 
#    z 0.037090 0.000000 1.940790 
# 
# From -- ./inp_files/151546.got.cif
#   From: 2010.05.17/outbox.cif.g08.bks.cpg/sg15_76_cif.got.tgz:151546.got - 2010.06.03 18:47:42.
