data_PCOD9262225
_publ_section_title
;
Structure prediction by ZEFSAII (Michael W. Deem and Ramdas Pophale) SiO2 
 PCOD9262225
Probable space group: C 2/C
;
_chemical_formula_sum "Si O2"
_cell_formula_units_Z 40
_cell_length_a 10.727454
_cell_length_b 10.559017
_cell_length_c 13.770226
_cell_angle_alpha 90.000000
_cell_angle_beta 118.954068
_cell_angle_gamma 90.000000
_cell_volume 1364.813413
_symmetry_space_group_name_H-M "C 2/C"
_symmetry_group_IT_number 15
_symmetry_cell_setting 'monoclinic'
loop_
_space_group_symop_operation_xyz
x,y,z
-x,y,1/2-z
-x,-y,-z
x,-y,1/2+z
1/2+x,1/2+y,z
1/2-x,1/2+y,1/2-z
1/2-x,1/2-y,-z
1/2+x,1/2-y,1/2+z
loop_
_atom_site_type_symbol
_atom_site_label
_atom_site_fract_x
_atom_site_fract_y
_atom_site_fract_z
Si Si1 0.239639 0.606838 0.290620
Si Si2 0.126626 0.824486 0.359480
Si Si3 0.344620 0.061466 0.571919
Si Si4 0.491979 0.171057 0.459652
Si Si5 0.556912 0.600187 0.366664
O O1 0.244197 0.739229 0.353142
O O2 0.160475 0.494456 0.321205
O O3 0.153011 0.636359 0.157534
O O4 0.404502 0.567085 0.353407
O O5 0.125548 0.972210 0.344825
O O6 0.000000 0.764103 0.250000
O O7 0.062562 0.795768 0.440882
O O8 0.454034 0.157415 0.559150
O O9 0.390832 0.933916 0.529677
O O10 0.188020 0.118770 0.490665
O O11 0.500000 0.679525 0.250000
#
# Coordination Sequence:
#
# PCOD9262225 Si02
#       5
#     8   8   8   8   8
#     4  10  19  35  55  82 114 146 181 236 284 329
#     4   8  18  34  56  80 108 146 185 228 282 334
#     4  10  19  32  56  83 105 151 189 220 288 345
#     4   9  18  35  53  78 114 145 182 230 282 333
#     4  11  20  34  56  85 110 142 194 232 271 343
#
# _framework density 29.308038
#
# number of rings (size 3 to 8) (size 9 to 14) (size 15 to 20)
#    0.000    2.400    2.000    2.400    0.000    3.200 
#    0.000    1.000    0.000    4.800   10.400    0.000 
#    0.000    0.000    0.000    0.000    0.000    0.000 
#
# Total GULP energy -111394.971915 kJ/mol
# GULP energy per Si atom -5569.748596 kJ/mol
# Density = 2.924133 g / cm^3
# Si number density = 29.308038 Si / 1000 Ang^3
#
#
#
# Elastic Constant Matrix: (Units=GPa)
#
#
# Indices 1 2 3 4 5 6 
#
# 1 111.6168 -9.1204 7.9915 0.0000 7.6416 0.0000
# 2 -9.1204 70.2560 -22.0336 0.0000 -9.0530 0.0000
# 3 7.9915 -22.0336 147.2271 0.0000 4.2303 0.0000
# 4 0.0000 0.0000 0.0000 29.9303 0.0000 -8.3298
# 5 7.6416 -9.0530 4.2303 0.0000 54.9815 0.0000
# 6 0.0000 0.0000 0.0000 -8.3298 0.0000 3.2641
#
#
#
# Elastic Compliance Matrix: (Units=1/GPa)
#
#
# Indices 1 2 3 4 5 6 
#
# 1 0.009134 0.000944 -0.000323 0.000000 -0.001089 0.000000
# 2 0.000944 0.015326 0.002178 0.000000 0.002225 0.000000
# 3 -0.000323 0.002178 0.007140 0.000000 -0.000146 0.000000
# 4 0.000000 0.000000 0.000000 0.115294 0.000000 0.294220
# 5 -0.001089 0.002225 -0.000146 0.000000 0.018717 0.000000
# 6 0.000000 0.000000 0.000000 0.294220 0.000000 1.057186
#
#
# Mechanical properties :
#
#
# Convention : Reuss Voigt Hill
#
# Bulk Modulus (GPa) = 26.88260 31.41943 29.15101
# Shear Modulus (GPa) = 4.06637 41.11935 22.59286
#
# Velocity S-wave (km/s) = 1.17918 3.74974 2.77948
# Velocity P-wave (km/s) = 3.32360 5.43057 4.50207
#
# Compressibility (1/GPa) = 0.03719878
#
# Stress axis : x y z
#
# Youngs Moduli (GPa) = 109.48020 65.24820 140.05625
#
# Poissons Ratio (x) = -0.06160 0.04527
# Poissons Ratio (y) = -0.10335 -0.30511
# Poissons Ratio (z) = 0.03539 -0.14214
#
# Static dielectric constant tensor:
#      x y z
#    x 2.461070 0.000000 0.056140 
#    y 0.000000 2.459720 0.000000 
#    z 0.056140 0.000000 2.544010 
# 
# From -- ./inp_files/142857.got.cif
#   From: 2010.05.17/outbox.cif.g08.bks.cpg/sg15_72_cif.got.tgz:142857.got - 2010.06.03 18:47:42.
