data_PCOD9262566
_publ_section_title
;
Structure prediction by ZEFSAII (Michael W. Deem and Ramdas Pophale) SiO2 
 PCOD9262566
Probable space group: C 2/C
;
_chemical_formula_sum "Si O2"
_cell_formula_units_Z 44
_cell_length_a 11.346790
_cell_length_b 25.276980
_cell_length_c 7.669766
_cell_angle_alpha 90.000000
_cell_angle_beta 88.614171
_cell_angle_gamma 90.000000
_cell_volume 2199.141972
_symmetry_space_group_name_H-M "C 2/C"
_symmetry_group_IT_number 15
_symmetry_cell_setting 'monoclinic'
loop_
_space_group_symop_operation_xyz
x,y,z
-x,y,1/2-z
-x,-y,-z
x,-y,1/2+z
1/2+x,1/2+y,z
1/2-x,1/2+y,1/2-z
1/2-x,1/2-y,-z
1/2+x,1/2-y,1/2+z
loop_
_atom_site_type_symbol
_atom_site_label
_atom_site_fract_x
_atom_site_fract_y
_atom_site_fract_z
Si Si1 0.500000 0.649885 0.250000
Si Si2 0.954461 0.759035 0.001896
Si Si3 0.617015 0.156606 0.014917
Si Si4 0.962191 0.558383 0.053036
Si Si5 0.745399 0.199678 0.686271
Si Si6 0.250859 0.120313 0.139561
O O1 0.514983 0.689321 0.416130
O O2 0.616528 0.615977 0.206914
O O3 0.873312 0.773535 0.170750
O O4 0.034831 0.708228 0.027378
O O5 0.857434 0.741343 0.857618
O O6 0.535170 0.106492 0.962169
O O7 0.677624 0.143745 0.197437
O O8 0.712611 0.170272 0.863982
O O9 0.822809 0.570075 0.063277
O O10 0.000000 0.563328 0.250000
O O11 0.000000 0.500000 0.000000
O O12 0.745526 0.160433 0.521870
#
# Coordination Sequence:
#
# PCOD9262566 Si02
#       6
#     4   8   8   8   8   8
#     4  10  20  40  56  84 128 162 192 236 290 358
#     4  10  19  33  53  87 119 162 200 223 288 364
#     4  11  21  38  58  85 122 153 198 254 288 345
#     4  10  23  38  62  93 112 145 199 252 310 352
#     4  10  20  36  54  83 125 160 193 233 294 353
#     4  10  23  39  58  87 120 154 204 242 293 360
#
# _framework density 20.007802999999999
#
# number of rings (size 3 to 8) (size 9 to 14) (size 15 to 20)
#    0.000    1.818    3.636    0.000    2.545    0.727 
#    3.273    2.727    0.000    4.364    0.000    0.000 
#    0.000    0.000    0.000    0.000    0.000    0.000 
#
# Total GULP energy -122842.525512 kJ/mol
# GULP energy per Si atom -5583.751160 kJ/mol
# Density = 1.996226 g / cm^3
# Si number density = 20.007803 Si / 1000 Ang^3
#
#
#
# Elastic Constant Matrix: (Units=GPa)
#
#
# Indices 1 2 3 4 5 6 
#
# 1 132.9993 65.7086 37.6840 0.0000 -31.9426 0.0000
# 2 65.7086 109.5675 40.4481 0.0000 -24.5637 0.0000
# 3 37.6840 40.4481 99.2883 0.0000 -25.6244 0.0000
# 4 0.0000 0.0000 0.0000 30.1264 0.0000 -12.8207
# 5 -31.9426 -24.5637 -25.6244 0.0000 33.4216 0.0000
# 6 0.0000 0.0000 0.0000 -12.8207 0.0000 29.1136
#
#
#
# Elastic Compliance Matrix: (Units=1/GPa)
#
#
# Indices 1 2 3 4 5 6 
#
# 1 0.012071 -0.005447 -0.000521 0.000000 0.007134 0.000000
# 2 -0.005447 0.014134 -0.002934 0.000000 0.002932 0.000000
# 3 -0.000521 -0.002934 0.013439 0.000000 0.007649 0.000000
# 4 0.000000 0.000000 0.000000 0.040849 0.000000 0.017988
# 5 0.007134 0.002932 0.007649 0.000000 0.044759 0.000000
# 6 0.000000 0.000000 0.000000 0.017988 0.000000 0.042270
#
#
# Mechanical properties :
#
#
# Convention : Reuss Voigt Hill
#
# Bulk Modulus (GPa) = 45.78900 69.94850 57.86875
# Shear Modulus (GPa) = 25.95979 31.73326 28.84653
#
# Velocity S-wave (km/s) = 3.60597 3.98684 3.80118
# Velocity P-wave (km/s) = 6.34607 7.49864 6.94630
#
# Compressibility (1/GPa) = 0.02183930
#
# Stress axis : x y z
#
# Youngs Moduli (GPa) = 82.84206 70.75089 74.41182
#
# Poissons Ratio (x) = 0.38541 0.03879
# Poissons Ratio (y) = 0.45128 0.21829
# Poissons Ratio (z) = 0.04318 0.20756
#
# Static dielectric constant tensor:
#      x y z
#    x 1.800900 0.000000 -0.016060 
#    y 0.000000 1.929990 0.000000 
#    z -0.016060 0.000000 1.749070 
# 
# From -- ./inp_files/30835.got.cif
#   From: 2010.05.17/outbox.cif.g08.bks.cpg/sg15_16_cif.got.tgz:30835.got - 2010.06.03 18:47:42.
