data_PCOD9262599
_publ_section_title
;
Structure prediction by ZEFSAII (Michael W. Deem and Ramdas Pophale) SiO2 
 PCOD9262599
Probable space group: C 2/C
;
_chemical_formula_sum "Si O2"
_cell_formula_units_Z 48
_cell_length_a 19.137259
_cell_length_b 20.730132
_cell_length_c 14.683892
_cell_angle_alpha 90.000000
_cell_angle_beta 160.507142
_cell_angle_gamma 90.000000
_cell_volume 1943.861580
_symmetry_space_group_name_H-M "C 2/C"
_symmetry_group_IT_number 15
_symmetry_cell_setting 'monoclinic'
loop_
_space_group_symop_operation_xyz
x,y,z
-x,y,1/2-z
-x,-y,-z
x,-y,1/2+z
1/2+x,1/2+y,z
1/2-x,1/2+y,1/2-z
1/2-x,1/2-y,-z
1/2+x,1/2-y,1/2+z
loop_
_atom_site_type_symbol
_atom_site_label
_atom_site_fract_x
_atom_site_fract_y
_atom_site_fract_z
Si Si1 0.746485 0.404904 0.030623
Si Si2 0.862312 0.920085 0.795129
Si Si3 0.460564 0.971458 0.602789
Si Si4 0.319116 0.866136 0.306384
Si Si5 0.582578 0.640355 0.944953
Si Si6 0.794545 0.725156 0.936042
O O1 0.835395 0.358462 0.218376
O O2 0.870310 0.471738 0.199350
O O3 0.500000 0.413773 0.750000
O O4 0.762921 0.387340 0.944011
O O5 0.764650 0.991969 0.670329
O O6 0.097606 0.902042 0.055943
O O7 0.841899 0.898798 0.874655
O O8 0.500000 0.940617 0.750000
O O9 0.474928 0.918100 0.543277
O O10 0.314376 0.801489 0.358420
O O11 0.500000 0.607080 0.750000
O O12 0.386119 0.682239 0.741574
O O13 0.739462 0.698132 0.110934
O O14 0.000000 0.715884 0.250000
#
# Coordination Sequence:
#
# PCOD9262599 Si02
#       6
#     8   8   8   8   8   8
#     4   9  19  35  53  76 109 144 177 217 263 313
#     4   9  20  36  53  77 108 140 179 222 261 314
#     4  10  19  33  54  79 110 143 175 217 264 318
#     4  10  19  34  55  79 108 143 177 215 267 320
#     4  10  20  36  56  79 107 139 177 223 271 315
#     4  10  20  34  54  80 109 139 176 224 266 314
#
# _framework density 24.693116
#
# number of rings (size 3 to 8) (size 9 to 14) (size 15 to 20)
#    0.000    2.333    0.000    3.500    0.000    2.667 
#    0.000   10.000    0.000    8.000    0.000    0.000 
#    0.000    0.000    0.000    0.000    0.000    0.000 
#
# Total GULP energy -134076.197868 kJ/mol
# GULP energy per Si atom -5586.508245 kJ/mol
# Density = 2.463691 g / cm^3
# Si number density = 24.693116 Si / 1000 Ang^3
#
#
#
# Elastic Constant Matrix: (Units=GPa)
#
#
# Indices 1 2 3 4 5 6 
#
# 1 151.5186 24.6339 51.3059 -0.0001 -60.9715 -0.0001
# 2 24.6339 52.7542 29.0802 0.0000 -32.4239 0.0000
# 3 51.3059 29.0802 94.2711 -0.0003 -30.0430 -0.0002
# 4 -0.0001 0.0000 -0.0003 10.2358 -0.0001 -0.0587
# 5 -60.9715 -32.4239 -30.0430 -0.0001 77.3573 -0.0001
# 6 -0.0001 0.0000 -0.0002 -0.0587 -0.0001 34.1828
#
#
#
# Elastic Compliance Matrix: (Units=1/GPa)
#
#
# Indices 1 2 3 4 5 6 
#
# 1 0.010745 0.001928 -0.003978 0.000000 0.007732 0.000000
# 2 0.001928 0.028222 -0.006278 0.000000 0.010911 0.000000
# 3 -0.003978 -0.006278 0.014690 0.000000 -0.000062 0.000000
# 4 0.000000 0.000000 0.000000 0.097697 0.000000 0.000168
# 5 0.007732 0.010911 -0.000062 0.000000 0.023570 0.000000
# 6 0.000000 0.000000 0.000000 0.000168 0.000000 0.029255
#
#
# Mechanical properties :
#
#
# Convention : Reuss Voigt Hill
#
# Bulk Modulus (GPa) = 27.02729 56.50932 41.76831
# Shear Modulus (GPa) = 21.44368 37.25679 29.35023
#
# Velocity S-wave (km/s) = 2.95007 3.88853 3.45135
# Velocity P-wave (km/s) = 4.75110 6.56470 5.73010
#
# Compressibility (1/GPa) = 0.03699963
#
# Stress axis : x y z
#
# Youngs Moduli (GPa) = 93.06761 35.43319 68.07488
#
# Poissons Ratio (x) = -0.06831 0.27083
# Poissons Ratio (y) = -0.17942 0.42737
# Poissons Ratio (z) = 0.37026 0.22245
#
# Static dielectric constant tensor:
#      x y z
#    x 2.047130 0.000000 0.048040 
#    y 0.000000 1.897070 0.000000 
#    z 0.048040 0.000000 2.076120 
# 
# From -- ./inp_files/58537.got.cif
#   From: 2010.05.17/outbox.cif.g08.bks.cpg/sg15_30_cif.got.tgz:58537.got - 2010.06.03 18:47:42.
