data_PCOD9262798
_publ_section_title
;
Structure prediction by ZEFSAII (Michael W. Deem and Ramdas Pophale) SiO2 
 PCOD9262798
Probable space group: C 2/C
;
_chemical_formula_sum "Si O2"
_cell_formula_units_Z 48
_cell_length_a 13.425813
_cell_length_b 23.693818
_cell_length_c 11.341776
_cell_angle_alpha 90.000000
_cell_angle_beta 143.121410
_cell_angle_gamma 90.000000
_cell_volume 2165.188907
_symmetry_space_group_name_H-M "C 2/C"
_symmetry_group_IT_number 15
_symmetry_cell_setting 'monoclinic'
loop_
_space_group_symop_operation_xyz
x,y,z
-x,y,1/2-z
-x,-y,-z
x,-y,1/2+z
1/2+x,1/2+y,z
1/2-x,1/2+y,1/2-z
1/2-x,1/2-y,-z
1/2+x,1/2-y,1/2+z
loop_
_atom_site_type_symbol
_atom_site_label
_atom_site_fract_x
_atom_site_fract_y
_atom_site_fract_z
Si Si1 0.144637 0.298276 0.959912
Si Si2 0.028937 0.723837 0.592445
Si Si3 0.873850 0.098033 0.740841
Si Si4 0.379531 0.338829 0.483524
Si Si5 0.832306 0.375066 0.013638
Si Si6 0.896361 0.498234 0.024141
O O1 0.000000 0.327358 0.750000
O O2 0.250000 0.250000 0.000000
O O3 0.268648 0.346543 0.112631
O O4 0.041158 0.268862 0.965289
O O5 0.001521 0.785975 0.615915
O O6 0.881069 0.680387 0.484709
O O7 0.203340 0.693924 0.788238
O O8 0.932001 0.117134 0.929411
O O9 0.746506 0.045607 0.620272
O O10 0.000000 0.090347 0.750000
O O11 0.324306 0.368741 0.550455
O O12 0.819274 0.435555 0.942532
O O13 0.000000 0.380279 0.250000
O O14 0.000000 0.504009 0.250000
O O15 0.000000 0.500000 0.000000
#
# Coordination Sequence:
#
# PCOD9262798 Si02
#       6
#     8   8   8   8   8   8
#     4  11  20  33  53  82 117 157 203 255 315 384
#     4  10  19  33  56  82 111 151 193 244 307 369
#     4  11  23  38  58  88 124 162 204 259 319 381
#     4  10  20  37  57  83 118 153 195 250 307 368
#     4   9  19  36  58  83 112 150 201 255 306 365
#     4  11  22  43  69  92 121 167 217 263 315 385
#
# _framework density 22.168968
#
# number of rings (size 3 to 8) (size 9 to 14) (size 15 to 20)
#    0.000    1.667    0.000    8.500    0.000    0.000 
#    0.000    5.000    0.000    0.000    0.000    0.000 
#    0.000    0.000    0.000    0.000    0.000    0.000 
#
# Total GULP energy -133759.164247 kJ/mol
# GULP energy per Si atom -5573.298510 kJ/mol
# Density = 2.211851 g / cm^3
# Si number density = 22.168968 Si / 1000 Ang^3
#
#
#
# Elastic Constant Matrix: (Units=GPa)
#
#
# Indices 1 2 3 4 5 6 
#
# 1 222.5083 92.9297 36.6382 0.0000 -10.0632 0.0000
# 2 92.9297 151.5115 19.7165 0.0000 -4.0853 0.0000
# 3 36.6382 19.7165 42.5187 0.0000 9.3657 0.0000
# 4 0.0000 0.0000 0.0000 -26.5341 0.0000 0.9768
# 5 -10.0632 -4.0853 9.3657 0.0000 26.6674 0.0000
# 6 0.0000 0.0000 0.0000 0.9768 0.0000 44.8852
#
#
#
# Elastic Compliance Matrix: (Units=1/GPa)
#
#
# Indices 1 2 3 4 5 6 
#
# 1 0.007007 -0.003503 -0.005287 0.000000 0.003964 0.000000
# 2 -0.003503 0.008921 -0.001223 0.000000 0.000474 0.000000
# 3 -0.005287 -0.001223 0.031564 0.000000 -0.013268 0.000000
# 4 0.000000 0.000000 0.000000 -0.037657 0.000000 0.000819
# 5 0.003964 0.000474 -0.013268 0.000000 0.043727 0.000000
# 6 0.000000 0.000000 0.000000 0.000819 0.000000 0.022261
#
#
# Mechanical properties :
#
#
# Convention : Reuss Voigt Hill
#
# Bulk Modulus (GPa) = 36.40714 79.45637 57.93175
# Shear Modulus (GPa) = 47.61763 26.82064 37.21913
#
# Velocity S-wave (km/s) = 4.63962 3.48203 4.10186
# Velocity P-wave (km/s) = 6.72009 7.21700 6.97297
#
# Compressibility (1/GPa) = 0.02746714
#
# Stress axis : x y z
#
# Youngs Moduli (GPa) = 142.71468 112.10090 31.68154
#
# Poissons Ratio (x) = 0.39268 0.16749
# Poissons Ratio (y) = 0.49991 0.03873
# Poissons Ratio (z) = 0.75450 0.13705
#
# Static dielectric constant tensor:
#      x y z
#    x 9.634760 0.000000 -11.503640 
#    y 0.000000 1.808080 0.000000 
#    z -11.503640 0.000000 18.731850 
# 
# From -- ./inp_files/90975.got.cif
#   From: 2010.05.17/outbox.cif.g08.bks.cpg/sg15_46_cif.got.tgz:90975.got - 2010.06.03 18:47:42.
