data_PCOD9262793
_publ_section_title
;
Structure prediction by ZEFSAII (Michael W. Deem and Ramdas Pophale) SiO2 
 PCOD9262793
Probable space group: C 2/C
;
_chemical_formula_sum "Si O2"
_cell_formula_units_Z 44
_cell_length_a 11.869335
_cell_length_b 19.048137
_cell_length_c 14.178624
_cell_angle_alpha 90.000000
_cell_angle_beta 46.461590
_cell_angle_gamma 90.000000
_cell_volume 2323.799835
_symmetry_space_group_name_H-M "C 2/C"
_symmetry_group_IT_number 15
_symmetry_cell_setting 'monoclinic'
loop_
_space_group_symop_operation_xyz
x,y,z
-x,y,1/2-z
-x,-y,-z
x,-y,1/2+z
1/2+x,1/2+y,z
1/2-x,1/2+y,1/2-z
1/2-x,1/2-y,-z
1/2+x,1/2-y,1/2+z
loop_
_atom_site_type_symbol
_atom_site_label
_atom_site_fract_x
_atom_site_fract_y
_atom_site_fract_z
Si Si1 0.632910 0.562260 0.364463
Si Si2 0.788484 0.330648 0.495690
Si Si3 0.029526 0.447876 0.844366
Si Si4 0.166799 0.096996 0.884617
Si Si5 0.090499 0.398448 0.400861
Si Si6 0.500000 0.410505 0.750000
O O1 0.803150 0.590056 0.242800
O O2 0.514760 0.611906 0.489463
O O3 0.665506 0.487839 0.395171
O O4 0.548144 0.546445 0.314145
O O5 0.750000 0.250000 0.500000
O O6 0.773580 0.370063 0.403904
O O7 0.648642 0.363880 0.637371
O O8 0.954737 0.345551 0.446944
O O9 0.044614 0.526911 0.877431
O O10 0.000000 0.449332 0.750000
O O11 0.912853 0.410524 0.984852
O O12 0.243220 0.117816 0.741656
#
# Coordination Sequence:
#
# PCOD9262793 Si02
#       6
#     8   8   8   8   8   4
#     4   9  17  35  52  79 113 144 182 237 288 336
#     4  11  22  34  55  82 119 155 188 233 282 346
#     4  10  19  33  56  81 114 149 182 232 284 343
#     4   9  19  33  52  78 109 145 182 230 287 332
#     4  10  19  34  52  80 112 145 191 228 279 335
#     4  10  20  34  54  84 114 148 188 236 292 334
#
# _framework density 18.934505000000001
#
# number of rings (size 3 to 8) (size 9 to 14) (size 15 to 20)
#    0.000    2.182    1.818    2.727    2.545    0.000 
#    0.000    0.000    0.000    0.000    2.364    6.364 
#    0.000    0.000    0.000    0.000    0.000    0.000 
#
# Total GULP energy -122487.603638 kJ/mol
# GULP energy per Si atom -5567.618347 kJ/mol
# Density = 1.889141 g / cm^3
# Si number density = 18.934505 Si / 1000 Ang^3
#
#
#
# Elastic Constant Matrix: (Units=GPa)
#
#
# Indices 1 2 3 4 5 6 
#
# 1 69.6483 20.8560 36.1060 -0.0001 18.8748 0.0000
# 2 20.8560 41.5915 8.0979 0.0000 11.4350 0.0000
# 3 36.1060 8.0979 145.1600 -0.0002 14.2571 0.0001
# 4 -0.0001 0.0000 -0.0002 7.4333 0.0001 -0.1060
# 5 18.8748 11.4350 14.2571 0.0001 38.4284 -0.0001
# 6 0.0000 0.0000 0.0001 -0.1060 -0.0001 15.7246
#
#
#
# Elastic Compliance Matrix: (Units=1/GPa)
#
#
# Indices 1 2 3 4 5 6 
#
# 1 0.020471 -0.007761 -0.004046 0.000000 -0.006245 0.000000
# 2 -0.007761 0.029201 0.000810 0.000000 -0.005178 0.000000
# 3 -0.004046 0.000810 0.007969 0.000000 -0.001210 0.000000
# 4 0.000000 0.000000 0.000000 0.134543 -0.000001 0.000907
# 5 -0.006245 -0.005178 -0.001210 -0.000001 0.031079 0.000000
# 6 0.000000 0.000000 0.000000 0.000907 0.000000 0.063601
#
#
# Mechanical properties :
#
#
# Convention : Reuss Voigt Hill
#
# Bulk Modulus (GPa) = 28.05192 42.94661 35.49927
# Shear Modulus (GPa) = 15.58894 25.07325 20.33110
#
# Velocity S-wave (km/s) = 2.87245 3.64292 3.28038
# Velocity P-wave (km/s) = 5.08416 6.35809 5.75648
#
# Compressibility (1/GPa) = 0.03564819
#
# Stress axis : x y z
#
# Youngs Moduli (GPa) = 48.84870 34.24550 125.48734
#
# Poissons Ratio (x) = 0.26577 0.50767
# Poissons Ratio (y) = 0.37910 -0.10163
# Poissons Ratio (z) = 0.19762 -0.02774
#
# Static dielectric constant tensor:
#      x y z
#    x 1.699990 0.000000 -0.028150 
#    y 0.000000 1.637830 0.000000 
#    z -0.028150 0.000000 1.785020 
# 
# From -- ./inp_files/119308.got.cif
#   From: 2010.05.17/outbox.cif.g08.bks.cpg/sg15_60_cif.got.tgz:119308.got - 2010.06.03 18:47:42.
