data_PCOD9262975
_publ_section_title
;
Structure prediction by ZEFSAII (Michael W. Deem and Ramdas Pophale) SiO2 
 PCOD9262975
Probable space group: C 2/C
;
_chemical_formula_sum "Si O2"
_cell_formula_units_Z 64
_cell_length_a 25.661298
_cell_length_b 21.330804
_cell_length_c 12.473874
_cell_angle_alpha 90.000000
_cell_angle_beta 30.829781
_cell_angle_gamma 90.000000
_cell_volume 3499.225810
_symmetry_space_group_name_H-M "C 2/C"
_symmetry_group_IT_number 15
_symmetry_cell_setting 'monoclinic'
loop_
_space_group_symop_operation_xyz
x,y,z
-x,y,1/2-z
-x,-y,-z
x,-y,1/2+z
1/2+x,1/2+y,z
1/2-x,1/2+y,1/2-z
1/2-x,1/2-y,-z
1/2+x,1/2-y,1/2+z
loop_
_atom_site_type_symbol
_atom_site_label
_atom_site_fract_x
_atom_site_fract_y
_atom_site_fract_z
Si Si1 0.876647 0.072882 0.758585
Si Si2 0.885908 0.717512 0.721438
Si Si3 0.430055 0.191541 0.979082
Si Si4 0.389649 0.563241 0.140652
Si Si5 0.679269 0.656774 0.058854
Si Si6 0.278990 0.621409 0.134750
Si Si7 0.315839 0.324768 0.193705
Si Si8 0.882449 0.252696 0.980527
O O1 0.857330 0.130564 0.712440
O O2 0.992166 0.072367 0.598212
O O3 0.866888 0.008360 0.710640
O O4 0.800712 0.079754 0.992296
O O5 0.871373 0.775354 0.828677
O O6 0.872342 0.746187 0.627408
O O7 0.994093 0.687409 0.554035
O O8 0.794920 0.668120 0.893730
O O9 0.500000 0.184066 0.750000
O O10 0.336983 0.143352 0.147185
O O11 0.379407 0.260405 0.073837
O O12 0.372123 0.604706 0.277946
O O13 0.319462 0.587891 0.169533
O O14 0.676644 0.644072 0.937204
O O15 0.345918 0.685167 0.003400
O O16 0.198690 0.303519 0.418717
O O17 0.000000 0.264890 0.750000
#
# Coordination Sequence:
#
# PCOD9262975 Si02
#       8
#     8   8   8   8   8   8   8   8
#     4  11  26  39  59  88 117 158 198 243 296 355
#     4  10  19  33  58  90 112 150 194 236 301 346
#     4  11  21  35  62  92 119 155 191 240 298 358
#     4  11  23  41  62  81 115 162 199 238 299 351
#     4  10  19  37  59  84 117 147 194 251 283 346
#     4  11  24  40  59  89 124 151 199 247 295 359
#     4  10  23  36  55  92 119 148 196 244 294 345
#     4  10  21  35  59  84 123 156 181 236 308 368
#
# _framework density 18.289760999999999
#
# number of rings (size 3 to 8) (size 9 to 14) (size 15 to 20)
#    0.000    1.500    2.500    2.625    5.250    1.000 
#    0.000    0.000    0.000    5.250    0.000    0.000 
#    0.000    0.000    0.000    0.000    0.000    0.000 
#
# Total GULP energy -178755.954574 kJ/mol
# GULP energy per Si atom -5586.123580 kJ/mol
# Density = 1.824813 g / cm^3
# Si number density = 18.289761 Si / 1000 Ang^3
#
#
#
# Elastic Constant Matrix: (Units=GPa)
#
#
# Indices 1 2 3 4 5 6 
#
# 1 73.0987 29.4234 28.6463 0.0000 -18.6461 0.0000
# 2 29.4234 49.1632 33.6964 0.0000 -10.8083 0.0000
# 3 28.6463 33.6964 106.1749 0.0000 -19.5132 0.0000
# 4 0.0000 0.0000 0.0000 20.4151 0.0000 -4.3785
# 5 -18.6461 -10.8083 -19.5132 0.0000 27.0390 0.0000
# 6 0.0000 0.0000 0.0000 -4.3785 0.0000 14.8790
#
#
#
# Elastic Compliance Matrix: (Units=1/GPa)
#
#
# Indices 1 2 3 4 5 6 
#
# 1 0.020245 -0.009539 -0.000657 0.000000 0.009674 0.000000
# 2 -0.009539 0.031118 -0.007177 0.000000 0.000681 0.000000
# 3 -0.000657 -0.007177 0.012985 0.000000 0.006049 0.000000
# 4 0.000000 0.000000 0.000000 0.052283 0.000000 0.015385
# 5 0.009674 0.000681 0.006049 0.000000 0.048292 0.000000
# 6 0.000000 0.000000 0.000000 0.015385 0.000000 0.071736
#
#
# Mechanical properties :
#
#
# Convention : Reuss Voigt Hill
#
# Bulk Modulus (GPa) = 33.78141 45.77433 39.77787
# Shear Modulus (GPa) = 17.77627 21.57801 19.67714
#
# Velocity S-wave (km/s) = 3.12095 3.43853 3.28358
# Velocity P-wave (km/s) = 5.61225 6.39111 6.01430
#
# Compressibility (1/GPa) = 0.02960208
#
# Stress axis : x y z
#
# Youngs Moduli (GPa) = 49.39540 32.13532 77.01135
#
# Poissons Ratio (x) = 0.30655 0.05058
# Poissons Ratio (y) = 0.47120 0.55271
# Poissons Ratio (z) = 0.03244 0.23064
#
# Static dielectric constant tensor:
#      x y z
#    x 1.635840 0.000000 0.002680 
#    y 0.000000 1.606200 0.000000 
#    z 0.002680 0.000000 1.660720 
# 
# From -- ./inp_files/120213.got.cif
#   From: 2010.05.17/outbox.cif.g08.bks.cpg/sg15_61_cif.got.tgz:120213.got - 2010.06.03 18:47:42.
