data_PCOD9262476
_publ_section_title
;
Structure prediction by ZEFSAII (Michael W. Deem and Ramdas Pophale) SiO2 
 PCOD9262476
Probable space group: C 2/C
;
_chemical_formula_sum "Si O2"
_cell_formula_units_Z 64
_cell_length_a 36.091242
_cell_length_b 16.052801
_cell_length_c 14.103882
_cell_angle_alpha 90.000000
_cell_angle_beta 26.343950
_cell_angle_gamma 90.000000
_cell_volume 3626.087048
_symmetry_space_group_name_H-M "C 2/C"
_symmetry_group_IT_number 15
_symmetry_cell_setting 'monoclinic'
loop_
_space_group_symop_operation_xyz
x,y,z
-x,y,1/2-z
-x,-y,-z
x,-y,1/2+z
1/2+x,1/2+y,z
1/2-x,1/2+y,1/2-z
1/2-x,1/2-y,-z
1/2+x,1/2-y,1/2+z
loop_
_atom_site_type_symbol
_atom_site_label
_atom_site_fract_x
_atom_site_fract_y
_atom_site_fract_z
Si Si1 0.912167 0.955878 0.903228
Si Si2 0.736037 0.496899 0.613358
Si Si3 0.817893 0.053121 0.961998
Si Si4 0.403154 0.101168 0.210082
Si Si5 0.591421 0.730843 0.063512
Si Si6 0.345562 0.721826 0.790689
Si Si7 0.986559 0.499479 0.676104
Si Si8 0.680553 0.890610 0.930294
O O1 0.917206 0.857854 0.865171
O O2 0.000000 0.978673 0.750000
O O3 0.885889 0.008978 0.872182
O O4 0.839435 0.972324 0.147304
O O5 0.708914 0.496038 0.565889
O O6 0.812323 0.563225 0.441672
O O7 0.770852 0.413083 0.583711
O O8 0.850178 0.139292 0.842581
O O9 0.739058 0.076700 0.210185
O O10 0.396027 0.199400 0.215024
O O11 0.466923 0.072060 0.145134
O O12 0.437506 0.055830 0.036742
O O13 0.500000 0.768264 0.250000
O O14 0.625323 0.707559 0.882550
O O15 0.651851 0.796457 0.975605
O O16 0.250000 0.750000 0.000000
O O17 0.000000 0.465959 0.750000
O O18 0.904796 0.557256 0.868388
#
# Coordination Sequence:
#
# PCOD9262476 Si02
#       8
#     8   8   8   8   8   8   8   8
#     4  10  23  39  55  81 108 145 188 231 280 326
#     4  10  19  36  54  81 110 142 182 227 278 333
#     4  11  21  36  59  81 108 148 187 234 274 327
#     4  10  20  32  54  86 112 144 187 221 270 335
#     4  11  20  35  55  83 113 139 185 232 274 325
#     4  12  19  33  58  83 106 140 195 231 266 321
#     4  10  19  33  52  81 122 150 171 218 283 340
#     4  10  20  32  56  84 113 141 183 229 277 325
#
# _framework density 17.649878999999999
#
# number of rings (size 3 to 8) (size 9 to 14) (size 15 to 20)
#    0.000    1.500    3.750    2.625    0.000    0.500 
#    0.000    1.250    0.000    0.000    0.000    0.000 
#    0.000    0.000    0.000    0.000    0.000    0.000 
#
# Total GULP energy -178520.095359 kJ/mol
# GULP energy per Si atom -5578.752980 kJ/mol
# Density = 1.760971 g / cm^3
# Si number density = 17.649879 Si / 1000 Ang^3
#
#
#
# Elastic Constant Matrix: (Units=GPa)
#
#
# Indices 1 2 3 4 5 6 
#
# 1 131.4373 72.9039 33.6491 0.0000 0.6836 0.0000
# 2 72.9039 113.4523 30.7122 0.0000 -4.1671 0.0000
# 3 33.6491 30.7122 51.8341 0.0000 -5.8109 0.0000
# 4 0.0000 0.0000 0.0000 22.5907 0.0000 -2.0058
# 5 0.6836 -4.1671 -5.8109 0.0000 26.1187 0.0000
# 6 0.0000 0.0000 0.0000 -2.0058 0.0000 35.4350
#
#
#
# Elastic Compliance Matrix: (Units=1/GPa)
#
#
# Indices 1 2 3 4 5 6 
#
# 1 0.012624 -0.007038 -0.004295 0.000000 -0.002409 0.000000
# 2 -0.007038 0.014424 -0.003794 0.000000 0.001642 0.000000
# 3 -0.004295 -0.003794 0.024894 0.000000 0.005046 0.000000
# 4 0.000000 0.000000 0.000000 0.044490 0.000000 0.002518
# 5 -0.002409 0.001642 0.005046 0.000000 0.039734 0.000000
# 6 0.000000 0.000000 0.000000 0.002518 0.000000 0.028363
#
#
# Mechanical properties :
#
#
# Convention : Reuss Voigt Hill
#
# Bulk Modulus (GPa) = 46.10676 63.47267 54.78972
# Shear Modulus (GPa) = 24.75102 27.45945 26.10524
#
# Velocity S-wave (km/s) = 3.74884 3.94863 3.85003
# Velocity P-wave (km/s) = 6.70210 7.53850 7.13257
#
# Compressibility (1/GPa) = 0.02168879
#
# Stress axis : x y z
#
# Youngs Moduli (GPa) = 79.21429 69.32877 40.17036
#
# Poissons Ratio (x) = 0.48793 0.17254
# Poissons Ratio (y) = 0.55750 0.15239
# Poissons Ratio (z) = 0.34024 0.26300
#
# Static dielectric constant tensor:
#      x y z
#    x 1.605790 0.000000 -0.014790 
#    y 0.000000 1.605560 0.000000 
#    z -0.014790 0.000000 1.551420 
# 
# From -- ./inp_files/127291.got.cif
#   From: 2010.05.17/outbox.cif.g08.bks.cpg/sg15_64_cif.got.tgz:127291.got - 2010.06.03 18:47:42.
