data_PCOD9262031
_publ_section_title
;
Structure prediction by ZEFSAII (Michael W. Deem and Ramdas Pophale) SiO2 
 PCOD9262031
Probable space group: C 2/C
;
_chemical_formula_sum "Si O2"
_cell_formula_units_Z 56
_cell_length_a 14.572066
_cell_length_b 22.484997
_cell_length_c 14.087665
_cell_angle_alpha 90.000000
_cell_angle_beta 144.043509
_cell_angle_gamma 90.000000
_cell_volume 2710.300102
_symmetry_space_group_name_H-M "C 2/C"
_symmetry_group_IT_number 15
_symmetry_cell_setting 'monoclinic'
loop_
_space_group_symop_operation_xyz
x,y,z
-x,y,1/2-z
-x,-y,-z
x,-y,1/2+z
1/2+x,1/2+y,z
1/2-x,1/2+y,1/2-z
1/2-x,1/2-y,-z
1/2+x,1/2-y,1/2+z
loop_
_atom_site_type_symbol
_atom_site_label
_atom_site_fract_x
_atom_site_fract_y
_atom_site_fract_z
Si Si1 0.184892 0.284367 0.175468
Si Si2 0.838351 0.492462 0.168885
Si Si3 0.275012 0.378961 0.526822
Si Si4 0.965870 0.730369 0.325828
Si Si5 0.536140 0.668917 0.133472
Si Si6 0.223594 0.612364 0.292746
Si Si7 0.504976 0.898026 0.077827
O O1 0.365748 0.270339 0.315117
O O2 0.102023 0.235348 0.173421
O O3 0.130788 0.348534 0.159807
O O4 0.124006 0.278499 0.016054
O O5 0.761679 0.554593 0.130711
O O6 0.000000 0.505856 0.250000
O O7 0.902242 0.456421 0.313667
O O8 0.730561 0.446229 0.019591
O O9 0.375005 0.362874 0.703811
O O10 0.355141 0.338225 0.512235
O O11 0.099584 0.374000 0.421299
O O12 0.867053 0.668634 0.236937
O O13 0.000000 0.753794 0.250000
O O14 0.608332 0.633953 0.104390
O O15 0.112320 0.595850 0.109254
#
# Coordination Sequence:
#
# PCOD9262031 Si02
#       7
#     8   8   8   8   8   8   8
#     4  10  21  35  57  81 114 147 188 225 281 343
#     4  10  19  32  52  79 105 140 187 236 267 324
#     4   9  19  35  50  76 112 143 186 224 274 321
#     4  10  20  36  57  83 109 146 181 232 281 333
#     4   9  19  36  52  77 109 150 181 222 278 332
#     4   9  18  34  55  76 104 144 185 224 281 327
#     4   9  19  34  50  81 109 140 184 229 277 325
#
# _framework density 20.661919000000001
#
# number of rings (size 3 to 8) (size 9 to 14) (size 15 to 20)
#    0.000    2.571    0.000    2.143    2.000    1.143 
#    7.714    0.000    0.000    0.000    0.000    0.000 
#    0.000    0.000    0.000    0.000    0.000    0.000 
#
# Total GULP energy -155990.565934 kJ/mol
# GULP energy per Si atom -5571.091641 kJ/mol
# Density = 2.061489 g / cm^3
# Si number density = 20.661919 Si / 1000 Ang^3
#
#
#
# Elastic Constant Matrix: (Units=GPa)
#
#
# Indices 1 2 3 4 5 6 
#
# 1 63.3851 29.5708 -8.9475 0.0000 2.1134 0.0000
# 2 29.5708 80.5185 -15.8524 0.0000 -3.8186 0.0000
# 3 -8.9475 -15.8524 43.5707 0.0000 -7.9463 0.0000
# 4 0.0000 0.0000 0.0000 5.1205 0.0000 11.2884
# 5 2.1134 -3.8186 -7.9463 0.0000 14.4618 0.0000
# 6 0.0000 0.0000 0.0000 11.2884 0.0000 3.9174
#
#
#
# Elastic Compliance Matrix: (Units=1/GPa)
#
#
# Indices 1 2 3 4 5 6 
#
# 1 0.019368 -0.007217 0.000542 0.000000 -0.004438 0.000000
# 2 -0.007217 0.016716 0.006220 0.000000 0.008886 0.000000
# 3 0.000542 0.006220 0.028463 0.000000 0.017203 0.000000
# 4 0.000000 0.000000 0.000000 -0.036486 0.000000 0.105136
# 5 -0.004438 0.008886 0.017203 0.000000 0.081595 0.000000
# 6 0.000000 0.000000 0.000000 0.105136 0.000000 -0.047690
#
#
# Mechanical properties :
#
#
# Convention : Reuss Voigt Hill
#
# Bulk Modulus (GPa) = 15.71358 21.89070 18.80214
# Shear Modulus (GPa) = 59.46207 16.88015 38.17111
#
# Velocity S-wave (km/s) = 5.37039 2.86137 4.30282
# Velocity P-wave (km/s) = 6.78796 4.64050 5.81423
#
# Compressibility (1/GPa) = 0.06363922
#
# Stress axis : x y z
#
# Youngs Moduli (GPa) = 51.63190 59.82301 35.13311
#
# Poissons Ratio (x) = 0.43172 -0.01905
# Poissons Ratio (y) = 0.37261 -0.21855
# Poissons Ratio (z) = -0.02800 -0.37213
#
# Static dielectric constant tensor:
#      x y z
#    x 1.768510 0.000000 -0.012710 
#    y 0.000000 1.707970 0.000000 
#    z -0.012710 0.000000 1.757250 
# 
# From -- ./inp_files/42096.got.cif
#   From: 2010.05.17/outbox.cif.g08.bks.cpg/sg15_22_cif.got.tgz:42096.got - 2010.06.03 18:47:42.
