data_PCOD9262436
_publ_section_title
;
Structure prediction by ZEFSAII (Michael W. Deem and Ramdas Pophale) SiO2 
 PCOD9262436
Probable space group: C 2/C
;
_chemical_formula_sum "Si O2"
_cell_formula_units_Z 60
_cell_length_a 29.458363
_cell_length_b 19.911212
_cell_length_c 5.008580
_cell_angle_alpha 90.000000
_cell_angle_beta 109.478624
_cell_angle_gamma 90.000000
_cell_volume 2769.649519
_symmetry_space_group_name_H-M "C 2/C"
_symmetry_group_IT_number 15
_symmetry_cell_setting 'monoclinic'
loop_
_space_group_symop_operation_xyz
x,y,z
-x,y,1/2-z
-x,-y,-z
x,-y,1/2+z
1/2+x,1/2+y,z
1/2-x,1/2+y,1/2-z
1/2-x,1/2-y,-z
1/2+x,1/2-y,1/2+z
loop_
_atom_site_type_symbol
_atom_site_label
_atom_site_fract_x
_atom_site_fract_y
_atom_site_fract_z
Si Si1 0.942127 0.957751 0.658346
Si Si2 0.500000 0.158350 0.250000
Si Si3 0.196047 0.246100 0.501293
Si Si4 0.670855 0.822455 0.957364
Si Si5 0.185785 0.461393 0.135160
Si Si6 0.604843 0.676142 0.195883
Si Si7 0.569576 0.041739 0.430174
Si Si8 0.923265 0.738654 0.370827
O O1 0.916845 0.893746 0.743045
O O2 0.000000 0.946485 0.750000
O O3 0.929910 0.980434 0.334124
O O4 0.541100 0.108994 0.444872
O O5 0.473970 0.207001 0.405436
O O6 0.250000 0.250000 0.500000
O O7 0.194196 0.267482 0.805855
O O8 0.162505 0.181904 0.369333
O O9 0.169806 0.301204 0.263539
O O10 0.616369 0.820307 0.744860
O O11 0.699200 0.891900 0.019201
O O12 0.200817 0.479603 0.462684
O O13 0.127605 0.453891 0.047025
O O14 0.581706 0.730860 0.348899
O O15 0.591588 0.702483 0.872762
O O16 0.556264 0.016980 0.109818
#
# Coordination Sequence:
#
# PCOD9262436 Si02
#       8
#     8   4   8   8   8   8   8   8
#     4  10  21  37  60  85 114 153 189 224 275 346
#     4  12  22  36  50  76 112 146 204 224 298 304
#     4  10  21  37  64  87 110 144 181 229 287 342
#     4  10  19  38  53  82 112 139 185 228 279 330
#     4  10  19  33  52  73 102 149 188 224 272 314
#     4  10  22  40  57  85 118 142 190 225 288 334
#     4  10  22  35  49  69 102 147 200 243 270 312
#     4  10  23  33  53  80 111 154 176 237 275 335
#
# _framework density 21.663392000000002
#
# number of rings (size 3 to 8) (size 9 to 14) (size 15 to 20)
#    0.000    1.867    1.333    2.400    1.867    2.133 
#    0.000    0.000    0.000    4.800    0.000    0.000 
#    0.000    0.000    0.000    0.000    0.000    0.000 
#
# Total GULP energy -167310.331912 kJ/mol
# GULP energy per Si atom -5577.011064 kJ/mol
# Density = 2.161408 g / cm^3
# Si number density = 21.663392 Si / 1000 Ang^3
#
#
#
# Elastic Constant Matrix: (Units=GPa)
#
#
# Indices 1 2 3 4 5 6 
#
# 1 85.2924 10.3321 8.0535 0.0000 -11.3844 0.0000
# 2 10.3321 61.0525 2.0680 0.0000 -4.9845 0.0000
# 3 8.0535 2.0680 67.9872 0.0000 -21.1744 0.0000
# 4 0.0000 0.0000 0.0000 8.3461 0.0000 -3.6929
# 5 -11.3844 -4.9845 -21.1744 0.0000 21.5533 0.0000
# 6 0.0000 0.0000 0.0000 -3.6929 0.0000 8.4982
#
#
#
# Elastic Compliance Matrix: (Units=1/GPa)
#
#
# Indices 1 2 3 4 5 6 
#
# 1 0.012800 -0.001610 0.000753 0.000000 0.007128 0.000000
# 2 -0.001610 0.016944 0.000909 0.000000 0.003961 0.000000
# 3 0.000753 0.000909 0.021298 0.000000 0.021531 0.000000
# 4 0.000000 0.000000 0.000000 0.148338 0.000000 0.064461
# 5 0.007128 0.003961 0.021531 0.000000 0.072230 0.000000
# 6 0.000000 0.000000 0.000000 0.064461 0.000000 0.145684
#
#
# Mechanical properties :
#
#
# Convention : Reuss Voigt Hill
#
# Bulk Modulus (GPa) = 19.55186 28.35992 23.95589
# Shear Modulus (GPa) = 11.51441 20.60476 16.05959
#
# Velocity S-wave (km/s) = 2.30796 3.08739 2.72568
# Velocity P-wave (km/s) = 4.01835 5.08221 4.58127
#
# Compressibility (1/GPa) = 0.05114602
#
# Stress axis : x y z
#
# Youngs Moduli (GPa) = 78.12680 59.01657 46.95360
#
# Poissons Ratio (x) = 0.09500 -0.03534
# Poissons Ratio (y) = 0.12576 -0.04268
# Poissons Ratio (z) = -0.05881 -0.05365
#
# Static dielectric constant tensor:
#      x y z
#    x 1.824880 0.000000 0.028280 
#    y 0.000000 1.864390 0.000000 
#    z 0.028280 0.000000 1.783550 
# 
# From -- ./inp_files/18469.got.cif
#   From: 2010.05.17/outbox.cif.g08.bks.cpg/sg15_10_cif.got.tgz:18469.got - 2010.06.03 18:47:42.
