data_PCOD9262994
_publ_section_title
;
Structure prediction by ZEFSAII (Michael W. Deem and Ramdas Pophale) SiO2 
 PCOD9262994
Probable space group: C 2/C
;
_chemical_formula_sum "Si O2"
_cell_formula_units_Z 32
_cell_length_a 9.246752
_cell_length_b 10.491629
_cell_length_c 13.265382
_cell_angle_alpha 90.000000
_cell_angle_beta 113.232198
_cell_angle_gamma 90.000000
_cell_volume 1182.569506
_symmetry_space_group_name_H-M "C 2/C"
_symmetry_group_IT_number 15
_symmetry_cell_setting 'monoclinic'
loop_
_space_group_symop_operation_xyz
x,y,z
-x,y,1/2-z
-x,-y,-z
x,-y,1/2+z
1/2+x,1/2+y,z
1/2-x,1/2+y,1/2-z
1/2-x,1/2-y,-z
1/2+x,1/2-y,1/2+z
loop_
_atom_site_type_symbol
_atom_site_label
_atom_site_fract_x
_atom_site_fract_y
_atom_site_fract_z
Si Si1 0.932273 0.311431 0.454688
Si Si2 0.634890 0.327475 0.871718
Si Si3 0.283355 0.445058 0.968042
Si Si4 0.174952 0.310076 0.760641
O O1 0.880005 0.419200 0.517273
O O2 0.895909 0.179888 0.506452
O O3 0.786541 0.301981 0.334097
O O4 0.082217 0.294684 0.423248
O O5 0.500000 0.347033 0.750000
O O6 0.635875 0.441599 0.951263
O O7 0.792650 0.318341 0.848854
O O8 0.261826 0.063074 0.162484
O O9 0.000000 0.290130 0.750000
#
# Coordination Sequence:
#
# PCOD9262994 Si02
#       4
#     8   8   8   8
#     4   8  18  35  53  78 113 146 191 246 285 343
#     4  10  19  33  59  84 108 155 201 231 289 361
#     4   9  18  35  57  79 116 147 191 246 293 339
#     4   9  19  34  51  78 114 147 186 245 286 338
#
# _framework density 27.059719000000001
#
# number of rings (size 3 to 8) (size 9 to 14) (size 15 to 20)
#    1.500    1.500    0.000    0.750    0.000    2.000 
#    0.000    5.000    0.000    0.000    0.000    0.000 
#    0.000    0.000    0.000    0.000    0.000    0.000 
#
# Total GULP energy -89348.900210 kJ/mol
# GULP energy per Si atom -5584.306263 kJ/mol
# Density = 2.699813 g / cm^3
# Si number density = 27.059719 Si / 1000 Ang^3
#
#
#
# Elastic Constant Matrix: (Units=GPa)
#
#
# Indices 1 2 3 4 5 6 
#
# 1 176.9811 26.7958 37.0267 0.0000 -50.3690 0.0000
# 2 26.7958 69.1588 41.7917 0.0000 -7.5244 0.0000
# 3 37.0267 41.7917 164.2143 0.0000 -37.5205 0.0000
# 4 0.0000 0.0000 0.0000 38.3556 0.0000 -3.5804
# 5 -50.3690 -7.5244 -37.5205 0.0000 49.8033 0.0000
# 6 0.0000 0.0000 0.0000 -3.5804 0.0000 32.5358
#
#
#
# Elastic Compliance Matrix: (Units=1/GPa)
#
#
# Indices 1 2 3 4 5 6 
#
# 1 0.008363 -0.002781 0.000796 0.000000 0.008637 0.000000
# 2 -0.002781 0.018041 -0.004813 0.000000 -0.003713 0.000000
# 3 0.000796 -0.004813 0.008640 0.000000 0.006587 0.000000
# 4 0.000000 0.000000 0.000000 0.026342 0.000000 0.002899
# 5 0.008637 -0.003713 0.006587 0.000000 0.033216 0.000000
# 6 0.000000 0.000000 0.000000 0.002899 0.000000 0.031054
#
#
# Mechanical properties :
#
#
# Convention : Reuss Voigt Hill
#
# Bulk Modulus (GPa) = 46.62506 69.06475 57.84490
# Shear Modulus (GPa) = 34.15226 44.45494 39.30360
#
# Velocity S-wave (km/s) = 3.55647 4.05760 3.81527
# Velocity P-wave (km/s) = 5.84230 6.89425 6.38996
#
# Compressibility (1/GPa) = 0.02144769
#
# Stress axis : x y z
#
# Youngs Moduli (GPa) = 119.57164 55.42802 115.74120
#
# Poissons Ratio (x) = 0.15417 -0.09209
# Poissons Ratio (y) = 0.33258 0.55702
# Poissons Ratio (z) = -0.09514 0.26676
#
# Static dielectric constant tensor:
#      x y z
#    x 2.257380 0.000000 0.090860 
#    y 0.000000 2.124700 0.000000 
#    z 0.090860 0.000000 2.166520 
# 
# From -- ./inp_files/75595.got.cif
#   From: 2010.05.17/outbox.cif.g08.bks.cpg/sg15_38_cif.got.tgz:75595.got - 2010.06.03 18:47:42.
