data_PCOD9262620
_publ_section_title
;
Structure prediction by ZEFSAII (Michael W. Deem and Ramdas Pophale) SiO2 
 PCOD9262620
Probable space group: C 2/C
;
_chemical_formula_sum "Si O2"
_cell_formula_units_Z 52
_cell_length_a 16.938947
_cell_length_b 18.264785
_cell_length_c 14.504746
_cell_angle_alpha 90.000000
_cell_angle_beta 26.313093
_cell_angle_gamma 90.000000
_cell_volume 1989.231646
_symmetry_space_group_name_H-M "C 2/C"
_symmetry_group_IT_number 15
_symmetry_cell_setting 'monoclinic'
loop_
_space_group_symop_operation_xyz
x,y,z
-x,y,1/2-z
-x,-y,-z
x,-y,1/2+z
1/2+x,1/2+y,z
1/2-x,1/2+y,1/2-z
1/2-x,1/2-y,-z
1/2+x,1/2-y,1/2+z
loop_
_atom_site_type_symbol
_atom_site_label
_atom_site_fract_x
_atom_site_fract_y
_atom_site_fract_z
Si Si1 0.673631 0.877576 0.707847
Si Si2 0.193222 0.999794 0.186027
Si Si3 0.715651 0.470803 0.384052
Si Si4 0.000000 0.822268 0.250000
Si Si5 0.161149 0.814899 0.417547
Si Si6 0.259230 0.845229 0.649745
Si Si7 0.292250 0.837768 0.073928
O O1 0.865918 0.857700 0.466269
O O2 0.674430 0.858902 0.815599
O O3 0.655598 0.965706 0.715968
O O4 0.503015 0.837758 0.845424
O O5 0.289179 0.077304 0.066795
O O6 0.987228 0.012134 0.375166
O O7 0.210151 0.983195 0.278614
O O8 0.249642 0.921722 0.089168
O O9 0.752548 0.386164 0.368278
O O10 0.845551 0.793709 0.343392
O O11 0.173132 0.734989 0.450619
O O12 0.246719 0.814728 0.226088
O O13 0.954780 0.835944 0.622607
#
# Coordination Sequence:
#
# PCOD9262620 Si02
#       7
#     8   8   8   4   8   8   8
#     4  11  21  35  57  77 106 143 184 221 265 310
#     4   8  15  31  52  77 106 136 164 222 279 315
#     4   8  15  31  52  77 106 136 164 222 279 315
#     4  12  22  40  52  74 108 148 188 232 240 304
#     4  10  19  33  54  80 114 141 170 219 277 326
#     4  10  19  33  54  80 114 141 170 219 277 326
#     4  11  21  35  57  77 106 143 184 221 265 310
#
# _framework density 26.140746
#
# number of rings (size 3 to 8) (size 9 to 14) (size 15 to 20)
#    0.000    2.154    3.077    3.231    0.000    6.769 
#    0.000    0.769    0.000    0.000    0.000    1.077 
#    0.000    0.000    0.000    0.000    0.000    0.000 
#
# Total GULP energy -145168.174769 kJ/mol
# GULP energy per Si atom -5583.391337 kJ/mol
# Density = 2.608125 g / cm^3
# Si number density = 26.140746 Si / 1000 Ang^3
#
#
#
# Elastic Constant Matrix: (Units=GPa)
#
#
# Indices 1 2 3 4 5 6 
#
# 1 47.1731 9.9705 28.9655 -0.0038 -15.9187 -0.0035
# 2 9.9705 254.9377 47.4922 -0.0028 -24.8232 -0.0123
# 3 28.9655 47.4922 77.6468 -0.0122 -39.0405 0.0057
# 4 -0.0038 -0.0028 -0.0122 33.8486 0.0106 6.0169
# 5 -15.9187 -24.8232 -39.0405 0.0106 31.0652 -0.0011
# 6 -0.0035 -0.0123 0.0057 6.0169 -0.0011 -62.9673
#
#
#
# Elastic Compliance Matrix: (Units=1/GPa)
#
#
# Indices 1 2 3 4 5 6 
#
# 1 0.027829 0.000968 -0.009276 -0.000001 0.003377 -0.000003
# 2 0.000968 0.004462 -0.002848 0.000000 0.000483 -0.000001
# 3 -0.009276 -0.002848 0.039516 -0.000001 0.042633 0.000004
# 4 -0.000001 0.000000 -0.000001 0.029050 -0.000012 0.002776
# 5 0.003377 0.000483 0.042633 -0.000012 0.087885 0.000001
# 6 -0.000003 -0.000001 0.000004 0.002776 0.000001 -0.015616
#
#
# Mechanical properties :
#
#
# Convention : Reuss Voigt Hill
#
# Bulk Modulus (GPa) = 20.20295 61.40157 40.80226
# Shear Modulus (GPa) = 23.59213 19.94458 21.76836
#
# Velocity S-wave (km/s) = 3.00743 2.76519 2.88885
# Velocity P-wave (km/s) = 4.45026 5.80817 5.17396
#
# Compressibility (1/GPa) = 0.04949772
#
# Stress axis : x y z
#
# Youngs Moduli (GPa) = 35.93371 224.10602 25.30600
#
# Poissons Ratio (x) = -0.21703 0.23473
# Poissons Ratio (y) = -0.03480 0.07206
# Poissons Ratio (z) = 0.33331 0.63816
#
# Static dielectric constant tensor:
#      x y z
#    x 1.999790 -0.000010 0.029390 
#    y -0.000010 2.197510 0.000020 
#    z 0.029390 0.000020 1.999250 
# 
# From -- ./inp_files/255845.got.cif
#   From: 2010.05.17/outbox.cif.g08.bks.cpg/sg15_128_cif.got.tgz:255845.got - 2010.06.03 18:47:42.
