data_PCOD9262553
_publ_section_title
;
Structure prediction by ZEFSAII (Michael W. Deem and Ramdas Pophale) SiO2 
 PCOD9262553
Probable space group: C 2/C
;
_chemical_formula_sum "Si O2"
_cell_formula_units_Z 64
_cell_length_a 13.063861
_cell_length_b 15.775617
_cell_length_c 23.739078
_cell_angle_alpha 90.000000
_cell_angle_beta 31.429038
_cell_angle_gamma 90.000000
_cell_volume 2551.102378
_symmetry_space_group_name_H-M "C 2/C"
_symmetry_group_IT_number 15
_symmetry_cell_setting 'monoclinic'
loop_
_space_group_symop_operation_xyz
x,y,z
-x,y,1/2-z
-x,-y,-z
x,-y,1/2+z
1/2+x,1/2+y,z
1/2-x,1/2+y,1/2-z
1/2-x,1/2-y,-z
1/2+x,1/2-y,1/2+z
loop_
_atom_site_type_symbol
_atom_site_label
_atom_site_fract_x
_atom_site_fract_y
_atom_site_fract_z
Si Si1 0.297263 0.697270 0.618689
Si Si2 0.823974 0.446067 0.031092
Si Si3 0.698916 0.643799 0.491341
Si Si4 0.234005 0.015050 0.896031
Si Si5 0.414021 0.202794 0.227968
Si Si6 0.834502 0.347380 0.200292
Si Si7 0.873460 0.628025 0.025562
Si Si8 0.338445 0.970425 0.722410
O O1 0.517009 0.679885 0.541538
O O2 0.249579 0.615854 0.601968
O O3 0.168917 0.691391 0.735549
O O4 0.287819 0.788138 0.593978
O O5 0.672559 0.390397 0.066807
O O6 0.752400 0.540079 0.081412
O O7 0.004772 0.459229 0.901831
O O8 0.928685 0.398358 0.032975
O O9 0.775967 0.558273 0.421540
O O10 0.888174 0.704190 0.401686
O O11 0.347882 0.999728 0.783965
O O12 0.000000 0.000000 0.000000
O O13 0.500000 0.188531 0.250000
O O14 0.289107 0.286022 0.281217
O O15 0.282037 0.126767 0.263276
O O16 0.050623 0.353127 0.072702
O O17 0.742126 0.441818 0.246538
#
# Coordination Sequence:
#
# PCOD9262553 Si02
#       8
#     8   8   8   8   8   8   8   8
#     4  10  20  35  54  80 112 147 182 230 284 332
#     4   9  20  34  56  73 111 151 183 227 282 330
#     4  10  19  33  53  84 111 140 188 232 279 330
#     4   9  18  31  50  78 112 144 178 230 280 328
#     4  11  19  30  56  86 107 144 184 237 282 319
#     4  10  22  34  54  84 114 147 188 229 283 340
#     4  10  20  38  52  81 113 149 187 229 276 347
#     4   9  18  35  51  79 113 147 187 225 281 339
#
# _framework density 25.087194
#
# number of rings (size 3 to 8) (size 9 to 14) (size 15 to 20)
#    0.000    2.250    1.250    2.250    1.750    3.000 
#    0.000    0.625    0.000    0.000    0.000    0.875 
#    0.000    0.000    0.000    0.000    0.000    0.000 
#
# Total GULP energy -178399.550363 kJ/mol
# GULP energy per Si atom -5574.985949 kJ/mol
# Density = 2.503009 g / cm^3
# Si number density = 25.087194 Si / 1000 Ang^3
#
#
#
# Elastic Constant Matrix: (Units=GPa)
#
#
# Indices 1 2 3 4 5 6 
#
# 1 53.5662 33.3819 14.0728 0.0015 13.6598 -0.0014
# 2 33.3819 203.9366 21.6481 -0.0013 8.6952 -0.0006
# 3 14.0728 21.6481 51.2428 -0.0085 16.5057 -0.0005
# 4 0.0015 -0.0013 -0.0085 36.6399 -0.0011 11.0939
# 5 13.6598 8.6952 16.5057 -0.0011 26.4622 0.0015
# 6 -0.0014 -0.0006 -0.0005 11.0939 0.0015 30.9036
#
#
#
# Elastic Compliance Matrix: (Units=1/GPa)
#
#
# Indices 1 2 3 4 5 6 
#
# 1 0.023752 -0.003257 -0.001930 -0.000003 -0.009987 0.000002
# 2 -0.003257 0.005584 -0.001771 0.000000 0.000951 0.000000
# 3 -0.001930 -0.001771 0.025385 0.000006 -0.014256 -0.000001
# 4 -0.000003 0.000000 0.000006 0.030621 0.000000 -0.010992
# 5 -0.009987 0.000951 -0.014256 0.000000 0.051524 -0.000003
# 6 0.000002 0.000000 -0.000001 -0.010992 -0.000003 0.036305
#
#
# Mechanical properties :
#
#
# Convention : Reuss Voigt Hill
#
# Bulk Modulus (GPa) = 24.50710 49.66124 37.08417
# Shear Modulus (GPa) = 24.91413 34.77733 29.84573
#
# Velocity S-wave (km/s) = 3.15477 3.72729 3.45292
# Velocity P-wave (km/s) = 4.80209 6.19371 5.54175
#
# Compressibility (1/GPa) = 0.04080451
#
# Stress axis : x y z
#
# Youngs Moduli (GPa) = 42.10153 179.08044 39.39339
#
# Poissons Ratio (x) = 0.58331 0.07604
# Poissons Ratio (y) = 0.13713 0.06976
# Poissons Ratio (z) = 0.08126 0.31713
#
# Static dielectric constant tensor:
#      x y z
#    x 2.094360 -0.000020 -0.032800 
#    y -0.000020 2.107950 0.000000 
#    z -0.032800 0.000000 2.050370 
# 
# From -- ./inp_files/316383.got.cif
#   From: 2010.05.17/outbox.cif.g08.bks.cpg/sg15_159_cif.got.tgz:316383.got - 2010.06.03 18:47:42.
