data_PCOD9262745
_publ_section_title
;
Structure prediction by ZEFSAII (Michael W. Deem and Ramdas Pophale) SiO2 
 PCOD9262745
Probable space group: C 2/C
;
_chemical_formula_sum "Si O2"
_cell_formula_units_Z 56
_cell_length_a 22.226228
_cell_length_b 12.145622
_cell_length_c 24.587154
_cell_angle_alpha 90.000000
_cell_angle_beta 24.150973
_cell_angle_gamma 90.000000
_cell_volume 2715.615470
_symmetry_space_group_name_H-M "C 2/C"
_symmetry_group_IT_number 15
_symmetry_cell_setting 'monoclinic'
loop_
_space_group_symop_operation_xyz
x,y,z
-x,y,1/2-z
-x,-y,-z
x,-y,1/2+z
1/2+x,1/2+y,z
1/2-x,1/2+y,1/2-z
1/2-x,1/2-y,-z
1/2+x,1/2-y,1/2+z
loop_
_atom_site_type_symbol
_atom_site_label
_atom_site_fract_x
_atom_site_fract_y
_atom_site_fract_z
Si Si1 0.008729 0.216791 0.026110
Si Si2 0.117432 0.011963 0.999604
Si Si3 0.548833 0.157975 0.648287
Si Si4 0.643538 0.361901 0.305759
Si Si5 0.872611 0.907625 0.893911
Si Si6 0.211810 0.358227 0.726306
Si Si7 0.073131 0.567889 0.859137
O O1 0.838774 0.172344 0.166336
O O2 0.032065 0.342087 0.025451
O O3 0.100945 0.131420 0.985748
O O4 0.054423 0.201641 0.926428
O O5 0.165367 0.022032 0.021780
O O6 0.955639 0.958678 0.134256
O O7 0.212025 0.933905 0.882310
O O8 0.500000 0.126347 0.750000
O O9 0.714476 0.117906 0.497820
O O10 0.560016 0.290697 0.640668
O O11 0.440098 0.110898 0.692209
O O12 0.674515 0.264869 0.237676
O O13 0.781074 0.410007 0.225172
O O14 0.000000 0.954226 0.750000
O O15 0.074153 0.435193 0.857712
#
# Coordination Sequence:
#
# PCOD9262745 Si02
#       7
#     8   8   8   8   8   8   8
#     4  10  19  33  55  84 113 158 184 233 298 364
#     4  11  18  40  61  77 117 160 197 234 302 362
#     4  10  21  35  56  89 122 150 196 252 300 349
#     4  10  21  34  56  86 114 149 198 233 298 359
#     4  10  22  38  59  87 115 159 203 241 295 366
#     4  10  20  34  55  83 116 154 191 238 293 356
#     4  11  19  33  56  85 120 146 188 242 299 351
#
# _framework density 20.621476999999999
#
# number of rings (size 3 to 8) (size 9 to 14) (size 15 to 20)
#    0.000    1.714    4.286    1.714    0.000    1.714 
#    0.000    4.286    0.000    4.286    0.000    0.000 
#    0.000    0.000    0.000    0.000    0.000    0.000 
#
# Total GULP energy -155881.374994 kJ/mol
# GULP energy per Si atom -5567.191964 kJ/mol
# Density = 2.057454 g / cm^3
# Si number density = 20.621477 Si / 1000 Ang^3
#
#
#
# Elastic Constant Matrix: (Units=GPa)
#
#
# Indices 1 2 3 4 5 6 
#
# 1 54.8799 6.8879 -1.3680 -0.0002 -0.3598 -0.0002
# 2 6.8879 35.0170 2.8362 -0.0048 -9.9442 0.0003
# 3 -1.3680 2.8362 38.0417 -0.0044 -2.1433 0.0001
# 4 -0.0002 -0.0048 -0.0044 28.8486 0.0008 3.5330
# 5 -0.3598 -9.9442 -2.1433 0.0008 25.4116 0.0001
# 6 -0.0002 0.0003 0.0001 3.5330 0.0001 14.7111
#
#
#
# Elastic Compliance Matrix: (Units=1/GPa)
#
#
# Indices 1 2 3 4 5 6 
#
# 1 0.018754 -0.004124 0.000910 0.000000 -0.001271 0.000000
# 2 -0.004124 0.033144 -0.001901 0.000005 0.012751 -0.000002
# 3 0.000910 -0.001901 0.026546 0.000004 0.001508 -0.000001
# 4 0.000000 0.000005 0.000004 0.035714 0.000001 -0.008577
# 5 -0.001271 0.012751 0.001508 0.000001 0.044451 -0.000001
# 6 0.000000 -0.000002 -0.000001 -0.008577 -0.000001 0.070036
#
#
# Mechanical properties :
#
#
# Convention : Reuss Voigt Hill
#
# Bulk Modulus (GPa) = 14.65953 16.07230 15.36591
# Shear Modulus (GPa) = 19.11229 21.76641 20.43935
#
# Velocity S-wave (km/s) = 3.04767 3.25240 3.15170
# Velocity P-wave (km/s) = 4.41686 4.68135 4.55103
#
# Compressibility (1/GPa) = 0.06821502
#
# Stress axis : x y z
#
# Youngs Moduli (GPa) = 53.32331 30.17163 37.66993
#
# Poissons Ratio (x) = 0.12442 -0.03429
# Poissons Ratio (y) = 0.21988 0.07161
# Poissons Ratio (z) = -0.04853 0.05735
#
# Static dielectric constant tensor:
#      x y z
#    x 1.713350 0.000000 0.014110 
#    y 0.000000 1.772570 0.000000 
#    z 0.014110 0.000000 1.881120 
# 
# From -- ./inp_files/279979.got.cif
#   From: 2010.05.17/outbox.cif.g08.bks.cpg/sg15_140_cif.got.tgz:279979.got - 2010.06.03 18:47:42.
