data_PCOD9262152
_publ_section_title
;
Structure prediction by ZEFSAII (Michael W. Deem and Ramdas Pophale) SiO2 
 PCOD9262152
Probable space group: C 2/C
;
_chemical_formula_sum "Si O2"
_cell_formula_units_Z 48
_cell_length_a 10.490428
_cell_length_b 19.694452
_cell_length_c 20.782667
_cell_angle_alpha 90.000000
_cell_angle_beta 145.022306
_cell_angle_gamma 90.000000
_cell_volume 2461.433587
_symmetry_space_group_name_H-M "C 2/C"
_symmetry_group_IT_number 15
_symmetry_cell_setting 'monoclinic'
loop_
_space_group_symop_operation_xyz
x,y,z
-x,y,1/2-z
-x,-y,-z
x,-y,1/2+z
1/2+x,1/2+y,z
1/2-x,1/2+y,1/2-z
1/2-x,1/2-y,-z
1/2+x,1/2-y,1/2+z
loop_
_atom_site_type_symbol
_atom_site_label
_atom_site_fract_x
_atom_site_fract_y
_atom_site_fract_z
Si Si1 0.996881 0.619698 0.825189
Si Si2 0.875152 0.526241 0.268072
Si Si3 0.706887 0.139221 0.446256
Si Si4 0.672872 0.710978 0.878811
Si Si5 0.483565 0.388879 0.935288
Si Si6 0.487898 0.242623 0.904136
O O1 0.902279 0.687553 0.818215
O O2 0.000000 0.628062 0.750000
O O3 0.878172 0.549917 0.795030
O O4 0.252567 0.609919 0.952741
O O5 0.628636 0.550605 0.149580
O O6 0.000000 0.524352 0.250000
O O7 0.013535 0.582485 0.365137
O O8 0.624847 0.213685 0.387603
O O9 0.814368 0.156153 0.559430
O O10 0.886629 0.114541 0.467601
O O11 0.500000 0.697411 0.750000
O O12 0.914469 0.716413 0.943961
O O13 0.401911 0.319430 0.867322
O O14 0.750000 0.250000 0.000000
#
# Coordination Sequence:
#
# PCOD9262152 Si02
#       6
#     8   8   8   8   8   8
#     4  10  21  33  55  86 110 146 187 232 283 342
#     4   9  18  34  54  81 111 147 182 231 278 339
#     4   9  18  32  54  79 108 149 185 223 287 333
#     4  10  19  32  54  83 110 144 192 238 274 332
#     4   9  18  36  56  78 115 146 181 234 288 330
#     4   9  19  37  53  78 116 146 182 238 278 329
#
# _framework density 19.500830000000001
#
# number of rings (size 3 to 8) (size 9 to 14) (size 15 to 20)
#    0.000    2.667    0.000    2.500    2.333    6.000 
#    6.000    0.833    0.000    0.000    0.000    0.000 
#    0.000    0.000    0.000    0.000    0.000    0.000 
#
# Total GULP energy -133788.307996 kJ/mol
# GULP energy per Si atom -5574.512833 kJ/mol
# Density = 1.945645 g / cm^3
# Si number density = 19.500830 Si / 1000 Ang^3
#
#
#
# Elastic Constant Matrix: (Units=GPa)
#
#
# Indices 1 2 3 4 5 6 
#
# 1 48.4004 26.0830 22.1371 -0.0003 -1.3472 -0.0001
# 2 26.0830 110.6380 44.3736 -0.0003 -23.0634 -0.0002
# 3 22.1371 44.3736 90.8185 0.0002 -15.4544 0.0003
# 4 -0.0003 -0.0003 0.0002 24.1793 -0.0003 0.1051
# 5 -1.3472 -23.0634 -15.4544 -0.0003 24.2134 0.0000
# 6 -0.0001 -0.0002 0.0003 0.1051 0.0000 11.2473
#
#
#
# Elastic Compliance Matrix: (Units=1/GPa)
#
#
# Indices 1 2 3 4 5 6 
#
# 1 0.025630 -0.005602 -0.004685 0.000000 -0.006900 0.000000
# 2 -0.005602 0.014076 -0.003684 0.000000 0.010745 0.000000
# 3 -0.004685 -0.003684 0.014933 0.000000 0.005762 -0.000001
# 4 0.000000 0.000000 0.000000 0.041359 0.000001 -0.000386
# 5 -0.006900 0.010745 0.005762 0.000001 0.054828 0.000000
# 6 0.000000 0.000000 -0.000001 -0.000386 0.000000 0.088914
#
#
# Mechanical properties :
#
#
# Convention : Reuss Voigt Hill
#
# Bulk Modulus (GPa) = 37.45356 48.33825 42.89590
# Shear Modulus (GPa) = 18.07785 22.41219 20.24502
#
# Velocity S-wave (km/s) = 3.04802 3.39380 3.22555
# Velocity P-wave (km/s) = 5.62450 6.34025 5.99307
#
# Compressibility (1/GPa) = 0.02669973
#
# Stress axis : x y z
#
# Youngs Moduli (GPa) = 39.01620 71.04045 66.96491
#
# Poissons Ratio (x) = 0.39796 0.31370
# Poissons Ratio (y) = 0.21856 0.24669
# Poissons Ratio (z) = 0.18277 0.26170
#
# Static dielectric constant tensor:
#      x y z
#    x 1.688230 0.000000 0.024790 
#    y 0.000000 1.713250 0.000000 
#    z 0.024790 0.000000 1.699230 
# 
# From -- ./inp_files/240457.got.cif
#   From: 2010.05.17/outbox.cif.g08.bks.cpg/sg15_121_cif.got.tgz:240457.got - 2010.06.03 18:47:42.
