data_PCOD9262855
_publ_section_title
;
Structure prediction by ZEFSAII (Michael W. Deem and Ramdas Pophale) SiO2 
 PCOD9262855
Probable space group: C 2/C
;
_chemical_formula_sum "Si O2"
_cell_formula_units_Z 56
_cell_length_a 21.551302
_cell_length_b 11.964580
_cell_length_c 24.984782
_cell_angle_alpha 90.000000
_cell_angle_beta 157.307745
_cell_angle_gamma 90.000000
_cell_volume 2485.351080
_symmetry_space_group_name_H-M "C 2/C"
_symmetry_group_IT_number 15
_symmetry_cell_setting 'monoclinic'
loop_
_space_group_symop_operation_xyz
x,y,z
-x,y,1/2-z
-x,-y,-z
x,-y,1/2+z
1/2+x,1/2+y,z
1/2-x,1/2+y,1/2-z
1/2-x,1/2-y,-z
1/2+x,1/2-y,1/2+z
loop_
_atom_site_type_symbol
_atom_site_label
_atom_site_fract_x
_atom_site_fract_y
_atom_site_fract_z
Si Si1 0.547551 0.848396 0.227604
Si Si2 0.222666 0.496454 0.018103
Si Si3 0.044536 0.443903 0.620685
Si Si4 0.007356 0.350299 0.481326
Si Si5 0.669552 0.519265 0.017120
Si Si6 0.599243 0.386005 0.568086
Si Si7 0.864120 0.898001 0.732719
O O1 0.500000 0.824739 0.250000
O O2 0.378380 0.889270 0.069332
O O3 0.687591 0.943436 0.342543
O O4 0.598066 0.731227 0.245227
O O5 0.079187 0.422920 0.929500
O O6 0.277514 0.457381 0.002770
O O7 0.346635 0.528889 0.163902
O O8 0.074986 0.576682 0.631265
O O9 0.956217 0.395486 0.498372
O O10 0.217878 0.391261 0.765838
O O11 0.482806 0.281414 0.967397
O O12 0.190465 0.389784 0.620899
O O13 0.624367 0.616825 0.023164
O O14 0.506209 0.449821 0.880095
O O15 0.500000 0.500000 0.500000
#
# Coordination Sequence:
#
# PCOD9262855 Si02
#       7
#     8   8   8   8   8   8   8
#     4  10  19  33  56  90 126 168 219 272 334 394
#     4  10  21  38  63  89 136 176 214 278 338 393
#     4  10  23  46  66  94 132 176 223 282 341 390
#     4  10  25  43  67  94 133 176 223 285 335 402
#     4  11  22  38  62  99 130 175 224 275 333 405
#     4  12  25  41  68  99 132 177 228 275 335 405
#     4  11  21  37  61  95 133 173 223 281 340 397
#
# _framework density 22.532029999999999
#
# number of rings (size 3 to 8) (size 9 to 14) (size 15 to 20)
#    0.000    1.429    1.429    3.857    2.000    4.571 
#    0.000    0.714    0.000    0.000    0.000    0.000 
#    0.000    0.000    0.000    0.000    0.000    0.000 
#
# Total GULP energy -156175.104905 kJ/mol
# GULP energy per Si atom -5577.682318 kJ/mol
# Density = 2.248075 g / cm^3
# Si number density = 22.532030 Si / 1000 Ang^3
#
#
#
# Elastic Constant Matrix: (Units=GPa)
#
#
# Indices 1 2 3 4 5 6 
#
# 1 112.2995 13.8949 35.2823 -0.0003 6.3529 -0.0005
# 2 13.8949 48.3245 11.9489 -0.0010 5.4259 -0.0018
# 3 35.2823 11.9489 67.6102 -0.0065 -2.8941 -0.0049
# 4 -0.0003 -0.0010 -0.0065 29.9813 -0.0008 6.6131
# 5 6.3529 5.4259 -2.8941 -0.0008 36.6941 0.0000
# 6 -0.0005 -0.0018 -0.0049 6.6131 0.0000 16.3869
#
#
#
# Elastic Compliance Matrix: (Units=1/GPa)
#
#
# Indices 1 2 3 4 5 6 
#
# 1 0.010953 -0.001545 -0.005533 -0.000001 -0.002104 -0.000001
# 2 -0.001545 0.022318 -0.003279 0.000000 -0.003291 0.000002
# 3 -0.005533 -0.003279 0.018381 0.000003 0.002893 0.000004
# 4 -0.000001 0.000000 0.000003 0.036613 0.000001 -0.014776
# 5 -0.002104 -0.003291 0.002893 0.000001 0.028332 0.000000
# 6 -0.000001 0.000002 0.000004 -0.014776 0.000000 0.066987
#
#
# Mechanical properties :
#
#
# Convention : Reuss Voigt Hill
#
# Bulk Modulus (GPa) = 32.32192 38.94293 35.63243
# Shear Modulus (GPa) = 23.29789 27.75299 25.52544
#
# Velocity S-wave (km/s) = 3.21906 3.51338 3.36944
# Velocity P-wave (km/s) = 5.30966 5.81200 5.56650
#
# Compressibility (1/GPa) = 0.03093876
#
# Stress axis : x y z
#
# Youngs Moduli (GPa) = 91.29640 44.80694 54.40290
#
# Poissons Ratio (x) = 0.06923 0.30101
# Poissons Ratio (y) = 0.14106 0.17838
# Poissons Ratio (z) = 0.50514 0.14692
#
# Static dielectric constant tensor:
#      x y z
#    x 1.981010 0.000000 -0.023090 
#    y 0.000000 1.729000 0.000000 
#    z -0.023090 0.000000 1.879230 
# 
# From -- ./inp_files/302478.got.cif
#   From: 2010.05.17/outbox.cif.g08.bks.cpg/sg15_152_cif.got.tgz:302478.got - 2010.06.03 18:47:42.
