data_PCOD9262729
_publ_section_title
;
Structure prediction by ZEFSAII (Michael W. Deem and Ramdas Pophale) SiO2 
 PCOD9262729
Probable space group: C 2/C
;
_chemical_formula_sum "Si O2"
_cell_formula_units_Z 64
_cell_length_a 8.009541
_cell_length_b 13.565877
_cell_length_c 28.074887
_cell_angle_alpha 90.000000
_cell_angle_beta 90.900278
_cell_angle_gamma 90.000000
_cell_volume 3050.140933
_symmetry_space_group_name_H-M "C 2/C"
_symmetry_group_IT_number 15
_symmetry_cell_setting 'monoclinic'
loop_
_space_group_symop_operation_xyz
x,y,z
-x,y,1/2-z
-x,-y,-z
x,-y,1/2+z
1/2+x,1/2+y,z
1/2-x,1/2+y,1/2-z
1/2-x,1/2-y,-z
1/2+x,1/2-y,1/2+z
loop_
_atom_site_type_symbol
_atom_site_label
_atom_site_fract_x
_atom_site_fract_y
_atom_site_fract_z
Si Si1 0.126636 0.523439 0.415166
Si Si2 0.314423 0.409854 0.766384
Si Si3 0.293588 0.202482 0.146298
Si Si4 0.684474 0.195229 0.175543
Si Si5 0.753979 0.588026 0.669412
Si Si6 0.120356 0.088333 0.517251
Si Si7 0.744469 0.094845 0.078707
Si Si8 0.577273 0.390746 0.395206
O O1 0.227922 0.616818 0.393412
O O2 0.118070 0.447008 0.370821
O O3 0.225058 0.466474 0.456526
O O4 0.948948 0.565959 0.429257
O O5 0.500000 0.430544 0.750000
O O6 0.313715 0.327358 0.808302
O O7 0.215740 0.375253 0.719779
O O8 0.239761 0.507474 0.789604
O O9 0.486158 0.197537 0.165350
O O10 0.291844 0.310662 0.123521
O O11 0.764001 0.301034 0.187326
O O12 0.759907 0.160974 0.125579
O O13 0.570320 0.586224 0.643145
O O14 0.180217 0.140030 0.469241
O O15 0.020817 0.147321 0.557798
O O16 0.000000 0.000000 0.500000
O O17 0.835994 0.992409 0.091061
#
# Coordination Sequence:
#
# PCOD9262729 Si02
#       8
#     8   8   8   8   8   8   8   8
#     4   9  18  35  55  78 110 143 181 230 275 314
#     4  11  22  35  56  83 107 138 180 227 274 324
#     4   9  20  38  57  78 109 146 182 224 274 330
#     4  10  21  37  56  80 110 147 184 222 272 329
#     4   9  20  38  55  75 108 146 181 219 272 336
#     4   9  18  34  55  81 112 150 185 220 270 329
#     4  10  19  33  55  83 112 141 184 236 272 311
#     4   9  18  36  59  80 109 149 185 220 273 331
#
# _framework density 20.982637
#
# number of rings (size 3 to 8) (size 9 to 14) (size 15 to 20)
#    0.000    2.500    0.000    1.500    0.000    5.000 
#    0.000   16.250    0.000    0.000    0.000    0.000 
#    0.000    0.000    0.000    0.000    0.000    0.000 
#
# Total GULP energy -178609.264788 kJ/mol
# GULP energy per Si atom -5581.539525 kJ/mol
# Density = 2.093488 g / cm^3
# Si number density = 20.982637 Si / 1000 Ang^3
#
#
#
# Elastic Constant Matrix: (Units=GPa)
#
#
# Indices 1 2 3 4 5 6 
#
# 1 19.5983 4.3134 12.8585 0.0000 -9.7549 0.0000
# 2 4.3134 66.2790 47.6801 0.0000 -3.0034 0.0000
# 3 12.8585 47.6801 110.1333 0.0000 0.0122 0.0000
# 4 0.0000 0.0000 0.0000 14.2039 0.0000 -1.8280
# 5 -9.7549 -3.0034 0.0122 0.0000 14.5202 0.0000
# 6 0.0000 0.0000 0.0000 -1.8280 0.0000 17.9823
#
#
#
# Elastic Compliance Matrix: (Units=1/GPa)
#
#
# Indices 1 2 3 4 5 6 
#
# 1 0.088470 0.006437 -0.013123 0.000000 0.060778 0.000000
# 2 0.006437 0.022684 -0.010573 0.000000 0.009025 0.000000
# 3 -0.013123 -0.010573 0.015191 0.000000 -0.011016 0.000000
# 4 0.000000 0.000000 0.000000 0.071336 0.000000 0.007252
# 5 0.060778 0.009025 -0.011016 0.000000 0.111578 0.000000
# 6 0.000000 0.000000 0.000000 0.007252 0.000000 0.056347
#
#
# Mechanical properties :
#
#
# Convention : Reuss Voigt Hill
#
# Bulk Modulus (GPa) = 10.89006 36.19052 23.54029
# Shear Modulus (GPa) = 11.60811 18.08518 14.84665
#
# Velocity S-wave (km/s) = 2.35462 2.93902 2.66290
# Velocity P-wave (km/s) = 3.54875 5.36679 4.54951
#
# Compressibility (1/GPa) = 0.09182687
#
# Stress axis : x y z
#
# Youngs Moduli (GPa) = 11.30324 44.08407 65.82980
#
# Poissons Ratio (x) = -0.28376 0.86386
# Poissons Ratio (y) = -0.07276 0.69603
# Poissons Ratio (z) = 0.14833 0.46611
#
# Static dielectric constant tensor:
#      x y z
#    x 1.763910 0.000000 -0.025000 
#    y 0.000000 1.768110 0.000000 
#    z -0.025000 0.000000 1.779590 
# 
# From -- ./inp_files/264720.got.cif
#   From: 2010.05.17/outbox.cif.g08.bks.cpg/sg15_133_cif.got.tgz:264720.got - 2010.06.03 18:47:42.
