data_PCOD9262630
_publ_section_title
;
Structure prediction by ZEFSAII (Michael W. Deem and Ramdas Pophale) SiO2 
 PCOD9262630
Probable space group: C 2/C
;
_chemical_formula_sum "Si O2"
_cell_formula_units_Z 64
_cell_length_a 10.702840
_cell_length_b 17.839138
_cell_length_c 27.587756
_cell_angle_alpha 90.000000
_cell_angle_beta 27.941156
_cell_angle_gamma 90.000000
_cell_volume 2468.076772
_symmetry_space_group_name_H-M "C 2/C"
_symmetry_group_IT_number 15
_symmetry_cell_setting 'monoclinic'
loop_
_space_group_symop_operation_xyz
x,y,z
-x,y,1/2-z
-x,-y,-z
x,-y,1/2+z
1/2+x,1/2+y,z
1/2-x,1/2+y,1/2-z
1/2-x,1/2-y,-z
1/2+x,1/2-y,1/2+z
loop_
_atom_site_type_symbol
_atom_site_label
_atom_site_fract_x
_atom_site_fract_y
_atom_site_fract_z
Si Si1 0.995642 0.225667 0.190742
Si Si2 0.233644 0.535300 0.368681
Si Si3 0.416110 0.953779 0.231676
Si Si4 0.822013 0.104593 0.441592
Si Si5 0.286185 0.970878 0.953658
Si Si6 0.227863 0.644358 0.868337
Si Si7 0.587911 0.342189 0.441584
Si Si8 0.503435 0.670662 0.631253
O O1 0.978306 0.159303 0.156171
O O2 0.270644 0.270253 0.083359
O O3 0.000000 0.216079 0.250000
O O4 0.736108 0.275593 0.270571
O O5 0.500000 0.562222 0.250000
O O6 0.232125 0.558105 0.424882
O O7 0.244273 0.445806 0.360985
O O8 0.967471 0.565278 0.433672
O O9 0.500000 0.001759 0.250000
O O10 0.640158 0.889158 0.160077
O O11 0.132186 0.913155 0.323947
O O12 0.487232 0.996011 0.158875
O O13 0.572873 0.153926 0.547296
O O14 0.869088 0.041351 0.467185
O O15 0.114323 0.912327 0.980895
O O16 0.500000 0.672252 0.750000
O O17 0.262818 0.672713 0.910876
O O18 0.452307 0.311288 0.439495
#
# Coordination Sequence:
#
# PCOD9262630 Si02
#       8
#     8   8   8   8   8   8   8   8
#     4   9  20  38  58  82 117 159 202 244 297 368
#     4  10  20  33  52  82 118 149 187 244 304 360
#     4   9  18  32  54  80 108 144 192 243 292 356
#     4  11  21  35  56  87 119 147 194 261 307 350
#     4  11  20  33  56  86 114 151 196 248 308 359
#     4  10  19  33  54  81 111 147 189 238 301 368
#     4   9  18  34  56  79 108 150 198 236 284 369
#     4   9  16  34  57  75 103 155 198 228 289 376
#
# _framework density 25.931122999999999
#
# number of rings (size 3 to 8) (size 9 to 14) (size 15 to 20)
#    0.000    2.250    0.000    7.500    0.000    1.000 
#    0.000   12.500    0.000    0.750    0.000    4.375 
#    0.000    0.000    0.000    0.000    0.000    0.000 
#
# Total GULP energy -178164.718258 kJ/mol
# GULP energy per Si atom -5567.647446 kJ/mol
# Density = 2.587210 g / cm^3
# Si number density = 25.931123 Si / 1000 Ang^3
#
#
#
# Elastic Constant Matrix: (Units=GPa)
#
#
# Indices 1 2 3 4 5 6 
#
# 1 79.1536 20.6306 18.1630 0.0161 6.9375 0.0210
# 2 20.6306 69.8631 25.4858 -0.0107 -2.0854 -0.0089
# 3 18.1630 25.4858 74.9203 0.2894 1.2794 0.0359
# 4 0.0161 -0.0107 0.2894 -19.3253 -0.0688 -35.4944
# 5 6.9375 -2.0854 1.2794 -0.0688 43.0998 0.0027
# 6 0.0210 -0.0089 0.0359 -35.4944 0.0027 -2.3640
#
#
#
# Elastic Compliance Matrix: (Units=1/GPa)
#
#
# Indices 1 2 3 4 5 6 
#
# 1 0.014261 -0.003467 -0.002237 0.000008 -0.002397 -0.000010
# 2 -0.003467 0.017224 -0.005045 -0.000008 0.001541 -0.000046
# 3 -0.002237 -0.005045 0.015612 0.000007 -0.000347 0.000124
# 4 0.000008 -0.000008 0.000007 0.001947 0.000003 -0.029233
# 5 -0.002397 0.001541 -0.000347 0.000003 0.023673 -0.000052
# 6 -0.000010 -0.000046 0.000124 -0.029233 -0.000052 0.015918
#
#
# Mechanical properties :
#
#
# Convention : Reuss Voigt Hill
#
# Bulk Modulus (GPa) = 39.06399 39.16621 39.11510
# Shear Modulus (GPa) = 42.13595 14.92595 28.53095
#
# Velocity S-wave (km/s) = 4.03540 2.40177 3.32061
# Velocity P-wave (km/s) = 6.06711 4.77787 5.46067
#
# Compressibility (1/GPa) = 0.02559903
#
# Stress axis : x y z
#
# Youngs Moduli (GPa) = 70.12329 58.05935 64.05401
#
# Poissons Ratio (x) = 0.20127 0.14329
# Poissons Ratio (y) = 0.24309 0.32315
# Poissons Ratio (z) = 0.15687 0.29290
#
# Static dielectric constant tensor:
#      x y z
#    x 2.087640 0.000110 0.044790 
#    y 0.000110 2.119880 0.000010 
#    z 0.044790 0.000010 2.174450 
# 
# From -- ./inp_files/311630.got.cif
#   From: 2010.05.17/outbox.cif.g08.bks.cpg/sg15_156_cif.got.tgz:311630.got - 2010.06.03 18:47:42.
