data_PCOD9262785
_publ_section_title
;
Structure prediction by ZEFSAII (Michael W. Deem and Ramdas Pophale) SiO2 
 PCOD9262785
Probable space group: C 2/C
;
_chemical_formula_sum "Si O2"
_cell_formula_units_Z 40
_cell_length_a 5.197073
_cell_length_b 18.802576
_cell_length_c 25.590491
_cell_angle_alpha 90.000000
_cell_angle_beta 52.048970
_cell_angle_gamma 90.000000
_cell_volume 1971.862736
_symmetry_space_group_name_H-M "C 2/C"
_symmetry_group_IT_number 15
_symmetry_cell_setting 'monoclinic'
loop_
_space_group_symop_operation_xyz
x,y,z
-x,y,1/2-z
-x,-y,-z
x,-y,1/2+z
1/2+x,1/2+y,z
1/2-x,1/2+y,1/2-z
1/2-x,1/2-y,-z
1/2+x,1/2-y,1/2+z
loop_
_atom_site_type_symbol
_atom_site_label
_atom_site_fract_x
_atom_site_fract_y
_atom_site_fract_z
Si Si1 0.296909 0.081246 0.325962
Si Si2 0.212379 0.791887 0.071995
Si Si3 0.665447 0.329487 0.469368
Si Si4 0.202201 0.822864 0.674626
Si Si5 0.144803 0.968222 0.534863
O O1 0.500000 0.054977 0.250000
O O2 0.554367 0.116682 0.333583
O O3 0.048309 0.141376 0.334657
O O4 0.082931 0.026143 0.385820
O O5 0.447816 0.820394 0.088276
O O6 0.045748 0.850200 0.055236
O O7 0.923708 0.739722 0.124735
O O8 0.476971 0.742896 0.008374
O O9 0.651604 0.384316 0.518894
O O10 0.000000 0.797107 0.750000
O O11 0.500000 0.000000 0.500000
O O12 0.000000 0.000000 0.500000
#
# Coordination Sequence:
#
# PCOD9262785 Si02
#       5
#     8   8   8   8   8
#     4  10  21  37  57  83 114 146 191 242 293 338
#     4  10  19  33  56  80 115 140 174 228 279 358
#     4  10  21  33  54  81 110 147 177 222 290 327
#     4  10  19  33  57  85 115 145 180 235 292 345
#     4  12  24  38  59  83 117 151 200 248 279 339
#
# _framework density 20.285388000000001
#
# number of rings (size 3 to 8) (size 9 to 14) (size 15 to 20)
#    0.000    1.600    2.000    3.600    5.600    0.000 
#    0.000    0.000    0.000    7.200    0.000    0.000 
#    0.000    0.000    0.000    0.000    0.000    0.000 
#
# Total GULP energy -111493.109263 kJ/mol
# GULP energy per Si atom -5574.655463 kJ/mol
# Density = 2.023922 g / cm^3
# Si number density = 20.285388 Si / 1000 Ang^3
#
#
#
# Elastic Constant Matrix: (Units=GPa)
#
#
# Indices 1 2 3 4 5 6 
#
# 1 157.3348 22.5967 40.1092 0.0000 -15.1481 0.0000
# 2 22.5967 31.3483 25.9144 0.0000 1.6385 0.0000
# 3 40.1092 25.9144 135.4434 0.0000 -17.8789 0.0000
# 4 0.0000 0.0000 0.0000 33.1536 0.0000 -3.8984
# 5 -15.1481 1.6385 -17.8789 0.0000 26.2700 0.0000
# 6 0.0000 0.0000 0.0000 -3.8984 0.0000 29.7504
#
#
#
# Elastic Compliance Matrix: (Units=1/GPa)
#
#
# Indices 1 2 3 4 5 6 
#
# 1 0.007694 -0.005168 -0.000727 0.000000 0.004264 0.000000
# 2 -0.005168 0.042967 -0.008172 0.000000 -0.011222 0.000000
# 3 -0.000727 -0.008172 0.010079 0.000000 0.006950 0.000000
# 4 0.000000 0.000000 0.000000 0.030635 0.000000 0.004014
# 5 0.004264 -0.011222 0.006950 0.000000 0.045956 0.000000
# 6 0.000000 0.000000 0.000000 0.004014 0.000000 0.034139
#
#
# Mechanical properties :
#
#
# Convention : Reuss Voigt Hill
#
# Bulk Modulus (GPa) = 30.66832 55.70748 43.18790
# Shear Modulus (GPa) = 23.75622 33.53521 28.64571
#
# Velocity S-wave (km/s) = 3.42585 4.07033 3.76192
# Velocity P-wave (km/s) = 5.54976 7.04355 6.34080
#
# Compressibility (1/GPa) = 0.03260694
#
# Stress axis : x y z
#
# Youngs Moduli (GPa) = 129.97201 23.27384 99.21307
#
# Poissons Ratio (x) = 0.12028 0.07210
# Poissons Ratio (y) = 0.67172 0.81073
# Poissons Ratio (z) = 0.09445 0.19019
#
# Static dielectric constant tensor:
#      x y z
#    x 1.822060 0.000000 0.028000 
#    y 0.000000 1.777280 0.000000 
#    z 0.028000 0.000000 1.750960 
# 
# From -- ./inp_files/226857.got.cif
#   From: 2010.05.17/outbox.cif.g08.bks.cpg/sg15_114_cif.got.tgz:226857.got - 2010.06.03 18:47:42.
