data_PCOD9262178
_publ_section_title
;
Structure prediction by ZEFSAII (Michael W. Deem and Ramdas Pophale) SiO2 
 PCOD9262178
Probable space group: C 2/C
;
_chemical_formula_sum "Si O2"
_cell_formula_units_Z 40
_cell_length_a 10.347953
_cell_length_b 16.806691
_cell_length_c 13.322136
_cell_angle_alpha 90.000000
_cell_angle_beta 37.654461
_cell_angle_gamma 90.000000
_cell_volume 1415.400073
_symmetry_space_group_name_H-M "C 2/C"
_symmetry_group_IT_number 15
_symmetry_cell_setting 'monoclinic'
loop_
_space_group_symop_operation_xyz
x,y,z
-x,y,1/2-z
-x,-y,-z
x,-y,1/2+z
1/2+x,1/2+y,z
1/2-x,1/2+y,1/2-z
1/2-x,1/2-y,-z
1/2+x,1/2-y,1/2+z
loop_
_atom_site_type_symbol
_atom_site_label
_atom_site_fract_x
_atom_site_fract_y
_atom_site_fract_z
Si Si1 0.644029 0.698431 0.456893
Si Si2 0.500000 0.778726 0.250000
Si Si3 0.852387 0.332445 0.635074
Si Si4 0.292769 0.500356 0.762564
Si Si5 0.500000 0.365843 0.250000
Si Si6 0.803101 0.085749 0.561221
O O1 0.835957 0.674527 0.266907
O O2 0.554949 0.783619 0.477833
O O3 0.615795 0.685101 0.592706
O O4 0.465280 0.637073 0.527766
O O5 0.348936 0.719260 0.281240
O O6 0.343996 0.845526 0.396951
O O7 0.834240 0.424590 0.619624
O O8 0.322905 0.576044 0.812928
O O9 0.206188 0.527374 0.705908
O O10 0.535779 0.466650 0.602543
#
# Coordination Sequence:
#
# PCOD9262178 Si02
#       6
#     8   4   8   8   4   8
#     4   9  20  35  52  78 110 138 173 220 264 312
#     4  10  19  32  55  80 108 138 168 218 279 310
#     4  10  20  35  55  81 107 135 177 222 262 313
#     4   9  17  32  53  73  99 138 180 211 251 314
#     4  10  19  34  55  74 102 144 178 212 263 314
#     4   8  17  33  50  74 105 134 171 221 261 304
#
# _framework density 28.260560999999999
#
# number of rings (size 3 to 8) (size 9 to 14) (size 15 to 20)
#    0.000    2.800    0.000    1.800    0.000    9.600 
#    0.000    3.000    0.000    7.200    0.000    0.000 
#    0.000    0.000    0.000    0.000    0.000    0.000 
#
# Total GULP energy -111883.130719 kJ/mol
# GULP energy per Si atom -5594.156536 kJ/mol
# Density = 2.819624 g / cm^3
# Si number density = 28.260561 Si / 1000 Ang^3
#
#
#
# Elastic Constant Matrix: (Units=GPa)
#
#
# Indices 1 2 3 4 5 6 
#
# 1 99.5762 42.7580 11.9090 -0.0063 3.8636 0.0051
# 2 42.7580 226.2269 42.5771 -0.0123 5.4855 0.0069
# 3 11.9090 42.5771 62.0696 -0.0183 17.5849 0.0082
# 4 -0.0063 -0.0123 -0.0183 54.4288 0.0042 7.8088
# 5 3.8636 5.4855 17.5849 0.0042 27.1203 -0.0017
# 6 0.0051 0.0069 0.0082 7.8088 -0.0017 37.9401
#
#
#
# Elastic Compliance Matrix: (Units=1/GPa)
#
#
# Indices 1 2 3 4 5 6 
#
# 1 0.010977 -0.001955 -0.000532 0.000001 -0.000824 -0.000001
# 2 -0.001955 0.005475 -0.003853 0.000000 0.001670 0.000000
# 3 -0.000532 -0.003853 0.022803 0.000009 -0.013930 -0.000007
# 4 0.000001 0.000000 0.000009 0.018932 -0.000009 -0.003896
# 5 -0.000824 0.001670 -0.013930 -0.000009 0.045685 0.000007
# 6 -0.000001 0.000000 -0.000007 -0.003896 0.000007 0.027159
#
#
# Mechanical properties :
#
#
# Convention : Reuss Voigt Hill
#
# Bulk Modulus (GPa) = 37.62975 64.70678 51.16827
# Shear Modulus (GPa) = 32.77214 43.27309 38.02261
#
# Velocity S-wave (km/s) = 3.40905 3.91732 3.67199
# Velocity P-wave (km/s) = 5.37026 6.58838 6.01026
#
# Compressibility (1/GPa) = 0.02657471
#
# Stress axis : x y z
#
# Youngs Moduli (GPa) = 91.09554 182.66488 43.85437
#
# Poissons Ratio (x) = 0.35705 0.02333
# Poissons Ratio (y) = 0.17806 0.16898
# Poissons Ratio (z) = 0.04847 0.70385
#
# Static dielectric constant tensor:
#      x y z
#    x 2.286530 0.000000 0.038170 
#    y 0.000000 2.100270 0.000010 
#    z 0.038170 0.000010 2.285730 
# 
# From -- ./inp_files/62883.got.cif
#   From: 2010.05.17/outbox.cif.g08.bks.cpg/sg15_32_cif.got.tgz:62883.got - 2010.06.03 18:47:42.
