data_PCOD9262427
_publ_section_title
;
Structure prediction by ZEFSAII (Michael W. Deem and Ramdas Pophale) SiO2 
 PCOD9262427
Probable space group: C 2/C
;
_chemical_formula_sum "Si O2"
_cell_formula_units_Z 60
_cell_length_a 18.131110
_cell_length_b 20.553363
_cell_length_c 9.463264
_cell_angle_alpha 90.000000
_cell_angle_beta 76.838457
_cell_angle_gamma 90.000000
_cell_volume 3433.900151
_symmetry_space_group_name_H-M "C 2/C"
_symmetry_group_IT_number 15
_symmetry_cell_setting 'monoclinic'
loop_
_space_group_symop_operation_xyz
x,y,z
-x,y,1/2-z
-x,-y,-z
x,-y,1/2+z
1/2+x,1/2+y,z
1/2-x,1/2+y,1/2-z
1/2-x,1/2-y,-z
1/2+x,1/2-y,1/2+z
loop_
_atom_site_type_symbol
_atom_site_label
_atom_site_fract_x
_atom_site_fract_y
_atom_site_fract_z
Si Si1 0.365606 0.605409 0.307247
Si Si2 0.446813 0.522454 0.655118
Si Si3 0.696341 0.170665 0.876085
Si Si4 0.109820 0.738180 0.285944
Si Si5 0.500000 0.296964 0.750000
Si Si6 0.953120 0.281304 0.989561
Si Si7 0.737766 0.679969 0.348066
Si Si8 0.178467 0.127249 0.875373
O O1 0.407435 0.539023 0.248961
O O2 0.431042 0.656244 0.319868
O O3 0.318621 0.628975 0.193686
O O4 0.310451 0.611553 0.464855
O O5 0.500000 0.554741 0.750000
O O6 0.500000 0.500000 0.500000
O O7 0.380768 0.571681 0.643008
O O8 0.702363 0.248161 0.841573
O O9 0.740968 0.130456 0.739274
O O10 0.606982 0.162074 0.944049
O O11 0.745248 0.164144 0.997158
O O12 0.088516 0.752458 0.129474
O O13 0.179484 0.688161 0.256461
O O14 0.138306 0.803833 0.350953
O O15 0.036484 0.706905 0.390370
O O16 0.471391 0.257409 0.625824
#
# Coordination Sequence:
#
# PCOD9262427 Si02
#       8
#     8   8   8   8   4   8   8   8
#     4  12  23  37  52  77 111 144 186 229 263 316
#     4  12  26  40  54  78 110 148 191 225 263 317
#     4   9  19  34  54  76 102 145 180 221 273 328
#     4   9  20  35  55  78 107 147 181 220 274 332
#     4  12  20  30  50  80 106 140 182 222 268 304
#     4  10  19  33  51  80 109 139 181 220 273 329
#     4   9  19  34  53  77 105 141 183 222 272 321
#     4  11  23  36  51  78 105 144 187 219 275 311
#
# _framework density 17.472843999999998
#
# number of rings (size 3 to 8) (size 9 to 14) (size 15 to 20)
#    0.000    1.600    4.667    0.800    3.733    3.200 
#    0.000    0.000    0.000    0.000    0.000    0.933 
#    0.000    2.133    0.000    0.400    0.000    0.267 
#
# Total GULP energy -167037.986261 kJ/mol
# GULP energy per Si atom -5567.932875 kJ/mol
# Density = 1.743308 g / cm^3
# Si number density = 17.472844 Si / 1000 Ang^3
#
#
#
# Elastic Constant Matrix: (Units=GPa)
#
#
# Indices 1 2 3 4 5 6 
#
# 1 75.2540 7.7942 11.9099 0.0000 -17.6786 0.0000
# 2 7.7942 21.0007 13.9963 0.0000 -6.3415 0.0000
# 3 11.9099 13.9963 69.0762 0.0000 -29.7814 0.0000
# 4 0.0000 0.0000 0.0000 17.5338 0.0000 -0.4568
# 5 -17.6786 -6.3415 -29.7814 0.0000 34.5483 0.0000
# 6 0.0000 0.0000 0.0000 -0.4568 0.0000 18.7113
#
#
#
# Elastic Compliance Matrix: (Units=1/GPa)
#
#
# Indices 1 2 3 4 5 6 
#
# 1 0.015513 -0.004445 0.002064 0.000000 0.008901 0.000000
# 2 -0.004445 0.056338 -0.011413 0.000000 -0.001771 0.000000
# 3 0.002064 -0.011413 0.025441 0.000000 0.020891 0.000000
# 4 0.000000 0.000000 0.000000 0.057069 0.000000 0.001393
# 5 0.008901 -0.001771 0.020891 0.000000 0.051183 0.000000
# 6 0.000000 0.000000 0.000000 0.001393 0.000000 0.053478
#
#
# Mechanical properties :
#
#
# Convention : Reuss Voigt Hill
#
# Bulk Modulus (GPa) = 14.34642 25.85907 20.10274
# Shear Modulus (GPa) = 16.13709 22.93406 19.53558
#
# Velocity S-wave (km/s) = 3.04230 3.62685 3.34736
# Velocity P-wave (km/s) = 4.53534 5.68950 5.14489
#
# Compressibility (1/GPa) = 0.06970381
#
# Stress axis : x y z
#
# Youngs Moduli (GPa) = 64.46132 17.74986 39.30733
#
# Poissons Ratio (x) = 0.07890 -0.08111
# Poissons Ratio (y) = 0.28653 0.44860
# Poissons Ratio (z) = -0.13302 0.20257
#
# Static dielectric constant tensor:
#      x y z
#    x 1.612340 0.000000 -0.024480 
#    y 0.000000 1.562700 0.000000 
#    z -0.024480 0.000000 1.697650 
# 
# From -- ./inp_files/50222.got.cif
#   From: 2010.05.17/outbox.cif.g08.bks.cpg/sg15_26_cif.got.tgz:50222.got - 2010.06.03 18:47:42.
