data_PCOD9262817
_publ_section_title
;
Structure prediction by ZEFSAII (Michael W. Deem and Ramdas Pophale) SiO2 
 PCOD9262817
Probable space group: C 2/C
;
_chemical_formula_sum "Si O2"
_cell_formula_units_Z 56
_cell_length_a 13.148111
_cell_length_b 25.162373
_cell_length_c 12.093898
_cell_angle_alpha 90.000000
_cell_angle_beta 131.888606
_cell_angle_gamma 90.000000
_cell_volume 2978.608954
_symmetry_space_group_name_H-M "C 2/C"
_symmetry_group_IT_number 15
_symmetry_cell_setting 'monoclinic'
loop_
_space_group_symop_operation_xyz
x,y,z
-x,y,1/2-z
-x,-y,-z
x,-y,1/2+z
1/2+x,1/2+y,z
1/2-x,1/2+y,1/2-z
1/2-x,1/2-y,-z
1/2+x,1/2-y,1/2+z
loop_
_atom_site_type_symbol
_atom_site_label
_atom_site_fract_x
_atom_site_fract_y
_atom_site_fract_z
Si Si1 0.349932 0.477630 0.117675
Si Si2 0.443873 0.790841 0.334910
Si Si3 0.787435 0.091485 0.986042
Si Si4 0.835806 0.461761 0.308919
Si Si5 0.418512 0.109232 0.464152
Si Si6 0.331611 0.710553 0.974728
Si Si7 0.857665 0.430226 0.700113
O O1 0.500000 0.456520 0.250000
O O2 0.364014 0.536725 0.073906
O O3 0.267684 0.481589 0.172775
O O4 0.263408 0.438849 0.975140
O O5 0.500000 0.802796 0.250000
O O6 0.504478 0.835997 0.457671
O O7 0.520195 0.737198 0.428209
O O8 0.279716 0.790183 0.205591
O O9 0.730067 0.081023 0.821801
O O10 0.668362 0.095930 0.990483
O O11 0.851454 0.150305 0.031737
O O12 0.877388 0.510007 0.260415
O O13 0.965254 0.435399 0.459781
O O14 0.330967 0.105673 0.288735
O O15 0.250000 0.750000 0.000000
O O16 0.000000 0.412113 0.750000
#
# Coordination Sequence:
#
# PCOD9262817 Si02
#       7
#     8   8   8   8   8   8   8
#     4  11  25  41  55  81 123 164 197 243 292 359
#     4  10  19  33  56  84 122 153 188 237 296 356
#     4  11  21  35  57  88 119 161 195 233 302 353
#     4  11  20  35  59  81 118 156 200 242 284 345
#     4  12  18  35  59  87 114 154 200 246 285 343
#     4  10  19  34  53  84 123 151 191 239 292 359
#     4  11  22  35  58  87 112 154 204 244 284 348
#
# _framework density 18.800722
#
# number of rings (size 3 to 8) (size 9 to 14) (size 15 to 20)
#    0.000    1.143    7.143    2.571    0.000    4.000 
#    0.000    0.000    0.000    0.000    0.000    5.000 
#    0.000    0.000    0.000    0.000    0.000    0.000 
#
# Total GULP energy -156100.192624 kJ/mol
# GULP energy per Si atom -5575.006879 kJ/mol
# Density = 1.875793 g / cm^3
# Si number density = 18.800722 Si / 1000 Ang^3
#
#
#
# Elastic Constant Matrix: (Units=GPa)
#
#
# Indices 1 2 3 4 5 6 
#
# 1 29.8501 4.6130 31.7652 0.0000 3.1884 0.0000
# 2 4.6130 69.6080 34.1426 0.0000 -1.2156 0.0000
# 3 31.7652 34.1426 121.1072 0.0000 2.8228 0.0000
# 4 0.0000 0.0000 0.0000 26.1867 0.0000 -4.1948
# 5 3.1884 -1.2156 2.8228 0.0000 24.6316 0.0000
# 6 0.0000 0.0000 0.0000 -4.1948 0.0000 3.9065
#
#
#
# Elastic Compliance Matrix: (Units=1/GPa)
#
#
# Indices 1 2 3 4 5 6 
#
# 1 0.047647 0.003299 -0.013323 0.000000 -0.004478 0.000000
# 2 0.003299 0.016946 -0.005667 0.000000 0.001059 0.000000
# 3 -0.013323 -0.005667 0.013351 0.000000 -0.000085 0.000000
# 4 0.000000 0.000000 0.000000 0.046121 0.000000 0.049525
# 5 -0.004478 0.001059 -0.000085 0.000000 0.041240 0.000000
# 6 0.000000 0.000000 0.000000 0.049525 0.000000 0.309166
#
#
# Mechanical properties :
#
#
# Convention : Reuss Voigt Hill
#
# Bulk Modulus (GPa) = 21.47691 40.17855 30.82773
# Shear Modulus (GPa) = 9.59003 20.94791 15.26897
#
# Velocity S-wave (km/s) = 2.26096 3.34160 2.85291
# Velocity P-wave (km/s) = 4.27366 6.02540 5.22349
#
# Compressibility (1/GPa) = 0.04656164
#
# Stress axis : x y z
#
# Youngs Moduli (GPa) = 20.98765 59.01142 74.89856
#
# Poissons Ratio (x) = -0.19469 0.99788
# Poissons Ratio (y) = -0.06924 0.42448
# Poissons Ratio (z) = 0.27962 0.33444
#
# Static dielectric constant tensor:
#      x y z
#    x 1.639720 0.000000 0.001590 
#    y 0.000000 1.685640 0.000000 
#    z 0.001590 0.000000 1.759560 
# 
# From -- ./inp_files/92110.got.cif
#   From: 2010.05.17/outbox.cif.g08.bks.cpg/sg15_47_cif.got.tgz:92110.got - 2010.06.03 18:47:42.
