data_PCOD9262333
_publ_section_title
;
Structure prediction by ZEFSAII (Michael W. Deem and Ramdas Pophale) SiO2 
 PCOD9262333
Probable space group: C 2/C
;
_chemical_formula_sum "Si O2"
_cell_formula_units_Z 44
_cell_length_a 10.263130
_cell_length_b 10.376128
_cell_length_c 22.485029
_cell_angle_alpha 90.000000
_cell_angle_beta 134.527848
_cell_angle_gamma 90.000000
_cell_volume 1707.037744
_symmetry_space_group_name_H-M "C 2/C"
_symmetry_group_IT_number 15
_symmetry_cell_setting 'monoclinic'
loop_
_space_group_symop_operation_xyz
x,y,z
-x,y,1/2-z
-x,-y,-z
x,-y,1/2+z
1/2+x,1/2+y,z
1/2-x,1/2+y,1/2-z
1/2-x,1/2-y,-z
1/2+x,1/2-y,1/2+z
loop_
_atom_site_type_symbol
_atom_site_label
_atom_site_fract_x
_atom_site_fract_y
_atom_site_fract_z
Si Si1 0.756001 0.237390 0.239308
Si Si2 0.500000 0.186786 0.250000
Si Si3 0.950507 0.946754 0.664940
Si Si4 0.044137 0.551277 0.848797
Si Si5 0.380981 0.896535 0.426456
Si Si6 0.349348 0.735737 0.928088
O O1 0.644352 0.237215 0.141367
O O2 0.853344 0.103883 0.294401
O O3 0.910033 0.343846 0.274715
O O4 0.647746 0.274847 0.264176
O O5 0.455658 0.087467 0.182209
O O6 0.805648 0.837514 0.599299
O O7 0.000000 0.931896 0.750000
O O8 0.828501 0.074758 0.621123
O O9 0.251554 0.602141 0.911975
O O10 0.951485 0.563378 0.883697
O O11 0.464317 0.762601 0.477046
O O12 0.500000 0.000000 0.500000
#
# Coordination Sequence:
#
# PCOD9262333 Si02
#       6
#     8   4   8   8   8   8
#     4  10  21  39  60  92 126 163 225 263 312 384
#     4  12  22  38  66  92 124 170 218 270 312 376
#     4   8  15  31  53  83 120 157 205 258 301 373
#     4  11  20  38  62  94 122 171 216 261 319 378
#     4  10  19  32  61  96 122 170 211 254 330 382
#     4   9  17  35  59  87 128 161 209 268 311 382
#
# _framework density 25.775644
#
# number of rings (size 3 to 8) (size 9 to 14) (size 15 to 20)
#    0.000    2.182    1.818    4.909    0.000    0.000 
#    4.909    0.000    0.000   32.727    0.000    0.000 
#    0.000    0.000    0.000    0.000    0.000    0.000 
#
# Total GULP energy -122536.741318 kJ/mol
# GULP energy per Si atom -5569.851878 kJ/mol
# Density = 2.571698 g / cm^3
# Si number density = 25.775644 Si / 1000 Ang^3
#
#
#
# Elastic Constant Matrix: (Units=GPa)
#
#
# Indices 1 2 3 4 5 6 
#
# 1 147.7593 18.7473 28.7486 0.0000 -21.5587 0.0000
# 2 18.7473 52.1888 7.4091 0.0000 0.1610 0.0000
# 3 28.7486 7.4091 65.5337 0.0000 -16.5386 0.0000
# 4 0.0000 0.0000 0.0000 24.8002 0.0000 3.6924
# 5 -21.5587 0.1610 -16.5386 0.0000 43.4324 0.0000
# 6 0.0000 0.0000 0.0000 3.6924 0.0000 39.7095
#
#
#
# Elastic Compliance Matrix: (Units=1/GPa)
#
#
# Indices 1 2 3 4 5 6 
#
# 1 0.008013 -0.002539 -0.002458 0.000000 0.003051 0.000000
# 2 -0.002539 0.020318 -0.001682 0.000000 -0.001976 0.000000
# 3 -0.002458 -0.001682 0.017946 0.000000 0.005620 0.000000
# 4 0.000000 0.000000 0.000000 0.040888 0.000000 -0.003802
# 5 0.003051 -0.001976 0.005620 0.000000 0.026686 0.000000
# 6 0.000000 0.000000 0.000000 -0.003802 0.000000 0.025536
#
#
# Mechanical properties :
#
#
# Convention : Reuss Voigt Hill
#
# Bulk Modulus (GPa) = 30.37760 41.69911 36.03836
# Shear Modulus (GPa) = 30.53997 35.62688 33.08342
#
# Velocity S-wave (km/s) = 3.44588 3.72182 3.58650
# Velocity P-wave (km/s) = 5.25767 5.88915 5.58235
#
# Compressibility (1/GPa) = 0.03291899
#
# Stress axis : x y z
#
# Youngs Moduli (GPa) = 124.79183 49.21714 55.72225
#
# Poissons Ratio (x) = 0.12496 0.13698
# Poissons Ratio (y) = 0.31684 0.09373
# Poissons Ratio (z) = 0.30678 0.08278
#
# Static dielectric constant tensor:
#      x y z
#    x 2.142060 0.000000 0.163190 
#    y 0.000000 2.284760 0.000000 
#    z 0.163190 0.000000 2.286400 
# 
# From -- ./inp_files/189321.got.cif
#   From: 2010.05.17/outbox.cif.g08.bks.cpg/sg15_95_cif.got.tgz:189321.got - 2010.06.03 18:47:42.
