data_PCOD9262165
_publ_section_title
;
Structure prediction by ZEFSAII (Michael W. Deem and Ramdas Pophale) SiO2 
 PCOD9262165
Probable space group: C 2/C
;
_chemical_formula_sum "Si O2"
_cell_formula_units_Z 64
_cell_length_a 16.526179
_cell_length_b 6.856285
_cell_length_c 23.846036
_cell_angle_alpha 90.000000
_cell_angle_beta 122.011498
_cell_angle_gamma 90.000000
_cell_volume 2291.097237
_symmetry_space_group_name_H-M "C 2/C"
_symmetry_group_IT_number 15
_symmetry_cell_setting 'monoclinic'
loop_
_space_group_symop_operation_xyz
x,y,z
-x,y,1/2-z
-x,-y,-z
x,-y,1/2+z
1/2+x,1/2+y,z
1/2-x,1/2+y,1/2-z
1/2-x,1/2-y,-z
1/2+x,1/2-y,1/2+z
loop_
_atom_site_type_symbol
_atom_site_label
_atom_site_fract_x
_atom_site_fract_y
_atom_site_fract_z
Si Si1 0.158687 0.690916 0.733913
Si Si2 0.215903 0.878068 0.126153
Si Si3 0.732336 0.924973 0.093256
Si Si4 0.465553 0.273116 0.990768
Si Si5 0.272659 0.964650 0.031048
Si Si6 0.648291 0.362148 0.264974
Si Si7 0.977810 0.875951 0.374214
Si Si8 0.529857 0.818424 0.400221
O O1 0.192097 0.575894 0.801630
O O2 0.253624 0.697806 0.730721
O O3 0.136460 0.906098 0.748393
O O4 0.069883 0.622186 0.664688
O O5 0.218923 0.647351 0.111311
O O6 0.213998 0.987575 0.066267
O O7 0.124472 0.917465 0.131627
O O8 0.633826 0.812690 0.068142
O O9 0.823905 0.843955 0.160106
O O10 0.746924 0.914573 0.032029
O O11 0.473204 0.242573 0.060426
O O12 0.500000 0.500000 0.000000
O O13 0.534460 0.172747 0.969985
O O14 0.381622 0.937433 0.090346
O O15 0.250000 0.750000 0.000000
O O16 0.555594 0.287747 0.197456
O O17 0.033094 0.082445 0.389254
#
# Coordination Sequence:
#
# PCOD9262165 Si02
#       8
#     8   8   8   8   8   8   8   8
#     4   9  17  32  54  85 113 157 197 248 308 364
#     4   9  19  35  56  84 124 159 200 250 312 383
#     4  10  19  34  56  83 121 154 205 257 311 367
#     4  10  19  32  54  85 118 149 196 264 315 358
#     4  10  21  35  53  83 123 160 198 255 311 377
#     4   9  17  33  54  83 118 149 199 254 309 359
#     4   9  19  34  57  86 119 154 197 256 315 366
#     4  10  19  33  56  83 118 152 199 254 302 368
#
# _framework density 27.934215999999999
#
# number of rings (size 3 to 8) (size 9 to 14) (size 15 to 20)
#    0.000    2.500    1.250    1.500    0.000    2.500 
#    2.250    0.000    0.000   27.000    0.000    0.000 
#   30.000    0.000    0.000    0.000    0.000    0.000 
#
# Total GULP energy -179008.873230 kJ/mol
# GULP energy per Si atom -5594.027288 kJ/mol
# Density = 2.787064 g / cm^3
# Si number density = 27.934216 Si / 1000 Ang^3
#
#
#
# Elastic Constant Matrix: (Units=GPa)
#
#
# Indices 1 2 3 4 5 6 
#
# 1 69.3353 19.5407 39.5697 0.0000 1.1616 0.0000
# 2 19.5407 108.6560 36.8794 0.0000 -6.8096 0.0000
# 3 39.5697 36.8794 250.1289 0.0000 18.2165 0.0000
# 4 0.0000 0.0000 0.0000 35.6226 0.0000 -3.6995
# 5 1.1616 -6.8096 18.2165 0.0000 43.6267 0.0000
# 6 0.0000 0.0000 0.0000 -3.6995 0.0000 28.1727
#
#
#
# Elastic Compliance Matrix: (Units=1/GPa)
#
#
# Indices 1 2 3 4 5 6 
#
# 1 0.016326 -0.002151 -0.002279 0.000000 0.000181 0.000000
# 2 -0.002151 0.010176 -0.001320 0.000000 0.002197 0.000000
# 3 -0.002279 -0.001320 0.004707 0.000000 -0.002111 0.000000
# 4 0.000000 0.000000 0.000000 0.028460 0.000000 0.003737
# 5 0.000181 0.002197 -0.002111 0.000000 0.024141 0.000000
# 6 0.000000 0.000000 0.000000 0.003737 0.000000 0.035986
#
#
# Mechanical properties :
#
#
# Convention : Reuss Voigt Hill
#
# Bulk Modulus (GPa) = 50.73849 68.89996 59.81922
# Shear Modulus (GPa) = 36.26695 43.62644 39.94669
#
# Velocity S-wave (km/s) = 3.60710 3.95619 3.78567
# Velocity P-wave (km/s) = 5.96248 6.75183 6.36940
#
# Compressibility (1/GPa) = 0.01970890
#
# Stress axis : x y z
#
# Youngs Moduli (GPa) = 61.25030 98.27077 212.45957
#
# Poissons Ratio (x) = 0.21142 0.48415
# Poissons Ratio (y) = 0.13177 0.28045
# Poissons Ratio (z) = 0.13958 0.12972
#
# Static dielectric constant tensor:
#      x y z
#    x 2.184650 0.000000 0.040760 
#    y 0.000000 2.224290 0.000000 
#    z 0.040760 0.000000 2.268150 
# 
# From -- ./inp_files/276948.got.cif
#   From: 2010.05.17/outbox.cif.g08.bks.cpg/sg15_139_cif.got.tgz:276948.got - 2010.06.03 18:47:42.
