data_PCOD9262854
_publ_section_title
;
Structure prediction by ZEFSAII (Michael W. Deem and Ramdas Pophale) SiO2 
 PCOD9262854
Probable space group: C 2/C
;
_chemical_formula_sum "Si O2"
_cell_formula_units_Z 64
_cell_length_a 18.382943
_cell_length_b 24.487241
_cell_length_c 14.102594
_cell_angle_alpha 90.000000
_cell_angle_beta 31.490722
_cell_angle_gamma 90.000000
_cell_volume 3316.074039
_symmetry_space_group_name_H-M "C 2/C"
_symmetry_group_IT_number 15
_symmetry_cell_setting 'monoclinic'
loop_
_space_group_symop_operation_xyz
x,y,z
-x,y,1/2-z
-x,-y,-z
x,-y,1/2+z
1/2+x,1/2+y,z
1/2-x,1/2+y,1/2-z
1/2-x,1/2-y,-z
1/2+x,1/2-y,1/2+z
loop_
_atom_site_type_symbol
_atom_site_label
_atom_site_fract_x
_atom_site_fract_y
_atom_site_fract_z
Si Si1 0.832883 0.480478 0.747125
Si Si2 0.161808 0.833624 0.571314
Si Si3 0.304827 0.458670 0.248428
Si Si4 0.044569 0.014646 0.099645
Si Si5 0.522230 0.190565 0.489488
Si Si6 0.269595 0.264687 0.822642
Si Si7 0.039561 0.390725 0.596002
Si Si8 0.081809 0.593972 0.757186
O O1 0.791771 0.491303 0.683187
O O2 0.899895 0.536765 0.710133
O O3 0.933607 0.432278 0.661815
O O4 0.680116 0.476136 0.964463
O O5 0.189889 0.784915 0.464653
O O6 0.206012 0.810082 0.624374
O O7 0.264019 0.883159 0.434926
O O8 0.000000 0.845496 0.750000
O O9 0.414961 0.481080 0.200968
O O10 0.196998 0.412642 0.401703
O O11 0.397114 0.446420 0.050365
O O12 0.000000 0.037417 0.250000
O O13 0.415126 0.239196 0.629529
O O14 0.675852 0.211492 0.342847
O O15 0.489135 0.166417 0.423453
O O16 0.488293 0.140917 0.600553
O O17 0.000000 0.390830 0.750000
O O18 0.000000 0.587410 0.750000
#
# Coordination Sequence:
#
# PCOD9262854 Si02
#       8
#     8   8   8   8   8   8   8   8
#     4  10  21  39  58  88 131 169 206 258 299 362
#     4  10  19  33  56  90 125 164 192 236 318 391
#     4   9  20  37  58  85 120 165 209 257 299 364
#     4   9  18  35  57  82 117 168 206 245 306 358
#     4  11  22  40  61  89 117 157 206 257 327 372
#     4  10  20  36  61  85 123 156 194 259 318 373
#     4  12  24  42  64  87 120 169 223 268 309 359
#     4  11  21  33  55  91 130 163 198 238 303 400
#
# _framework density 19.29993
#
# number of rings (size 3 to 8) (size 9 to 14) (size 15 to 20)
#    0.750    1.000    3.750    1.500    0.000    0.500 
#    0.000    4.375    0.000    0.000    0.000    0.000 
#    0.000    0.000    0.000    0.000    0.000    0.000 
#
# Total GULP energy -178527.033845 kJ/mol
# GULP energy per Si atom -5578.969808 kJ/mol
# Density = 1.925600 g / cm^3
# Si number density = 19.299930 Si / 1000 Ang^3
#
#
#
# Elastic Constant Matrix: (Units=GPa)
#
#
# Indices 1 2 3 4 5 6 
#
# 1 86.9383 7.1640 42.8884 -0.0159 -2.6905 0.0090
# 2 7.1640 33.5295 10.0243 -0.0107 -3.7637 0.0118
# 3 42.8884 10.0243 78.4325 -0.0109 -4.6146 0.0154
# 4 -0.0159 -0.0107 -0.0109 21.1868 0.0126 -0.3413
# 5 -2.6905 -3.7637 -4.6146 0.0126 38.9739 -0.0130
# 6 0.0090 0.0118 0.0154 -0.3413 -0.0130 20.0409
#
#
#
# Elastic Compliance Matrix: (Units=1/GPa)
#
#
# Indices 1 2 3 4 5 6 
#
# 1 0.015773 -0.000823 -0.008520 0.000007 0.000001 0.000000
# 2 -0.000823 0.031305 -0.003400 0.000012 0.002564 -0.000014
# 3 -0.008520 -0.003400 0.017914 0.000000 0.001205 -0.000007
# 4 0.000007 0.000012 0.000000 0.047212 -0.000013 0.000804
# 5 0.000001 0.002564 0.001205 -0.000013 0.026048 0.000014
# 6 0.000000 -0.000014 -0.000007 0.000804 0.000014 0.049912
#
#
# Mechanical properties :
#
#
# Convention : Reuss Voigt Hill
#
# Bulk Modulus (GPa) = 25.31258 35.45042 30.38150
# Shear Modulus (GPa) = 22.04400 25.29522 23.66961
#
# Velocity S-wave (km/s) = 3.38328 3.62420 3.50581
# Velocity P-wave (km/s) = 5.32973 5.99342 5.67129
#
# Compressibility (1/GPa) = 0.03950605
#
# Stress axis : x y z
#
# Youngs Moduli (GPa) = 63.39830 31.94415 55.82191
#
# Poissons Ratio (x) = 0.02629 0.47560
# Poissons Ratio (y) = 0.05217 0.18981
# Poissons Ratio (z) = 0.54015 0.10862
#
# Static dielectric constant tensor:
#      x y z
#    x 1.688170 0.000000 0.018640 
#    y 0.000000 1.660110 0.000010 
#    z 0.018640 0.000010 1.715520 
# 
# From -- ./inp_files/164208.got.cif
#   From: 2010.05.17/outbox.cif.g08.bks.cpg/sg15_83_cif.got.tgz:164208.got - 2010.06.03 18:47:42.
