data_PCOD9262987
_publ_section_title
;
Structure prediction by ZEFSAII (Michael W. Deem and Ramdas Pophale) SiO2 
 PCOD9262987
Probable space group: C 2/C
;
_chemical_formula_sum "Si O2"
_cell_formula_units_Z 32
_cell_length_a 5.169955
_cell_length_b 25.509411
_cell_length_c 9.322261
_cell_angle_alpha 90.000000
_cell_angle_beta 85.046423
_cell_angle_gamma 90.000000
_cell_volume 1224.851166
_symmetry_space_group_name_H-M "C 2/C"
_symmetry_group_IT_number 15
_symmetry_cell_setting 'monoclinic'
loop_
_space_group_symop_operation_xyz
x,y,z
-x,y,1/2-z
-x,-y,-z
x,-y,1/2+z
1/2+x,1/2+y,z
1/2-x,1/2+y,1/2-z
1/2-x,1/2-y,-z
1/2+x,1/2-y,1/2+z
loop_
_atom_site_type_symbol
_atom_site_label
_atom_site_fract_x
_atom_site_fract_y
_atom_site_fract_z
Si Si1 0.761259 0.504118 0.900491
Si Si2 0.759894 0.233456 0.665121
Si Si3 0.696698 0.890131 0.624587
Si Si4 0.734702 0.382210 0.426154
O O1 0.500000 0.500000 0.000000
O O2 0.765511 0.449564 0.816154
O O3 0.737892 0.562596 0.839526
O O4 0.000000 0.500000 0.000000
O O5 0.500000 0.253941 0.750000
O O6 0.750000 0.250000 0.500000
O O7 0.764696 0.170265 0.664677
O O8 0.000000 0.250613 0.750000
O O9 0.500000 0.863924 0.750000
O O10 0.506677 0.885596 0.497633
O O11 0.986592 0.876996 0.549518
#
# Coordination Sequence:
#
# PCOD9262987 Si02
#       4
#     8   8   8   8
#     4   8  16  31  51  81 127 173 218 268 323 394
#     4  12  28  51  77 107 140 183 238 301 368 432
#     4  10  19  33  58  95 135 177 221 271 335 405
#     4  10  21  39  61  91 129 173 225 280 337 409
#
# _framework density 26.125620000000001
#
# number of rings (size 3 to 8) (size 9 to 14) (size 15 to 20)
#    0.000    2.000    0.000    3.000    0.000    4.000 
#    0.000    7.500    0.000    0.000    0.000    0.000 
#    0.000    0.000    0.000    0.000    0.000    0.000 
#
# Total GULP energy -89291.110186 kJ/mol
# GULP energy per Si atom -5580.694387 kJ/mol
# Density = 2.606616 g / cm^3
# Si number density = 26.125620 Si / 1000 Ang^3
#
#
#
# Elastic Constant Matrix: (Units=GPa)
#
#
# Indices 1 2 3 4 5 6 
#
# 1 245.1905 25.7065 76.3792 0.0000 -12.6106 0.0000
# 2 25.7065 134.7310 13.6322 0.0000 10.4124 0.0000
# 3 76.3792 13.6322 122.8970 0.0000 -24.0347 0.0000
# 4 0.0000 0.0000 0.0000 18.5451 0.0000 -13.2988
# 5 -12.6106 10.4124 -24.0347 0.0000 76.5678 0.0000
# 6 0.0000 0.0000 0.0000 -13.2988 0.0000 46.2182
#
#
#
# Elastic Compliance Matrix: (Units=1/GPa)
#
#
# Indices 1 2 3 4 5 6 
#
# 1 0.005115 -0.000657 -0.003115 0.000000 -0.000046 0.000000
# 2 -0.000657 0.007727 -0.000720 0.000000 -0.001385 0.000000
# 3 -0.003115 -0.000720 0.010730 0.000000 0.002953 0.000000
# 4 0.000000 0.000000 0.000000 0.067942 0.000000 0.019550
# 5 -0.000046 -0.001385 0.002953 0.000000 0.014168 0.000000
# 6 0.000000 0.000000 0.000000 0.019550 0.000000 0.027262
#
#
# Mechanical properties :
#
#
# Convention : Reuss Voigt Hill
#
# Bulk Modulus (GPa) = 68.54443 81.58380 75.06412
# Shear Modulus (GPa) = 34.06183 54.07292 44.06738
#
# Velocity S-wave (km/s) = 3.61469 4.55436 4.11146
# Velocity P-wave (km/s) = 6.61172 7.67799 7.16472
#
# Compressibility (1/GPa) = 0.01458908
#
# Stress axis : x y z
#
# Youngs Moduli (GPa) = 195.48636 129.40899 93.19365
#
# Poissons Ratio (x) = 0.08506 0.29032
# Poissons Ratio (y) = 0.12849 0.06706
# Poissons Ratio (z) = 0.60900 0.09311
#
# Static dielectric constant tensor:
#      x y z
#    x 1.989290 0.000000 -0.001880 
#    y 0.000000 2.124020 0.000000 
#    z -0.001880 0.000000 2.093880 
# 
# From -- ./inp_files/20115.got.cif
#   From: 2010.05.17/outbox.cif.g08.bks.cpg/sg15_11_cif.got.tgz:20115.got - 2010.06.03 18:47:42.
