data_PCOD9262591
_publ_section_title
;
Structure prediction by ZEFSAII (Michael W. Deem and Ramdas Pophale) SiO2 
 PCOD9262591
Probable space group: C 2/C
;
_chemical_formula_sum "Si O2"
_cell_formula_units_Z 56
_cell_length_a 6.376068
_cell_length_b 21.636590
_cell_length_c 22.425809
_cell_angle_alpha 90.000000
_cell_angle_beta 69.400718
_cell_angle_gamma 90.000000
_cell_volume 2895.978892
_symmetry_space_group_name_H-M "C 2/C"
_symmetry_group_IT_number 15
_symmetry_cell_setting 'monoclinic'
loop_
_space_group_symop_operation_xyz
x,y,z
-x,y,1/2-z
-x,-y,-z
x,-y,1/2+z
1/2+x,1/2+y,z
1/2-x,1/2+y,1/2-z
1/2-x,1/2-y,-z
1/2+x,1/2-y,1/2+z
loop_
_atom_site_type_symbol
_atom_site_label
_atom_site_fract_x
_atom_site_fract_y
_atom_site_fract_z
Si Si1 0.685173 0.892049 0.682725
Si Si2 0.113408 0.797939 0.930685
Si Si3 0.235206 0.334141 0.451804
Si Si4 0.622264 0.576681 0.911614
Si Si5 0.898627 0.029955 0.357326
Si Si6 0.524182 0.017531 0.818642
Si Si7 0.773113 0.610461 0.022217
O O1 0.500000 0.874250 0.750000
O O2 0.760420 0.836903 0.632749
O O3 0.908224 0.924690 0.687122
O O4 0.578429 0.949452 0.657258
O O5 0.152670 0.724847 0.922425
O O6 0.858113 0.824007 0.956243
O O7 0.217739 0.814800 0.984457
O O8 0.466909 0.365654 0.408489
O O9 0.027278 0.380787 0.476645
O O10 0.506792 0.518016 0.892953
O O11 0.876020 0.571232 0.862503
O O12 0.639984 0.577386 0.981464
O O13 0.745777 0.072846 0.414912
O O14 0.769410 0.989921 0.321232
O O15 0.500000 0.023588 0.750000
#
# Coordination Sequence:
#
# PCOD9262591 Si02
#       7
#     8   8   8   8   8   8   8
#     4   9  19  34  55  79 107 132 181 230 275 326
#     4   9  19  34  53  79 107 143 183 224 277 324
#     4  10  19  33  54  78 109 147 180 225 272 323
#     4  10  21  33  52  81 111 144 182 223 272 336
#     4  10  20  35  55  81 109 144 174 228 284 327
#     4  10  21  36  55  78 109 145 183 223 275 338
#     4  10  19  33  55  82 110 141 181 227 278 334
#
# _framework density 19.337157999999999
#
# number of rings (size 3 to 8) (size 9 to 14) (size 15 to 20)
#    0.000    2.286    0.000    2.571    0.000    9.714 
#    0.000    0.000    6.286    0.000    0.000    0.000 
#    0.000    0.000    0.000    0.000    0.000    0.000 
#
# Total GULP energy -156004.354190 kJ/mol
# GULP energy per Si atom -5571.584078 kJ/mol
# Density = 1.929315 g / cm^3
# Si number density = 19.337158 Si / 1000 Ang^3
#
#
#
# Elastic Constant Matrix: (Units=GPa)
#
#
# Indices 1 2 3 4 5 6 
#
# 1 77.9492 16.8738 37.7227 0.0000 -2.5629 0.0000
# 2 16.8738 46.5500 39.2021 0.0000 -6.5962 0.0000
# 3 37.7227 39.2021 83.1328 0.0000 -12.5663 0.0000
# 4 0.0000 0.0000 0.0000 21.8222 0.0000 -1.0498
# 5 -2.5629 -6.5962 -12.5663 0.0000 25.5457 0.0000
# 6 0.0000 0.0000 0.0000 -1.0498 0.0000 18.4296
#
#
#
# Elastic Compliance Matrix: (Units=1/GPa)
#
#
# Indices 1 2 3 4 5 6 
#
# 1 0.016559 0.000488 -0.008074 0.000000 -0.002185 0.000000
# 2 0.000488 0.035672 -0.016899 0.000000 0.000947 0.000000
# 3 -0.008074 -0.016899 0.024718 0.000000 0.006985 0.000000
# 4 0.000000 0.000000 0.000000 0.045951 0.000000 0.002618
# 5 -0.002185 0.000947 0.006985 0.000000 0.042607 0.000000
# 6 0.000000 0.000000 0.000000 0.002618 0.000000 0.054410
#
#
# Mechanical properties :
#
#
# Convention : Reuss Voigt Hill
#
# Bulk Modulus (GPa) = 35.74444 43.91436 39.82940
# Shear Modulus (GPa) = 17.97188 20.74839 19.36013
#
# Velocity S-wave (km/s) = 3.05191 3.27919 3.16759
# Velocity P-wave (km/s) = 5.56272 6.09070 5.83268
#
# Compressibility (1/GPa) = 0.02797638
#
# Stress axis : x y z
#
# Youngs Moduli (GPa) = 60.39085 28.03353 40.45700
#
# Poissons Ratio (x) = -0.01367 0.32665
# Poissons Ratio (y) = -0.02945 0.68370
# Poissons Ratio (z) = 0.48759 0.47375
#
# Static dielectric constant tensor:
#      x y z
#    x 1.740900 0.000000 -0.025280 
#    y 0.000000 1.680650 0.000000 
#    z -0.025280 0.000000 1.671380 
# 
# From -- ./inp_files/227855.got.cif
#   From: 2010.05.17/outbox.cif.g08.bks.cpg/sg15_114_cif.got.tgz:227855.got - 2010.06.03 18:47:42.
