data_PCOD9262230
_publ_section_title
;
Structure prediction by ZEFSAII (Michael W. Deem and Ramdas Pophale) SiO2 
 PCOD9262230
Probable space group: C 2/C
;
_chemical_formula_sum "Si O2"
_cell_formula_units_Z 64
_cell_length_a 8.197361
_cell_length_b 12.234629
_cell_length_c 25.201496
_cell_angle_alpha 90.000000
_cell_angle_beta 91.074953
_cell_angle_gamma 90.000000
_cell_volume 2527.055318
_symmetry_space_group_name_H-M "C 2/C"
_symmetry_group_IT_number 15
_symmetry_cell_setting 'monoclinic'
loop_
_space_group_symop_operation_xyz
x,y,z
-x,y,1/2-z
-x,-y,-z
x,-y,1/2+z
1/2+x,1/2+y,z
1/2-x,1/2+y,1/2-z
1/2-x,1/2-y,-z
1/2+x,1/2-y,1/2+z
loop_
_atom_site_type_symbol
_atom_site_label
_atom_site_fract_x
_atom_site_fract_y
_atom_site_fract_z
Si Si1 0.744936 0.791431 0.213039
Si Si2 0.580276 0.996431 0.093040
Si Si3 0.797073 0.790730 0.680342
Si Si4 0.234480 0.880491 0.989209
Si Si5 0.587827 0.484857 0.334987
Si Si6 0.609935 0.452433 0.570948
Si Si7 0.959184 0.410896 0.692737
Si Si8 0.047962 0.269408 0.107510
O O1 0.689281 0.797178 0.273129
O O2 0.882477 0.881270 0.201265
O O3 0.612936 0.802983 0.166222
O O4 0.812573 0.669243 0.205115
O O5 0.751815 0.989890 0.126375
O O6 0.555472 0.874544 0.071006
O O7 0.617381 0.083225 0.048112
O O8 0.449130 0.021390 0.138525
O O9 0.610767 0.830076 0.680003
O O10 0.863248 0.760831 0.622631
O O11 0.903302 0.899342 0.694529
O O12 0.058271 0.914848 0.961140
O O13 0.250000 0.750000 0.000000
O O14 0.223359 0.967268 0.038119
O O15 0.441020 0.485265 0.375336
O O16 0.660209 0.329606 0.588117
O O17 0.000000 0.467337 0.750000
#
# Coordination Sequence:
#
# PCOD9262230 Si02
#       8
#     8   8   8   8   8   8   8   8
#     4  10  19  32  56  83 112 156 193 237 287 339
#     4   9  19  35  57  84 114 147 190 233 292 350
#     4   9  18  34  53  78 115 156 198 228 277 351
#     4  10  21  39  65  86 108 157 199 235 300 372
#     4   8  17  34  54  75 113 158 188 224 293 357
#     4   9  20  40  59  84 116 152 193 244 301 358
#     4   9  19  35  54  83 117 152 194 235 272 337
#     4  10  20  37  56  83 119 153 182 242 300 344
#
# _framework density 25.325918999999999
#
# number of rings (size 3 to 8) (size 9 to 14) (size 15 to 20)
#    0.000    2.750    0.000    1.125    1.750    4.500 
#    2.250    9.375    0.000    0.000    0.000    0.000 
#    0.000    0.000    0.000    0.000    0.000    0.000 
#
# Total GULP energy -178563.290626 kJ/mol
# GULP energy per Si atom -5580.102832 kJ/mol
# Density = 2.526828 g / cm^3
# Si number density = 25.325919 Si / 1000 Ang^3
#
#
#
# Elastic Constant Matrix: (Units=GPa)
#
#
# Indices 1 2 3 4 5 6 
#
# 1 56.8115 9.5137 18.4549 0.0000 -8.0467 0.0000
# 2 9.5137 168.8048 80.9266 0.0000 -30.0759 0.0000
# 3 18.4549 80.9266 130.1320 0.0000 -26.6557 0.0000
# 4 0.0000 0.0000 0.0000 42.1750 0.0000 -2.6909
# 5 -8.0467 -30.0759 -26.6557 0.0000 38.4268 0.0000
# 6 0.0000 0.0000 0.0000 -2.6909 0.0000 22.3070
#
#
#
# Elastic Compliance Matrix: (Units=1/GPa)
#
#
# Indices 1 2 3 4 5 6 
#
# 1 0.018685 0.000614 -0.002485 0.000000 0.002669 0.000000
# 2 0.000614 0.008874 -0.004845 0.000000 0.003713 0.000000
# 3 -0.002485 -0.004845 0.011850 0.000000 0.003908 0.000000
# 4 0.000000 0.000000 0.000000 0.023895 0.000000 0.002882
# 5 0.002669 0.003713 0.003908 0.000000 0.032199 0.000000
# 6 0.000000 0.000000 0.000000 0.002882 0.000000 0.045177
#
#
# Mechanical properties :
#
#
# Convention : Reuss Voigt Hill
#
# Bulk Modulus (GPa) = 38.49574 63.72654 51.11114
# Shear Modulus (GPa) = 30.71828 37.03863 33.87846
#
# Velocity S-wave (km/s) = 3.48648 3.82839 3.66142
# Velocity P-wave (km/s) = 5.60718 6.69024 6.17251
#
# Compressibility (1/GPa) = 0.02597690
#
# Stress axis : x y z
#
# Youngs Moduli (GPa) = 53.52025 112.69385 84.38635
#
# Poissons Ratio (x) = -0.06916 0.20967
# Poissons Ratio (y) = -0.03285 0.40884
# Poissons Ratio (z) = 0.13298 0.54598
#
# Static dielectric constant tensor:
#      x y z
#    x 2.127630 0.000000 0.099100 
#    y 0.000000 2.080830 0.000000 
#    z 0.099100 0.000000 2.057400 
# 
# From -- ./inp_files/268847.got.cif
#   From: 2010.05.17/outbox.cif.g08.bks.cpg/sg15_135_cif.got.tgz:268847.got - 2010.06.03 18:47:42.
