data_PCOD9262284
_publ_section_title
;
Structure prediction by ZEFSAII (Michael W. Deem and Ramdas Pophale) SiO2 
 PCOD9262284
Probable space group: C 2/C
;
_chemical_formula_sum "Si O2"
_cell_formula_units_Z 48
_cell_length_a 22.284428
_cell_length_b 17.460544
_cell_length_c 5.522330
_cell_angle_alpha 90.000000
_cell_angle_beta 65.003068
_cell_angle_gamma 90.000000
_cell_volume 1947.458320
_symmetry_space_group_name_H-M "C 2/C"
_symmetry_group_IT_number 15
_symmetry_cell_setting 'monoclinic'
loop_
_space_group_symop_operation_xyz
x,y,z
-x,y,1/2-z
-x,-y,-z
x,-y,1/2+z
1/2+x,1/2+y,z
1/2-x,1/2+y,1/2-z
1/2-x,1/2-y,-z
1/2+x,1/2-y,1/2+z
loop_
_atom_site_type_symbol
_atom_site_label
_atom_site_fract_x
_atom_site_fract_y
_atom_site_fract_z
Si Si1 0.603285 0.781001 0.542847
Si Si2 0.511482 0.689906 0.977261
Si Si3 0.237204 0.911943 0.223943
Si Si4 0.200259 0.158598 0.287284
Si Si5 0.882494 0.461395 0.959012
Si Si6 0.895209 0.019703 0.041547
O O1 0.545173 0.755302 0.456968
O O2 0.671687 0.743998 0.341756
O O3 0.602767 0.870950 0.576049
O O4 0.580790 0.733974 0.823006
O O5 0.500000 0.651626 0.250000
O O6 0.500000 0.643190 0.750000
O O7 0.235792 0.865339 0.478610
O O8 0.302245 0.964115 0.104115
O O9 0.171071 0.964169 0.338607
O O10 0.236404 0.862278 0.977436
O O11 0.134795 0.104592 0.400736
O O12 0.906240 0.497819 0.172184
O O13 0.929007 0.999388 0.233340
#
# Coordination Sequence:
#
# PCOD9262284 Si02
#       6
#     8   8   8   8   8   8
#     4   9  24  38  63  89 110 145 205 240 296 342
#     4   8  20  40  62  79 118 141 178 256 310 350
#     4  10  20  34  52  82 121 161 184 220 276 334
#     4  10  19  32  58  83 115 148 194 233 268 336
#     4  12  25  39  59  80 122 164 193 233 288 344
#     4   8  14  27  44  69 106 143 180 205 256 316
#
# _framework density 24.647513
#
# number of rings (size 3 to 8) (size 9 to 14) (size 15 to 20)
#    1.000    1.333    0.000    4.000    4.667    1.333 
#    0.000    3.333    0.000    0.000    0.000   42.000 
#    0.000    0.000    0.000    0.000    0.000    0.000 
#
# Total GULP energy -134063.373067 kJ/mol
# GULP energy per Si atom -5585.973878 kJ/mol
# Density = 2.459141 g / cm^3
# Si number density = 24.647513 Si / 1000 Ang^3
#
#
#
# Elastic Constant Matrix: (Units=GPa)
#
#
# Indices 1 2 3 4 5 6 
#
# 1 36.1284 19.6020 38.8787 0.0000 10.1556 0.0000
# 2 19.6020 119.9679 55.6348 0.0000 19.1983 0.0000
# 3 38.8787 55.6348 189.4148 0.0000 55.1161 0.0000
# 4 0.0000 0.0000 0.0000 68.7234 0.0000 -126.4868
# 5 10.1556 19.1983 55.1161 0.0000 36.8207 0.0000
# 6 0.0000 0.0000 0.0000 -126.4868 0.0000 319.8262
#
#
#
# Elastic Compliance Matrix: (Units=1/GPa)
#
#
# Indices 1 2 3 4 5 6 
#
# 1 0.036486 -0.002952 -0.007337 0.000000 0.002459 0.000000
# 2 -0.002952 0.009930 -0.001844 0.000000 -0.001602 0.000000
# 3 -0.007337 -0.001844 0.011442 0.000000 -0.014142 0.000000
# 4 0.000000 0.000000 0.000000 0.053477 0.000000 0.021149
# 5 0.002459 -0.001602 -0.014142 0.000000 0.048485 0.000000
# 6 0.000000 0.000000 0.000000 0.021149 0.000000 0.011491
#
#
# Mechanical properties :
#
#
# Convention : Reuss Voigt Hill
#
# Bulk Modulus (GPa) = 29.77118 63.74911 46.76015
# Shear Modulus (GPa) = 24.18082 100.50044 62.34063
#
# Velocity S-wave (km/s) = 3.13559 6.39246 5.03466
# Velocity P-wave (km/s) = 5.02138 8.96690 7.26703
#
# Compressibility (1/GPa) = 0.03358953
#
# Stress axis : x y z
#
# Youngs Moduli (GPa) = 27.40812 100.70826 87.39469
#
# Poissons Ratio (x) = 0.29733 0.64124
# Poissons Ratio (y) = 0.08092 0.16118
# Poissons Ratio (z) = 0.20110 0.18573
#
# Static dielectric constant tensor:
#      x y z
#    x 2.007440 0.000000 -0.003620 
#    y 0.000000 1.922030 0.000000 
#    z -0.003620 0.000000 2.023660 
# 
# From -- ./inp_files/18178.got.cif
#   From: 2010.05.17/outbox.cif.g08.bks.cpg/sg15_10_cif.got.tgz:18178.got - 2010.06.03 18:47:42.
