data_PCOD9262293
_publ_section_title
;
Structure prediction by ZEFSAII (Michael W. Deem and Ramdas Pophale) SiO2 
 PCOD9262293
Probable space group: C 2/C
;
_chemical_formula_sum "Si O2"
_cell_formula_units_Z 64
_cell_length_a 26.424314
_cell_length_b 8.061361
_cell_length_c 20.055620
_cell_angle_alpha 90.000000
_cell_angle_beta 125.291239
_cell_angle_gamma 90.000000
_cell_volume 3487.053225
_symmetry_space_group_name_H-M "C 2/C"
_symmetry_group_IT_number 15
_symmetry_cell_setting 'monoclinic'
loop_
_space_group_symop_operation_xyz
x,y,z
-x,y,1/2-z
-x,-y,-z
x,-y,1/2+z
1/2+x,1/2+y,z
1/2-x,1/2+y,1/2-z
1/2-x,1/2-y,-z
1/2+x,1/2-y,1/2+z
loop_
_atom_site_type_symbol
_atom_site_label
_atom_site_fract_x
_atom_site_fract_y
_atom_site_fract_z
Si Si1 0.849562 0.024261 0.018748
Si Si2 0.183835 0.772600 0.744761
Si Si3 0.072307 0.397354 0.229955
Si Si4 0.928853 0.331887 0.114171
Si Si5 0.772628 0.999471 0.830841
Si Si6 0.211773 0.992418 0.886480
Si Si7 0.659408 0.864725 0.974214
Si Si8 0.339465 0.818709 0.681151
O O1 0.905594 0.154715 0.069082
O O2 0.807988 0.052653 0.053544
O O3 0.862147 0.824154 0.026343
O O4 0.811467 0.062943 0.923224
O O5 0.118255 0.695925 0.714769
O O6 0.234415 0.637160 0.761794
O O7 0.182843 0.905281 0.685837
O O8 0.211268 0.843463 0.834833
O O9 0.080997 0.332838 0.312753
O O10 0.097676 0.586553 0.251518
O O11 0.001070 0.370468 0.158073
O O12 0.889219 0.485614 0.054408
O O13 0.717110 0.887566 0.818626
O O14 0.160830 0.121136 0.818923
O O15 0.277498 0.086397 0.940206
O O16 0.674342 0.862343 0.906570
#
# Coordination Sequence:
#
# PCOD9262293 Si02
#       8
#     8   8   8   8   8   8   8   8
#     4  11  20  35  59  87 115 151 193 245 289 345
#     4  11  23  35  57  84 117 153 188 240 295 354
#     4   9  20  38  54  80 121 155 194 240 274 348
#     4  10  20  37  57  85 116 159 199 234 287 335
#     4  11  21  35  54  85 116 150 185 238 302 344
#     4  11  18  34  58  90 115 141 192 245 303 346
#     4  10  19  32  58  88 119 142 187 248 295 341
#     4   9  17  33  55  82 114 144 181 236 296 340
#
# _framework density 18.353605000000002
#
# number of rings (size 3 to 8) (size 9 to 14) (size 15 to 20)
#    0.000    1.750    3.750    2.250    0.000    1.000 
#    2.250    1.875    0.000    0.750    0.000    0.000 
#    0.000    0.000    0.000    0.000    0.000    0.000 
#
# Total GULP energy -178403.507988 kJ/mol
# GULP energy per Si atom -5575.109625 kJ/mol
# Density = 1.831183 g / cm^3
# Si number density = 18.353605 Si / 1000 Ang^3
#
#
#
# Elastic Constant Matrix: (Units=GPa)
#
#
# Indices 1 2 3 4 5 6 
#
# 1 70.4732 37.0483 36.3110 0.0000 18.0296 0.0000
# 2 37.0483 61.0347 30.1992 0.0000 20.8517 0.0000
# 3 36.3110 30.1992 60.6252 0.0000 15.0675 0.0000
# 4 0.0000 0.0000 0.0000 27.2651 0.0000 -0.6134
# 5 18.0296 20.8517 15.0675 0.0000 23.5046 0.0000
# 6 0.0000 0.0000 0.0000 -0.6134 0.0000 16.3991
#
#
#
# Elastic Compliance Matrix: (Units=1/GPa)
#
#
# Indices 1 2 3 4 5 6 
#
# 1 0.024915 -0.008678 -0.009235 0.000000 -0.005493 0.000000
# 2 -0.008678 0.030066 -0.005715 0.000000 -0.016352 0.000000
# 3 -0.009235 -0.005715 0.025994 0.000000 -0.004509 0.000000
# 4 0.000000 0.000000 0.000000 0.036708 0.000000 0.001373
# 5 -0.005493 -0.016352 -0.004509 0.000000 0.064156 0.000000
# 6 0.000000 0.000000 0.000000 0.001373 0.000000 0.061030
#
#
# Mechanical properties :
#
#
# Convention : Reuss Voigt Hill
#
# Bulk Modulus (GPa) = 29.65658 44.36112 37.00885
# Shear Modulus (GPa) = 16.59123 19.33874 17.96499
#
# Velocity S-wave (km/s) = 3.00988 3.24956 3.13201
# Velocity P-wave (km/s) = 5.31721 6.18888 5.76953
#
# Compressibility (1/GPa) = 0.03371933
#
# Stress axis : x y z
#
# Youngs Moduli (GPa) = 40.13584 33.26028 38.47113
#
# Poissons Ratio (x) = 0.28862 0.35528
# Poissons Ratio (y) = 0.34829 0.21987
# Poissons Ratio (z) = 0.37065 0.19009
#
# Static dielectric constant tensor:
#      x y z
#    x 1.607830 0.000000 -0.012140 
#    y 0.000000 1.694600 0.000000 
#    z -0.012140 0.000000 1.613630 
# 
# From -- ./inp_files/257018.got.cif
#   From: 2010.05.17/outbox.cif.g08.bks.cpg/sg15_129_cif.got.tgz:257018.got - 2010.06.03 18:47:42.
