data_PCOD9262536
_publ_section_title
;
Structure prediction by ZEFSAII (Michael W. Deem and Ramdas Pophale) SiO2 
 PCOD9262536
Probable space group: C 2/C
;
_chemical_formula_sum "Si O2"
_cell_formula_units_Z 56
_cell_length_a 12.653516
_cell_length_b 17.560095
_cell_length_c 18.071534
_cell_angle_alpha 90.000000
_cell_angle_beta 49.779090
_cell_angle_gamma 90.000000
_cell_volume 3066.030752
_symmetry_space_group_name_H-M "C 2/C"
_symmetry_group_IT_number 15
_symmetry_cell_setting 'monoclinic'
loop_
_space_group_symop_operation_xyz
x,y,z
-x,y,1/2-z
-x,-y,-z
x,-y,1/2+z
1/2+x,1/2+y,z
1/2-x,1/2+y,1/2-z
1/2-x,1/2-y,-z
1/2+x,1/2-y,1/2+z
loop_
_atom_site_type_symbol
_atom_site_label
_atom_site_fract_x
_atom_site_fract_y
_atom_site_fract_z
Si Si1 0.736270 0.248038 0.121308
Si Si2 0.301880 0.965588 0.539504
Si Si3 0.874855 0.888994 0.755339
Si Si4 0.043261 0.011429 0.065833
Si Si5 0.631946 0.784545 0.823468
Si Si6 0.945244 0.621801 0.515910
Si Si7 0.931951 0.162302 0.928277
O O1 0.645867 0.218626 0.229406
O O2 0.639365 0.290889 0.106000
O O3 0.846890 0.313432 0.094474
O O4 0.826438 0.180883 0.042989
O O5 0.213005 0.945862 0.652959
O O6 0.434942 0.909816 0.483988
O O7 0.197755 0.958347 0.517074
O O8 0.358613 0.050569 0.524901
O O9 0.778603 0.817761 0.781331
O O10 0.000000 0.863201 0.750000
O O11 0.936033 0.933947 0.657312
O O12 0.046767 0.925818 0.097066
O O13 0.000000 0.000000 0.000000
O O14 0.519560 0.840464 0.911078
O O15 0.579654 0.702525 0.874890
#
# Coordination Sequence:
#
# PCOD9262536 Si02
#       7
#     8   8   8   8   8   8   8
#     4  10  19  33  53  80 113 140 181 230 285 337
#     4   9  18  35  58  78 110 145 193 228 277 340
#     4   9  20  36  56  78 106 157 196 230 280 339
#     4  11  21  35  56  83 117 148 190 239 282 332
#     4  10  20  34  53  82 109 142 187 230 281 335
#     4   9  18  34  56  81 108 145 184 230 277 338
#     4  10  21  33  51  81 114 147 178 227 289 342
#
# _framework density 18.264655999999999
#
# number of rings (size 3 to 8) (size 9 to 14) (size 15 to 20)
#    0.000    2.286    1.429    1.286    2.000    1.143 
#    2.571    1.429    0.000    6.857    0.000    0.000 
#    0.000    0.000    0.000    0.000    0.000    0.000 
#
# Total GULP energy -155994.762314 kJ/mol
# GULP energy per Si atom -5571.241511 kJ/mol
# Density = 1.822308 g / cm^3
# Si number density = 18.264656 Si / 1000 Ang^3
#
#
#
# Elastic Constant Matrix: (Units=GPa)
#
#
# Indices 1 2 3 4 5 6 
#
# 1 106.2108 26.4523 35.5369 0.0000 -7.4658 0.0000
# 2 26.4523 53.4381 8.2366 0.0000 -14.1433 0.0000
# 3 35.5369 8.2366 54.8838 0.0000 -1.5821 0.0000
# 4 0.0000 0.0000 0.0000 13.8121 0.0000 -2.5778
# 5 -7.4658 -14.1433 -1.5821 0.0000 28.9049 0.0000
# 6 0.0000 0.0000 0.0000 -2.5778 0.0000 24.7070
#
#
#
# Elastic Compliance Matrix: (Units=1/GPa)
#
#
# Indices 1 2 3 4 5 6 
#
# 1 0.013399 -0.005305 -0.007867 0.000000 0.000434 0.000000
# 2 -0.005305 0.024078 0.000122 0.000000 0.010418 0.000000
# 3 -0.007867 0.000122 0.023276 0.000000 -0.000698 0.000000
# 4 0.000000 0.000000 0.000000 0.073838 0.000000 0.007704
# 5 0.000434 0.010418 -0.000698 0.000000 0.039768 0.000000
# 6 0.000000 0.000000 0.000000 0.007704 0.000000 0.041278
#
#
# Mechanical properties :
#
#
# Convention : Reuss Voigt Hill
#
# Bulk Modulus (GPa) = 28.85843 39.44271 34.15057
# Shear Modulus (GPa) = 19.74031 23.10525 21.42278
#
# Velocity S-wave (km/s) = 3.29111 3.56058 3.42849
# Velocity P-wave (km/s) = 5.50239 6.20851 5.86608
#
# Compressibility (1/GPa) = 0.03465192
#
# Stress axis : x y z
#
# Youngs Moduli (GPa) = 74.63032 41.53203 42.96285
#
# Poissons Ratio (x) = 0.22034 0.33800
# Poissons Ratio (y) = 0.39593 -0.00524
# Poissons Ratio (z) = 0.58714 -0.00506
#
# Static dielectric constant tensor:
#      x y z
#    x 1.678550 0.000000 -0.015860 
#    y 0.000000 1.623920 0.000000 
#    z -0.015860 0.000000 1.634640 
# 
# From -- ./inp_files/199437.got.cif
#   From: 2010.05.17/outbox.cif.g08.bks.cpg/sg15_100_cif.got.tgz:199437.got - 2010.06.03 18:47:42.
