data_PCOD9262049
_publ_section_title
;
Structure prediction by ZEFSAII (Michael W. Deem and Ramdas Pophale) SiO2 
 PCOD9262049
Probable space group: C 2/C
;
_chemical_formula_sum "Si O2"
_cell_formula_units_Z 56
_cell_length_a 24.027524
_cell_length_b 18.840983
_cell_length_c 21.499284
_cell_angle_alpha 90.000000
_cell_angle_beta 161.119122
_cell_angle_gamma 90.000000
_cell_volume 3149.541273
_symmetry_space_group_name_H-M "C 2/C"
_symmetry_group_IT_number 15
_symmetry_cell_setting 'monoclinic'
loop_
_space_group_symop_operation_xyz
x,y,z
-x,y,1/2-z
-x,-y,-z
x,-y,1/2+z
1/2+x,1/2+y,z
1/2-x,1/2+y,1/2-z
1/2-x,1/2-y,-z
1/2+x,1/2-y,1/2+z
loop_
_atom_site_type_symbol
_atom_site_label
_atom_site_fract_x
_atom_site_fract_y
_atom_site_fract_z
Si Si1 0.466375 0.687393 0.288100
Si Si2 0.024532 0.953218 0.905838
Si Si3 0.500000 0.528141 0.750000
Si Si4 0.429325 0.845992 0.107999
Si Si5 0.000000 0.737815 0.250000
Si Si6 0.843755 0.542935 0.417156
Si Si7 0.842889 0.443306 0.774105
Si Si8 0.232024 0.149063 0.045177
O O1 0.500000 0.678094 0.250000
O O2 0.564618 0.629997 0.434922
O O3 0.492068 0.770440 0.328371
O O4 0.269947 0.669500 0.092315
O O5 0.854258 0.965259 0.768478
O O6 0.973444 0.982400 0.783454
O O7 0.192000 0.997024 0.104989
O O8 0.341092 0.579943 0.567339
O O9 0.500000 0.868419 0.250000
O O10 0.439579 0.905704 0.067014
O O11 0.083064 0.791485 0.388274
O O12 0.128696 0.687248 0.349971
O O13 0.840440 0.574741 0.344299
O O14 0.968499 0.474410 0.543635
O O15 0.796607 0.378747 0.679526
#
# Coordination Sequence:
#
# PCOD9262049 Si02
#       8
#     8   8   4   8   4   8   8   8
#     4  10  19  32  52  81 112 143 178 221 283 327
#     4  10  20  35  58  82 117 144 184 232 279 324
#     4   9  18  32  54  90 109 140 184 230 279 338
#     4  10  21  33  54  79 111 145 185 230 274 329
#     4   9  18  36  58  84 115 138 182 230 287 334
#     4  10  23  38  55  83 109 151 194 226 278 335
#     4  10  22  39  59  79 115 149 188 233 275 334
#     4   9  19  34  57  84 111 144 179 230 283 333
#
# _framework density 17.780366999999998
#
# number of rings (size 3 to 8) (size 9 to 14) (size 15 to 20)
#    0.000    2.286    0.714    2.143    6.000    1.143 
#    0.000    2.857    0.000    0.000    0.000    0.000 
#    0.000    0.000    0.000    0.000    0.000    0.000 
#
# Total GULP energy -156012.782782 kJ/mol
# GULP energy per Si atom -5571.885099 kJ/mol
# Density = 1.773990 g / cm^3
# Si number density = 17.780367 Si / 1000 Ang^3
#
#
#
# Elastic Constant Matrix: (Units=GPa)
#
#
# Indices 1 2 3 4 5 6 
#
# 1 81.1609 27.5190 13.4579 0.0143 -13.4923 0.0014
# 2 27.5190 41.4635 6.7676 0.0227 -15.1774 0.0022
# 3 13.4579 6.7676 35.3012 0.0078 -12.6443 0.0100
# 4 0.0143 0.0227 0.0078 -8.5246 0.0146 3.8661
# 5 -13.4923 -15.1774 -12.6443 0.0146 33.2227 -0.0022
# 6 0.0014 0.0022 0.0100 3.8661 -0.0022 22.1311
#
#
#
# Elastic Compliance Matrix: (Units=1/GPa)
#
#
# Indices 1 2 3 4 5 6 
#
# 1 0.016523 -0.010098 -0.004182 -0.000001 0.000505 0.000002
# 2 -0.010098 0.035159 0.001614 0.000091 0.012575 -0.000018
# 3 -0.004182 0.001614 0.033888 0.000039 0.011936 -0.000021
# 4 -0.000001 0.000091 0.000039 -0.108695 0.000105 0.018988
# 5 0.000505 0.012575 0.011936 0.000105 0.040593 -0.000021
# 6 0.000002 -0.000018 -0.000021 0.018988 -0.000021 0.041868
#
#
# Mechanical properties :
#
#
# Convention : Reuss Voigt Hill
#
# Bulk Modulus (GPa) = 16.60128 28.15717 22.37922
# Shear Modulus (GPa) = 47.73352 16.71125 32.22238
#
# Velocity S-wave (km/s) = 5.18695 3.06906 4.26167
# Velocity P-wave (km/s) = 6.72531 5.33191 6.06873
#
# Compressibility (1/GPa) = 0.06023633
#
# Stress axis : x y z
#
# Youngs Moduli (GPa) = 60.52283 28.44184 29.50896
#
# Poissons Ratio (x) = 0.28722 0.12341
# Poissons Ratio (y) = 0.61119 -0.04762
# Poissons Ratio (z) = 0.25311 -0.04589
#
# Static dielectric constant tensor:
#      x y z
#    x 1.590640 0.000000 0.008350 
#    y 0.000000 1.646960 -0.000010 
#    z 0.008350 -0.000010 1.652720 
# 
# From -- ./inp_files/57598.got.cif
#   From: 2010.05.17/outbox.cif.g08.bks.cpg/sg15_29_cif.got.tgz:57598.got - 2010.06.03 18:47:42.
