data_PCOD9262605
_publ_section_title
;
Structure prediction by ZEFSAII (Michael W. Deem and Ramdas Pophale) SiO2 
 PCOD9262605
Probable space group: C 2/C
;
_chemical_formula_sum "Si O2"
_cell_formula_units_Z 36
_cell_length_a 7.725028
_cell_length_b 20.688997
_cell_length_c 15.263761
_cell_angle_alpha 90.000000
_cell_angle_beta 143.951096
_cell_angle_gamma 90.000000
_cell_volume 1435.586908
_symmetry_space_group_name_H-M "C 2/C"
_symmetry_group_IT_number 15
_symmetry_cell_setting 'monoclinic'
loop_
_space_group_symop_operation_xyz
x,y,z
-x,y,1/2-z
-x,-y,-z
x,-y,1/2+z
1/2+x,1/2+y,z
1/2-x,1/2+y,1/2-z
1/2-x,1/2-y,-z
1/2+x,1/2-y,1/2+z
loop_
_atom_site_type_symbol
_atom_site_label
_atom_site_fract_x
_atom_site_fract_y
_atom_site_fract_z
Si Si1 0.500000 0.990844 0.750000
Si Si2 0.159458 0.647402 0.642597
Si Si3 0.622388 0.607268 0.585358
Si Si4 0.672885 0.703111 0.159746
Si Si5 0.045900 0.603853 0.115245
O O1 0.248570 0.038134 0.610205
O O2 0.358122 0.949893 0.773011
O O3 0.500000 0.644870 0.750000
O O4 0.177222 0.627230 0.750325
O O5 0.080009 0.723143 0.610563
O O6 0.979091 0.602489 0.500501
O O7 0.565195 0.658651 0.485839
O O8 0.293621 0.606552 0.492250
O O9 0.000000 0.699775 0.250000
O O10 0.760959 0.667970 0.286095
#
# Coordination Sequence:
#
# PCOD9262605 Si02
#       5
#     4   8   8   8   8
#     4  12  22  34  50  70 110 144 172 182 246 316
#     4   9  18  32  55  82 100 118 168 222 260 279
#     4  10  20  34  52  76 102 137 164 205 248 303
#     4   9  16  32  57  80  98 123 165 216 261 288
#     4  10  19  33  54  79  99 130 166 216 250 288
#
# _framework density 25.076854000000001
#
# number of rings (size 3 to 8) (size 9 to 14) (size 15 to 20)
#    0.000    2.222    3.333    2.000    0.000    6.222 
#    0.000    1.111    0.000    0.000    0.000    0.000 
#    0.000    0.000    0.000    0.000    0.000    0.000 
#
# Total GULP energy -100328.952035 kJ/mol
# GULP energy per Si atom -5573.830669 kJ/mol
# Density = 2.501978 g / cm^3
# Si number density = 25.076854 Si / 1000 Ang^3
#
#
#
# Elastic Constant Matrix: (Units=GPa)
#
#
# Indices 1 2 3 4 5 6 
#
# 1 86.2026 27.9842 34.2192 0.0003 -11.9283 0.0002
# 2 27.9842 106.0456 56.1329 0.0001 -8.7465 0.0000
# 3 34.2192 56.1329 126.8599 0.0003 -14.8375 0.0000
# 4 0.0003 0.0001 0.0003 56.6942 0.0006 4.7481
# 5 -11.9283 -8.7465 -14.8375 0.0006 37.8964 0.0002
# 6 0.0002 0.0000 0.0000 4.7481 0.0002 -6.2923
#
#
#
# Elastic Compliance Matrix: (Units=1/GPa)
#
#
# Indices 1 2 3 4 5 6 
#
# 1 0.013633 -0.002079 -0.002423 0.000000 0.002863 0.000000
# 2 -0.002079 0.012651 -0.005001 0.000000 0.000307 0.000000
# 3 -0.002423 -0.005001 0.011030 0.000000 0.002402 0.000000
# 4 0.000000 0.000000 0.000000 0.016590 0.000000 0.012519
# 5 0.002863 0.000307 0.002402 0.000000 0.028300 0.000001
# 6 0.000000 0.000000 0.000000 0.012519 0.000001 -0.149478
#
#
# Mechanical properties :
#
#
# Convention : Reuss Voigt Hill
#
# Bulk Modulus (GPa) = 54.61888 61.75343 58.18615
# Shear Modulus (GPa) = -118.58356 31.04444 -43.76956
#
# Velocity S-wave (km/s) = -6.88409 3.52230 -4.18235
# Velocity P-wave (km/s) = 6.43115 6.42038 0.26314
#
# Compressibility (1/GPa) = 0.01830869
#
# Stress axis : x y z
#
# Youngs Moduli (GPa) = 73.34932 79.04420 90.66202
#
# Poissons Ratio (x) = 0.16435 0.21964
# Poissons Ratio (y) = 0.15251 0.45341
# Poissons Ratio (z) = 0.17770 0.39531
#
# Static dielectric constant tensor:
#      x y z
#    x 2.076780 0.000000 0.042350 
#    y 0.000000 1.994560 0.000000 
#    z 0.042350 0.000000 2.016230 
# 
# From -- ./inp_files/50760.got.cif
#   From: 2010.05.17/outbox.cif.g08.bks.cpg/sg15_26_cif.got.tgz:50760.got - 2010.06.03 18:47:42.
