data_PCOD9262768
_publ_section_title
;
Structure prediction by ZEFSAII (Michael W. Deem and Ramdas Pophale) SiO2 
 PCOD9262768
Probable space group: C 2/C
;
_chemical_formula_sum "Si O2"
_cell_formula_units_Z 60
_cell_length_a 5.787309
_cell_length_b 29.172597
_cell_length_c 16.475887
_cell_angle_alpha 90.000000
_cell_angle_beta 101.911130
_cell_angle_gamma 90.000000
_cell_volume 2721.746038
_symmetry_space_group_name_H-M "C 2/C"
_symmetry_group_IT_number 15
_symmetry_cell_setting 'monoclinic'
loop_
_space_group_symop_operation_xyz
x,y,z
-x,y,1/2-z
-x,-y,-z
x,-y,1/2+z
1/2+x,1/2+y,z
1/2-x,1/2+y,1/2-z
1/2-x,1/2-y,-z
1/2+x,1/2-y,1/2+z
loop_
_atom_site_type_symbol
_atom_site_label
_atom_site_fract_x
_atom_site_fract_y
_atom_site_fract_z
Si Si1 0.466127 0.969897 0.413849
Si Si2 0.500000 0.847054 0.750000
Si Si3 0.836940 0.103177 0.389110
Si Si4 0.543647 0.501993 0.100978
Si Si5 0.237594 0.762964 0.807269
Si Si6 0.322900 0.319387 0.552385
Si Si7 0.117010 0.628214 0.535901
Si Si8 0.616554 0.714201 0.927057
O O1 0.685313 0.984043 0.371872
O O2 0.494870 0.915232 0.428294
O O3 0.187736 0.979232 0.374160
O O4 0.500000 0.000000 0.500000
O O5 0.392319 0.880638 0.675274
O O6 0.305830 0.811467 0.770961
O O7 0.784626 0.103899 0.481650
O O8 0.018299 0.143885 0.390913
O O9 0.942841 0.054929 0.372443
O O10 0.500000 0.500000 0.000000
O O11 0.167516 0.773829 0.895012
O O12 0.487025 0.737693 0.841885
O O13 0.000000 0.743132 0.750000
O O14 0.423790 0.309312 0.471558
O O15 0.069898 0.342036 0.528064
O O16 0.237637 0.669858 0.592684
O O17 0.750000 0.750000 0.000000
#
# Coordination Sequence:
#
# PCOD9262768 Si02
#       8
#     8   4   8   8   8   8   8   8
#     4  10  19  33  55  91 123 154 193 255 319 370
#     4  12  24  38  56  88 126 162 202 252 330 404
#     4  11  21  34  55  90 124 157 205 251 318 394
#     4  10  19  33  56  85 125 158 193 249 310 374
#     4  12  24  39  58  84 123 170 204 263 327 393
#     4  11  21  37  61  85 120 165 210 260 318 382
#     4  11  21  34  61  87 123 155 207 264 316 373
#     4  11  24  39  58  89 122 162 216 268 318 380
#
# _framework density 22.044674000000001
#
# number of rings (size 3 to 8) (size 9 to 14) (size 15 to 20)
#    0.000    1.067    6.667    2.800    1.867    0.000 
#    0.000    0.000    0.000    0.000    1.733    1.867 
#    0.000    0.000    0.000    0.000    0.000    0.000 
#
# Total GULP energy -167178.606245 kJ/mol
# GULP energy per Si atom -5572.620208 kJ/mol
# Density = 2.199450 g / cm^3
# Si number density = 22.044674 Si / 1000 Ang^3
#
#
#
# Elastic Constant Matrix: (Units=GPa)
#
#
# Indices 1 2 3 4 5 6 
#
# 1 82.3716 7.2685 12.8996 0.0000 18.8080 0.0000
# 2 7.2685 118.0832 33.4886 0.0000 24.8616 0.0000
# 3 12.8996 33.4886 45.6323 0.0000 22.1666 0.0000
# 4 0.0000 0.0000 0.0000 12.1299 0.0000 27.0202
# 5 18.8080 24.8616 22.1666 0.0000 29.7933 0.0000
# 6 0.0000 0.0000 0.0000 27.0202 0.0000 -56.3574
#
#
#
# Elastic Compliance Matrix: (Units=1/GPa)
#
#
# Indices 1 2 3 4 5 6 
#
# 1 0.014333 0.001258 -0.000109 0.000000 -0.010017 0.000000
# 2 0.001258 0.011268 -0.005750 0.000000 -0.005919 0.000000
# 3 -0.000109 -0.005750 0.037271 0.000000 -0.022863 0.000000
# 4 0.000000 0.000000 0.000000 0.039865 0.000000 0.019113
# 5 -0.010017 -0.005919 -0.022863 0.000000 0.061838 0.000000
# 6 0.000000 0.000000 0.000000 0.019113 0.000000 -0.008580
#
#
# Mechanical properties :
#
#
# Convention : Reuss Voigt Hill
#
# Bulk Modulus (GPa) = 18.63234 39.26672 28.94953
# Shear Modulus (GPa) = 27.30944 9.94186 18.62565
#
# Velocity S-wave (km/s) = 3.52351 2.12595 2.90988
# Velocity P-wave (km/s) = 5.00239 4.88643 4.94475
#
# Compressibility (1/GPa) = 0.05367013
#
# Stress axis : x y z
#
# Youngs Moduli (GPa) = 69.76751 88.74703 26.83057
#
# Poissons Ratio (x) = -0.11161 0.00292
# Poissons Ratio (y) = -0.08774 0.15427
# Poissons Ratio (z) = 0.00760 0.51027
#
# Static dielectric constant tensor:
#      x y z
#    x 1.942460 0.000000 0.011700 
#    y 0.000000 1.800280 0.000000 
#    z 0.011700 0.000000 1.853430 
# 
# From -- ./inp_files/186751.got.cif
#   From: 2010.05.17/outbox.cif.g08.bks.cpg/sg15_94_cif.got.tgz:186751.got - 2010.06.03 18:47:42.
