data_PCOD9262765
_publ_section_title
;
Structure prediction by ZEFSAII (Michael W. Deem and Ramdas Pophale) SiO2 
 PCOD9262765
Probable space group: C 2/C
;
_chemical_formula_sum "Si O2"
_cell_formula_units_Z 56
_cell_length_a 16.111992
_cell_length_b 15.440418
_cell_length_c 11.470988
_cell_angle_alpha 90.000000
_cell_angle_beta 51.539650
_cell_angle_gamma 90.000000
_cell_volume 2234.561842
_symmetry_space_group_name_H-M "C 2/C"
_symmetry_group_IT_number 15
_symmetry_cell_setting 'monoclinic'
loop_
_space_group_symop_operation_xyz
x,y,z
-x,y,1/2-z
-x,-y,-z
x,-y,1/2+z
1/2+x,1/2+y,z
1/2-x,1/2+y,1/2-z
1/2-x,1/2-y,-z
1/2+x,1/2-y,1/2+z
loop_
_atom_site_type_symbol
_atom_site_label
_atom_site_fract_x
_atom_site_fract_y
_atom_site_fract_z
Si Si1 0.941990 0.866147 0.180800
Si Si2 0.604733 0.456349 0.670033
Si Si3 0.146409 0.313409 0.105985
Si Si4 0.786443 0.623080 0.169828
Si Si5 0.408648 0.264436 0.609521
Si Si6 0.287436 0.831257 0.046770
Si Si7 0.210974 0.495179 0.623954
O O1 0.817797 0.845982 0.283958
O O2 0.000000 0.831327 0.250000
O O3 0.939120 0.968051 0.208162
O O4 0.005154 0.830001 0.016463
O O5 0.500000 0.399379 0.750000
O O6 0.702523 0.415971 0.651567
O O7 0.661681 0.489120 0.502411
O O8 0.083735 0.267135 0.264937
O O9 0.160243 0.411049 0.146465
O O10 0.250000 0.250000 0.000000
O O11 0.124070 0.332587 0.988172
O O12 0.707774 0.689460 0.302087
O O13 0.820230 0.548035 0.227140
O O14 0.391054 0.187814 0.532258
O O15 0.250000 0.750000 0.000000
O O16 0.307229 0.918296 0.954226
#
# Coordination Sequence:
#
# PCOD9262765 Si02
#       7
#     8   8   8   8   8   8   8
#     4  10  19  33  55  88 124 153 199 258 304 364
#     4   9  19  32  50  87 128 155 193 246 318 387
#     4   9  22  37  55  82 125 167 201 243 313 379
#     4  10  19  36  55  84 126 163 202 244 310 388
#     4  11  21  37  58  87 129 163 198 260 312 372
#     4  11  20  36  60  96 118 155 212 257 320 364
#     4  10  20  34  59  87 118 162 208 259 303 378
#
# _framework density 25.060842000000001
#
# number of rings (size 3 to 8) (size 9 to 14) (size 15 to 20)
#    0.000    2.000    2.857    1.714    6.000    2.286 
#    2.571    0.000    0.000    0.857    0.000    0.000 
#    0.000    0.000    0.000    0.000    0.000    0.000 
#
# Total GULP energy -156156.876954 kJ/mol
# GULP energy per Si atom -5577.031320 kJ/mol
# Density = 2.500380 g / cm^3
# Si number density = 25.060842 Si / 1000 Ang^3
#
#
#
# Elastic Constant Matrix: (Units=GPa)
#
#
# Indices 1 2 3 4 5 6 
#
# 1 36.9805 17.1131 21.7957 0.0000 9.1168 0.0000
# 2 17.1131 152.4792 57.4003 0.0000 10.3515 0.0000
# 3 21.7957 57.4003 164.9105 0.0000 15.8045 0.0000
# 4 0.0000 0.0000 0.0000 48.7965 0.0000 9.4781
# 5 9.1168 10.3515 15.8045 0.0000 28.8736 0.0000
# 6 0.0000 0.0000 0.0000 9.4781 0.0000 24.9737
#
#
#
# Elastic Compliance Matrix: (Units=1/GPa)
#
#
# Indices 1 2 3 4 5 6 
#
# 1 0.031473 -0.001980 -0.002729 0.000000 -0.007734 0.000000
# 2 -0.001980 0.007721 -0.002343 0.000000 -0.000860 0.000000
# 3 -0.002729 -0.002343 0.007469 0.000000 -0.002386 0.000000
# 4 0.000000 0.000000 0.000000 0.022124 0.000000 -0.008397
# 5 -0.007734 -0.000860 -0.002386 0.000000 0.038690 0.000000
# 6 0.000000 0.000000 0.000000 -0.008397 0.000000 0.043229
#
#
# Mechanical properties :
#
#
# Convention : Reuss Voigt Hill
#
# Bulk Modulus (GPa) = 30.71468 60.77648 45.74558
# Shear Modulus (GPa) = 28.46348 37.73281 33.09815
#
# Velocity S-wave (km/s) = 3.37378 3.88448 3.63810
# Velocity P-wave (km/s) = 5.24015 6.66507 5.99509
#
# Compressibility (1/GPa) = 0.03255772
#
# Stress axis : x y z
#
# Youngs Moduli (GPa) = 31.77358 129.51677 133.88708
#
# Poissons Ratio (x) = 0.25641 0.36543
# Poissons Ratio (y) = 0.06290 0.31374
# Poissons Ratio (z) = 0.08672 0.30350
#
# Static dielectric constant tensor:
#      x y z
#    x 2.216210 0.000000 0.031660 
#    y 0.000000 2.067560 0.000000 
#    z 0.031660 0.000000 2.106930 
# 
# From -- ./inp_files/113432.got.cif
#   From: 2010.05.17/outbox.cif.g08.bks.cpg/sg15_57_cif.got.tgz:113432.got - 2010.06.03 18:47:42.
