data_PCOD9262363
_publ_section_title
;
Structure prediction by ZEFSAII (Michael W. Deem and Ramdas Pophale) SiO2 
 PCOD9262363
Probable space group: C 2/C
;
_chemical_formula_sum "Si O2"
_cell_formula_units_Z 56
_cell_length_a 7.301762
_cell_length_b 22.272467
_cell_length_c 20.234616
_cell_angle_alpha 90.000000
_cell_angle_beta 64.258288
_cell_angle_gamma 90.000000
_cell_volume 2964.152709
_symmetry_space_group_name_H-M "C 2/C"
_symmetry_group_IT_number 15
_symmetry_cell_setting 'monoclinic'
loop_
_space_group_symop_operation_xyz
x,y,z
-x,y,1/2-z
-x,-y,-z
x,-y,1/2+z
1/2+x,1/2+y,z
1/2-x,1/2+y,1/2-z
1/2-x,1/2-y,-z
1/2+x,1/2-y,1/2+z
loop_
_atom_site_type_symbol
_atom_site_label
_atom_site_fract_x
_atom_site_fract_y
_atom_site_fract_z
Si Si1 0.389868 0.557546 0.934541
Si Si2 0.939911 0.826497 0.154873
Si Si3 0.830414 0.313567 0.186081
Si Si4 0.463045 0.768876 0.538622
Si Si5 0.513546 0.298382 0.901226
Si Si6 0.528112 0.571956 0.058347
Si Si7 0.487767 0.114811 0.956340
O O1 0.533131 0.611966 0.889039
O O2 0.468567 0.491231 0.904765
O O3 0.167374 0.567191 0.938030
O O4 0.395107 0.562014 0.013293
O O5 0.731474 0.825646 0.229041
O O6 0.972990 0.767463 0.104976
O O7 0.128262 0.827050 0.175588
O O8 0.995727 0.351457 0.117582
O O9 0.875151 0.243429 0.168419
O O10 0.558985 0.724364 0.468646
O O11 0.222987 0.781074 0.567813
O O12 0.541984 0.834391 0.503791
O O13 0.546379 0.369017 0.891765
O O14 0.762849 0.588385 0.001750
#
# Coordination Sequence:
#
# PCOD9262363 Si02
#       7
#     8   8   8   8   8   8   8
#     4  10  20  31  53  75 102 140 165 212 256 297
#     4  10  19  33  48  78 103 131 176 209 257 320
#     4   9  20  31  51  75 101 136 165 216 269 296
#     4   9  17  29  51  73  99 126 167 212 260 292
#     4   9  17  31  48  75 100 129 162 215 252 302
#     4  10  19  33  51  78 103 130 176 208 250 312
#     4   9  19  34  52  76 103 132 173 220 255 298
#
# _framework density 18.892413999999999
#
# number of rings (size 3 to 8) (size 9 to 14) (size 15 to 20)
#    0.000    2.571    1.429    1.286    2.000    2.286 
#    0.000    0.000    0.000   15.429    0.000    0.000 
#    0.000    0.000    0.000    0.000    0.000    0.000 
#
# Total GULP energy -155943.760679 kJ/mol
# GULP energy per Si atom -5569.420024 kJ/mol
# Density = 1.884941 g / cm^3
# Si number density = 18.892414 Si / 1000 Ang^3
#
#
#
# Elastic Constant Matrix: (Units=GPa)
#
#
# Indices 1 2 3 4 5 6 
#
# 1 23.5342 -0.1792 -8.4695 0.0000 -1.6476 0.0000
# 2 -0.1792 96.5067 7.1216 0.0000 -1.0210 0.0000
# 3 -8.4695 7.1216 52.4915 0.0000 -2.5642 0.0000
# 4 0.0000 0.0000 0.0000 7.3537 0.0000 -1.5162
# 5 -1.6476 -1.0210 -2.5642 0.0000 16.3661 0.0000
# 6 0.0000 0.0000 0.0000 -1.5162 0.0000 26.7045
#
#
#
# Elastic Compliance Matrix: (Units=1/GPa)
#
#
# Indices 1 2 3 4 5 6 
#
# 1 0.045667 -0.000423 0.007708 0.000000 0.005779 0.000000
# 2 -0.000423 0.010474 -0.001471 0.000000 0.000380 0.000000
# 3 0.007708 -0.001471 0.020686 0.000000 0.003925 0.000000
# 4 0.000000 0.000000 0.000000 0.137597 0.000000 0.007812
# 5 0.005779 0.000380 0.003925 0.000000 0.062322 0.000000
# 6 0.000000 0.000000 0.000000 0.007812 0.000000 0.037890
#
#
# Mechanical properties :
#
#
# Convention : Reuss Voigt Hill
#
# Bulk Modulus (GPa) = 11.30522 18.83091 15.06806
# Shear Modulus (GPa) = 15.03798 21.68883 18.36341
#
# Velocity S-wave (km/s) = 2.82437 3.39192 3.12107
# Velocity P-wave (km/s) = 4.07837 5.03281 4.58052
#
# Compressibility (1/GPa) = 0.08845474
#
# Stress axis : x y z
#
# Youngs Moduli (GPa) = 21.89788 95.47688 48.34278
#
# Poissons Ratio (x) = 0.04037 -0.37262
# Poissons Ratio (y) = 0.00926 0.07109
# Poissons Ratio (z) = -0.16879 0.14041
#
# Static dielectric constant tensor:
#      x y z
#    x 1.718770 0.000000 -0.003720 
#    y 0.000000 1.677200 0.000000 
#    z -0.003720 0.000000 1.687340 
# 
# From -- ./inp_files/191634.got.cif
#   From: 2010.05.17/outbox.cif.g08.bks.cpg/sg15_96_cif.got.tgz:191634.got - 2010.06.03 18:47:42.
