data_PCOD9262889
_publ_section_title
;
Structure prediction by ZEFSAII (Michael W. Deem and Ramdas Pophale) SiO2 
 PCOD9262889
Probable space group: C 2/C
;
_chemical_formula_sum "Si O2"
_cell_formula_units_Z 52
_cell_length_a 26.804444
_cell_length_b 18.892026
_cell_length_c 15.048758
_cell_angle_alpha 90.000000
_cell_angle_beta 20.399813
_cell_angle_gamma 90.000000
_cell_volume 2656.285441
_symmetry_space_group_name_H-M "C 2/C"
_symmetry_group_IT_number 15
_symmetry_cell_setting 'monoclinic'
loop_
_space_group_symop_operation_xyz
x,y,z
-x,y,1/2-z
-x,-y,-z
x,-y,1/2+z
1/2+x,1/2+y,z
1/2-x,1/2+y,1/2-z
1/2-x,1/2-y,-z
1/2+x,1/2-y,1/2+z
loop_
_atom_site_type_symbol
_atom_site_label
_atom_site_fract_x
_atom_site_fract_y
_atom_site_fract_z
Si Si1 0.538324 0.720774 0.367881
Si Si2 0.000000 0.608794 0.250000
Si Si3 0.092918 0.339384 0.009666
Si Si4 0.880806 0.426788 0.122881
Si Si5 0.191346 0.568659 0.195667
Si Si6 0.735616 0.278478 0.382676
Si Si7 0.259421 0.325418 0.431833
O O1 0.507575 0.803356 0.396769
O O2 0.662192 0.725004 0.233918
O O3 0.399519 0.681713 0.636412
O O4 0.608301 0.695363 0.159614
O O5 0.923239 0.558658 0.450152
O O6 0.881164 0.655189 0.393390
O O7 0.189807 0.393802 0.794552
O O8 0.177393 0.269891 0.901522
O O9 0.000000 0.364231 0.250000
O O10 0.779601 0.485894 0.335813
O O11 0.819568 0.348239 0.217716
O O12 0.027982 0.428012 0.932324
O O13 0.274200 0.613788 0.982915
O O14 0.250000 0.250000 0.500000
#
# Coordination Sequence:
#
# PCOD9262889 Si02
#       7
#     8   4   8   8   8   8   8
#     4  10  19  35  56  85 111 147 195 242 290 337
#     4  10  22  36  60  90 112 162 192 238 318 352
#     4  10  19  33  57  84 110 148 197 240 284 342
#     4  10  20  37  57  83 121 152 194 246 304 353
#     4  10  21  36  56  87 117 150 194 256 292 346
#     4  10  20  35  57  83 115 154 195 238 292 352
#     4  11  20  37  60  88 120 147 197 250 296 352
#
# _framework density 19.57621
#
# number of rings (size 3 to 8) (size 9 to 14) (size 15 to 20)
#    0.000    1.846    3.077    1.846    1.077    0.000 
#    0.000    0.769    0.000    7.385    0.000    0.000 
#    0.000    0.000    0.000    0.000    0.000    0.000 
#
# Total GULP energy -144770.502259 kJ/mol
# GULP energy per Si atom -5568.096241 kJ/mol
# Density = 1.953165 g / cm^3
# Si number density = 19.576210 Si / 1000 Ang^3
#
#
#
# Elastic Constant Matrix: (Units=GPa)
#
#
# Indices 1 2 3 4 5 6 
#
# 1 90.7905 29.4860 21.0556 -0.0003 8.3318 -0.0001
# 2 29.4860 48.2285 12.7777 -0.0004 9.6226 -0.0002
# 3 21.0556 12.7777 78.6063 -0.0010 11.6088 -0.0003
# 4 -0.0003 -0.0004 -0.0010 26.0240 0.0008 7.7242
# 5 8.3318 9.6226 11.6088 0.0008 26.3522 -0.0002
# 6 -0.0001 -0.0002 -0.0003 7.7242 -0.0002 10.4037
#
#
#
# Elastic Compliance Matrix: (Units=1/GPa)
#
#
# Indices 1 2 3 4 5 6 
#
# 1 0.014204 -0.007935 -0.002438 0.000000 -0.000520 0.000000
# 2 -0.007935 0.027304 -0.001295 0.000001 -0.006891 0.000000
# 3 -0.002438 -0.001295 0.014334 0.000001 -0.005071 0.000000
# 4 0.000000 0.000001 0.000001 0.049287 -0.000002 -0.036593
# 5 -0.000520 -0.006891 -0.005071 -0.000002 0.042862 0.000002
# 6 0.000000 0.000000 0.000000 -0.036593 0.000002 0.123288
#
#
# Mechanical properties :
#
#
# Convention : Reuss Voigt Hill
#
# Bulk Modulus (GPa) = 30.76368 38.25155 34.50762
# Shear Modulus (GPa) = 16.36924 22.84306 19.60615
#
# Velocity S-wave (km/s) = 2.89482 3.41967 3.16813
# Velocity P-wave (km/s) = 5.18866 5.93080 5.57210
#
# Compressibility (1/GPa) = 0.03250586
#
# Stress axis : x y z
#
# Youngs Moduli (GPa) = 70.40033 36.62502 69.76348
#
# Poissons Ratio (x) = 0.29061 0.17011
# Poissons Ratio (y) = 0.55861 0.09036
# Poissons Ratio (z) = 0.17166 0.04744
#
# Static dielectric constant tensor:
#      x y z
#    x 1.716670 0.000000 0.019400 
#    y 0.000000 1.718940 0.000000 
#    z 0.019400 0.000000 1.733600 
# 
# From -- ./inp_files/179018.got.cif
#   From: 2010.05.17/outbox.cif.g08.bks.cpg/sg15_90_cif.got.tgz:179018.got - 2010.06.03 18:47:42.
