data_PCOD9262569
_publ_section_title
;
Structure prediction by ZEFSAII (Michael W. Deem and Ramdas Pophale) SiO2 
 PCOD9262569
Probable space group: C 2/C
;
_chemical_formula_sum "Si O2"
_cell_formula_units_Z 48
_cell_length_a 13.195161
_cell_length_b 26.776150
_cell_length_c 5.660249
_cell_angle_alpha 90.000000
_cell_angle_beta 84.771534
_cell_angle_gamma 90.000000
_cell_volume 1991.533430
_symmetry_space_group_name_H-M "C 2/C"
_symmetry_group_IT_number 15
_symmetry_cell_setting 'monoclinic'
loop_
_space_group_symop_operation_xyz
x,y,z
-x,y,1/2-z
-x,-y,-z
x,-y,1/2+z
1/2+x,1/2+y,z
1/2-x,1/2+y,1/2-z
1/2-x,1/2-y,-z
1/2+x,1/2-y,1/2+z
loop_
_atom_site_type_symbol
_atom_site_label
_atom_site_fract_x
_atom_site_fract_y
_atom_site_fract_z
Si Si1 0.089750 0.650193 0.913475
Si Si2 0.388363 0.052585 0.299080
Si Si3 0.816005 0.985720 0.123777
Si Si4 0.257108 0.881796 0.468980
Si Si5 0.370863 0.250674 0.420694
Si Si6 0.652000 0.285683 0.574846
O O1 0.191536 0.651982 0.739341
O O2 0.096440 0.692672 0.108235
O O3 0.000000 0.659350 0.750000
O O4 0.088116 0.593824 0.007230
O O5 0.500000 0.027536 0.250000
O O6 0.342546 0.088536 0.102651
O O7 0.295568 0.014407 0.368973
O O8 0.864327 0.003553 0.358138
O O9 0.802815 0.926638 0.139487
O O10 0.187987 0.842448 0.620060
O O11 0.250000 0.250000 0.500000
O O12 0.398579 0.279811 0.174631
O O13 0.404167 0.268905 0.673959
O O14 0.750000 0.250000 0.500000
#
# Coordination Sequence:
#
# PCOD9262569 Si02
#       6
#     8   8   8   8   8   8
#     4  12  22  33  50  74  97 130 173 217 252 286
#     4  11  22  33  47  66 101 139 174 208 250 287
#     4  10  22  34  48  65  94 132 171 206 250 279
#     4  11  21  34  49  69  93 127 176 214 246 288
#     4  10  20  34  53  69  94 120 164 208 256 305
#     4  10  19  33  54  69  87 119 162 213 249 303
#
# _framework density 24.102032999999999
#
# number of rings (size 3 to 8) (size 9 to 14) (size 15 to 20)
#    0.000    1.333    6.667    2.000    0.000    3.333 
#    0.000    0.000    0.000    0.000    0.000    0.000 
#    0.000    0.000    0.000    0.000    0.000  113.333 
#
# Total GULP energy -133922.320498 kJ/mol
# GULP energy per Si atom -5580.096687 kJ/mol
# Density = 2.404718 g / cm^3
# Si number density = 24.102033 Si / 1000 Ang^3
#
#
#
# Elastic Constant Matrix: (Units=GPa)
#
#
# Indices 1 2 3 4 5 6 
#
# 1 34.4618 8.8228 26.7950 0.0000 8.0700 0.0000
# 2 8.8228 125.6105 20.1677 0.0000 -6.0749 0.0000
# 3 26.7950 20.1677 162.9631 0.0000 4.6076 0.0000
# 4 0.0000 0.0000 0.0000 -0.4178 0.0000 32.1433
# 5 8.0700 -6.0749 4.6076 0.0000 25.1783 0.0000
# 6 0.0000 0.0000 0.0000 32.1433 0.0000 -8.2050
#
#
#
# Elastic Compliance Matrix: (Units=1/GPa)
#
#
# Indices 1 2 3 4 5 6 
#
# 1 0.036411 -0.002234 -0.005393 0.000000 -0.011222 0.000000
# 2 -0.002234 0.008378 -0.000751 0.000000 0.002875 0.000000
# 3 -0.005393 -0.000751 0.007109 0.000000 0.000246 0.000000
# 4 0.000000 0.000000 0.000000 0.007968 0.000000 0.031214
# 5 -0.011222 0.002875 0.000246 0.000000 0.043962 0.000000
# 6 0.000000 0.000000 0.000000 0.031214 0.000000 0.000406
#
#
# Mechanical properties :
#
#
# Convention : Reuss Voigt Hill
#
# Bulk Modulus (GPa) = 28.45642 48.28961 38.37302
# Shear Modulus (GPa) = 37.67809 21.12775 29.40292
#
# Velocity S-wave (km/s) = 3.95812 2.96395 3.49655
# Velocity P-wave (km/s) = 5.72024 5.63847 5.67950
#
# Compressibility (1/GPa) = 0.03514145
#
# Stress axis : x y z
#
# Youngs Moduli (GPa) = 27.46436 119.36567 140.66623
#
# Poissons Ratio (x) = 0.26670 0.75861
# Poissons Ratio (y) = 0.06136 0.10560
# Poissons Ratio (z) = 0.14811 0.08961
#
# Static dielectric constant tensor:
#      x y z
#    x 2.008210 0.000000 0.015050 
#    y 0.000000 1.906690 0.000000 
#    z 0.015050 0.000000 2.069950 
# 
# From -- ./inp_files/8232.got.cif
#   From: 2010.05.17/outbox.cif.g08.bks.cpg/sg15_5_cif.got.tgz:8232.got - 2010.06.03 18:47:42.
