data_PCOD9262627
_publ_section_title
;
Structure prediction by ZEFSAII (Michael W. Deem and Ramdas Pophale) SiO2 
 PCOD9262627
Probable space group: C 2/C
;
_chemical_formula_sum "Si O2"
_cell_formula_units_Z 56
_cell_length_a 8.767797
_cell_length_b 28.277727
_cell_length_c 14.219411
_cell_angle_alpha 90.000000
_cell_angle_beta 56.063755
_cell_angle_gamma 90.000000
_cell_volume 2924.936032
_symmetry_space_group_name_H-M "C 2/C"
_symmetry_group_IT_number 15
_symmetry_cell_setting 'monoclinic'
loop_
_space_group_symop_operation_xyz
x,y,z
-x,y,1/2-z
-x,-y,-z
x,-y,1/2+z
1/2+x,1/2+y,z
1/2-x,1/2+y,1/2-z
1/2-x,1/2-y,-z
1/2+x,1/2-y,1/2+z
loop_
_atom_site_type_symbol
_atom_site_label
_atom_site_fract_x
_atom_site_fract_y
_atom_site_fract_z
Si Si1 0.680239 0.542148 0.752557
Si Si2 0.858027 0.312887 0.540061
Si Si3 0.585879 0.095693 0.975040
Si Si4 0.486823 0.370131 0.367617
Si Si5 0.796066 0.659932 0.275253
Si Si6 0.530504 0.705860 0.007263
Si Si7 0.341533 0.942411 0.728826
O O1 0.500000 0.537311 0.750000
O O2 0.846625 0.561379 0.630886
O O3 0.620748 0.585055 0.841559
O O4 0.727244 0.490239 0.770514
O O5 0.796394 0.322564 0.668087
O O6 0.690760 0.309514 0.524520
O O7 0.955538 0.262011 0.508302
O O8 0.989390 0.356864 0.470507
O O9 0.776106 0.113424 0.958872
O O10 0.446635 0.069973 0.094689
O O11 0.500000 0.361281 0.250000
O O12 0.542820 0.324545 0.407574
O O13 0.662502 0.691650 0.381521
O O14 0.732699 0.605192 0.293324
O O15 0.000000 0.660337 0.250000
O O16 0.500000 0.948524 0.750000
#
# Coordination Sequence:
#
# PCOD9262627 Si02
#       7
#     8   8   8   8   8   8   8
#     4   9  20  36  54  78 109 144 184 229 273 324
#     4  10  23  37  57  86 113 145 184 229 282 330
#     4   9  19  38  55  76 110 147 186 228 271 329
#     4   9  20  38  57  81 112 147 190 229 268 331
#     4  10  22  39  59  83 112 147 189 229 269 333
#     4  11  22  39  58  84 117 145 180 233 283 325
#     4  10  19  33  54  81 107 138 183 229 275 328
#
# _framework density 19.145717999999999
#
# number of rings (size 3 to 8) (size 9 to 14) (size 15 to 20)
#    0.000    2.571    0.000    3.429    0.000    8.571 
#    0.000   12.143    0.000    0.000    0.000    0.000 
#    0.000    0.000    0.000    0.000    0.000    0.000 
#
# Total GULP energy -156163.215825 kJ/mol
# GULP energy per Si atom -5577.257708 kJ/mol
# Density = 1.910214 g / cm^3
# Si number density = 19.145718 Si / 1000 Ang^3
#
#
#
# Elastic Constant Matrix: (Units=GPa)
#
#
# Indices 1 2 3 4 5 6 
#
# 1 35.2161 50.5955 17.0659 0.0000 2.7503 0.0000
# 2 50.5955 140.7022 30.4670 0.0000 1.9419 0.0000
# 3 17.0659 30.4670 40.7890 0.0000 1.0028 0.0000
# 4 0.0000 0.0000 0.0000 22.9461 0.0000 -3.0067
# 5 2.7503 1.9419 1.0028 0.0000 23.3713 0.0000
# 6 0.0000 0.0000 0.0000 -3.0067 0.0000 38.5854
#
#
#
# Elastic Compliance Matrix: (Units=1/GPa)
#
#
# Indices 1 2 3 4 5 6 
#
# 1 0.063420 -0.020298 -0.011243 0.000000 -0.005294 0.000000
# 2 -0.020298 0.014979 -0.002727 0.000000 0.001261 0.000000
# 3 -0.011243 -0.002727 0.031252 0.000000 0.000209 0.000000
# 4 0.000000 0.000000 0.000000 0.044030 0.000000 0.003431
# 5 -0.005294 0.001261 0.000209 0.000000 0.043297 0.000000
# 6 0.000000 0.000000 0.000000 0.003431 0.000000 0.026184
#
#
# Mechanical properties :
#
#
# Convention : Reuss Voigt Hill
#
# Bulk Modulus (GPa) = 24.32175 45.88491 35.10333
# Shear Modulus (GPa) = 16.37173 24.88579 20.62876
#
# Velocity S-wave (km/s) = 2.92740 3.60920 3.28603
# Velocity P-wave (km/s) = 4.91501 6.43324 5.72468
#
# Compressibility (1/GPa) = 0.04111545
#
# Stress axis : x y z
#
# Youngs Moduli (GPa) = 15.76784 66.75889 31.99750
#
# Poissons Ratio (x) = 1.35506 0.35976
# Poissons Ratio (y) = 0.32005 0.08726
# Poissons Ratio (z) = 0.17728 0.18206
#
# Static dielectric constant tensor:
#      x y z
#    x 1.654840 0.000000 -0.001040 
#    y 0.000000 1.674100 0.000000 
#    z -0.001040 0.000000 1.696130 
# 
# From -- ./inp_files/138543.got.cif
#   From: 2010.05.17/outbox.cif.g08.bks.cpg/sg15_70_cif.got.tgz:138543.got - 2010.06.03 18:47:42.
