data_PCOD9262020
_publ_section_title
;
Structure prediction by ZEFSAII (Michael W. Deem and Ramdas Pophale) SiO2 
 PCOD9262020
Probable space group: C 2/C
;
_chemical_formula_sum "Si O2"
_cell_formula_units_Z 40
_cell_length_a 13.205290
_cell_length_b 18.610109
_cell_length_c 19.403221
_cell_angle_alpha 90.000000
_cell_angle_beta 158.799103
_cell_angle_gamma 90.000000
_cell_volume 1724.432302
_symmetry_space_group_name_H-M "C 2/C"
_symmetry_group_IT_number 15
_symmetry_cell_setting 'monoclinic'
loop_
_space_group_symop_operation_xyz
x,y,z
-x,y,1/2-z
-x,-y,-z
x,-y,1/2+z
1/2+x,1/2+y,z
1/2-x,1/2+y,1/2-z
1/2-x,1/2-y,-z
1/2+x,1/2-y,1/2+z
loop_
_atom_site_type_symbol
_atom_site_label
_atom_site_fract_x
_atom_site_fract_y
_atom_site_fract_z
Si Si1 0.977169 0.843585 0.898177
Si Si2 0.769899 0.840691 0.171951
Si Si3 0.962526 0.216628 0.918868
Si Si4 0.497990 0.959312 0.924719
Si Si5 0.203520 0.603273 0.022676
O O1 0.778779 0.776288 0.749977
O O2 0.782763 0.915459 0.770815
O O3 0.090555 0.830083 0.046697
O O4 0.220690 0.852428 0.996851
O O5 0.008427 0.831589 0.380354
O O6 0.722753 0.765395 0.105064
O O7 0.727165 0.898688 0.085300
O O8 0.506761 0.857238 0.057909
O O9 0.581280 0.024347 0.927945
O O10 0.500000 0.593233 0.250000
O O11 0.000000 0.500000 0.000000
#
# Coordination Sequence:
#
# PCOD9262020 Si02
#       5
#     8   8   8   8   8
#     4  10  19  32  52  78 102 133 163 207 254 301
#     4   9  18  30  48  76  98 133 163 201 254 301
#     4   9  18  31  51  76 106 127 159 211 260 302
#     4   9  17  32  48  67 103 134 176 193 242 310
#     4  11  18  30  50  71 103 137 170 196 245 310
#
# _framework density 23.196038999999999
#
# number of rings (size 3 to 8) (size 9 to 14) (size 15 to 20)
#    0.000    2.400    6.000    0.000    0.000    5.600 
#    0.000    4.000    4.400    0.000    0.000   22.400 
#    0.000    0.000    0.000    0.000    0.000    0.000 
#
# Total GULP energy -111530.084632 kJ/mol
# GULP energy per Si atom -5576.504232 kJ/mol
# Density = 2.314324 g / cm^3
# Si number density = 23.196039 Si / 1000 Ang^3
#
#
#
# Elastic Constant Matrix: (Units=GPa)
#
#
# Indices 1 2 3 4 5 6 
#
# 1 101.6420 31.3019 33.2575 -0.0533 -5.4100 0.0088
# 2 31.3019 90.5536 23.0414 0.0301 -5.4876 -0.0075
# 3 33.2575 23.0414 67.8238 -0.0539 -8.5737 -0.0447
# 4 -0.0533 0.0301 -0.0539 14.2923 -0.0417 -3.8093
# 5 -5.4100 -5.4876 -8.5737 -0.0417 40.2670 -0.0082
# 6 0.0088 -0.0075 -0.0447 -3.8093 -0.0082 18.0572
#
#
#
# Elastic Compliance Matrix: (Units=1/GPa)
#
#
# Indices 1 2 3 4 5 6 
#
# 1 0.012424 -0.002998 -0.005050 0.000031 0.000185 -0.000013
# 2 -0.002998 0.012837 -0.002796 -0.000049 0.000751 -0.000010
# 3 -0.005050 -0.002796 0.018535 0.000083 0.002887 0.000066
# 4 0.000031 -0.000049 0.000083 0.074137 0.000095 0.015640
# 5 0.000185 0.000751 0.002887 0.000095 0.025576 0.000039
# 6 -0.000013 -0.000010 0.000066 0.015640 0.000039 0.058679
#
#
# Mechanical properties :
#
#
# Convention : Reuss Voigt Hill
#
# Bulk Modulus (GPa) = 45.23357 48.35789 46.79573
# Shear Modulus (GPa) = 21.62202 26.01790 23.81996
#
# Velocity S-wave (km/s) = 3.05641 3.35274 3.20800
# Velocity P-wave (km/s) = 5.65672 5.99004 5.82576
#
# Compressibility (1/GPa) = 0.02210747
#
# Stress axis : x y z
#
# Youngs Moduli (GPa) = 80.48839 77.90249 53.95124
#
# Poissons Ratio (x) = 0.23359 0.27246
# Poissons Ratio (y) = 0.24134 0.15083
# Poissons Ratio (z) = 0.40648 0.21779
#
# Static dielectric constant tensor:
#      x y z
#    x 2.003650 0.000060 0.068490 
#    y 0.000060 1.956440 0.000060 
#    z 0.068490 0.000060 2.004630 
# 
# From -- ./inp_files/245712.got.cif
#   From: 2010.05.17/outbox.cif.g08.bks.cpg/sg15_123_cif.got.tgz:245712.got - 2010.06.03 18:47:42.
