data_PCOD9262265
_publ_section_title
;
Structure prediction by ZEFSAII (Michael W. Deem and Ramdas Pophale) SiO2 
 PCOD9262265
Probable space group: C 2/C
;
_chemical_formula_sum "Si O2"
_cell_formula_units_Z 48
_cell_length_a 23.086722
_cell_length_b 5.142766
_cell_length_c 21.094385
_cell_angle_alpha 90.000000
_cell_angle_beta 68.013665
_cell_angle_gamma 90.000000
_cell_volume 2322.381698
_symmetry_space_group_name_H-M "C 2/C"
_symmetry_group_IT_number 15
_symmetry_cell_setting 'monoclinic'
loop_
_space_group_symop_operation_xyz
x,y,z
-x,y,1/2-z
-x,-y,-z
x,-y,1/2+z
1/2+x,1/2+y,z
1/2-x,1/2+y,1/2-z
1/2-x,1/2-y,-z
1/2+x,1/2-y,1/2+z
loop_
_atom_site_type_symbol
_atom_site_label
_atom_site_fract_x
_atom_site_fract_y
_atom_site_fract_z
Si Si1 0.692200 0.053348 0.013125
Si Si2 0.608744 0.642167 0.634744
Si Si3 0.773164 0.822764 0.889088
Si Si4 0.921661 0.686061 0.216273
Si Si5 0.779534 0.536236 0.265337
Si Si6 0.005800 0.808497 0.823387
O O1 0.631423 0.197599 0.064415
O O2 0.701492 0.821763 0.058822
O O3 0.750000 0.250000 0.000000
O O4 0.706878 0.946508 0.936934
O O5 0.561457 0.420468 0.630248
O O6 0.670901 0.527905 0.643987
O O7 0.577503 0.801038 0.706106
O O8 0.769189 0.610276 0.836206
O O9 0.852180 0.600668 0.226993
O O10 0.942465 0.969726 0.184465
O O11 0.969187 0.472930 0.168982
O O12 0.743417 0.809685 0.273329
O O13 0.000000 0.802213 0.750000
#
# Coordination Sequence:
#
# PCOD9262265 Si02
#       6
#     8   8   8   8   8   8
#     4   9  19  33  56  81 117 148 180 235 294 335
#     4  10  19  32  57  82 119 151 180 225 302 351
#     4  10  20  35  54  84 119 143 191 237 279 343
#     4  11  21  35  49  79 117 144 187 231 269 342
#     4  12  24  37  58  79 111 158 193 231 281 327
#     4  10  20  30  52  79 113 150 175 220 288 349
#
# _framework density 20.668437999999998
#
# number of rings (size 3 to 8) (size 9 to 14) (size 15 to 20)
#    0.000    1.667    1.667    5.500    4.667    0.000 
#    0.000    0.000    0.000    0.000    0.000    7.000 
#    0.000    0.000    0.000    0.000    0.000    0.000 
#
# Total GULP energy -133849.215262 kJ/mol
# GULP energy per Si atom -5577.050636 kJ/mol
# Density = 2.062140 g / cm^3
# Si number density = 20.668438 Si / 1000 Ang^3
#
#
#
# Elastic Constant Matrix: (Units=GPa)
#
#
# Indices 1 2 3 4 5 6 
#
# 1 65.5191 25.0227 18.4196 -0.0188 -5.1259 -0.0183
# 2 25.0227 100.0860 8.0323 -0.0367 -6.9515 -0.0663
# 3 18.4196 8.0323 44.9203 -0.0086 -18.4668 -0.0275
# 4 -0.0188 -0.0367 -0.0086 32.2741 -0.0014 -5.1309
# 5 -5.1259 -6.9515 -18.4668 -0.0014 21.9381 -0.0082
# 6 -0.0183 -0.0663 -0.0275 -5.1309 -0.0082 30.4091
#
#
#
# Elastic Compliance Matrix: (Units=1/GPa)
#
#
# Indices 1 2 3 4 5 6 
#
# 1 0.019071 -0.004362 -0.008833 0.000003 -0.004362 -0.000007
# 2 -0.004362 0.011231 0.001261 0.000015 0.003601 0.000026
# 3 -0.008833 0.001261 0.038190 0.000015 0.030482 0.000043
# 4 0.000003 0.000015 0.000015 0.031839 0.000022 0.005372
# 5 -0.004362 0.003601 0.030482 0.000022 0.071364 0.000056
# 6 -0.000007 0.000026 0.000043 0.005372 0.000056 0.033791
#
#
# Mechanical properties :
#
#
# Convention : Reuss Voigt Hill
#
# Bulk Modulus (GPa) = 22.41023 34.83052 28.62038
# Shear Modulus (GPa) = 20.47272 27.52766 24.00019
#
# Velocity S-wave (km/s) = 3.15068 3.65344 3.41134
# Velocity P-wave (km/s) = 4.90938 5.88943 5.42160
#
# Compressibility (1/GPa) = 0.04462248
#
# Stress axis : x y z
#
# Youngs Moduli (GPa) = 52.43660 89.04021 26.18518
#
# Poissons Ratio (x) = 0.38839 0.23129
# Poissons Ratio (y) = 0.22873 -0.03301
# Poissons Ratio (z) = 0.46317 -0.11225
#
# Static dielectric constant tensor:
#      x y z
#    x 1.823000 -0.000050 -0.053550 
#    y -0.000050 1.886170 0.000020 
#    z -0.053550 0.000020 1.794230 
# 
# From -- ./inp_files/275620.got.cif
#   From: 2010.05.17/outbox.cif.g08.bks.cpg/sg15_138_cif.got.tgz:275620.got - 2010.06.03 18:47:42.
