data_PCOD9262670
_publ_section_title
;
Structure prediction by ZEFSAII (Michael W. Deem and Ramdas Pophale) SiO2 
 PCOD9262670
Probable space group: C 2/C
;
_chemical_formula_sum "Si O2"
_cell_formula_units_Z 52
_cell_length_a 10.466531
_cell_length_b 29.819871
_cell_length_c 12.364135
_cell_angle_alpha 90.000000
_cell_angle_beta 45.420310
_cell_angle_gamma 90.000000
_cell_volume 2748.652909
_symmetry_space_group_name_H-M "C 2/C"
_symmetry_group_IT_number 15
_symmetry_cell_setting 'monoclinic'
loop_
_space_group_symop_operation_xyz
x,y,z
-x,y,1/2-z
-x,-y,-z
x,-y,1/2+z
1/2+x,1/2+y,z
1/2-x,1/2+y,1/2-z
1/2-x,1/2-y,-z
1/2+x,1/2-y,1/2+z
loop_
_atom_site_type_symbol
_atom_site_label
_atom_site_fract_x
_atom_site_fract_y
_atom_site_fract_z
Si Si1 0.497422 0.888023 0.502201
Si Si2 0.131918 0.473956 0.503006
Si Si3 0.208135 0.701305 0.384970
Si Si4 0.681678 0.937377 0.080285
Si Si5 0.500000 0.435598 0.250000
Si Si6 0.568060 0.702968 0.031108
Si Si7 0.868471 0.116085 0.643084
O O1 0.546833 0.924440 0.565410
O O2 0.419321 0.839482 0.574269
O O3 0.346073 0.912771 0.517801
O O4 0.682133 0.881867 0.323128
O O5 0.175202 0.508973 0.571752
O O6 0.325094 0.465165 0.335082
O O7 0.000000 0.500000 0.500000
O O8 0.377293 0.704061 0.204517
O O9 0.286141 0.693263 0.460277
O O10 0.110960 0.749084 0.452806
O O11 0.500000 0.924950 0.250000
O O12 0.838056 0.917528 0.060323
O O13 0.484301 0.404184 0.363945
O O14 0.583469 0.663859 0.934503
#
# Coordination Sequence:
#
# PCOD9262670 Si02
#       7
#     8   8   8   8   4   8   8
#     4   9  17  33  56  76 115 151 188 232 290 344
#     4   9  19  37  54  80 111 152 192 237 290 346
#     4  10  19  33  54  88 118 149 183 236 294 353
#     4   9  17  32  54  80 108 149 193 235 289 342
#     4  10  22  38  58  80 112 156 204 238 298 344
#     4  10  20  32  54  87 120 146 188 234 294 351
#     4  10  19  35  56  79 113 152 194 243 286 348
#
# _framework density 18.918358999999999
#
# number of rings (size 3 to 8) (size 9 to 14) (size 15 to 20)
#    0.000    2.462    1.538    1.846    0.000    1.846 
#    8.308    0.000    0.000    8.308    0.000    0.000 
#    0.000    0.000    0.000    0.000    0.000    0.000 
#
# Total GULP energy -144784.995946 kJ/mol
# GULP energy per Si atom -5568.653690 kJ/mol
# Density = 1.887530 g / cm^3
# Si number density = 18.918359 Si / 1000 Ang^3
#
#
#
# Elastic Constant Matrix: (Units=GPa)
#
#
# Indices 1 2 3 4 5 6 
#
# 1 59.2408 47.0878 17.4208 0.0000 -5.9207 0.0000
# 2 47.0878 141.6875 27.8167 0.0000 -6.4596 0.0000
# 3 17.4208 27.8167 29.2336 0.0000 -10.0200 0.0000
# 4 0.0000 0.0000 0.0000 34.8654 0.0000 5.9245
# 5 -5.9207 -6.4596 -10.0200 0.0000 17.4113 0.0000
# 6 0.0000 0.0000 0.0000 5.9245 0.0000 30.8357
#
#
#
# Elastic Compliance Matrix: (Units=1/GPa)
#
#
# Indices 1 2 3 4 5 6 
#
# 1 0.024547 -0.006536 -0.007946 0.000000 0.001349 0.000000
# 2 -0.006536 0.010471 -0.006850 0.000000 -0.002280 0.000000
# 3 -0.007946 -0.006850 0.054392 0.000000 0.026059 0.000000
# 4 0.000000 0.000000 0.000000 0.029650 0.000000 -0.005697
# 5 0.001349 -0.002280 0.026059 0.000000 0.072043 0.000000
# 6 0.000000 0.000000 0.000000 -0.005697 0.000000 0.033524
#
#
# Mechanical properties :
#
#
# Convention : Reuss Voigt Hill
#
# Bulk Modulus (GPa) = 21.39228 46.09028 33.74128
# Shear Modulus (GPa) = 17.67572 25.81159 21.74365
#
# Velocity S-wave (km/s) = 3.05997 3.69774 3.39387
# Velocity P-wave (km/s) = 4.88025 6.53044 5.76470
#
# Compressibility (1/GPa) = 0.04674583
#
# Stress axis : x y z
#
# Youngs Moduli (GPa) = 40.73769 95.50287 18.38508
#
# Poissons Ratio (x) = 0.62425 0.14609
# Poissons Ratio (y) = 0.26628 0.12593
# Poissons Ratio (z) = 0.32370 0.65416
#
# Static dielectric constant tensor:
#      x y z
#    x 1.686200 0.000000 0.000400 
#    y 0.000000 1.671930 0.000000 
#    z 0.000400 0.000000 1.659740 
# 
# From -- ./inp_files/148353.got.cif
#   From: 2010.05.17/outbox.cif.g08.bks.cpg/sg15_75_cif.got.tgz:148353.got - 2010.06.03 18:47:42.
