data_PCOD9262871
_publ_section_title
;
Structure prediction by ZEFSAII (Michael W. Deem and Ramdas Pophale) SiO2 
 PCOD9262871
Probable space group: C 2/C
;
_chemical_formula_sum "Si O2"
_cell_formula_units_Z 48
_cell_length_a 17.719219
_cell_length_b 8.848771
_cell_length_c 21.065044
_cell_angle_alpha 90.000000
_cell_angle_beta 48.040212
_cell_angle_gamma 90.000000
_cell_volume 2456.052306
_symmetry_space_group_name_H-M "C 2/C"
_symmetry_group_IT_number 15
_symmetry_cell_setting 'monoclinic'
loop_
_space_group_symop_operation_xyz
x,y,z
-x,y,1/2-z
-x,-y,-z
x,-y,1/2+z
1/2+x,1/2+y,z
1/2-x,1/2+y,1/2-z
1/2-x,1/2-y,-z
1/2+x,1/2-y,1/2+z
loop_
_atom_site_type_symbol
_atom_site_label
_atom_site_fract_x
_atom_site_fract_y
_atom_site_fract_z
Si Si1 0.035349 0.332696 0.106175
Si Si2 0.313327 0.669173 0.723551
Si Si3 0.146827 0.836759 0.746388
Si Si4 0.422379 0.913430 0.743003
Si Si5 0.424796 0.360588 0.029546
Si Si6 0.708923 0.150363 0.601069
O O1 0.151181 0.339261 0.066686
O O2 0.971648 0.205498 0.181389
O O3 0.983788 0.490491 0.155518
O O4 0.028687 0.276587 0.037613
O O5 0.202246 0.716867 0.762269
O O6 0.325192 0.501452 0.744000
O O7 0.351592 0.789891 0.752208
O O8 0.382243 0.684335 0.621930
O O9 0.191423 0.803759 0.651604
O O10 0.500000 0.843229 0.750000
O O11 0.357595 0.032141 0.820329
O O12 0.324833 0.401929 0.043704
O O13 0.500000 0.500000 0.000000
#
# Coordination Sequence:
#
# PCOD9262871 Si02
#       6
#     8   8   8   8   8   8
#     4  10  19  36  58  81 112 153 188 229 286 344
#     4  11  21  36  55  86 112 146 190 237 288 334
#     4  10  19  33  57  82 108 144 193 235 278 333
#     4   9  20  37  58  80 110 148 192 240 279 329
#     4  11  21  34  55  86 116 152 185 235 285 344
#     4   9  20  37  58  82 111 151 193 232 283 337
#
# _framework density 19.543558000000001
#
# number of rings (size 3 to 8) (size 9 to 14) (size 15 to 20)
#    0.000    2.000    1.667    5.000    0.000    2.000 
#    0.000    0.000    0.000    2.000    0.000    0.000 
#    0.000    0.000    0.000    0.000    0.000    0.000 
#
# Total GULP energy -133804.006140 kJ/mol
# GULP energy per Si atom -5575.166922 kJ/mol
# Density = 1.949908 g / cm^3
# Si number density = 19.543558 Si / 1000 Ang^3
#
#
#
# Elastic Constant Matrix: (Units=GPa)
#
#
# Indices 1 2 3 4 5 6 
#
# 1 97.5198 20.2711 8.0885 0.0000 -2.6076 0.0000
# 2 20.2711 51.9537 2.0607 0.0000 12.1329 0.0000
# 3 8.0885 2.0607 49.1964 0.0000 2.2877 0.0000
# 4 0.0000 0.0000 0.0000 10.3104 0.0000 -2.3934
# 5 -2.6076 12.1329 2.2877 0.0000 31.4706 0.0000
# 6 0.0000 0.0000 0.0000 -2.3934 0.0000 32.1249
#
#
#
# Elastic Compliance Matrix: (Units=1/GPa)
#
#
# Indices 1 2 3 4 5 6 
#
# 1 0.011560 -0.005157 -0.001828 0.000000 0.003079 0.000000
# 2 -0.005157 0.023466 0.000307 0.000000 -0.009496 0.000000
# 3 -0.001828 0.000307 0.020697 0.000000 -0.001774 0.000000
# 4 0.000000 0.000000 0.000000 0.098697 0.000000 0.007353
# 5 0.003079 -0.009496 -0.001774 0.000000 0.035821 0.000000
# 6 0.000000 0.000000 0.000000 0.007353 0.000000 0.031676
#
#
# Mechanical properties :
#
#
# Convention : Reuss Voigt Hill
#
# Bulk Modulus (GPa) = 23.60376 28.83449 26.21913
# Shear Modulus (GPa) = 20.04851 25.99783 23.02317
#
# Velocity S-wave (km/s) = 3.20634 3.65122 3.43599
# Velocity P-wave (km/s) = 5.08048 5.70624 5.40243
#
# Compressibility (1/GPa) = 0.04236612
#
# Stress axis : x y z
#
# Youngs Moduli (GPa) = 86.50345 42.61562 48.31649
#
# Poissons Ratio (x) = 0.21977 0.08831
# Poissons Ratio (y) = 0.44610 -0.01481
# Poissons Ratio (z) = 0.15811 -0.01307
#
# Static dielectric constant tensor:
#      x y z
#    x 1.738000 0.000000 -0.023850 
#    y 0.000000 1.654290 0.000000 
#    z -0.023850 0.000000 1.740480 
# 
# From -- ./inp_files/208558.got.cif
#   From: 2010.05.17/outbox.cif.g08.bks.cpg/sg15_105_cif.got.tgz:208558.got - 2010.06.03 18:47:42.
