data_PCOD9262775
_publ_section_title
;
Structure prediction by ZEFSAII (Michael W. Deem and Ramdas Pophale) SiO2 
 PCOD9262775
Probable space group: C 2/C
;
_chemical_formula_sum "Si O2"
_cell_formula_units_Z 64
_cell_length_a 21.819750
_cell_length_b 13.372341
_cell_length_c 14.141966
_cell_angle_alpha 90.000000
_cell_angle_beta 63.303280
_cell_angle_gamma 90.000000
_cell_volume 3686.477135
_symmetry_space_group_name_H-M "C 2/C"
_symmetry_group_IT_number 15
_symmetry_cell_setting 'monoclinic'
loop_
_space_group_symop_operation_xyz
x,y,z
-x,y,1/2-z
-x,-y,-z
x,-y,1/2+z
1/2+x,1/2+y,z
1/2-x,1/2+y,1/2-z
1/2-x,1/2-y,-z
1/2+x,1/2-y,1/2+z
loop_
_atom_site_type_symbol
_atom_site_label
_atom_site_fract_x
_atom_site_fract_y
_atom_site_fract_z
Si Si1 0.206119 0.615688 0.801610
Si Si2 0.011326 0.079523 0.906605
Si Si3 0.150293 0.424050 0.743349
Si Si4 0.707062 0.345408 0.792945
Si Si5 0.487607 0.198594 0.145796
Si Si6 0.840252 0.971698 0.278087
Si Si7 0.863085 0.357559 0.954431
Si Si8 0.640814 0.378874 0.041983
O O1 0.164194 0.535531 0.770068
O O2 0.192721 0.729943 0.784764
O O3 0.286987 0.589188 0.748089
O O4 0.180980 0.608465 0.926998
O O5 0.020379 0.200766 0.911079
O O6 0.080752 0.048100 0.804503
O O7 0.937585 0.082923 0.906255
O O8 0.000000 0.000000 0.000000
O O9 0.212327 0.360885 0.745666
O O10 0.078271 0.371692 0.817011
O O11 0.154088 0.417587 0.627500
O O12 0.679038 0.414416 0.729350
O O13 0.671599 0.383915 0.915240
O O14 0.500000 0.225448 0.250000
O O15 0.556903 0.139812 0.072838
O O16 0.826606 0.938939 0.394804
O O17 0.852241 0.239319 0.939391
#
# Coordination Sequence:
#
# PCOD9262775 Si02
#       8
#     8   8   8   8   8   8   8   8
#     4  10  21  34  55  78 104 141 176 223 262 310
#     4  11  19  31  51  80 107 135 168 219 268 314
#     4  10  19  33  56  78 105 138 176 220 264 310
#     4  10  20  34  51  80 107 136 179 215 264 316
#     4   9  18  33  55  81 104 133 176 226 262 303
#     4  11  20  32  54  76 108 137 175 212 268 315
#     4   9  18  34  56  78 100 132 182 222 259 306
#     4  10  19  34  55  78 104 137 174 224 260 308
#
# _framework density 17.360747
#
# number of rings (size 3 to 8) (size 9 to 14) (size 15 to 20)
#    0.000    2.000    1.250    4.875    0.000    2.500 
#    0.000    0.000    2.750    7.500    0.000    0.000 
#    0.000    0.000    0.000    0.000    0.000    0.000 
#
# Total GULP energy -178260.684468 kJ/mol
# GULP energy per Si atom -5570.646390 kJ/mol
# Density = 1.732123 g / cm^3
# Si number density = 17.360747 Si / 1000 Ang^3
#
#
#
# Elastic Constant Matrix: (Units=GPa)
#
#
# Indices 1 2 3 4 5 6 
#
# 1 90.3805 68.8310 31.6624 0.0000 -3.3610 0.0000
# 2 68.8310 107.8812 60.3490 0.0000 20.4774 0.0000
# 3 31.6624 60.3490 61.5216 0.0000 1.2333 0.0000
# 4 0.0000 0.0000 0.0000 28.0945 0.0000 3.8106
# 5 -3.3610 20.4774 1.2333 0.0000 25.9454 0.0000
# 6 0.0000 0.0000 0.0000 3.8106 0.0000 7.3827
#
#
#
# Elastic Compliance Matrix: (Units=1/GPa)
#
#
# Indices 1 2 3 4 5 6 
#
# 1 0.039746 -0.047128 0.024950 0.000000 0.041159 0.000000
# 2 -0.047128 0.084985 -0.057699 0.000000 -0.070437 0.000000
# 3 0.024950 -0.057699 0.059092 0.000000 0.045962 0.000000
# 4 0.000000 0.000000 0.000000 0.038274 0.000000 -0.019755
# 5 0.041159 -0.070437 0.045962 0.000000 0.097282 0.000000
# 6 0.000000 0.000000 0.000000 -0.019755 0.000000 0.145649
#
#
# Mechanical properties :
#
#
# Convention : Reuss Voigt Hill
#
# Bulk Modulus (GPa) = 41.54894 64.60755 53.07824
# Shear Modulus (GPa) = 7.90132 18.88058 13.39095
#
# Velocity S-wave (km/s) = 2.13568 3.30137 2.78030
# Velocity P-wave (km/s) = 5.48326 7.19914 6.39897
#
# Compressibility (1/GPa) = 0.02406800
#
# Stress axis : x y z
#
# Youngs Moduli (GPa) = 25.15970 11.76672 16.92286
#
# Poissons Ratio (x) = 0.55455 -0.42222
# Poissons Ratio (y) = 1.18574 0.97643
# Poissons Ratio (z) = -0.62772 0.67892
#
# Static dielectric constant tensor:
#      x y z
#    x 1.605960 0.000000 -0.030390 
#    y 0.000000 1.590170 0.000000 
#    z -0.030390 0.000000 1.614380 
# 
# From -- ./inp_files/167643.got.cif
#   From: 2010.05.17/outbox.cif.g08.bks.cpg/sg15_84_cif.got.tgz:167643.got - 2010.06.03 18:47:42.
