data_PCOD9262596
_publ_section_title
;
Structure prediction by ZEFSAII (Michael W. Deem and Ramdas Pophale) SiO2 
 PCOD9262596
Probable space group: C 2/C
;
_chemical_formula_sum "Si O2"
_cell_formula_units_Z 48
_cell_length_a 18.481860
_cell_length_b 8.908296
_cell_length_c 19.246136
_cell_angle_alpha 90.000000
_cell_angle_beta 126.624694
_cell_angle_gamma 90.000000
_cell_volume 2543.089298
_symmetry_space_group_name_H-M "C 2/C"
_symmetry_group_IT_number 15
_symmetry_cell_setting 'monoclinic'
loop_
_space_group_symop_operation_xyz
x,y,z
-x,y,1/2-z
-x,-y,-z
x,-y,1/2+z
1/2+x,1/2+y,z
1/2-x,1/2+y,1/2-z
1/2-x,1/2-y,-z
1/2+x,1/2-y,1/2+z
loop_
_atom_site_type_symbol
_atom_site_label
_atom_site_fract_x
_atom_site_fract_y
_atom_site_fract_z
Si Si1 0.034661 0.593960 0.123379
Si Si2 0.080457 0.335934 0.245654
Si Si3 0.241936 0.725140 0.076584
Si Si4 0.143208 0.559508 0.557136
Si Si5 0.673601 0.689077 0.177179
Si Si6 0.347276 0.336988 0.350279
O O1 0.064914 0.505842 0.209599
O O2 0.091906 0.518569 0.093049
O O3 0.063699 0.767208 0.133377
O O4 0.929961 0.568907 0.046198
O O5 0.171205 0.302417 0.339511
O O6 0.092606 0.241667 0.181623
O O7 0.000000 0.291790 0.250000
O O8 0.225910 0.548612 0.084117
O O9 0.158899 0.801359 0.070871
O O10 0.250000 0.750000 0.000000
O O11 0.168129 0.722185 0.601444
O O12 0.669863 0.511535 0.169609
O O13 0.765360 0.746139 0.266476
#
# Coordination Sequence:
#
# PCOD9262596 Si02
#       6
#     8   8   8   8   8   8
#     4   9  18  33  53  77 105 140 182 226 274 326
#     4  10  19  33  54  79 108 145 183 222 274 332
#     4  10  19  33  54  79 108 145 186 228 277 329
#     4   9  18  33  53  78 108 141 180 228 275 324
#     4  10  19  34  56  81 109 144 189 232 276 332
#     4  10  19  34  56  80 106 143 189 231 277 333
#
# _framework density 18.874680999999999
#
# number of rings (size 3 to 8) (size 9 to 14) (size 15 to 20)
#    0.000    2.333    0.000    6.000    0.000    2.000 
#    0.000    1.667    0.000    2.000    0.000    0.000 
#    0.000    0.000    0.000    0.000    0.000    0.000 
#
# Total GULP energy -133687.931768 kJ/mol
# GULP energy per Si atom -5570.330490 kJ/mol
# Density = 1.883172 g / cm^3
# Si number density = 18.874681 Si / 1000 Ang^3
#
#
#
# Elastic Constant Matrix: (Units=GPa)
#
#
# Indices 1 2 3 4 5 6 
#
# 1 50.8834 7.4388 28.8919 0.0000 -13.7724 0.0000
# 2 7.4388 132.9867 47.9383 0.0000 -15.4416 0.0000
# 3 28.8919 47.9383 100.7852 0.0000 -2.3698 0.0000
# 4 0.0000 0.0000 0.0000 21.4249 0.0000 3.2824
# 5 -13.7724 -15.4416 -2.3698 0.0000 18.8858 0.0000
# 6 0.0000 0.0000 0.0000 3.2824 0.0000 15.1659
#
#
#
# Elastic Compliance Matrix: (Units=1/GPa)
#
#
# Indices 1 2 3 4 5 6 
#
# 1 0.032430 0.005309 -0.011197 0.000000 0.026585 0.000000
# 2 0.005309 0.010939 -0.006443 0.000000 0.012007 0.000000
# 3 -0.011197 -0.006443 0.015927 0.000000 -0.011434 0.000000
# 4 0.000000 0.000000 0.000000 0.048275 0.000000 -0.010448
# 5 0.026585 0.012007 -0.011434 0.000000 0.080720 0.000000
# 6 0.000000 0.000000 0.000000 -0.010448 0.000000 0.068199
#
#
# Mechanical properties :
#
#
# Convention : Reuss Voigt Hill
#
# Bulk Modulus (GPa) = 28.87208 50.35480 39.61344
# Shear Modulus (GPa) = 17.08255 24.45443 20.76849
#
# Velocity S-wave (km/s) = 3.01167 3.60338 3.32073
# Velocity P-wave (km/s) = 5.23674 6.63693 5.97797
#
# Compressibility (1/GPa) = 0.03463554
#
# Stress axis : x y z
#
# Youngs Moduli (GPa) = 30.83579 91.41369 62.78450
#
# Poissons Ratio (x) = -0.48532 0.70298
# Poissons Ratio (y) = -0.16371 0.40451
# Poissons Ratio (z) = 0.34526 0.58896
#
# Static dielectric constant tensor:
#      x y z
#    x 1.693740 0.000000 0.019570 
#    y 0.000000 1.688590 0.000000 
#    z 0.019570 0.000000 1.689190 
# 
# From -- ./inp_files/209318.got.cif
#   From: 2010.05.17/outbox.cif.g08.bks.cpg/sg15_105_cif.got.tgz:209318.got - 2010.06.03 18:47:42.
