data_PCOD9262772
_publ_section_title
;
Structure prediction by ZEFSAII (Michael W. Deem and Ramdas Pophale) SiO2 
 PCOD9262772
Probable space group: C 2/C
;
_chemical_formula_sum "Si O2"
_cell_formula_units_Z 40
_cell_length_a 27.408002
_cell_length_b 7.397525
_cell_length_c 18.989936
_cell_angle_alpha 90.000000
_cell_angle_beta 30.009919
_cell_angle_gamma 90.000000
_cell_volume 1925.695085
_symmetry_space_group_name_H-M "C 2/C"
_symmetry_group_IT_number 15
_symmetry_cell_setting 'monoclinic'
loop_
_space_group_symop_operation_xyz
x,y,z
-x,y,1/2-z
-x,-y,-z
x,-y,1/2+z
1/2+x,1/2+y,z
1/2-x,1/2+y,1/2-z
1/2-x,1/2-y,-z
1/2+x,1/2-y,1/2+z
loop_
_atom_site_type_symbol
_atom_site_label
_atom_site_fract_x
_atom_site_fract_y
_atom_site_fract_z
Si Si1 0.552724 0.195766 0.945883
Si Si2 0.344531 0.263207 0.211447
Si Si3 0.390647 0.232244 0.890558
Si Si4 0.168322 0.502273 0.406697
Si Si5 0.687032 0.921834 0.157348
O O1 0.610064 0.168095 0.946723
O O2 0.629655 0.202299 0.786396
O O3 0.457753 0.319322 0.067437
O O4 0.500000 0.000000 0.000000
O O5 0.271633 0.429253 0.303153
O O6 0.321804 0.145831 0.169289
O O7 0.326938 0.126357 0.298298
O O8 0.500000 0.309734 0.750000
O O9 0.361370 0.122827 0.856788
O O10 0.301241 0.371328 0.013224
O O11 0.388097 0.097560 0.960002
#
# Coordination Sequence:
#
# PCOD9262772 Si02
#       5
#     8   8   8   8   8
#     4   8  16  33  53  74  99 130 165 208 252 301
#     4  10  19  35  54  78 105 130 167 216 253 300
#     4  11  20  35  54  73 102 143 173 204 251 303
#     4  10  19  33  56  76 100 136 173 204 254 307
#     4   9  20  34  52  78 103 130 173 211 251 302
#
# _framework density 20.771719999999998
#
# number of rings (size 3 to 8) (size 9 to 14) (size 15 to 20)
#    0.000    2.800    0.000    6.000    0.000    0.800 
#    0.000    9.000    0.000    0.000    0.000    0.000 
#    0.000    0.000    0.000    0.000    0.000    0.000 
#
# Total GULP energy -111568.398579 kJ/mol
# GULP energy per Si atom -5578.419929 kJ/mol
# Density = 2.072444 g / cm^3
# Si number density = 20.771720 Si / 1000 Ang^3
#
#
#
# Elastic Constant Matrix: (Units=GPa)
#
#
# Indices 1 2 3 4 5 6 
#
# 1 42.3871 4.4794 23.4270 0.0062 -0.3586 -0.0012
# 2 4.4794 41.0331 29.3368 0.0131 -6.8701 -0.0038
# 3 23.4270 29.3368 126.3253 0.0135 -24.1735 -0.0022
# 4 0.0062 0.0131 0.0135 26.0960 -0.0031 -11.4342
# 5 -0.3586 -6.8701 -24.1735 -0.0031 45.7935 -0.0008
# 6 -0.0012 -0.0038 -0.0022 -11.4342 -0.0008 15.6712
#
#
#
# Elastic Compliance Matrix: (Units=1/GPa)
#
#
# Indices 1 2 3 4 5 6 
#
# 1 0.026589 0.000650 -0.005588 -0.000005 -0.002644 -0.000003
# 2 0.000650 0.029271 -0.006760 -0.000013 0.000828 -0.000003
# 3 -0.005588 -0.006760 0.011479 -0.000001 0.005002 -0.000001
# 4 -0.000005 -0.000013 -0.000001 0.056328 0.000002 0.041098
# 5 -0.002644 0.000828 0.005002 0.000002 0.024581 0.000003
# 6 -0.000003 -0.000003 -0.000001 0.041098 0.000003 0.093798
#
#
# Mechanical properties :
#
#
# Convention : Reuss Voigt Hill
#
# Bulk Modulus (GPa) = 22.75614 36.02575 29.39095
# Shear Modulus (GPa) = 17.85139 27.67896 22.76517
#
# Velocity S-wave (km/s) = 2.93475 3.65434 3.31413
# Velocity P-wave (km/s) = 4.73949 5.93186 5.36888
#
# Compressibility (1/GPa) = 0.04394419
#
# Stress axis : x y z
#
# Youngs Moduli (GPa) = 37.60900 34.16333 87.11329
#
# Poissons Ratio (x) = -0.02220 0.48677
# Poissons Ratio (y) = -0.02444 0.58886
# Poissons Ratio (z) = 0.21015 0.23093
#
# Static dielectric constant tensor:
#      x y z
#    x 1.779360 0.000000 -0.057250 
#    y 0.000000 1.780090 0.000000 
#    z -0.057250 0.000000 1.800150 
# 
# From -- ./inp_files/208873.got.cif
#   From: 2010.05.17/outbox.cif.g08.bks.cpg/sg15_105_cif.got.tgz:208873.got - 2010.06.03 18:47:42.
