data_PCOD9262928
_publ_section_title
;
Structure prediction by ZEFSAII (Michael W. Deem and Ramdas Pophale) SiO2 
 PCOD9262928
Probable space group: C 2/C
;
_chemical_formula_sum "Si O2"
_cell_formula_units_Z 40
_cell_length_a 31.174670
_cell_length_b 9.056145
_cell_length_c 8.843880
_cell_angle_alpha 90.000000
_cell_angle_beta 142.180273
_cell_angle_gamma 90.000000
_cell_volume 1531.000720
_symmetry_space_group_name_H-M "C 2/C"
_symmetry_group_IT_number 15
_symmetry_cell_setting 'monoclinic'
loop_
_space_group_symop_operation_xyz
x,y,z
-x,y,1/2-z
-x,-y,-z
x,-y,1/2+z
1/2+x,1/2+y,z
1/2-x,1/2+y,1/2-z
1/2-x,1/2-y,-z
1/2+x,1/2-y,1/2+z
loop_
_atom_site_type_symbol
_atom_site_label
_atom_site_fract_x
_atom_site_fract_y
_atom_site_fract_z
Si Si1 0.284304 0.518626 0.095734
Si Si2 0.000000 0.117365 0.250000
Si Si3 0.876363 0.865325 0.593064
Si Si4 0.500000 0.086141 0.250000
Si Si5 0.422668 0.846045 0.827548
Si Si6 0.184552 0.431035 0.553397
O O1 0.316310 0.408296 0.307566
O O2 0.235909 0.623438 0.064216
O O3 0.348340 0.583438 0.177337
O O4 0.231074 0.444485 0.830937
O O5 0.053501 0.057841 0.272686
O O6 0.055522 0.210030 0.507608
O O7 0.877975 0.686804 0.600284
O O8 0.543007 0.173307 0.242894
O O9 0.547020 0.980055 0.485415
O O10 0.345933 0.908206 0.575596
#
# Coordination Sequence:
#
# PCOD9262928 Si02
#       6
#     8   4   8   4   8   8
#     4  10  24  40  61  91 124 162 211 250 297 380
#     4  11  24  40  64  91 128 165 204 252 310 365
#     4  11  23  42  62  86 122 167 207 255 307 358
#     4   9  16  28  46  79 130 153 174 228 298 357
#     4  10  19  33  57  94 126 155 194 247 303 370
#     4  11  20  38  66  93 126 157 198 261 318 359
#
# _framework density 26.126702999999999
#
# number of rings (size 3 to 8) (size 9 to 14) (size 15 to 20)
#    0.000    1.600    0.000    7.200    0.000    2.400 
#    0.000    8.000    0.000    2.400    0.000    0.000 
#    0.000    0.000    0.000    0.000    0.000    0.000 
#
# Total GULP energy -111773.853783 kJ/mol
# GULP energy per Si atom -5588.692689 kJ/mol
# Density = 2.606724 g / cm^3
# Si number density = 26.126703 Si / 1000 Ang^3
#
#
#
# Elastic Constant Matrix: (Units=GPa)
#
#
# Indices 1 2 3 4 5 6 
#
# 1 215.5161 6.7108 26.8580 0.0000 -14.6232 0.0000
# 2 6.7108 36.2520 28.6256 0.0000 -7.9057 0.0000
# 3 26.8580 28.6256 101.9444 0.0000 -14.0304 0.0000
# 4 0.0000 0.0000 0.0000 31.9030 0.0000 5.0297
# 5 -14.6232 -7.9057 -14.0304 0.0000 48.1692 0.0000
# 6 0.0000 0.0000 0.0000 5.0297 0.0000 12.4073
#
#
#
# Elastic Compliance Matrix: (Units=1/GPa)
#
#
# Indices 1 2 3 4 5 6 
#
# 1 0.004860 0.000308 -0.001205 0.000000 0.001175 0.000000
# 2 0.000308 0.035895 -0.009727 0.000000 0.003152 0.000000
# 3 -0.001205 -0.009727 0.013114 0.000000 0.001857 0.000000
# 4 0.000000 0.000000 0.000000 0.033485 0.000000 -0.013574
# 5 0.001175 0.003152 0.001857 0.000000 0.022175 0.000000
# 6 0.000000 0.000000 0.000000 -0.013574 0.000000 0.086100
#
#
# Mechanical properties :
#
#
# Convention : Reuss Voigt Hill
#
# Bulk Modulus (GPa) = 30.65425 53.12237 41.88831
# Shear Modulus (GPa) = 21.95373 37.93044 29.94209
#
# Velocity S-wave (km/s) = 2.90190 3.81437 3.38898
# Velocity P-wave (km/s) = 4.79442 6.30682 5.60189
#
# Compressibility (1/GPa) = 0.03262190
#
# Stress axis : x y z
#
# Youngs Moduli (GPa) = 205.74586 27.85865 76.25617
#
# Poissons Ratio (x) = -0.00859 0.09192
# Poissons Ratio (y) = -0.06343 0.74173
# Poissons Ratio (z) = 0.24800 0.27097
#
# Static dielectric constant tensor:
#      x y z
#    x 2.129700 0.000000 0.063340 
#    y 0.000000 2.111090 0.000000 
#    z 0.063340 0.000000 1.974200 
# 
# From -- ./inp_files/54086.got.cif
#   From: 2010.05.17/outbox.cif.g08.bks.cpg/sg15_28_cif.got.tgz:54086.got - 2010.06.03 18:47:42.
