data_PCOD9262886
_publ_section_title
;
Structure prediction by ZEFSAII (Michael W. Deem and Ramdas Pophale) SiO2 
 PCOD9262886
Probable space group: C 2/C
;
_chemical_formula_sum "Si O2"
_cell_formula_units_Z 48
_cell_length_a 18.986171
_cell_length_b 7.416125
_cell_length_c 18.955381
_cell_angle_alpha 90.000000
_cell_angle_beta 72.024644
_cell_angle_gamma 90.000000
_cell_volume 2538.714848
_symmetry_space_group_name_H-M "C 2/C"
_symmetry_group_IT_number 15
_symmetry_cell_setting 'monoclinic'
loop_
_space_group_symop_operation_xyz
x,y,z
-x,y,1/2-z
-x,-y,-z
x,-y,1/2+z
1/2+x,1/2+y,z
1/2-x,1/2+y,1/2-z
1/2-x,1/2-y,-z
1/2+x,1/2-y,1/2+z
loop_
_atom_site_type_symbol
_atom_site_label
_atom_site_fract_x
_atom_site_fract_y
_atom_site_fract_z
Si Si1 0.493377 0.236386 0.835865
Si Si2 0.268778 0.578344 0.543785
Si Si3 0.374457 0.476471 0.395708
Si Si4 0.249898 0.339608 0.835035
Si Si5 0.847723 0.386175 0.209076
Si Si6 0.620155 0.075083 0.150529
O O1 0.500000 0.276598 0.750000
O O2 0.445415 0.396358 0.883277
O O3 0.575903 0.204972 0.837466
O O4 0.445849 0.052649 0.856161
O O5 0.250000 0.750000 0.500000
O O6 0.329950 0.465385 0.483258
O O7 0.288072 0.674767 0.611469
O O8 0.194387 0.469561 0.583702
O O9 0.317886 0.579291 0.359794
O O10 0.394736 0.285095 0.355742
O O11 0.190744 0.491187 0.836821
O O12 0.288346 0.260866 0.753450
O O13 0.865850 0.509074 0.273132
#
# Coordination Sequence:
#
# PCOD9262886 Si02
#       6
#     8   8   8   8   8   8
#     4  10  19  36  51  81 117 139 186 234 279 332
#     4   9  17  34  56  80 110 144 193 232 269 339
#     4  11  19  34  60  80 108 149 187 233 280 335
#     4  10  19  35  56  78 111 147 182 235 286 325
#     4  10  20  36  52  84 116 140 190 241 281 341
#     4  10  19  33  57  84 105 148 189 232 282 330
#
# _framework density 18.907205999999999
#
# number of rings (size 3 to 8) (size 9 to 14) (size 15 to 20)
#    0.000    2.000    6.667    1.500    0.000    2.000 
#    3.000    0.833    0.000    1.000    0.000    0.000 
#    0.000    0.000    0.000    0.000    0.000    0.000 
#
# Total GULP energy -133844.637159 kJ/mol
# GULP energy per Si atom -5576.859882 kJ/mol
# Density = 1.886417 g / cm^3
# Si number density = 18.907206 Si / 1000 Ang^3
#
#
#
# Elastic Constant Matrix: (Units=GPa)
#
#
# Indices 1 2 3 4 5 6 
#
# 1 60.8502 -0.7737 8.0344 0.0000 -13.2164 0.0000
# 2 -0.7737 49.2211 -7.1547 0.0000 -0.6285 -0.0001
# 3 8.0344 -7.1547 45.8133 0.0000 -21.5694 0.0000
# 4 0.0000 0.0000 0.0000 19.0420 0.0000 1.9589
# 5 -13.2164 -0.6285 -21.5694 0.0000 14.6060 0.0000
# 6 0.0000 -0.0001 0.0000 1.9589 0.0000 16.8611
#
#
#
# Elastic Compliance Matrix: (Units=1/GPa)
#
#
# Indices 1 2 3 4 5 6 
#
# 1 0.026308 0.004723 0.024373 0.000000 0.060001 0.000000
# 2 0.004723 0.023312 0.017382 0.000000 0.030945 0.000000
# 3 0.024373 0.017382 0.101741 0.000000 0.173049 0.000000
# 4 0.000000 0.000000 0.000000 0.053151 0.000000 -0.006175
# 5 0.060001 0.030945 0.173049 0.000000 0.379640 0.000000
# 6 0.000000 0.000000 0.000000 -0.006175 0.000000 0.060025
#
#
# Mechanical properties :
#
#
# Convention : Reuss Voigt Hill
#
# Bulk Modulus (GPa) = 4.09307 17.34408 10.71857
# Shear Modulus (GPa) = 7.90312 20.48707 14.19509
#
# Velocity S-wave (km/s) = 2.04671 3.29532 2.74300
# Velocity P-wave (km/s) = 2.78476 4.86539 3.96402
#
# Compressibility (1/GPa) = 0.24431568
#
# Stress axis : x y z
#
# Youngs Moduli (GPa) = 38.01164 42.89558 9.82887
#
# Poissons Ratio (x) = -0.20257 -0.23956
# Poissons Ratio (y) = -0.17951 -0.17084
# Poissons Ratio (z) = -0.92646 -0.74560
#
# Static dielectric constant tensor:
#      x y z
#    x 1.647050 0.000000 0.011240 
#    y 0.000000 1.660680 0.000000 
#    z 0.011240 0.000000 1.722620 
# 
# From -- ./inp_files/246827.got.cif
#   From: 2010.05.17/outbox.cif.g08.bks.cpg/sg15_124_cif.got.tgz:246827.got - 2010.06.03 18:47:42.
