data_PCOD9262207
_publ_section_title
;
Structure prediction by ZEFSAII (Michael W. Deem and Ramdas Pophale) SiO2 
 PCOD9262207
Probable space group: C 2/C
;
_chemical_formula_sum "Si O2"
_cell_formula_units_Z 40
_cell_length_a 11.357070
_cell_length_b 26.989372
_cell_length_c 5.721681
_cell_angle_alpha 90.000000
_cell_angle_beta 77.446581
_cell_angle_gamma 90.000000
_cell_volume 1711.883759
_symmetry_space_group_name_H-M "C 2/C"
_symmetry_group_IT_number 15
_symmetry_cell_setting 'monoclinic'
loop_
_space_group_symop_operation_xyz
x,y,z
-x,y,1/2-z
-x,-y,-z
x,-y,1/2+z
1/2+x,1/2+y,z
1/2-x,1/2+y,1/2-z
1/2-x,1/2-y,-z
1/2+x,1/2-y,1/2+z
loop_
_atom_site_type_symbol
_atom_site_label
_atom_site_fract_x
_atom_site_fract_y
_atom_site_fract_z
Si Si1 0.367000 0.313372 0.040596
Si Si2 0.637210 0.981539 0.421331
Si Si3 0.182776 0.717749 0.224121
Si Si4 0.794417 0.374474 0.026883
Si Si5 0.541037 0.405603 0.977228
O O1 0.400477 0.258315 0.114787
O O2 0.272391 0.343555 0.242254
O O3 0.477835 0.351127 0.993518
O O4 0.290262 0.300682 0.845870
O O5 0.636161 0.922122 0.414448
O O6 0.500000 0.000000 0.500000
O O7 0.691644 0.000585 0.149793
O O8 0.250000 0.750000 0.000000
O O9 0.132245 0.667056 0.142629
O O10 0.683615 0.397196 0.923838
O O11 0.500000 0.426756 0.250000
O O12 0.500000 0.430347 0.750000
#
# Coordination Sequence:
#
# PCOD9262207 Si02
#       5
#     8   8   8   8   8
#     4   9  18  32  55  89 134 168 211 253 311 386
#     4  10  24  45  71  92 121 156 220 279 335 385
#     4   9  17  31  55  88 124 173 210 250 302 383
#     4  10  20  35  66  87 124 174 209 265 334 379
#     4  10  19  32  55  88 124 168 207 248 312 377
#
# _framework density 23.366073
#
# number of rings (size 3 to 8) (size 9 to 14) (size 15 to 20)
#    0.000    2.400    2.000    0.000    2.800    0.000 
#    0.000    0.000   30.800   15.600    0.000    0.000 
#    0.000    0.000    0.000    0.000    0.000    0.000 
#
# Total GULP energy -111468.552482 kJ/mol
# GULP energy per Si atom -5573.427624 kJ/mol
# Density = 2.331289 g / cm^3
# Si number density = 23.366073 Si / 1000 Ang^3
#
#
#
# Elastic Constant Matrix: (Units=GPa)
#
#
# Indices 1 2 3 4 5 6 
#
# 1 69.1890 19.3452 10.5250 0.0000 4.5098 0.0000
# 2 19.3452 155.6295 29.5915 0.0000 0.6700 0.0000
# 3 10.5250 29.5915 151.6198 0.0000 28.3979 0.0000
# 4 0.0000 0.0000 0.0000 20.4241 0.0000 11.2136
# 5 4.5098 0.6700 28.3979 0.0000 22.0547 0.0000
# 6 0.0000 0.0000 0.0000 11.2136 0.0000 29.7161
#
#
#
# Elastic Compliance Matrix: (Units=1/GPa)
#
#
# Indices 1 2 3 4 5 6 
#
# 1 0.015178 -0.001844 -0.000162 0.000000 -0.002839 0.000000
# 2 -0.001844 0.006961 -0.001663 0.000000 0.002306 0.000000
# 3 -0.000162 -0.001663 0.009113 0.000000 -0.011651 0.000000
# 4 0.000000 0.000000 0.000000 0.061757 0.000000 -0.023304
# 5 -0.002839 0.002306 -0.011651 0.000000 0.060854 0.000000
# 6 0.000000 0.000000 0.000000 -0.023304 0.000000 0.042446
#
#
# Mechanical properties :
#
#
# Convention : Reuss Voigt Hill
#
# Bulk Modulus (GPa) = 41.81297 55.04020 48.42658
# Shear Modulus (GPa) = 23.62753 35.57075 29.59914
#
# Velocity S-wave (km/s) = 3.18337 3.90593 3.56301
# Velocity P-wave (km/s) = 5.60762 6.62936 6.13978
#
# Compressibility (1/GPa) = 0.02391602
#
# Stress axis : x y z
#
# Youngs Moduli (GPa) = 65.88333 143.66017 109.72942
#
# Poissons Ratio (x) = 0.26486 0.01778
# Poissons Ratio (y) = 0.12147 0.18243
# Poissons Ratio (z) = 0.01068 0.23884
#
# Static dielectric constant tensor:
#      x y z
#    x 1.860100 0.000000 0.018750 
#    y 0.000000 1.866460 0.000000 
#    z 0.018750 0.000000 2.057300 
# 
# From -- ./inp_files/5019.got.cif
#   From: 2010.05.17/outbox.cif.g08.bks.cpg/sg15_3_cif.got.tgz:5019.got - 2010.06.03 18:47:42.
