data_PCOD9262509
_publ_section_title
;
Structure prediction by ZEFSAII (Michael W. Deem and Ramdas Pophale) SiO2 
 PCOD9262509
Probable space group: C 2/C
;
_chemical_formula_sum "Si O2"
_cell_formula_units_Z 56
_cell_length_a 13.191113
_cell_length_b 13.954253
_cell_length_c 30.309379
_cell_angle_alpha 90.000000
_cell_angle_beta 28.296786
_cell_angle_gamma 90.000000
_cell_volume 2644.715609
_symmetry_space_group_name_H-M "C 2/C"
_symmetry_group_IT_number 15
_symmetry_cell_setting 'monoclinic'
loop_
_space_group_symop_operation_xyz
x,y,z
-x,y,1/2-z
-x,-y,-z
x,-y,1/2+z
1/2+x,1/2+y,z
1/2-x,1/2+y,1/2-z
1/2-x,1/2-y,-z
1/2+x,1/2-y,1/2+z
loop_
_atom_site_type_symbol
_atom_site_label
_atom_site_fract_x
_atom_site_fract_y
_atom_site_fract_z
Si Si1 0.662265 0.590230 0.724567
Si Si2 0.792989 0.281953 0.761545
Si Si3 0.834909 0.126631 0.277746
Si Si4 0.338712 0.113436 0.494351
Si Si5 0.738100 0.684102 0.436597
Si Si6 0.557900 0.308094 0.527699
Si Si7 0.654610 0.100194 0.510613
O O1 0.500000 0.629057 0.750000
O O2 0.668925 0.668715 0.759753
O O3 0.598844 0.482372 0.758439
O O4 0.902452 0.586788 0.614633
O O5 0.672355 0.319159 0.765166
O O6 0.642877 0.295888 0.861469
O O7 0.025205 0.331795 0.674419
O O8 0.594555 0.123485 0.388980
O O9 0.000000 0.166084 0.250000
O O10 0.280558 0.201192 0.548260
O O11 0.236093 0.134954 0.485468
O O12 0.280304 0.005347 0.531487
O O13 0.546590 0.656230 0.477472
O O14 0.665202 0.202101 0.480999
O O15 0.723690 0.376023 0.490058
#
# Coordination Sequence:
#
# PCOD9262509 Si02
#       7
#     8   8   8   8   8   8   8
#     4   9  17  33  54  75 104 139 170 208 260 306
#     4  10  19  33  53  77 105 133 172 216 257 308
#     4   9  19  34  54  76 102 138 173 212 258 302
#     4   9  20  36  53  75 104 136 177 214 249 308
#     4  10  20  35  54  75 101 139 177 210 256 308
#     4  10  20  33  53  78 105 134 169 215 263 304
#     4   9  19  34  50  78 107 133 171 216 257 300
#
# _framework density 21.174299000000001
#
# number of rings (size 3 to 8) (size 9 to 14) (size 15 to 20)
#    0.000    2.571    0.000    2.143    0.000    5.714 
#    0.000    0.000    0.000    7.714    0.000    0.000 
#    0.000    0.000    0.000    0.000    0.000    0.000 
#
# Total GULP energy -156188.425021 kJ/mol
# GULP energy per Si atom -5578.158036 kJ/mol
# Density = 2.112610 g / cm^3
# Si number density = 21.174299 Si / 1000 Ang^3
#
#
#
# Elastic Constant Matrix: (Units=GPa)
#
#
# Indices 1 2 3 4 5 6 
#
# 1 132.7549 13.5972 19.5391 -0.0007 -38.2410 -0.0022
# 2 13.5972 51.0531 1.0387 -0.0060 -3.8495 0.0026
# 3 19.5391 1.0387 71.5220 -0.0098 -10.8200 0.0041
# 4 -0.0007 -0.0060 -0.0098 23.0096 0.0032 -6.7156
# 5 -38.2410 -3.8495 -10.8200 0.0032 29.3553 -0.0011
# 6 -0.0022 0.0026 0.0041 -6.7156 -0.0011 20.9252
#
#
#
# Elastic Compliance Matrix: (Units=1/GPa)
#
#
# Indices 1 2 3 4 5 6 
#
# 1 0.012341 -0.002103 -0.001007 -0.000002 0.015429 0.000002
# 2 -0.002103 0.020142 0.000283 0.000005 0.000006 -0.000001
# 3 -0.001007 0.000283 0.014890 0.000006 0.004214 -0.000001
# 4 -0.000002 0.000005 0.000006 0.047952 -0.000005 0.015389
# 5 0.015429 0.000006 0.004214 -0.000005 0.055719 0.000002
# 6 0.000002 -0.000001 -0.000001 0.015389 0.000002 0.052728
#
#
# Mechanical properties :
#
#
# Convention : Reuss Voigt Hill
#
# Bulk Modulus (GPa) = 23.96936 35.96444 29.96690
# Shear Modulus (GPa) = 22.38818 29.40168 25.89493
#
# Velocity S-wave (km/s) = 3.25519 3.73037 3.50085
# Velocity P-wave (km/s) = 5.04707 5.96457 5.52490
#
# Compressibility (1/GPa) = 0.04171993
#
# Stress axis : x y z
#
# Youngs Moduli (GPa) = 81.03211 49.64692 67.15859
#
# Poissons Ratio (x) = 0.10440 0.06761
# Poissons Ratio (y) = 0.17040 -0.01900
# Poissons Ratio (z) = 0.08157 -0.01405
#
# Static dielectric constant tensor:
#      x y z
#    x 1.752500 0.000000 -0.026090 
#    y 0.000000 1.786660 0.000000 
#    z -0.026090 0.000000 1.861170 
# 
# From -- ./inp_files/311324.got.cif
#   From: 2010.05.17/outbox.cif.g08.bks.cpg/sg15_156_cif.got.tgz:311324.got - 2010.06.03 18:47:42.
