data_PCOD9262961
_publ_section_title
;
Structure prediction by ZEFSAII (Michael W. Deem and Ramdas Pophale) SiO2 
 PCOD9262961
Probable space group: C 2/C
;
_chemical_formula_sum "Si O2"
_cell_formula_units_Z 60
_cell_length_a 9.522695
_cell_length_b 18.479393
_cell_length_c 21.446617
_cell_angle_alpha 90.000000
_cell_angle_beta 123.904515
_cell_angle_gamma 90.000000
_cell_volume 3132.332769
_symmetry_space_group_name_H-M "C 2/C"
_symmetry_group_IT_number 15
_symmetry_cell_setting 'monoclinic'
loop_
_space_group_symop_operation_xyz
x,y,z
-x,y,1/2-z
-x,-y,-z
x,-y,1/2+z
1/2+x,1/2+y,z
1/2-x,1/2+y,1/2-z
1/2-x,1/2-y,-z
1/2+x,1/2-y,1/2+z
loop_
_atom_site_type_symbol
_atom_site_label
_atom_site_fract_x
_atom_site_fract_y
_atom_site_fract_z
Si Si1 0.471449 0.824479 0.383280
Si Si2 0.186574 0.551713 0.591172
Si Si3 0.178562 0.767530 0.068835
Si Si4 0.786297 0.212230 0.777108
Si Si5 0.005051 0.357694 0.684027
Si Si6 0.440466 0.102662 0.436616
Si Si7 0.814978 0.775509 0.947493
Si Si8 0.500000 0.600352 0.750000
O O1 0.448942 0.908891 0.395087
O O2 0.659788 0.792756 0.430515
O O3 0.395216 0.801125 0.298260
O O4 0.347181 0.786140 0.403081
O O5 0.161476 0.467921 0.568345
O O6 0.362728 0.560528 0.671822
O O7 0.128737 0.591931 0.512439
O O8 0.210483 0.790137 0.148059
O O9 0.134771 0.680784 0.061894
O O10 0.004215 0.804740 0.004143
O O11 0.868973 0.289001 0.778701
O O12 0.899913 0.151102 0.773322
O O13 0.064078 0.401878 0.639065
O O14 0.000000 0.394295 0.750000
O O15 0.824380 0.326904 0.616949
O O16 0.750000 0.750000 0.000000
#
# Coordination Sequence:
#
# PCOD9262961 Si02
#       8
#     8   8   8   8   8   8   8   4
#     4  11  21  38  58  87 121 151 190 251 303 354
#     4  10  21  40  59  85 119 163 204 237 302 374
#     4  11  23  35  59  94 119 148 195 256 311 343
#     4  10  19  33  58  86 116 148 191 248 293 347
#     4  11  19  35  56  89 114 150 201 253 295 347
#     4  10  22  37  61  85 118 162 197 246 301 371
#     4  12  20  32  59  88 114 151 197 244 293 359
#     4  10  20  36  62  86 114 156 206 244 274 364
#
# _framework density 19.155052999999999
#
# number of rings (size 3 to 8) (size 9 to 14) (size 15 to 20)
#    0.000    1.333    6.000    1.600    1.867    0.000 
#    4.800    2.667    0.000    0.800    0.000    0.000 
#    0.000    0.000    0.000    0.000    0.000    0.000 
#
# Total GULP energy -167045.959977 kJ/mol
# GULP energy per Si atom -5568.198666 kJ/mol
# Density = 1.911146 g / cm^3
# Si number density = 19.155053 Si / 1000 Ang^3
#
#
#
# Elastic Constant Matrix: (Units=GPa)
#
#
# Indices 1 2 3 4 5 6 
#
# 1 71.2747 11.8122 17.7697 0.0000 8.3301 0.0000
# 2 11.8122 40.8801 20.4826 0.0000 4.2486 0.0000
# 3 17.7697 20.4826 135.4615 0.0000 -0.1934 0.0000
# 4 0.0000 0.0000 0.0000 22.5091 0.0000 1.5744
# 5 8.3301 4.2486 -0.1934 0.0000 43.4433 0.0000
# 6 0.0000 0.0000 0.0000 1.5744 0.0000 6.4994
#
#
#
# Elastic Compliance Matrix: (Units=1/GPa)
#
#
# Indices 1 2 3 4 5 6 
#
# 1 0.015269 -0.003393 -0.001494 0.000000 -0.002603 0.000000
# 2 -0.003393 0.027519 -0.003719 0.000000 -0.002057 0.000000
# 3 -0.001494 -0.003719 0.008141 0.000000 0.000686 0.000000
# 4 0.000000 0.000000 0.000000 0.045192 0.000000 -0.010947
# 5 -0.002603 -0.002057 0.000686 0.000000 0.023722 0.000000
# 6 0.000000 0.000000 0.000000 -0.010947 0.000000 0.156511
#
#
# Mechanical properties :
#
#
# Convention : Reuss Voigt Hill
#
# Bulk Modulus (GPa) = 29.65725 38.63834 34.14779
# Shear Modulus (GPa) = 16.40390 27.66049 22.03219
#
# Velocity S-wave (km/s) = 2.92956 3.80416 3.39514
# Velocity P-wave (km/s) = 5.19225 6.28575 5.76499
#
# Compressibility (1/GPa) = 0.03371856
#
# Stress axis : x y z
#
# Youngs Moduli (GPa) = 65.49168 36.33803 122.82884
#
# Poissons Ratio (x) = 0.12330 0.18346
# Poissons Ratio (y) = 0.22222 0.45679
# Poissons Ratio (z) = 0.09782 0.13514
#
# Static dielectric constant tensor:
#      x y z
#    x 1.689220 0.000000 -0.007390 
#    y 0.000000 1.673970 0.000000 
#    z -0.007390 0.000000 1.752300 
# 
# From -- ./inp_files/233088.got.cif
#   From: 2010.05.17/outbox.cif.g08.bks.cpg/sg15_117_cif.got.tgz:233088.got - 2010.06.03 18:47:42.
