data_PCOD9262089
_publ_section_title
;
Structure prediction by ZEFSAII (Michael W. Deem and Ramdas Pophale) SiO2 
 PCOD9262089
Probable space group: C 2/C
;
_chemical_formula_sum "Si O2"
_cell_formula_units_Z 56
_cell_length_a 19.106413
_cell_length_b 8.123034
_cell_length_c 20.700231
_cell_angle_alpha 90.000000
_cell_angle_beta 54.035885
_cell_angle_gamma 90.000000
_cell_volume 2600.325774
_symmetry_space_group_name_H-M "C 2/C"
_symmetry_group_IT_number 15
_symmetry_cell_setting 'monoclinic'
loop_
_space_group_symop_operation_xyz
x,y,z
-x,y,1/2-z
-x,-y,-z
x,-y,1/2+z
1/2+x,1/2+y,z
1/2-x,1/2+y,1/2-z
1/2-x,1/2-y,-z
1/2+x,1/2-y,1/2+z
loop_
_atom_site_type_symbol
_atom_site_label
_atom_site_fract_x
_atom_site_fract_y
_atom_site_fract_z
Si Si1 0.652086 0.305349 0.567356
Si Si2 0.421342 0.942148 0.479200
Si Si3 0.912486 0.784927 0.763878
Si Si4 0.096869 0.706976 0.922470
Si Si5 0.866429 0.754575 0.135505
Si Si6 0.702863 0.066666 0.760038
Si Si7 0.990815 0.986711 0.603046
O O1 0.750000 0.250000 0.500000
O O2 0.603286 0.134829 0.575421
O O3 0.644514 0.354591 0.646398
O O4 0.591864 0.439040 0.560631
O O5 0.524217 0.917451 0.430925
O O6 0.378210 0.822370 0.557635
O O7 0.392099 0.125336 0.513561
O O8 0.861316 0.639160 0.758376
O O9 0.941787 0.914058 0.693212
O O10 0.000000 0.728456 0.750000
O O11 0.182431 0.679045 0.834542
O O12 0.050702 0.879448 0.933527
O O13 0.824006 0.612850 0.202154
O O14 0.797662 0.902845 0.180341
O O15 0.957108 0.829030 0.110887
#
# Coordination Sequence:
#
# PCOD9262089 Si02
#       7
#     8   8   8   8   8   8   8
#     4  10  19  32  53  80 111 146 181 214 264 335
#     4   9  18  32  54  81 108 141 177 224 282 329
#     4   9  18  35  55  75 108 150 185 218 267 336
#     4   8  16  32  52  78 105 135 174 221 276 322
#     4  11  21  34  56  84 110 139 184 241 285 319
#     4  10  19  33  55  82 109 141 186 234 278 325
#     4   9  19  35  55  79 107 144 185 226 271 321
#
# _framework density 21.535764
#
# number of rings (size 3 to 8) (size 9 to 14) (size 15 to 20)
#    0.000    2.571    0.000    3.429    0.000    3.429 
#    0.000    3.571    0.000    1.714    0.000   49.000 
#    0.000    0.000    0.000    0.000    0.000    0.000 
#
# Total GULP energy -155917.387074 kJ/mol
# GULP energy per Si atom -5568.478110 kJ/mol
# Density = 2.148675 g / cm^3
# Si number density = 21.535764 Si / 1000 Ang^3
#
#
#
# Elastic Constant Matrix: (Units=GPa)
#
#
# Indices 1 2 3 4 5 6 
#
# 1 46.4046 23.3456 26.5409 0.0000 -8.3156 0.0006
# 2 23.3456 82.7288 34.2398 0.0000 0.5560 0.0010
# 3 26.5409 34.2398 119.9772 0.0000 -18.6649 0.0000
# 4 0.0000 0.0000 0.0000 38.7099 0.0000 -8.0130
# 5 -8.3156 0.5560 -18.6649 0.0000 35.0655 0.0000
# 6 0.0006 0.0010 0.0000 -8.0130 0.0000 25.0314
#
#
#
# Elastic Compliance Matrix: (Units=1/GPa)
#
#
# Indices 1 2 3 4 5 6 
#
# 1 0.027637 -0.006358 -0.003559 0.000000 0.004761 0.000000
# 2 -0.006358 0.015375 -0.003547 0.000000 -0.003640 0.000000
# 3 -0.003559 -0.003547 0.010916 0.000000 0.005023 0.000000
# 4 0.000000 0.000000 0.000000 0.027667 0.000000 0.008857
# 5 0.004761 -0.003640 0.005023 0.000000 0.032378 0.000000
# 6 0.000000 0.000000 0.000000 0.008857 0.000000 0.042785
#
#
# Mechanical properties :
#
#
# Convention : Reuss Voigt Hill
#
# Bulk Modulus (GPa) = 37.03841 46.37369 41.70605
# Shear Modulus (GPa) = 25.94912 30.76029 28.35470
#
# Velocity S-wave (km/s) = 3.47498 3.78343 3.63248
# Velocity P-wave (km/s) = 5.77378 6.37698 6.08286
#
# Compressibility (1/GPa) = 0.02699900
#
# Stress axis : x y z
#
# Youngs Moduli (GPa) = 36.18383 65.04251 91.60941
#
# Poissons Ratio (x) = 0.41354 0.32600
# Poissons Ratio (y) = 0.23006 0.32498
# Poissons Ratio (z) = 0.12876 0.23073
#
# Static dielectric constant tensor:
#      x y z
#    x 1.807810 0.000000 -0.009860 
#    y 0.000000 1.868060 0.000000 
#    z -0.009860 0.000000 1.901200 
# 
# From -- ./inp_files/279336.got.cif
#   From: 2010.05.17/outbox.cif.g08.bks.cpg/sg15_140_cif.got.tgz:279336.got - 2010.06.03 18:47:42.
