data_PCOD9262417
_publ_section_title
;
Structure prediction by ZEFSAII (Michael W. Deem and Ramdas Pophale) SiO2 
 PCOD9262417
Probable space group: C 2/C
;
_chemical_formula_sum "Si O2"
_cell_formula_units_Z 60
_cell_length_a 11.477271
_cell_length_b 21.764682
_cell_length_c 17.226176
_cell_angle_alpha 90.000000
_cell_angle_beta 40.747592
_cell_angle_gamma 90.000000
_cell_volume 2808.743160
_symmetry_space_group_name_H-M "C 2/C"
_symmetry_group_IT_number 15
_symmetry_cell_setting 'monoclinic'
loop_
_space_group_symop_operation_xyz
x,y,z
-x,y,1/2-z
-x,-y,-z
x,-y,1/2+z
1/2+x,1/2+y,z
1/2-x,1/2+y,1/2-z
1/2-x,1/2-y,-z
1/2+x,1/2-y,1/2+z
loop_
_atom_site_type_symbol
_atom_site_label
_atom_site_fract_x
_atom_site_fract_y
_atom_site_fract_z
Si Si1 0.656882 0.445831 0.347785
Si Si2 0.262510 0.849273 0.399318
Si Si3 0.111422 0.147977 0.326118
Si Si4 0.681261 0.994992 0.503436
Si Si5 0.500000 0.559235 0.250000
Si Si6 0.107271 0.292956 0.310251
Si Si7 0.103433 0.590442 0.904481
Si Si8 0.711492 0.568873 0.401196
O O1 0.789818 0.414818 0.343611
O O2 0.725407 0.434380 0.228183
O O3 0.650022 0.516747 0.371552
O O4 0.464990 0.416282 0.459502
O O5 0.420174 0.815737 0.365985
O O6 0.243468 0.810310 0.329320
O O7 0.090764 0.858211 0.538867
O O8 0.123964 0.220726 0.309628
O O9 0.246944 0.124754 0.325159
O O10 0.116106 0.105603 0.246637
O O11 0.870990 0.018403 0.371251
O O12 0.559551 0.055687 0.556429
O O13 0.608816 0.939946 0.485550
O O14 0.670586 0.964971 0.594209
O O15 0.110816 0.336685 0.384545
#
# Coordination Sequence:
#
# PCOD9262417 Si02
#       8
#     8   8   8   8   4   8   8   8
#     4   9  17  33  54  77 103 135 176 223 273 322
#     4   9  18  32  53  76 103 137 175 219 270 319
#     4  11  22  34  53  80 108 142 176 217 269 328
#     4  11  22  35  54  80 107 140 181 229 276 316
#     4  12  22  36  58  84 110 134 176 230 274 320
#     4  10  19  33  51  76 108 142 176 215 266 325
#     4  10  21  35  53  78 107 140 180 227 272 317
#     4  10  19  34  54  78 108 142 179 219 270 328
#
# _framework density 21.361868000000001
#
# number of rings (size 3 to 8) (size 9 to 14) (size 15 to 20)
#    0.000    1.867    0.000    6.800    0.000    2.667 
#    0.000    0.667    0.000    0.000    0.000   14.933 
#    0.000    0.000    0.000    0.000    0.000    0.000 
#
# Total GULP energy -167084.381120 kJ/mol
# GULP energy per Si atom -5569.479371 kJ/mol
# Density = 2.131325 g / cm^3
# Si number density = 21.361868 Si / 1000 Ang^3
#
#
#
# Elastic Constant Matrix: (Units=GPa)
#
#
# Indices 1 2 3 4 5 6 
#
# 1 53.8391 38.7668 2.7155 0.0000 26.2042 -0.0002
# 2 38.7668 114.8948 16.8119 -0.0002 24.2221 0.0000
# 3 2.7155 16.8119 34.1050 -0.0002 15.5570 -0.0001
# 4 0.0000 -0.0002 -0.0002 19.7513 0.0000 5.8713
# 5 26.2042 24.2221 15.5570 0.0000 29.0959 0.0001
# 6 -0.0002 0.0000 -0.0001 5.8713 0.0001 18.3810
#
#
#
# Elastic Compliance Matrix: (Units=1/GPa)
#
#
# Indices 1 2 3 4 5 6 
#
# 1 0.046296 -0.009167 0.021651 0.000000 -0.045640 0.000001
# 2 -0.009167 0.012436 -0.005877 0.000000 0.001045 0.000000
# 3 0.021651 -0.005877 0.049143 0.000000 -0.040882 0.000001
# 4 0.000000 0.000000 0.000000 0.055941 0.000000 -0.017869
# 5 -0.045640 0.001045 -0.040882 0.000000 0.096462 -0.000001
# 6 0.000001 0.000000 0.000001 -0.017869 -0.000001 0.060112
#
#
# Mechanical properties :
#
#
# Convention : Reuss Voigt Hill
#
# Bulk Modulus (GPa) = 8.25837 35.49191 21.87514
# Shear Modulus (GPa) = 14.38684 23.08196 18.73440
#
# Velocity S-wave (km/s) = 2.59797 3.29070 2.96463
# Velocity P-wave (km/s) = 3.58798 5.57574 4.68842
#
# Compressibility (1/GPa) = 0.12108920
#
# Stress axis : x y z
#
# Youngs Moduli (GPa) = 21.60007 80.40960 20.34873
#
# Poissons Ratio (x) = 0.73713 -0.44058
# Poissons Ratio (y) = 0.19801 0.11960
# Poissons Ratio (z) = -0.46767 0.47260
#
# Static dielectric constant tensor:
#      x y z
#    x 1.903460 0.000000 -0.003390 
#    y 0.000000 1.798130 0.000000 
#    z -0.003390 0.000000 1.825720 
# 
# From -- ./inp_files/148095.got.cif
#   From: 2010.05.17/outbox.cif.g08.bks.cpg/sg15_75_cif.got.tgz:148095.got - 2010.06.03 18:47:42.
