data_PCOD9262545
_publ_section_title
;
Structure prediction by ZEFSAII (Michael W. Deem and Ramdas Pophale) SiO2 
 PCOD9262545
Probable space group: C 2/C
;
_chemical_formula_sum "Si O2"
_cell_formula_units_Z 44
_cell_length_a 10.712763
_cell_length_b 8.042241
_cell_length_c 19.507204
_cell_angle_alpha 90.000000
_cell_angle_beta 110.441246
_cell_angle_gamma 90.000000
_cell_volume 1574.807521
_symmetry_space_group_name_H-M "C 2/C"
_symmetry_group_IT_number 15
_symmetry_cell_setting 'monoclinic'
loop_
_space_group_symop_operation_xyz
x,y,z
-x,y,1/2-z
-x,-y,-z
x,-y,1/2+z
1/2+x,1/2+y,z
1/2-x,1/2+y,1/2-z
1/2-x,1/2-y,-z
1/2+x,1/2-y,1/2+z
loop_
_atom_site_type_symbol
_atom_site_label
_atom_site_fract_x
_atom_site_fract_y
_atom_site_fract_z
Si Si1 0.766880 0.248138 0.285051
Si Si2 0.286387 0.504492 0.914691
Si Si3 0.500000 0.545584 0.750000
Si Si4 0.321320 0.336929 0.638564
Si Si5 0.939354 0.532073 0.902885
Si Si6 0.049246 0.775955 0.470207
O O1 0.627071 0.342409 0.260773
O O2 0.788109 0.193786 0.212025
O O3 0.884789 0.377423 0.325633
O O4 0.762122 0.108517 0.343294
O O5 0.183924 0.659588 0.899774
O O6 0.323555 0.389013 0.987170
O O7 0.426263 0.603618 0.931666
O O8 0.542053 0.437182 0.825191
O O9 0.198450 0.451382 0.591919
O O10 0.977324 0.672567 0.964909
O O11 0.038754 0.375377 0.913706
#
# Coordination Sequence:
#
# PCOD9262545 Si02
#       6
#     8   8   4   8   8   8
#     4  10  19  33  53  82 111 140 179 220 267 326
#     4   9  16  27  48  77 102 134 186 221 254 322
#     4  10  22  36  52  78 116 148 168 214 280 314
#     4  10  19  33  53  82 111 140 179 220 267 326
#     4   8  15  28  48  76 106 136 176 218 264 318
#     4   8  14  26  46  76 102 134 182 220 258 314
#
# _framework density 27.939923
#
# number of rings (size 3 to 8) (size 9 to 14) (size 15 to 20)
#    0.000    2.909    0.000    2.182    0.000    0.727 
#    0.000    0.000    0.000    0.000    0.000  575.273 
#    0.000    0.000    0.000    0.000    0.000    0.000 
#
# Total GULP energy -123279.010362 kJ/mol
# GULP energy per Si atom -5603.591380 kJ/mol
# Density = 2.787633 g / cm^3
# Si number density = 27.939923 Si / 1000 Ang^3
#
#
#
# Elastic Constant Matrix: (Units=GPa)
#
#
# Indices 1 2 3 4 5 6 
#
# 1 88.9151 52.4438 59.7479 0.0000 15.7831 0.0000
# 2 52.4438 178.2399 73.7023 0.0000 12.6265 0.0000
# 3 59.7479 73.7023 149.8796 0.0000 31.2191 0.0000
# 4 0.0000 0.0000 0.0000 99.3714 0.0000 18.6054
# 5 15.7831 12.6265 31.2191 0.0000 57.3322 0.0000
# 6 0.0000 0.0000 0.0000 18.6054 0.0000 52.2336
#
#
#
# Elastic Compliance Matrix: (Units=1/GPa)
#
#
# Indices 1 2 3 4 5 6 
#
# 1 0.016375 -0.002683 -0.004954 0.000000 -0.001219 0.000000
# 2 -0.002683 0.007489 -0.002734 0.000000 0.000578 0.000000
# 3 -0.004954 -0.002734 0.010808 0.000000 -0.003919 0.000000
# 4 0.000000 0.000000 0.000000 0.010782 0.000000 -0.003841
# 5 -0.001219 0.000578 -0.003919 0.000000 0.019785 0.000000
# 6 0.000000 0.000000 0.000000 -0.003841 0.000000 0.020513
#
#
# Mechanical properties :
#
#
# Convention : Reuss Voigt Hill
#
# Bulk Modulus (GPa) = 71.78881 87.64696 79.71788
# Shear Modulus (GPa) = 44.98979 57.19681 51.09330
#
# Velocity S-wave (km/s) = 4.01712 4.52944 4.28095
# Velocity P-wave (km/s) = 6.87504 7.66761 7.28212
#
# Compressibility (1/GPa) = 0.01392975
#
# Stress axis : x y z
#
# Youngs Moduli (GPa) = 61.06986 133.52479 92.52771
#
# Poissons Ratio (x) = 0.35824 0.45841
# Poissons Ratio (y) = 0.16385 0.25293
# Poissons Ratio (z) = 0.30256 0.36500
#
# Static dielectric constant tensor:
#      x y z
#    x 2.210070 0.000000 0.108520 
#    y 0.000000 2.259660 0.000000 
#    z 0.108520 0.000000 2.115310 
# 
# From -- ./inp_files/241922.got.cif
#   From: 2010.05.17/outbox.cif.g08.bks.cpg/sg15_121_cif.got.tgz:241922.got - 2010.06.03 18:47:42.
