data_PCOD9262163
_publ_section_title
;
Structure prediction by ZEFSAII (Michael W. Deem and Ramdas Pophale) SiO2 
 PCOD9262163
Probable space group: C 2/C
;
_chemical_formula_sum "Si O2"
_cell_formula_units_Z 60
_cell_length_a 7.535334
_cell_length_b 17.581097
_cell_length_c 18.789719
_cell_angle_alpha 90.000000
_cell_angle_beta 112.880173
_cell_angle_gamma 90.000000
_cell_volume 2293.397125
_symmetry_space_group_name_H-M "C 2/C"
_symmetry_group_IT_number 15
_symmetry_cell_setting 'monoclinic'
loop_
_space_group_symop_operation_xyz
x,y,z
-x,y,1/2-z
-x,-y,-z
x,-y,1/2+z
1/2+x,1/2+y,z
1/2-x,1/2+y,1/2-z
1/2-x,1/2-y,-z
1/2+x,1/2-y,1/2+z
loop_
_atom_site_type_symbol
_atom_site_label
_atom_site_fract_x
_atom_site_fract_y
_atom_site_fract_z
Si Si1 0.287061 0.259009 0.089192
Si Si2 0.305419 0.040743 0.264319
Si Si3 0.473949 0.620096 0.943957
Si Si4 0.924066 0.048375 0.400507
Si Si5 0.084061 0.674520 0.939927
Si Si6 0.000000 0.245109 0.750000
Si Si7 0.368428 0.061268 0.438136
Si Si8 0.835053 0.624665 0.782555
O O1 0.401336 0.341285 0.098958
O O2 0.426420 0.214918 0.165958
O O3 0.069160 0.257384 0.086687
O O4 0.250000 0.250000 0.000000
O O5 0.500000 0.035636 0.250000
O O6 0.359744 0.065199 0.351880
O O7 0.160155 0.080368 0.186446
O O8 0.227891 0.954668 0.257804
O O9 0.371616 0.540072 0.907123
O O10 0.298186 0.675592 0.941308
O O11 0.607853 0.597504 0.032860
O O12 0.152059 0.043803 0.428067
O O13 0.961163 0.615843 0.873435
O O14 0.088685 0.642905 0.020137
O O15 0.815893 0.192724 0.739387
O O16 0.500000 0.000000 0.500000
O O17 0.000000 0.638962 0.750000
#
# Coordination Sequence:
#
# PCOD9262163 Si02
#       8
#     8   8   8   8   8   4   8   8
#     4  11  24  42  65  88 119 153 209 260 313 360
#     4  11  22  31  50  83 122 163 204 240 293 361
#     4  10  21  39  61  88 124 154 199 245 306 365
#     4  10  22  35  58  86 124 164 197 242 303 368
#     4  10  21  37  58  85 115 160 195 252 305 355
#     4  10  22  38  62  86 110 152 196 260 312 352
#     4  11  21  34  53  80 121 163 201 241 297 366
#     4  10  19  32  54  84 118 147 196 245 301 349
#
# _framework density 26.162064999999998
#
# number of rings (size 3 to 8) (size 9 to 14) (size 15 to 20)
#    0.000    1.600    1.333    4.400    9.333    0.533 
#    0.000    1.333    0.000    0.000    0.000    0.000 
#    0.000    0.000    0.000    0.000    0.000    0.000 
#
# Total GULP energy -167500.815475 kJ/mol
# GULP energy per Si atom -5583.360516 kJ/mol
# Density = 2.610252 g / cm^3
# Si number density = 26.162065 Si / 1000 Ang^3
#
#
#
# Elastic Constant Matrix: (Units=GPa)
#
#
# Indices 1 2 3 4 5 6 
#
# 1 113.3828 14.0157 18.5591 0.0000 7.7400 0.0000
# 2 14.0157 57.5336 13.9794 0.0000 3.4321 0.0000
# 3 18.5591 13.9794 245.7503 0.0000 9.1925 0.0000
# 4 0.0000 0.0000 0.0000 25.6406 0.0000 -3.7924
# 5 7.7400 3.4321 9.1925 0.0000 47.9025 0.0000
# 6 0.0000 0.0000 0.0000 -3.7924 0.0000 21.3453
#
#
#
# Elastic Compliance Matrix: (Units=1/GPa)
#
#
# Indices 1 2 3 4 5 6 
#
# 1 0.009245 -0.002048 -0.000535 0.000000 -0.001244 0.000000
# 2 -0.002048 0.018134 -0.000847 0.000000 -0.000806 0.000000
# 3 -0.000535 -0.000847 0.004182 0.000000 -0.000655 0.000000
# 4 0.000000 0.000000 0.000000 0.040053 0.000000 0.007116
# 5 -0.001244 -0.000806 -0.000655 0.000000 0.021260 0.000000
# 6 0.000000 0.000000 0.000000 0.007116 0.000000 0.048113
#
#
# Mechanical properties :
#
#
# Convention : Reuss Voigt Hill
#
# Bulk Modulus (GPa) = 40.48296 56.64169 48.56233
# Shear Modulus (GPa) = 32.03451 43.65186 37.84319
#
# Velocity S-wave (km/s) = 3.50303 4.08918 3.80740
# Velocity P-wave (km/s) = 5.64528 6.63268 6.15880
#
# Compressibility (1/GPa) = 0.02470175
#
# Stress axis : x y z
#
# Youngs Moduli (GPa) = 108.16208 55.14547 239.10457
#
# Poissons Ratio (x) = 0.11294 0.12796
# Poissons Ratio (y) = 0.22151 0.20246
# Poissons Ratio (z) = 0.05788 0.04669
#
# Static dielectric constant tensor:
#      x y z
#    x 2.029730 0.000000 -0.015330 
#    y 0.000000 2.195230 0.000000 
#    z -0.015330 0.000000 2.161430 
# 
# From -- ./inp_files/192563.got.cif
#   From: 2010.05.17/outbox.cif.g08.bks.cpg/sg15_97_cif.got.tgz:192563.got - 2010.06.03 18:47:42.
