data_PCOD9262102
_publ_section_title
;
Structure prediction by ZEFSAII (Michael W. Deem and Ramdas Pophale) SiO2 
 PCOD9262102
Probable space group: C 2/C
;
_chemical_formula_sum "Si O2"
_cell_formula_units_Z 64
_cell_length_a 18.794734
_cell_length_b 6.985281
_cell_length_c 22.139130
_cell_angle_alpha 90.000000
_cell_angle_beta 120.721702
_cell_angle_gamma 90.000000
_cell_volume 2498.657582
_symmetry_space_group_name_H-M "C 2/C"
_symmetry_group_IT_number 15
_symmetry_cell_setting 'monoclinic'
loop_
_space_group_symop_operation_xyz
x,y,z
-x,y,1/2-z
-x,-y,-z
x,-y,1/2+z
1/2+x,1/2+y,z
1/2-x,1/2+y,1/2-z
1/2-x,1/2-y,-z
1/2+x,1/2-y,1/2+z
loop_
_atom_site_type_symbol
_atom_site_label
_atom_site_fract_x
_atom_site_fract_y
_atom_site_fract_z
Si Si1 0.185311 0.012531 0.831876
Si Si2 0.134532 0.454946 0.212343
Si Si3 0.329016 0.398597 0.301206
Si Si4 0.815805 0.046731 0.038547
Si Si5 0.415840 0.114952 0.193885
Si Si6 0.114931 0.465426 0.078235
Si Si7 0.859993 0.396473 0.544269
Si Si8 0.915302 0.113117 0.960375
O O1 0.150149 0.975038 0.749356
O O2 0.160887 0.899282 0.882190
O O3 0.159524 0.235495 0.830836
O O4 0.285011 0.999581 0.872861
O O5 0.229720 0.391868 0.259814
O O6 0.137590 0.684889 0.197850
O O7 0.094480 0.449350 0.260951
O O8 0.093146 0.372965 0.133308
O O9 0.360539 0.462880 0.380301
O O10 0.831336 0.818259 0.045145
O O11 0.716064 0.048719 0.986747
O O12 0.866806 0.114156 0.002811
O O13 0.500000 0.220117 0.250000
O O14 0.419230 0.054017 0.125745
O O15 0.070404 0.666705 0.049902
O O16 0.107472 0.374749 0.009349
O O17 0.000000 0.000000 0.000000
#
# Coordination Sequence:
#
# PCOD9262102 Si02
#       8
#     8   8   8   8   8   8   8   8
#     4   8  17  33  56  79 101 137 188 237 273 319
#     4   9  18  34  56  80 104 139 186 233 275 325
#     4   9  18  34  55  78 104 137 184 228 271 326
#     4   9  18  34  57  80 105 141 187 232 278 330
#     4  10  19  32  53  83 114 142 181 234 289 336
#     4   9  19  36  56  82 111 145 191 231 273 332
#     4   9  18  34  57  81 104 141 191 236 273 324
#     4  11  23  36  53  82 119 152 179 221 285 344
#
# _framework density 25.613752999999999
#
# number of rings (size 3 to 8) (size 9 to 14) (size 15 to 20)
#    0.000    2.750    0.000    1.500    0.000   11.000 
#    0.000    5.000    0.000    0.000    0.000   14.000 
#    0.000    0.000    0.000    0.000    0.000    0.000 
#
# Total GULP energy -178660.831338 kJ/mol
# GULP energy per Si atom -5583.150979 kJ/mol
# Density = 2.555546 g / cm^3
# Si number density = 25.613753 Si / 1000 Ang^3
#
#
#
# Elastic Constant Matrix: (Units=GPa)
#
#
# Indices 1 2 3 4 5 6 
#
# 1 96.8574 12.3357 71.0035 0.0000 -18.3202 0.0000
# 2 12.3357 34.2765 -0.8731 0.0000 -0.0257 0.0000
# 3 71.0035 -0.8731 220.7531 0.0000 -65.2927 0.0000
# 4 0.0000 0.0000 0.0000 28.7054 0.0000 -6.5209
# 5 -18.3202 -0.0257 -65.2927 0.0000 45.1273 0.0000
# 6 0.0000 0.0000 0.0000 -6.5209 0.0000 36.3126
#
#
#
# Elastic Compliance Matrix: (Units=1/GPa)
#
#
# Indices 1 2 3 4 5 6 
#
# 1 0.014477 -0.005342 -0.005140 0.000000 -0.001562 0.000000
# 2 -0.005342 0.031151 0.002107 0.000000 0.000897 0.000000
# 3 -0.005140 0.002107 0.009745 0.000000 0.012014 0.000000
# 4 0.000000 0.000000 0.000000 0.036318 0.000000 0.006522
# 5 -0.001562 0.000897 0.012014 0.000000 0.038908 0.000000
# 6 0.000000 0.000000 0.000000 0.006522 0.000000 0.028710
#
#
# Mechanical properties :
#
#
# Convention : Reuss Voigt Hill
#
# Bulk Modulus (GPa) = 25.89092 57.42434 41.65763
# Shear Modulus (GPa) = 26.46428 39.99048 33.22738
#
# Velocity S-wave (km/s) = 3.21784 3.95560 3.60564
# Velocity P-wave (km/s) = 4.89246 6.58258 5.79942
#
# Compressibility (1/GPa) = 0.03862358
#
# Stress axis : x y z
#
# Youngs Moduli (GPa) = 69.07483 32.10125 102.61883
#
# Poissons Ratio (x) = 0.17149 0.52742
# Poissons Ratio (y) = 0.36901 -0.21621
# Poissons Ratio (z) = 0.35502 -0.06763
#
# Static dielectric constant tensor:
#      x y z
#    x 2.033630 0.000000 -0.068440 
#    y 0.000000 2.123290 0.000000 
#    z -0.068440 0.000000 2.150390 
# 
# From -- ./inp_files/251933.got.cif
#   From: 2010.05.17/outbox.cif.g08.bks.cpg/sg15_126_cif.got.tgz:251933.got - 2010.06.03 18:47:42.
