data_PCOD9262464
_publ_section_title
;
Structure prediction by ZEFSAII (Michael W. Deem and Ramdas Pophale) SiO2 
 PCOD9262464
Probable space group: C 2/C
;
_chemical_formula_sum "Si O2"
_cell_formula_units_Z 48
_cell_length_a 18.515726
_cell_length_b 13.691893
_cell_length_c 20.683656
_cell_angle_alpha 90.000000
_cell_angle_beta 24.321804
_cell_angle_gamma 90.000000
_cell_volume 2159.645116
_symmetry_space_group_name_H-M "C 2/C"
_symmetry_group_IT_number 15
_symmetry_cell_setting 'monoclinic'
loop_
_space_group_symop_operation_xyz
x,y,z
-x,y,1/2-z
-x,-y,-z
x,-y,1/2+z
1/2+x,1/2+y,z
1/2-x,1/2+y,1/2-z
1/2-x,1/2-y,-z
1/2+x,1/2-y,1/2+z
loop_
_atom_site_type_symbol
_atom_site_label
_atom_site_fract_x
_atom_site_fract_y
_atom_site_fract_z
Si Si1 0.189630 0.213548 0.864750
Si Si2 0.979276 0.385496 0.433633
Si Si3 0.779774 0.454627 0.148536
Si Si4 0.019374 0.180767 0.659633
Si Si5 0.822234 0.884205 0.666747
Si Si6 0.872990 0.611411 0.301506
O O1 0.357383 0.146613 0.742821
O O2 0.238457 0.285071 0.765084
O O3 0.141160 0.290064 0.960529
O O4 0.020415 0.147238 0.988951
O O5 0.070406 0.404434 0.429929
O O6 0.866539 0.483939 0.518802
O O7 0.639617 0.375502 0.243781
O O8 0.688165 0.535930 0.268462
O O9 0.988027 0.296522 0.683196
O O10 0.000000 0.152469 0.750000
O O11 0.204391 0.151977 0.478299
O O12 0.716896 0.925589 0.691235
O O13 0.000000 0.557814 0.250000
#
# Coordination Sequence:
#
# PCOD9262464 Si02
#       6
#     8   8   8   8   8   8
#     4   9  17  31  50  72 103 139 172 212 260 320
#     4   9  18  30  48  73 101 133 169 212 264 311
#     4  10  21  33  50  78 108 139 174 226 275 309
#     4  11  23  38  54  76 110 148 183 217 263 319
#     4  10  19  33  52  79 110 139 180 222 267 314
#     4  11  22  35  55  77 107 150 185 215 253 320
#
# _framework density 22.225874000000001
#
# number of rings (size 3 to 8) (size 9 to 14) (size 15 to 20)
#    0.000    2.000    0.000    6.000    0.000    9.333 
#    0.000    0.000    0.000    0.000    0.000   18.667 
#    0.000   10.667    0.000    1.667    0.000    0.000 
#
# Total GULP energy -134052.427909 kJ/mol
# GULP energy per Si atom -5585.517830 kJ/mol
# Density = 2.217529 g / cm^3
# Si number density = 22.225874 Si / 1000 Ang^3
#
#
#
# Elastic Constant Matrix: (Units=GPa)
#
#
# Indices 1 2 3 4 5 6 
#
# 1 36.0615 -5.0040 -14.0297 -0.0031 -1.1074 0.0007
# 2 -5.0040 72.9452 15.1075 -0.0087 -0.8947 0.0026
# 3 -14.0297 15.1075 107.6087 -0.0076 -0.9075 0.0028
# 4 -0.0031 -0.0087 -0.0076 38.6974 0.0028 -3.9283
# 5 -1.1074 -0.8947 -0.9075 0.0028 24.8049 -0.0009
# 6 0.0007 0.0026 0.0028 -3.9283 -0.0009 16.2709
#
#
#
# Elastic Compliance Matrix: (Units=1/GPa)
#
#
# Indices 1 2 3 4 5 6 
#
# 1 0.029379 0.001275 0.003664 0.000003 0.001492 -0.000001
# 2 0.001275 0.014180 -0.001820 0.000003 0.000502 -0.000001
# 3 0.003664 -0.001820 0.010030 0.000002 0.000465 -0.000001
# 4 0.000003 0.000003 0.000002 0.026491 -0.000002 0.006396
# 5 0.001492 0.000502 0.000465 -0.000002 0.040416 0.000001
# 6 -0.000001 -0.000001 -0.000001 0.006396 0.000001 0.063004
#
#
# Mechanical properties :
#
#
# Convention : Reuss Voigt Hill
#
# Bulk Modulus (GPa) = 16.71541 23.19588 19.95564
# Shear Modulus (GPa) = 25.35450 30.65741 28.00595
#
# Velocity S-wave (km/s) = 3.38119 3.71800 3.55358
# Velocity P-wave (km/s) = 4.77287 5.37498 5.08285
#
# Compressibility (1/GPa) = 0.05982505
#
# Stress axis : x y z
#
# Youngs Moduli (GPa) = 34.03847 70.52424 99.69995
#
# Poissons Ratio (x) = -0.08991 -0.36529
# Poissons Ratio (y) = -0.04339 0.18148
# Poissons Ratio (z) = -0.12471 0.12837
#
# Static dielectric constant tensor:
#      x y z
#    x 1.837480 0.000000 0.037300 
#    y 0.000000 1.867850 0.000000 
#    z 0.037300 0.000000 1.894170 
# 
# From -- ./inp_files/48022.got.cif
#   From: 2010.05.17/outbox.cif.g08.bks.cpg/sg15_25_cif.got.tgz:48022.got - 2010.06.03 18:47:42.
