data_PCOD9262372
_publ_section_title
;
Structure prediction by ZEFSAII (Michael W. Deem and Ramdas Pophale) SiO2 
 PCOD9262372
Probable space group: C 2/C
;
_chemical_formula_sum "Si O2"
_cell_formula_units_Z 48
_cell_length_a 19.723042
_cell_length_b 4.946369
_cell_length_c 23.192129
_cell_angle_alpha 90.000000
_cell_angle_beta 87.118437
_cell_angle_gamma 90.000000
_cell_volume 2259.703996
_symmetry_space_group_name_H-M "C 2/C"
_symmetry_group_IT_number 15
_symmetry_cell_setting 'monoclinic'
loop_
_space_group_symop_operation_xyz
x,y,z
-x,y,1/2-z
-x,-y,-z
x,-y,1/2+z
1/2+x,1/2+y,z
1/2-x,1/2+y,1/2-z
1/2-x,1/2-y,-z
1/2+x,1/2-y,1/2+z
loop_
_atom_site_type_symbol
_atom_site_label
_atom_site_fract_x
_atom_site_fract_y
_atom_site_fract_z
Si Si1 0.293238 0.200679 0.734876
Si Si2 0.434148 0.032609 0.933528
Si Si3 0.743417 0.174572 0.119385
Si Si4 0.440947 0.305910 0.052525
Si Si5 0.142917 0.675947 0.961167
Si Si6 0.154836 0.177314 0.151446
O O1 0.229430 0.391461 0.756512
O O2 0.299027 0.268114 0.667637
O O3 0.349599 0.277041 0.779525
O O4 0.493595 0.817867 0.918637
O O5 0.408269 0.208966 0.881680
O O6 0.373683 0.875232 0.970518
O O7 0.456310 0.238946 0.983985
O O8 0.782732 0.233874 0.059245
O O9 0.681120 0.378168 0.136061
O O10 0.715845 0.874127 0.127829
O O11 0.410877 0.601608 0.058613
O O12 0.377540 0.106495 0.067163
#
# Coordination Sequence:
#
# PCOD9262372 Si02
#       6
#     8   8   8   8   8   8
#     4   8  16  32  47  67  95 126 161 189 235 298
#     4   9  21  32  52  69 101 127 172 199 240 289
#     4  10  20  32  49  74 102 127 157 203 255 300
#     4   9  20  34  49  69  95 135 169 196 236 291
#     4  10  19  33  49  71 100 133 159 199 247 296
#     4  10  20  31  51  74  97 129 162 204 246 295
#
# _framework density 21.241720000000001
#
# number of rings (size 3 to 8) (size 9 to 14) (size 15 to 20)
#    1.000    1.667    0.000    1.500    2.333    1.333 
#    0.000    0.000    0.000    1.000    0.000    2.333 
#    0.000    0.000    0.000    0.000    0.000    0.000 
#
# Total GULP energy -133685.648456 kJ/mol
# GULP energy per Si atom -5570.235352 kJ/mol
# Density = 2.119337 g / cm^3
# Si number density = 21.241720 Si / 1000 Ang^3
#
#
#
# Elastic Constant Matrix: (Units=GPa)
#
#
# Indices 1 2 3 4 5 6 
#
# 1 43.7726 -6.7642 16.7237 0.0000 18.3245 0.0000
# 2 -6.7642 68.6548 -3.2862 0.0000 -1.9631 0.0000
# 3 16.7237 -3.2862 56.3138 0.0000 25.3935 0.0000
# 4 0.0000 0.0000 0.0000 20.8387 0.0000 5.6254
# 5 18.3245 -1.9631 25.3935 0.0000 30.3333 0.0000
# 6 0.0000 0.0000 0.0000 5.6254 0.0000 27.7413
#
#
#
# Elastic Compliance Matrix: (Units=1/GPa)
#
#
# Indices 1 2 3 4 5 6 
#
# 1 0.031052 0.002501 -0.001108 0.000000 -0.017669 0.000000
# 2 0.002501 0.014811 0.000595 0.000000 -0.001051 0.000000
# 3 -0.001108 0.000595 0.028598 0.000000 -0.023233 0.000000
# 4 0.000000 0.000000 0.000000 0.050767 0.000000 -0.010294
# 5 -0.017669 -0.001051 -0.023233 0.000000 0.063022 0.000000
# 6 0.000000 0.000000 0.000000 -0.010294 0.000000 0.038135
#
#
# Mechanical properties :
#
#
# Convention : Reuss Voigt Hill
#
# Bulk Modulus (GPa) = 12.74907 20.23196 16.49052
# Shear Modulus (GPa) = 20.11644 26.58719 23.35182
#
# Velocity S-wave (km/s) = 3.08072 3.54170 3.31922
# Velocity P-wave (km/s) = 4.32080 5.12545 4.74023
#
# Compressibility (1/GPa) = 0.07843711
#
# Stress axis : x y z
#
# Youngs Moduli (GPa) = 32.20398 67.51964 34.96785
#
# Poissons Ratio (x) = -0.16888 0.03875
# Poissons Ratio (y) = -0.08055 -0.02082
# Poissons Ratio (z) = 0.03568 -0.04020
#
# Static dielectric constant tensor:
#      x y z
#    x 1.817970 0.000000 0.069450 
#    y 0.000000 1.773810 0.000000 
#    z 0.069450 0.000000 1.803800 
# 
# From -- ./inp_files/297291.got.cif
#   From: 2010.05.17/outbox.cif.g08.bks.cpg/sg15_149_cif.got.tgz:297291.got - 2010.06.03 18:47:42.
