data_PCOD9262232
_publ_section_title
;
Structure prediction by ZEFSAII (Michael W. Deem and Ramdas Pophale) SiO2 
 PCOD9262232
Probable space group: C 2/C
;
_chemical_formula_sum "Si O2"
_cell_formula_units_Z 48
_cell_length_a 18.896727
_cell_length_b 16.657539
_cell_length_c 17.972221
_cell_angle_alpha 90.000000
_cell_angle_beta 151.092068
_cell_angle_gamma 90.000000
_cell_volume 2734.695891
_symmetry_space_group_name_H-M "C 2/C"
_symmetry_group_IT_number 15
_symmetry_cell_setting 'monoclinic'
loop_
_space_group_symop_operation_xyz
x,y,z
-x,y,1/2-z
-x,-y,-z
x,-y,1/2+z
1/2+x,1/2+y,z
1/2-x,1/2+y,1/2-z
1/2-x,1/2-y,-z
1/2+x,1/2-y,1/2+z
loop_
_atom_site_type_symbol
_atom_site_label
_atom_site_fract_x
_atom_site_fract_y
_atom_site_fract_z
Si Si1 0.271898 0.229695 0.902328
Si Si2 0.534990 0.339573 0.089595
Si Si3 0.436323 0.472990 0.110428
Si Si4 0.063574 0.153321 0.442300
Si Si5 0.636583 0.782471 0.332662
Si Si6 0.837098 0.624588 0.103457
O O1 0.191927 0.194937 0.757107
O O2 0.173920 0.297325 0.853380
O O3 0.418303 0.275764 0.014338
O O4 0.293766 0.159464 0.982791
O O5 0.509396 0.421052 0.112316
O O6 0.517967 0.349395 0.986387
O O7 0.500000 0.452093 0.250000
O O8 0.452905 0.566530 0.110259
O O9 0.270461 0.442287 0.964089
O O10 0.239097 0.173282 0.601655
O O11 0.954935 0.215282 0.298451
O O12 0.500000 0.825963 0.250000
O O13 0.750000 0.750000 0.500000
O O14 0.000000 0.593655 0.250000
#
# Coordination Sequence:
#
# PCOD9262232 Si02
#       6
#     8   8   8   8   8   8
#     4  10  19  32  56  83 115 150 191 234 275 346
#     4  11  21  35  56  85 122 154 183 240 294 337
#     4  11  22  36  56  83 116 158 194 233 283 348
#     4  11  22  38  59  87 115 147 196 244 296 336
#     4   9  19  38  62  82 102 143 197 242 277 332
#     4  10  19  33  55  84 114 148 195 233 276 334
#
# _framework density 17.552226000000001
#
# number of rings (size 3 to 8) (size 9 to 14) (size 15 to 20)
#    0.000    1.667    3.333    3.000    0.000    0.667 
#    0.000    0.000    0.000    1.000    0.000    0.000 
#    0.000    0.000    0.000    0.000    0.000    0.000 
#
# Total GULP energy -133657.790112 kJ/mol
# GULP energy per Si atom -5569.074588 kJ/mol
# Density = 1.751228 g / cm^3
# Si number density = 17.552226 Si / 1000 Ang^3
#
#
#
# Elastic Constant Matrix: (Units=GPa)
#
#
# Indices 1 2 3 4 5 6 
#
# 1 89.9028 18.4831 22.5710 -0.0002 -10.7782 -0.0002
# 2 18.4831 57.7580 22.4379 -0.0015 3.0002 -0.0006
# 3 22.5710 22.4379 82.8961 -0.0015 0.8380 -0.0006
# 4 -0.0002 -0.0015 -0.0015 14.6350 -0.0007 -5.1201
# 5 -10.7782 3.0002 0.8380 -0.0007 32.7591 -0.0004
# 6 -0.0002 -0.0006 -0.0006 -5.1201 -0.0004 10.9824
#
#
#
# Elastic Compliance Matrix: (Units=1/GPa)
#
#
# Indices 1 2 3 4 5 6 
#
# 1 0.013052 -0.003375 -0.002687 0.000000 0.004672 0.000000
# 2 -0.003375 0.020309 -0.004549 0.000002 -0.002854 0.000002
# 3 -0.002687 -0.004549 0.014035 0.000001 -0.000827 0.000001
# 4 0.000000 0.000002 0.000001 0.081646 0.000002 0.038064
# 5 0.004672 -0.002854 -0.000827 0.000002 0.032346 0.000002
# 6 0.000000 0.000002 0.000001 0.038064 0.000002 0.108801
#
#
# Mechanical properties :
#
#
# Convention : Reuss Voigt Hill
#
# Bulk Modulus (GPa) = 38.20908 39.72677 38.96792
# Shear Modulus (GPa) = 16.65908 22.81297 19.73603
#
# Velocity S-wave (km/s) = 3.08411 3.60907 3.35687
# Velocity P-wave (km/s) = 5.87353 6.32849 6.10525
#
# Compressibility (1/GPa) = 0.02617179
#
# Stress axis : x y z
#
# Youngs Moduli (GPa) = 76.61730 49.23840 71.25167
#
# Poissons Ratio (x) = 0.16620 0.19148
# Poissons Ratio (y) = 0.25861 0.32415
# Poissons Ratio (z) = 0.20590 0.22400
#
# Static dielectric constant tensor:
#      x y z
#    x 1.623590 0.000000 0.003770 
#    y 0.000000 1.588290 0.000000 
#    z 0.003770 0.000000 1.607830 
# 
# From -- ./inp_files/47957.got.cif
#   From: 2010.05.17/outbox.cif.g08.bks.cpg/sg15_24_cif.got.tgz:47957.got - 2010.06.03 18:47:42.
