data_PCOD9262428
_publ_section_title
;
Structure prediction by ZEFSAII (Michael W. Deem and Ramdas Pophale) SiO2 
 PCOD9262428
Probable space group: C 2/C
;
_chemical_formula_sum "Si O2"
_cell_formula_units_Z 56
_cell_length_a 5.235850
_cell_length_b 23.985120
_cell_length_c 26.649078
_cell_angle_alpha 90.000000
_cell_angle_beta 126.761340
_cell_angle_gamma 90.000000
_cell_volume 2681.125785
_symmetry_space_group_name_H-M "C 2/C"
_symmetry_group_IT_number 15
_symmetry_cell_setting 'monoclinic'
loop_
_space_group_symop_operation_xyz
x,y,z
-x,y,1/2-z
-x,-y,-z
x,-y,1/2+z
1/2+x,1/2+y,z
1/2-x,1/2+y,1/2-z
1/2-x,1/2-y,-z
1/2+x,1/2-y,1/2+z
loop_
_atom_site_type_symbol
_atom_site_label
_atom_site_fract_x
_atom_site_fract_y
_atom_site_fract_z
Si Si1 0.576268 0.798673 0.314029
Si Si2 0.724295 0.686711 0.068836
Si Si3 0.036897 0.907698 0.897221
Si Si4 0.813742 0.368354 0.485818
Si Si5 0.876943 0.985586 0.041129
Si Si6 0.343339 0.802012 0.395813
Si Si7 0.954584 0.172824 0.188612
O O1 0.500000 0.823328 0.250000
O O2 0.448691 0.819929 0.352688
O O3 0.415049 0.736193 0.295509
O O4 0.960316 0.800980 0.358839
O O5 0.597231 0.627956 0.072916
O O6 0.558040 0.738600 0.077416
O O7 0.091490 0.685628 0.129850
O O8 0.690173 0.683332 0.004760
O O9 0.918981 0.873788 0.834751
O O10 0.969740 0.972295 0.899956
O O11 0.414104 0.896105 0.947358
O O12 0.582726 0.419606 0.445728
O O13 0.959810 0.343989 0.452256
O O14 0.500000 0.000000 0.000000
O O15 0.000000 0.000000 0.000000
O O16 0.000000 0.151447 0.250000
#
# Coordination Sequence:
#
# PCOD9262428 Si02
#       7
#     8   8   8   8   8   8   8
#     4  10  21  37  55  78 108 145 188 229 271 329
#     4  10  19  33  51  81 114 147 176 226 280 334
#     4  10  19  34  54  78 111 141 184 227 277 325
#     4  10  22  34  52  81 114 148 181 224 275 337
#     4  10  20  35  55  76 105 143 180 218 263 322
#     4  11  22  34  55  82 112 147 182 225 282 335
#     4   9  19  34  52  78 109 144 184 227 278 329
#
# _framework density 20.886749999999999
#
# number of rings (size 3 to 8) (size 9 to 14) (size 15 to 20)
#    0.000    2.000    2.857    0.857    2.000    1.143 
#    0.000    0.000    0.000    1.714    0.000    0.000 
#    0.000    0.000    0.000    0.000    0.000    0.000 
#
# Total GULP energy -155934.615942 kJ/mol
# GULP energy per Si atom -5569.093426 kJ/mol
# Density = 2.083921 g / cm^3
# Si number density = 20.886750 Si / 1000 Ang^3
#
#
#
# Elastic Constant Matrix: (Units=GPa)
#
#
# Indices 1 2 3 4 5 6 
#
# 1 84.2666 6.1367 26.5150 0.0000 -27.4845 0.0000
# 2 6.1367 69.3152 22.7089 0.0000 -14.2136 0.0000
# 3 26.5150 22.7089 120.0558 0.0000 -42.6219 0.0000
# 4 0.0000 0.0000 0.0000 18.5910 0.0000 -6.1015
# 5 -27.4845 -14.2136 -42.6219 0.0000 38.6742 0.0000
# 6 0.0000 0.0000 0.0000 -6.1015 0.0000 19.4160
#
#
#
# Elastic Compliance Matrix: (Units=1/GPa)
#
#
# Indices 1 2 3 4 5 6 
#
# 1 0.015544 0.000883 0.000718 0.000000 0.012162 0.000000
# 2 0.000883 0.015820 -0.001479 0.000000 0.004811 0.000000
# 3 0.000718 -0.001479 0.013863 0.000000 0.015244 0.000000
# 4 0.000000 0.000000 0.000000 0.059975 0.000000 0.018847
# 5 0.012162 0.004811 0.015244 0.000000 0.053069 0.000000
# 6 0.000000 0.000000 0.000000 0.018847 0.000000 0.057427
#
#
# Mechanical properties :
#
#
# Convention : Reuss Voigt Hill
#
# Bulk Modulus (GPa) = 21.99324 42.70653 32.34989
# Shear Modulus (GPa) = 21.68158 29.88804 25.78481
#
# Velocity S-wave (km/s) = 3.22538 3.78690 3.51736
# Velocity P-wave (km/s) = 4.94200 6.29380 5.65842
#
# Compressibility (1/GPa) = 0.04546851
#
# Stress axis : x y z
#
# Youngs Moduli (GPa) = 64.33482 63.21150 72.13602
#
# Poissons Ratio (x) = -0.05579 -0.05178
# Poissons Ratio (y) = -0.05678 0.10671
# Poissons Ratio (z) = -0.04618 0.09351
#
# Static dielectric constant tensor:
#      x y z
#    x 1.855170 0.000000 0.020910 
#    y 0.000000 1.803690 0.000000 
#    z 0.020910 0.000000 1.820450 
# 
# From -- ./inp_files/186126.got.cif
#   From: 2010.05.17/outbox.cif.g08.bks.cpg/sg15_94_cif.got.tgz:186126.got - 2010.06.03 18:47:42.
