data_PCOD9262902
_publ_section_title
;
Structure prediction by ZEFSAII (Michael W. Deem and Ramdas Pophale) SiO2 
 PCOD9262902
Probable space group: C 2/C
;
_chemical_formula_sum "Si O2"
_cell_formula_units_Z 64
_cell_length_a 13.695733
_cell_length_b 31.673871
_cell_length_c 9.544246
_cell_angle_alpha 90.000000
_cell_angle_beta 51.091546
_cell_angle_gamma 90.000000
_cell_volume 3221.748544
_symmetry_space_group_name_H-M "C 2/C"
_symmetry_group_IT_number 15
_symmetry_cell_setting 'monoclinic'
loop_
_space_group_symop_operation_xyz
x,y,z
-x,y,1/2-z
-x,-y,-z
x,-y,1/2+z
1/2+x,1/2+y,z
1/2-x,1/2+y,1/2-z
1/2-x,1/2-y,-z
1/2+x,1/2-y,1/2+z
loop_
_atom_site_type_symbol
_atom_site_label
_atom_site_fract_x
_atom_site_fract_y
_atom_site_fract_z
Si Si1 0.853442 0.946713 0.364453
Si Si2 0.306415 0.074882 0.881874
Si Si3 0.883508 0.802319 0.955182
Si Si4 0.708227 0.636195 0.754015
Si Si5 0.246009 0.505923 0.207213
Si Si6 0.116079 0.298571 0.045596
Si Si7 0.508880 0.153953 0.088353
Si Si8 0.941406 0.429901 0.531840
O O1 0.827977 0.898867 0.330322
O O2 0.803967 0.954819 0.567674
O O3 0.000000 0.953879 0.250000
O O4 0.800808 0.979225 0.290414
O O5 0.220903 0.108179 0.883022
O O6 0.430814 0.069796 0.673215
O O7 0.250055 0.028808 0.918776
O O8 0.340723 0.085766 0.007939
O O9 0.892183 0.751804 0.968286
O O10 0.000000 0.814985 0.750000
O O11 0.878936 0.826176 0.109573
O O12 0.749635 0.808630 0.996175
O O13 0.846584 0.654068 0.593034
O O14 0.111797 0.525651 0.369123
O O15 0.000000 0.311736 0.250000
O O16 0.084082 0.322102 0.931607
O O17 0.500000 0.172121 0.250000
O O18 0.465051 0.105004 0.126850
#
# Coordination Sequence:
#
# PCOD9262902 Si02
#       8
#     8   8   8   8   8   8   8   8
#     4  11  24  41  58  81 117 169 212 262 316 370
#     4   9  19  33  57  90 112 153 195 254 311 360
#     4  10  21  40  69 104 123 167 215 258 314 380
#     4  10  21  41  60  88 131 160 208 264 312 381
#     4  11  20  39  58  81 114 154 211 255 310 374
#     4  10  20  40  73  95 133 164 210 264 310 381
#     4  11  22  38  63  96 128 167 206 256 327 382
#     4  10  19  33  57  86 120 148 194 253 316 371
#
# _framework density 19.864989000000001
#
# number of rings (size 3 to 8) (size 9 to 14) (size 15 to 20)
#    0.000    1.750    2.500    2.250    1.750    0.000 
#    9.000    2.500    0.000    0.000    0.000    0.000 
#    0.000    0.000    0.000    0.000    0.000    0.000 
#
# Total GULP energy -178162.591817 kJ/mol
# GULP energy per Si atom -5567.580994 kJ/mol
# Density = 1.981978 g / cm^3
# Si number density = 19.864989 Si / 1000 Ang^3
#
#
#
# Elastic Constant Matrix: (Units=GPa)
#
#
# Indices 1 2 3 4 5 6 
#
# 1 65.6046 23.0134 34.5029 0.0000 1.5764 0.0000
# 2 23.0134 61.9585 30.9769 0.0000 3.5573 0.0000
# 3 34.5029 30.9769 70.8498 0.0000 -2.6064 0.0000
# 4 0.0000 0.0000 0.0000 25.6224 0.0000 -2.5672
# 5 1.5764 3.5573 -2.6064 0.0000 32.1219 0.0000
# 6 0.0000 0.0000 0.0000 -2.5672 0.0000 7.1057
#
#
#
# Elastic Compliance Matrix: (Units=1/GPa)
#
#
# Indices 1 2 3 4 5 6 
#
# 1 0.021112 -0.003322 -0.008880 0.000000 -0.001389 0.000000
# 2 -0.003322 0.021476 -0.007877 0.000000 -0.002854 0.000000
# 3 -0.008880 -0.007877 0.021996 0.000000 0.003093 0.000000
# 4 0.000000 0.000000 0.000000 0.040494 0.000000 0.014630
# 5 -0.001389 -0.002854 0.003093 0.000000 0.031767 0.000000
# 6 0.000000 0.000000 0.000000 0.014630 0.000000 0.146019
#
#
# Mechanical properties :
#
#
# Convention : Reuss Voigt Hill
#
# Bulk Modulus (GPa) = 40.93934 41.71105 41.32520
# Shear Modulus (GPa) = 15.09833 20.29798 17.69816
#
# Velocity S-wave (km/s) = 2.75989 3.20002 2.98807
# Velocity P-wave (km/s) = 5.55063 5.89036 5.72302
#
# Compressibility (1/GPa) = 0.02442638
#
# Stress axis : x y z
#
# Youngs Moduli (GPa) = 47.36735 46.56405 45.46235
#
# Poissons Ratio (x) = 0.15470 0.40369
# Poissons Ratio (y) = 0.15737 0.35809
# Poissons Ratio (z) = 0.42060 0.36677
#
# Static dielectric constant tensor:
#      x y z
#    x 1.702060 0.000000 -0.011990 
#    y 0.000000 1.758170 0.000000 
#    z -0.011990 0.000000 1.734770 
# 
# From -- ./inp_files/44836.got.cif
#   From: 2010.05.17/outbox.cif.g08.bks.cpg/sg15_23_cif.got.tgz:44836.got - 2010.06.03 18:47:42.
