data_PCOD9262947
_publ_section_title
;
Structure prediction by ZEFSAII (Michael W. Deem and Ramdas Pophale) SiO2 
 PCOD9262947
Probable space group: C 2/C
;
_chemical_formula_sum "Si O2"
_cell_formula_units_Z 56
_cell_length_a 7.519683
_cell_length_b 31.738670
_cell_length_c 19.347621
_cell_angle_alpha 90.000000
_cell_angle_beta 147.212985
_cell_angle_gamma 90.000000
_cell_volume 2500.509351
_symmetry_space_group_name_H-M "C 2/C"
_symmetry_group_IT_number 15
_symmetry_cell_setting 'monoclinic'
loop_
_space_group_symop_operation_xyz
x,y,z
-x,y,1/2-z
-x,-y,-z
x,-y,1/2+z
1/2+x,1/2+y,z
1/2-x,1/2+y,1/2-z
1/2-x,1/2-y,-z
1/2+x,1/2-y,1/2+z
loop_
_atom_site_type_symbol
_atom_site_label
_atom_site_fract_x
_atom_site_fract_y
_atom_site_fract_z
Si Si1 0.695197 0.808520 0.985270
Si Si2 0.261639 0.901980 0.022333
Si Si3 0.760078 0.405005 0.522388
Si Si4 0.266969 0.548444 0.273843
Si Si5 0.761117 0.951743 0.270927
Si Si6 0.238036 0.243517 0.714919
Si Si7 0.881659 0.685309 0.883689
O O1 0.638318 0.857038 0.953881
O O2 0.544070 0.778885 0.876796
O O3 0.564133 0.800078 0.020152
O O4 0.076539 0.795903 0.120368
O O5 0.002007 0.904499 0.000441
O O6 0.066330 0.921699 0.894123
O O7 0.565647 0.931435 0.143679
O O8 0.385127 0.854121 0.055214
O O9 0.565536 0.423284 0.393685
O O10 0.065246 0.433489 0.643748
O O11 0.363360 0.500035 0.294350
O O12 0.000000 0.548668 0.250000
O O13 0.500000 0.951630 0.250000
O O14 0.500000 0.263329 0.750000
O O15 0.386717 0.224739 0.832936
O O16 0.500000 0.670510 0.750000
#
# Coordination Sequence:
#
# PCOD9262947 Si02
#       7
#     8   8   8   8   8   8   8
#     4  10  22  38  57  83 113 146 184 233 288 339
#     4  10  19  33  58  84 110 151 194 232 279 338
#     4  10  19  34  57  84 117 151 186 235 285 334
#     4   9  18  31  50  85 120 146 188 242 285 322
#     4   9  16  29  54  83 112 149 193 236 276 323
#     4  10  21  39  60  81 108 143 190 235 280 340
#     4  10  21  38  59  83 111 145 190 238 284 339
#
# _framework density 22.395437999999999
#
# number of rings (size 3 to 8) (size 9 to 14) (size 15 to 20)
#    0.000    2.286    0.000    3.429    0.000    6.286 
#    0.000   13.571    0.000    9.429    0.000    0.000 
#    0.000    0.000    0.000    0.000    0.000    0.000 
#
# Total GULP energy -156387.452409 kJ/mol
# GULP energy per Si atom -5585.266157 kJ/mol
# Density = 2.234447 g / cm^3
# Si number density = 22.395438 Si / 1000 Ang^3
#
#
#
# Elastic Constant Matrix: (Units=GPa)
#
#
# Indices 1 2 3 4 5 6 
#
# 1 36.2039 10.7027 24.2576 0.0000 -8.9218 0.0000
# 2 10.7027 136.4450 50.8398 0.0000 -8.6896 0.0000
# 3 24.2576 50.8398 113.0812 0.0002 -6.5030 -0.0001
# 4 0.0000 0.0000 0.0002 15.3301 -0.0001 9.3098
# 5 -8.9218 -8.6896 -6.5030 -0.0001 10.6297 0.0000
# 6 0.0000 0.0000 -0.0001 9.3098 0.0000 9.0122
#
#
#
# Elastic Compliance Matrix: (Units=1/GPa)
#
#
# Indices 1 2 3 4 5 6 
#
# 1 0.039529 0.001589 -0.007474 0.000001 0.029904 -0.000001
# 2 0.001589 0.009126 -0.004082 0.000000 0.006297 0.000000
# 3 -0.007474 -0.004082 0.012157 -0.000001 -0.002173 0.000001
# 4 0.000001 0.000000 -0.000001 0.175041 0.000002 -0.180822
# 5 0.029904 0.006297 -0.002173 0.000002 0.122994 -0.000002
# 6 -0.000001 0.000000 0.000001 -0.180822 -0.000002 0.297754
#
#
# Mechanical properties :
#
#
# Convention : Reuss Voigt Hill
#
# Bulk Modulus (GPa) = 24.46337 50.81445 37.63891
# Shear Modulus (GPa) = 7.24469 20.32306 13.78387
#
# Velocity S-wave (km/s) = 1.80053 3.01568 2.48357
# Velocity P-wave (km/s) = 3.90764 5.90463 5.00671
#
# Compressibility (1/GPa) = 0.04087745
#
# Stress axis : x y z
#
# Youngs Moduli (GPa) = 25.29802 109.57440 82.25963
#
# Poissons Ratio (x) = -0.17408 0.61481
# Poissons Ratio (y) = -0.04019 0.33576
# Poissons Ratio (z) = 0.18908 0.44725
#
# Static dielectric constant tensor:
#      x y z
#    x 1.916650 0.000000 0.045200 
#    y 0.000000 1.782860 0.000000 
#    z 0.045200 0.000000 1.836200 
# 
# From -- ./inp_files/234955.got.cif
#   From: 2010.05.17/outbox.cif.g08.bks.cpg/sg15_118_cif.got.tgz:234955.got - 2010.06.03 18:47:42.
