data_PCOD9262337
_publ_section_title
;
Structure prediction by ZEFSAII (Michael W. Deem and Ramdas Pophale) SiO2 
 PCOD9262337
Probable space group: C 2/C
;
_chemical_formula_sum "Si O2"
_cell_formula_units_Z 40
_cell_length_a 18.070296
_cell_length_b 10.841081
_cell_length_c 15.108256
_cell_angle_alpha 90.000000
_cell_angle_beta 31.006140
_cell_angle_gamma 90.000000
_cell_volume 1524.645842
_symmetry_space_group_name_H-M "C 2/C"
_symmetry_group_IT_number 15
_symmetry_cell_setting 'monoclinic'
loop_
_space_group_symop_operation_xyz
x,y,z
-x,y,1/2-z
-x,-y,-z
x,-y,1/2+z
1/2+x,1/2+y,z
1/2-x,1/2+y,1/2-z
1/2-x,1/2-y,-z
1/2+x,1/2-y,1/2+z
loop_
_atom_site_type_symbol
_atom_site_label
_atom_site_fract_x
_atom_site_fract_y
_atom_site_fract_z
Si Si1 0.469878 0.740111 0.176416
Si Si2 0.293277 0.157581 0.160499
Si Si3 0.866568 0.993531 0.540182
Si Si4 0.153148 0.574331 0.108795
Si Si5 0.861180 0.181752 0.761352
O O1 0.500000 0.741202 0.250000
O O2 0.307294 0.716266 0.312536
O O3 0.548653 0.619822 0.054558
O O4 0.548094 0.851020 0.043368
O O5 0.219838 0.038949 0.281874
O O6 0.304348 0.251668 0.231986
O O7 0.755903 0.992389 0.572646
O O8 0.987525 0.887212 0.404881
O O9 0.120859 0.706226 0.187529
O O10 0.000000 0.514427 0.250000
O O11 0.243413 0.594278 0.927501
#
# Coordination Sequence:
#
# PCOD9262337 Si02
#       5
#     8   8   8   8   8
#     4  12  26  48  72 100 138 190 237 283 347 419
#     4  11  24  42  71 101 136 184 233 289 340 414
#     4  11  23  44  70 102 137 186 232 282 354 419
#     4  10  19  32  62 105 141 174 218 292 349 403
#     4  10  19  35  63  98 140 178 222 278 352 412
#
# _framework density 26.235602
#
# number of rings (size 3 to 8) (size 9 to 14) (size 15 to 20)
#    0.000    1.200    2.000    6.600    2.800    0.000 
#    0.000    6.000    0.000    0.000    0.000    0.000 
#    0.000    0.000    0.000    0.000    0.000    0.000 
#
# Total GULP energy -112207.298748 kJ/mol
# GULP energy per Si atom -5610.364937 kJ/mol
# Density = 2.617589 g / cm^3
# Si number density = 26.235602 Si / 1000 Ang^3
#
#
#
# Elastic Constant Matrix: (Units=GPa)
#
#
# Indices 1 2 3 4 5 6 
#
# 1 181.5647 -4.5097 26.1094 0.0000 5.0837 0.0000
# 2 -4.5097 83.3763 24.5675 0.0000 9.3603 0.0000
# 3 26.1094 24.5675 80.2104 0.0000 17.1965 0.0000
# 4 0.0000 0.0000 0.0000 44.8167 0.0000 1.8318
# 5 5.0837 9.3603 17.1965 0.0000 64.8199 0.0000
# 6 0.0000 0.0000 0.0000 1.8318 0.0000 10.3154
#
#
#
# Elastic Compliance Matrix: (Units=1/GPa)
#
#
# Indices 1 2 3 4 5 6 
#
# 1 0.005848 0.000965 -0.002196 0.000000 -0.000015 0.000000
# 2 0.000965 0.013391 -0.004225 0.000000 -0.000888 0.000000
# 3 -0.002196 -0.004225 0.015171 0.000000 -0.003243 0.000000
# 4 0.000000 0.000000 0.000000 0.022476 0.000000 -0.003991
# 5 -0.000015 -0.000888 -0.003243 0.000000 0.016417 0.000000
# 6 0.000000 0.000000 0.000000 -0.003991 0.000000 0.097651
#
#
# Mechanical properties :
#
#
# Convention : Reuss Voigt Hill
#
# Bulk Modulus (GPa) = 42.55656 48.60953 45.58305
# Shear Modulus (GPa) = 26.35758 43.92267 35.14013
#
# Velocity S-wave (km/s) = 3.17306 4.09609 3.66376
# Velocity P-wave (km/s) = 5.44799 6.39835 5.94220
#
# Compressibility (1/GPa) = 0.02349814
#
# Stress axis : x y z
#
# Youngs Moduli (GPa) = 171.00323 74.67863 65.91419
#
# Poissons Ratio (x) = -0.07207 0.14473
# Poissons Ratio (y) = -0.16503 0.27849
# Poissons Ratio (z) = 0.37549 0.31552
#
# Static dielectric constant tensor:
#      x y z
#    x 1.990910 0.000000 0.002380 
#    y 0.000000 2.103040 0.000000 
#    z 0.002380 0.000000 2.013330 
# 
# From -- ./inp_files/162428.got.cif
#   From: 2010.05.17/outbox.cif.g08.bks.cpg/sg15_82_cif.got.tgz:162428.got - 2010.06.03 18:47:42.
