data_PCOD9262535
_publ_section_title
;
Structure prediction by ZEFSAII (Michael W. Deem and Ramdas Pophale) SiO2 
 PCOD9262535
Probable space group: C 2/C
;
_chemical_formula_sum "Si O2"
_cell_formula_units_Z 56
_cell_length_a 6.279002
_cell_length_b 23.896731
_cell_length_c 24.000656
_cell_angle_alpha 90.000000
_cell_angle_beta 119.916959
_cell_angle_gamma 90.000000
_cell_volume 3121.372930
_symmetry_space_group_name_H-M "C 2/C"
_symmetry_group_IT_number 15
_symmetry_cell_setting 'monoclinic'
loop_
_space_group_symop_operation_xyz
x,y,z
-x,y,1/2-z
-x,-y,-z
x,-y,1/2+z
1/2+x,1/2+y,z
1/2-x,1/2+y,1/2-z
1/2-x,1/2-y,-z
1/2+x,1/2-y,1/2+z
loop_
_atom_site_type_symbol
_atom_site_label
_atom_site_fract_x
_atom_site_fract_y
_atom_site_fract_z
Si Si1 0.000000 0.558721 0.750000
Si Si2 0.860238 0.196048 0.352985
Si Si3 0.487297 0.122104 0.360558
Si Si4 0.679790 0.709468 0.906805
Si Si5 0.079298 0.705990 0.051813
Si Si6 0.988327 0.896916 0.181720
Si Si7 0.253079 0.508583 0.185580
Si Si8 0.000000 0.819717 0.750000
O O1 0.230234 0.594982 0.798981
O O2 0.091833 0.520380 0.712082
O O3 0.709420 0.139022 0.347593
O O4 0.708098 0.244991 0.361920
O O5 0.131814 0.194860 0.415132
O O6 0.903610 0.209185 0.293683
O O7 0.529018 0.156691 0.422805
O O8 0.236859 0.146525 0.301645
O O9 0.412998 0.057847 0.360912
O O10 0.477579 0.736028 0.922531
O O11 0.625426 0.650873 0.870877
O O12 0.929332 0.707155 0.975299
O O13 0.849817 0.957120 0.160219
O O14 0.000000 0.883705 0.250000
O O15 0.500000 0.529831 0.250000
#
# Coordination Sequence:
#
# PCOD9262535 Si02
#       8
#     4   8   8   8   8   8   8   4
#     4   8  18  32  51  78 102 137 174 212 268 318
#     4  10  21  33  53  81 109 141 181 221 280 321
#     4  10  19  33  53  80 112 138 173 225 271 326
#     4  10  20  39  57  72 110 148 182 227 265 326
#     4   9  21  36  55  80 102 145 189 221 270 322
#     4   9  20  35  53  80 104 138 183 217 268 319
#     4   9  18  33  54  78 107 141 177 216 271 325
#     4  10  20  32  49  84 110 133 172 218 272 320
#
# _framework density 17.940823000000002
#
# number of rings (size 3 to 8) (size 9 to 14) (size 15 to 20)
#    0.000    2.857    0.714    0.857    2.000    6.857 
#    0.000    4.286    0.000    1.714    0.000    0.000 
#    0.000    0.000    0.000    0.000    0.000    0.000 
#
# Total GULP energy -155894.960177 kJ/mol
# GULP energy per Si atom -5567.677149 kJ/mol
# Density = 1.789999 g / cm^3
# Si number density = 17.940823 Si / 1000 Ang^3
#
#
#
# Elastic Constant Matrix: (Units=GPa)
#
#
# Indices 1 2 3 4 5 6 
#
# 1 87.4542 22.0193 18.6699 0.0000 8.4733 0.0000
# 2 22.0193 99.4903 40.1381 0.0000 -0.4657 0.0000
# 3 18.6699 40.1381 62.0623 0.0000 -4.7763 0.0000
# 4 0.0000 0.0000 0.0000 29.5171 0.0000 11.4677
# 5 8.4733 -0.4657 -4.7763 0.0000 16.6103 0.0000
# 6 0.0000 0.0000 0.0000 11.4677 0.0000 6.1714
#
#
#
# Elastic Compliance Matrix: (Units=1/GPa)
#
#
# Indices 1 2 3 4 5 6 
#
# 1 0.013362 -0.001525 -0.003642 0.000000 -0.007906 0.000000
# 2 -0.001525 0.013852 -0.008601 0.000000 -0.001307 0.000000
# 3 -0.003642 -0.008601 0.023413 0.000000 0.008349 0.000000
# 4 0.000000 0.000000 0.000000 0.121837 0.000000 -0.226399
# 5 -0.007906 -0.001307 0.008349 0.000000 0.066601 0.000000
# 6 0.000000 0.000000 0.000000 -0.226399 0.000000 0.582734
#
#
# Mechanical properties :
#
#
# Convention : Reuss Voigt Hill
#
# Bulk Modulus (GPa) = 43.30371 45.62905 44.46638
# Shear Modulus (GPa) = 5.83408 21.67173 13.75291
#
# Velocity S-wave (km/s) = 1.80524 3.47934 2.77170
# Velocity P-wave (km/s) = 5.34178 6.45208 5.92300
#
# Compressibility (1/GPa) = 0.02309271
#
# Stress axis : x y z
#
# Youngs Moduli (GPa) = 74.83904 72.18914 42.71067
#
# Poissons Ratio (x) = 0.11009 0.15554
# Poissons Ratio (y) = 0.11414 0.36734
# Poissons Ratio (z) = 0.27255 0.62088
#
# Static dielectric constant tensor:
#      x y z
#    x 1.654490 0.000000 -0.006980 
#    y 0.000000 1.640290 0.000000 
#    z -0.006980 0.000000 1.606730 
# 
# From -- ./inp_files/261587.got.cif
#   From: 2010.05.17/outbox.cif.g08.bks.cpg/sg15_131_cif.got.tgz:261587.got - 2010.06.03 18:47:42.
