data_PCOD9262066
_publ_section_title
;
Structure prediction by ZEFSAII (Michael W. Deem and Ramdas Pophale) SiO2 
 PCOD9262066
Probable space group: C 2/C
;
_chemical_formula_sum "Si O2"
_cell_formula_units_Z 48
_cell_length_a 16.908874
_cell_length_b 18.378216
_cell_length_c 9.307870
_cell_angle_alpha 90.000000
_cell_angle_beta 61.715650
_cell_angle_gamma 90.000000
_cell_volume 2547.125775
_symmetry_space_group_name_H-M "C 2/C"
_symmetry_group_IT_number 15
_symmetry_cell_setting 'monoclinic'
loop_
_space_group_symop_operation_xyz
x,y,z
-x,y,1/2-z
-x,-y,-z
x,-y,1/2+z
1/2+x,1/2+y,z
1/2-x,1/2+y,1/2-z
1/2-x,1/2-y,-z
1/2+x,1/2-y,1/2+z
loop_
_atom_site_type_symbol
_atom_site_label
_atom_site_fract_x
_atom_site_fract_y
_atom_site_fract_z
Si Si1 0.237641 0.924376 0.557315
Si Si2 0.899700 0.324429 0.524818
Si Si3 0.258404 0.067465 0.701367
Si Si4 0.533383 0.071367 0.055884
Si Si5 0.233510 0.769822 0.176715
Si Si6 0.157655 0.225353 0.158652
O O1 0.329492 0.888401 0.540571
O O2 0.256575 0.941288 0.374691
O O3 0.161670 0.861677 0.640596
O O4 0.216436 0.997393 0.661423
O O5 0.847474 0.277737 0.689733
O O6 0.910595 0.271291 0.378540
O O7 0.987405 0.360916 0.514209
O O8 0.359557 0.073831 0.552502
O O9 0.213374 0.145017 0.709854
O O10 0.500000 0.069072 0.250000
O O11 0.500000 0.000000 0.000000
O O12 0.321723 0.750681 0.197649
O O13 0.250000 0.750000 0.000000
O O14 0.250000 0.250000 0.000000
#
# Coordination Sequence:
#
# PCOD9262066 Si02
#       6
#     8   8   8   8   8   8
#     4  10  20  32  51  77 104 148 178 225 269 324
#     4  10  19  39  49  64 113 153 180 218 264 332
#     4  12  21  33  51  79 111 139 186 218 278 329
#     4  12  25  34  49  80 116 150 176 218 281 340
#     4  10  19  32  53  72  98 144 186 233 257 317
#     4   8  16  35  50  65  99 149 183 215 267 309
#
# _framework density 18.844771000000001
#
# number of rings (size 3 to 8) (size 9 to 14) (size 15 to 20)
#    0.000    2.000    6.667    2.000    4.667    0.000 
#    0.000    0.000    0.000    0.000    0.000    0.000 
#    0.000   26.667    0.000    0.000    0.000    0.000 
#
# Total GULP energy -133880.136898 kJ/mol
# GULP energy per Si atom -5578.339037 kJ/mol
# Density = 1.880188 g / cm^3
# Si number density = 18.844771 Si / 1000 Ang^3
#
#
#
# Elastic Constant Matrix: (Units=GPa)
#
#
# Indices 1 2 3 4 5 6 
#
# 1 35.0872 29.9776 29.0845 0.0000 8.3476 0.0000
# 2 29.9776 154.8799 63.3726 0.0000 18.3249 0.0000
# 3 29.0845 63.3726 117.4507 0.0000 35.2446 0.0000
# 4 0.0000 0.0000 0.0000 36.1279 0.0000 12.8120
# 5 8.3476 18.3249 35.2446 0.0000 27.4045 0.0000
# 6 0.0000 0.0000 0.0000 12.8120 0.0000 30.8975
#
#
#
# Elastic Compliance Matrix: (Units=1/GPa)
#
#
# Indices 1 2 3 4 5 6 
#
# 1 0.038184 -0.004516 -0.007222 0.000000 0.000677 0.000000
# 2 -0.004516 0.008822 -0.003720 0.000000 0.000261 0.000000
# 3 -0.007222 -0.003720 0.017756 0.000000 -0.018148 0.000000
# 4 0.000000 0.000000 0.000000 0.032451 0.000000 -0.013456
# 5 0.000677 0.000261 -0.018148 0.000000 0.059450 0.000000
# 6 0.000000 0.000000 0.000000 -0.013456 0.000000 0.037945
#
#
# Mechanical properties :
#
#
# Convention : Reuss Voigt Hill
#
# Bulk Modulus (GPa) = 29.54562 61.36526 45.45544
# Shear Modulus (GPa) = 21.11437 31.21818 26.16627
#
# Velocity S-wave (km/s) = 3.35092 4.07455 3.73032
# Velocity P-wave (km/s) = 5.53932 7.40069 6.53660
#
# Compressibility (1/GPa) = 0.03384597
#
# Stress axis : x y z
#
# Youngs Moduli (GPa) = 26.18891 113.35385 56.31995
#
# Poissons Ratio (x) = 0.51186 0.40675
# Poissons Ratio (y) = 0.11826 0.20951
# Poissons Ratio (z) = 0.18914 0.42168
#
# Static dielectric constant tensor:
#      x y z
#    x 1.697000 0.000000 0.015520 
#    y 0.000000 1.678160 0.000000 
#    z 0.015520 0.000000 1.656670 
# 
# From -- ./inp_files/55239.got.cif
#   From: 2010.05.17/outbox.cif.g08.bks.cpg/sg15_28_cif.got.tgz:55239.got - 2010.06.03 18:47:42.
