data_PCOD9262692
_publ_section_title
;
Structure prediction by ZEFSAII (Michael W. Deem and Ramdas Pophale) SiO2 
 PCOD9262692
Probable space group: C 2/C
;
_chemical_formula_sum "Si O2"
_cell_formula_units_Z 56
_cell_length_a 8.409265
_cell_length_b 30.239442
_cell_length_c 14.777051
_cell_angle_alpha 90.000000
_cell_angle_beta 125.878317
_cell_angle_gamma 90.000000
_cell_volume 3044.709438
_symmetry_space_group_name_H-M "C 2/C"
_symmetry_group_IT_number 15
_symmetry_cell_setting 'monoclinic'
loop_
_space_group_symop_operation_xyz
x,y,z
-x,y,1/2-z
-x,-y,-z
x,-y,1/2+z
1/2+x,1/2+y,z
1/2-x,1/2+y,1/2-z
1/2-x,1/2-y,-z
1/2+x,1/2-y,1/2+z
loop_
_atom_site_type_symbol
_atom_site_label
_atom_site_fract_x
_atom_site_fract_y
_atom_site_fract_z
Si Si1 0.500000 0.522231 0.250000
Si Si2 0.217453 0.273718 0.852435
Si Si3 0.891440 0.435317 0.855933
Si Si4 0.091159 0.308851 0.004808
Si Si5 0.748167 0.402473 0.409396
Si Si6 0.500000 0.988974 0.250000
Si Si7 0.781644 0.156951 0.216177
Si Si8 0.366601 0.556052 0.820963
O O1 0.309074 0.550000 0.163714
O O2 0.541689 0.490666 0.179075
O O3 0.182369 0.297653 0.936741
O O4 0.285779 0.308533 0.800061
O O5 0.000000 0.257045 0.750000
O O6 0.367106 0.233634 0.919415
O O7 0.954999 0.476734 0.815720
O O8 0.824874 0.388823 0.787933
O O9 0.067716 0.424732 0.981108
O O10 0.866382 0.322606 0.909020
O O11 0.205680 0.350946 0.081700
O O12 0.720186 0.423290 0.300890
O O13 0.552327 0.412924 0.403010
O O14 0.311700 0.957110 0.173798
O O15 0.000000 0.149741 0.250000
#
# Coordination Sequence:
#
# PCOD9262692 Si02
#       8
#     4   8   8   8   8   4   8   8
#     4   8  16  32  50  72 100 134 174 206 266 318
#     4   9  19  34  57  82 112 134 181 224 262 317
#     4  10  19  33  55  79 104 143 175 223 271 314
#     4   9  19  35  56  85 101 146 183 216 268 321
#     4   9  19  34  57  74 106 139 184 215 268 325
#     4  10  22  34  54  76 114 134 182 228 270 320
#     4  10  20  34  55  82 114 140 176 223 268 321
#     4   9  20  36  51  78 103 141 178 224 263 325
#
# _framework density 18.39256
#
# number of rings (size 3 to 8) (size 9 to 14) (size 15 to 20)
#    0.000    2.857    0.714    0.000    7.000    6.286 
#    0.000    4.286    1.571    0.000    0.000    0.000 
#    0.000    0.000    0.000    0.000    0.000    0.000 
#
# Total GULP energy -155894.755290 kJ/mol
# GULP energy per Si atom -5567.669832 kJ/mol
# Density = 1.835070 g / cm^3
# Si number density = 18.392560 Si / 1000 Ang^3
#
#
#
# Elastic Constant Matrix: (Units=GPa)
#
#
# Indices 1 2 3 4 5 6 
#
# 1 84.1546 33.1313 33.9488 0.0000 28.8622 0.0000
# 2 33.1313 98.5221 48.0136 0.0000 14.3428 0.0000
# 3 33.9488 48.0136 64.9273 0.0000 18.5340 0.0000
# 4 0.0000 0.0000 0.0000 24.3148 0.0000 9.7958
# 5 28.8622 14.3428 18.5340 0.0000 23.5916 0.0000
# 6 0.0000 0.0000 0.0000 9.7958 0.0000 -38.1857
#
#
#
# Elastic Compliance Matrix: (Units=1/GPa)
#
#
# Indices 1 2 3 4 5 6 
#
# 1 0.021997 -0.002570 -0.003049 0.000000 -0.022953 0.000000
# 2 -0.002570 0.016175 -0.011225 0.000000 0.002129 0.000000
# 3 -0.003049 -0.011225 0.028726 0.000000 -0.012013 0.000000
# 4 0.000000 0.000000 0.000000 0.037275 0.000000 0.009562
# 5 -0.022953 0.002129 -0.012013 0.000000 0.078613 0.000000
# 6 0.000000 0.000000 0.000000 0.009562 0.000000 -0.023735
#
#
# Mechanical properties :
#
#
# Convention : Reuss Voigt Hill
#
# Bulk Modulus (GPa) = 30.11143 53.08791 41.59967
# Shear Modulus (GPa) = 24.53279 10.77817 17.65548
#
# Velocity S-wave (km/s) = 3.65614 2.42338 3.10163
# Velocity P-wave (km/s) = 5.85066 6.06274 5.95765
#
# Compressibility (1/GPa) = 0.03320998
#
# Stress axis : x y z
#
# Youngs Moduli (GPa) = 45.46110 61.82491 34.81115
#
# Poissons Ratio (x) = 0.15887 0.10614
# Poissons Ratio (y) = 0.11682 0.39076
# Poissons Ratio (z) = 0.13861 0.69400
#
# Static dielectric constant tensor:
#      x y z
#    x 1.655610 0.000000 0.016410 
#    y 0.000000 1.647340 0.000000 
#    z 0.016410 0.000000 1.631190 
# 
# From -- ./inp_files/139613.got.cif
#   From: 2010.05.17/outbox.cif.g08.bks.cpg/sg15_70_cif.got.tgz:139613.got - 2010.06.03 18:47:42.
