data_PCOD9262448
_publ_section_title
;
Structure prediction by ZEFSAII (Michael W. Deem and Ramdas Pophale) SiO2 
 PCOD9262448
Probable space group: C 2/C
;
_chemical_formula_sum "Si O2"
_cell_formula_units_Z 64
_cell_length_a 13.616368
_cell_length_b 27.770487
_cell_length_c 14.892529
_cell_angle_alpha 90.000000
_cell_angle_beta 147.100296
_cell_angle_gamma 90.000000
_cell_volume 3058.786014
_symmetry_space_group_name_H-M "C 2/C"
_symmetry_group_IT_number 15
_symmetry_cell_setting 'monoclinic'
loop_
_space_group_symop_operation_xyz
x,y,z
-x,y,1/2-z
-x,-y,-z
x,-y,1/2+z
1/2+x,1/2+y,z
1/2-x,1/2+y,1/2-z
1/2-x,1/2-y,-z
1/2+x,1/2-y,1/2+z
loop_
_atom_site_type_symbol
_atom_site_label
_atom_site_fract_x
_atom_site_fract_y
_atom_site_fract_z
Si Si1 0.742198 0.087805 0.030097
Si Si2 0.230320 0.291152 0.841052
Si Si3 0.164829 0.605538 0.588200
Si Si4 0.182982 0.421127 0.287398
Si Si5 0.240543 0.124044 0.269398
Si Si6 0.795574 0.974682 0.073045
Si Si7 0.198719 0.303188 0.020560
Si Si8 0.193144 0.975250 0.626673
O O1 0.819594 0.119164 0.171968
O O2 0.780076 0.031601 0.078759
O O3 0.525301 0.094128 0.863905
O O4 0.787925 0.092104 0.959114
O O5 0.312435 0.329222 0.832016
O O6 0.286418 0.297868 0.989031
O O7 0.015526 0.299150 0.664547
O O8 0.262321 0.233539 0.867050
O O9 0.260458 0.601974 0.757263
O O10 0.166281 0.554885 0.538651
O O11 0.255054 0.644397 0.594927
O O12 0.959655 0.623250 0.442715
O O13 0.177251 0.478378 0.262503
O O14 0.201519 0.073202 0.190332
O O15 0.000000 0.960137 0.250000
O O16 0.769894 0.963217 0.948920
O O17 0.000000 0.000000 0.500000
#
# Coordination Sequence:
#
# PCOD9262448 Si02
#       8
#     8   8   8   8   8   8   8   8
#     4   9  18  32  51  70  97 135 172 207 242 297
#     4   9  18  34  53  75  99 130 166 209 264 310
#     4  10  19  33  52  74  99 133 174 210 252 302
#     4   9  18  32  49  72  98 131 172 206 247 292
#     4  10  19  33  54  72  98 136 175 207 248 309
#     4  11  21  32  46  72 106 138 169 209 252 299
#     4   9  18  34  52  75 101 128 165 213 260 314
#     4  11  21  32  46  72 107 137 170 206 247 299
#
# _framework density 20.923333
#
# number of rings (size 3 to 8) (size 9 to 14) (size 15 to 20)
#    0.000    2.250    0.000    3.750    0.000    4.500 
#    9.000    0.000    0.000    0.750    0.000    0.000 
#    0.000    0.000    0.000    0.000    0.000    0.000 
#
# Total GULP energy -178209.075631 kJ/mol
# GULP energy per Si atom -5569.033613 kJ/mol
# Density = 2.087571 g / cm^3
# Si number density = 20.923333 Si / 1000 Ang^3
#
#
#
# Elastic Constant Matrix: (Units=GPa)
#
#
# Indices 1 2 3 4 5 6 
#
# 1 64.7046 14.3821 25.1256 0.0000 -29.5858 0.0000
# 2 14.3821 54.3415 41.2404 0.0000 -32.1508 0.0000
# 3 25.1256 41.2404 56.9779 0.0000 -23.5088 0.0000
# 4 0.0000 0.0000 0.0000 -13.3726 0.0000 -10.4338
# 5 -29.5858 -32.1508 -23.5088 0.0000 32.7005 0.0000
# 6 0.0000 0.0000 0.0000 -10.4338 0.0000 23.6772
#
#
#
# Elastic Compliance Matrix: (Units=1/GPa)
#
#
# Indices 1 2 3 4 5 6 
#
# 1 0.052786 0.059753 -0.032105 0.000000 0.083427 0.000000
# 2 0.059753 0.136451 -0.067465 0.000000 0.139717 0.000000
# 3 -0.032105 -0.067465 0.058555 0.000000 -0.053282 0.000000
# 4 0.000000 0.000000 0.000000 -0.055647 0.000000 -0.024522
# 5 0.083427 0.139717 -0.053282 0.000000 0.205124 0.000000
# 6 0.000000 0.000000 0.000000 -0.024522 0.000000 0.031429
#
#
# Mechanical properties :
#
#
# Convention : Reuss Voigt Hill
#
# Bulk Modulus (GPa) = 5.94677 37.50224 21.72451
# Shear Modulus (GPa) = 8.85921 14.95274 11.90597
#
# Velocity S-wave (km/s) = 2.05993 2.67618 2.38802
# Velocity P-wave (km/s) = 2.91652 5.24517 4.24370
#
# Compressibility (1/GPa) = 0.16815841
#
# Stress axis : x y z
#
# Youngs Moduli (GPa) = 18.94426 7.32866 17.07799
#
# Poissons Ratio (x) = -0.43791 0.54829
# Poissons Ratio (y) = -1.13198 1.15217
# Poissons Ratio (z) = 0.60820 0.49443
#
# Static dielectric constant tensor:
#      x y z
#    x 1.788520 0.000000 -0.003740 
#    y 0.000000 1.784810 0.000000 
#    z -0.003740 0.000000 1.760290 
# 
# From -- ./inp_files/157097.got.cif
#   From: 2010.05.17/outbox.cif.g08.bks.cpg/sg15_79_cif.got.tgz:157097.got - 2010.06.03 18:47:42.
