data_PCOD9262008
_publ_section_title
;
Structure prediction by ZEFSAII (Michael W. Deem and Ramdas Pophale) SiO2 
 PCOD9262008
Probable space group: C 2/C
;
_chemical_formula_sum "Si O2"
_cell_formula_units_Z 64
_cell_length_a 17.224498
_cell_length_b 22.046544
_cell_length_c 16.142691
_cell_angle_alpha 90.000000
_cell_angle_beta 32.722635
_cell_angle_gamma 90.000000
_cell_volume 3313.730256
_symmetry_space_group_name_H-M "C 2/C"
_symmetry_group_IT_number 15
_symmetry_cell_setting 'monoclinic'
loop_
_space_group_symop_operation_xyz
x,y,z
-x,y,1/2-z
-x,-y,-z
x,-y,1/2+z
1/2+x,1/2+y,z
1/2-x,1/2+y,1/2-z
1/2-x,1/2-y,-z
1/2+x,1/2-y,1/2+z
loop_
_atom_site_type_symbol
_atom_site_label
_atom_site_fract_x
_atom_site_fract_y
_atom_site_fract_z
Si Si1 0.636371 0.936754 0.377419
Si Si2 0.301425 0.938023 0.669635
Si Si3 0.829425 0.191799 0.392637
Si Si4 0.650933 0.192934 0.068630
Si Si5 0.804931 0.306576 0.667148
Si Si6 0.669774 0.558046 0.106820
Si Si7 0.150644 0.441673 0.566607
Si Si8 0.364045 0.804583 0.113541
O O1 0.471710 0.937694 0.494667
O O2 0.631904 0.942277 0.482598
O O3 0.695039 0.870173 0.304569
O O4 0.716605 0.996414 0.271672
O O5 0.282974 0.872787 0.729465
O O6 0.209221 0.939430 0.668998
O O7 0.750000 0.250000 0.500000
O O8 0.782619 0.190643 0.339253
O O9 0.788993 0.124960 0.464590
O O10 0.000000 0.198299 0.250000
O O11 0.500000 0.199127 0.250000
O O12 0.711620 0.125366 0.033367
O O13 0.750000 0.250000 0.000000
O O14 0.618830 0.192675 0.000162
O O15 0.740812 0.250226 0.773032
O O16 0.974060 0.297209 0.497694
O O17 0.500000 0.550700 0.250000
O O18 0.752922 0.499670 0.997803
O O19 0.000000 0.446650 0.750000
#
# Coordination Sequence:
#
# PCOD9262008 Si02
#       8
#     8   8   8   8   8   8   8   8
#     4   8  15  30  52  73  94 126 168 204 240 287
#     4   8  15  30  52  69  90 126 164 198 238 288
#     4  10  20  34  51  73 103 135 168 209 254 301
#     4  10  20  34  52  76 105 134 167 208 252 298
#     4  10  19  32  52  74  98 131 168 204 248 297
#     4   9  18  32  50  72  98 129 163 202 254 303
#     4   9  18  32  51  74  98 128 168 208 242 290
#     4  10  19  32  52  76 101 131 167 206 246 296
#
# _framework density 19.313580999999999
#
# number of rings (size 3 to 8) (size 9 to 14) (size 15 to 20)
#    0.000    2.750    0.000    1.500    0.000    2.000 
#    0.000    5.000    0.000    1.500    0.000    0.000 
#    0.000    0.000    0.000    0.000    0.000    0.000 
#
# Total GULP energy -178158.804861 kJ/mol
# GULP energy per Si atom -5567.462652 kJ/mol
# Density = 1.926962 g / cm^3
# Si number density = 19.313581 Si / 1000 Ang^3
#
#
#
# Elastic Constant Matrix: (Units=GPa)
#
#
# Indices 1 2 3 4 5 6 
#
# 1 39.8603 16.1101 0.0541 -0.0029 -21.4890 -0.0008
# 2 16.1101 240.8965 67.7639 -0.0068 -14.3948 0.0040
# 3 0.0541 67.7639 31.9256 -0.0113 -8.5524 0.0036
# 4 -0.0029 -0.0068 -0.0113 29.8497 0.0038 -4.1997
# 5 -21.4890 -14.3948 -8.5524 0.0038 22.0420 0.0001
# 6 -0.0008 0.0040 0.0036 -4.1997 0.0001 23.5041
#
#
#
# Elastic Compliance Matrix: (Units=1/GPa)
#
#
# Indices 1 2 3 4 5 6 
#
# 1 0.081128 -0.016909 0.060244 0.000015 0.091425 -0.000001
# 2 -0.016909 0.013903 -0.035115 -0.000009 -0.021030 0.000001
# 3 0.060244 -0.035115 0.128725 0.000035 0.085746 -0.000006
# 4 0.000015 -0.000009 0.000035 0.034365 0.000016 0.006140
# 5 0.091425 -0.021030 0.085746 0.000016 0.154035 -0.000004
# 6 -0.000001 0.000001 -0.000006 0.006140 -0.000004 0.043643
#
#
# Mechanical properties :
#
#
# Convention : Reuss Voigt Hill
#
# Bulk Modulus (GPa) = 4.16327 53.39317 28.77822
# Shear Modulus (GPa) = 9.62602 30.32944 19.97773
#
# Velocity S-wave (km/s) = 2.23492 3.96709 3.21968
# Velocity P-wave (km/s) = 2.96987 6.97776 5.36233
#
# Compressibility (1/GPa) = 0.24019600
#
# Stress axis : x y z
#
# Youngs Moduli (GPa) = 12.32623 71.92586 7.76848
#
# Poissons Ratio (x) = 1.21619 -0.46800
# Poissons Ratio (y) = 0.20842 0.27279
# Poissons Ratio (z) = -0.74258 2.52570
#
# Static dielectric constant tensor:
#      x y z
#    x 1.691360 0.000000 0.020590 
#    y 0.000000 1.783530 0.000020 
#    z 0.020590 0.000020 1.668220 
# 
# From -- ./inp_files/211944.got.cif
#   From: 2010.05.17/outbox.cif.g08.bks.cpg/sg15_106_cif.got.tgz:211944.got - 2010.06.03 18:47:42.
