data_PCOD9262980
_publ_section_title
;
Structure prediction by ZEFSAII (Michael W. Deem and Ramdas Pophale) SiO2 
 PCOD9262980
Probable space group: C 2/C
;
_chemical_formula_sum "Si O2"
_cell_formula_units_Z 40
_cell_length_a 7.650544
_cell_length_b 26.632406
_cell_length_c 10.557077
_cell_angle_alpha 90.000000
_cell_angle_beta 45.523201
_cell_angle_gamma 90.000000
_cell_volume 1534.833291
_symmetry_space_group_name_H-M "C 2/C"
_symmetry_group_IT_number 15
_symmetry_cell_setting 'monoclinic'
loop_
_space_group_symop_operation_xyz
x,y,z
-x,y,1/2-z
-x,-y,-z
x,-y,1/2+z
1/2+x,1/2+y,z
1/2-x,1/2+y,1/2-z
1/2-x,1/2-y,-z
1/2+x,1/2-y,1/2+z
loop_
_atom_site_type_symbol
_atom_site_label
_atom_site_fract_x
_atom_site_fract_y
_atom_site_fract_z
Si Si1 0.564480 0.703504 0.562676
Si Si2 0.787587 0.405522 0.965213
Si Si3 0.406599 0.116362 0.943239
Si Si4 0.669167 0.011489 0.538010
Si Si5 0.524316 0.779706 0.384806
O O1 0.750000 0.750000 0.500000
O O2 0.651982 0.646613 0.507274
O O3 0.492662 0.726196 0.463056
O O4 0.306156 0.702518 0.766108
O O5 0.667354 0.461345 0.025023
O O6 0.000000 0.407588 0.750000
O O7 0.892403 0.399703 0.054381
O O8 0.500000 0.122056 0.750000
O O9 0.226816 0.068052 0.031839
O O10 0.359147 0.173257 0.013107
O O11 0.500000 0.015027 0.750000
O O12 0.500000 0.000000 0.500000
O O13 0.500000 0.772997 0.250000
#
# Coordination Sequence:
#
# PCOD9262980 Si02
#       5
#     8   8   8   8   8
#     4  12  23  38  61  93 129 165 215 268 318 382
#     4  10  19  33  58  90 123 160 209 260 317 369
#     4   9  18  34  58  83 121 165 209 247 316 378
#     4   8  15  29  52  83 114 158 203 252 307 372
#     4  11  24  41  61  87 128 174 214 259 321 390
#
# _framework density 26.061461999999999
#
# number of rings (size 3 to 8) (size 9 to 14) (size 15 to 20)
#    0.000    2.000    2.000    2.400    0.000    0.000 
#    0.000    0.000    0.000   19.200    0.000   19.600 
#    0.000    0.000    0.000    0.000    0.000    0.000 
#
# Total GULP energy -111346.534281 kJ/mol
# GULP energy per Si atom -5567.326714 kJ/mol
# Density = 2.600214 g / cm^3
# Si number density = 26.061462 Si / 1000 Ang^3
#
#
#
# Elastic Constant Matrix: (Units=GPa)
#
#
# Indices 1 2 3 4 5 6 
#
# 1 54.4004 55.9644 13.9865 0.0000 3.9881 0.0000
# 2 55.9644 308.7219 33.7868 0.0000 -15.2126 0.0000
# 3 13.9865 33.7868 78.8689 0.0000 9.5394 0.0000
# 4 0.0000 0.0000 0.0000 -25.5311 0.0000 -8.9493
# 5 3.9881 -15.2126 9.5394 0.0000 42.1088 0.0000
# 6 0.0000 0.0000 0.0000 -8.9493 0.0000 6.4005
#
#
#
# Elastic Compliance Matrix: (Units=1/GPa)
#
#
# Indices 1 2 3 4 5 6 
#
# 1 0.023447 -0.004198 -0.001961 0.000000 -0.003293 0.000000
# 2 -0.004198 0.004258 -0.001351 0.000000 0.002242 0.000000
# 3 -0.001961 -0.001351 0.014027 0.000000 -0.003480 0.000000
# 4 0.000000 0.000000 0.000000 -0.026285 0.000000 -0.036752
# 5 -0.003293 0.002242 -0.003480 0.000000 0.025658 0.000000
# 6 0.000000 0.000000 0.000000 -0.036752 0.000000 0.104850
#
#
# Mechanical properties :
#
#
# Convention : Reuss Voigt Hill
#
# Bulk Modulus (GPa) = 37.43750 72.16295 54.80022
# Shear Modulus (GPa) = 29.43278 27.14587 28.28932
#
# Velocity S-wave (km/s) = 3.36424 3.23090 3.29824
# Velocity P-wave (km/s) = 5.43020 6.45507 5.96469
#
# Compressibility (1/GPa) = 0.02671119
#
# Stress axis : x y z
#
# Youngs Moduli (GPa) = 42.65027 234.82466 71.29224
#
# Poissons Ratio (x) = 0.98578 0.13983
# Poissons Ratio (y) = 0.17904 0.09632
# Poissons Ratio (z) = 0.08365 0.31726
#
# Static dielectric constant tensor:
#      x y z
#    x 2.276440 0.000000 0.030950 
#    y 0.000000 2.113350 0.000000 
#    z 0.030950 0.000000 2.135010 
# 
# From -- ./inp_files/24410.got.cif
#   From: 2010.05.17/outbox.cif.g08.bks.cpg/sg15_13_cif.got.tgz:24410.got - 2010.06.03 18:47:42.
