data_PCOD9262422
_publ_section_title
;
Structure prediction by ZEFSAII (Michael W. Deem and Ramdas Pophale) SiO2 
 PCOD9262422
Probable space group: C 2/C
;
_chemical_formula_sum "Si O2"
_cell_formula_units_Z 64
_cell_length_a 15.446001
_cell_length_b 7.105223
_cell_length_c 25.381593
_cell_angle_alpha 90.000000
_cell_angle_beta 65.509454
_cell_angle_gamma 90.000000
_cell_volume 2534.943046
_symmetry_space_group_name_H-M "C 2/C"
_symmetry_group_IT_number 15
_symmetry_cell_setting 'monoclinic'
loop_
_space_group_symop_operation_xyz
x,y,z
-x,y,1/2-z
-x,-y,-z
x,-y,1/2+z
1/2+x,1/2+y,z
1/2-x,1/2+y,1/2-z
1/2-x,1/2-y,-z
1/2+x,1/2-y,1/2+z
loop_
_atom_site_type_symbol
_atom_site_label
_atom_site_fract_x
_atom_site_fract_y
_atom_site_fract_z
Si Si1 0.106249 0.307524 0.053502
Si Si2 0.788961 0.108620 0.797817
Si Si3 0.893586 0.250689 0.979104
Si Si4 0.640535 0.963505 0.760844
Si Si5 0.909987 0.622082 0.624901
Si Si6 0.692178 0.903783 0.139525
Si Si7 0.111560 0.239900 0.935718
Si Si8 0.711943 0.683717 0.594192
O O1 0.101020 0.532283 0.041507
O O2 0.155104 0.292108 0.097544
O O3 0.996104 0.250415 0.086482
O O4 0.143941 0.228537 0.988786
O O5 0.742192 0.972115 0.766998
O O6 0.866547 0.247799 0.755212
O O7 0.690159 0.220590 0.837980
O O8 0.809092 0.041378 0.851971
O O9 0.845060 0.133826 0.944258
O O10 0.000595 0.183918 0.962256
O O11 0.817859 0.263304 0.045783
O O12 0.566868 0.025709 0.824152
O O13 0.644694 0.100508 0.709457
O O14 0.892867 0.450312 0.588433
O O15 0.804853 0.862716 0.116595
O O16 0.675147 0.119626 0.126507
#
# Coordination Sequence:
#
# PCOD9262422 Si02
#       8
#     8   8   8   8   8   8   8   8
#     4  10  19  33  51  79 106 139 182 224 265 322
#     4   9  17  32  53  79 100 137 174 220 265 316
#     4   9  18  31  52  76 104 136 183 217 264 323
#     4   9  19  33  53  77 103 139 181 216 265 316
#     4   9  19  32  56  75 100 141 179 220 263 317
#     4  10  21  32  49  77 110 142 179 222 271 320
#     4  11  19  32  52  81 109 138 179 226 267 325
#     4   9  17  33  51  75 106 141 174 221 269 323
#
# _framework density 25.247115999999998
#
# number of rings (size 3 to 8) (size 9 to 14) (size 15 to 20)
#    0.750    1.750    0.000    4.125    0.000    1.000 
#    0.000    0.000    0.000    2.250    9.750    0.000 
#    0.000    0.000    0.000    0.000    0.000    0.000 
#
# Total GULP energy -178342.078835 kJ/mol
# GULP energy per Si atom -5573.189964 kJ/mol
# Density = 2.518965 g / cm^3
# Si number density = 25.247116 Si / 1000 Ang^3
#
#
#
# Elastic Constant Matrix: (Units=GPa)
#
#
# Indices 1 2 3 4 5 6 
#
# 1 50.5919 11.6763 17.0757 0.0000 16.2192 0.0000
# 2 11.6763 41.0591 22.5982 0.0000 13.6207 0.0000
# 3 17.0757 22.5982 153.2610 0.0000 33.1580 0.0000
# 4 0.0000 0.0000 0.0000 40.2964 0.0000 8.1935
# 5 16.2192 13.6207 33.1580 0.0000 37.7858 0.0000
# 6 0.0000 0.0000 0.0000 8.1935 0.0000 20.9644
#
#
#
# Elastic Compliance Matrix: (Units=1/GPa)
#
#
# Indices 1 2 3 4 5 6 
#
# 1 0.023431 -0.003714 -0.000218 0.000000 -0.008527 0.000000
# 2 -0.003714 0.028969 -0.002399 0.000000 -0.006743 0.000000
# 3 -0.000218 -0.002399 0.008265 0.000000 -0.006294 0.000000
# 4 0.000000 0.000000 0.000000 0.026958 0.000000 -0.010536
# 5 -0.008527 -0.006743 -0.006294 0.000000 0.038079 0.000000
# 6 0.000000 0.000000 0.000000 -0.010536 0.000000 0.051818
#
#
# Mechanical properties :
#
#
# Convention : Reuss Voigt Hill
#
# Bulk Modulus (GPa) = 20.83274 38.62359 29.72816
# Shear Modulus (GPa) = 24.25047 32.71343 28.48195
#
# Velocity S-wave (km/s) = 3.10260 3.60353 3.36240
# Velocity P-wave (km/s) = 4.59394 5.71361 5.18409
#
# Compressibility (1/GPa) = 0.04800137
#
# Stress axis : x y z
#
# Youngs Moduli (GPa) = 42.67933 34.52022 120.99914
#
# Poissons Ratio (x) = 0.12822 0.02638
# Poissons Ratio (y) = 0.15853 0.29024
# Poissons Ratio (z) = 0.00930 0.08280
#
# Static dielectric constant tensor:
#      x y z
#    x 2.098290 0.000000 0.094080 
#    y 0.000000 2.055340 0.000000 
#    z 0.094080 0.000000 2.020000 
# 
# From -- ./inp_files/273625.got.cif
#   From: 2010.05.17/outbox.cif.g08.bks.cpg/sg15_137_cif.got.tgz:273625.got - 2010.06.03 18:47:42.
