data_PCOD9262931
_publ_section_title
;
Structure prediction by ZEFSAII (Michael W. Deem and Ramdas Pophale) SiO2 
 PCOD9262931
Probable space group: C 2/C
;
_chemical_formula_sum "Si O2"
_cell_formula_units_Z 52
_cell_length_a 30.280069
_cell_length_b 13.978013
_cell_length_c 17.929703
_cell_angle_alpha 90.000000
_cell_angle_beta 19.454116
_cell_angle_gamma 90.000000
_cell_volume 2527.477273
_symmetry_space_group_name_H-M "C 2/C"
_symmetry_group_IT_number 15
_symmetry_cell_setting 'monoclinic'
loop_
_space_group_symop_operation_xyz
x,y,z
-x,y,1/2-z
-x,-y,-z
x,-y,1/2+z
1/2+x,1/2+y,z
1/2-x,1/2+y,1/2-z
1/2-x,1/2-y,-z
1/2+x,1/2-y,1/2+z
loop_
_atom_site_type_symbol
_atom_site_label
_atom_site_fract_x
_atom_site_fract_y
_atom_site_fract_z
Si Si1 0.858137 0.487167 0.017426
Si Si2 0.486155 0.214569 0.503822
Si Si3 0.121988 0.929175 0.793734
Si Si4 0.500000 0.264186 0.750000
Si Si5 0.770197 0.845477 0.019139
Si Si6 0.345921 0.842232 0.628293
Si Si7 0.089267 0.276228 0.537321
O O1 0.834141 0.375213 0.067442
O O2 0.000000 0.494764 0.750000
O O3 0.744576 0.537914 0.149522
O O4 0.859283 0.545238 0.092855
O O5 0.432871 0.322785 0.601708
O O6 0.607511 0.193269 0.365116
O O7 0.500301 0.205203 0.392930
O O8 0.369732 0.143786 0.717664
O O9 0.178638 0.925033 0.619305
O O10 0.000000 0.000000 0.000000
O O11 0.381249 0.324350 0.903622
O O12 0.559920 0.203190 0.586110
O O13 0.750000 0.750000 0.000000
O O14 0.198456 0.804168 0.848816
O O15 0.000000 0.251645 0.750000
#
# Coordination Sequence:
#
# PCOD9262931 Si02
#       7
#     8   8   8   4   8   8   8
#     4  11  23  40  66  95 129 172 219 270 331 396
#     4  11  22  40  67  93 130 172 223 274 330 392
#     4  11  21  38  64 100 134 169 216 274 334 398
#     4  12  18  32  68  98 120 162 212 274 322 372
#     4  10  19  33  57  99 126 157 209 268 321 383
#     4  12  21  40  71  95 129 172 217 277 338 387
#     4  11  26  45  62  91 136 178 221 269 336 405
#
# _framework density 20.573874
#
# number of rings (size 3 to 8) (size 9 to 14) (size 15 to 20)
#    0.000    0.923    6.923    2.769    0.000    1.231 
#    0.000    1.538    3.385    0.000    0.000    0.000 
#    0.000    0.000    0.000    0.000    0.000    0.000 
#
# Total GULP energy -145247.791930 kJ/mol
# GULP energy per Si atom -5586.453536 kJ/mol
# Density = 2.052705 g / cm^3
# Si number density = 20.573874 Si / 1000 Ang^3
#
#
#
# Elastic Constant Matrix: (Units=GPa)
#
#
# Indices 1 2 3 4 5 6 
#
# 1 105.8495 -15.9796 22.1292 0.0000 -2.1918 0.0000
# 2 -15.9796 53.2372 20.0398 0.0000 5.6415 0.0000
# 3 22.1292 20.0398 63.3135 0.0000 7.8095 0.0000
# 4 0.0000 0.0000 0.0000 23.3761 0.0000 4.5677
# 5 -2.1918 5.6415 7.8095 0.0000 44.6659 0.0000
# 6 0.0000 0.0000 0.0000 4.5677 0.0000 17.7529
#
#
#
# Elastic Compliance Matrix: (Units=1/GPa)
#
#
# Indices 1 2 3 4 5 6 
#
# 1 0.011549 0.005600 -0.005919 0.000000 0.000894 0.000000
# 2 0.005600 0.024145 -0.009461 0.000000 -0.001121 0.000000
# 3 -0.005919 -0.009461 0.021204 0.000000 -0.002803 0.000000
# 4 0.000000 0.000000 0.000000 0.045043 0.000000 -0.011589
# 5 0.000894 -0.001121 -0.002803 0.000000 0.023064 0.000000
# 6 0.000000 0.000000 0.000000 -0.011589 0.000000 0.059311
#
#
# Mechanical properties :
#
#
# Convention : Reuss Voigt Hill
#
# Bulk Modulus (GPa) = 26.78386 30.53101 28.65744
# Shear Modulus (GPa) = 23.11369 30.23970 26.67669
#
# Velocity S-wave (km/s) = 3.35542 3.83797 3.60478
# Velocity P-wave (km/s) = 5.29703 5.87469 5.59332
#
# Compressibility (1/GPa) = 0.03733591
#
# Stress axis : x y z
#
# Youngs Moduli (GPa) = 86.58925 41.41655 47.16160
#
# Poissons Ratio (x) = -0.23193 0.27916
# Poissons Ratio (y) = -0.48489 0.44621
# Poissons Ratio (z) = 0.51255 0.39186
#
# Static dielectric constant tensor:
#      x y z
#    x 1.759750 0.000000 0.005280 
#    y 0.000000 1.745080 0.000000 
#    z 0.005280 0.000000 1.717340 
# 
# From -- ./inp_files/225470.got.cif
#   From: 2010.05.17/outbox.cif.g08.bks.cpg/sg15_113_cif.got.tgz:225470.got - 2010.06.03 18:47:42.
