data_PCOD9262382
_publ_section_title
;
Structure prediction by ZEFSAII (Michael W. Deem and Ramdas Pophale) SiO2 
 PCOD9262382
Probable space group: C 2/C
;
_chemical_formula_sum "Si O2"
_cell_formula_units_Z 48
_cell_length_a 15.638969
_cell_length_b 4.897208
_cell_length_c 27.221266
_cell_angle_alpha 90.000000
_cell_angle_beta 111.144466
_cell_angle_gamma 90.000000
_cell_volume 1944.441122
_symmetry_space_group_name_H-M "C 2/C"
_symmetry_group_IT_number 15
_symmetry_cell_setting 'monoclinic'
loop_
_space_group_symop_operation_xyz
x,y,z
-x,y,1/2-z
-x,-y,-z
x,-y,1/2+z
1/2+x,1/2+y,z
1/2-x,1/2+y,1/2-z
1/2-x,1/2-y,-z
1/2+x,1/2-y,1/2+z
loop_
_atom_site_type_symbol
_atom_site_label
_atom_site_fract_x
_atom_site_fract_y
_atom_site_fract_z
Si Si1 0.768284 0.572623 0.456352
Si Si2 0.940759 0.055562 0.100635
Si Si3 0.867392 0.916046 0.179853
Si Si4 0.764224 0.090251 0.860592
Si Si5 0.186824 0.211124 0.730177
Si Si6 0.446049 0.092749 0.036479
O O1 0.750000 0.750000 0.500000
O O2 0.667074 0.471010 0.423702
O O3 0.798199 0.772987 0.418008
O O4 0.845766 0.368142 0.490770
O O5 0.951955 0.964502 0.159674
O O6 0.984937 0.863493 0.069141
O O7 0.946785 0.362833 0.080457
O O8 0.784604 0.703397 0.147083
O O9 0.883192 0.826595 0.239497
O O10 0.820330 0.212588 0.171488
O O11 0.834409 0.114235 0.829632
O O12 0.225382 0.518600 0.737550
O O13 0.500000 0.000000 0.000000
#
# Coordination Sequence:
#
# PCOD9262382 Si02
#       6
#     8   8   8   8   8   8
#     4   9  18  31  49  69  93 123 157 190 225 271
#     4  10  19  33  50  69  91 122 158 192 229 276
#     4   9  15  26  43  65  90 117 148 186 229 274
#     4   9  16  25  40  65  93 119 147 185 231 273
#     4   8  14  23  37  60  92 117 138 180 234 272
#     4  11  22  34  47  68  97 126 155 193 234 276
#
# _framework density 24.685758
#
# number of rings (size 3 to 8) (size 9 to 14) (size 15 to 20)
#    0.000    2.667    0.000    4.000    0.000    4.000 
#    0.000    0.000    0.000    0.000    0.000    1.167 
#    0.000   13.333    0.000    0.000    0.000    0.000 
#
# Total GULP energy -133646.004913 kJ/mol
# GULP energy per Si atom -5568.583538 kJ/mol
# Density = 2.462957 g / cm^3
# Si number density = 24.685758 Si / 1000 Ang^3
#
#
#
# Elastic Constant Matrix: (Units=GPa)
#
#
# Indices 1 2 3 4 5 6 
#
# 1 41.9581 -13.9103 12.3290 0.0000 -15.6059 0.0001
# 2 -13.9103 85.3819 2.7789 -0.0001 -1.2175 0.0003
# 3 12.3290 2.7789 134.8151 0.0000 -41.5674 0.0000
# 4 0.0000 -0.0001 0.0000 38.2631 0.0000 -18.6924
# 5 -15.6059 -1.2175 -41.5674 0.0000 51.9067 0.0000
# 6 0.0001 0.0003 0.0000 -18.6924 0.0000 9.3637
#
#
#
# Elastic Compliance Matrix: (Units=1/GPa)
#
#
# Indices 1 2 3 4 5 6 
#
# 1 0.028671 0.004796 -0.000038 -0.000009 0.008702 -0.000018
# 2 0.004796 0.012523 -0.000215 -0.000008 0.001564 -0.000016
# 3 -0.000038 -0.000215 0.009853 0.000000 0.007874 0.000001
# 4 -0.000009 -0.000008 0.000000 1.054990 -0.000002 2.106048
# 5 0.008702 0.001564 0.007874 -0.000002 0.028224 -0.000004
# 6 -0.000018 -0.000016 0.000001 2.106048 -0.000004 4.311044
#
#
# Mechanical properties :
#
#
# Convention : Reuss Voigt Hill
#
# Bulk Modulus (GPa) = 16.62904 29.39448 23.01176
# Shear Modulus (GPa) = 0.91638 37.30385 19.11011
#
# Velocity S-wave (km/s) = 0.60994 3.89157 2.78535
# Velocity P-wave (km/s) = 2.69201 5.66795 4.43693
#
# Compressibility (1/GPa) = 0.06013576
#
# Stress axis : x y z
#
# Youngs Moduli (GPa) = 34.87804 79.85444 101.48888
#
# Poissons Ratio (x) = -0.38301 0.00382
# Poissons Ratio (y) = -0.16729 0.02177
# Poissons Ratio (z) = 0.00131 0.01713
#
# Static dielectric constant tensor:
#      x y z
#    x 2.114430 0.000000 -0.023070 
#    y 0.000000 1.906890 0.000000 
#    z -0.023070 0.000000 2.237500 
# 
# From -- ./inp_files/297305.got.cif
#   From: 2010.05.17/outbox.cif.g08.bks.cpg/sg15_149_cif.got.tgz:297305.got - 2010.06.03 18:47:42.
