data_PCOD9262990
_publ_section_title
;
Structure prediction by ZEFSAII (Michael W. Deem and Ramdas Pophale) SiO2 
 PCOD9262990
Probable space group: C 2/C
;
_chemical_formula_sum "Si O2"
_cell_formula_units_Z 40
_cell_length_a 16.673633
_cell_length_b 9.878065
_cell_length_c 24.179230
_cell_angle_alpha 90.000000
_cell_angle_beta 157.340749
_cell_angle_gamma 90.000000
_cell_volume 1534.217887
_symmetry_space_group_name_H-M "C 2/C"
_symmetry_group_IT_number 15
_symmetry_cell_setting 'monoclinic'
loop_
_space_group_symop_operation_xyz
x,y,z
-x,y,1/2-z
-x,-y,-z
x,-y,1/2+z
1/2+x,1/2+y,z
1/2-x,1/2+y,1/2-z
1/2-x,1/2-y,-z
1/2+x,1/2-y,1/2+z
loop_
_atom_site_type_symbol
_atom_site_label
_atom_site_fract_x
_atom_site_fract_y
_atom_site_fract_z
Si Si1 0.500248 0.300497 0.002303
Si Si2 0.161252 0.146369 0.714167
Si Si3 0.077466 0.425038 0.430001
Si Si4 0.735931 0.127093 0.920870
Si Si5 0.815486 0.943000 0.676301
O O1 0.482288 0.314171 0.057144
O O2 0.611774 0.411481 0.032530
O O3 0.684193 0.183758 0.115277
O O4 0.292396 0.252862 0.836343
O O5 0.332923 0.085846 0.780715
O O6 0.110872 0.030541 0.726037
O O7 0.156758 0.268188 0.489795
O O8 0.181751 0.465100 0.439292
O O9 0.149809 0.510431 0.529068
O O10 0.500000 0.149485 0.750000
O O11 0.000000 0.919116 0.750000
#
# Coordination Sequence:
#
# PCOD9262990 Si02
#       5
#     8   8   8   8   8
#     4  10  19  33  59  82 115 140 181 226 283 321
#     4  10  20  35  54  84 109 147 182 229 272 329
#     4   9  16  26  49  74 112 131 177 210 281 313
#     4   9  14  23  44  80 103 132 163 219 262 320
#     4  10  21  34  55  79 110 147 185 223 272 333
#
# _framework density 26.071916000000002
#
# number of rings (size 3 to 8) (size 9 to 14) (size 15 to 20)
#    0.000    2.800    2.000    4.800    5.600    0.000 
#    0.000    2.000    0.000    0.000    0.000    0.000 
#    0.000    0.000    0.000    0.000    0.000    0.000 
#
# Total GULP energy -111338.765801 kJ/mol
# GULP energy per Si atom -5566.938290 kJ/mol
# Density = 2.601258 g / cm^3
# Si number density = 26.071916 Si / 1000 Ang^3
#
#
#
# Elastic Constant Matrix: (Units=GPa)
#
#
# Indices 1 2 3 4 5 6 
#
# 1 157.0033 32.0024 29.8897 0.0069 -51.9879 -0.0003
# 2 32.0024 43.7348 27.1891 0.0079 -14.3755 -0.0045
# 3 29.8897 27.1891 79.1657 0.0426 -26.7600 -0.0051
# 4 0.0069 0.0079 0.0426 24.3426 0.0047 -7.7858
# 5 -51.9879 -14.3755 -26.7600 0.0047 61.6094 0.0002
# 6 -0.0003 -0.0045 -0.0051 -7.7858 0.0002 16.9020
#
#
#
# Elastic Compliance Matrix: (Units=1/GPa)
#
#
# Indices 1 2 3 4 5 6 
#
# 1 0.009690 -0.005035 0.000513 -0.000004 0.007225 -0.000003
# 2 -0.005035 0.032127 -0.009418 0.000011 -0.000843 0.000011
# 3 0.000513 -0.009418 0.017671 -0.000033 0.005910 -0.000012
# 4 -0.000004 0.000011 -0.000033 0.048179 -0.000019 0.022193
# 5 0.007225 -0.000843 0.005910 -0.000019 0.024698 -0.000007
# 6 -0.000003 0.000011 -0.000012 0.022193 -0.000007 0.069388
#
#
# Mechanical properties :
#
#
# Convention : Reuss Voigt Hill
#
# Bulk Modulus (GPa) = 31.63744 50.89623 41.26684
# Shear Modulus (GPa) = 20.81873 33.29229 27.05551
#
# Velocity S-wave (km/s) = 2.82886 3.57731 3.22487
# Velocity P-wave (km/s) = 4.77818 6.05200 5.45242
#
# Compressibility (1/GPa) = 0.03160812
#
# Stress axis : x y z
#
# Youngs Moduli (GPa) = 103.19640 31.12641 56.59135
#
# Poissons Ratio (x) = 0.15671 -0.02901
# Poissons Ratio (y) = 0.51956 0.53297
# Poissons Ratio (z) = -0.05291 0.29315
#
# Static dielectric constant tensor:
#      x y z
#    x 2.123110 0.000000 -0.074510 
#    y 0.000000 2.200570 -0.000010 
#    z -0.074510 -0.000010 2.246210 
# 
# From -- ./inp_files/168202.got.cif
#   From: 2010.05.17/outbox.cif.g08.bks.cpg/sg15_85_cif.got.tgz:168202.got - 2010.06.03 18:47:42.
