data_PCOD9262187
_publ_section_title
;
Structure prediction by ZEFSAII (Michael W. Deem and Ramdas Pophale) SiO2 
 PCOD9262187
Probable space group: C 2/C
;
_chemical_formula_sum "Si O2"
_cell_formula_units_Z 56
_cell_length_a 12.638000
_cell_length_b 14.813706
_cell_length_c 33.376166
_cell_angle_alpha 90.000000
_cell_angle_beta 28.537081
_cell_angle_gamma 90.000000
_cell_volume 2985.098638
_symmetry_space_group_name_H-M "C 2/C"
_symmetry_group_IT_number 15
_symmetry_cell_setting 'monoclinic'
loop_
_space_group_symop_operation_xyz
x,y,z
-x,y,1/2-z
-x,-y,-z
x,-y,1/2+z
1/2+x,1/2+y,z
1/2-x,1/2+y,1/2-z
1/2-x,1/2-y,-z
1/2+x,1/2-y,1/2+z
loop_
_atom_site_type_symbol
_atom_site_label
_atom_site_fract_x
_atom_site_fract_y
_atom_site_fract_z
Si Si1 0.487938 0.009736 0.881692
Si Si2 0.431487 0.932628 0.558991
Si Si3 0.488965 0.504875 0.682243
Si Si4 0.826827 0.108794 0.166738
Si Si5 0.273139 0.184134 0.587848
Si Si6 0.479418 0.793845 0.410728
Si Si7 0.833390 0.610745 0.365413
O O1 0.439671 0.115804 0.899466
O O2 0.745623 0.001824 0.782254
O O3 0.474234 0.966045 0.930285
O O4 0.330966 0.958071 0.902845
O O5 0.542005 0.840437 0.506913
O O6 0.500000 0.000000 0.500000
O O7 0.166514 0.943825 0.647249
O O8 0.472481 0.460725 0.643576
O O9 0.583824 0.606947 0.649141
O O10 0.576796 0.099127 0.265257
O O11 0.831799 0.096014 0.117100
O O12 0.893321 0.212359 0.153079
O O13 0.382836 0.178104 0.595516
O O14 0.190991 0.286340 0.611745
O O15 0.250000 0.750000 0.500000
#
# Coordination Sequence:
#
# PCOD9262187 Si02
#       7
#     8   8   8   8   8   8   8
#     4  11  21  35  58  86 112 146 189 239 277 339
#     4  10  19  32  55  83 114 139 183 232 288 322
#     4  10  19  34  62  85 110 143 190 236 286 328
#     4   9  19  35  58  81 112 146 188 238 275 339
#     4  10  20  36  58  82 115 150 186 232 288 338
#     4  11  21  34  58  83 111 146 193 229 274 333
#     4   9  20  37  55  83 111 149 191 226 285 337
#
# _framework density 18.759848999999999
#
# number of rings (size 3 to 8) (size 9 to 14) (size 15 to 20)
#    0.000    2.000    2.857    2.143    2.000    1.714 
#    0.000    2.857    6.286    0.000    0.000    0.000 
#    0.000    0.000    0.000    0.000    0.000    0.000 
#
# Total GULP energy -156164.785284 kJ/mol
# GULP energy per Si atom -5577.313760 kJ/mol
# Density = 1.871715 g / cm^3
# Si number density = 18.759849 Si / 1000 Ang^3
#
#
#
# Elastic Constant Matrix: (Units=GPa)
#
#
# Indices 1 2 3 4 5 6 
#
# 1 104.4100 83.4191 11.0054 -0.0049 16.7304 0.0027
# 2 83.4191 116.5339 12.8244 0.0053 15.5217 -0.0040
# 3 11.0054 12.8244 35.5112 0.0125 10.2229 -0.0310
# 4 -0.0049 0.0053 0.0125 29.9404 -0.0033 1.6291
# 5 16.7304 15.5217 10.2229 -0.0033 20.9164 -0.0008
# 6 0.0027 -0.0040 -0.0310 1.6291 -0.0008 36.5978
#
#
#
# Elastic Compliance Matrix: (Units=1/GPa)
#
#
# Indices 1 2 3 4 5 6 
#
# 1 0.023254 -0.015750 0.000548 0.000006 -0.007180 -0.000003
# 2 -0.015750 0.020272 -0.002020 -0.000006 -0.001458 0.000002
# 3 0.000548 -0.002020 0.033067 -0.000017 -0.015101 0.000028
# 4 0.000006 -0.000006 -0.000017 0.033481 0.000013 -0.001490
# 5 -0.007180 -0.001458 -0.015101 0.000013 0.062015 -0.000012
# 6 -0.000003 0.000002 0.000028 -0.001490 -0.000012 0.027390
#
#
# Mechanical properties :
#
#
# Convention : Reuss Voigt Hill
#
# Bulk Modulus (GPa) = 23.72505 52.32809 38.02657
# Shear Modulus (GPa) = 20.16350 27.43801 23.80075
#
# Velocity S-wave (km/s) = 3.28200 3.82853 3.56576
# Velocity P-wave (km/s) = 5.19964 6.89186 6.10467
#
# Compressibility (1/GPa) = 0.04214955
#
# Stress axis : x y z
#
# Youngs Moduli (GPa) = 43.00364 49.32897 30.24159
#
# Poissons Ratio (x) = 0.77693 -0.01658
# Poissons Ratio (y) = 0.67730 0.06109
# Poissons Ratio (z) = -0.02358 0.09965
#
# Static dielectric constant tensor:
#      x y z
#    x 1.654560 0.000010 0.029260 
#    y 0.000010 1.647450 -0.000040 
#    z 0.029260 -0.000040 1.547100 
# 
# From -- ./inp_files/311323.got.cif
#   From: 2010.05.17/outbox.cif.g08.bks.cpg/sg15_156_cif.got.tgz:311323.got - 2010.06.03 18:47:42.
