data_PCOD9262164
_publ_section_title
;
Structure prediction by ZEFSAII (Michael W. Deem and Ramdas Pophale) SiO2 
 PCOD9262164
Probable space group: C 2/C
;
_chemical_formula_sum "Si O2"
_cell_formula_units_Z 56
_cell_length_a 8.826499
_cell_length_b 35.724485
_cell_length_c 11.215917
_cell_angle_alpha 90.000000
_cell_angle_beta 137.583556
_cell_angle_gamma 90.000000
_cell_volume 2385.505377
_symmetry_space_group_name_H-M "C 2/C"
_symmetry_group_IT_number 15
_symmetry_cell_setting 'monoclinic'
loop_
_space_group_symop_operation_xyz
x,y,z
-x,y,1/2-z
-x,-y,-z
x,-y,1/2+z
1/2+x,1/2+y,z
1/2-x,1/2+y,1/2-z
1/2-x,1/2-y,-z
1/2+x,1/2-y,1/2+z
loop_
_atom_site_type_symbol
_atom_site_label
_atom_site_fract_x
_atom_site_fract_y
_atom_site_fract_z
Si Si1 0.494830 0.879117 0.445929
Si Si2 0.347523 0.304852 0.876096
Si Si3 0.119556 0.961699 0.032497
Si Si4 0.029155 0.539321 0.955797
Si Si5 0.259274 0.186425 0.920754
Si Si6 0.719844 0.761626 0.297821
Si Si7 0.111232 0.879302 0.016279
O O1 0.503311 0.920896 0.505537
O O2 0.432388 0.847350 0.502723
O O3 0.290815 0.875153 0.229755
O O4 0.726373 0.875656 0.505427
O O5 0.236059 0.299720 0.940770
O O6 0.583128 0.282350 0.018273
O O7 0.423266 0.347525 0.904684
O O8 0.228617 0.281648 0.702743
O O9 0.229905 0.963379 0.966807
O O10 0.332075 0.958280 0.243781
O O11 0.005706 0.920853 0.968971
O O12 0.000000 0.000000 0.000000
O O13 0.000000 0.500000 0.000000
O O14 0.288414 0.216889 0.833648
O O15 0.000000 0.172584 0.750000
O O16 0.500000 0.765782 0.250000
#
# Coordination Sequence:
#
# PCOD9262164 Si02
#       7
#     8   8   8   8   8   8   8
#     4   9  16  32  55  79 108 142 190 232 269 324
#     4  11  22  36  57  82 112 139 190 233 281 327
#     4   9  19  35  58  84 114 150 187 232 280 333
#     4   9  19  34  54  87 114 144 189 232 280 335
#     4  10  19  32  54  85 109 138 187 236 277 323
#     4  11  22  37  56  80 109 148 183 230 276 340
#     4   9  17  33  58  79 106 147 192 229 268 334
#
# _framework density 23.475110000000001
#
# number of rings (size 3 to 8) (size 9 to 14) (size 15 to 20)
#    0.000    2.286    2.857    3.429    0.000    1.714 
#    0.000    0.000    9.429    0.000    7.429    0.000 
#    0.000    0.000    0.000    0.000    0.000    0.000 
#
# Total GULP energy -156481.100241 kJ/mol
# GULP energy per Si atom -5588.610723 kJ/mol
# Density = 2.342168 g / cm^3
# Si number density = 23.475110 Si / 1000 Ang^3
#
#
#
# Elastic Constant Matrix: (Units=GPa)
#
#
# Indices 1 2 3 4 5 6 
#
# 1 101.5452 62.9881 1.7732 0.0000 6.2347 0.0000
# 2 62.9881 212.2472 17.8415 0.0000 14.9564 0.0000
# 3 1.7732 17.8415 62.9435 0.0000 14.5596 0.0000
# 4 0.0000 0.0000 0.0000 27.6003 0.0000 1.9743
# 5 6.2347 14.9564 14.5596 0.0000 13.5933 0.0000
# 6 0.0000 0.0000 0.0000 1.9743 0.0000 40.2755
#
#
#
# Elastic Compliance Matrix: (Units=1/GPa)
#
#
# Indices 1 2 3 4 5 6 
#
# 1 0.012199 -0.003510 0.001399 0.000000 -0.003231 0.000000
# 2 -0.003510 0.006119 -0.000599 0.000000 -0.004481 0.000000
# 3 0.001399 -0.000599 0.021288 0.000000 -0.022783 0.000000
# 4 0.000000 0.000000 0.000000 0.036359 0.000000 -0.001782
# 5 -0.003231 -0.004481 -0.022783 0.000000 0.104382 0.000000
# 6 0.000000 0.000000 0.000000 -0.001782 0.000000 0.024916
#
#
# Mechanical properties :
#
#
# Convention : Reuss Voigt Hill
#
# Bulk Modulus (GPa) = 29.25241 60.21571 44.73406
# Shear Modulus (GPa) = 22.51446 35.90268 29.20857
#
# Velocity S-wave (km/s) = 3.10026 3.91499 3.53120
# Velocity P-wave (km/s) = 5.03026 6.79284 5.97688
#
# Compressibility (1/GPa) = 0.03418522
#
# Stress axis : x y z
#
# Youngs Moduli (GPa) = 81.97286 163.41629 46.97532
#
# Poissons Ratio (x) = 0.57362 -0.06571
# Poissons Ratio (y) = 0.28774 0.02814
# Poissons Ratio (z) = -0.11466 0.09790
#
# Static dielectric constant tensor:
#      x y z
#    x 1.881110 0.000000 -0.014300 
#    y 0.000000 1.898820 0.000000 
#    z -0.014300 0.000000 2.071670 
# 
# From -- ./inp_files/139561.got.cif
#   From: 2010.05.17/outbox.cif.g08.bks.cpg/sg15_70_cif.got.tgz:139561.got - 2010.06.03 18:47:42.
