data_PCOD9262314
_publ_section_title
;
Structure prediction by ZEFSAII (Michael W. Deem and Ramdas Pophale) SiO2 
 PCOD9262314
Probable space group: C 2/C
;
_chemical_formula_sum "Si O2"
_cell_formula_units_Z 48
_cell_length_a 6.318135
_cell_length_b 19.240818
_cell_length_c 15.656423
_cell_angle_alpha 90.000000
_cell_angle_beta 82.803084
_cell_angle_gamma 90.000000
_cell_volume 1888.294886
_symmetry_space_group_name_H-M "C 2/C"
_symmetry_group_IT_number 15
_symmetry_cell_setting 'monoclinic'
loop_
_space_group_symop_operation_xyz
x,y,z
-x,y,1/2-z
-x,-y,-z
x,-y,1/2+z
1/2+x,1/2+y,z
1/2-x,1/2+y,1/2-z
1/2-x,1/2-y,-z
1/2+x,1/2-y,1/2+z
loop_
_atom_site_type_symbol
_atom_site_label
_atom_site_fract_x
_atom_site_fract_y
_atom_site_fract_z
Si Si1 0.675037 0.347248 0.878023
Si Si2 0.191197 0.736282 0.627990
Si Si3 0.911673 0.992124 0.159944
Si Si4 0.667534 0.972530 0.921927
Si Si5 0.500000 0.016261 0.750000
Si Si6 0.000000 0.738042 0.250000
Si Si7 0.012816 0.670132 0.488944
O O1 0.472282 0.301427 0.860497
O O2 0.647325 0.427498 0.856218
O O3 0.870971 0.313520 0.817411
O O4 0.771292 0.341001 0.969288
O O5 0.315848 0.720557 0.708850
O O6 0.388347 0.759993 0.557265
O O7 0.049739 0.678991 0.587464
O O8 0.692341 0.949796 0.184635
O O9 0.000000 0.986214 0.250000
O O10 0.112197 0.983442 0.086345
O O11 0.602925 0.974910 0.825087
O O12 0.663975 0.892105 0.948443
O O13 0.500000 0.000000 0.000000
#
# Coordination Sequence:
#
# PCOD9262314 Si02
#       7
#     8   8   8   8   4   4   8
#     4  11  18  32  56  86 119 157 205 262 321 383
#     4  10  20  34  54  84 125 161 199 255 317 394
#     4  10  19  32  59  90 125 154 205 271 327 378
#     4  11  23  39  63  94 123 165 218 276 329 391
#     4  10  21  40  60  90 124 162 210 276 333 380
#     4  10  21  30  54  86 124 164 210 250 319 390
#     4  10  21  35  54  88 120 158 207 259 324 385
#
# _framework density 25.419758999999999
#
# number of rings (size 3 to 8) (size 9 to 14) (size 15 to 20)
#    0.000    1.667    3.333    2.500    4.667    0.667 
#    0.000    0.000    3.667    0.000    4.333    0.000 
#    0.000    0.000    0.000    0.000    0.000    0.000 
#
# Total GULP energy -133666.579055 kJ/mol
# GULP energy per Si atom -5569.440794 kJ/mol
# Density = 2.536190 g / cm^3
# Si number density = 25.419759 Si / 1000 Ang^3
#
#
#
# Elastic Constant Matrix: (Units=GPa)
#
#
# Indices 1 2 3 4 5 6 
#
# 1 85.2792 -6.4838 17.5248 0.0000 -37.7032 0.0000
# 2 -6.4838 28.6012 20.0563 0.0000 -0.5771 0.0000
# 3 17.5248 20.0563 88.4854 0.0000 -11.4178 0.0000
# 4 0.0000 0.0000 0.0000 18.0699 0.0000 4.2347
# 5 -37.7032 -0.5771 -11.4178 0.0000 63.5990 0.0000
# 6 0.0000 0.0000 0.0000 4.2347 0.0000 18.0209
#
#
#
# Elastic Compliance Matrix: (Units=1/GPa)
#
#
# Indices 1 2 3 4 5 6 
#
# 1 0.017248 0.006693 -0.003691 0.000000 0.009623 0.000000
# 2 0.006693 0.044281 -0.011055 0.000000 0.002385 0.000000
# 3 -0.003691 -0.011055 0.014580 0.000000 0.000329 0.000000
# 4 0.000000 0.000000 0.000000 0.058566 0.000000 -0.013762
# 5 0.009623 0.002385 0.000329 0.000000 0.021509 0.000000
# 6 0.000000 0.000000 0.000000 -0.013762 0.000000 0.058725
#
#
# Mechanical properties :
#
#
# Convention : Reuss Voigt Hill
#
# Bulk Modulus (GPa) = 16.66578 29.39561 23.03070
# Shear Modulus (GPa) = 19.91899 31.35586 25.63743
#
# Velocity S-wave (km/s) = 2.80233 3.51597 3.17923
# Velocity P-wave (km/s) = 4.12810 5.29829 4.74937
#
# Compressibility (1/GPa) = 0.06000321
#
# Stress axis : x y z
#
# Youngs Moduli (GPa) = 57.97721 22.58313 68.58485
#
# Poissons Ratio (x) = -0.15114 0.25317
# Poissons Ratio (y) = -0.38803 0.75818
# Poissons Ratio (z) = 0.21401 0.24965
#
# Static dielectric constant tensor:
#      x y z
#    x 2.212670 0.000000 0.040570 
#    y 0.000000 2.008420 0.000000 
#    z 0.040570 0.000000 2.096910 
# 
# From -- ./inp_files/185273.got.cif
#   From: 2010.05.17/outbox.cif.g08.bks.cpg/sg15_93_cif.got.tgz:185273.got - 2010.06.03 18:47:42.
