data_PCOD9262789
_publ_section_title
;
Structure prediction by ZEFSAII (Michael W. Deem and Ramdas Pophale) SiO2 
 PCOD9262789
Probable space group: C 2/C
;
_chemical_formula_sum "Si O2"
_cell_formula_units_Z 64
_cell_length_a 10.096139
_cell_length_b 14.872368
_cell_length_c 25.273789
_cell_angle_alpha 90.000000
_cell_angle_beta 47.435417
_cell_angle_gamma 90.000000
_cell_volume 2795.037273
_symmetry_space_group_name_H-M "C 2/C"
_symmetry_group_IT_number 15
_symmetry_cell_setting 'monoclinic'
loop_
_space_group_symop_operation_xyz
x,y,z
-x,y,1/2-z
-x,-y,-z
x,-y,1/2+z
1/2+x,1/2+y,z
1/2-x,1/2+y,1/2-z
1/2-x,1/2-y,-z
1/2+x,1/2-y,1/2+z
loop_
_atom_site_type_symbol
_atom_site_label
_atom_site_fract_x
_atom_site_fract_y
_atom_site_fract_z
Si Si1 0.149058 0.774659 0.472917
Si Si2 0.790301 0.703490 0.818126
Si Si3 0.265568 0.460367 0.039370
Si Si4 0.584535 0.138538 0.913322
Si Si5 0.295173 0.198566 0.323073
Si Si6 0.260108 0.391683 0.465661
Si Si7 0.790421 0.497627 0.823707
Si Si8 0.050735 0.706648 0.104841
O O1 0.250000 0.750000 0.500000
O O2 0.258127 0.774417 0.389123
O O3 0.096444 0.877643 0.493058
O O4 0.994688 0.702304 0.518520
O O5 0.736209 0.599109 0.819931
O O6 0.657265 0.774174 0.825718
O O7 0.000000 0.713499 0.750000
O O8 0.228982 0.496168 0.107640
O O9 0.074218 0.418514 0.070074
O O10 0.343466 0.524749 0.973748
O O11 0.676330 0.210821 0.849082
O O12 0.719551 0.084509 0.915283
O O13 0.500000 0.214801 0.250000
O O14 0.329004 0.189662 0.376828
O O15 0.220606 0.101413 0.324270
O O16 0.383727 0.303456 0.435069
O O17 0.093858 0.370270 0.550981
O O18 0.000000 0.492533 0.750000
#
# Coordination Sequence:
#
# PCOD9262789 Si02
#       8
#     8   8   8   8   8   8   8   8
#     4   9  19  33  51  80 109 138 177 228 270 320
#     4  10  20  35  57  81 108 145 185 226 280 329
#     4  10  19  33  56  81 106 144 178 226 275 318
#     4  10  20  35  56  82 109 143 182 229 273 325
#     4  10  21  36  55  80 110 147 184 223 273 328
#     4  10  19  34  54  81 108 139 183 219 272 322
#     4   9  19  34  51  77 107 141 182 220 271 327
#     4  10  20  34  55  80 108 140 179 229 266 327
#
# _framework density 22.897727
#
# number of rings (size 3 to 8) (size 9 to 14) (size 15 to 20)
#    0.000    2.250    2.500    0.375    0.000    5.000 
#    0.000    2.500    0.000    0.750    0.000    0.000 
#    0.000    0.000    0.000    0.000    0.000    0.000 
#
# Total GULP energy -178295.493387 kJ/mol
# GULP energy per Si atom -5571.734168 kJ/mol
# Density = 2.284561 g / cm^3
# Si number density = 22.897727 Si / 1000 Ang^3
#
#
#
# Elastic Constant Matrix: (Units=GPa)
#
#
# Indices 1 2 3 4 5 6 
#
# 1 56.5797 -1.4662 -5.1462 0.0000 -4.9983 0.0000
# 2 -1.4662 69.9208 16.2065 0.0000 -6.3216 0.0000
# 3 -5.1462 16.2065 69.7338 0.0001 -13.6258 -0.0001
# 4 0.0000 0.0000 0.0001 32.8039 0.0000 -3.9656
# 5 -4.9983 -6.3216 -13.6258 0.0000 23.1207 0.0000
# 6 0.0000 0.0000 -0.0001 -3.9656 0.0000 21.2077
#
#
#
# Elastic Compliance Matrix: (Units=1/GPa)
#
#
# Indices 1 2 3 4 5 6 
#
# 1 0.018377 0.000335 0.002342 0.000000 0.005445 0.000000
# 2 0.000335 0.015234 -0.003038 0.000000 0.002448 0.000000
# 3 0.002342 -0.003038 0.017128 0.000000 0.009770 0.000000
# 4 0.000000 0.000000 0.000000 0.031189 0.000000 0.005832
# 5 0.005445 0.002448 0.009770 0.000000 0.050855 0.000000
# 6 0.000000 0.000000 0.000000 0.005832 0.000000 0.048243
#
#
# Mechanical properties :
#
#
# Convention : Reuss Voigt Hill
#
# Bulk Modulus (GPa) = 19.99283 23.93586 21.96434
# Shear Modulus (GPa) = 25.19896 27.86913 26.53404
#
# Velocity S-wave (km/s) = 3.32098 3.49250 3.40782
# Velocity P-wave (km/s) = 4.84309 5.17102 5.00974
#
# Compressibility (1/GPa) = 0.05001794
#
# Stress axis : x y z
#
# Youngs Moduli (GPa) = 54.41617 65.64153 58.38373
#
# Poissons Ratio (x) = -0.02197 -0.13675
# Poissons Ratio (y) = -0.01821 0.17735
# Poissons Ratio (z) = -0.12746 0.19939
#
# Static dielectric constant tensor:
#      x y z
#    x 1.946830 0.000000 -0.030390 
#    y 0.000000 1.945940 0.000000 
#    z -0.030390 0.000000 1.897940 
# 
# From -- ./inp_files/293037.got.cif
#   From: 2010.05.17/outbox.cif.g08.bks.cpg/sg15_147_cif.got.tgz:293037.got - 2010.06.03 18:47:42.
