data_PCOD9262539
_publ_section_title
;
Structure prediction by ZEFSAII (Michael W. Deem and Ramdas Pophale) SiO2 
 PCOD9262539
Probable space group: C 2/C
;
_chemical_formula_sum "Si O2"
_cell_formula_units_Z 56
_cell_length_a 5.515364
_cell_length_b 22.839569
_cell_length_c 18.760557
_cell_angle_alpha 90.000000
_cell_angle_beta 101.290941
_cell_angle_gamma 90.000000
_cell_volume 2317.500886
_symmetry_space_group_name_H-M "C 2/C"
_symmetry_group_IT_number 15
_symmetry_cell_setting 'monoclinic'
loop_
_space_group_symop_operation_xyz
x,y,z
-x,y,1/2-z
-x,-y,-z
x,-y,1/2+z
1/2+x,1/2+y,z
1/2-x,1/2+y,1/2-z
1/2-x,1/2-y,-z
1/2+x,1/2-y,1/2+z
loop_
_atom_site_type_symbol
_atom_site_label
_atom_site_fract_x
_atom_site_fract_y
_atom_site_fract_z
Si Si1 0.732905 0.343096 0.706575
Si Si2 0.857112 0.287125 0.315698
Si Si3 0.590096 0.820889 0.478444
Si Si4 0.490702 0.431740 0.093491
Si Si5 0.730884 0.407255 0.239876
Si Si6 0.630044 0.655037 0.040555
Si Si7 0.962195 0.542410 0.562703
O O1 0.500000 0.348728 0.750000
O O2 0.784021 0.274142 0.689263
O O3 0.656305 0.366029 0.623550
O O4 0.000000 0.365878 0.750000
O O5 0.743091 0.350566 0.291173
O O6 0.000000 0.278794 0.250000
O O7 0.001842 0.294999 0.397740
O O8 0.378495 0.812453 0.526599
O O9 0.590366 0.891518 0.465919
O O10 0.873823 0.808341 0.516519
O O11 0.647456 0.389564 0.155275
O O12 0.711067 0.476625 0.088264
O O13 0.235079 0.454790 0.112586
O O14 0.404500 0.397623 0.018227
O O15 0.500000 0.445912 0.250000
O O16 0.000000 0.433525 0.250000
O O17 0.000000 0.500000 0.500000
#
# Coordination Sequence:
#
# PCOD9262539 Si02
#       7
#     8   8   8   8   8   8   8
#     4  11  24  38  55  80 107 145 192 234 279 322
#     4  10  21  36  55  81 118 149 178 220 274 334
#     4  10  21  36  58  85 109 147 184 219 280 327
#     4  10  20  34  55  84 111 146 182 216 275 324
#     4  11  19  32  53  78 112 150 176 209 263 331
#     4  10  20  37  55  78 109 140 185 232 262 321
#     4  10  19  33  53  81 107 132 174 225 265 318
#
# _framework density 24.163959999999999
#
# number of rings (size 3 to 8) (size 9 to 14) (size 15 to 20)
#    0.000    1.714    0.000    7.714    0.000    3.429 
#    0.000    0.000    0.000    0.000    0.000  140.000 
#    0.000    0.000    0.000    0.000    0.000    0.000 
#
# Total GULP energy -155885.505349 kJ/mol
# GULP energy per Si atom -5567.339477 kJ/mol
# Density = 2.410896 g / cm^3
# Si number density = 24.163960 Si / 1000 Ang^3
#
#
#
# Elastic Constant Matrix: (Units=GPa)
#
#
# Indices 1 2 3 4 5 6 
#
# 1 236.1359 -4.7925 41.2216 0.0000 1.7371 0.0000
# 2 -4.7925 26.3924 12.5191 0.0000 3.1878 0.0000
# 3 41.2216 12.5191 154.8301 0.0000 10.8757 0.0000
# 4 0.0000 0.0000 0.0000 50.8944 0.0000 3.2774
# 5 1.7371 3.1878 10.8757 0.0000 45.3940 0.0000
# 6 0.0000 0.0000 0.0000 3.2774 0.0000 17.2139
#
#
#
# Elastic Compliance Matrix: (Units=1/GPa)
#
#
# Indices 1 2 3 4 5 6 
#
# 1 0.004493 0.001435 -0.001315 0.000000 0.000042 0.000000
# 2 0.001435 0.040045 -0.003477 0.000000 -0.002034 0.000000
# 3 -0.001315 -0.003477 0.007190 0.000000 -0.001428 0.000000
# 4 0.000000 0.000000 0.000000 0.019892 0.000000 -0.003787
# 5 0.000042 -0.002034 -0.001428 0.000000 0.022513 0.000000
# 6 0.000000 0.000000 0.000000 -0.003787 0.000000 0.058813
#
#
# Mechanical properties :
#
#
# Convention : Reuss Voigt Hill
#
# Bulk Modulus (GPa) = 22.21551 57.25052 39.73301
# Shear Modulus (GPa) = 28.62587 47.26115 37.94351
#
# Velocity S-wave (km/s) = 3.44561 4.42730 3.96694
# Velocity P-wave (km/s) = 5.00432 7.06248 6.12053
#
# Compressibility (1/GPa) = 0.04501360
#
# Stress axis : x y z
#
# Youngs Moduli (GPa) = 222.55571 24.97177 139.07574
#
# Poissons Ratio (x) = -0.03583 0.18292
# Poissons Ratio (y) = -0.31930 0.48357
# Poissons Ratio (z) = 0.29272 0.08683
#
# Static dielectric constant tensor:
#      x y z
#    x 2.098710 0.000000 -0.065870 
#    y 0.000000 2.045530 0.000000 
#    z -0.065870 0.000000 1.971160 
# 
# From -- ./inp_files/186238.got.cif
#   From: 2010.05.17/outbox.cif.g08.bks.cpg/sg15_94_cif.got.tgz:186238.got - 2010.06.03 18:47:42.
