data_PCOD9262600
_publ_section_title
;
Structure prediction by ZEFSAII (Michael W. Deem and Ramdas Pophale) SiO2 
 PCOD9262600
Probable space group: C 2/C
;
_chemical_formula_sum "Si O2"
_cell_formula_units_Z 40
_cell_length_a 12.995488
_cell_length_b 24.563326
_cell_length_c 9.348226
_cell_angle_alpha 90.000000
_cell_angle_beta 51.644969
_cell_angle_gamma 90.000000
_cell_volume 2340.049977
_symmetry_space_group_name_H-M "C 2/C"
_symmetry_group_IT_number 15
_symmetry_cell_setting 'monoclinic'
loop_
_space_group_symop_operation_xyz
x,y,z
-x,y,1/2-z
-x,-y,-z
x,-y,1/2+z
1/2+x,1/2+y,z
1/2-x,1/2+y,1/2-z
1/2-x,1/2-y,-z
1/2+x,1/2-y,1/2+z
loop_
_atom_site_type_symbol
_atom_site_label
_atom_site_fract_x
_atom_site_fract_y
_atom_site_fract_z
Si Si1 0.352432 0.173235 0.323425
Si Si2 0.630784 0.297270 0.236513
Si Si3 0.714130 0.427245 0.824994
Si Si4 0.843687 0.980805 0.914015
Si Si5 0.554087 0.376720 0.545318
O O1 0.500000 0.166208 0.250000
O O2 0.342558 0.233255 0.262265
O O3 0.249630 0.176753 0.543652
O O4 0.310874 0.123227 0.259797
O O5 0.500000 0.301052 0.250000
O O6 0.610627 0.328772 0.401548
O O7 0.726048 0.463288 0.671817
O O8 0.569114 0.401365 0.934475
O O9 0.716588 0.467530 0.956941
O O10 0.847853 0.927036 0.010522
O O11 0.000000 0.991320 0.750000
O O12 0.500000 0.360685 0.750000
#
# Coordination Sequence:
#
# PCOD9262600 Si02
#       5
#     8   8   8   8   8
#     4  10  22  35  54  83 112 145 186 223 262 328
#     4  10  19  35  63  80 104 147 187 223 274 313
#     4  10  19  33  54  79 111 140 177 231 269 322
#     4   9  19  30  53  87 107 135 180 230 276 314
#     4   9  18  33  56  88 111 131 179 238 276 314
#
# _framework density 17.093651999999999
#
# number of rings (size 3 to 8) (size 9 to 14) (size 15 to 20)
#    0.000    2.800    2.000    2.400    5.600    0.000 
#    0.000    5.000    0.000    0.000    0.000    0.000 
#    0.000    0.000    0.000    0.000    0.000    0.000 
#
# Total GULP energy -111456.356564 kJ/mol
# GULP energy per Si atom -5572.817828 kJ/mol
# Density = 1.705475 g / cm^3
# Si number density = 17.093652 Si / 1000 Ang^3
#
#
#
# Elastic Constant Matrix: (Units=GPa)
#
#
# Indices 1 2 3 4 5 6 
#
# 1 54.6433 35.3903 27.5489 0.0000 -1.9802 0.0000
# 2 35.3903 91.9024 58.8843 0.0000 14.9457 0.0000
# 3 27.5489 58.8843 67.1537 0.0000 2.4580 0.0000
# 4 0.0000 0.0000 0.0000 8.4372 0.0000 52.5837
# 5 -1.9802 14.9457 2.4580 0.0000 16.1852 0.0000
# 6 0.0000 0.0000 0.0000 52.5837 0.0000 -76.9041
#
#
#
# Elastic Compliance Matrix: (Units=1/GPa)
#
#
# Indices 1 2 3 4 5 6 
#
# 1 0.027296 -0.012339 -0.000923 0.000000 0.014874 0.000000
# 2 -0.012339 0.038795 -0.027743 0.000000 -0.033120 0.000000
# 3 -0.000923 -0.027743 0.038879 0.000000 0.019601 0.000000
# 4 0.000000 0.000000 0.000000 0.022527 0.000000 0.015403
# 5 0.014874 -0.033120 0.019601 0.000000 0.091211 0.000000
# 6 0.000000 0.000000 0.000000 0.015403 0.000000 -0.002471
#
#
# Mechanical properties :
#
#
# Convention : Reuss Voigt Hill
#
# Bulk Modulus (GPa) = 43.55386 50.81628 47.18507
# Shear Modulus (GPa) = 16.34520 -4.33126 6.00697
#
# Velocity S-wave (km/s) = 3.09563 -1.59353 1.87664
# Velocity P-wave (km/s) = 6.18967 5.13877 5.68854
#
# Compressibility (1/GPa) = 0.02296008
#
# Stress axis : x y z
#
# Youngs Moduli (GPa) = 36.63506 25.77669 25.72067
#
# Poissons Ratio (x) = 0.31806 0.02373
# Poissons Ratio (y) = 0.45204 0.71358
# Poissons Ratio (z) = 0.03380 0.71513
#
# Static dielectric constant tensor:
#      x y z
#    x 1.570420 0.000000 0.004380 
#    y 0.000000 1.593700 0.000000 
#    z 0.004380 0.000000 1.588670 
# 
# From -- ./inp_files/31723.got.cif
#   From: 2010.05.17/outbox.cif.g08.bks.cpg/sg15_16_cif.got.tgz:31723.got - 2010.06.03 18:47:42.
