data_PCOD9262866
_publ_section_title
;
Structure prediction by ZEFSAII (Michael W. Deem and Ramdas Pophale) SiO2 
 PCOD9262866
Probable space group: C 2/C
;
_chemical_formula_sum "Si O2"
_cell_formula_units_Z 48
_cell_length_a 27.036536
_cell_length_b 11.501495
_cell_length_c 8.879595
_cell_angle_alpha 90.000000
_cell_angle_beta 99.477187
_cell_angle_gamma 90.000000
_cell_volume 2723.517030
_symmetry_space_group_name_H-M "C 2/C"
_symmetry_group_IT_number 15
_symmetry_cell_setting 'monoclinic'
loop_
_space_group_symop_operation_xyz
x,y,z
-x,y,1/2-z
-x,-y,-z
x,-y,1/2+z
1/2+x,1/2+y,z
1/2-x,1/2+y,1/2-z
1/2-x,1/2-y,-z
1/2+x,1/2-y,1/2+z
loop_
_atom_site_type_symbol
_atom_site_label
_atom_site_fract_x
_atom_site_fract_y
_atom_site_fract_z
Si Si1 0.553639 0.096647 0.851826
Si Si2 0.670253 0.773072 0.907716
Si Si3 0.211132 0.854411 0.966544
Si Si4 0.111789 0.548115 0.581498
Si Si5 0.375665 0.216304 0.421929
Si Si6 0.728740 0.407297 0.631818
O O1 0.500000 0.107069 0.750000
O O2 0.594688 0.083472 0.738943
O O3 0.570417 0.201206 0.971006
O O4 0.562027 0.981492 0.957869
O O5 0.631444 0.746549 0.753998
O O6 0.718007 0.842041 0.862403
O O7 0.644682 0.856070 0.017427
O O8 0.691211 0.660003 0.000884
O O9 0.159130 0.799502 0.997458
O O10 0.210892 0.895362 0.794093
O O11 0.250000 0.750000 0.000000
O O12 0.229449 0.959605 0.080946
O O13 0.139372 0.422213 0.590458
#
# Coordination Sequence:
#
# PCOD9262866 Si02
#       6
#     8   8   8   8   8   8
#     4  10  20  34  55  87 116 149 188 244 302 358
#     4  11  21  38  52  85 113 159 195 235 287 340
#     4  12  23  40  57  83 118 156 203 240 287 336
#     4  10  19  33  57  81 117 148 189 239 295 345
#     4  10  20  36  54  80 114 153 188 236 292 342
#     4  11  26  35  58  80 118 159 202 234 281 345
#
# _framework density 17.624269000000002
#
# number of rings (size 3 to 8) (size 9 to 14) (size 15 to 20)
#    1.000    0.333    3.333    3.500    2.333    0.000 
#    0.000    0.000    0.000    0.000    0.000   11.667 
#    0.000    0.000    0.000    0.000    0.000    0.000 
#
# Total GULP energy -133756.695851 kJ/mol
# GULP energy per Si atom -5573.195660 kJ/mol
# Density = 1.758416 g / cm^3
# Si number density = 17.624269 Si / 1000 Ang^3
#
#
#
# Elastic Constant Matrix: (Units=GPa)
#
#
# Indices 1 2 3 4 5 6 
#
# 1 10.2010 3.2878 14.2781 0.0000 -0.1026 0.0000
# 2 3.2878 73.4301 29.9490 0.0000 -3.5149 0.0000
# 3 14.2781 29.9490 120.6077 0.0000 0.1799 0.0000
# 4 0.0000 0.0000 0.0000 29.4453 0.0000 -1.8695
# 5 -0.1026 -3.5149 0.1799 0.0000 33.7981 0.0000
# 6 0.0000 0.0000 0.0000 -1.8695 0.0000 15.9897
#
#
#
# Elastic Compliance Matrix: (Units=1/GPa)
#
#
# Indices 1 2 3 4 5 6 
#
# 1 0.117520 0.000485 -0.014034 0.000000 0.000482 0.000000
# 2 0.000485 0.015242 -0.003845 0.000000 0.001607 0.000000
# 3 -0.014034 -0.003845 0.010908 0.000000 -0.000500 0.000000
# 4 0.000000 0.000000 0.000000 0.034215 0.000000 0.004000
# 5 0.000482 0.001607 -0.000500 0.000000 0.029759 0.000000
# 6 0.000000 0.000000 0.000000 0.004000 0.000000 0.063008
#
#
# Mechanical properties :
#
#
# Convention : Reuss Voigt Hill
#
# Bulk Modulus (GPa) = 9.18414 33.25208 21.21811
# Shear Modulus (GPa) = 14.63128 26.29489 20.46308
#
# Velocity S-wave (km/s) = 2.88441 3.86679 3.41115
# Velocity P-wave (km/s) = 4.03924 6.23252 5.25165
#
# Compressibility (1/GPa) = 0.10888341
#
# Stress axis : x y z
#
# Youngs Moduli (GPa) = 8.50916 65.60968 91.67456
#
# Poissons Ratio (x) = -0.03182 1.28654
# Poissons Ratio (y) = -0.00413 0.35245
# Poissons Ratio (z) = 0.11942 0.25224
#
# Static dielectric constant tensor:
#      x y z
#    x 1.618890 0.000000 0.019040 
#    y 0.000000 1.581260 0.000000 
#    z 0.019040 0.000000 1.647440 
# 
# From -- ./inp_files/64892.got.cif
#   From: 2010.05.17/outbox.cif.g08.bks.cpg/sg15_33_cif.got.tgz:64892.got - 2010.06.03 18:47:42.
