data_PCOD9262106
_publ_section_title
;
Structure prediction by ZEFSAII (Michael W. Deem and Ramdas Pophale) SiO2 
 PCOD9262106
Probable space group: C 2/C
;
_chemical_formula_sum "Si O2"
_cell_formula_units_Z 56
_cell_length_a 7.505152
_cell_length_b 12.947801
_cell_length_c 26.169129
_cell_angle_alpha 90.000000
_cell_angle_beta 101.038855
_cell_angle_gamma 90.000000
_cell_volume 2495.939195
_symmetry_space_group_name_H-M "C 2/C"
_symmetry_group_IT_number 15
_symmetry_cell_setting 'monoclinic'
loop_
_space_group_symop_operation_xyz
x,y,z
-x,y,1/2-z
-x,-y,-z
x,-y,1/2+z
1/2+x,1/2+y,z
1/2-x,1/2+y,1/2-z
1/2-x,1/2-y,-z
1/2+x,1/2-y,1/2+z
loop_
_atom_site_type_symbol
_atom_site_label
_atom_site_fract_x
_atom_site_fract_y
_atom_site_fract_z
Si Si1 0.996601 0.219036 0.436036
Si Si2 0.503142 0.945239 0.945894
Si Si3 0.264409 0.909436 0.633262
Si Si4 0.510871 0.294539 0.157223
Si Si5 0.868664 0.607378 0.694857
Si Si6 0.905491 0.791396 0.451720
Si Si7 0.672479 0.894973 0.126256
O O1 0.009847 0.163767 0.491875
O O2 0.189300 0.276214 0.442889
O O3 0.930589 0.141868 0.388143
O O4 0.849540 0.310433 0.420626
O O5 0.677540 0.956685 0.918836
O O6 0.477844 0.825685 0.954552
O O7 0.347188 0.994910 0.901532
O O8 0.500000 0.000000 0.000000
O O9 0.415770 0.818871 0.652803
O O10 0.276571 0.997225 0.676206
O O11 0.707816 0.309015 0.192580
O O12 0.545834 0.333469 0.100793
O O13 0.354191 0.371678 0.167137
O O14 0.000000 0.601175 0.750000
O O15 0.003434 0.626214 0.654411
#
# Coordination Sequence:
#
# PCOD9262106 Si02
#       7
#     8   8   8   8   8   8   8
#     4  10  19  35  56  91 127 166 202 247 295 387
#     4  10  19  32  53  85 124 163 200 248 293 370
#     4   9  23  39  59  91 125 158 217 253 310 381
#     4  10  22  41  66  91 123 167 199 254 323 372
#     4  11  24  47  65  88 121 158 210 280 322 367
#     4  10  20  33  57  90 131 168 203 236 314 375
#     4  10  21  38  61  90 121 155 214 249 304 383
#
# _framework density 22.436443000000001
#
# number of rings (size 3 to 8) (size 9 to 14) (size 15 to 20)
#    0.000    2.000    2.857    0.000    4.000    2.286 
#    5.143    1.429    0.000    0.000    0.000    0.000 
#    0.000    0.000    0.000    0.000    0.000    0.000 
#
# Total GULP energy -156106.578703 kJ/mol
# GULP energy per Si atom -5575.234954 kJ/mol
# Density = 2.238538 g / cm^3
# Si number density = 22.436443 Si / 1000 Ang^3
#
#
#
# Elastic Constant Matrix: (Units=GPa)
#
#
# Indices 1 2 3 4 5 6 
#
# 1 68.2388 11.9568 11.9093 0.0000 24.7667 0.0000
# 2 11.9568 38.6568 23.6507 0.0000 10.8631 0.0000
# 3 11.9093 23.6507 90.5383 0.0000 31.8728 0.0000
# 4 0.0000 0.0000 0.0000 21.7356 0.0000 5.9895
# 5 24.7667 10.8631 31.8728 0.0000 25.9852 0.0000
# 6 0.0000 0.0000 0.0000 5.9895 0.0000 24.0141
#
#
#
# Elastic Compliance Matrix: (Units=1/GPa)
#
#
# Indices 1 2 3 4 5 6 
#
# 1 0.026938 -0.004464 0.010567 0.000000 -0.036770 0.000000
# 2 -0.004464 0.031948 -0.008016 0.000000 0.000731 0.000000
# 3 0.010567 -0.008016 0.024841 0.000000 -0.037190 0.000000
# 4 0.000000 0.000000 0.000000 0.049403 0.000000 -0.012322
# 5 -0.036770 0.000731 -0.037190 0.000000 0.118840 0.000000
# 6 0.000000 0.000000 0.000000 -0.012322 0.000000 0.044715
#
#
# Mechanical properties :
#
#
# Convention : Reuss Voigt Hill
#
# Bulk Modulus (GPa) = 12.51540 32.49639 22.50590
# Shear Modulus (GPa) = 15.28374 24.34146 19.81260
#
# Velocity S-wave (km/s) = 2.61282 3.29737 2.97485
# Velocity P-wave (km/s) = 3.83310 5.38628 4.67465
#
# Compressibility (1/GPa) = 0.07990154
#
# Stress axis : x y z
#
# Youngs Moduli (GPa) = 37.12273 31.30067 40.25555
#
# Poissons Ratio (x) = 0.13973 -0.42538
# Poissons Ratio (y) = 0.16573 0.32267
# Poissons Ratio (z) = -0.39228 0.25089
#
# Static dielectric constant tensor:
#      x y z
#    x 1.941800 0.000000 -0.000310 
#    y 0.000000 1.877700 0.000000 
#    z -0.000310 0.000000 1.883830 
# 
# From -- ./inp_files/307257.got.cif
#   From: 2010.05.17/outbox.cif.g08.bks.cpg/sg15_154_cif.got.tgz:307257.got - 2010.06.03 18:47:42.
