data_PCOD9262158
_publ_section_title
;
Structure prediction by ZEFSAII (Michael W. Deem and Ramdas Pophale) SiO2 
 PCOD9262158
Probable space group: C 2/C
;
_chemical_formula_sum "Si O2"
_cell_formula_units_Z 56
_cell_length_a 24.983608
_cell_length_b 5.602740
_cell_length_c 24.855036
_cell_angle_alpha 90.000000
_cell_angle_beta 56.421714
_cell_angle_gamma 90.000000
_cell_volume 2898.566496
_symmetry_space_group_name_H-M "C 2/C"
_symmetry_group_IT_number 15
_symmetry_cell_setting 'monoclinic'
loop_
_space_group_symop_operation_xyz
x,y,z
-x,y,1/2-z
-x,-y,-z
x,-y,1/2+z
1/2+x,1/2+y,z
1/2-x,1/2+y,1/2-z
1/2-x,1/2-y,-z
1/2+x,1/2-y,1/2+z
loop_
_atom_site_type_symbol
_atom_site_label
_atom_site_fract_x
_atom_site_fract_y
_atom_site_fract_z
Si Si1 0.022641 0.267537 0.056202
Si Si2 0.286110 0.791163 0.299154
Si Si3 0.544677 0.731294 0.915431
Si Si4 0.805756 0.821222 0.597566
Si Si5 0.155883 0.132267 0.015755
Si Si6 0.167471 0.477747 0.826422
Si Si7 0.219983 0.942613 0.589524
O O1 0.089626 0.272492 0.051114
O O2 0.986821 0.518159 0.086566
O O3 0.037920 0.246907 0.983862
O O4 0.984818 0.018728 0.088541
O O5 0.241741 0.595216 0.294224
O O6 0.311326 0.684636 0.341215
O O7 0.234418 0.990760 0.345482
O O8 0.335825 0.894568 0.229031
O O9 0.619149 0.758510 0.857960
O O10 0.844787 0.650802 0.615905
O O11 0.751347 0.682946 0.593998
O O12 0.850691 0.936870 0.527675
O O13 0.174405 0.032189 0.063734
O O14 0.217440 0.288070 0.963001
#
# Coordination Sequence:
#
# PCOD9262158 Si02
#       7
#     8   8   8   8   8   8   8
#     4  10  22  38  55  85 116 158 192 237 290 347
#     4  10  20  34  54  83 112 145 188 238 299 352
#     4  10  23  36  57  83 121 152 196 237 288 349
#     4  10  19  32  54  84 113 146 181 237 293 358
#     4  10  20  35  57  81 118 147 190 238 294 353
#     4  11  21  34  55  84 114 152 190 242 296 359
#     4   9  20  35  54  87 110 148 187 238 299 352
#
# _framework density 19.319894000000001
#
# number of rings (size 3 to 8) (size 9 to 14) (size 15 to 20)
#    0.000    2.000    1.429    3.000   10.000    0.000 
#    0.000    0.000    0.000    0.857    0.000    0.000 
#    0.000    0.000    0.000    0.000    0.000    0.000 
#
# Total GULP energy -156245.634399 kJ/mol
# GULP energy per Si atom -5580.201229 kJ/mol
# Density = 1.927592 g / cm^3
# Si number density = 19.319894 Si / 1000 Ang^3
#
#
#
# Elastic Constant Matrix: (Units=GPa)
#
#
# Indices 1 2 3 4 5 6 
#
# 1 76.1604 27.4964 29.4095 0.0266 7.9314 0.0523
# 2 27.4964 76.5424 22.1011 -0.0349 5.9836 0.0590
# 3 29.4095 22.1011 62.3546 -0.0150 10.2723 0.0422
# 4 0.0266 -0.0349 -0.0150 22.6755 -0.0043 -5.0796
# 5 7.9314 5.9836 10.2723 -0.0043 19.8877 0.0466
# 6 0.0523 0.0590 0.0422 -5.0796 0.0466 23.4627
#
#
#
# Elastic Compliance Matrix: (Units=1/GPa)
#
#
# Indices 1 2 3 4 5 6 
#
# 1 0.017331 -0.004225 -0.006282 -0.000036 -0.002396 -0.000020
# 2 -0.004225 0.015648 -0.003340 0.000023 -0.001298 -0.000016
# 3 -0.006282 -0.003340 0.021429 0.000015 -0.007558 0.000002
# 4 -0.000036 0.000023 0.000015 0.046348 -0.000014 0.010034
# 5 -0.002396 -0.001298 -0.007558 -0.000014 0.055533 -0.000091
# 6 -0.000020 -0.000016 0.000002 0.010034 -0.000091 0.044794
#
#
# Mechanical properties :
#
#
# Convention : Reuss Voigt Hill
#
# Bulk Modulus (GPa) = 37.43212 41.45238 39.44225
# Shear Modulus (GPa) = 21.03664 22.27520 21.65592
#
# Velocity S-wave (km/s) = 3.30337 3.39922 3.35164
# Velocity P-wave (km/s) = 5.82809 6.07525 5.95295
#
# Compressibility (1/GPa) = 0.02671502
#
# Stress axis : x y z
#
# Youngs Moduli (GPa) = 57.70107 63.90539 46.66531
#
# Poissons Ratio (x) = 0.26997 0.29315
# Poissons Ratio (y) = 0.24376 0.15586
# Poissons Ratio (z) = 0.36248 0.21344
#
# Static dielectric constant tensor:
#      x y z
#    x 1.650800 -0.000010 -0.000440 
#    y -0.000010 1.773210 -0.000060 
#    z -0.000440 -0.000060 1.672890 
# 
# From -- ./inp_files/256511.got.cif
#   From: 2010.05.17/outbox.cif.g08.bks.cpg/sg15_129_cif.got.tgz:256511.got - 2010.06.03 18:47:42.
