data_PCOD9262779
_publ_section_title
;
Structure prediction by ZEFSAII (Michael W. Deem and Ramdas Pophale) SiO2 
 PCOD9262779
Probable space group: C 2/C
;
_chemical_formula_sum "Si O2"
_cell_formula_units_Z 64
_cell_length_a 22.045901
_cell_length_b 10.265303
_cell_length_c 13.402255
_cell_angle_alpha 90.000000
_cell_angle_beta 113.565584
_cell_angle_gamma 90.000000
_cell_volume 2780.089627
_symmetry_space_group_name_H-M "C 2/C"
_symmetry_group_IT_number 15
_symmetry_cell_setting 'monoclinic'
loop_
_space_group_symop_operation_xyz
x,y,z
-x,y,1/2-z
-x,-y,-z
x,-y,1/2+z
1/2+x,1/2+y,z
1/2-x,1/2+y,1/2-z
1/2-x,1/2-y,-z
1/2+x,1/2-y,1/2+z
loop_
_atom_site_type_symbol
_atom_site_label
_atom_site_fract_x
_atom_site_fract_y
_atom_site_fract_z
Si Si1 0.379250 0.330564 0.309460
Si Si2 0.978491 0.879827 0.056409
Si Si3 0.162872 0.154553 0.937028
Si Si4 0.243084 0.859002 0.882124
Si Si5 0.841361 0.455062 0.566833
Si Si6 0.307228 0.590760 0.952918
Si Si7 0.168516 0.460142 0.708606
Si Si8 0.941366 0.403271 0.484970
O O1 0.455729 0.354661 0.335650
O O2 0.336205 0.361571 0.182419
O O3 0.360461 0.404051 0.399397
O O4 0.367918 0.179114 0.327244
O O5 0.910954 0.887934 0.075598
O O6 0.964899 0.744619 0.988490
O O7 0.000000 0.000000 0.000000
O O8 0.179074 0.304791 0.968530
O O9 0.207771 0.059780 0.033031
O O10 0.182782 0.869420 0.921839
O O11 0.257455 0.931141 0.786468
O O12 0.258695 0.706050 0.883443
O O13 0.302704 0.932600 0.981604
O O14 0.836237 0.487096 0.678627
O O15 0.917158 0.441780 0.580242
O O16 0.124750 0.566756 0.622646
O O17 0.000000 0.500000 0.500000
#
# Coordination Sequence:
#
# PCOD9262779 Si02
#       8
#     8   8   8   8   8   8   8   8
#     4  10  19  35  57  76 108 146 173 216 267 313
#     4  11  20  34  55  77 112 140 173 217 265 313
#     4  10  21  35  55  81 104 140 183 215 263 322
#     4   9  20  37  57  77 105 142 174 222 272 310
#     4   9  20  35  55  81 107 136 181 223 260 313
#     4  10  20  37  56  77 107 141 178 216 270 324
#     4   9  18  36  57  78 107 140 180 218 260 314
#     4  10  19  33  56  79 105 146 180 210 261 314
#
# _framework density 23.020841000000001
#
# number of rings (size 3 to 8) (size 9 to 14) (size 15 to 20)
#    0.000    2.250    2.500    0.375    0.000    2.000 
#    2.250    0.000    2.750    0.000    0.000    0.000 
#    0.000    0.000    0.000    0.000    0.000    0.000 
#
# Total GULP energy -178161.043837 kJ/mol
# GULP energy per Si atom -5567.532620 kJ/mol
# Density = 2.296844 g / cm^3
# Si number density = 23.020841 Si / 1000 Ang^3
#
#
#
# Elastic Constant Matrix: (Units=GPa)
#
#
# Indices 1 2 3 4 5 6 
#
# 1 106.7393 47.2430 31.6346 0.0000 -24.6723 0.0000
# 2 47.2430 143.6183 46.2032 0.0000 -12.1226 0.0000
# 3 31.6346 46.2032 99.1055 0.0000 -20.3725 0.0000
# 4 0.0000 0.0000 0.0000 27.7358 0.0000 -4.8887
# 5 -24.6723 -12.1226 -20.3725 0.0000 38.4641 0.0000
# 6 0.0000 0.0000 0.0000 -4.8887 0.0000 38.7796
#
#
#
# Elastic Compliance Matrix: (Units=1/GPa)
#
#
# Indices 1 2 3 4 5 6 
#
# 1 0.012647 -0.003227 -0.001205 0.000000 0.006457 0.000000
# 2 -0.003227 0.009029 -0.003389 0.000000 -0.001019 0.000000
# 3 -0.001205 -0.003389 0.013103 0.000000 0.005099 0.000000
# 4 0.000000 0.000000 0.000000 0.036874 0.000000 0.004648
# 5 0.006457 -0.001019 0.005099 0.000000 0.032519 0.000000
# 6 0.000000 0.000000 0.000000 0.004648 0.000000 0.026373
#
#
# Mechanical properties :
#
#
# Convention : Reuss Voigt Hill
#
# Bulk Modulus (GPa) = 52.25676 66.62494 59.44085
# Shear Modulus (GPa) = 32.77306 35.95472 34.36389
#
# Velocity S-wave (km/s) = 3.77719 3.95629 3.86778
# Velocity P-wave (km/s) = 6.46312 7.06213 6.76925
#
# Compressibility (1/GPa) = 0.01913628
#
# Stress axis : x y z
#
# Youngs Moduli (GPa) = 79.07240 110.75867 76.31965
#
# Poissons Ratio (x) = 0.35747 0.09196
# Poissons Ratio (y) = 0.25520 0.25861
# Poissons Ratio (z) = 0.09528 0.37531
#
# Static dielectric constant tensor:
#      x y z
#    x 2.006450 0.000000 -0.030590 
#    y 0.000000 1.876690 0.000000 
#    z -0.030590 0.000000 1.902200 
# 
# From -- ./inp_files/176621.got.cif
#   From: 2010.05.17/outbox.cif.g08.bks.cpg/sg15_89_cif.got.tgz:176621.got - 2010.06.03 18:47:42.
