data_PCOD9262865
_publ_section_title
;
Structure prediction by ZEFSAII (Michael W. Deem and Ramdas Pophale) SiO2 
 PCOD9262865
Probable space group: C 2/C
;
_chemical_formula_sum "Si O2"
_cell_formula_units_Z 48
_cell_length_a 7.781735
_cell_length_b 14.149149
_cell_length_c 22.592470
_cell_angle_alpha 90.000000
_cell_angle_beta 54.561318
_cell_angle_gamma 90.000000
_cell_volume 2026.691545
_symmetry_space_group_name_H-M "C 2/C"
_symmetry_group_IT_number 15
_symmetry_cell_setting 'monoclinic'
loop_
_space_group_symop_operation_xyz
x,y,z
-x,y,1/2-z
-x,-y,-z
x,-y,1/2+z
1/2+x,1/2+y,z
1/2-x,1/2+y,1/2-z
1/2-x,1/2-y,-z
1/2+x,1/2-y,1/2+z
loop_
_atom_site_type_symbol
_atom_site_label
_atom_site_fract_x
_atom_site_fract_y
_atom_site_fract_z
Si Si1 0.218995 0.049080 0.673650
Si Si2 0.742835 0.143859 0.293278
Si Si3 0.710640 0.514339 0.039826
Si Si4 0.337864 0.797293 0.560919
Si Si5 0.662460 0.260047 0.845736
Si Si6 0.357205 0.629859 0.043900
O O1 0.181404 0.018290 0.613213
O O2 0.328773 0.148554 0.653619
O O3 0.000000 0.065178 0.750000
O O4 0.332102 0.964764 0.687081
O O5 0.654351 0.190547 0.370186
O O6 0.731188 0.198990 0.234466
O O7 0.000000 0.136681 0.250000
O O8 0.866547 0.605112 0.016929
O O9 0.495356 0.555407 0.054501
O O10 0.758586 0.428505 0.984867
O O11 0.487321 0.710149 0.514345
O O12 0.088467 0.779671 0.600993
O O13 0.766019 0.311759 0.881405
#
# Coordination Sequence:
#
# PCOD9262865 Si02
#       6
#     8   8   8   8   8   8
#     4  10  20  34  56  76 109 146 180 222 279 333
#     4   8  17  35  55  76 101 143 186 219 261 334
#     4   9  19  34  54  82 104 148 185 217 283 329
#     4   9  18  36  58  80 107 142 191 232 271 332
#     4  10  19  33  57  81 108 140 183 226 276 327
#     4  10  19  34  59  81 108 142 192 231 270 338
#
# _framework density 23.683918999999999
#
# number of rings (size 3 to 8) (size 9 to 14) (size 15 to 20)
#    0.000    2.667    0.000    5.000    2.333    0.667 
#    0.000    7.500   14.667    0.000    0.000    0.000 
#    0.000    0.000    0.000    0.000    0.000    0.000 
#
# Total GULP energy -134074.756049 kJ/mol
# GULP energy per Si atom -5586.448169 kJ/mol
# Density = 2.363001 g / cm^3
# Si number density = 23.683919 Si / 1000 Ang^3
#
#
#
# Elastic Constant Matrix: (Units=GPa)
#
#
# Indices 1 2 3 4 5 6 
#
# 1 90.5146 37.6780 32.1923 0.0001 19.4378 0.0000
# 2 37.6780 166.4659 95.5193 0.0001 28.3604 0.0000
# 3 32.1923 95.5193 176.0028 0.0001 16.5628 -0.0001
# 4 0.0001 0.0001 0.0001 45.0063 -0.0001 15.0697
# 5 19.4378 28.3604 16.5628 -0.0001 24.1092 0.0001
# 6 0.0000 0.0000 -0.0001 15.0697 0.0001 0.6386
#
#
#
# Elastic Compliance Matrix: (Units=1/GPa)
#
#
# Indices 1 2 3 4 5 6 
#
# 1 0.013830 -0.000863 -0.001184 0.000000 -0.009322 0.000000
# 2 -0.000863 0.010259 -0.004640 0.000000 -0.008185 0.000000
# 3 -0.001184 -0.004640 0.008353 0.000000 0.000674 0.000000
# 4 0.000000 0.000000 0.000000 -0.003220 -0.000001 0.075974
# 5 -0.009322 -0.008185 0.000674 -0.000001 0.058159 0.000002
# 6 0.000000 0.000000 0.000000 0.075974 0.000002 -0.226898
#
#
# Mechanical properties :
#
#
# Convention : Reuss Voigt Hill
#
# Bulk Modulus (GPa) = 52.44082 84.86248 68.65165
# Shear Modulus (GPa) = -41.74115 31.79041 -4.97537
#
# Velocity S-wave (km/s) = -4.20268 3.66769 -1.45096
# Velocity P-wave (km/s) = 1.16619 7.33791 5.12274
#
# Compressibility (1/GPa) = 0.01906911
#
# Stress axis : x y z
#
# Youngs Moduli (GPa) = 72.30609 97.47167 119.71765
#
# Poissons Ratio (x) = 0.08408 0.14177
# Poissons Ratio (y) = 0.06237 0.55547
# Poissons Ratio (z) = 0.08563 0.45225
#
# Static dielectric constant tensor:
#      x y z
#    x 1.992190 0.000000 -0.042160 
#    y 0.000000 1.958790 0.000000 
#    z -0.042160 0.000000 1.885570 
# 
# From -- ./inp_files/268393.got.cif
#   From: 2010.05.17/outbox.cif.g08.bks.cpg/sg15_135_cif.got.tgz:268393.got - 2010.06.03 18:47:42.
