data_PCOD9262421
_publ_section_title
;
Structure prediction by ZEFSAII (Michael W. Deem and Ramdas Pophale) SiO2 
 PCOD9262421
Probable space group: C 2/C
;
_chemical_formula_sum "Si O2"
_cell_formula_units_Z 40
_cell_length_a 19.218349
_cell_length_b 11.317843
_cell_length_c 24.184008
_cell_angle_alpha 90.000000
_cell_angle_beta 154.760518
_cell_angle_gamma 90.000000
_cell_volume 2242.993233
_symmetry_space_group_name_H-M "C 2/C"
_symmetry_group_IT_number 15
_symmetry_cell_setting 'monoclinic'
loop_
_space_group_symop_operation_xyz
x,y,z
-x,y,1/2-z
-x,-y,-z
x,-y,1/2+z
1/2+x,1/2+y,z
1/2-x,1/2+y,1/2-z
1/2-x,1/2-y,-z
1/2+x,1/2-y,1/2+z
loop_
_atom_site_type_symbol
_atom_site_label
_atom_site_fract_x
_atom_site_fract_y
_atom_site_fract_z
Si Si1 0.057459 0.675249 0.519446
Si Si2 0.419188 0.305061 0.249013
Si Si3 0.620529 0.022071 0.287792
Si Si4 0.482607 0.583554 0.565626
Si Si5 0.151323 0.475115 0.186771
O O1 0.232708 0.652758 0.617038
O O2 0.021077 0.811697 0.482512
O O3 0.085614 0.633186 0.602329
O O4 0.925205 0.592522 0.395241
O O5 0.500000 0.343155 0.250000
O O6 0.415266 0.162374 0.246965
O O7 0.506498 0.353852 0.366415
O O8 0.500000 0.981681 0.250000
O O9 0.812566 0.014418 0.440711
O O10 0.599575 0.963580 0.213009
O O11 0.347266 0.482452 0.322070
#
# Coordination Sequence:
#
# PCOD9262421 Si02
#       5
#     8   8   8   8   8
#     4   9  19  32  51  74 104 132 166 208 244 299
#     4   9  18  29  50  78 110 132 150 200 262 312
#     4  10  20  30  50  76 106 133 160 207 251 306
#     4  10  19  33  51  78 102 136 166 200 252 299
#     4  10  19  34  50  74 103 132 173 203 247 295
#
# _framework density 17.833314000000001
#
# number of rings (size 3 to 8) (size 9 to 14) (size 15 to 20)
#    0.000    2.400    2.000    0.600    2.800    2.400 
#    0.000    0.000    0.000    1.200    0.000    0.000 
#    0.000    0.000    0.000    0.000    0.000    0.000 
#
# Total GULP energy -111543.465071 kJ/mol
# GULP energy per Si atom -5577.173254 kJ/mol
# Density = 1.779272 g / cm^3
# Si number density = 17.833314 Si / 1000 Ang^3
#
#
#
# Elastic Constant Matrix: (Units=GPa)
#
#
# Indices 1 2 3 4 5 6 
#
# 1 158.3582 29.4956 68.0501 -0.0001 -13.0437 0.0000
# 2 29.4956 20.3043 28.1030 -0.0002 3.7021 -0.0001
# 3 68.0501 28.1030 118.3498 -0.0002 3.0729 0.0000
# 4 -0.0001 -0.0002 -0.0002 23.7285 0.0000 0.4053
# 5 -13.0437 3.7021 3.0729 0.0000 17.8094 0.0001
# 6 0.0000 -0.0001 0.0000 0.4053 0.0001 22.1257
#
#
#
# Elastic Compliance Matrix: (Units=1/GPa)
#
#
# Indices 1 2 3 4 5 6 
#
# 1 0.011389 -0.013720 -0.003598 0.000000 0.011814 0.000000
# 2 -0.013720 0.092672 -0.013416 0.000000 -0.026998 0.000000
# 3 -0.003598 -0.013416 0.013762 0.000000 -0.002221 0.000000
# 4 0.000000 0.000000 0.000000 0.042157 0.000000 -0.000772
# 5 0.011814 -0.026998 -0.002221 0.000000 0.070798 0.000000
# 6 0.000000 0.000000 0.000000 -0.000772 0.000000 0.045210
#
#
# Mechanical properties :
#
#
# Convention : Reuss Voigt Hill
#
# Bulk Modulus (GPa) = 17.74421 60.92331 39.33376
# Shear Modulus (GPa) = 14.03546 24.15698 19.09622
#
# Velocity S-wave (km/s) = 2.80846 3.68448 3.27588
# Velocity P-wave (km/s) = 4.52639 7.23445 6.03430
#
# Compressibility (1/GPa) = 0.05635642
#
# Stress axis : x y z
#
# Youngs Moduli (GPa) = 87.80162 10.79072 72.66608
#
# Poissons Ratio (x) = 0.14804 0.26143
# Poissons Ratio (y) = 1.20460 0.97490
# Poissons Ratio (z) = 0.31588 0.14477
#
# Static dielectric constant tensor:
#      x y z
#    x 1.607560 0.000000 -0.010120 
#    y 0.000000 1.607420 0.000000 
#    z -0.010120 0.000000 1.639030 
# 
# From -- ./inp_files/248910.got.cif
#   From: 2010.05.17/outbox.cif.g08.bks.cpg/sg15_125_cif.got.tgz:248910.got - 2010.06.03 18:47:42.
