data_PCOD9262458
_publ_section_title
;
Structure prediction by ZEFSAII (Michael W. Deem and Ramdas Pophale) SiO2 
 PCOD9262458
Probable space group: C 2/C
;
_chemical_formula_sum "Si O2"
_cell_formula_units_Z 48
_cell_length_a 22.963650
_cell_length_b 16.835910
_cell_length_c 17.731293
_cell_angle_alpha 90.000000
_cell_angle_beta 158.563278
_cell_angle_gamma 90.000000
_cell_volume 2505.380792
_symmetry_space_group_name_H-M "C 2/C"
_symmetry_group_IT_number 15
_symmetry_cell_setting 'monoclinic'
loop_
_space_group_symop_operation_xyz
x,y,z
-x,y,1/2-z
-x,-y,-z
x,-y,1/2+z
1/2+x,1/2+y,z
1/2-x,1/2+y,1/2-z
1/2-x,1/2-y,-z
1/2+x,1/2-y,1/2+z
loop_
_atom_site_type_symbol
_atom_site_label
_atom_site_fract_x
_atom_site_fract_y
_atom_site_fract_z
Si Si1 0.970905 0.209194 0.404534
Si Si2 0.816935 0.647820 0.540744
Si Si3 0.177144 0.544273 0.450976
Si Si4 0.652298 0.515198 0.986260
Si Si5 0.245430 0.341277 0.362912
Si Si6 0.530183 0.425449 0.092733
O O1 0.921193 0.300018 0.361016
O O2 0.112174 0.195942 0.514637
O O3 0.009681 0.155652 0.522932
O O4 0.808191 0.173638 0.172852
O O5 0.822101 0.552053 0.546647
O O6 0.748414 0.673062 0.539504
O O7 0.000000 0.674757 0.750000
O O8 0.240342 0.562957 0.443380
O O9 0.296661 0.570315 0.660328
O O10 0.000000 0.573587 0.250000
O O11 0.500000 0.489361 0.750000
O O12 0.588679 0.564106 0.980119
O O13 0.737334 0.436352 0.120854
O O14 0.500000 0.500000 0.000000
#
# Coordination Sequence:
#
# PCOD9262458 Si02
#       6
#     8   8   8   8   8   8
#     4  12  22  34  53  79 115 154 185 230 273 328
#     4  10  19  33  52  77 114 155 187 214 263 341
#     4   9  18  34  56  83 108 143 191 234 273 329
#     4   9  18  36  59  80 111 152 187 220 274 345
#     4  11  21  33  49  76 113 151 185 216 274 338
#     4  11  19  36  58  81 112 149 191 231 282 326
#
# _framework density 19.158764000000001
#
# number of rings (size 3 to 8) (size 9 to 14) (size 15 to 20)
#    0.000    1.667    3.333    4.000    0.000    0.667 
#    0.000    4.167    0.000    0.000    0.000   15.167 
#    0.000    0.000    0.000    0.000    0.000    0.000 
#
# Total GULP energy -133918.732436 kJ/mol
# GULP energy per Si atom -5579.947185 kJ/mol
# Density = 1.911516 g / cm^3
# Si number density = 19.158764 Si / 1000 Ang^3
#
#
#
# Elastic Constant Matrix: (Units=GPa)
#
#
# Indices 1 2 3 4 5 6 
#
# 1 146.2657 39.4570 85.9384 -0.0003 8.3323 -0.0002
# 2 39.4570 48.6569 30.2520 -0.0008 -11.3549 -0.0005
# 3 85.9384 30.2520 107.2624 -0.0004 9.1032 -0.0003
# 4 -0.0003 -0.0008 -0.0004 27.4468 -0.0003 -7.3166
# 5 8.3323 -11.3549 9.1032 -0.0003 26.5872 -0.0002
# 6 -0.0002 -0.0005 -0.0003 -7.3166 -0.0002 21.6723
#
#
#
# Elastic Compliance Matrix: (Units=1/GPa)
#
#
# Indices 1 2 3 4 5 6 
#
# 1 0.014340 -0.006937 -0.009166 0.000000 -0.004319 0.000000
# 2 -0.006937 0.034016 -0.005616 0.000001 0.018625 0.000001
# 3 -0.009166 -0.005616 0.018755 0.000000 -0.005948 0.000000
# 4 0.000000 0.000001 0.000000 0.040037 0.000001 0.013517
# 5 -0.004319 0.018625 -0.005948 0.000001 0.048956 0.000001
# 6 0.000000 0.000001 0.000000 0.013517 0.000001 0.050705
#
#
# Mechanical properties :
#
#
# Convention : Reuss Voigt Hill
#
# Bulk Modulus (GPa) = 42.24376 68.16445 55.20410
# Shear Modulus (GPa) = 19.36940 24.91045 22.13992
#
# Velocity S-wave (km/s) = 3.18306 3.60976 3.40310
# Velocity P-wave (km/s) = 5.96711 7.28215 6.65718
#
# Compressibility (1/GPa) = 0.02367214
#
# Stress axis : x y z
#
# Youngs Moduli (GPa) = 69.73627 29.39795 53.31820
#
# Poissons Ratio (x) = 0.20395 0.48871
# Poissons Ratio (y) = 0.48379 0.29944
# Poissons Ratio (z) = 0.63919 0.16510
#
# Static dielectric constant tensor:
#      x y z
#    x 1.684790 0.000000 0.033440 
#    y 0.000000 1.717750 0.000000 
#    z 0.033440 0.000000 1.663770 
# 
# From -- ./inp_files/219983.got.cif
#   From: 2010.05.17/outbox.cif.g08.bks.cpg/sg15_110_cif.got.tgz:219983.got - 2010.06.03 18:47:42.
