data_PCOD9262557
_publ_section_title
;
Structure prediction by ZEFSAII (Michael W. Deem and Ramdas Pophale) SiO2 
 PCOD9262557
Probable space group: C 2/C
;
_chemical_formula_sum "Si O2"
_cell_formula_units_Z 60
_cell_length_a 20.281818
_cell_length_b 6.284779
_cell_length_c 27.087592
_cell_angle_alpha 90.000000
_cell_angle_beta 56.989315
_cell_angle_gamma 90.000000
_cell_volume 2895.383443
_symmetry_space_group_name_H-M "C 2/C"
_symmetry_group_IT_number 15
_symmetry_cell_setting 'monoclinic'
loop_
_space_group_symop_operation_xyz
x,y,z
-x,y,1/2-z
-x,-y,-z
x,-y,1/2+z
1/2+x,1/2+y,z
1/2-x,1/2+y,1/2-z
1/2-x,1/2-y,-z
1/2+x,1/2-y,1/2+z
loop_
_atom_site_type_symbol
_atom_site_label
_atom_site_fract_x
_atom_site_fract_y
_atom_site_fract_z
Si Si1 0.548691 0.656679 0.407592
Si Si2 0.162351 0.553538 0.068762
Si Si3 0.576344 0.270989 0.467829
Si Si4 0.635908 0.662360 0.674032
Si Si5 0.948604 0.211361 0.352728
Si Si6 0.500000 0.950682 0.750000
Si Si7 0.311922 0.102011 0.612890
Si Si8 0.664767 0.615817 0.493742
O O1 0.551370 0.427944 0.433555
O O2 0.498677 0.799252 0.468263
O O3 0.509990 0.643676 0.369715
O O4 0.634892 0.763567 0.370666
O O5 0.158335 0.662246 0.123735
O O6 0.120874 0.329753 0.089240
O O7 0.253194 0.538066 0.016291
O O8 0.122719 0.726448 0.048986
O O9 0.618805 0.419661 0.490937
O O10 0.640733 0.111344 0.419847
O O11 0.589301 0.473237 0.665237
O O12 0.573132 0.793380 0.732026
O O13 0.718929 0.581984 0.662460
O O14 0.984010 0.392475 0.302389
O O15 0.317248 0.237408 0.560463
#
# Coordination Sequence:
#
# PCOD9262557 Si02
#       8
#     8   8   8   8   8   4   8   8
#     4  10  22  34  54  88 124 160 200 229 287 359
#     4   9  18  30  51  83 118 149 189 238 278 343
#     4  10  19  33  53  84 128 169 195 230 272 365
#     4  10  21  38  61  85 106 145 195 249 307 356
#     4  11  21  38  62  84 109 152 194 249 308 358
#     4  10  24  42  66  84 108 132 196 268 316 354
#     4  10  20  35  56  82 119 159 189 232 288 349
#     4   9  17  30  48  82 121 155 192 226 273 337
#
# _framework density 20.722645
#
# number of rings (size 3 to 8) (size 9 to 14) (size 15 to 20)
#    0.000    2.133    0.000    3.200    0.000    5.333 
#    0.000    5.333    5.867    0.000    0.000    0.000 
#    0.000    0.000    0.000    0.000    0.000    0.000 
#
# Total GULP energy -167294.030137 kJ/mol
# GULP energy per Si atom -5576.467671 kJ/mol
# Density = 2.067548 g / cm^3
# Si number density = 20.722645 Si / 1000 Ang^3
#
#
#
# Elastic Constant Matrix: (Units=GPa)
#
#
# Indices 1 2 3 4 5 6 
#
# 1 148.3159 54.9802 35.7142 -0.0013 -11.3900 0.0020
# 2 54.9802 69.7259 31.2281 -0.0415 -6.8971 -0.0587
# 3 35.7142 31.2281 52.8406 -0.0324 -13.4972 -0.0175
# 4 -0.0013 -0.0415 -0.0324 26.0265 -0.0280 8.8176
# 5 -11.3900 -6.8971 -13.4972 -0.0280 24.7242 -0.0056
# 6 0.0020 -0.0587 -0.0175 8.8176 -0.0056 12.4796
#
#
#
# Elastic Compliance Matrix: (Units=1/GPa)
#
#
# Indices 1 2 3 4 5 6 
#
# 1 0.009864 -0.006546 -0.002445 0.000001 0.001383 -0.000036
# 2 -0.006546 0.023870 -0.010170 -0.000014 -0.001909 0.000108
# 3 -0.002445 -0.010170 0.029719 0.000045 0.012261 -0.000032
# 4 0.000001 -0.000014 0.000045 0.050514 0.000070 -0.035691
# 5 0.001383 -0.001909 0.012261 0.000070 0.047245 -0.000020
# 6 -0.000036 0.000108 -0.000032 -0.035691 -0.000020 0.105349
#
#
# Mechanical properties :
#
#
# Convention : Reuss Voigt Hill
#
# Bulk Modulus (GPa) = 39.79083 57.19195 48.49139
# Shear Modulus (GPa) = 15.96120 22.57672 19.26896
#
# Velocity S-wave (km/s) = 2.77831 3.30429 3.05265
# Velocity P-wave (km/s) = 5.43464 6.49742 5.98965
#
# Compressibility (1/GPa) = 0.02513142
#
# Stress axis : x y z
#
# Youngs Moduli (GPa) = 101.37928 41.89430 33.64811
#
# Poissons Ratio (x) = 0.27424 0.08227
# Poissons Ratio (y) = 0.66364 0.34219
# Poissons Ratio (z) = 0.24786 0.42605
#
# Static dielectric constant tensor:
#      x y z
#    x 1.818240 -0.000010 -0.070860 
#    y -0.000010 1.779140 -0.000030 
#    z -0.070860 -0.000030 1.774390 
# 
# From -- ./inp_files/316979.got.cif
#   From: 2010.05.17/outbox.cif.g08.bks.cpg/sg15_159_cif.got.tgz:316979.got - 2010.06.03 18:47:42.
