data_PCOD9262821
_publ_section_title
;
Structure prediction by ZEFSAII (Michael W. Deem and Ramdas Pophale) SiO2 
 PCOD9262821
Probable space group: C 2/C
;
_chemical_formula_sum "Si O2"
_cell_formula_units_Z 48
_cell_length_a 11.598829
_cell_length_b 23.274591
_cell_length_c 9.127389
_cell_angle_alpha 90.000000
_cell_angle_beta 57.242041
_cell_angle_gamma 90.000000
_cell_volume 2072.144776
_symmetry_space_group_name_H-M "C 2/C"
_symmetry_group_IT_number 15
_symmetry_cell_setting 'monoclinic'
loop_
_space_group_symop_operation_xyz
x,y,z
-x,y,1/2-z
-x,-y,-z
x,-y,1/2+z
1/2+x,1/2+y,z
1/2-x,1/2+y,1/2-z
1/2-x,1/2-y,-z
1/2+x,1/2-y,1/2+z
loop_
_atom_site_type_symbol
_atom_site_label
_atom_site_fract_x
_atom_site_fract_y
_atom_site_fract_z
Si Si1 0.105949 0.351325 0.795833
Si Si2 0.148346 0.922010 0.992904
Si Si3 0.213059 0.252091 0.350306
Si Si4 0.962497 0.813282 0.105055
Si Si5 0.358797 0.485111 0.785645
Si Si6 0.440101 0.054561 0.952671
O O1 0.204621 0.394132 0.637632
O O2 0.206641 0.301480 0.776862
O O3 0.000000 0.328178 0.750000
O O4 0.035277 0.387565 0.971673
O O5 0.140815 0.975547 0.887544
O O6 0.034792 0.874769 0.026525
O O7 0.144614 0.949269 0.156196
O O8 0.250000 0.250000 0.500000
O O9 0.297298 0.305064 0.219896
O O10 0.052371 0.235123 0.455864
O O11 0.000000 0.805220 0.250000
O O12 0.500000 0.460028 0.750000
O O13 0.223790 0.454076 0.937421
O O14 0.500000 0.055936 0.750000
O O15 0.500000 0.000000 0.000000
#
# Coordination Sequence:
#
# PCOD9262821 Si02
#       6
#     8   8   8   8   8   8
#     4  10  19  33  56  85 112 143 186 234 283 335
#     4  10  21  34  54  80 113 148 183 225 276 334
#     4   9  17  31  52  80 110 138 180 234 281 326
#     4   9  17  31  51  78 107 140 179 228 279 326
#     4  11  22  37  54  79 113 150 187 227 274 334
#     4  11  22  38  58  82 115 155 193 234 283 339
#
# _framework density 23.164403
#
# number of rings (size 3 to 8) (size 9 to 14) (size 15 to 20)
#    0.000    2.000    0.000    6.000    0.000    0.000 
#    0.000    6.667    0.000    1.000    0.000   10.500 
#    0.000    0.000    0.000    0.000    0.000    0.000 
#
# Total GULP energy -133867.292841 kJ/mol
# GULP energy per Si atom -5577.803868 kJ/mol
# Density = 2.311168 g / cm^3
# Si number density = 23.164403 Si / 1000 Ang^3
#
#
#
# Elastic Constant Matrix: (Units=GPa)
#
#
# Indices 1 2 3 4 5 6 
#
# 1 51.6588 -5.0956 29.2784 0.0000 -18.4410 0.0000
# 2 -5.0956 71.1911 49.4736 0.0000 9.1711 0.0000
# 3 29.2784 49.4736 128.1982 0.0000 -22.4842 0.0000
# 4 0.0000 0.0000 0.0000 44.4910 0.0000 -18.4139
# 5 -18.4410 9.1711 -22.4842 0.0000 29.2246 0.0000
# 6 0.0000 0.0000 0.0000 -18.4139 0.0000 16.7515
#
#
#
# Elastic Compliance Matrix: (Units=1/GPa)
#
#
# Indices 1 2 3 4 5 6 
#
# 1 0.027227 0.004826 -0.006165 0.000000 0.010923 0.000000
# 2 0.004826 0.026173 -0.013998 0.000000 -0.015938 0.000000
# 3 -0.006165 -0.013998 0.016991 0.000000 0.013575 0.000000
# 4 0.000000 0.000000 0.000000 0.041237 0.000000 0.045330
# 5 0.010923 -0.015938 0.013575 0.000000 0.056556 0.000000
# 6 0.000000 0.000000 0.000000 0.045330 0.000000 0.109524
#
#
# Mechanical properties :
#
#
# Convention : Reuss Voigt Hill
#
# Bulk Modulus (GPa) = 25.17778 44.26231 34.72005
# Shear Modulus (GPa) = 15.54621 29.91954 22.73287
#
# Velocity S-wave (km/s) = 2.59342 3.59781 3.13608
# Velocity P-wave (km/s) = 4.45651 6.03393 5.30419
#
# Compressibility (1/GPa) = 0.03971756
#
# Stress axis : x y z
#
# Youngs Moduli (GPa) = 36.72806 38.20726 58.85376
#
# Poissons Ratio (x) = -0.18438 0.36282
# Poissons Ratio (y) = -0.17724 0.82383
# Poissons Ratio (z) = 0.22642 0.53482
#
# Static dielectric constant tensor:
#      x y z
#    x 1.908360 0.000000 -0.066960 
#    y 0.000000 1.947010 0.000000 
#    z -0.066960 0.000000 1.913660 
# 
# From -- ./inp_files/33423.got.cif
#   From: 2010.05.17/outbox.cif.g08.bks.cpg/sg15_17_cif.got.tgz:33423.got - 2010.06.03 18:47:42.
