data_PCOD9262130
_publ_section_title
;
Structure prediction by ZEFSAII (Michael W. Deem and Ramdas Pophale) SiO2 
 PCOD9262130
Probable space group: C 2/C
;
_chemical_formula_sum "Si O2"
_cell_formula_units_Z 60
_cell_length_a 12.790637
_cell_length_b 27.255000
_cell_length_c 11.094134
_cell_angle_alpha 90.000000
_cell_angle_beta 55.421722
_cell_angle_gamma 90.000000
_cell_volume 3184.322871
_symmetry_space_group_name_H-M "C 2/C"
_symmetry_group_IT_number 15
_symmetry_cell_setting 'monoclinic'
loop_
_space_group_symop_operation_xyz
x,y,z
-x,y,1/2-z
-x,-y,-z
x,-y,1/2+z
1/2+x,1/2+y,z
1/2-x,1/2+y,1/2-z
1/2-x,1/2-y,-z
1/2+x,1/2-y,1/2+z
loop_
_atom_site_type_symbol
_atom_site_label
_atom_site_fract_x
_atom_site_fract_y
_atom_site_fract_z
Si Si1 0.576932 0.703384 0.817834
Si Si2 0.040275 0.289295 0.004013
Si Si3 0.140071 0.022925 0.419066
Si Si4 0.500000 0.274043 0.750000
Si Si5 0.202995 0.304617 0.486970
Si Si6 0.353641 0.637290 0.067972
Si Si7 0.784252 0.151513 0.390111
Si Si8 0.654674 0.540633 0.136255
O O1 0.500000 0.722103 0.750000
O O2 0.701986 0.679587 0.682425
O O3 0.613852 0.747527 0.880422
O O4 0.478725 0.666496 0.944212
O O5 0.967869 0.261284 0.159268
O O6 0.936074 0.306997 0.976626
O O7 0.141763 0.327764 0.987680
O O8 0.130347 0.079804 0.461477
O O9 0.197225 0.023734 0.244286
O O10 0.196352 0.993698 0.497301
O O11 0.000000 0.000000 0.500000
O O12 0.615148 0.308397 0.628816
O O13 0.250000 0.250000 0.500000
O O14 0.234416 0.340719 0.574542
O O15 0.327512 0.647307 0.223396
O O16 0.802293 0.096126 0.423694
O O17 0.500000 0.541682 0.250000
#
# Coordination Sequence:
#
# PCOD9262130 Si02
#       8
#     8   8   8   4   8   8   8   8
#     4  10  19  32  54  79 110 141 182 239 287 324
#     4  12  23  35  54  80 114 161 195 228 276 350
#     4   9  19  33  57  85 116 140 189 244 305 353
#     4  12  22  40  50  80 120 158 206 224 276 342
#     4  11  20  35  53  82 115 146 189 238 289 337
#     4  10  20  36  57  89 112 146 190 242 303 336
#     4  11  22  36  58  80 117 158 196 234 284 350
#     4   9  18  36  56  85 114 145 184 250 302 347
#
# _framework density 18.842310999999999
#
# number of rings (size 3 to 8) (size 9 to 14) (size 15 to 20)
#    0.000    1.600    4.667    2.000    0.000    4.800 
#    0.000    1.333    0.000    0.800    0.000    3.733 
#    0.000    0.000    0.000    0.000    0.000    0.000 
#
# Total GULP energy -167224.963871 kJ/mol
# GULP energy per Si atom -5574.165462 kJ/mol
# Density = 1.879942 g / cm^3
# Si number density = 18.842311 Si / 1000 Ang^3
#
#
#
# Elastic Constant Matrix: (Units=GPa)
#
#
# Indices 1 2 3 4 5 6 
#
# 1 71.4536 41.8412 8.1940 0.0000 -3.2667 0.0000
# 2 41.8412 101.5914 23.8114 0.0000 14.0661 0.0000
# 3 8.1940 23.8114 38.1357 0.0000 9.2907 0.0000
# 4 0.0000 0.0000 0.0000 17.9043 0.0000 8.9985
# 5 -3.2667 14.0661 9.2907 0.0000 27.6838 0.0000
# 6 0.0000 0.0000 0.0000 8.9985 0.0000 29.6811
#
#
#
# Elastic Compliance Matrix: (Units=1/GPa)
#
#
# Indices 1 2 3 4 5 6 
#
# 1 0.019599 -0.008964 -0.000313 0.000000 0.006972 0.000000
# 2 -0.008964 0.015999 -0.006344 0.000000 -0.007058 0.000000
# 3 -0.000313 -0.006344 0.032099 0.000000 -0.007586 0.000000
# 4 0.000000 0.000000 0.000000 0.065892 0.000000 -0.019977
# 5 0.006972 -0.007058 -0.007586 0.000000 0.043077 0.000000
# 6 0.000000 0.000000 0.000000 -0.019977 0.000000 0.039748
#
#
# Mechanical properties :
#
#
# Convention : Reuss Voigt Hill
#
# Bulk Modulus (GPa) = 27.43108 39.87485 33.65297
# Shear Modulus (GPa) = 19.24503 24.20946 21.72724
#
# Velocity S-wave (km/s) = 3.19936 3.58836 3.39943
# Velocity P-wave (km/s) = 5.31392 6.19490 5.77124
#
# Compressibility (1/GPa) = 0.03645500
#
# Stress axis : x y z
#
# Youngs Moduli (GPa) = 51.02375 62.50219 31.15388
#
# Poissons Ratio (x) = 0.56027 0.00974
# Poissons Ratio (y) = 0.45737 0.19765
# Poissons Ratio (z) = 0.01595 0.39654
#
# Static dielectric constant tensor:
#      x y z
#    x 1.602780 0.000000 -0.013110 
#    y 0.000000 1.699430 0.000000 
#    z -0.013110 0.000000 1.681300 
# 
# From -- ./inp_files/92045.got.cif
#   From: 2010.05.17/outbox.cif.g08.bks.cpg/sg15_47_cif.got.tgz:92045.got - 2010.06.03 18:47:42.
