data_PCOD9262016
_publ_section_title
;
Structure prediction by ZEFSAII (Michael W. Deem and Ramdas Pophale) SiO2 
 PCOD9262016
Probable space group: C 2/C
;
_chemical_formula_sum "Si O2"
_cell_formula_units_Z 56
_cell_length_a 17.948151
_cell_length_b 25.923086
_cell_length_c 17.917778
_cell_angle_alpha 90.000000
_cell_angle_beta 18.185080
_cell_angle_gamma 90.000000
_cell_volume 2601.758522
_symmetry_space_group_name_H-M "C 2/C"
_symmetry_group_IT_number 15
_symmetry_cell_setting 'monoclinic'
loop_
_space_group_symop_operation_xyz
x,y,z
-x,y,1/2-z
-x,-y,-z
x,-y,1/2+z
1/2+x,1/2+y,z
1/2-x,1/2+y,1/2-z
1/2-x,1/2-y,-z
1/2+x,1/2-y,1/2+z
loop_
_atom_site_type_symbol
_atom_site_label
_atom_site_fract_x
_atom_site_fract_y
_atom_site_fract_z
Si Si1 0.000000 0.859679 0.750000
Si Si2 0.147707 0.531815 0.993641
Si Si3 0.817621 0.071119 0.683562
Si Si4 0.000000 0.105662 0.750000
Si Si5 0.747662 0.892216 0.628896
Si Si6 0.420243 0.434268 0.701877
Si Si7 0.198934 0.720521 0.449666
Si Si8 0.080182 0.355047 0.938296
O O1 0.937633 0.897794 0.877088
O O2 0.217236 0.824532 0.573073
O O3 0.155980 0.540004 0.895754
O O4 0.329386 0.569319 0.863571
O O5 0.250656 0.474705 0.905370
O O6 0.896412 0.555940 0.256573
O O7 0.034991 0.088679 0.527817
O O8 0.901881 0.041858 0.529268
O O9 0.680036 0.123517 0.792596
O O10 0.158728 0.133860 0.536078
O O11 0.600815 0.857863 0.828566
O O12 0.252926 0.397418 0.811741
O O13 0.152827 0.696765 0.411226
O O14 0.943237 0.745370 0.714638
#
# Coordination Sequence:
#
# PCOD9262016 Si02
#       8
#     4   8   8   4   8   8   8   8
#     4  10  23  42  58  90 126 172 214 262 328 377
#     4  10  19  32  52  83 115 163 209 253 298 355
#     4   9  19  34  55  76 114 154 208 259 306 363
#     4  10  19  32  52  76 118 160 198 244 294 369
#     4   9  19  34  55  81 120 153 208 250 309 370
#     4  10  20  35  53  78 119 161 210 255 304 363
#     4  11  25  44  72  95 126 162 212 272 336 403
#     4   9  21  37  58  87 113 152 204 263 321 375
#
# _framework density 21.523903000000001
#
# number of rings (size 3 to 8) (size 9 to 14) (size 15 to 20)
#    0.000    2.286    0.000    1.714    6.000    7.429 
#    2.571    1.429    0.000    0.000    0.000    1.000 
#    0.000    0.000    0.000    0.000    0.000    0.000 
#
# Total GULP energy -155972.595289 kJ/mol
# GULP energy per Si atom -5570.449832 kJ/mol
# Density = 2.147491 g / cm^3
# Si number density = 21.523903 Si / 1000 Ang^3
#
#
#
# Elastic Constant Matrix: (Units=GPa)
#
#
# Indices 1 2 3 4 5 6 
#
# 1 107.0370 29.9748 39.6661 -0.0560 5.6579 0.1254
# 2 29.9748 45.0028 14.2757 -0.1981 -2.7500 0.0552
# 3 39.6661 14.2757 78.3575 -0.0346 2.1427 0.0044
# 4 -0.0560 -0.1981 -0.0346 13.3953 -0.2419 -8.7271
# 5 5.6579 -2.7500 2.1427 -0.2419 30.3253 0.0342
# 6 0.1254 0.0552 0.0044 -8.7271 0.0342 26.3858
#
#
#
# Elastic Compliance Matrix: (Units=1/GPa)
#
#
# Indices 1 2 3 4 5 6 
#
# 1 0.013615 -0.007515 -0.005446 -0.000189 -0.002838 -0.000107
# 2 -0.007515 0.027917 -0.001392 0.000552 0.004036 0.000155
# 3 -0.005446 -0.001392 0.015778 0.000013 -0.000225 0.000031
# 4 -0.000189 0.000552 0.000013 0.095186 0.000808 0.031482
# 5 -0.002838 0.004036 -0.000225 0.000808 0.033893 0.000228
# 6 -0.000107 0.000155 0.000031 0.031482 0.000228 0.048312
#
#
# Mechanical properties :
#
#
# Convention : Reuss Voigt Hill
#
# Bulk Modulus (GPa) = 34.95874 44.24782 39.60328
# Shear Modulus (GPa) = 18.31890 23.78665 21.05277
#
# Velocity S-wave (km/s) = 2.92052 3.32795 3.13087
# Velocity P-wave (km/s) = 5.25829 5.94720 5.61332
#
# Compressibility (1/GPa) = 0.02860515
#
# Stress axis : x y z
#
# Youngs Moduli (GPa) = 73.44681 35.82049 63.37770
#
# Poissons Ratio (x) = 0.26920 0.34513
# Poissons Ratio (y) = 0.55198 0.08821
# Poissons Ratio (z) = 0.39996 0.04985
#
# Static dielectric constant tensor:
#      x y z
#    x 1.802560 -0.000020 0.051690 
#    y -0.000020 1.810210 0.000200 
#    z 0.051690 0.000200 1.947230 
# 
# From -- ./inp_files/212296.got.cif
#   From: 2010.05.17/outbox.cif.g08.bks.cpg/sg15_107_cif.got.tgz:212296.got - 2010.06.03 18:47:42.
