data_PCOD9262824
_publ_section_title
;
Structure prediction by ZEFSAII (Michael W. Deem and Ramdas Pophale) SiO2 
 PCOD9262824
Probable space group: C 2/C
;
_chemical_formula_sum "Si O2"
_cell_formula_units_Z 64
_cell_length_a 14.716320
_cell_length_b 18.714496
_cell_length_c 12.465316
_cell_angle_alpha 90.000000
_cell_angle_beta 74.876929
_cell_angle_gamma 90.000000
_cell_volume 3314.159419
_symmetry_space_group_name_H-M "C 2/C"
_symmetry_group_IT_number 15
_symmetry_cell_setting 'monoclinic'
loop_
_space_group_symop_operation_xyz
x,y,z
-x,y,1/2-z
-x,-y,-z
x,-y,1/2+z
1/2+x,1/2+y,z
1/2-x,1/2+y,1/2-z
1/2-x,1/2-y,-z
1/2+x,1/2-y,1/2+z
loop_
_atom_site_type_symbol
_atom_site_label
_atom_site_fract_x
_atom_site_fract_y
_atom_site_fract_z
Si Si1 0.087096 0.090627 0.162623
Si Si2 0.667567 0.203021 0.682198
Si Si3 0.800224 0.152295 0.023644
Si Si4 0.919348 0.310904 0.531147
Si Si5 0.025138 0.933029 0.124676
Si Si6 0.252196 0.140987 0.220076
Si Si7 0.128990 0.310264 0.435443
Si Si8 0.632644 0.348589 0.428545
O O1 0.176212 0.080868 0.211736
O O2 0.000000 0.127714 0.250000
O O3 0.046197 0.016304 0.132916
O O4 0.125831 0.138837 0.056470
O O5 0.613951 0.195102 0.584428
O O6 0.705652 0.283086 0.697360
O O7 0.619333 0.183943 0.809587
O O8 0.760841 0.154696 0.641974
O O9 0.744892 0.138481 0.152207
O O10 0.850034 0.228917 0.031434
O O11 0.885977 0.101272 0.963181
O O12 0.722163 0.151973 0.953703
O O13 0.848178 0.359324 0.622857
O O14 0.910516 0.229750 0.579691
O O15 0.027321 0.333656 0.509214
O O16 0.000000 0.902373 0.250000
O O17 0.929848 0.912834 0.094786
#
# Coordination Sequence:
#
# PCOD9262824 Si02
#       8
#     8   8   8   8   8   8   8   8
#     4  11  22  34  56  83 113 155 197 231 285 347
#     4  10  19  33  56  85 115 147 192 238 291 341
#     4  10  21  39  53  81 118 153 193 238 292 355
#     4  11  19  34  57  87 113 151 188 241 295 341
#     4  11  23  37  54  80 116 156 194 235 288 347
#     4  10  20  35  56  82 118 150 193 237 284 353
#     4  10  21  34  56  84 112 153 190 236 301 347
#     4  11  19  35  53  81 116 148 185 239 291 349
#
# _framework density 19.311081000000001
#
# number of rings (size 3 to 8) (size 9 to 14) (size 15 to 20)
#    0.000    1.500    3.750    3.000    1.750    2.500 
#    0.000    0.000    0.000    0.750    0.000    0.000 
#    0.000    0.000    0.000    0.000    0.000    0.000 
#
# Total GULP energy -178261.284148 kJ/mol
# GULP energy per Si atom -5570.665130 kJ/mol
# Density = 1.926713 g / cm^3
# Si number density = 19.311081 Si / 1000 Ang^3
#
#
#
# Elastic Constant Matrix: (Units=GPa)
#
#
# Indices 1 2 3 4 5 6 
#
# 1 90.0116 10.4199 23.6992 0.0000 -20.9228 0.0000
# 2 10.4199 26.4903 2.0576 0.0000 -4.2735 0.0000
# 3 23.6992 2.0576 102.2322 0.0000 -12.6249 0.0000
# 4 0.0000 0.0000 0.0000 20.1351 0.0000 -13.2397
# 5 -20.9228 -4.2735 -12.6249 0.0000 33.6825 0.0000
# 6 0.0000 0.0000 0.0000 -13.2397 0.0000 68.1003
#
#
#
# Elastic Compliance Matrix: (Units=1/GPa)
#
#
# Indices 1 2 3 4 5 6 
#
# 1 0.013859 -0.004108 -0.002235 0.000000 0.007250 0.000000
# 2 -0.004108 0.039759 0.000482 0.000000 0.002673 0.000000
# 3 -0.002235 0.000482 0.010618 0.000000 0.002653 0.000000
# 4 0.000000 0.000000 0.000000 0.056944 0.000000 0.011071
# 5 0.007250 0.002673 0.002653 0.000000 0.035526 0.000000
# 6 0.000000 0.000000 0.000000 0.011071 0.000000 0.016837
#
#
# Mechanical properties :
#
#
# Convention : Reuss Voigt Hill
#
# Bulk Modulus (GPa) = 19.04235 32.34306 25.69270
# Shear Modulus (GPa) = 24.65866 36.55407 30.60637
#
# Velocity S-wave (km/s) = 3.57728 4.35547 3.98541
# Velocity P-wave (km/s) = 5.19084 6.48678 5.87465
#
# Compressibility (1/GPa) = 0.05251453
#
# Stress axis : x y z
#
# Youngs Moduli (GPa) = 72.15614 25.15129 94.18341
#
# Poissons Ratio (x) = 0.10333 0.21047
# Poissons Ratio (y) = 0.29643 -0.04542
# Poissons Ratio (z) = 0.16125 -0.01213
#
# Static dielectric constant tensor:
#      x y z
#    x 1.654830 0.000000 0.051000 
#    y 0.000000 1.677310 0.000000 
#    z 0.051000 0.000000 1.790940 
# 
# From -- ./inp_files/99782.got.cif
#   From: 2010.05.17/outbox.cif.g08.bks.cpg/sg15_50_cif.got.tgz:99782.got - 2010.06.03 18:47:42.
