data_PCOD9262171
_publ_section_title
;
Structure prediction by ZEFSAII (Michael W. Deem and Ramdas Pophale) SiO2 
 PCOD9262171
Probable space group: C 2/C
;
_chemical_formula_sum "Si O2"
_cell_formula_units_Z 36
_cell_length_a 7.416063
_cell_length_b 32.087042
_cell_length_c 8.958005
_cell_angle_alpha 90.000000
_cell_angle_beta 56.497349
_cell_angle_gamma 90.000000
_cell_volume 1777.492115
_symmetry_space_group_name_H-M "C 2/C"
_symmetry_group_IT_number 15
_symmetry_cell_setting 'monoclinic'
loop_
_space_group_symop_operation_xyz
x,y,z
-x,y,1/2-z
-x,-y,-z
x,-y,1/2+z
1/2+x,1/2+y,z
1/2-x,1/2+y,1/2-z
1/2-x,1/2-y,-z
1/2+x,1/2-y,1/2+z
loop_
_atom_site_type_symbol
_atom_site_label
_atom_site_fract_x
_atom_site_fract_y
_atom_site_fract_z
Si Si1 0.640195 0.705308 0.878518
Si Si2 0.663618 0.643491 0.316560
Si Si3 0.247661 0.950314 0.875386
Si Si4 0.500000 0.492524 0.250000
Si Si5 0.973843 0.297551 0.507204
O O1 0.545556 0.751872 0.911461
O O2 0.788994 0.695151 0.668512
O O3 0.456880 0.672946 0.009510
O O4 0.808365 0.704761 0.941633
O O5 0.500000 0.639396 0.250000
O O6 0.708322 0.598198 0.360831
O O7 0.875893 0.666973 0.157316
O O8 0.500000 0.959089 0.750000
O O9 0.130245 0.977867 0.803125
O O10 0.153834 0.964165 0.077640
#
# Coordination Sequence:
#
# PCOD9262171 Si02
#       5
#     8   8   8   4   8
#     4   9  15  25  44  77 116 161 207 251 296 351
#     4  10  19  32  54  87 126 160 207 259 302 366
#     4  11  23  43  69  97 128 164 206 260 321 385
#     4  10  24  46  70  96 124 164 206 260 322 394
#     4   9  15  25  45  76 116 162 207 250 298 348
#
# _framework density 20.253253999999998
#
# number of rings (size 3 to 8) (size 9 to 14) (size 15 to 20)
#    0.000    2.222    3.333    0.667    0.000    1.778 
#    0.000    0.000    0.000    1.333    0.000    0.000 
#    0.000    0.000    0.000    0.000    0.000    0.000 
#
# Total GULP energy -100669.380478 kJ/mol
# GULP energy per Si atom -5592.743360 kJ/mol
# Density = 2.020716 g / cm^3
# Si number density = 20.253254 Si / 1000 Ang^3
#
#
#
# Elastic Constant Matrix: (Units=GPa)
#
#
# Indices 1 2 3 4 5 6 
#
# 1 41.6212 15.3756 53.1566 0.0000 7.8683 0.0000
# 2 15.3756 153.5051 105.5913 0.0000 -16.0844 0.0000
# 3 53.1566 105.5913 216.4150 0.0000 -38.8363 0.0000
# 4 0.0000 0.0000 0.0000 24.2207 0.0000 -25.6631
# 5 7.8683 -16.0844 -38.8363 0.0000 33.0231 0.0000
# 6 0.0000 0.0000 0.0000 -25.6631 0.0000 -14.1608
#
#
#
# Elastic Compliance Matrix: (Units=1/GPa)
#
#
# Indices 1 2 3 4 5 6 
#
# 1 0.064919 0.007965 -0.027773 0.000000 -0.044250 0.000000
# 2 0.007965 0.010813 -0.008400 0.000000 -0.006510 0.000000
# 3 -0.027773 -0.008400 0.020273 0.000000 0.026367 0.000000
# 4 0.000000 0.000000 0.000000 0.014138 0.000000 -0.025623
# 5 -0.044250 -0.006510 0.026367 0.000000 0.068663 0.000000
# 6 0.000000 0.000000 0.000000 -0.025623 0.000000 -0.024182
#
#
# Mechanical properties :
#
#
# Convention : Reuss Voigt Hill
#
# Bulk Modulus (GPa) = 25.26004 84.42092 54.84048
# Shear Modulus (GPa) = 22.29796 24.44446 23.37121
#
# Velocity S-wave (km/s) = 3.32167 3.47787 3.40067
# Velocity P-wave (km/s) = 5.21636 7.60924 6.52346
#
# Compressibility (1/GPa) = 0.03958822
#
# Stress axis : x y z
#
# Youngs Moduli (GPa) = 15.40380 92.48277 49.32759
#
# Poissons Ratio (x) = -0.73661 1.36996
# Poissons Ratio (y) = -0.12269 0.41437
# Poissons Ratio (z) = 0.42780 0.77689
#
# Static dielectric constant tensor:
#      x y z
#    x 1.754100 0.000000 0.016700 
#    y 0.000000 1.651230 0.000000 
#    z 0.016700 0.000000 1.692410 
# 
# From -- ./inp_files/25290.got.cif
#   From: 2010.05.17/outbox.cif.g08.bks.cpg/sg15_13_cif.got.tgz:25290.got - 2010.06.03 18:47:42.
