data_PCOD9262491
_publ_section_title
;
Structure prediction by ZEFSAII (Michael W. Deem and Ramdas Pophale) SiO2 
 PCOD9262491
Probable space group: C 2/C
;
_chemical_formula_sum "Si O2"
_cell_formula_units_Z 60
_cell_length_a 18.192489
_cell_length_b 21.214220
_cell_length_c 7.535557
_cell_angle_alpha 90.000000
_cell_angle_beta 80.405098
_cell_angle_gamma 90.000000
_cell_volume 2867.584684
_symmetry_space_group_name_H-M "C 2/C"
_symmetry_group_IT_number 15
_symmetry_cell_setting 'monoclinic'
loop_
_space_group_symop_operation_xyz
x,y,z
-x,y,1/2-z
-x,-y,-z
x,-y,1/2+z
1/2+x,1/2+y,z
1/2-x,1/2+y,1/2-z
1/2-x,1/2-y,-z
1/2+x,1/2-y,1/2+z
loop_
_atom_site_type_symbol
_atom_site_label
_atom_site_fract_x
_atom_site_fract_y
_atom_site_fract_z
Si Si1 0.500000 0.254702 0.250000
Si Si2 0.764885 0.417378 0.785146
Si Si3 0.697549 0.060504 0.819274
Si Si4 0.649845 0.417277 0.368581
Si Si5 0.486075 0.348811 0.949376
Si Si6 0.537030 0.069218 0.991998
Si Si7 0.387061 0.560210 0.027077
Si Si8 0.090632 0.638921 0.325889
O O1 0.483696 0.299865 0.420036
O O2 0.567323 0.207572 0.269768
O O3 0.787496 0.485735 0.700701
O O4 0.676028 0.410105 0.817359
O O5 0.822401 0.369020 0.675256
O O6 0.780705 0.418718 0.990716
O O7 0.760474 0.089458 0.664864
O O8 0.609217 0.071842 0.835379
O O9 0.599614 0.364266 0.476889
O O10 0.627237 0.485609 0.455075
O O11 0.626182 0.420136 0.170908
O O12 0.500000 0.323287 0.750000
O O13 0.532913 0.413807 0.949420
O O14 0.571493 0.089834 0.170685
O O15 0.468139 0.117542 0.000230
O O16 0.500000 0.000000 0.000000
#
# Coordination Sequence:
#
# PCOD9262491 Si02
#       8
#     4   8   8   8   8   8   8   8
#     4  10  22  42  62  82 114 162 208 250 284 344
#     4   9  17  31  52  82 120 154 181 229 294 355
#     4   9  17  27  49  80 118 149 177 219 291 354
#     4  10  19  33  52  86 122 146 183 242 298 364
#     4  12  23  39  64  81 110 155 206 253 300 349
#     4   9  14  26  51  81 109 144 187 227 280 343
#     4  10  19  33  55  89 120 149 190 238 308 362
#     4   9  19  33  58  79 117 157 201 236 283 357
#
# _framework density 20.923531000000001
#
# number of rings (size 3 to 8) (size 9 to 14) (size 15 to 20)
#    0.000    2.400    2.667    1.200    0.000    1.067 
#    0.000    0.667   23.467    0.800    0.000    0.000 
#    0.000    0.000    0.000    0.000    0.000    0.000 
#
# Total GULP energy -167302.434549 kJ/mol
# GULP energy per Si atom -5576.747818 kJ/mol
# Density = 2.087591 g / cm^3
# Si number density = 20.923531 Si / 1000 Ang^3
#
#
#
# Elastic Constant Matrix: (Units=GPa)
#
#
# Indices 1 2 3 4 5 6 
#
# 1 92.4055 25.7302 50.0024 0.0000 -37.0525 0.0000
# 2 25.7302 59.9979 28.9101 0.0000 -13.3683 0.0000
# 3 50.0024 28.9101 81.8897 0.0000 -17.4844 0.0000
# 4 0.0000 0.0000 0.0000 8.8232 0.0000 9.6589
# 5 -37.0525 -13.3683 -17.4844 0.0000 46.4625 0.0000
# 6 0.0000 0.0000 0.0000 9.6589 0.0000 33.1533
#
#
#
# Elastic Compliance Matrix: (Units=1/GPa)
#
#
# Indices 1 2 3 4 5 6 
#
# 1 0.022065 -0.001651 -0.010042 0.000000 0.013343 0.000000
# 2 -0.001651 0.020708 -0.005776 0.000000 0.002468 0.000000
# 3 -0.010042 -0.005776 0.019918 0.000000 -0.002174 0.000000
# 4 0.000000 0.000000 0.000000 0.166413 0.000000 -0.048483
# 5 0.013343 0.002468 -0.002174 0.000000 0.032055 0.000000
# 6 0.000000 0.000000 0.000000 -0.048483 0.000000 0.044288
#
#
# Mechanical properties :
#
#
# Convention : Reuss Voigt Hill
#
# Bulk Modulus (GPa) = 36.03001 49.28650 42.65826
# Shear Modulus (GPa) = 14.30062 26.33115 20.31588
#
# Velocity S-wave (km/s) = 2.61716 3.55131 3.11940
# Velocity P-wave (km/s) = 5.13712 6.35786 5.77981
#
# Compressibility (1/GPa) = 0.02775464
#
# Stress axis : x y z
#
# Youngs Moduli (GPa) = 45.31970 48.28987 50.20658
#
# Poissons Ratio (x) = 0.07974 0.50415
# Poissons Ratio (y) = 0.07484 0.28997
# Poissons Ratio (z) = 0.45508 0.27890
#
# Static dielectric constant tensor:
#      x y z
#    x 1.837910 0.000000 -0.014770 
#    y 0.000000 1.697640 0.000000 
#    z -0.014770 0.000000 1.831110 
# 
# From -- ./inp_files/56538.got.cif
#   From: 2010.05.17/outbox.cif.g08.bks.cpg/sg15_29_cif.got.tgz:56538.got - 2010.06.03 18:47:42.
