data_PCOD9262574
_publ_section_title
;
Structure prediction by ZEFSAII (Michael W. Deem and Ramdas Pophale) SiO2 
 PCOD9262574
Probable space group: C 2/C
;
_chemical_formula_sum "Si O2"
_cell_formula_units_Z 48
_cell_length_a 7.376029
_cell_length_b 19.648623
_cell_length_c 26.317397
_cell_angle_alpha 90.000000
_cell_angle_beta 35.663449
_cell_angle_gamma 90.000000
_cell_volume 2223.736794
_symmetry_space_group_name_H-M "C 2/C"
_symmetry_group_IT_number 15
_symmetry_cell_setting 'monoclinic'
loop_
_space_group_symop_operation_xyz
x,y,z
-x,y,1/2-z
-x,-y,-z
x,-y,1/2+z
1/2+x,1/2+y,z
1/2-x,1/2+y,1/2-z
1/2-x,1/2-y,-z
1/2+x,1/2-y,1/2+z
loop_
_atom_site_type_symbol
_atom_site_label
_atom_site_fract_x
_atom_site_fract_y
_atom_site_fract_z
Si Si1 0.240089 0.158054 0.851479
Si Si2 0.840332 0.573580 0.482095
Si Si3 0.488939 0.706994 0.409877
Si Si4 0.193183 0.658670 0.843987
Si Si5 0.234379 0.311175 0.852412
Si Si6 0.231660 0.574271 0.489798
O O1 0.500000 0.141217 0.750000
O O2 0.426299 0.159565 0.862098
O O3 0.115710 0.234412 0.869084
O O4 0.954893 0.107410 0.923022
O O5 0.737071 0.497886 0.490049
O O6 0.975879 0.629994 0.412844
O O7 0.128709 0.561545 0.455234
O O8 0.250000 0.750000 0.500000
O O9 0.759272 0.762942 0.344960
O O10 0.368861 0.695004 0.379507
O O11 0.505093 0.630698 0.428207
O O12 0.500000 0.628320 0.750000
O O13 0.057490 0.614108 0.919714
O O14 0.500000 0.325086 0.750000
#
# Coordination Sequence:
#
# PCOD9262574 Si02
#       6
#     8   8   8   8   8   8
#     4  10  20  34  53  78 106 137 181 228 270 320
#     4  10  19  34  55  78 110 146 175 219 274 326
#     4   8  16  33  53  74 102 137 179 221 266 323
#     4  10  19  33  54  76 101 136 179 227 272 319
#     4   9  18  32  52  81 110 139 181 228 274 325
#     4   9  19  34  53  76 106 141 179 215 268 336
#
# _framework density 21.585289
#
# number of rings (size 3 to 8) (size 9 to 14) (size 15 to 20)
#    0.000    2.667    0.000    1.500    0.000    1.333 
#    0.000   12.500    0.000    2.000    0.000    0.000 
#    0.000    0.000    0.000    0.000    0.000    0.000 
#
# Total GULP energy -133674.371545 kJ/mol
# GULP energy per Si atom -5569.765481 kJ/mol
# Density = 2.153616 g / cm^3
# Si number density = 21.585289 Si / 1000 Ang^3
#
#
#
# Elastic Constant Matrix: (Units=GPa)
#
#
# Indices 1 2 3 4 5 6 
#
# 1 94.8064 4.4874 -4.7022 0.0065 6.4231 0.0165
# 2 4.4874 176.1628 52.9328 0.0175 -8.9303 0.0194
# 3 -4.7022 52.9328 86.6573 0.0201 15.5260 0.0298
# 4 0.0065 0.0175 0.0201 7.9191 0.0005 0.0400
# 5 6.4231 -8.9303 15.5260 0.0005 15.4226 0.0068
# 6 0.0165 0.0194 0.0298 0.0400 0.0068 -10.7755
#
#
#
# Elastic Compliance Matrix: (Units=1/GPa)
#
#
# Indices 1 2 3 4 5 6 
#
# 1 0.011412 -0.001750 0.003320 -0.000013 -0.009109 0.000018
# 2 -0.001750 0.008815 -0.007960 0.000001 0.013847 0.000000
# 3 0.003320 -0.007960 0.021541 -0.000038 -0.027678 0.000033
# 4 -0.000013 0.000001 -0.000038 0.126275 0.000040 0.000469
# 5 -0.009109 0.013847 -0.027678 0.000040 0.104515 0.000001
# 6 0.000018 0.000000 0.000033 0.000469 0.000001 -0.092801
#
#
# Mechanical properties :
#
#
# Convention : Reuss Voigt Hill
#
# Bulk Modulus (GPa) = 34.49662 51.45139 42.97401
# Shear Modulus (GPa) = 24.72800 22.84045 23.78423
#
# Velocity S-wave (km/s) = 3.38834 3.25645 3.32305
# Velocity P-wave (km/s) = 5.59678 6.16663 5.88861
#
# Compressibility (1/GPa) = 0.02898834
#
# Stress axis : x y z
#
# Youngs Moduli (GPa) = 87.62351 113.44355 46.42285
#
# Poissons Ratio (x) = 0.19854 -0.15414
# Poissons Ratio (y) = 0.15335 0.36954
# Poissons Ratio (z) = -0.29094 0.90304
#
# Static dielectric constant tensor:
#      x y z
#    x 2.107080 -0.000070 0.013830 
#    y -0.000070 1.833070 0.000020 
#    z 0.013830 0.000020 1.769860 
# 
# From -- ./inp_files/189740.got.cif
#   From: 2010.05.17/outbox.cif.g08.bks.cpg/sg15_95_cif.got.tgz:189740.got - 2010.06.03 18:47:42.
