data_PCOD9262450
_publ_section_title
;
Structure prediction by ZEFSAII (Michael W. Deem and Ramdas Pophale) SiO2 
 PCOD9262450
Probable space group: C 2/C
;
_chemical_formula_sum "Si O2"
_cell_formula_units_Z 64
_cell_length_a 18.806885
_cell_length_b 23.531961
_cell_length_c 11.770330
_cell_angle_alpha 90.000000
_cell_angle_beta 47.719833
_cell_angle_gamma 90.000000
_cell_volume 3854.033922
_symmetry_space_group_name_H-M "C 2/C"
_symmetry_group_IT_number 15
_symmetry_cell_setting 'monoclinic'
loop_
_space_group_symop_operation_xyz
x,y,z
-x,y,1/2-z
-x,-y,-z
x,-y,1/2+z
1/2+x,1/2+y,z
1/2-x,1/2+y,1/2-z
1/2-x,1/2-y,-z
1/2+x,1/2-y,1/2+z
loop_
_atom_site_type_symbol
_atom_site_label
_atom_site_fract_x
_atom_site_fract_y
_atom_site_fract_z
Si Si1 0.588355 0.423623 0.901086
Si Si2 0.358316 0.618740 0.906974
Si Si3 0.942198 0.781068 0.162070
Si Si4 0.607775 0.331051 0.685065
Si Si5 0.789013 0.299475 0.874887
Si Si6 0.849177 0.244627 0.160832
Si Si7 0.707749 0.658574 0.843458
Si Si8 0.868508 0.950847 0.178845
O O1 0.612089 0.380852 0.774293
O O2 0.645187 0.482773 0.827656
O O3 0.605821 0.397169 0.006686
O O4 0.474634 0.436590 0.016447
O O5 0.414742 0.671480 0.786454
O O6 0.369176 0.565864 0.810953
O O7 0.248847 0.641692 0.034192
O O8 0.897755 0.719861 0.242592
O O9 0.879655 0.806725 0.124696
O O10 0.051669 0.769788 0.010651
O O11 0.500000 0.328706 0.750000
O O12 0.634068 0.275274 0.728771
O O13 0.681671 0.340285 0.503523
O O14 0.732585 0.291434 0.816920
O O15 0.750000 0.250000 0.000000
O O16 0.805060 0.307883 0.208036
O O17 0.702253 0.594515 0.802978
#
# Coordination Sequence:
#
# PCOD9262450 Si02
#       8
#     8   8   8   8   8   8   8   8
#     4  11  22  32  53  75 104 152 178 216 277 320
#     4  10  19  33  52  75 107 138 175 223 265 317
#     4   9  19  34  53  79 109 140 173 220 270 327
#     4  12  20  34  52  75 115 149 181 220 266 333
#     4   9  19  31  49  78 107 134 177 217 267 328
#     4  11  20  34  53  79 107 153 174 218 284 318
#     4  10  21  36  52  76 115 142 184 223 265 330
#     4  10  22  34  49  76 109 141 185 224 260 326
#
# _framework density 16.605975999999998
#
# number of rings (size 3 to 8) (size 9 to 14) (size 15 to 20)
#    0.000    1.750    3.750    2.250    3.500    1.500 
#    0.000    0.000    0.000    0.000    0.000    0.875 
#    3.750    0.000    0.000    0.000    0.000    0.000 
#
# Total GULP energy -178349.670700 kJ/mol
# GULP energy per Si atom -5573.427209 kJ/mol
# Density = 1.656818 g / cm^3
# Si number density = 16.605976 Si / 1000 Ang^3
#
#
#
# Elastic Constant Matrix: (Units=GPa)
#
#
# Indices 1 2 3 4 5 6 
#
# 1 65.8048 38.4585 36.6661 0.0000 14.3610 0.0000
# 2 38.4585 95.1151 33.8151 0.0000 -4.0904 0.0000
# 3 36.6661 33.8151 70.9740 0.0000 12.4787 0.0000
# 4 0.0000 0.0000 0.0000 27.6588 0.0000 -4.1858
# 5 14.3610 -4.0904 12.4787 0.0000 26.5764 0.0000
# 6 0.0000 0.0000 0.0000 -4.1858 0.0000 17.5534
#
#
#
# Elastic Compliance Matrix: (Units=1/GPa)
#
#
# Indices 1 2 3 4 5 6 
#
# 1 0.027441 -0.008886 -0.007733 0.000000 -0.012565 0.000000
# 2 -0.008886 0.016234 -0.004826 0.000000 0.009566 0.000000
# 3 -0.007733 -0.004826 0.021560 0.000000 -0.006687 0.000000
# 4 0.000000 0.000000 0.000000 0.037509 0.000000 0.008944
# 5 -0.012565 0.009566 -0.006687 0.000000 0.049029 0.000000
# 6 0.000000 0.000000 0.000000 0.008944 0.000000 0.059102
#
#
# Mechanical properties :
#
#
# Convention : Reuss Voigt Hill
#
# Bulk Modulus (GPa) = 44.75537 49.97481 47.36509
# Shear Modulus (GPa) = 19.14152 22.55467 20.84810
#
# Velocity S-wave (km/s) = 3.39881 3.68941 3.54709
# Velocity P-wave (km/s) = 6.51248 6.95045 6.73503
#
# Compressibility (1/GPa) = 0.02234369
#
# Stress axis : x y z
#
# Youngs Moduli (GPa) = 36.44171 61.60049 46.38294
#
# Poissons Ratio (x) = 0.54741 0.35870
# Poissons Ratio (y) = 0.32384 0.22382
# Poissons Ratio (z) = 0.28182 0.29725
#
# Static dielectric constant tensor:
#      x y z
#    x 1.603190 0.000000 0.015980 
#    y 0.000000 1.583960 0.000000 
#    z 0.015980 0.000000 1.587780 
# 
# From -- ./inp_files/107947.got.cif
#   From: 2010.05.17/outbox.cif.g08.bks.cpg/sg15_54_cif.got.tgz:107947.got - 2010.06.03 18:47:42.
