data_PCOD9262059
_publ_section_title
;
Structure prediction by ZEFSAII (Michael W. Deem and Ramdas Pophale) SiO2 
 PCOD9262059
Probable space group: C 2/C
;
_chemical_formula_sum "Si O2"
_cell_formula_units_Z 56
_cell_length_a 7.754021
_cell_length_b 12.836773
_cell_length_c 27.296877
_cell_angle_alpha 90.000000
_cell_angle_beta 104.874732
_cell_angle_gamma 90.000000
_cell_volume 2625.988893
_symmetry_space_group_name_H-M "C 2/C"
_symmetry_group_IT_number 15
_symmetry_cell_setting 'monoclinic'
loop_
_space_group_symop_operation_xyz
x,y,z
-x,y,1/2-z
-x,-y,-z
x,-y,1/2+z
1/2+x,1/2+y,z
1/2-x,1/2+y,1/2-z
1/2-x,1/2-y,-z
1/2+x,1/2-y,1/2+z
loop_
_atom_site_type_symbol
_atom_site_label
_atom_site_fract_x
_atom_site_fract_y
_atom_site_fract_z
Si Si1 0.202140 0.585355 0.564550
Si Si2 0.301541 0.247344 0.447082
Si Si3 0.609405 0.843044 0.849710
Si Si4 0.934809 0.873516 0.372206
Si Si5 0.434715 0.059332 0.691491
Si Si6 0.445665 0.238965 0.873567
Si Si7 0.107730 0.581315 0.453722
O O1 0.382089 0.562981 0.607530
O O2 0.140829 0.695962 0.581957
O O3 0.025730 0.516321 0.558407
O O4 0.238906 0.577884 0.509254
O O5 0.250000 0.250000 0.500000
O O6 0.357631 0.350987 0.421423
O O7 0.471905 0.174477 0.455929
O O8 0.130992 0.208805 0.402986
O O9 0.489457 0.740763 0.853340
O O10 0.790911 0.805672 0.837366
O O11 0.677854 0.895779 0.905381
O O12 0.515877 0.939136 0.816072
O O13 0.778899 0.926163 0.330063
O O14 0.500000 0.087710 0.750000
O O15 0.515547 0.139453 0.657775
#
# Coordination Sequence:
#
# PCOD9262059 Si02
#       7
#     8   8   8   8   8   8   8
#     4  10  19  35  56  88 128 161 198 239 298 361
#     4  10  19  32  52  86 122 162 202 234 291 359
#     4  10  22  40  65  90 122 161 204 242 312 368
#     4   9  23  38  59  90 125 156 205 252 300 368
#     4  11  24  45  64  85 119 155 208 268 312 351
#     4  10  21  38  60  89 123 156 202 254 295 366
#     4  10  20  33  57  88 129 166 194 240 291 373
#
# _framework density 21.325301
#
# number of rings (size 3 to 8) (size 9 to 14) (size 15 to 20)
#    0.000    2.000    2.857    0.000    4.000    2.857 
#    0.000    3.571    0.000    0.000    0.000    0.000 
#    0.000    0.000    0.000    0.000    0.000    0.000 
#
# Total GULP energy -156090.901869 kJ/mol
# GULP energy per Si atom -5574.675067 kJ/mol
# Density = 2.127676 g / cm^3
# Si number density = 21.325301 Si / 1000 Ang^3
#
#
#
# Elastic Constant Matrix: (Units=GPa)
#
#
# Indices 1 2 3 4 5 6 
#
# 1 59.8695 1.9699 18.5796 0.0000 16.0552 0.0000
# 2 1.9699 57.6334 20.5011 0.0000 2.0273 0.0000
# 3 18.5796 20.5011 89.7097 0.0000 9.8482 0.0000
# 4 0.0000 0.0000 0.0000 10.7448 0.0000 7.1263
# 5 16.0552 2.0273 9.8482 0.0000 22.1804 0.0000
# 6 0.0000 0.0000 0.0000 7.1263 0.0000 17.1577
#
#
#
# Elastic Compliance Matrix: (Units=1/GPa)
#
#
# Indices 1 2 3 4 5 6 
#
# 1 0.021447 0.000862 -0.003076 0.000000 -0.014238 0.000000
# 2 0.000862 0.018922 -0.004462 0.000000 -0.000372 0.000000
# 3 -0.003076 -0.004462 0.013156 0.000000 -0.003207 0.000000
# 4 0.000000 0.000000 0.000000 0.128453 0.000000 -0.053352
# 5 -0.014238 -0.000372 -0.003207 0.000000 0.056848 0.000000
# 6 0.000000 0.000000 0.000000 -0.053352 0.000000 0.080442
#
#
# Mechanical properties :
#
#
# Convention : Reuss Voigt Hill
#
# Bulk Modulus (GPa) = 24.89213 32.14596 28.51905
# Shear Modulus (GPa) = 14.45041 21.09406 17.77224
#
# Velocity S-wave (km/s) = 2.60593 3.14850 2.88998
# Velocity P-wave (km/s) = 4.55549 5.32205 4.95362
#
# Compressibility (1/GPa) = 0.04017334
#
# Stress axis : x y z
#
# Youngs Moduli (GPa) = 46.62603 52.84907 76.01217
#
# Poissons Ratio (x) = -0.04555 0.23380
# Poissons Ratio (y) = -0.04019 0.33915
# Poissons Ratio (z) = 0.14342 0.23580
#
# Static dielectric constant tensor:
#      x y z
#    x 1.820340 0.000000 -0.000890 
#    y 0.000000 1.901570 0.000000 
#    z -0.000890 0.000000 1.791620 
# 
# From -- ./inp_files/288869.got.cif
#   From: 2010.05.17/outbox.cif.g08.bks.cpg/sg15_145_cif.got.tgz:288869.got - 2010.06.03 18:47:42.
