data_PCOD9262687
_publ_section_title
;
Structure prediction by ZEFSAII (Michael W. Deem and Ramdas Pophale) SiO2 
 PCOD9262687
Probable space group: C 2/C
;
_chemical_formula_sum "Si O2"
_cell_formula_units_Z 32
_cell_length_a 7.214159
_cell_length_b 36.233863
_cell_length_c 5.283781
_cell_angle_alpha 90.000000
_cell_angle_beta 101.909890
_cell_angle_gamma 90.000000
_cell_volume 1351.431913
_symmetry_space_group_name_H-M "C 2/C"
_symmetry_group_IT_number 15
_symmetry_cell_setting 'monoclinic'
loop_
_space_group_symop_operation_xyz
x,y,z
-x,y,1/2-z
-x,-y,-z
x,-y,1/2+z
1/2+x,1/2+y,z
1/2-x,1/2+y,1/2-z
1/2-x,1/2-y,-z
1/2+x,1/2-y,1/2+z
loop_
_atom_site_type_symbol
_atom_site_label
_atom_site_fract_x
_atom_site_fract_y
_atom_site_fract_z
Si Si1 0.770854 0.478758 0.183690
Si Si2 0.217361 0.893994 0.268397
Si Si3 0.125630 0.214863 0.035473
Si Si4 0.272239 0.361191 0.731693
O O1 0.706441 0.500174 0.415450
O O2 0.715746 0.436069 0.177817
O O3 0.000000 0.479231 0.250000
O O4 0.298714 0.889088 0.572473
O O5 0.000000 0.882253 0.250000
O O6 0.304678 0.869596 0.068387
O O7 0.248402 0.179425 0.156299
O O8 0.000000 0.223104 0.250000
O O9 0.250000 0.250000 0.000000
O O10 0.000000 0.205895 0.750000
O O11 0.500000 0.365522 0.750000
#
# Coordination Sequence:
#
# PCOD9262687 Si02
#       4
#     8   8   8   8
#     4  10  21  36  52  73 106 143 174 215 279 339
#     4  10  19  33  55  79 101 135 183 227 268 323
#     4  11  22  39  62  88 121 159 198 240 293 352
#     4   9  18  34  55  78 108 144 179 224 282 332
#
# _framework density 23.678588999999999
#
# number of rings (size 3 to 8) (size 9 to 14) (size 15 to 20)
#    0.000    2.000    0.000    6.000    0.000    1.000 
#    0.000    3.750    0.000    0.000    0.000    0.000 
#    0.000    0.000    0.000    0.000    0.000    0.000 
#
# Total GULP energy -89457.799903 kJ/mol
# GULP energy per Si atom -5591.112494 kJ/mol
# Density = 2.362470 g / cm^3
# Si number density = 23.678589 Si / 1000 Ang^3
#
#
#
# Elastic Constant Matrix: (Units=GPa)
#
#
# Indices 1 2 3 4 5 6 
#
# 1 57.6738 -2.4788 38.2533 0.0000 3.5043 0.0000
# 2 -2.4788 148.7921 85.2695 0.0000 -13.6569 0.0000
# 3 38.2533 85.2695 223.1702 0.0000 -20.4256 0.0000
# 4 0.0000 0.0000 0.0000 51.2450 0.0000 -8.2526
# 5 3.5043 -13.6569 -20.4256 0.0000 31.0274 0.0000
# 6 0.0000 0.0000 0.0000 -8.2526 0.0000 44.1184
#
#
#
# Elastic Compliance Matrix: (Units=1/GPa)
#
#
# Indices 1 2 3 4 5 6 
#
# 1 0.021144 0.002884 -0.005138 0.000000 -0.004501 0.000000
# 2 0.002884 0.009086 -0.003862 0.000000 0.001131 0.000000
# 3 -0.005138 -0.003862 0.007167 0.000000 0.003598 0.000000
# 4 0.000000 0.000000 0.000000 0.020120 0.000000 0.003764
# 5 -0.004501 0.001131 0.003598 0.000000 0.035604 0.000000
# 6 0.000000 0.000000 0.000000 0.003764 0.000000 0.023370
#
#
# Mechanical properties :
#
#
# Convention : Reuss Voigt Hill
#
# Bulk Modulus (GPa) = 39.74041 74.63601 57.18821
# Shear Modulus (GPa) = 36.46618 45.85098 41.15858
#
# Velocity S-wave (km/s) = 3.92860 4.40522 4.17372
# Velocity P-wave (km/s) = 6.11541 7.58047 6.88701
#
# Compressibility (1/GPa) = 0.02516330
#
# Stress axis : x y z
#
# Youngs Moduli (GPa) = 47.29417 110.05836 139.53488
#
# Poissons Ratio (x) = -0.31737 0.71694
# Poissons Ratio (y) = -0.13638 0.53894
# Poissons Ratio (z) = 0.24300 0.42509
#
# Static dielectric constant tensor:
#      x y z
#    x 1.880860 0.000000 -0.011700 
#    y 0.000000 1.850590 0.000000 
#    z -0.011700 0.000000 1.884710 
# 
# From -- ./inp_files/2360.got.cif
#   From: 2010.05.17/outbox.cif.g08.bks.cpg/sg15_2_cif.got.tgz:2360.got - 2010.06.03 18:47:42.
