data_PCOD9262006
_publ_section_title
;
Structure prediction by ZEFSAII (Michael W. Deem and Ramdas Pophale) SiO2 
 PCOD9262006
Probable space group: C 2/C
;
_chemical_formula_sum "Si O2"
_cell_formula_units_Z 48
_cell_length_a 22.719108
_cell_length_b 9.815483
_cell_length_c 12.210077
_cell_angle_alpha 90.000000
_cell_angle_beta 142.033226
_cell_angle_gamma 90.000000
_cell_volume 1675.100192
_symmetry_space_group_name_H-M "C 2/C"
_symmetry_group_IT_number 15
_symmetry_cell_setting 'monoclinic'
loop_
_space_group_symop_operation_xyz
x,y,z
-x,y,1/2-z
-x,-y,-z
x,-y,1/2+z
1/2+x,1/2+y,z
1/2-x,1/2+y,1/2-z
1/2-x,1/2-y,-z
1/2+x,1/2-y,1/2+z
loop_
_atom_site_type_symbol
_atom_site_label
_atom_site_fract_x
_atom_site_fract_y
_atom_site_fract_z
Si Si1 0.424539 0.310626 0.711306
Si Si2 0.478377 0.024210 0.841023
Si Si3 0.879794 0.852629 0.230769
Si Si4 0.422228 0.250825 0.943252
Si Si5 0.206343 0.757928 0.180329
Si Si6 0.708353 0.068785 0.366948
O O1 0.500000 0.396770 0.750000
O O2 0.396416 0.336217 0.795141
O O3 0.336130 0.276703 0.502025
O O4 0.500405 0.184832 0.857748
O O5 0.500000 0.970651 0.750000
O O6 0.363907 0.040828 0.694612
O O7 0.525067 0.900716 0.980967
O O8 0.844805 0.858565 0.306336
O O9 0.837896 0.701483 0.141325
O O10 0.992343 0.842159 0.382444
O O11 0.817346 0.947168 0.060575
O O12 0.320690 0.223836 0.849578
O O13 0.194620 0.608072 0.219826
#
# Coordination Sequence:
#
# PCOD9262006 Si02
#       6
#     8   8   8   8   8   8
#     4  11  20  35  48  76 114 147 167 215 279 337
#     4  10  20  31  54  77 107 141 178 214 278 327
#     4   8  16  30  50  71 103 129 171 231 262 295
#     4  11  20  31  53  78 106 138 182 221 268 316
#     4  10  19  32  52  74 108 141 179 220 271 315
#     4   8  16  33  48  73 104 135 173 228 258 308
#
# _framework density 28.655003000000001
#
# number of rings (size 3 to 8) (size 9 to 14) (size 15 to 20)
#    1.000    1.333    1.667    2.000    2.333    1.333 
#    0.000    0.000    0.000    1.000    0.000    2.333 
#    0.000    0.000    0.000    0.000    0.000    0.000 
#
# Total GULP energy -133761.500016 kJ/mol
# GULP energy per Si atom -5573.395834 kJ/mol
# Density = 2.858978 g / cm^3
# Si number density = 28.655003 Si / 1000 Ang^3
#
#
#
# Elastic Constant Matrix: (Units=GPa)
#
#
# Indices 1 2 3 4 5 6 
#
# 1 80.4758 42.3717 43.4497 0.0000 23.3258 0.0000
# 2 42.3717 76.0128 35.2529 0.0000 -3.8185 0.0000
# 3 43.4497 35.2529 205.5493 0.0000 11.4565 0.0000
# 4 0.0000 0.0000 0.0000 20.7401 0.0000 -10.0487
# 5 23.3258 -3.8185 11.4565 0.0000 59.6701 0.0000
# 6 0.0000 0.0000 0.0000 -10.0487 0.0000 36.6796
#
#
#
# Elastic Compliance Matrix: (Units=1/GPa)
#
#
# Indices 1 2 3 4 5 6 
#
# 1 0.022626 -0.012052 -0.002203 0.000000 -0.009193 0.000000
# 2 -0.012052 0.020829 -0.001376 0.000000 0.006309 0.000000
# 3 -0.002203 -0.001376 0.005583 0.000000 -0.000299 0.000000
# 4 0.000000 0.000000 0.000000 0.055595 0.000000 0.015231
# 5 -0.009193 0.006309 -0.000299 0.000000 0.020814 0.000000
# 6 0.000000 0.000000 0.000000 0.015231 0.000000 0.031436
#
#
# Mechanical properties :
#
#
# Convention : Reuss Voigt Hill
#
# Bulk Modulus (GPa) = 56.25955 67.13183 61.69569
# Shear Modulus (GPa) = 25.76364 39.48220 32.62292
#
# Velocity S-wave (km/s) = 3.00175 3.71596 3.37779
# Velocity P-wave (km/s) = 5.62939 6.47222 6.06546
#
# Compressibility (1/GPa) = 0.01777476
#
# Stress axis : x y z
#
# Youngs Moduli (GPa) = 44.19687 48.00951 179.10067
#
# Poissons Ratio (x) = 0.57863 0.39462
# Poissons Ratio (y) = 0.53268 0.24649
# Poissons Ratio (z) = 0.09738 0.06607
#
# Static dielectric constant tensor:
#      x y z
#    x 2.577100 0.000000 -0.116640 
#    y 0.000000 2.483730 0.000000 
#    z -0.116640 0.000000 2.299380 
# 
# From -- ./inp_files/182046.got.cif
#   From: 2010.05.17/outbox.cif.g08.bks.cpg/sg15_92_cif.got.tgz:182046.got - 2010.06.03 18:47:42.
