data_PCOD9262758
_publ_section_title
;
Structure prediction by ZEFSAII (Michael W. Deem and Ramdas Pophale) SiO2 
 PCOD9262758
Probable space group: C 2/C
;
_chemical_formula_sum "Si O2"
_cell_formula_units_Z 56
_cell_length_a 9.798069
_cell_length_b 19.525255
_cell_length_c 13.986443
_cell_angle_alpha 90.000000
_cell_angle_beta 71.873296
_cell_angle_gamma 90.000000
_cell_volume 2542.948623
_symmetry_space_group_name_H-M "C 2/C"
_symmetry_group_IT_number 15
_symmetry_cell_setting 'monoclinic'
loop_
_space_group_symop_operation_xyz
x,y,z
-x,y,1/2-z
-x,-y,-z
x,-y,1/2+z
1/2+x,1/2+y,z
1/2-x,1/2+y,1/2-z
1/2-x,1/2-y,-z
1/2+x,1/2-y,1/2+z
loop_
_atom_site_type_symbol
_atom_site_label
_atom_site_fract_x
_atom_site_fract_y
_atom_site_fract_z
Si Si1 0.298549 0.421462 0.817864
Si Si2 0.500000 0.460807 0.250000
Si Si3 0.709232 0.525525 0.973806
Si Si4 0.598945 0.198683 0.137543
Si Si5 0.982480 0.899824 0.445259
Si Si6 0.000000 0.205213 0.250000
Si Si7 0.028081 0.546892 0.143432
Si Si8 0.079528 0.242689 0.440248
O O1 0.375953 0.484498 0.746496
O O2 0.364796 0.348111 0.776931
O O3 0.128135 0.427934 0.852834
O O4 0.337986 0.438709 0.918105
O O5 0.439956 0.411143 0.344844
O O6 0.650184 0.579299 0.910669
O O7 0.873449 0.502826 0.939481
O O8 0.616033 0.456751 0.982396
O O9 0.500000 0.219161 0.250000
O O10 0.616906 0.116730 0.144098
O O11 0.748159 0.239717 0.111332
O O12 0.545521 0.207710 0.038340
O O13 0.960496 0.829628 0.502865
O O14 0.991907 0.245964 0.150282
O O15 0.000000 0.510122 0.250000
#
# Coordination Sequence:
#
# PCOD9262758 Si02
#       8
#     8   4   8   8   8   4   8   8
#     4  10  20  33  54  87 119 154 198 239 304 371
#     4   9  20  32  54  86 116 152 192 243 300 360
#     4  10  19  33  55  86 118 150 195 240 304 368
#     4  10  23  41  62  90 116 160 211 258 311 364
#     4  10  19  34  56  86 115 151 192 249 299 362
#     4  11  20  38  62  90 116 160 204 255 308 372
#     4  11  20  34  56  83 119 159 197 245 299 372
#     4  11  22  40  64  87 119 158 209 260 305 369
#
# _framework density 22.021681000000001
#
# number of rings (size 3 to 8) (size 9 to 14) (size 15 to 20)
#    0.000    1.714    2.857    3.000    3.000    0.000 
#    0.000    2.857    0.000    0.000    1.857    0.000 
#    0.000    0.000    0.000    0.000    0.000    0.000 
#
# Total GULP energy -155926.213567 kJ/mol
# GULP energy per Si atom -5568.793342 kJ/mol
# Density = 2.197156 g / cm^3
# Si number density = 22.021681 Si / 1000 Ang^3
#
#
#
# Elastic Constant Matrix: (Units=GPa)
#
#
# Indices 1 2 3 4 5 6 
#
# 1 84.8578 -1.3949 23.2651 0.0000 -15.2931 0.0000
# 2 -1.3949 24.2737 28.9170 0.0000 -4.1036 0.0000
# 3 23.2651 28.9170 142.8083 0.0000 7.2590 0.0000
# 4 0.0000 0.0000 0.0000 20.8999 0.0000 4.5659
# 5 -15.2931 -4.1036 7.2590 0.0000 41.0051 0.0000
# 6 0.0000 0.0000 0.0000 4.5659 0.0000 15.0737
#
#
#
# Elastic Compliance Matrix: (Units=1/GPa)
#
#
# Indices 1 2 3 4 5 6 
#
# 1 0.014200 0.006729 -0.004015 0.000000 0.006680 0.000000
# 2 0.006729 0.059833 -0.013767 0.000000 0.010934 0.000000
# 3 -0.004015 -0.013767 0.010687 0.000000 -0.004767 0.000000
# 4 0.000000 0.000000 0.000000 0.051238 0.000000 -0.015520
# 5 0.006680 0.010934 -0.004767 0.000000 0.028817 0.000000
# 6 0.000000 0.000000 0.000000 -0.015520 0.000000 0.071042
#
#
# Mechanical properties :
#
#
# Convention : Reuss Voigt Hill
#
# Bulk Modulus (GPa) = 15.97159 39.27936 27.62548
# Shear Modulus (GPa) = 17.93437 28.80590 23.37013
#
# Velocity S-wave (km/s) = 2.85686 3.62065 3.26119
# Velocity P-wave (km/s) = 4.26035 5.94594 5.17227
#
# Compressibility (1/GPa) = 0.06261117
#
# Stress axis : x y z
#
# Youngs Moduli (GPa) = 70.42358 16.71319 93.57506
#
# Poissons Ratio (x) = -0.11246 0.37574
# Poissons Ratio (y) = -0.47386 1.28829
# Poissons Ratio (z) = 0.28277 0.23010
#
# Static dielectric constant tensor:
#      x y z
#    x 1.918790 0.000000 0.043710 
#    y 0.000000 1.785620 0.000000 
#    z 0.043710 0.000000 1.892950 
# 
# From -- ./inp_files/137327.got.cif
#   From: 2010.05.17/outbox.cif.g08.bks.cpg/sg15_69_cif.got.tgz:137327.got - 2010.06.03 18:47:42.
