data_PCOD9262228
_publ_section_title
;
Structure prediction by ZEFSAII (Michael W. Deem and Ramdas Pophale) SiO2 
 PCOD9262228
Probable space group: C 2/C
;
_chemical_formula_sum "Si O2"
_cell_formula_units_Z 60
_cell_length_a 12.736653
_cell_length_b 11.840055
_cell_length_c 23.883776
_cell_angle_alpha 90.000000
_cell_angle_beta 128.301419
_cell_angle_gamma 90.000000
_cell_volume 2826.502992
_symmetry_space_group_name_H-M "C 2/C"
_symmetry_group_IT_number 15
_symmetry_cell_setting 'monoclinic'
loop_
_space_group_symop_operation_xyz
x,y,z
-x,y,1/2-z
-x,-y,-z
x,-y,1/2+z
1/2+x,1/2+y,z
1/2-x,1/2+y,1/2-z
1/2-x,1/2-y,-z
1/2+x,1/2-y,1/2+z
loop_
_atom_site_type_symbol
_atom_site_label
_atom_site_fract_x
_atom_site_fract_y
_atom_site_fract_z
Si Si1 0.803195 0.920310 0.342927
Si Si2 0.723458 0.609500 0.794588
Si Si3 0.000000 0.481671 0.250000
Si Si4 0.911459 0.293272 0.929824
Si Si5 0.646695 0.616513 0.294155
Si Si6 0.503003 0.026485 0.374448
Si Si7 0.850731 0.168770 0.333569
Si Si8 0.895227 0.694441 0.551093
O O1 0.640926 0.912844 0.296690
O O2 0.840797 0.051183 0.362272
O O3 0.827764 0.887003 0.286151
O O4 0.893800 0.838257 0.409828
O O5 0.641273 0.518390 0.802094
O O6 0.867737 0.546571 0.839884
O O7 0.750461 0.735646 0.823199
O O8 0.003069 0.552023 0.308572
O O9 0.758453 0.334910 0.871052
O O10 0.996313 0.366734 0.913341
O O11 0.951629 0.316337 0.006449
O O12 0.500000 0.665352 0.250000
O O13 0.688496 0.640979 0.243675
O O14 0.612337 0.930659 0.424834
O O15 0.998106 0.224277 0.382830
O O16 0.750000 0.750000 0.500000
#
# Coordination Sequence:
#
# PCOD9262228 Si02
#       8
#     8   8   4   8   8   8   8   8
#     4  10  20  33  57  83 115 157 191 239 298 352
#     4   8  17  34  52  76 111 145 185 236 297 342
#     4  10  20  36  60  90 114 148 206 248 284 354
#     4  11  21  35  59  85 122 158 197 243 308 356
#     4  10  19  32  56  83 108 147 195 248 288 346
#     4   9  20  37  57  86 114 154 195 249 299 347
#     4  10  20  38  54  79 122 149 191 244 302 357
#     4  11  22  37  60  88 117 156 205 251 296 357
#
# _framework density 21.227643
#
# number of rings (size 3 to 8) (size 9 to 14) (size 15 to 20)
#    0.000    2.133    1.333    2.800    0.933    0.533 
#    1.200    0.000    0.000    1.600    0.000    0.000 
#    0.000    0.000    0.000    0.000    0.000    0.000 
#
# Total GULP energy -167323.838600 kJ/mol
# GULP energy per Si atom -5577.461287 kJ/mol
# Density = 2.117933 g / cm^3
# Si number density = 21.227643 Si / 1000 Ang^3
#
#
#
# Elastic Constant Matrix: (Units=GPa)
#
#
# Indices 1 2 3 4 5 6 
#
# 1 26.5600 19.7771 -0.2480 0.0000 0.4194 0.0000
# 2 19.7771 145.9423 21.9263 0.0000 -4.8989 0.0000
# 3 -0.2480 21.9263 69.1145 0.0000 -15.0219 0.0000
# 4 0.0000 0.0000 0.0000 14.7215 0.0000 -1.2028
# 5 0.4194 -4.8989 -15.0219 0.0000 39.3770 0.0000
# 6 0.0000 0.0000 0.0000 -1.2028 0.0000 15.9669
#
#
#
# Elastic Compliance Matrix: (Units=1/GPa)
#
#
# Indices 1 2 3 4 5 6 
#
# 1 0.042161 -0.006024 0.001965 0.000000 -0.000449 0.000000
# 2 -0.006024 0.008056 -0.002558 0.000000 0.000091 0.000000
# 3 0.001965 -0.002558 0.016589 0.000000 0.005989 0.000000
# 4 0.000000 0.000000 0.000000 0.068348 0.000000 0.005149
# 5 -0.000449 0.000091 0.005989 0.000000 0.027696 0.000000
# 6 0.000000 0.000000 0.000000 0.005149 0.000000 0.063017
#
#
# Mechanical properties :
#
#
# Convention : Reuss Voigt Hill
#
# Bulk Modulus (GPa) = 18.66614 36.05863 27.36238
# Shear Modulus (GPa) = 19.45839 27.35719 23.40779
#
# Velocity S-wave (km/s) = 3.03091 3.59382 3.32430
# Velocity P-wave (km/s) = 4.58922 5.85185 5.25857
#
# Compressibility (1/GPa) = 0.05357294
#
# Stress axis : x y z
#
# Youngs Moduli (GPa) = 23.71843 124.13741 60.28117
#
# Poissons Ratio (x) = 0.74776 -0.11844
# Poissons Ratio (y) = 0.14287 0.15417
# Poissons Ratio (z) = -0.04660 0.31748
#
# Static dielectric constant tensor:
#      x y z
#    x 1.828060 0.000000 -0.000900 
#    y 0.000000 1.826210 0.000000 
#    z -0.000900 0.000000 1.752240 
# 
# From -- ./inp_files/273648.got.cif
#   From: 2010.05.17/outbox.cif.g08.bks.cpg/sg15_137_cif.got.tgz:273648.got - 2010.06.03 18:47:42.
