data_PCOD9262003
_publ_section_title
;
Structure prediction by ZEFSAII (Michael W. Deem and Ramdas Pophale) SiO2 
 PCOD9262003
Probable space group: C 2/C
;
_chemical_formula_sum "Si O2"
_cell_formula_units_Z 64
_cell_length_a 11.402351
_cell_length_b 23.287204
_cell_length_c 10.000539
_cell_angle_alpha 90.000000
_cell_angle_beta 99.479063
_cell_angle_gamma 90.000000
_cell_volume 2619.174186
_symmetry_space_group_name_H-M "C 2/C"
_symmetry_group_IT_number 15
_symmetry_cell_setting 'monoclinic'
loop_
_space_group_symop_operation_xyz
x,y,z
-x,y,1/2-z
-x,-y,-z
x,-y,1/2+z
1/2+x,1/2+y,z
1/2-x,1/2+y,1/2-z
1/2-x,1/2-y,-z
1/2+x,1/2-y,1/2+z
loop_
_atom_site_type_symbol
_atom_site_label
_atom_site_fract_x
_atom_site_fract_y
_atom_site_fract_z
Si Si1 0.110905 0.485885 0.875646
Si Si2 0.924149 0.072884 0.601260
Si Si3 0.593872 0.450336 0.887892
Si Si4 0.239390 0.769444 0.776556
Si Si5 0.219623 0.392911 0.733142
Si Si6 0.444044 0.226414 0.547333
Si Si7 0.103998 0.800296 0.384263
Si Si8 0.034085 0.596582 0.985211
O O1 0.214808 0.449898 0.822261
O O2 0.000000 0.488426 0.750000
O O3 0.074456 0.445410 0.995034
O O4 0.120266 0.552428 0.920959
O O5 0.865834 0.134215 0.574599
O O6 0.000000 0.074629 0.750000
O O7 0.020679 0.064709 0.503910
O O8 0.850463 0.013893 0.590876
O O9 0.500000 0.451342 0.750000
O O10 0.688931 0.403375 0.869215
O O11 0.243908 0.831527 0.706531
O O12 0.119803 0.752118 0.832512
O O13 0.284884 0.726380 0.672358
O O14 0.339273 0.773053 0.913872
O O15 0.091898 0.389340 0.639946
O O16 0.547547 0.264527 0.497397
O O17 0.482837 0.159789 0.578081
O O18 0.000000 0.800515 0.250000
#
# Coordination Sequence:
#
# PCOD9262003 Si02
#       8
#     8   8   8   8   8   8   8   8
#     4   9  18  32  49  74 103 132 163 203 255 314
#     4   9  19  34  52  74 102 133 173 219 266 315
#     4  10  21  35  52  77 107 140 177 219 266 314
#     4   9  17  27  45  74  97 125 172 211 253 313
#     4  10  19  32  52  73 100 134 171 212 258 311
#     4   9  16  27  45  70 101 129 160 213 263 300
#     4   9  16  28  48  73 101 128 160 214 267 303
#     4   9  18  31  50  75 102 130 167 208 254 310
#
# _framework density 24.435182999999999
#
# number of rings (size 3 to 8) (size 9 to 14) (size 15 to 20)
#    0.000    2.750    0.000    1.500    0.000   10.000 
#    0.000    0.000    0.000    3.750    0.000    0.000 
#    0.000    0.000    0.000    0.000    0.000    0.000 
#
# Total GULP energy -178692.342943 kJ/mol
# GULP energy per Si atom -5584.135717 kJ/mol
# Density = 2.437957 g / cm^3
# Si number density = 24.435183 Si / 1000 Ang^3
#
#
#
# Elastic Constant Matrix: (Units=GPa)
#
#
# Indices 1 2 3 4 5 6 
#
# 1 47.7671 7.3803 18.7229 0.0000 2.5155 0.0000
# 2 7.3803 175.3616 42.4033 0.0000 -19.8378 0.0000
# 3 18.7229 42.4033 119.1426 0.0000 -17.5587 0.0000
# 4 0.0000 0.0000 0.0000 30.1342 0.0000 -12.6221
# 5 2.5155 -19.8378 -17.5587 0.0000 38.8857 0.0000
# 6 0.0000 0.0000 0.0000 -12.6221 0.0000 15.7654
#
#
#
# Elastic Compliance Matrix: (Units=1/GPa)
#
#
# Indices 1 2 3 4 5 6 
#
# 1 0.022721 -0.000394 -0.003939 0.000000 -0.003449 0.000000
# 2 -0.000394 0.006451 -0.001870 0.000000 0.002472 0.000000
# 3 -0.003939 -0.001870 0.010257 0.000000 0.003933 0.000000
# 4 0.000000 0.000000 0.000000 0.049928 0.000000 0.039974
# 5 -0.003449 0.002472 0.003933 0.000000 0.028977 0.000000
# 6 0.000000 0.000000 0.000000 0.039974 0.000000 0.095434
#
#
# Mechanical properties :
#
#
# Convention : Reuss Voigt Hill
#
# Bulk Modulus (GPa) = 37.00331 53.25382 45.12857
# Shear Modulus (GPa) = 21.26023 35.20805 28.23414
#
# Velocity S-wave (km/s) = 2.95289 3.80000 3.40291
# Velocity P-wave (km/s) = 5.17710 6.41051 5.82653
#
# Compressibility (1/GPa) = 0.02702461
#
# Stress axis : x y z
#
# Youngs Moduli (GPa) = 44.01169 155.01859 97.49232
#
# Poissons Ratio (x) = 0.06109 0.38399
# Poissons Ratio (y) = 0.01734 0.18227
# Poissons Ratio (z) = 0.17335 0.28982
#
# Static dielectric constant tensor:
#      x y z
#    x 1.977280 0.000000 0.064490 
#    y 0.000000 1.939030 0.000000 
#    z 0.064490 0.000000 1.958510 
# 
# From -- ./inp_files/100480.got.cif
#   From: 2010.05.17/outbox.cif.g08.bks.cpg/sg15_51_cif.got.tgz:100480.got - 2010.06.03 18:47:42.
