data_PCOD9262616
_publ_section_title
;
Structure prediction by ZEFSAII (Michael W. Deem and Ramdas Pophale) SiO2 
 PCOD9262616
Probable space group: C 2/C
;
_chemical_formula_sum "Si O2"
_cell_formula_units_Z 52
_cell_length_a 15.788715
_cell_length_b 32.338384
_cell_length_c 5.076479
_cell_angle_alpha 90.000000
_cell_angle_beta 105.757583
_cell_angle_gamma 90.000000
_cell_volume 2494.548880
_symmetry_space_group_name_H-M "C 2/C"
_symmetry_group_IT_number 15
_symmetry_cell_setting 'monoclinic'
loop_
_space_group_symop_operation_xyz
x,y,z
-x,y,1/2-z
-x,-y,-z
x,-y,1/2+z
1/2+x,1/2+y,z
1/2-x,1/2+y,1/2-z
1/2-x,1/2-y,-z
1/2+x,1/2-y,1/2+z
loop_
_atom_site_type_symbol
_atom_site_label
_atom_site_fract_x
_atom_site_fract_y
_atom_site_fract_z
Si Si1 0.332379 0.843226 0.968930
Si Si2 0.605977 0.028066 0.673693
Si Si3 0.350565 0.391959 0.696764
Si Si4 0.000000 0.602865 0.750000
Si Si5 0.406142 0.651328 0.742611
Si Si6 0.730410 0.796711 0.069434
Si Si7 0.315792 0.474487 0.373288
O O1 0.422590 0.868221 0.076305
O O2 0.309624 0.810376 0.182439
O O3 0.250993 0.876061 0.891424
O O4 0.331233 0.818233 0.697874
O O5 0.552420 0.070596 0.604939
O O6 0.587728 0.995263 0.431004
O O7 0.711078 0.035313 0.770751
O O8 0.401641 0.361811 0.541170
O O9 0.357379 0.435666 0.557210
O O10 0.387632 0.386506 0.022099
O O11 0.500000 0.669467 0.750000
O O12 0.325258 0.681547 0.628984
O O13 0.750000 0.750000 0.000000
O O14 0.335717 0.487611 0.091048
#
# Coordination Sequence:
#
# PCOD9262616 Si02
#       7
#     8   8   8   4   8   8   8
#     4  10  23  37  61  89 113 170 184 240 288 345
#     4  10  22  35  53  81 120 172 209 248 287 324
#     4  10  19  38  57  83 117 146 196 237 291 333
#     4  12  22  40  56  90 138 152 220 240 286 358
#     4  10  21  37  64  89 107 144 191 238 290 353
#     4  10  22  44  65  85 123 147 192 232 306 356
#     4  10  19  33  54  80 110 156 204 235 285 342
#
# _framework density 20.845452999999999
#
# number of rings (size 3 to 8) (size 9 to 14) (size 15 to 20)
#    0.000    1.846    1.538    2.308    0.000    3.077 
#    2.769    0.000    0.000    9.231    0.000    0.000 
#    0.000    0.000    0.000    0.000    0.000    0.000 
#
# Total GULP energy -145100.462695 kJ/mol
# GULP energy per Si atom -5580.787027 kJ/mol
# Density = 2.079801 g / cm^3
# Si number density = 20.845453 Si / 1000 Ang^3
#
#
#
# Elastic Constant Matrix: (Units=GPa)
#
#
# Indices 1 2 3 4 5 6 
#
# 1 35.7170 -5.4906 13.2810 0.0000 8.2570 0.0000
# 2 -5.4906 66.6696 1.9405 0.0000 13.5173 0.0000
# 3 13.2810 1.9405 90.0229 0.0000 -3.7817 0.0000
# 4 0.0000 0.0000 0.0000 11.3022 0.0000 1.8161
# 5 8.2570 13.5173 -3.7817 0.0000 23.6441 0.0000
# 6 0.0000 0.0000 0.0000 1.8161 0.0000 5.9254
#
#
#
# Elastic Compliance Matrix: (Units=1/GPa)
#
#
# Indices 1 2 3 4 5 6 
#
# 1 0.035169 0.006513 -0.006042 0.000000 -0.016972 0.000000
# 2 0.006513 0.018226 -0.001900 0.000000 -0.012999 0.000000
# 3 -0.006042 -0.001900 0.012257 0.000000 0.005156 0.000000
# 4 0.000000 0.000000 0.000000 0.093062 0.000000 -0.028523
# 5 -0.016972 -0.012999 0.005156 0.000000 0.056477 0.000000
# 6 0.000000 0.000000 0.000000 -0.028523 0.000000 0.177508
#
#
# Mechanical properties :
#
#
# Convention : Reuss Voigt Hill
#
# Bulk Modulus (GPa) = 15.92454 23.54126 19.73290
# Shear Modulus (GPa) = 12.00515 20.35291 16.17903
#
# Velocity S-wave (km/s) = 2.40242 3.12808 2.78895
# Velocity P-wave (km/s) = 3.91809 4.93602 4.45622
#
# Compressibility (1/GPa) = 0.06279616
#
# Stress axis : x y z
#
# Youngs Moduli (GPa) = 28.43392 54.86520 81.58469
#
# Poissons Ratio (x) = -0.35735 0.49292
# Poissons Ratio (y) = -0.18520 0.15500
# Poissons Ratio (z) = 0.17179 0.10423
#
# Static dielectric constant tensor:
#      x y z
#    x 1.773750 0.000000 0.020440 
#    y 0.000000 1.760140 0.000000 
#    z 0.020440 0.000000 1.765340 
# 
# From -- ./inp_files/11630.got.cif
#   From: 2010.05.17/outbox.cif.g08.bks.cpg/sg15_6_cif.got.tgz:11630.got - 2010.06.03 18:47:42.
