data_PCOD9262254
_publ_section_title
;
Structure prediction by ZEFSAII (Michael W. Deem and Ramdas Pophale) SiO2 
 PCOD9262254
Probable space group: C 2/C
;
_chemical_formula_sum "Si O2"
_cell_formula_units_Z 52
_cell_length_a 31.849722
_cell_length_b 7.323671
_cell_length_c 14.513801
_cell_angle_alpha 90.000000
_cell_angle_beta 37.223209
_cell_angle_gamma 90.000000
_cell_volume 2047.928612
_symmetry_space_group_name_H-M "C 2/C"
_symmetry_group_IT_number 15
_symmetry_cell_setting 'monoclinic'
loop_
_space_group_symop_operation_xyz
x,y,z
-x,y,1/2-z
-x,-y,-z
x,-y,1/2+z
1/2+x,1/2+y,z
1/2-x,1/2+y,1/2-z
1/2-x,1/2-y,-z
1/2+x,1/2-y,1/2+z
loop_
_atom_site_type_symbol
_atom_site_label
_atom_site_fract_x
_atom_site_fract_y
_atom_site_fract_z
Si Si1 0.631801 0.051475 0.047930
Si Si2 0.785127 0.053446 0.351041
Si Si3 0.262592 0.027987 0.880997
Si Si4 0.593529 0.895736 0.923893
Si Si5 0.500000 0.467107 0.250000
Si Si6 0.144598 0.030997 0.452717
Si Si7 0.520587 0.805404 0.883621
O O1 0.578109 0.073620 0.226533
O O2 0.640386 0.254332 0.987855
O O3 0.707399 0.987893 0.949542
O O4 0.602499 0.921808 0.018321
O O5 0.786133 0.966032 0.449928
O O6 0.791790 0.271579 0.350650
O O7 0.842281 0.001763 0.177270
O O8 0.327697 0.901487 0.749393
O O9 0.213444 0.043236 0.879769
O O10 0.551265 0.758120 0.930690
O O11 0.549297 0.079849 0.979500
O O12 0.425622 0.558700 0.388184
O O13 0.495469 0.350009 0.163335
#
# Coordination Sequence:
#
# PCOD9262254 Si02
#       7
#     8   8   8   8   4   8   8
#     4  11  20  36  60  87 115 152 198 239 281 342
#     4  11  21  38  59  84 121 148 187 241 296 342
#     4  11  23  36  58  89 116 156 189 234 296 355
#     4  11  18  33  57  88 118 146 191 238 289 330
#     4  10  20  40  60  80 116 158 198 240 292 340
#     4  11  21  40  62  81 113 154 196 242 287 346
#     4  10  19  32  56  89 115 147 191 241 279 337
#
# _framework density 25.391511000000001
#
# number of rings (size 3 to 8) (size 9 to 14) (size 15 to 20)
#    0.000    1.231    7.692    0.000    0.000    0.615 
#    0.000    0.769    3.385    0.000    0.000    0.000 
#    0.000    0.000    0.000    0.000    0.000    0.000 
#
# Total GULP energy -145369.598479 kJ/mol
# GULP energy per Si atom -5591.138403 kJ/mol
# Density = 2.533372 g / cm^3
# Si number density = 25.391511 Si / 1000 Ang^3
#
#
#
# Elastic Constant Matrix: (Units=GPa)
#
#
# Indices 1 2 3 4 5 6 
#
# 1 76.9383 1.4839 -6.7307 0.0001 9.4812 0.0001
# 2 1.4839 77.6975 3.7951 -0.0026 7.4280 -0.0001
# 3 -6.7307 3.7951 126.2671 -0.0010 6.7704 -0.0001
# 4 0.0001 -0.0026 -0.0010 14.5490 -0.0001 -6.3982
# 5 9.4812 7.4280 6.7704 -0.0001 48.2452 0.0000
# 6 0.0001 -0.0001 -0.0001 -6.3982 0.0000 11.2018
#
#
#
# Elastic Compliance Matrix: (Units=1/GPa)
#
#
# Indices 1 2 3 4 5 6 
#
# 1 0.013413 -0.000035 0.000864 0.000000 -0.002752 0.000000
# 2 -0.000035 0.013073 -0.000289 0.000003 -0.001965 0.000002
# 3 0.000864 -0.000289 0.008042 0.000001 -0.001254 0.000001
# 4 0.000000 0.000003 0.000001 0.091790 0.000000 0.052428
# 5 -0.002752 -0.001965 -0.001254 0.000000 0.021747 0.000000
# 6 0.000000 0.000002 0.000001 0.052428 0.000000 0.119217
#
#
# Mechanical properties :
#
#
# Convention : Reuss Voigt Hill
#
# Bulk Modulus (GPa) = 28.08573 30.88882 29.48728
# Shear Modulus (GPa) = 17.98097 33.62285 25.80191
#
# Velocity S-wave (km/s) = 2.66399 3.64287 3.19119
# Velocity P-wave (km/s) = 4.53294 5.46676 5.02160
#
# Compressibility (1/GPa) = 0.03560527
#
# Stress axis : x y z
#
# Youngs Moduli (GPa) = 74.55595 76.49287 124.35221
#
# Poissons Ratio (x) = 0.00270 -0.10739
# Poissons Ratio (y) = 0.00263 0.03599
# Poissons Ratio (z) = -0.06438 0.02214
#
# Static dielectric constant tensor:
#      x y z
#    x 1.996700 0.000000 0.039680 
#    y 0.000000 2.034320 0.000000 
#    z 0.039680 0.000000 1.966490 
# 
# From -- ./inp_files/181055.got.cif
#   From: 2010.05.17/outbox.cif.g08.bks.cpg/sg15_91_cif.got.tgz:181055.got - 2010.06.03 18:47:42.
