data_PCOD9262126
_publ_section_title
;
Structure prediction by ZEFSAII (Michael W. Deem and Ramdas Pophale) SiO2 
 PCOD9262126
Probable space group: C 2/C
;
_chemical_formula_sum "Si O2"
_cell_formula_units_Z 44
_cell_length_a 20.058975
_cell_length_b 22.294947
_cell_length_c 5.302040
_cell_angle_alpha 90.000000
_cell_angle_beta 125.875759
_cell_angle_gamma 90.000000
_cell_volume 1921.314563
_symmetry_space_group_name_H-M "C 2/C"
_symmetry_group_IT_number 15
_symmetry_cell_setting 'monoclinic'
loop_
_space_group_symop_operation_xyz
x,y,z
-x,y,1/2-z
-x,-y,-z
x,-y,1/2+z
1/2+x,1/2+y,z
1/2-x,1/2+y,1/2-z
1/2-x,1/2-y,-z
1/2+x,1/2-y,1/2+z
loop_
_atom_site_type_symbol
_atom_site_label
_atom_site_fract_x
_atom_site_fract_y
_atom_site_fract_z
Si Si1 0.081529 0.939810 0.312041
Si Si2 0.234136 0.529002 0.243448
Si Si3 0.341044 0.779198 0.663543
Si Si4 0.000000 0.148961 0.250000
Si Si5 0.193413 0.341195 0.415461
Si Si6 0.380260 0.315863 0.870210
O O1 0.166244 0.975486 0.493916
O O2 0.101235 0.885652 0.544719
O O3 0.000000 0.970679 0.250000
O O4 0.059824 0.898856 0.024153
O O5 0.204702 0.517991 0.464507
O O6 0.209897 0.592543 0.064910
O O7 0.250000 0.750000 0.500000
O O8 0.356763 0.807579 0.973182
O O9 0.391307 0.725718 0.638726
O O10 0.341074 0.830113 0.441880
O O11 0.943911 0.192966 0.290810
O O12 0.284823 0.312740 0.593446
#
# Coordination Sequence:
#
# PCOD9262126 Si02
#       6
#     8   8   8   4   8   8
#     4   9  21  34  47  69  99 138 178 219 251 296
#     4  11  24  37  54  70  96 136 182 228 267 293
#     4  10  19  32  54  78  98 129 165 212 256 323
#     4  10  20  32  50  68 108 136 176 212 256 300
#     4  10  21  34  53  73 102 127 174 221 257 306
#     4   9  19  30  50  72 100 133 167 200 263 311
#
# _framework density 22.900987000000001
#
# number of rings (size 3 to 8) (size 9 to 14) (size 15 to 20)
#    0.000    2.182    0.000    3.273   17.818    0.727 
#    0.000    0.000    0.000    0.000    0.000    0.000 
#    0.000    0.000    0.000   16.364    0.000    0.000 
#
# Total GULP energy -122585.284110 kJ/mol
# GULP energy per Si atom -5572.058369 kJ/mol
# Density = 2.284886 g / cm^3
# Si number density = 22.900987 Si / 1000 Ang^3
#
#
#
# Elastic Constant Matrix: (Units=GPa)
#
#
# Indices 1 2 3 4 5 6 
#
# 1 97.9287 30.7964 30.3063 0.0000 -45.8652 0.0000
# 2 30.7964 76.5332 20.9032 0.0000 -4.4464 0.0000
# 3 30.3063 20.9032 79.7079 0.0000 -35.4116 0.0000
# 4 0.0000 0.0000 0.0000 34.9006 0.0000 -13.5946
# 5 -45.8652 -4.4464 -35.4116 0.0000 34.4796 0.0000
# 6 0.0000 0.0000 0.0000 -13.5946 0.0000 22.3401
#
#
#
# Elastic Compliance Matrix: (Units=1/GPa)
#
#
# Indices 1 2 3 4 5 6 
#
# 1 0.060796 -0.027187 0.033814 0.000000 0.112094 0.000000
# 2 -0.027187 0.026484 -0.020521 0.000000 -0.053825 0.000000
# 3 0.033814 -0.020521 0.043916 0.000000 0.087436 0.000000
# 4 0.000000 0.000000 0.000000 0.037555 0.000000 0.022853
# 5 0.112094 -0.053825 0.087436 0.000000 0.260970 0.000000
# 6 0.000000 0.000000 0.000000 0.022853 0.000000 0.058669
#
#
# Mechanical properties :
#
#
# Convention : Reuss Voigt Hill
#
# Bulk Modulus (GPa) = 9.67052 46.46461 28.06756
# Shear Modulus (GPa) = 9.08022 29.82165 19.45093
#
# Velocity S-wave (km/s) = 1.99339 3.61251 2.91752
# Velocity P-wave (km/s) = 3.08708 6.14278 4.86126
#
# Compressibility (1/GPa) = 0.10340706
#
# Stress axis : x y z
#
# Youngs Moduli (GPa) = 16.44839 37.75897 22.77078
#
# Poissons Ratio (x) = 1.02655 -0.76996
# Poissons Ratio (y) = 0.44718 0.46728
# Poissons Ratio (z) = -0.55618 0.77485
#
# Static dielectric constant tensor:
#      x y z
#    x 2.031200 0.000000 -0.074910 
#    y 0.000000 1.903390 0.000000 
#    z -0.074910 0.000000 2.005840 
# 
# From -- ./inp_files/13152.got.cif
#   From: 2010.05.17/outbox.cif.g08.bks.cpg/sg15_7_cif.got.tgz:13152.got - 2010.06.03 18:47:42.
