data_PCOD9262374
_publ_section_title
;
Structure prediction by ZEFSAII (Michael W. Deem and Ramdas Pophale) SiO2 
 PCOD9262374
Probable space group: C 2/C
;
_chemical_formula_sum "Si O2"
_cell_formula_units_Z 48
_cell_length_a 5.724549
_cell_length_b 29.718587
_cell_length_c 14.223536
_cell_angle_alpha 90.000000
_cell_angle_beta 91.387260
_cell_angle_gamma 90.000000
_cell_volume 2419.077035
_symmetry_space_group_name_H-M "C 2/C"
_symmetry_group_IT_number 15
_symmetry_cell_setting 'monoclinic'
loop_
_space_group_symop_operation_xyz
x,y,z
-x,y,1/2-z
-x,-y,-z
x,-y,1/2+z
1/2+x,1/2+y,z
1/2-x,1/2+y,1/2-z
1/2-x,1/2-y,-z
1/2+x,1/2-y,1/2+z
loop_
_atom_site_type_symbol
_atom_site_label
_atom_site_fract_x
_atom_site_fract_y
_atom_site_fract_z
Si Si1 0.116348 0.084065 0.847162
Si Si2 0.249151 0.261582 0.248684
Si Si3 0.805019 0.038026 0.981399
Si Si4 0.215044 0.328543 0.070520
Si Si5 0.590427 0.006470 0.151457
Si Si6 0.221851 0.799250 0.044191
O O1 0.289420 0.121901 0.884789
O O2 0.231719 0.035276 0.830227
O O3 0.000000 0.099587 0.750000
O O4 0.925300 0.078047 0.927167
O O5 0.500000 0.236846 0.250000
O O6 0.229704 0.292061 0.155207
O O7 0.265443 0.293066 0.341870
O O8 0.000000 0.236202 0.250000
O O9 0.615792 0.016491 0.910120
O O10 0.695565 0.043976 0.083177
O O11 0.000000 0.000000 0.000000
O O12 0.464494 0.319855 0.020383
O O13 0.965549 0.322921 0.017500
O O14 0.500000 0.023164 0.250000
O O15 0.250000 0.750000 0.000000
#
# Coordination Sequence:
#
# PCOD9262374 Si02
#       6
#     8   8   8   8   8   8
#     4  11  20  31  51  79 115 151 177 233 300 344
#     4   8  15  28  43  66  97 127 160 202 247 314
#     4   9  20  34  48  77 115 144 194 234 277 342
#     4  10  21  32  51  78 112 139 174 217 281 344
#     4  10  19  33  54  77 111 151 195 234 283 340
#     4  10  19  33  49  72 107 139 177 213 259 331
#
# _framework density 19.842279000000001
#
# number of rings (size 3 to 8) (size 9 to 14) (size 15 to 20)
#    0.000    2.333    1.667    2.000    2.333    2.000 
#    0.000    0.000    0.000    0.000    0.000    3.500 
#   55.000    0.000    0.000    0.000    0.000    0.000 
#
# Total GULP energy -133604.364238 kJ/mol
# GULP energy per Si atom -5566.848510 kJ/mol
# Density = 1.979712 g / cm^3
# Si number density = 19.842279 Si / 1000 Ang^3
#
#
#
# Elastic Constant Matrix: (Units=GPa)
#
#
# Indices 1 2 3 4 5 6 
#
# 1 154.5399 10.6656 21.5501 0.0000 -8.1065 0.0000
# 2 10.6656 34.6748 13.1258 0.0000 -7.8894 0.0000
# 3 21.5501 13.1258 81.8888 0.0000 -24.6728 0.0000
# 4 0.0000 0.0000 0.0000 8.0257 0.0000 3.9262
# 5 -8.1065 -7.8894 -24.6728 0.0000 18.0873 0.0000
# 6 0.0000 0.0000 0.0000 3.9262 0.0000 23.0509
#
#
#
# Elastic Compliance Matrix: (Units=1/GPa)
#
#
# Indices 1 2 3 4 5 6 
#
# 1 0.006793 -0.001444 -0.001407 0.000000 0.000495 0.000000
# 2 -0.001444 0.032443 -0.001276 0.000000 0.011764 0.000000
# 3 -0.001407 -0.001276 0.021101 0.000000 0.027597 0.000000
# 4 0.000000 0.000000 0.000000 0.135927 0.000000 -0.023152
# 5 0.000495 0.011764 0.027597 0.000000 0.098285 0.000000
# 6 0.000000 0.000000 0.000000 -0.023152 0.000000 0.047326
#
#
# Mechanical properties :
#
#
# Convention : Reuss Voigt Hill
#
# Bulk Modulus (GPa) = 19.19996 40.19849 29.69922
# Shear Modulus (GPa) = 13.60583 24.88358 19.24471
#
# Velocity S-wave (km/s) = 2.62143 3.54513 3.11767
# Velocity P-wave (km/s) = 4.34279 6.08771 5.28772
#
# Compressibility (1/GPa) = 0.05208343
#
# Stress axis : x y z
#
# Youngs Moduli (GPa) = 147.21788 30.82325 47.39037
#
# Poissons Ratio (x) = 0.04451 0.06667
# Poissons Ratio (y) = 0.21260 0.06046
# Poissons Ratio (z) = 0.20711 0.03933
#
# Static dielectric constant tensor:
#      x y z
#    x 1.813970 0.000000 -0.054740 
#    y 0.000000 1.659260 0.000000 
#    z -0.054740 0.000000 1.685190 
# 
# From -- ./inp_files/130028.got.cif
#   From: 2010.05.17/outbox.cif.g08.bks.cpg/sg15_66_cif.got.tgz:130028.got - 2010.06.03 18:47:42.
