data_PCOD9262828
_publ_section_title
;
Structure prediction by ZEFSAII (Michael W. Deem and Ramdas Pophale) SiO2 
 PCOD9262828
Probable space group: C 2/C
;
_chemical_formula_sum "Si O2"
_cell_formula_units_Z 56
_cell_length_a 8.521372
_cell_length_b 11.408541
_cell_length_c 29.256632
_cell_angle_alpha 90.000000
_cell_angle_beta 113.469684
_cell_angle_gamma 90.000000
_cell_volume 2608.924982
_symmetry_space_group_name_H-M "C 2/C"
_symmetry_group_IT_number 15
_symmetry_cell_setting 'monoclinic'
loop_
_space_group_symop_operation_xyz
x,y,z
-x,y,1/2-z
-x,-y,-z
x,-y,1/2+z
1/2+x,1/2+y,z
1/2-x,1/2+y,1/2-z
1/2-x,1/2-y,-z
1/2+x,1/2-y,1/2+z
loop_
_atom_site_type_symbol
_atom_site_label
_atom_site_fract_x
_atom_site_fract_y
_atom_site_fract_z
Si Si1 0.156967 0.029927 0.922752
Si Si2 0.485276 0.956862 0.139870
Si Si3 0.664618 0.572672 0.150771
Si Si4 0.470089 0.742575 0.299961
Si Si5 0.061231 0.192770 0.978410
Si Si6 0.181151 0.662373 0.110789
Si Si7 0.551448 0.786954 0.072574
O O1 0.095342 0.059782 0.966587
O O2 0.287583 0.129532 0.921187
O O3 0.254778 0.908621 0.926502
O O4 0.993036 0.017172 0.871134
O O5 0.586033 0.865885 0.184093
O O6 0.435971 0.874278 0.090204
O O7 0.330875 0.008307 0.151648
O O8 0.591366 0.065806 0.132505
O O9 0.656829 0.638778 0.198434
O O10 0.618511 0.678534 0.110452
O O11 0.500000 0.750007 0.250000
O O12 0.654775 0.713943 0.344459
O O13 0.952505 0.245355 0.924054
O O14 0.250000 0.250000 0.000000
O O15 0.984410 0.230700 0.017897
#
# Coordination Sequence:
#
# PCOD9262828 Si02
#       7
#     8   8   8   8   8   8   8
#     4   9  19  34  52  77 113 155 190 225 273 322
#     4  10  20  36  61  86 113 148 186 233 285 336
#     4  10  20  37  59  83 113 147 186 233 283 338
#     4  10  23  42  60  82 110 141 187 241 289 343
#     4  10  19  33  56  85 118 156 194 228 268 329
#     4  10  21  38  58  82 115 152 189 234 283 331
#     4   9  20  34  51  83 120 153 191 227 267 330
#
# _framework density 21.464780000000001
#
# number of rings (size 3 to 8) (size 9 to 14) (size 15 to 20)
#    0.000    2.286    0.000    2.571    0.000    8.000 
#    0.000   12.857    0.000    0.000    0.000    0.000 
#    0.000    0.000    0.000    0.000    0.000    0.000 
#
# Total GULP energy -156145.326540 kJ/mol
# GULP energy per Si atom -5576.618805 kJ/mol
# Density = 2.141592 g / cm^3
# Si number density = 21.464780 Si / 1000 Ang^3
#
#
#
# Elastic Constant Matrix: (Units=GPa)
#
#
# Indices 1 2 3 4 5 6 
#
# 1 83.4747 24.2528 16.0649 0.0000 -15.4619 0.0000
# 2 24.2528 71.8867 25.5923 0.0000 -7.3399 0.0000
# 3 16.0649 25.5923 72.5369 0.0000 -28.0893 0.0000
# 4 0.0000 0.0000 0.0000 18.2715 0.0000 -9.4357
# 5 -15.4619 -7.3399 -28.0893 0.0000 32.1141 0.0000
# 6 0.0000 0.0000 0.0000 -9.4357 0.0000 34.7273
#
#
#
# Elastic Compliance Matrix: (Units=1/GPa)
#
#
# Indices 1 2 3 4 5 6 
#
# 1 0.014350 -0.004520 0.001047 0.000000 0.006791 0.000000
# 2 -0.004520 0.017412 -0.006720 0.000000 -0.004075 0.000000
# 3 0.001047 -0.006720 0.023478 0.000000 0.019503 0.000000
# 4 0.000000 0.000000 0.000000 0.063663 0.000000 0.017298
# 5 0.006791 -0.004075 0.019503 0.000000 0.050537 0.000000
# 6 0.000000 0.000000 0.000000 0.017298 0.000000 0.033496
#
#
# Mechanical properties :
#
#
# Convention : Reuss Voigt Hill
#
# Bulk Modulus (GPa) = 28.69277 39.96870 34.33073
# Shear Modulus (GPa) = 21.28207 27.82180 24.55193
#
# Velocity S-wave (km/s) = 3.15221 3.60413 3.38572
# Velocity P-wave (km/s) = 5.16187 5.99839 5.59578
#
# Compressibility (1/GPa) = 0.03485199
#
# Stress axis : x y z
#
# Youngs Moduli (GPa) = 69.68875 57.43102 42.59356
#
# Poissons Ratio (x) = 0.25961 -0.04458
# Poissons Ratio (y) = 0.31502 0.28623
# Poissons Ratio (z) = -0.07294 0.38594
#
# Static dielectric constant tensor:
#      x y z
#    x 1.855310 0.000000 -0.039690 
#    y 0.000000 1.800180 0.000000 
#    z -0.039690 0.000000 1.776990 
# 
# From -- ./inp_files/307251.got.cif
#   From: 2010.05.17/outbox.cif.g08.bks.cpg/sg15_154_cif.got.tgz:307251.got - 2010.06.03 18:47:42.
