data_PCOD9262226
_publ_section_title
;
Structure prediction by ZEFSAII (Michael W. Deem and Ramdas Pophale) SiO2 
 PCOD9262226
Probable space group: C 2/C
;
_chemical_formula_sum "Si O2"
_cell_formula_units_Z 64
_cell_length_a 13.996989
_cell_length_b 12.171760
_cell_length_c 16.295501
_cell_angle_alpha 90.000000
_cell_angle_beta 97.391413
_cell_angle_gamma 90.000000
_cell_volume 2753.162539
_symmetry_space_group_name_H-M "C 2/C"
_symmetry_group_IT_number 15
_symmetry_cell_setting 'monoclinic'
loop_
_space_group_symop_operation_xyz
x,y,z
-x,y,1/2-z
-x,-y,-z
x,-y,1/2+z
1/2+x,1/2+y,z
1/2-x,1/2+y,1/2-z
1/2-x,1/2-y,-z
1/2+x,1/2-y,1/2+z
loop_
_atom_site_type_symbol
_atom_site_label
_atom_site_fract_x
_atom_site_fract_y
_atom_site_fract_z
Si Si1 0.204913 0.926124 0.979971
Si Si2 0.194232 0.359016 0.012871
Si Si3 0.261544 0.677914 0.779298
Si Si4 0.436178 0.676257 0.928316
Si Si5 0.585980 0.602416 0.820178
Si Si6 0.385838 0.657431 0.180672
Si Si7 0.854184 0.531471 0.620486
Si Si8 0.507395 0.189819 0.590052
O O1 0.186109 0.844860 0.905220
O O2 0.232113 0.045832 0.951351
O O3 0.110988 0.924460 0.026175
O O4 0.294384 0.897442 0.046617
O O5 0.113736 0.338095 0.072024
O O6 0.250000 0.250000 0.000000
O O7 0.152637 0.411906 0.922068
O O8 0.350361 0.702627 0.853452
O O9 0.317679 0.659600 0.701318
O O10 0.178220 0.770121 0.765289
O O11 0.204132 0.567348 0.804645
O O12 0.536155 0.637870 0.899366
O O13 0.459138 0.768952 0.998637
O O14 0.500000 0.639082 0.750000
O O15 0.595796 0.471093 0.804595
O O16 0.481463 0.716614 0.154985
O O17 0.959662 0.581642 0.625173
#
# Coordination Sequence:
#
# PCOD9262226 Si02
#       8
#     8   8   8   8   8   8   8   8
#     4   8  18  32  54  80 109 134 166 219 270 307
#     4  10  21  30  47  83 118 135 162 212 273 321
#     4   9  18  38  54  76 101 140 185 215 257 312
#     4   9  18  33  57  79 104 135 181 216 258 315
#     4  10  22  36  53  75 106 141 183 225 257 309
#     4  10  20  35  60  76 101 138 181 221 263 320
#     4   8  17  34  54  74 110 142 168 211 262 326
#     4  10  19  32  56  83 106 139 174 212 277 320
#
# _framework density 23.245992999999999
#
# number of rings (size 3 to 8) (size 9 to 14) (size 15 to 20)
#    0.750    2.000    0.000    1.125    3.500    4.000 
#    2.250    1.250    0.000    0.000    0.000    0.000 
#    0.000    0.000    0.000    0.000    0.000    0.000 
#
# Total GULP energy -178225.718933 kJ/mol
# GULP energy per Si atom -5569.553717 kJ/mol
# Density = 2.319308 g / cm^3
# Si number density = 23.245993 Si / 1000 Ang^3
#
#
#
# Elastic Constant Matrix: (Units=GPa)
#
#
# Indices 1 2 3 4 5 6 
#
# 1 119.9101 55.2384 49.2328 0.0000 -59.6248 0.0000
# 2 55.2384 95.7957 30.2180 0.0000 -39.0260 0.0000
# 3 49.2328 30.2180 83.5708 0.0000 -48.4309 0.0000
# 4 0.0000 0.0000 0.0000 21.0228 0.0000 -1.1486
# 5 -59.6248 -39.0260 -48.4309 0.0000 60.5523 0.0000
# 6 0.0000 0.0000 0.0000 -1.1486 0.0000 29.5488
#
#
#
# Elastic Compliance Matrix: (Units=1/GPa)
#
#
# Indices 1 2 3 4 5 6 
#
# 1 0.017505 -0.004175 -0.000695 0.000000 0.013989 0.000000
# 2 -0.004175 0.015156 0.000480 0.000000 0.006041 0.000000
# 3 -0.000695 0.000480 0.022339 0.000000 0.017492 0.000000
# 4 0.000000 0.000000 0.000000 0.047669 0.000000 0.001853
# 5 0.013989 0.006041 0.017492 0.000000 0.048173 0.000000
# 6 0.000000 0.000000 0.000000 0.001853 0.000000 0.033914
#
#
# Mechanical properties :
#
#
# Convention : Reuss Voigt Hill
#
# Bulk Modulus (GPa) = 21.63623 63.18387 42.41005
# Shear Modulus (GPa) = 23.93003 33.19726 28.56365
#
# Velocity S-wave (km/s) = 3.21195 3.78310 3.50916
# Velocity P-wave (km/s) = 4.80450 6.80603 5.89089
#
# Compressibility (1/GPa) = 0.04621878
#
# Stress axis : x y z
#
# Youngs Moduli (GPa) = 57.12767 65.98095 44.76535
#
# Poissons Ratio (x) = 0.27548 0.03113
# Poissons Ratio (y) = 0.23852 -0.02150
# Poissons Ratio (z) = 0.03973 -0.03170
#
# Static dielectric constant tensor:
#      x y z
#    x 1.933970 0.000000 0.063460 
#    y 0.000000 1.865130 0.000000 
#    z 0.063460 0.000000 1.937230 
# 
# From -- ./inp_files/243714.got.cif
#   From: 2010.05.17/outbox.cif.g08.bks.cpg/sg15_122_cif.got.tgz:243714.got - 2010.06.03 18:47:42.
