data_PCOD9262547
_publ_section_title
;
Structure prediction by ZEFSAII (Michael W. Deem and Ramdas Pophale) SiO2 
 PCOD9262547
Probable space group: C 2/C
;
_chemical_formula_sum "Si O2"
_cell_formula_units_Z 64
_cell_length_a 32.207467
_cell_length_b 14.149967
_cell_length_c 9.169986
_cell_angle_alpha 90.000000
_cell_angle_beta 137.281062
_cell_angle_gamma 90.000000
_cell_volume 2835.098409
_symmetry_space_group_name_H-M "C 2/C"
_symmetry_group_IT_number 15
_symmetry_cell_setting 'monoclinic'
loop_
_space_group_symop_operation_xyz
x,y,z
-x,y,1/2-z
-x,-y,-z
x,-y,1/2+z
1/2+x,1/2+y,z
1/2-x,1/2+y,1/2-z
1/2-x,1/2-y,-z
1/2+x,1/2-y,1/2+z
loop_
_atom_site_type_symbol
_atom_site_label
_atom_site_fract_x
_atom_site_fract_y
_atom_site_fract_z
Si Si1 0.645865 0.389826 0.401955
Si Si2 0.708327 0.130562 0.920716
Si Si3 0.438578 0.868167 0.157219
Si Si4 0.341515 0.716820 0.006638
Si Si5 0.149100 0.069497 0.240126
Si Si6 0.646562 0.171042 0.453428
Si Si7 0.594517 0.002784 0.198927
Si Si8 0.757958 0.141338 0.554440
O O1 0.622239 0.471914 0.234484
O O2 0.632364 0.419025 0.530068
O O3 0.631916 0.277365 0.361852
O O4 0.717420 0.398891 0.533704
O O5 0.707452 0.216517 0.034890
O O6 0.678742 0.169459 0.693723
O O7 0.658212 0.056443 0.849748
O O8 0.775482 0.084676 0.069967
O O9 0.500000 0.825009 0.250000
O O10 0.387006 0.788188 0.043224
O O11 0.447228 0.922259 0.333249
O O12 0.419713 0.949181 0.992502
O O13 0.372604 0.654477 0.212248
O O14 0.309781 0.643110 0.813675
O O15 0.594079 0.093595 0.306381
O O16 0.694534 0.121722 0.465908
O O17 0.750000 0.250000 0.500000
#
# Coordination Sequence:
#
# PCOD9262547 Si02
#       8
#     8   8   8   8   8   8   8   8
#     4  11  24  35  52  80 123 161 206 238 285 348
#     4  11  21  35  56  86 121 162 200 245 298 365
#     4  11  24  42  62  89 117 156 207 261 309 353
#     4  11  22  38  59  81 116 157 203 246 306 354
#     4  12  23  36  55  86 120 168 203 242 292 363
#     4  11  20  38  56  86 124 161 198 246 298 364
#     4  11  23  38  63  88 122 160 202 247 307 367
#     4  10  19  33  53  82 115 158 194 237 288 356
#
# _framework density 22.574172999999998
#
# number of rings (size 3 to 8) (size 9 to 14) (size 15 to 20)
#    0.000    1.000    3.750    5.250    1.750    2.000 
#    0.000    0.000    0.000    0.000    0.000    8.750 
#    0.000    0.000    0.000    0.000    0.000    0.000 
#
# Total GULP energy -178354.805133 kJ/mol
# GULP energy per Si atom -5573.587660 kJ/mol
# Density = 2.252279 g / cm^3
# Si number density = 22.574173 Si / 1000 Ang^3
#
#
#
# Elastic Constant Matrix: (Units=GPa)
#
#
# Indices 1 2 3 4 5 6 
#
# 1 78.8877 36.2041 16.6332 0.0000 -17.4929 0.0000
# 2 36.2041 106.0204 7.6745 0.0000 -9.0161 0.0000
# 3 16.6332 7.6745 38.6085 0.0000 -18.2864 0.0000
# 4 0.0000 0.0000 0.0000 25.5621 0.0000 -13.2928
# 5 -17.4929 -9.0161 -18.2864 0.0000 33.8519 0.0000
# 6 0.0000 0.0000 0.0000 -13.2928 0.0000 29.6485
#
#
#
# Elastic Compliance Matrix: (Units=1/GPa)
#
#
# Indices 1 2 3 4 5 6 
#
# 1 0.016993 -0.005072 -0.003754 0.000000 0.005403 0.000000
# 2 -0.005072 0.011190 0.000176 0.000000 0.000455 0.000000
# 3 -0.003754 0.000176 0.035728 0.000000 0.017407 0.000000
# 4 0.000000 0.000000 0.000000 0.051014 0.000000 0.022872
# 5 0.005403 0.000455 0.017407 0.000000 0.041856 0.000000
# 6 0.000000 0.000000 0.000000 0.022872 0.000000 0.043983
#
#
# Mechanical properties :
#
#
# Convention : Reuss Voigt Hill
#
# Bulk Modulus (GPa) = 21.45393 38.28225 29.86809
# Shear Modulus (GPa) = 21.40397 28.67948 25.04173
#
# Velocity S-wave (km/s) = 3.08256 3.56821 3.33424
# Velocity P-wave (km/s) = 4.71105 5.82850 5.29931
#
# Compressibility (1/GPa) = 0.04661150
#
# Stress axis : x y z
#
# Youngs Moduli (GPa) = 58.84664 89.36573 27.98948
#
# Poissons Ratio (x) = 0.45324 0.10507
# Poissons Ratio (y) = 0.29845 -0.00493
# Poissons Ratio (z) = 0.22091 -0.01572
#
# Static dielectric constant tensor:
#      x y z
#    x 1.902350 0.000000 0.012880 
#    y 0.000000 1.883240 0.000000 
#    z 0.012880 0.000000 1.859320 
# 
# From -- ./inp_files/70174.got.cif
#   From: 2010.05.17/outbox.cif.g08.bks.cpg/sg15_36_cif.got.tgz:70174.got - 2010.06.03 18:47:42.
