data_PCOD9262624
_publ_section_title
;
Structure prediction by ZEFSAII (Michael W. Deem and Ramdas Pophale) SiO2 
 PCOD9262624
Probable space group: C 2/C
;
_chemical_formula_sum "Si O2"
_cell_formula_units_Z 48
_cell_length_a 15.737397
_cell_length_b 17.409674
_cell_length_c 12.678757
_cell_angle_alpha 90.000000
_cell_angle_beta 56.930440
_cell_angle_gamma 90.000000
_cell_volume 2911.043942
_symmetry_space_group_name_H-M "C 2/C"
_symmetry_group_IT_number 15
_symmetry_cell_setting 'monoclinic'
loop_
_space_group_symop_operation_xyz
x,y,z
-x,y,1/2-z
-x,-y,-z
x,-y,1/2+z
1/2+x,1/2+y,z
1/2-x,1/2+y,1/2-z
1/2-x,1/2-y,-z
1/2+x,1/2-y,1/2+z
loop_
_atom_site_type_symbol
_atom_site_label
_atom_site_fract_x
_atom_site_fract_y
_atom_site_fract_z
Si Si1 0.831424 0.013010 0.121583
Si Si2 0.245272 0.364492 0.068660
Si Si3 0.756848 0.641289 0.181505
Si Si4 0.921310 0.259091 0.213659
Si Si5 0.083156 0.238464 0.939313
Si Si6 0.504457 0.409144 0.372417
O O1 0.757834 0.064521 0.242418
O O2 0.773821 0.946815 0.096492
O O3 0.912076 0.970039 0.142749
O O4 0.898626 0.065092 0.997187
O O5 0.148171 0.326921 0.192178
O O6 0.339240 0.307340 0.034175
O O7 0.230105 0.369376 0.953469
O O8 0.653428 0.689766 0.263520
O O9 0.848167 0.695532 0.157845
O O10 0.000000 0.234160 0.250000
O O11 0.991488 0.276156 0.066178
O O12 0.039419 0.173782 0.891737
O O13 0.500000 0.410479 0.250000
#
# Coordination Sequence:
#
# PCOD9262624 Si02
#       6
#     8   8   8   8   8   8
#     4  10  21  33  51  78 107 137 167 210 260 306
#     4  10  20  31  52  81 107 133 171 214 256 303
#     4  11  19  32  55  80 105 131 172 216 257 303
#     4  11  17  31  56  80 102 132 169 218 260 291
#     4  10  19  33  54  81 101 133 175 215 254 300
#     4  10  20  35  54  76 105 136 171 212 260 305
#
# _framework density 16.48893
#
# number of rings (size 3 to 8) (size 9 to 14) (size 15 to 20)
#    0.000    1.667    5.000    2.000    0.000    0.667 
#    0.000    1.667    3.667    0.000    0.000    0.000 
#    0.000    0.000    0.000    0.000    0.000    0.000 
#
# Total GULP energy -133865.984190 kJ/mol
# GULP energy per Si atom -5577.749341 kJ/mol
# Density = 1.645140 g / cm^3
# Si number density = 16.488930 Si / 1000 Ang^3
#
#
#
# Elastic Constant Matrix: (Units=GPa)
#
#
# Indices 1 2 3 4 5 6 
#
# 1 37.8638 20.6700 38.6470 0.0000 -10.5485 0.0000
# 2 20.6700 92.5595 53.5152 0.0000 -10.3358 0.0000
# 3 38.6470 53.5152 106.5576 0.0000 -4.9444 0.0000
# 4 0.0000 0.0000 0.0000 29.1552 0.0000 -2.3701
# 5 -10.5485 -10.3358 -4.9444 0.0000 27.3543 0.0000
# 6 0.0000 0.0000 0.0000 -2.3701 0.0000 8.8475
#
#
#
# Elastic Compliance Matrix: (Units=1/GPa)
#
#
# Indices 1 2 3 4 5 6 
#
# 1 0.047629 0.000957 -0.017029 0.000000 0.015651 0.000000
# 2 0.000957 0.015790 -0.008050 0.000000 0.004880 0.000000
# 3 -0.017029 -0.008050 0.019320 0.000000 -0.006117 0.000000
# 4 0.000000 0.000000 0.000000 0.035063 0.000000 0.009393
# 5 0.015651 0.004880 -0.006117 0.000000 0.043331 0.000000
# 6 0.000000 0.000000 0.000000 0.009393 0.000000 0.115542
#
#
# Mechanical properties :
#
#
# Convention : Reuss Voigt Hill
#
# Bulk Modulus (GPa) = 28.99043 51.40504 40.19773
# Shear Modulus (GPa) = 14.86245 21.34798 18.10521
#
# Velocity S-wave (km/s) = 3.00552 3.60208 3.31724
# Velocity P-wave (km/s) = 5.44648 6.96729 6.25329
#
# Compressibility (1/GPa) = 0.03449414
#
# Stress axis : x y z
#
# Youngs Moduli (GPa) = 20.99541 63.33268 51.75972
#
# Poissons Ratio (x) = -0.06060 0.88141
# Poissons Ratio (y) = -0.02009 0.41669
# Poissons Ratio (z) = 0.35753 0.50986
#
# Static dielectric constant tensor:
#      x y z
#    x 1.543490 0.000000 -0.010490 
#    y 0.000000 1.546670 0.000000 
#    z -0.010490 0.000000 1.553380 
# 
# From -- ./inp_files/106276.got.cif
#   From: 2010.05.17/outbox.cif.g08.bks.cpg/sg15_54_cif.got.tgz:106276.got - 2010.06.03 18:47:42.
