data_PCOD9262334
_publ_section_title
;
Structure prediction by ZEFSAII (Michael W. Deem and Ramdas Pophale) SiO2 
 PCOD9262334
Probable space group: C 2/C
;
_chemical_formula_sum "Si O2"
_cell_formula_units_Z 52
_cell_length_a 11.703701
_cell_length_b 14.408657
_cell_length_c 23.713790
_cell_angle_alpha 90.000000
_cell_angle_beta 136.047809
_cell_angle_gamma 90.000000
_cell_volume 2775.513786
_symmetry_space_group_name_H-M "C 2/C"
_symmetry_group_IT_number 15
_symmetry_cell_setting 'monoclinic'
loop_
_space_group_symop_operation_xyz
x,y,z
-x,y,1/2-z
-x,-y,-z
x,-y,1/2+z
1/2+x,1/2+y,z
1/2-x,1/2+y,1/2-z
1/2-x,1/2-y,-z
1/2+x,1/2-y,1/2+z
loop_
_atom_site_type_symbol
_atom_site_label
_atom_site_fract_x
_atom_site_fract_y
_atom_site_fract_z
Si Si1 0.386603 0.416880 0.387503
Si Si2 0.678227 0.261083 0.305112
Si Si3 0.355228 0.433446 0.123526
Si Si4 0.175363 0.896633 0.579540
Si Si5 0.634991 0.843906 0.957772
Si Si6 0.000000 0.094820 0.250000
Si Si7 0.274593 0.235227 0.308922
O O1 0.499300 0.417139 0.370940
O O2 0.509661 0.400610 0.483771
O O3 0.312506 0.517460 0.373704
O O4 0.261455 0.331738 0.338257
O O5 0.500000 0.213142 0.250000
O O6 0.658481 0.356543 0.332227
O O7 0.813923 0.198878 0.383297
O O8 0.713124 0.264635 0.251885
O O9 0.400348 0.528975 0.170726
O O10 0.192468 0.412480 0.028205
O O11 0.319283 0.894504 0.584215
O O12 0.448010 0.810398 0.889999
O O13 0.750000 0.750000 0.000000
O O14 0.131102 0.161649 0.266640
#
# Coordination Sequence:
#
# PCOD9262334 Si02
#       7
#     8   8   8   8   8   4   8
#     4  10  19  37  61  87 125 157 200 251 319 370
#     4  12  18  33  65  91 111 151 218 259 294 356
#     4  11  20  40  63  90 120 167 208 255 316 366
#     4  10  19  32  61  99 113 150 200 270 303 346
#     4  11  18  38  69  95 114 159 221 264 293 363
#     4  12  28  40  54  88 140 172 190 258 340 374
#     4  12  23  40  59  90 128 169 207 258 313 380
#
# _framework density 18.73527
#
# number of rings (size 3 to 8) (size 9 to 14) (size 15 to 20)
#    0.000    0.923    8.462    0.923    0.000    0.615 
#    1.385    1.538    0.000   17.538    0.000    0.000 
#    0.000    0.000    0.000    0.000    0.000    0.000 
#
# Total GULP energy -144977.865659 kJ/mol
# GULP energy per Si atom -5576.071756 kJ/mol
# Density = 1.869263 g / cm^3
# Si number density = 18.735270 Si / 1000 Ang^3
#
#
#
# Elastic Constant Matrix: (Units=GPa)
#
#
# Indices 1 2 3 4 5 6 
#
# 1 68.1628 59.2263 47.3380 0.0000 -10.6541 0.0000
# 2 59.2263 136.0222 44.4201 0.0000 -12.3717 0.0000
# 3 47.3380 44.4201 65.6059 0.0000 -21.0988 0.0000
# 4 0.0000 0.0000 0.0000 34.7242 0.0000 -3.1496
# 5 -10.6541 -12.3717 -21.0988 0.0000 24.7531 0.0000
# 6 0.0000 0.0000 0.0000 -3.1496 0.0000 35.9785
#
#
#
# Elastic Compliance Matrix: (Units=1/GPa)
#
#
# Indices 1 2 3 4 5 6 
#
# 1 0.038302 -0.009667 -0.023894 0.000000 -0.008712 0.000000
# 2 -0.009667 0.011897 -0.000697 0.000000 0.001192 0.000000
# 3 -0.023894 -0.000697 0.040689 0.000000 0.024050 0.000000
# 4 0.000000 0.000000 0.000000 0.029029 0.000000 0.002541
# 5 -0.008712 0.001192 0.024050 0.000000 0.057744 0.000000
# 6 0.000000 0.000000 0.000000 0.002541 0.000000 0.028017
#
#
# Mechanical properties :
#
#
# Convention : Reuss Voigt Hill
#
# Bulk Modulus (GPa) = 44.69517 63.52886 54.11202
# Shear Modulus (GPa) = 17.75255 27.01160 22.38208
#
# Velocity S-wave (km/s) = 3.08156 3.80116 3.46012
# Velocity P-wave (km/s) = 6.04726 7.29708 6.70137
#
# Compressibility (1/GPa) = 0.02237378
#
# Stress axis : x y z
#
# Youngs Moduli (GPa) = 26.10801 84.05638 24.57680
#
# Poissons Ratio (x) = 0.81258 0.58723
# Poissons Ratio (y) = 0.25239 0.01712
# Poissons Ratio (z) = 0.62381 0.05855
#
# Static dielectric constant tensor:
#      x y z
#    x 1.639220 0.000000 -0.002730 
#    y 0.000000 1.672730 0.000000 
#    z -0.002730 0.000000 1.708540 
# 
# From -- ./inp_files/269993.got.cif
#   From: 2010.05.17/outbox.cif.g08.bks.cpg/sg15_135_cif.got.tgz:269993.got - 2010.06.03 18:47:42.
