data_PCOD9262290
_publ_section_title
;
Structure prediction by ZEFSAII (Michael W. Deem and Ramdas Pophale) SiO2 
 PCOD9262290
Probable space group: C 2/C
;
_chemical_formula_sum "Si O2"
_cell_formula_units_Z 64
_cell_length_a 18.583434
_cell_length_b 5.546672
_cell_length_c 30.596243
_cell_angle_alpha 90.000000
_cell_angle_beta 89.507635
_cell_angle_gamma 90.000000
_cell_volume 3153.628416
_symmetry_space_group_name_H-M "C 2/C"
_symmetry_group_IT_number 15
_symmetry_cell_setting 'monoclinic'
loop_
_space_group_symop_operation_xyz
x,y,z
-x,y,1/2-z
-x,-y,-z
x,-y,1/2+z
1/2+x,1/2+y,z
1/2-x,1/2+y,1/2-z
1/2-x,1/2-y,-z
1/2+x,1/2-y,1/2+z
loop_
_atom_site_type_symbol
_atom_site_label
_atom_site_fract_x
_atom_site_fract_y
_atom_site_fract_z
Si Si1 0.011883 0.945833 0.197475
Si Si2 0.368855 0.785761 0.083841
Si Si3 0.172209 0.834099 0.197193
Si Si4 0.814094 0.057845 0.006294
Si Si5 0.189148 0.622870 0.285860
Si Si6 0.758475 0.834124 0.929446
Si Si7 0.230444 0.992145 0.354902
Si Si8 0.556527 0.057055 0.836960
O O1 0.096590 0.947903 0.186451
O O2 0.000000 0.932689 0.250000
O O3 0.979960 0.697477 0.176667
O O4 0.979424 0.198770 0.180831
O O5 0.376981 0.679461 0.034837
O O6 0.336285 0.578778 0.115378
O O7 0.431902 0.910519 0.110938
O O8 0.302455 0.970268 0.080409
O O9 0.158751 0.651986 0.237656
O O10 0.213459 0.697411 0.158452
O O11 0.231021 0.017600 0.215733
O O12 0.779796 0.856230 0.037961
O O13 0.750000 0.250000 0.000000
O O14 0.823104 0.946754 0.957892
O O15 0.197242 0.871859 0.312080
O O16 0.135910 0.460654 0.314767
O O17 0.773460 0.702536 0.883932
#
# Coordination Sequence:
#
# PCOD9262290 Si02
#       8
#     8   8   8   8   8   8   8   8
#     4  12  29  43  61  84 129 164 214 261 327 368
#     4  10  19  32  58  87 119 157 208 255 309 376
#     4  12  26  39  59  89 118 167 211 272 317 381
#     4   8  16  28  49  86 126 155 186 249 327 373
#     4  12  24  38  64  85 117 161 219 264 316 370
#     4   9  16  30  52  85 127 152 192 258 322 367
#     4  11  20  35  57  89 119 157 208 262 312 375
#     4  12  25  44  62  89 119 174 208 263 309 381
#
# _framework density 20.294084000000002
#
# number of rings (size 3 to 8) (size 9 to 14) (size 15 to 20)
#    0.000    1.250    5.000    1.125    5.250    0.000 
#    0.000    0.000    0.000    0.000    0.000    1.750 
#    0.000    0.000    0.000    0.000    0.000    0.000 
#
# Total GULP energy -178475.253382 kJ/mol
# GULP energy per Si atom -5577.351668 kJ/mol
# Density = 2.024789 g / cm^3
# Si number density = 20.294084 Si / 1000 Ang^3
#
#
#
# Elastic Constant Matrix: (Units=GPa)
#
#
# Indices 1 2 3 4 5 6 
#
# 1 81.0867 24.9442 4.4291 0.0000 12.0640 0.0000
# 2 24.9442 82.3218 14.8326 0.0000 15.0868 0.0000
# 3 4.4291 14.8326 55.3850 0.0000 23.8542 0.0000
# 4 0.0000 0.0000 0.0000 5.7084 0.0000 -11.7385
# 5 12.0640 15.0868 23.8542 0.0000 22.1906 0.0000
# 6 0.0000 0.0000 0.0000 -11.7385 0.0000 9.6044
#
#
#
# Elastic Compliance Matrix: (Units=1/GPa)
#
#
# Indices 1 2 3 4 5 6 
#
# 1 0.014627 -0.003320 0.004045 0.000000 -0.010043 0.000000
# 2 -0.003320 0.014643 -0.000271 0.000000 -0.007858 0.000000
# 3 0.004045 -0.000271 0.034770 0.000000 -0.039392 0.000000
# 4 0.000000 0.000000 0.000000 -0.115762 0.000000 -0.141484
# 5 -0.010043 -0.007858 -0.039392 0.000000 0.098211 0.000000
# 6 0.000000 0.000000 0.000000 -0.141484 0.000000 -0.068803
#
#
# Mechanical properties :
#
#
# Convention : Reuss Voigt Hill
#
# Bulk Modulus (GPa) = 15.39734 34.13394 24.76564
# Shear Modulus (GPa) = -3182.88527 19.13985 -1581.87271
#
# Velocity S-wave (km/s) = -39.64575 3.07437 -27.94936
# Velocity P-wave (km/s) = 45.69585 5.42757 32.08311
#
# Compressibility (1/GPa) = 0.06494626
#
# Stress axis : x y z
#
# Youngs Moduli (GPa) = 68.36616 68.29383 28.76004
#
# Poissons Ratio (x) = 0.22677 -0.11633
# Poissons Ratio (y) = 0.22701 0.00780
# Poissons Ratio (z) = -0.27653 0.01853
#
# Static dielectric constant tensor:
#      x y z
#    x 1.723980 0.000000 0.027320 
#    y 0.000000 1.834700 0.000000 
#    z 0.027320 0.000000 1.812390 
# 
# From -- ./inp_files/315084.got.cif
#   From: 2010.05.17/outbox.cif.g08.bks.cpg/sg15_158_cif.got.tgz:315084.got - 2010.06.03 18:47:42.
