data_PCOD9262359
_publ_section_title
;
Structure prediction by ZEFSAII (Michael W. Deem and Ramdas Pophale) SiO2 
 PCOD9262359
Probable space group: C 2/C
;
_chemical_formula_sum "Si O2"
_cell_formula_units_Z 56
_cell_length_a 31.235458
_cell_length_b 18.181051
_cell_length_c 9.280024
_cell_angle_alpha 90.000000
_cell_angle_beta 37.456555
_cell_angle_gamma 90.000000
_cell_volume 3205.041016
_symmetry_space_group_name_H-M "C 2/C"
_symmetry_group_IT_number 15
_symmetry_cell_setting 'monoclinic'
loop_
_space_group_symop_operation_xyz
x,y,z
-x,y,1/2-z
-x,-y,-z
x,-y,1/2+z
1/2+x,1/2+y,z
1/2-x,1/2+y,1/2-z
1/2-x,1/2-y,-z
1/2+x,1/2-y,1/2+z
loop_
_atom_site_type_symbol
_atom_site_label
_atom_site_fract_x
_atom_site_fract_y
_atom_site_fract_z
Si Si1 0.648456 0.283299 0.262148
Si Si2 0.500000 0.726508 0.250000
Si Si3 0.874637 0.346847 0.905616
Si Si4 0.224429 0.659880 0.234177
Si Si5 0.680961 0.870455 0.144564
Si Si6 0.527006 0.151901 0.921885
Si Si7 0.150930 0.469650 0.762058
Si Si8 0.500000 0.032188 0.750000
O O1 0.572479 0.312934 0.513054
O O2 0.637501 0.222023 0.167082
O O3 0.684131 0.234186 0.292436
O O4 0.704021 0.340156 0.049222
O O5 0.479953 0.779296 0.168984
O O6 0.857788 0.420084 0.857534
O O7 0.958862 0.347642 0.707327
O O8 0.825549 0.341921 0.175655
O O9 0.232462 0.660261 0.384368
O O10 0.179506 0.588405 0.303625
O O11 0.603208 0.853177 0.287399
O O12 0.695289 0.957761 0.117276
O O13 0.515826 0.082695 0.846028
O O14 0.074862 0.502588 0.013715
#
# Coordination Sequence:
#
# PCOD9262359 Si02
#       8
#     8   4   8   8   8   8   8   4
#     4   9  18  34  51  63  89 117 159 194 223 272
#     4   9  14  32  52  68  82 116 160 197 214 270
#     4   9  20  28  40  65  92 122 158 193 221 253
#     4  10  19  33  48  65  87 129 156 183 228 271
#     4  12  19  27  43  67  98 123 152 185 231 264
#     4   9  16  27  41  63  93 122 155 187 218 252
#     4  10  20  30  41  63  93 129 161 185 213 270
#     4   9  16  28  42  56  88 132 170 177 194 256
#
# _framework density 17.472476
#
# number of rings (size 3 to 8) (size 9 to 14) (size 15 to 20)
#    0.000    2.286    2.857    3.000    2.000    1.714 
#    0.000    0.000    0.000    0.000    0.000    1.000 
#    0.000    0.000    0.000    0.000    0.000    0.000 
#
# Total GULP energy -156034.434724 kJ/mol
# GULP energy per Si atom -5572.658383 kJ/mol
# Density = 1.743271 g / cm^3
# Si number density = 17.472476 Si / 1000 Ang^3
#
#
#
# Elastic Constant Matrix: (Units=GPa)
#
#
# Indices 1 2 3 4 5 6 
#
# 1 24.7716 -1.3667 15.1093 0.0000 12.0113 0.0000
# 2 -1.3667 23.6933 17.9649 0.0000 2.3957 0.0000
# 3 15.1093 17.9649 122.0649 0.0000 7.0370 0.0000
# 4 0.0000 0.0000 0.0000 17.5157 0.0000 -1.6305
# 5 12.0113 2.3957 7.0370 0.0000 32.9336 0.0000
# 6 0.0000 0.0000 0.0000 -1.6305 0.0000 0.4176
#
#
#
# Elastic Compliance Matrix: (Units=1/GPa)
#
#
# Indices 1 2 3 4 5 6 
#
# 1 0.054638 0.010557 -0.007213 0.000000 -0.019154 0.000000
# 2 0.010557 0.049676 -0.008290 0.000000 -0.005693 0.000000
# 3 -0.007213 -0.008290 0.010245 0.000000 0.001045 0.000000
# 4 0.000000 0.000000 0.000000 0.089690 0.000000 0.350184
# 5 -0.019154 -0.005693 0.001045 0.000000 0.037541 0.000000
# 6 0.000000 0.000000 0.000000 0.350184 0.000000 3.761834
#
#
# Mechanical properties :
#
#
# Convention : Reuss Voigt Hill
#
# Bulk Modulus (GPa) = 9.55397 25.99388 17.77393
# Shear Modulus (GPa) = 1.23505 19.42819 10.33162
#
# Velocity S-wave (km/s) = 0.84166 3.33818 2.43432
# Velocity P-wave (km/s) = 2.53464 5.45594 4.25392
#
# Compressibility (1/GPa) = 0.10466851
#
# Stress axis : x y z
#
# Youngs Moduli (GPa) = 18.30229 20.13046 97.60885
#
# Poissons Ratio (x) = -0.21252 0.70402
# Poissons Ratio (y) = -0.19322 0.80914
# Poissons Ratio (z) = 0.13201 0.16687
#
# Static dielectric constant tensor:
#      x y z
#    x 1.635120 0.000000 0.005600 
#    y 0.000000 1.579970 0.000000 
#    z 0.005600 0.000000 1.670540 
# 
# From -- ./inp_files/49718.got.cif
#   From: 2010.05.17/outbox.cif.g08.bks.cpg/sg15_25_cif.got.tgz:49718.got - 2010.06.03 18:47:42.
