data_PCOD9262653
_publ_section_title
;
Structure prediction by ZEFSAII (Michael W. Deem and Ramdas Pophale) SiO2 
 PCOD9262653
Probable space group: C 2/C
;
_chemical_formula_sum "Si O2"
_cell_formula_units_Z 52
_cell_length_a 13.988813
_cell_length_b 18.053251
_cell_length_c 17.501078
_cell_angle_alpha 90.000000
_cell_angle_beta 33.408790
_cell_angle_gamma 90.000000
_cell_volume 2433.572239
_symmetry_space_group_name_H-M "C 2/C"
_symmetry_group_IT_number 15
_symmetry_cell_setting 'monoclinic'
loop_
_space_group_symop_operation_xyz
x,y,z
-x,y,1/2-z
-x,-y,-z
x,-y,1/2+z
1/2+x,1/2+y,z
1/2-x,1/2+y,1/2-z
1/2-x,1/2-y,-z
1/2+x,1/2-y,1/2+z
loop_
_atom_site_type_symbol
_atom_site_label
_atom_site_fract_x
_atom_site_fract_y
_atom_site_fract_z
Si Si1 0.474126 0.402893 0.107575
Si Si2 0.737418 0.794851 0.654211
Si Si3 0.531272 0.276463 0.859325
Si Si4 0.000000 0.826730 0.250000
Si Si5 0.281557 0.521127 0.510416
Si Si6 0.500000 0.092163 0.250000
Si Si7 0.284043 0.844782 0.340498
Si Si8 0.500000 0.398994 0.750000
O O1 0.476798 0.379066 0.193360
O O2 0.301166 0.387209 0.175607
O O3 0.607037 0.342729 0.984047
O O4 0.551652 0.485947 0.056023
O O5 0.805699 0.772120 0.691437
O O6 0.666167 0.728340 0.648972
O O7 0.582997 0.854074 0.757761
O O8 0.550988 0.201690 0.797653
O O9 0.545215 0.345396 0.791360
O O10 0.357104 0.288523 0.025602
O O11 0.202356 0.590585 0.607202
O O12 0.346777 0.549204 0.384873
O O13 0.140380 0.457082 0.612538
#
# Coordination Sequence:
#
# PCOD9262653 Si02
#       8
#     8   8   8   4   8   4   8   4
#     4  10  19  33  54  84 113 150 184 225 281 338
#     4   9  19  35  54  83 116 145 182 237 283 322
#     4  10  21  39  57  84 111 148 190 235 282 321
#     4  11  17  30  58  83 113 144 186 230 273 337
#     4  10  21  38  56  82 114 152 188 224 281 335
#     4   9  20  37  59  80 113 154 186 224 283 344
#     4  10  21  37  59  81 116 148 188 232 277 333
#     4  10  23  39  59  79 118 148 188 242 272 323
#
# _framework density 21.367764999999999
#
# number of rings (size 3 to 8) (size 9 to 14) (size 15 to 20)
#    0.000    2.154    1.538    1.385    0.000    5.538 
#    0.000    0.769    0.000    0.000    0.000    0.000 
#    0.000    0.000    0.000    0.000    0.000    0.000 
#
# Total GULP energy -144989.055071 kJ/mol
# GULP energy per Si atom -5576.502118 kJ/mol
# Density = 2.131913 g / cm^3
# Si number density = 21.367765 Si / 1000 Ang^3
#
#
#
# Elastic Constant Matrix: (Units=GPa)
#
#
# Indices 1 2 3 4 5 6 
#
# 1 58.3757 -3.7015 14.9650 0.0015 13.7694 0.0000
# 2 -3.7015 73.5616 24.1418 -0.0018 0.9174 0.0022
# 3 14.9650 24.1418 42.1772 -0.0046 16.7460 0.0024
# 4 0.0015 -0.0018 -0.0046 82.0861 0.0027 -15.0577
# 5 13.7694 0.9174 16.7460 0.0027 29.3687 -0.0010
# 6 0.0000 0.0022 0.0024 -15.0577 -0.0010 19.5251
#
#
#
# Elastic Compliance Matrix: (Units=1/GPa)
#
#
# Indices 1 2 3 4 5 6 
#
# 1 0.020474 0.003367 -0.006901 -0.000001 -0.005769 0.000000
# 2 0.003367 0.018273 -0.013961 -0.000001 0.005811 -0.000001
# 3 -0.006901 -0.013961 0.042258 0.000002 -0.020424 -0.000003
# 4 -0.000001 -0.000001 0.000002 0.014190 -0.000002 0.010943
# 5 -0.005769 0.005811 -0.020424 -0.000002 0.048219 0.000003
# 6 0.000000 -0.000001 -0.000003 0.010943 0.000003 0.059655
#
#
# Mechanical properties :
#
#
# Convention : Reuss Voigt Hill
#
# Bulk Modulus (GPa) = 21.73207 27.21388 24.47297
# Shear Modulus (GPa) = 19.73185 35.44326 27.58755
#
# Velocity S-wave (km/s) = 3.04211 4.07716 3.59706
# Velocity P-wave (km/s) = 4.74677 5.90999 5.36003
#
# Compressibility (1/GPa) = 0.04601495
#
# Stress axis : x y z
#
# Youngs Moduli (GPa) = 48.84283 54.72614 23.66398
#
# Poissons Ratio (x) = -0.18426 0.16330
# Poissons Ratio (y) = -0.16445 0.33037
# Poissons Ratio (z) = 0.33706 0.76403
#
# Static dielectric constant tensor:
#      x y z
#    x 1.874800 0.000000 -0.000890 
#    y 0.000000 1.782050 0.000000 
#    z -0.000890 0.000000 1.808120 
# 
# From -- ./inp_files/48547.got.cif
#   From: 2010.05.17/outbox.cif.g08.bks.cpg/sg15_25_cif.got.tgz:48547.got - 2010.06.03 18:47:42.
