data_PCOD9262696
_publ_section_title
;
Structure prediction by ZEFSAII (Michael W. Deem and Ramdas Pophale) SiO2 
 PCOD9262696
Probable space group: C 2/C
;
_chemical_formula_sum "Si O2"
_cell_formula_units_Z 52
_cell_length_a 11.232548
_cell_length_b 8.674121
_cell_length_c 23.710694
_cell_angle_alpha 90.000000
_cell_angle_beta 77.853673
_cell_angle_gamma 90.000000
_cell_volume 2258.474458
_symmetry_space_group_name_H-M "C 2/C"
_symmetry_group_IT_number 15
_symmetry_cell_setting 'monoclinic'
loop_
_space_group_symop_operation_xyz
x,y,z
-x,y,1/2-z
-x,-y,-z
x,-y,1/2+z
1/2+x,1/2+y,z
1/2-x,1/2+y,1/2-z
1/2-x,1/2-y,-z
1/2+x,1/2-y,1/2+z
loop_
_atom_site_type_symbol
_atom_site_label
_atom_site_fract_x
_atom_site_fract_y
_atom_site_fract_z
Si Si1 0.447929 0.236522 0.012111
Si Si2 0.300653 0.741635 0.069347
Si Si3 0.651736 0.545321 0.062237
Si Si4 0.434908 0.966322 0.920990
Si Si5 0.836789 0.317249 0.347483
Si Si6 0.400112 0.522768 0.144405
Si Si7 0.500000 0.635101 0.250000
O O1 0.586250 0.286278 0.983427
O O2 0.361616 0.373165 0.998063
O O3 0.427464 0.096276 0.969978
O O4 0.458971 0.151533 0.071111
O O5 0.189371 0.629100 0.068501
O O6 0.352099 0.688079 0.124968
O O7 0.248770 0.912375 0.065380
O O8 0.676014 0.685364 0.103507
O O9 0.517186 0.484982 0.093699
O O10 0.434434 0.059409 0.862802
O O11 0.710261 0.404429 0.350462
O O12 0.893072 0.238704 0.287070
O O13 0.447198 0.538140 0.203146
#
# Coordination Sequence:
#
# PCOD9262696 Si02
#       7
#     8   8   8   8   8   8   4
#     4   9  18  34  52  75 112 145 172 210 248 298
#     4  10  19  33  55  79 106 142 175 209 256 305
#     4   9  19  34  54  79 104 137 177 209 251 308
#     4   9  18  34  53  77 109 142 174 210 256 304
#     4   9  19  37  56  74 104 137 167 216 268 308
#     4   9  20  37  54  75 105 133 167 220 265 308
#     4  10  20  36  58  78  96 130 178 216 264 320
#
# _framework density 23.02439
#
# number of rings (size 3 to 8) (size 9 to 14) (size 15 to 20)
#    0.000    2.769    0.000    1.385    0.000    4.308 
#    0.000   10.000    0.000    1.846    0.000    0.000 
#    0.000    0.000    0.000    0.000    0.000    0.000 
#
# Total GULP energy -145335.556961 kJ/mol
# GULP energy per Si atom -5589.829114 kJ/mol
# Density = 2.297198 g / cm^3
# Si number density = 23.024390 Si / 1000 Ang^3
#
#
#
# Elastic Constant Matrix: (Units=GPa)
#
#
# Indices 1 2 3 4 5 6 
#
# 1 108.2952 42.8632 22.8673 0.0000 3.7353 0.0000
# 2 42.8632 125.1982 27.6810 0.0000 7.5226 0.0000
# 3 22.8673 27.6810 88.3447 0.0000 20.5944 0.0000
# 4 0.0000 0.0000 0.0000 21.0511 0.0000 5.3786
# 5 3.7353 7.5226 20.5944 0.0000 27.8499 0.0000
# 6 0.0000 0.0000 0.0000 5.3786 0.0000 60.2329
#
#
#
# Elastic Compliance Matrix: (Units=1/GPa)
#
#
# Indices 1 2 3 4 5 6 
#
# 1 0.010955 -0.003365 -0.001995 0.000000 0.000914 0.000000
# 2 -0.003365 0.009619 -0.001985 0.000000 -0.000679 0.000000
# 3 -0.001995 -0.001985 0.014826 0.000000 -0.010160 0.000000
# 4 0.000000 0.000000 0.000000 0.048613 0.000000 -0.004341
# 5 0.000914 -0.000679 -0.010160 0.000000 0.043480 0.000000
# 6 0.000000 0.000000 0.000000 -0.004341 0.000000 0.016990
#
#
# Mechanical properties :
#
#
# Convention : Reuss Voigt Hill
#
# Bulk Modulus (GPa) = 48.28053 56.51790 52.39921
# Shear Modulus (GPa) = 30.10691 37.05523 33.58107
#
# Velocity S-wave (km/s) = 3.62001 4.01607 3.82317
# Velocity P-wave (km/s) = 6.20383 6.79009 6.50357
#
# Compressibility (1/GPa) = 0.02071228
#
# Stress axis : x y z
#
# Youngs Moduli (GPa) = 91.27928 103.96226 67.44996
#
# Poissons Ratio (x) = 0.34980 0.13454
# Poissons Ratio (y) = 0.30712 0.13386
# Poissons Ratio (z) = 0.18207 0.20632
#
# Static dielectric constant tensor:
#      x y z
#    x 1.903710 0.000000 0.030090 
#    y 0.000000 1.916460 0.000000 
#    z 0.030090 0.000000 1.871440 
# 
# From -- ./inp_files/291104.got.cif
#   From: 2010.05.17/outbox.cif.g08.bks.cpg/sg15_146_cif.got.tgz:291104.got - 2010.06.03 18:47:42.
