data_PCOD9262242
_publ_section_title
;
Structure prediction by ZEFSAII (Michael W. Deem and Ramdas Pophale) SiO2 
 PCOD9262242
Probable space group: C 2/C
;
_chemical_formula_sum "Si O2"
_cell_formula_units_Z 52
_cell_length_a 7.525021
_cell_length_b 29.176714
_cell_length_c 10.510554
_cell_angle_alpha 90.000000
_cell_angle_beta 66.400679
_cell_angle_gamma 90.000000
_cell_volume 2114.654243
_symmetry_space_group_name_H-M "C 2/C"
_symmetry_group_IT_number 15
_symmetry_cell_setting 'monoclinic'
loop_
_space_group_symop_operation_xyz
x,y,z
-x,y,1/2-z
-x,-y,-z
x,-y,1/2+z
1/2+x,1/2+y,z
1/2-x,1/2+y,1/2-z
1/2-x,1/2-y,-z
1/2+x,1/2-y,1/2+z
loop_
_atom_site_type_symbol
_atom_site_label
_atom_site_fract_x
_atom_site_fract_y
_atom_site_fract_z
Si Si1 0.537731 0.355038 0.483827
Si Si2 0.000000 0.420633 0.750000
Si Si3 0.985885 0.053267 0.393412
Si Si4 0.823578 0.492685 0.375248
Si Si5 0.324796 0.824633 0.195518
Si Si6 0.888025 0.349063 0.586986
Si Si7 0.321546 0.719928 0.199720
O O1 0.463590 0.407004 0.520334
O O2 0.640304 0.345076 0.320863
O O3 0.713147 0.353188 0.537253
O O4 0.389740 0.315648 0.571576
O O5 0.913898 0.457428 0.875040
O O6 0.876482 0.387045 0.699046
O O7 0.000000 0.073097 0.250000
O O8 0.132228 0.009683 0.352947
O O9 0.770089 0.035997 0.486635
O O10 0.000000 0.468350 0.250000
O O11 0.500000 0.824521 0.250000
O O12 0.287649 0.771846 0.169133
O O13 0.412947 0.850550 0.048859
O O14 0.856217 0.301135 0.669403
O O15 0.500000 0.721247 0.250000
#
# Coordination Sequence:
#
# PCOD9262242 Si02
#       7
#     8   4   8   8   8   8   8
#     4  10  19  32  56  86 112 143 184 244 283 336
#     4  10  20  40  54  76 110 154 192 226 288 352
#     4  11  21  40  62  87 114 148 199 240 287 350
#     4   9  23  41  58  84 115 151 189 240 301 344
#     4   9  18  31  50  86 115 142 187 239 287 327
#     4  10  19  33  55  77 109 154 191 228 282 345
#     4   9  16  30  54  80 112 147 185 236 287 327
#
# _framework density 24.590309999999999
#
# number of rings (size 3 to 8) (size 9 to 14) (size 15 to 20)
#    0.462    1.846    0.000    4.154    0.000    6.154 
#    5.538    0.769    0.000    0.000    0.000    0.000 
#    0.000    0.000    0.000    0.000    0.000    0.000 
#
# Total GULP energy -145165.883481 kJ/mol
# GULP energy per Si atom -5583.303211 kJ/mol
# Density = 2.453434 g / cm^3
# Si number density = 24.590310 Si / 1000 Ang^3
#
#
#
# Elastic Constant Matrix: (Units=GPa)
#
#
# Indices 1 2 3 4 5 6 
#
# 1 60.8971 8.9441 46.3780 0.0000 6.2414 0.0000
# 2 8.9441 91.8767 55.3474 0.0000 -11.2287 0.0000
# 3 46.3780 55.3474 164.4895 0.0000 -51.4779 0.0000
# 4 0.0000 0.0000 0.0000 36.6974 0.0000 -14.3248
# 5 6.2414 -11.2287 -51.4779 0.0000 34.7529 0.0000
# 6 0.0000 0.0000 0.0000 -14.3248 0.0000 18.6448
#
#
#
# Elastic Compliance Matrix: (Units=1/GPa)
#
#
# Indices 1 2 3 4 5 6 
#
# 1 0.045093 0.008507 -0.032158 0.000000 -0.052984 0.000000
# 2 0.008507 0.015638 -0.012224 0.000000 -0.014582 0.000000
# 3 -0.032158 -0.012224 0.036968 0.000000 0.056585 0.000000
# 4 0.000000 0.000000 0.000000 0.038923 0.000000 0.029905
# 5 -0.052984 -0.014582 0.056585 0.000000 0.117395 0.000000
# 6 0.000000 0.000000 0.000000 0.029905 0.000000 0.076610
#
#
# Mechanical properties :
#
#
# Convention : Reuss Voigt Hill
#
# Bulk Modulus (GPa) = 38.53699 59.84470 49.19084
# Shear Modulus (GPa) = 12.16465 31.79195 21.97830
#
# Velocity S-wave (km/s) = 2.22658 3.59954 2.99286
# Velocity P-wave (km/s) = 4.72397 6.45486 5.65602
#
# Compressibility (1/GPa) = 0.02594910
#
# Stress axis : x y z
#
# Youngs Moduli (GPa) = 22.17632 63.94826 27.05029
#
# Poissons Ratio (x) = -0.54402 0.86989
# Poissons Ratio (y) = -0.18866 0.33066
# Poissons Ratio (z) = 0.71315 0.78170
#
# Static dielectric constant tensor:
#      x y z
#    x 2.047060 0.000000 -0.036640 
#    y 0.000000 1.886200 0.000000 
#    z -0.036640 0.000000 1.923690 
# 
# From -- ./inp_files/82088.got.cif
#   From: 2010.05.17/outbox.cif.g08.bks.cpg/sg15_42_cif.got.tgz:82088.got - 2010.06.03 18:47:42.
