data_PCOD9262233
_publ_section_title
;
Structure prediction by ZEFSAII (Michael W. Deem and Ramdas Pophale) SiO2 
 PCOD9262233
Probable space group: C 2/C
;
_chemical_formula_sum "Si O2"
_cell_formula_units_Z 48
_cell_length_a 8.531919
_cell_length_b 29.233792
_cell_length_c 9.325168
_cell_angle_alpha 90.000000
_cell_angle_beta 86.787673
_cell_angle_gamma 90.000000
_cell_volume 2322.232031
_symmetry_space_group_name_H-M "C 2/C"
_symmetry_group_IT_number 15
_symmetry_cell_setting 'monoclinic'
loop_
_space_group_symop_operation_xyz
x,y,z
-x,y,1/2-z
-x,-y,-z
x,-y,1/2+z
1/2+x,1/2+y,z
1/2-x,1/2+y,1/2-z
1/2-x,1/2-y,-z
1/2+x,1/2-y,1/2+z
loop_
_atom_site_type_symbol
_atom_site_label
_atom_site_fract_x
_atom_site_fract_y
_atom_site_fract_z
Si Si1 0.985306 0.365010 0.082067
Si Si2 0.675270 0.243591 0.722392
Si Si3 0.852634 0.100458 0.342985
Si Si4 0.831519 0.675028 0.343344
Si Si5 0.178461 0.819896 0.475873
Si Si6 0.447804 0.954975 0.587215
O O1 0.145039 0.340056 0.025851
O O2 0.000000 0.373065 0.250000
O O3 0.972913 0.412829 0.999594
O O4 0.853027 0.335648 0.009938
O O5 0.500000 0.223955 0.750000
O O6 0.737214 0.277915 0.837716
O O7 0.807381 0.206351 0.675440
O O8 0.653168 0.279450 0.590840
O O9 0.759268 0.134609 0.237810
O O10 0.912315 0.134984 0.467039
O O11 0.734945 0.061049 0.401983
O O12 0.000000 0.081408 0.250000
O O13 0.000000 0.679598 0.250000
O O14 0.500000 0.957653 0.750000
O O15 0.500000 0.000000 0.500000
#
# Coordination Sequence:
#
# PCOD9262233 Si02
#       6
#     8   8   8   8   8   8
#     4  11  20  35  60  87 118 165 212 260 307 373
#     4  10  19  32  56  83 116 160 208 269 313 362
#     4  10  19  37  68  89 121 170 204 248 323 375
#     4  11  17  36  61  84 115 169 216 251 315 382
#     4   9  18  33  53  79 120 155 208 254 311 362
#     4  11  21  40  66  99 124 157 205 254 311 387
#
# _framework density 20.66977
#
# number of rings (size 3 to 8) (size 9 to 14) (size 15 to 20)
#    0.000    1.667    6.667    3.000    0.000    0.000 
#    0.000    4.167    7.333    5.000    0.000    0.000 
#    0.000    0.000    0.000    0.000    0.000    0.000 
#
# Total GULP energy -133654.619263 kJ/mol
# GULP energy per Si atom -5568.942469 kJ/mol
# Density = 2.062272 g / cm^3
# Si number density = 20.669770 Si / 1000 Ang^3
#
#
#
# Elastic Constant Matrix: (Units=GPa)
#
#
# Indices 1 2 3 4 5 6 
#
# 1 53.8203 28.6082 21.5726 0.0000 -16.0141 0.0000
# 2 28.6082 105.3861 42.4186 0.0000 -5.7466 0.0000
# 3 21.5726 42.4186 145.0668 0.0000 3.1738 0.0000
# 4 0.0000 0.0000 0.0000 34.1137 0.0000 -10.3842
# 5 -16.0141 -5.7466 3.1738 0.0000 28.8671 0.0000
# 6 0.0000 0.0000 0.0000 -10.3842 0.0000 23.0550
#
#
#
# Elastic Compliance Matrix: (Units=1/GPa)
#
#
# Indices 1 2 3 4 5 6 
#
# 1 0.026710 -0.005398 -0.002701 0.000000 0.014040 0.000000
# 2 -0.005398 0.012028 -0.002708 0.000000 -0.000303 0.000000
# 3 -0.002701 -0.002708 0.008151 0.000000 -0.002933 0.000000
# 4 0.000000 0.000000 0.000000 0.033971 0.000000 0.015301
# 5 0.014040 -0.000303 -0.002933 0.000000 0.042692 0.000000
# 6 0.000000 0.000000 0.000000 0.015301 0.000000 0.050266
#
#
# Mechanical properties :
#
#
# Convention : Reuss Voigt Hill
#
# Bulk Modulus (GPa) = 39.56400 54.38577 46.97488
# Shear Modulus (GPa) = 24.52712 31.31873 27.92292
#
# Velocity S-wave (km/s) = 3.44847 3.89677 3.67946
# Velocity P-wave (km/s) = 5.91933 6.82754 6.38959
#
# Compressibility (1/GPa) = 0.02527551
#
# Stress axis : x y z
#
# Youngs Moduli (GPa) = 37.43971 83.14205 122.68590
#
# Poissons Ratio (x) = 0.44880 0.33133
# Poissons Ratio (y) = 0.20210 0.33219
# Poissons Ratio (z) = 0.10111 0.22512
#
# Static dielectric constant tensor:
#      x y z
#    x 1.769530 0.000000 -0.024320 
#    y 0.000000 1.785210 0.000000 
#    z -0.024320 0.000000 1.841570 
# 
# From -- ./inp_files/26117.got.cif
#   From: 2010.05.17/outbox.cif.g08.bks.cpg/sg15_14_cif.got.tgz:26117.got - 2010.06.03 18:47:42.
