data_PCOD9262395
_publ_section_title
;
Structure prediction by ZEFSAII (Michael W. Deem and Ramdas Pophale) SiO2 
 PCOD9262395
Probable space group: C 2/C
;
_chemical_formula_sum "Si O2"
_cell_formula_units_Z 52
_cell_length_a 9.958667
_cell_length_b 20.044401
_cell_length_c 17.324881
_cell_angle_alpha 90.000000
_cell_angle_beta 144.336037
_cell_angle_gamma 90.000000
_cell_volume 2016.302539
_symmetry_space_group_name_H-M "C 2/C"
_symmetry_group_IT_number 15
_symmetry_cell_setting 'monoclinic'
loop_
_space_group_symop_operation_xyz
x,y,z
-x,y,1/2-z
-x,-y,-z
x,-y,1/2+z
1/2+x,1/2+y,z
1/2-x,1/2+y,1/2-z
1/2-x,1/2-y,-z
1/2+x,1/2-y,1/2+z
loop_
_atom_site_type_symbol
_atom_site_label
_atom_site_fract_x
_atom_site_fract_y
_atom_site_fract_z
Si Si1 0.409258 0.444279 0.818452
Si Si2 0.263805 0.693761 0.188632
Si Si3 0.613723 0.400736 0.226772
Si Si4 0.000000 0.469495 0.250000
Si Si5 0.943791 0.458452 0.052591
Si Si6 0.518081 0.605048 0.519557
Si Si7 0.487026 0.747517 0.062181
O O1 0.266438 0.382823 0.718406
O O2 0.382949 0.517687 0.771905
O O3 0.318323 0.432495 0.570508
O O4 0.382803 0.444910 0.899587
O O5 0.500000 0.701101 0.250000
O O6 0.300801 0.745606 0.277534
O O7 0.054095 0.709967 0.034432
O O8 0.500000 0.373885 0.250000
O O9 0.889680 0.393976 0.358956
O O10 0.458900 0.384739 0.080749
O O11 0.029399 0.498539 0.352077
O O12 0.777723 0.421173 0.148276
O O13 0.000000 0.500000 0.000000
O O14 0.503983 0.673060 0.467906
O O15 0.250000 0.750000 0.000000
#
# Coordination Sequence:
#
# PCOD9262395 Si02
#       7
#     8   8   8   4   8   8   8
#     4  10  19  35  54  78 118 152 197 244 293 359
#     4   9  18  31  51  81 113 149 178 239 300 354
#     4  11  20  33  53  79 116 156 199 235 293 369
#     4   8  18  30  48  70 106 142 184 234 288 342
#     4  10  19  33  50  75 111 154 197 242 289 347
#     4   9  19  32  51  79 113 150 185 242 300 348
#     4   9  18  32  51  79 116 141 184 236 302 360
#
# _framework density 25.789781000000001
#
# number of rings (size 3 to 8) (size 9 to 14) (size 15 to 20)
#    0.000    2.462    1.538    0.923    3.231    0.000 
#    2.769    0.000    0.000    0.000    0.000    4.308 
#   13.846    0.000    0.000    0.000    0.000    2.615 
#
# Total GULP energy -145090.749111 kJ/mol
# GULP energy per Si atom -5580.413427 kJ/mol
# Density = 2.573108 g / cm^3
# Si number density = 25.789781 Si / 1000 Ang^3
#
#
#
# Elastic Constant Matrix: (Units=GPa)
#
#
# Indices 1 2 3 4 5 6 
#
# 1 53.2245 -15.3659 17.2112 0.0010 -36.3118 0.0002
# 2 -15.3659 51.3434 51.4926 0.0005 -4.2099 0.0001
# 3 17.2112 51.4926 198.3757 0.0022 -44.9884 0.0017
# 4 0.0010 0.0005 0.0022 55.3982 0.0009 -11.1279
# 5 -36.3118 -4.2099 -44.9884 0.0009 57.4233 0.0003
# 6 0.0002 0.0001 0.0017 -11.1279 0.0003 14.3124
#
#
#
# Elastic Compliance Matrix: (Units=1/GPa)
#
#
# Indices 1 2 3 4 5 6 
#
# 1 0.042356 0.016930 -0.002084 -0.000002 0.026392 -0.000002
# 2 0.016930 0.033944 -0.008862 0.000000 0.006251 0.000000
# 3 -0.002084 -0.008862 0.008605 -0.000001 0.004774 -0.000002
# 4 -0.000002 0.000000 -0.000001 0.021392 -0.000002 0.016632
# 5 0.026392 0.006251 0.004774 -0.000002 0.038302 -0.000003
# 6 -0.000002 0.000000 -0.000002 0.016632 -0.000003 0.082801
#
#
# Mechanical properties :
#
#
# Convention : Reuss Voigt Hill
#
# Bulk Modulus (GPa) = 10.32282 45.51327 27.91805
# Shear Modulus (GPa) = 20.18392 42.06715 31.12553
#
# Velocity S-wave (km/s) = 2.80059 4.04314 3.47781
# Velocity P-wave (km/s) = 3.80383 6.28348 5.19380
#
# Compressibility (1/GPa) = 0.09687275
#
# Stress axis : x y z
#
# Youngs Moduli (GPa) = 23.60950 29.46044 116.21570
#
# Poissons Ratio (x) = -0.49877 0.24220
# Poissons Ratio (y) = -0.39971 1.02990
# Poissons Ratio (z) = 0.04920 0.26108
#
# Static dielectric constant tensor:
#      x y z
#    x 2.232270 0.000010 0.039700 
#    y 0.000010 2.166690 0.000000 
#    z 0.039700 0.000000 2.264420 
# 
# From -- ./inp_files/147208.got.cif
#   From: 2010.05.17/outbox.cif.g08.bks.cpg/sg15_74_cif.got.tgz:147208.got - 2010.06.03 18:47:42.
