data_PCOD9262161
_publ_section_title
;
Structure prediction by ZEFSAII (Michael W. Deem and Ramdas Pophale) SiO2 
 PCOD9262161
Probable space group: C 2/C
;
_chemical_formula_sum "Si O2"
_cell_formula_units_Z 40
_cell_length_a 19.141645
_cell_length_b 5.106053
_cell_length_c 22.455841
_cell_angle_alpha 90.000000
_cell_angle_beta 55.786523
_cell_angle_gamma 90.000000
_cell_volume 1814.981823
_symmetry_space_group_name_H-M "C 2/C"
_symmetry_group_IT_number 15
_symmetry_cell_setting 'monoclinic'
loop_
_space_group_symop_operation_xyz
x,y,z
-x,y,1/2-z
-x,-y,-z
x,-y,1/2+z
1/2+x,1/2+y,z
1/2-x,1/2+y,1/2-z
1/2-x,1/2-y,-z
1/2+x,1/2-y,1/2+z
loop_
_atom_site_type_symbol
_atom_site_label
_atom_site_fract_x
_atom_site_fract_y
_atom_site_fract_z
Si Si1 0.446961 0.223064 0.218895
Si Si2 0.704076 0.632231 0.639548
Si Si3 0.283044 0.989468 0.266925
Si Si4 0.603639 0.724935 0.566808
Si Si5 0.179184 0.270721 0.982186
O O1 0.500000 0.117604 0.250000
O O2 0.380389 0.426657 0.280982
O O3 0.384715 0.008985 0.220499
O O4 0.512531 0.326921 0.139373
O O5 0.741657 0.877309 0.657948
O O6 0.668434 0.716198 0.592147
O O7 0.769966 0.402784 0.596376
O O8 0.251334 0.209947 0.235375
O O9 0.633077 0.507204 0.505786
O O10 0.611986 0.010698 0.535092
O O11 0.250000 0.250000 0.000000
#
# Coordination Sequence:
#
# PCOD9262161 Si02
#       5
#     8   8   8   8   8
#     4   8  18  39  57  88 112 149 191 248 279 329
#     4   8  18  36  54  82 110 149 189 227 279 342
#     4  10  22  37  58  82 115 154 193 230 283 344
#     4  10  19  34  55  86 114 142 184 243 289 325
#     4  10  19  32  54  84 117 146 181 234 291 340
#
# _framework density 22.038786999999999
#
# number of rings (size 3 to 8) (size 9 to 14) (size 15 to 20)
#    1.200    1.600    0.000    2.400    0.000    6.400 
#    0.000    6.000    0.000    7.200    0.000    0.000 
#    0.000    0.000    0.000    0.000    0.000    0.000 
#
# Total GULP energy -111417.232207 kJ/mol
# GULP energy per Si atom -5570.861610 kJ/mol
# Density = 2.198863 g / cm^3
# Si number density = 22.038787 Si / 1000 Ang^3
#
#
#
# Elastic Constant Matrix: (Units=GPa)
#
#
# Indices 1 2 3 4 5 6 
#
# 1 72.3692 10.8138 18.1345 0.0349 -7.4662 -0.0252
# 2 10.8138 77.6961 26.6004 0.1542 0.9374 0.0296
# 3 18.1345 26.6004 135.3907 -0.0143 -19.1051 -0.0001
# 4 0.0349 0.1542 -0.0143 18.8544 0.0014 10.6490
# 5 -7.4662 0.9374 -19.1051 0.0014 23.0724 -0.0102
# 6 -0.0252 0.0296 -0.0001 10.6490 -0.0102 13.0565
#
#
#
# Elastic Compliance Matrix: (Units=1/GPa)
#
#
# Indices 1 2 3 4 5 6 
#
# 1 0.014755 -0.001732 -0.001078 -0.000064 0.003952 0.000087
# 2 -0.001732 0.014211 -0.003081 -0.000173 -0.003689 0.000103
# 3 -0.001078 -0.003081 0.009176 0.000051 0.007375 -0.000031
# 4 -0.000064 -0.000173 0.000051 0.098342 -0.000013 -0.080208
# 5 0.003952 -0.003689 0.007375 -0.000013 0.050877 0.000067
# 6 0.000087 0.000103 -0.000031 -0.080208 0.000067 0.142009
#
#
# Mechanical properties :
#
#
# Convention : Reuss Voigt Hill
#
# Bulk Modulus (GPa) = 37.93554 44.06150 40.99852
# Shear Modulus (GPa) = 14.28821 26.32381 20.30601
#
# Velocity S-wave (km/s) = 2.54898 3.45980 3.03871
# Velocity P-wave (km/s) = 5.09053 5.99970 5.56372
#
# Compressibility (1/GPa) = 0.02636051
#
# Stress axis : x y z
#
# Youngs Moduli (GPa) = 67.77440 70.36689 108.97534
#
# Poissons Ratio (x) = 0.12187 0.11751
# Poissons Ratio (y) = 0.11738 0.33572
# Poissons Ratio (z) = 0.07308 0.21678
#
# Static dielectric constant tensor:
#      x y z
#    x 1.835680 0.000000 0.024670 
#    y 0.000000 1.832830 -0.000060 
#    z 0.024670 -0.000060 1.885360 
# 
# From -- ./inp_files/297264.got.cif
#   From: 2010.05.17/outbox.cif.g08.bks.cpg/sg15_149_cif.got.tgz:297264.got - 2010.06.03 18:47:42.
