data_PCOD9262478
_publ_section_title
;
Structure prediction by ZEFSAII (Michael W. Deem and Ramdas Pophale) SiO2 
 PCOD9262478
Probable space group: C 2/C
;
_chemical_formula_sum "Si O2"
_cell_formula_units_Z 60
_cell_length_a 16.283173
_cell_length_b 20.411769
_cell_length_c 13.169214
_cell_angle_alpha 90.000000
_cell_angle_beta 126.846360
_cell_angle_gamma 90.000000
_cell_volume 3502.702689
_symmetry_space_group_name_H-M "C 2/C"
_symmetry_group_IT_number 15
_symmetry_cell_setting 'monoclinic'
loop_
_space_group_symop_operation_xyz
x,y,z
-x,y,1/2-z
-x,-y,-z
x,-y,1/2+z
1/2+x,1/2+y,z
1/2-x,1/2+y,1/2-z
1/2-x,1/2-y,-z
1/2+x,1/2-y,1/2+z
loop_
_atom_site_type_symbol
_atom_site_label
_atom_site_fract_x
_atom_site_fract_y
_atom_site_fract_z
Si Si1 0.500000 0.218503 0.250000
Si Si2 0.642965 0.660905 0.153342
Si Si3 0.191360 0.831425 0.024192
Si Si4 0.123982 0.087530 0.820731
Si Si5 0.887882 0.266326 0.207509
Si Si6 0.877905 0.934268 0.673294
Si Si7 0.442804 0.321378 0.387374
Si Si8 0.223772 0.321929 0.935645
O O1 0.470126 0.266108 0.323574
O O2 0.399494 0.175985 0.149060
O O3 0.612918 0.728926 0.186325
O O4 0.652962 0.605827 0.247816
O O5 0.741110 0.672002 0.155460
O O6 0.547564 0.647054 0.007750
O O7 0.308417 0.825157 0.144246
O O8 0.121250 0.801853 0.061278
O O9 0.161494 0.787016 0.905416
O O10 0.167655 0.903086 0.963318
O O11 0.128910 0.124257 0.717469
O O12 0.000000 0.094928 0.750000
O O13 0.145788 0.010740 0.835008
O O14 0.204480 0.125979 0.951847
O O15 0.000000 0.281963 0.250000
O O16 0.000000 0.925435 0.750000
O O17 0.250000 0.250000 0.000000
#
# Coordination Sequence:
#
# PCOD9262478 Si02
#       8
#     4   8   8   8   8   8   8   8
#     4  12  24  36  56  84 116 146 184 230 284 326
#     4  11  19  34  57  83 117 141 179 227 282 330
#     4  10  20  33  55  79 111 144 183 222 276 327
#     4  11  22  36  57  83 115 142 187 225 276 334
#     4  10  19  33  52  82 109 144 182 225 268 332
#     4  10  21  37  55  83 112 147 178 227 275 335
#     4  12  18  34  54  85 109 142 176 223 279 335
#     4  12  22  38  57  83 114 146 186 233 277 331
#
# _framework density 17.129629999999999
#
# number of rings (size 3 to 8) (size 9 to 14) (size 15 to 20)
#    0.000    1.067    7.333    1.600    0.000    1.600 
#    0.000    0.000    1.467    0.800    0.000    0.000 
#    0.000    0.000    0.000    0.000    0.000    0.000 
#
# Total GULP energy -167101.534355 kJ/mol
# GULP energy per Si atom -5570.051145 kJ/mol
# Density = 1.709064 g / cm^3
# Si number density = 17.129630 Si / 1000 Ang^3
#
#
#
# Elastic Constant Matrix: (Units=GPa)
#
#
# Indices 1 2 3 4 5 6 
#
# 1 82.0044 38.7162 48.7302 0.0000 7.7350 0.0000
# 2 38.7162 87.2545 45.6971 0.0000 4.7226 0.0000
# 3 48.7302 45.6971 94.2151 0.0000 8.8988 0.0000
# 4 0.0000 0.0000 0.0000 18.2332 0.0000 7.3864
# 5 7.7350 4.7226 8.8988 0.0000 39.9606 0.0000
# 6 0.0000 0.0000 0.0000 7.3864 0.0000 6.3685
#
#
#
# Elastic Compliance Matrix: (Units=1/GPa)
#
#
# Indices 1 2 3 4 5 6 
#
# 1 0.018843 -0.004357 -0.007495 0.000000 -0.001463 0.000000
# 2 -0.004357 0.016372 -0.005704 0.000000 0.000179 0.000000
# 3 -0.007495 -0.005704 0.017423 0.000000 -0.001755 0.000000
# 4 0.000000 0.000000 0.000000 0.103454 0.000000 -0.119990
# 5 -0.001463 0.000179 -0.001755 0.000000 0.025678 0.000000
# 6 0.000000 0.000000 0.000000 -0.119990 0.000000 0.296192
#
#
# Mechanical properties :
#
#
# Convention : Reuss Voigt Hill
#
# Bulk Modulus (GPa) = 57.05676 58.86232 57.95954
# Shear Modulus (GPa) = 9.63551 21.60116 15.61833
#
# Velocity S-wave (km/s) = 2.37429 3.55497 3.02283
# Velocity P-wave (km/s) = 6.39511 7.16155 6.78916
#
# Compressibility (1/GPa) = 0.01752641
#
# Stress axis : x y z
#
# Youngs Moduli (GPa) = 53.07007 61.08143 57.39555
#
# Poissons Ratio (x) = 0.26611 0.43016
# Poissons Ratio (y) = 0.23120 0.32740
# Poissons Ratio (z) = 0.39775 0.34842
#
# Static dielectric constant tensor:
#      x y z
#    x 1.617860 0.000000 -0.012050 
#    y 0.000000 1.593930 0.000000 
#    z -0.012050 0.000000 1.627360 
# 
# From -- ./inp_files/163452.got.cif
#   From: 2010.05.17/outbox.cif.g08.bks.cpg/sg15_82_cif.got.tgz:163452.got - 2010.06.03 18:47:42.
