data_PCOD9262488
_publ_section_title
;
Structure prediction by ZEFSAII (Michael W. Deem and Ramdas Pophale) SiO2 
 PCOD9262488
Probable space group: C 2/C
;
_chemical_formula_sum "Si O2"
_cell_formula_units_Z 52
_cell_length_a 11.473752
_cell_length_b 13.806750
_cell_length_c 15.623605
_cell_angle_alpha 90.000000
_cell_angle_beta 109.670775
_cell_angle_gamma 90.000000
_cell_volume 2330.580776
_symmetry_space_group_name_H-M "C 2/C"
_symmetry_group_IT_number 15
_symmetry_cell_setting 'monoclinic'
loop_
_space_group_symop_operation_xyz
x,y,z
-x,y,1/2-z
-x,-y,-z
x,-y,1/2+z
1/2+x,1/2+y,z
1/2-x,1/2+y,1/2-z
1/2-x,1/2-y,-z
1/2+x,1/2-y,1/2+z
loop_
_atom_site_type_symbol
_atom_site_label
_atom_site_fract_x
_atom_site_fract_y
_atom_site_fract_z
Si Si1 0.134079 0.355487 0.234482
Si Si2 0.080527 0.829326 0.626577
Si Si3 0.000000 0.276844 0.750000
Si Si4 0.841509 0.275210 0.097350
Si Si5 0.895893 0.228424 0.546719
Si Si6 0.069975 0.600007 0.021724
Si Si7 0.795361 0.422894 0.778776
O O1 0.138024 0.279008 0.158424
O O2 0.218402 0.305715 0.328692
O O3 0.168147 0.464975 0.225688
O O4 0.000000 0.349326 0.250000
O O5 0.078061 0.847804 0.524163
O O6 0.163600 0.900536 0.702999
O O7 0.942638 0.810106 0.627135
O O8 0.057954 0.215191 0.843776
O O9 0.107650 0.350279 0.743771
O O10 0.750000 0.250000 0.000000
O O11 0.900686 0.370626 0.067658
O O12 0.750000 0.250000 0.500000
O O13 0.977831 0.320545 0.538096
O O14 0.185635 0.594324 0.115110
O O15 0.000000 0.500000 0.000000
#
# Coordination Sequence:
#
# PCOD9262488 Si02
#       7
#     8   8   4   8   8   8   8
#     4  10  20  36  58  88 114 155 204 246 300 361
#     4  10  21  35  58  86 121 158 199 251 306 364
#     4  10  20  30  56  84 116 154 188 236 308 360
#     4  10  21  38  57  82 115 160 204 249 299 363
#     4  10  19  33  52  84 120 145 186 238 301 352
#     4  10  21  34  57  87 114 146 198 249 296 353
#     4  11  19  34  57  89 116 150 200 252 302 358
#
# _framework density 22.312035000000002
#
# number of rings (size 3 to 8) (size 9 to 14) (size 15 to 20)
#    0.000    1.846    2.308    3.692    2.154    0.000 
#    0.000    0.769    0.000    3.692    6.000    0.000 
#    0.000    0.000    0.000    0.000    0.000    0.000 
#
# Total GULP energy -144986.535928 kJ/mol
# GULP energy per Si atom -5576.405228 kJ/mol
# Density = 2.226125 g / cm^3
# Si number density = 22.312035 Si / 1000 Ang^3
#
#
#
# Elastic Constant Matrix: (Units=GPa)
#
#
# Indices 1 2 3 4 5 6 
#
# 1 43.8565 1.9732 15.1556 0.0000 11.9289 0.0000
# 2 1.9732 32.9536 9.4296 0.0000 7.6155 0.0000
# 3 15.1556 9.4296 195.2069 0.0000 5.1729 0.0000
# 4 0.0000 0.0000 0.0000 27.0852 0.0000 3.1373
# 5 11.9289 7.6155 5.1729 0.0000 36.3973 0.0000
# 6 0.0000 0.0000 0.0000 3.1373 0.0000 13.6842
#
#
#
# Elastic Compliance Matrix: (Units=1/GPa)
#
#
# Indices 1 2 3 4 5 6 
#
# 1 0.025657 0.000911 -0.001815 0.000000 -0.008341 0.000000
# 2 0.000911 0.032288 -0.001449 0.000000 -0.006848 0.000000
# 3 -0.001815 -0.001449 0.005330 0.000000 0.000140 0.000000
# 4 0.000000 0.000000 0.000000 0.037928 0.000000 -0.008695
# 5 -0.008341 -0.006848 0.000140 0.000000 0.031621 0.000000
# 6 0.000000 0.000000 0.000000 -0.008695 0.000000 0.075070
#
#
# Mechanical properties :
#
#
# Convention : Reuss Voigt Hill
#
# Bulk Modulus (GPa) = 17.07391 36.12596 26.59994
# Shear Modulus (GPa) = 21.54024 31.79725 26.66875
#
# Velocity S-wave (km/s) = 3.11047 3.77917 3.46101
# Velocity P-wave (km/s) = 4.53531 5.93879 5.28385
#
# Compressibility (1/GPa) = 0.05856888
#
# Stress axis : x y z
#
# Youngs Moduli (GPa) = 38.97620 30.97083 187.61919
#
# Poissons Ratio (x) = -0.02821 0.34051
# Poissons Ratio (y) = -0.03550 0.27185
# Poissons Ratio (z) = 0.07074 0.04487
#
# Static dielectric constant tensor:
#      x y z
#    x 2.020290 0.000000 0.138400 
#    y 0.000000 1.749300 0.000000 
#    z 0.138400 0.000000 2.038250 
# 
# From -- ./inp_files/144337.got.cif
#   From: 2010.05.17/outbox.cif.g08.bks.cpg/sg15_73_cif.got.tgz:144337.got - 2010.06.03 18:47:42.
