data_PCOD9262182
_publ_section_title
;
Structure prediction by ZEFSAII (Michael W. Deem and Ramdas Pophale) SiO2 
 PCOD9262182
Probable space group: C 2/C
;
_chemical_formula_sum "Si O2"
_cell_formula_units_Z 60
_cell_length_a 16.488934
_cell_length_b 9.354494
_cell_length_c 20.003362
_cell_angle_alpha 90.000000
_cell_angle_beta 107.718269
_cell_angle_gamma 90.000000
_cell_volume 2939.072254
_symmetry_space_group_name_H-M "C 2/C"
_symmetry_group_IT_number 15
_symmetry_cell_setting 'monoclinic'
loop_
_space_group_symop_operation_xyz
x,y,z
-x,y,1/2-z
-x,-y,-z
x,-y,1/2+z
1/2+x,1/2+y,z
1/2-x,1/2+y,1/2-z
1/2-x,1/2-y,-z
1/2+x,1/2-y,1/2+z
loop_
_atom_site_type_symbol
_atom_site_label
_atom_site_fract_x
_atom_site_fract_y
_atom_site_fract_z
Si Si1 0.213144 0.653276 0.049983
Si Si2 0.389138 0.690784 0.149922
Si Si3 0.028884 0.606833 0.376528
Si Si4 0.278588 0.890638 0.545132
Si Si5 0.020035 0.939044 0.390173
Si Si6 0.896873 0.103265 0.446558
Si Si7 0.033296 0.344643 0.465581
Si Si8 0.000000 0.404041 0.250000
O O1 0.287166 0.670219 0.123238
O O2 0.250000 0.750000 0.000000
O O3 0.214838 0.501202 0.014081
O O4 0.113025 0.683195 0.036259
O O5 0.434252 0.535562 0.154496
O O6 0.425021 0.772884 0.092082
O O7 0.422402 0.794899 0.216212
O O8 0.131384 0.612233 0.396050
O O9 0.005165 0.773169 0.370844
O O10 0.016748 0.509134 0.439871
O O11 0.987611 0.511054 0.308718
O O12 0.250000 0.750000 0.500000
O O13 0.203687 0.912479 0.579094
O O14 0.078090 0.950763 0.472428
O O15 0.935126 0.013522 0.395558
O O16 0.947037 0.255180 0.456713
#
# Coordination Sequence:
#
# PCOD9262182 Si02
#       8
#     8   8   8   8   8   8   8   4
#     4   9  16  29  49  76 110 137 172 225 264 317
#     4   9  16  33  51  77 104 146 183 227 252 325
#     4  10  20  37  56  84 113 146 185 235 257 328
#     4  11  19  34  55  84 116 140 176 227 279 333
#     4  10  19  32  55  81 114 141 182 217 278 336
#     4  10  19  33  53  86 116 150 164 215 301 341
#     4   8  18  30  51  82 116 137 173 217 277 329
#     4  10  22  36  56  76 106 150 196 224 276 292
#
# _framework density 20.414605000000002
#
# number of rings (size 3 to 8) (size 9 to 14) (size 15 to 20)
#    0.000    2.400    2.667    0.800    1.867    1.067 
#    0.000    0.000    0.000    4.800    0.000    0.000 
#    0.000    0.000    0.000    0.000    0.000    0.000 
#
# Total GULP energy -167134.606468 kJ/mol
# GULP energy per Si atom -5571.153549 kJ/mol
# Density = 2.036814 g / cm^3
# Si number density = 20.414605 Si / 1000 Ang^3
#
#
#
# Elastic Constant Matrix: (Units=GPa)
#
#
# Indices 1 2 3 4 5 6 
#
# 1 100.4086 13.5199 21.1372 0.0000 13.8921 0.0000
# 2 13.5199 133.5463 35.8723 0.0000 11.8992 0.0000
# 3 21.1372 35.8723 62.5294 0.0000 12.5744 0.0000
# 4 0.0000 0.0000 0.0000 28.3811 0.0000 -1.4252
# 5 13.8921 11.8992 12.5744 0.0000 14.7040 0.0000
# 6 0.0000 0.0000 0.0000 -1.4252 0.0000 22.6178
#
#
#
# Elastic Compliance Matrix: (Units=1/GPa)
#
#
# Indices 1 2 3 4 5 6 
#
# 1 0.011685 0.000244 -0.002210 0.000000 -0.009347 0.000000
# 2 0.000244 0.009001 -0.004511 0.000000 -0.003657 0.000000
# 3 -0.002210 -0.004511 0.021948 0.000000 -0.013031 0.000000
# 4 0.000000 0.000000 0.000000 0.035347 0.000000 0.002227
# 5 -0.009347 -0.003657 -0.013031 0.000000 0.090942 0.000000
# 6 0.000000 0.000000 0.000000 0.002227 0.000000 0.044353
#
#
# Mechanical properties :
#
#
# Convention : Reuss Voigt Hill
#
# Bulk Modulus (GPa) = 33.69365 48.61591 41.15478
# Shear Modulus (GPa) = 21.17541 28.20424 24.68982
#
# Velocity S-wave (km/s) = 3.22416 3.72098 3.48144
# Velocity P-wave (km/s) = 5.51369 6.50591 6.03024
#
# Compressibility (1/GPa) = 0.02967918
#
# Stress axis : x y z
#
# Youngs Moduli (GPa) = 85.58014 111.10104 45.56292
#
# Poissons Ratio (x) = -0.02705 0.10069
# Poissons Ratio (y) = -0.02084 0.20552
# Poissons Ratio (z) = 0.18913 0.50114
#
# Static dielectric constant tensor:
#      x y z
#    x 1.773370 0.000000 0.054370 
#    y 0.000000 1.793000 0.000000 
#    z 0.054370 0.000000 1.712150 
# 
# From -- ./inp_files/276332.got.cif
#   From: 2010.05.17/outbox.cif.g08.bks.cpg/sg15_139_cif.got.tgz:276332.got - 2010.06.03 18:47:42.
