data_PCOD9262720
_publ_section_title
;
Structure prediction by ZEFSAII (Michael W. Deem and Ramdas Pophale) SiO2 
 PCOD9262720
Probable space group: C 2/C
;
_chemical_formula_sum "Si O2"
_cell_formula_units_Z 60
_cell_length_a 11.060995
_cell_length_b 21.638546
_cell_length_c 15.947459
_cell_angle_alpha 90.000000
_cell_angle_beta 64.908872
_cell_angle_gamma 90.000000
_cell_volume 3456.739968
_symmetry_space_group_name_H-M "C 2/C"
_symmetry_group_IT_number 15
_symmetry_cell_setting 'monoclinic'
loop_
_space_group_symop_operation_xyz
x,y,z
-x,y,1/2-z
-x,-y,-z
x,-y,1/2+z
1/2+x,1/2+y,z
1/2-x,1/2+y,1/2-z
1/2-x,1/2-y,-z
1/2+x,1/2-y,1/2+z
loop_
_atom_site_type_symbol
_atom_site_label
_atom_site_fract_x
_atom_site_fract_y
_atom_site_fract_z
Si Si1 0.905758 0.279309 0.548829
Si Si2 0.500000 0.283557 0.750000
Si Si3 0.232421 0.780679 0.266999
Si Si4 0.352958 0.472794 0.027154
Si Si5 0.337108 0.568663 0.894219
Si Si6 0.355032 0.661810 0.445860
Si Si7 0.160606 0.924445 0.296407
Si Si8 0.212200 0.702215 0.939277
O O1 0.877326 0.260866 0.653429
O O2 0.791804 0.325201 0.548640
O O3 0.883482 0.215110 0.505384
O O4 0.052296 0.303460 0.486906
O O5 0.626642 0.241091 0.735428
O O6 0.541174 0.325728 0.659516
O O7 0.205210 0.853084 0.291119
O O8 0.239833 0.773246 0.165229
O O9 0.289246 0.463155 0.138074
O O10 0.500000 0.500000 0.000000
O O11 0.291349 0.518826 0.976408
O O12 0.365064 0.405093 0.983132
O O13 0.299445 0.553468 0.808614
O O14 0.498779 0.573520 0.847610
O O15 0.279541 0.635845 0.932346
O O16 0.250000 0.750000 0.000000
#
# Coordination Sequence:
#
# PCOD9262720 Si02
#       8
#     8   4   8   8   8   8   8   8
#     4  10  20  36  56  81 112 142 182 235 284 322
#     4  10  20  32  56  88 110 140 184 238 286 332
#     4  10  19  33  55  82 110 146 186 227 282 334
#     4  10  20  33  56  77 109 150 184 232 281 331
#     4   9  20  34  50  82 105 144 192 225 276 333
#     4  10  20  35  55  83 113 139 182 237 284 326
#     4   9  17  33  53  73 109 143 183 233 269 330
#     4  11  22  34  56  82 118 151 186 230 275 346
#
# _framework density 17.357393999999999
#
# number of rings (size 3 to 8) (size 9 to 14) (size 15 to 20)
#    0.000    2.133    2.667    0.800    1.867    3.733 
#    0.000    2.000    0.000    0.000    0.000    7.467 
#    0.000    0.000    0.000    0.000    0.000    0.000 
#
# Total GULP energy -167272.206111 kJ/mol
# GULP energy per Si atom -5575.740204 kJ/mol
# Density = 1.731789 g / cm^3
# Si number density = 17.357394 Si / 1000 Ang^3
#
#
#
# Elastic Constant Matrix: (Units=GPa)
#
#
# Indices 1 2 3 4 5 6 
#
# 1 29.1570 23.8072 27.3970 0.0000 5.5115 0.0000
# 2 23.8072 82.8896 51.9037 0.0000 21.6653 0.0000
# 3 27.3970 51.9037 139.5485 0.0000 23.3243 0.0000
# 4 0.0000 0.0000 0.0000 30.9679 0.0000 7.3942
# 5 5.5115 21.6653 23.3243 0.0000 26.0370 0.0000
# 6 0.0000 0.0000 0.0000 7.3942 0.0000 23.5661
#
#
#
# Elastic Compliance Matrix: (Units=1/GPa)
#
#
# Indices 1 2 3 4 5 6 
#
# 1 0.048341 -0.011290 -0.006058 0.000000 0.004589 0.000000
# 2 -0.011290 0.020506 -0.003479 0.000000 -0.011557 0.000000
# 3 -0.006058 -0.003479 0.010527 0.000000 -0.005253 0.000000
# 4 0.000000 0.000000 0.000000 0.034907 0.000000 -0.010952
# 5 0.004589 -0.011557 -0.005253 0.000000 0.051758 0.000000
# 6 0.000000 0.000000 0.000000 -0.010952 0.000000 0.045870
#
#
# Mechanical properties :
#
#
# Convention : Reuss Voigt Hill
#
# Bulk Modulus (GPa) = 26.51136 50.86787 38.68962
# Shear Modulus (GPa) = 18.78733 26.01334 22.40033
#
# Velocity S-wave (km/s) = 3.29353 3.87549 3.59630
# Velocity P-wave (km/s) = 5.45619 7.02821 6.29149
#
# Compressibility (1/GPa) = 0.03771967
#
# Stress axis : x y z
#
# Youngs Moduli (GPa) = 20.68639 48.76631 94.99066
#
# Poissons Ratio (x) = 0.55058 0.57548
# Poissons Ratio (y) = 0.23355 0.33046
# Poissons Ratio (z) = 0.12532 0.16965
#
# Static dielectric constant tensor:
#      x y z
#    x 1.590790 0.000000 0.026380 
#    y 0.000000 1.555090 0.000000 
#    z 0.026380 0.000000 1.633750 
# 
# From -- ./inp_files/147854.got.cif
#   From: 2010.05.17/outbox.cif.g08.bks.cpg/sg15_74_cif.got.tgz:147854.got - 2010.06.03 18:47:42.
