data_PCOD9262081
_publ_section_title
;
Structure prediction by ZEFSAII (Michael W. Deem and Ramdas Pophale) SiO2 
 PCOD9262081
Probable space group: C 2/C
;
_chemical_formula_sum "Si O2"
_cell_formula_units_Z 56
_cell_length_a 8.823615
_cell_length_b 21.952120
_cell_length_c 20.673056
_cell_angle_alpha 90.000000
_cell_angle_beta 136.902432
_cell_angle_gamma 90.000000
_cell_volume 2735.915946
_symmetry_space_group_name_H-M "C 2/C"
_symmetry_group_IT_number 15
_symmetry_cell_setting 'monoclinic'
loop_
_space_group_symop_operation_xyz
x,y,z
-x,y,1/2-z
-x,-y,-z
x,-y,1/2+z
1/2+x,1/2+y,z
1/2-x,1/2+y,1/2-z
1/2-x,1/2-y,-z
1/2+x,1/2-y,1/2+z
loop_
_atom_site_type_symbol
_atom_site_label
_atom_site_fract_x
_atom_site_fract_y
_atom_site_fract_z
Si Si1 0.723008 0.039036 0.928169
Si Si2 0.949326 0.736055 0.609987
Si Si3 0.508763 0.118316 0.548690
Si Si4 0.015688 0.135352 0.332604
Si Si5 0.765875 0.649638 0.653283
Si Si6 0.632899 0.483715 0.645891
Si Si7 0.017387 0.897298 0.331817
O O1 0.524665 0.063314 0.910521
O O2 0.820430 0.101755 0.926728
O O3 0.689958 0.995127 0.856623
O O4 0.904238 0.013305 0.033217
O O5 0.750000 0.750000 0.500000
O O6 0.063655 0.799483 0.663465
O O7 0.835666 0.710806 0.639712
O O8 0.061134 0.678804 0.608265
O O9 0.274021 0.126670 0.437751
O O10 0.720575 0.103401 0.571377
O O11 0.000000 0.134757 0.250000
O O12 0.875841 0.079710 0.319365
O O13 0.602908 0.653723 0.662388
O O14 0.000000 0.622498 0.750000
O O15 0.607127 0.540767 0.685758
O O16 0.000000 0.889465 0.250000
#
# Coordination Sequence:
#
# PCOD9262081 Si02
#       7
#     8   8   8   8   8   8   8
#     4   8  16  32  51  71 100 136 179 218 255 313
#     4   9  18  35  57  78 102 142 189 226 267 326
#     4   9  19  35  55  81 105 138 185 230 272 311
#     4  10  19  32  53  79 111 146 179 217 268 334
#     4  10  19  34  57  82 104 138 186 229 276 326
#     4   9  18  32  51  77 105 141 181 218 268 326
#     4  11  21  33  54  83 114 138 175 236 281 320
#
# _framework density 20.468464000000001
#
# number of rings (size 3 to 8) (size 9 to 14) (size 15 to 20)
#    0.000    2.571    0.000    3.429    0.000    2.286 
#    0.000    5.714    0.000    5.143    0.000   48.000 
#    0.000    0.000    0.000    0.000    0.000    0.000 
#
# Total GULP energy -155986.889429 kJ/mol
# GULP energy per Si atom -5570.960337 kJ/mol
# Density = 2.042188 g / cm^3
# Si number density = 20.468464 Si / 1000 Ang^3
#
#
#
# Elastic Constant Matrix: (Units=GPa)
#
#
# Indices 1 2 3 4 5 6 
#
# 1 91.4880 21.6267 23.2180 0.0000 -13.2472 0.0000
# 2 21.6267 95.4678 17.2729 0.0000 -13.2604 0.0000
# 3 23.2180 17.2729 87.8778 0.0000 -15.7329 0.0000
# 4 0.0000 0.0000 0.0000 28.3913 0.0000 -17.1284
# 5 -13.2472 -13.2604 -15.7329 0.0000 29.4520 0.0000
# 6 0.0000 0.0000 0.0000 -17.1284 0.0000 18.3349
#
#
#
# Elastic Compliance Matrix: (Units=1/GPa)
#
#
# Indices 1 2 3 4 5 6 
#
# 1 0.012476 -0.001923 -0.002287 0.000000 0.003524 0.000000
# 2 -0.001923 0.011635 -0.001101 0.000000 0.003786 0.000000
# 3 -0.002287 -0.001101 0.013189 0.000000 0.005521 0.000000
# 4 0.000000 0.000000 0.000000 0.080710 0.000000 0.075399
# 5 0.003524 0.003786 0.005521 0.000000 0.040192 0.000000
# 6 0.000000 0.000000 0.000000 0.075399 0.000000 0.124978
#
#
# Mechanical properties :
#
#
# Convention : Reuss Voigt Hill
#
# Bulk Modulus (GPa) = 37.48588 44.34100 40.91344
# Shear Modulus (GPa) = 16.51832 29.41670 22.96751
#
# Velocity S-wave (km/s) = 2.84388 3.79512 3.35340
# Velocity P-wave (km/s) = 5.39789 6.39641 5.91825
#
# Compressibility (1/GPa) = 0.02667671
#
# Stress axis : x y z
#
# Youngs Moduli (GPa) = 80.15598 85.94476 75.82315
#
# Poissons Ratio (x) = 0.16526 0.17343
# Poissons Ratio (y) = 0.15413 0.08350
# Poissons Ratio (z) = 0.18334 0.09465
#
# Static dielectric constant tensor:
#      x y z
#    x 1.747510 0.000000 -0.000040 
#    y 0.000000 1.771900 0.000000 
#    z -0.000040 0.000000 1.742500 
# 
# From -- ./inp_files/193306.got.cif
#   From: 2010.05.17/outbox.cif.g08.bks.cpg/sg15_97_cif.got.tgz:193306.got - 2010.06.03 18:47:42.
