data_PCOD9262941
_publ_section_title
;
Structure prediction by ZEFSAII (Michael W. Deem and Ramdas Pophale) SiO2 
 PCOD9262941
Probable space group: C 2/C
;
_chemical_formula_sum "Si O2"
_cell_formula_units_Z 40
_cell_length_a 4.971699
_cell_length_b 22.429103
_cell_length_c 20.763187
_cell_angle_alpha 90.000000
_cell_angle_beta 114.783349
_cell_angle_gamma 90.000000
_cell_volume 2102.076166
_symmetry_space_group_name_H-M "C 2/C"
_symmetry_group_IT_number 15
_symmetry_cell_setting 'monoclinic'
loop_
_space_group_symop_operation_xyz
x,y,z
-x,y,1/2-z
-x,-y,-z
x,-y,1/2+z
1/2+x,1/2+y,z
1/2-x,1/2+y,1/2-z
1/2-x,1/2-y,-z
1/2+x,1/2-y,1/2+z
loop_
_atom_site_type_symbol
_atom_site_label
_atom_site_fract_x
_atom_site_fract_y
_atom_site_fract_z
Si Si1 0.679116 0.260573 0.096713
Si Si2 0.122032 0.057424 0.931787
Si Si3 0.875149 0.809526 0.936934
Si Si4 0.829523 0.138174 0.798314
Si Si5 0.725987 0.574339 0.474094
O O1 0.470974 0.204164 0.092724
O O2 0.703959 0.304590 0.158817
O O3 0.987500 0.238462 0.098708
O O4 0.516713 0.294792 0.021288
O O5 0.013022 0.089684 0.857229
O O6 0.190219 0.987224 0.931763
O O7 0.424680 0.088327 0.988011
O O8 0.874020 0.062008 0.962245
O O9 0.007352 0.873233 0.930370
O O10 0.500000 0.115751 0.750000
O O11 0.000000 0.152661 0.750000
#
# Coordination Sequence:
#
# PCOD9262941 Si02
#       5
#     8   8   8   8   8
#     4  10  21  33  53  85 110 145 187 221 289 329
#     4  10  21  35  55  85 112 145 190 223 295 329
#     4  10  19  33  58  82 115 136 175 250 284 328
#     4  12  24  38  57  78 119 156 188 225 264 353
#     4  10  19  35  59  84 115 137 176 255 285 331
#
# _framework density 19.028804999999998
#
# number of rings (size 3 to 8) (size 9 to 14) (size 15 to 20)
#    0.000    1.600    2.000    3.600    5.600    0.000 
#    0.000    0.000    0.000    7.200    0.000    0.000 
#    0.000    0.000    0.000    0.000    0.000    0.000 
#
# Total GULP energy -111689.440054 kJ/mol
# GULP energy per Si atom -5584.472003 kJ/mol
# Density = 1.898549 g / cm^3
# Si number density = 19.028805 Si / 1000 Ang^3
#
#
#
# Elastic Constant Matrix: (Units=GPa)
#
#
# Indices 1 2 3 4 5 6 
#
# 1 77.1763 1.2910 16.6588 0.0000 -6.7142 0.0000
# 2 1.2910 81.6256 34.8348 0.0000 4.0863 0.0000
# 3 16.6588 34.8348 83.0808 0.0000 -15.9274 0.0000
# 4 0.0000 0.0000 0.0000 9.0625 0.0000 1.3990
# 5 -6.7142 4.0863 -15.9274 0.0000 29.4543 0.0000
# 6 0.0000 0.0000 0.0000 1.3990 0.0000 27.9908
#
#
#
# Elastic Compliance Matrix: (Units=1/GPa)
#
#
# Indices 1 2 3 4 5 6 
#
# 1 0.013684 0.000930 -0.002857 0.000000 0.001445 0.000000
# 2 0.000930 0.016030 -0.008137 0.000000 -0.006412 0.000000
# 3 -0.002857 -0.008137 0.017976 0.000000 0.010198 0.000000
# 4 0.000000 0.000000 0.000000 0.111203 0.000000 -0.005558
# 5 0.001445 -0.006412 0.010198 0.000000 0.040685 0.000000
# 6 0.000000 0.000000 0.000000 -0.005558 0.000000 0.036004
#
#
# Mechanical properties :
#
#
# Convention : Reuss Voigt Hill
#
# Bulk Modulus (GPa) = 36.27991 38.60576 37.44284
# Shear Modulus (GPa) = 18.87532 25.90806 22.39169
#
# Velocity S-wave (km/s) = 3.15292 3.69388 3.43407
# Velocity P-wave (km/s) = 5.68873 6.20686 5.95343
#
# Compressibility (1/GPa) = 0.02756346
#
# Stress axis : x y z
#
# Youngs Moduli (GPa) = 73.07702 62.38356 55.62934
#
# Poissons Ratio (x) = -0.05804 0.15893
# Poissons Ratio (y) = -0.06799 0.45265
# Poissons Ratio (z) = 0.20877 0.50761
#
# Static dielectric constant tensor:
#      x y z
#    x 1.661910 0.000000 0.000700 
#    y 0.000000 1.705320 0.000000 
#    z 0.000700 0.000000 1.617240 
# 
# From -- ./inp_files/129108.got.cif
#   From: 2010.05.17/outbox.cif.g08.bks.cpg/sg15_65_cif.got.tgz:129108.got - 2010.06.03 18:47:42.
