data_PCOD9262808
_publ_section_title
;
Structure prediction by ZEFSAII (Michael W. Deem and Ramdas Pophale) SiO2 
 PCOD9262808
Probable space group: C 2/C
;
_chemical_formula_sum "Si O2"
_cell_formula_units_Z 44
_cell_length_a 16.587794
_cell_length_b 6.900382
_cell_length_c 18.174532
_cell_angle_alpha 90.000000
_cell_angle_beta 61.644494
_cell_angle_gamma 90.000000
_cell_volume 1830.696671
_symmetry_space_group_name_H-M "C 2/C"
_symmetry_group_IT_number 15
_symmetry_cell_setting 'monoclinic'
loop_
_space_group_symop_operation_xyz
x,y,z
-x,y,1/2-z
-x,-y,-z
x,-y,1/2+z
1/2+x,1/2+y,z
1/2-x,1/2+y,1/2-z
1/2-x,1/2-y,-z
1/2+x,1/2-y,1/2+z
loop_
_atom_site_type_symbol
_atom_site_label
_atom_site_fract_x
_atom_site_fract_y
_atom_site_fract_z
Si Si1 0.902068 0.231656 0.058123
Si Si2 0.500000 0.630506 0.250000
Si Si3 0.927061 0.926082 0.930261
Si Si4 0.709754 0.794377 0.693042
Si Si5 0.332691 0.853016 0.367226
Si Si6 0.196609 0.415104 0.859693
O O1 0.819593 0.164126 0.147694
O O2 0.998945 0.175398 0.049308
O O3 0.881110 0.460865 0.065701
O O4 0.889094 0.112716 0.988564
O O5 0.520382 0.513278 0.167508
O O6 0.413128 0.773328 0.278901
O O7 0.858206 0.760144 0.930467
O O8 0.669588 0.917285 0.643037
O O9 0.670094 0.863171 0.787808
O O10 0.716154 0.564942 0.678353
O O11 0.235693 0.773675 0.380992
#
# Coordination Sequence:
#
# PCOD9262808 Si02
#       6
#     8   4   8   8   8   8
#     4   9  20  34  58  80 107 147 185 206 285 314
#     4   8  18  32  58  76 106 148 164 222 280 300
#     4   9  18  35  58  79 111 147 170 231 265 327
#     4  10  19  33  56  84 103 146 180 220 263 326
#     4  10  19  35  58  78 110 140 181 221 270 311
#     4  10  19  33  56  84 103 146 180 220 263 326
#
# _framework density 24.034566999999999
#
# number of rings (size 3 to 8) (size 9 to 14) (size 15 to 20)
#    2.182    0.364    1.818    2.182    0.000    1.455 
#    0.000    0.909    4.000    2.182    0.000    0.000 
#    0.000    0.000    0.000    0.000    0.000    0.000 
#
# Total GULP energy -122568.298273 kJ/mol
# GULP energy per Si atom -5571.286285 kJ/mol
# Density = 2.397986 g / cm^3
# Si number density = 24.034567 Si / 1000 Ang^3
#
#
#
# Elastic Constant Matrix: (Units=GPa)
#
#
# Indices 1 2 3 4 5 6 
#
# 1 57.7122 6.8656 -5.2219 0.0000 6.5948 0.0004
# 2 6.8656 81.9755 13.9379 0.0000 8.8439 0.0013
# 3 -5.2219 13.9379 78.0983 0.0000 6.5754 0.0000
# 4 0.0000 0.0000 0.0000 24.4911 0.0000 3.3311
# 5 6.5948 8.8439 6.5754 0.0000 30.5001 0.0000
# 6 0.0004 0.0013 0.0000 3.3311 0.0000 15.0077
#
#
#
# Elastic Compliance Matrix: (Units=1/GPa)
#
#
# Indices 1 2 3 4 5 6 
#
# 1 0.018101 -0.001400 0.001788 0.000000 -0.003893 0.000000
# 2 -0.001400 0.013008 -0.002162 0.000000 -0.003003 -0.000001
# 3 0.001788 -0.002162 0.013535 0.000000 -0.002678 0.000000
# 4 0.000000 0.000000 0.000000 0.042102 0.000000 -0.009345
# 5 -0.003893 -0.003003 -0.002678 0.000000 0.035077 0.000000
# 6 0.000000 -0.000001 0.000000 -0.009345 0.000000 0.068707
#
#
# Mechanical properties :
#
#
# Convention : Reuss Voigt Hill
#
# Bulk Modulus (GPa) = 24.33390 27.66102 25.99746
# Shear Modulus (GPa) = 24.06439 27.48006 25.77223
#
# Velocity S-wave (km/s) = 3.16767 3.38502 3.27815
# Velocity P-wave (km/s) = 4.85030 5.17800 5.01682
#
# Compressibility (1/GPa) = 0.04109494
#
# Stress axis : x y z
#
# Youngs Moduli (GPa) = 55.24696 76.87809 73.88119
#
# Poissons Ratio (x) = 0.10762 -0.13209
# Poissons Ratio (y) = 0.07734 0.15975
# Poissons Ratio (z) = -0.09878 0.16623
#
# Static dielectric constant tensor:
#      x y z
#    x 1.924060 0.000000 -0.040050 
#    y 0.000000 1.922410 0.000000 
#    z -0.040050 0.000000 1.976900 
# 
# From -- ./inp_files/251208.got.cif
#   From: 2010.05.17/outbox.cif.g08.bks.cpg/sg15_126_cif.got.tgz:251208.got - 2010.06.03 18:47:42.
