data_PCOD9262234
_publ_section_title
;
Structure prediction by ZEFSAII (Michael W. Deem and Ramdas Pophale) SiO2 
 PCOD9262234
Probable space group: C 2/C
;
_chemical_formula_sum "Si O2"
_cell_formula_units_Z 56
_cell_length_a 20.244276
_cell_length_b 24.117285
_cell_length_c 5.424137
_cell_angle_alpha 90.000000
_cell_angle_beta 71.028847
_cell_angle_gamma 90.000000
_cell_volume 2504.416801
_symmetry_space_group_name_H-M "C 2/C"
_symmetry_group_IT_number 15
_symmetry_cell_setting 'monoclinic'
loop_
_space_group_symop_operation_xyz
x,y,z
-x,y,1/2-z
-x,-y,-z
x,-y,1/2+z
1/2+x,1/2+y,z
1/2-x,1/2+y,1/2-z
1/2-x,1/2-y,-z
1/2+x,1/2-y,1/2+z
loop_
_atom_site_type_symbol
_atom_site_label
_atom_site_fract_x
_atom_site_fract_y
_atom_site_fract_z
Si Si1 0.878726 0.028550 0.835596
Si Si2 0.378442 0.126645 0.416653
Si Si3 0.427311 0.765120 0.702228
Si Si4 0.399323 0.148462 0.890673
Si Si5 0.760982 0.816490 0.955052
Si Si6 0.345978 0.655142 0.848098
Si Si7 0.788538 0.526440 0.465234
O O1 0.882052 0.095057 0.823290
O O2 0.794536 0.019251 0.940753
O O3 0.906094 0.998967 0.554582
O O4 0.370118 0.193533 0.400071
O O5 0.421084 0.120723 0.613328
O O6 0.310826 0.088952 0.493991
O O7 0.416450 0.114523 0.114379
O O8 0.500000 0.774756 0.750000
O O9 0.426671 0.790163 0.426641
O O10 0.403435 0.703115 0.753682
O O11 0.315299 0.155128 0.969977
O O12 0.802146 0.831720 0.652131
O O13 0.750000 0.750000 0.000000
O O14 0.801505 0.838604 0.148243
O O15 0.815540 0.508405 0.165208
#
# Coordination Sequence:
#
# PCOD9262234 Si02
#       7
#     8   8   8   8   8   8   8
#     4  10  21  37  55  84 120 156 192 242 299 356
#     4  10  20  37  56  86 117 155 194 241 292 340
#     4  10  25  42  60  86 118 160 204 244 295 350
#     4  10  20  34  57  83 118 152 182 239 295 359
#     4  12  20  34  55  92 127 147 188 235 303 366
#     4  12  24  37  62  88 123 164 193 247 300 372
#     4  10  19  32  56  83 117 154 191 231 286 357
#
# _framework density 22.360493999999999
#
# number of rings (size 3 to 8) (size 9 to 14) (size 15 to 20)
#    0.857    0.571    1.429    5.571    0.000    2.857 
#    0.000    0.000    0.000    1.714    0.000    0.000 
#    0.000    0.000    0.000    0.000    0.000    0.000 
#
# Total GULP energy -156170.167443 kJ/mol
# GULP energy per Si atom -5577.505980 kJ/mol
# Density = 2.230960 g / cm^3
# Si number density = 22.360494 Si / 1000 Ang^3
#
#
#
# Elastic Constant Matrix: (Units=GPa)
#
#
# Indices 1 2 3 4 5 6 
#
# 1 44.1232 -2.9668 17.2956 0.0000 11.9991 0.0000
# 2 -2.9668 71.0481 6.8371 0.0000 8.4006 0.0000
# 3 17.2956 6.8371 138.6560 0.0000 31.0335 0.0000
# 4 0.0000 0.0000 0.0000 27.9921 0.0000 16.3292
# 5 11.9991 8.4006 31.0335 0.0000 16.6730 0.0000
# 6 0.0000 0.0000 0.0000 16.3292 0.0000 -16.6197
#
#
#
# Elastic Compliance Matrix: (Units=1/GPa)
#
#
# Indices 1 2 3 4 5 6 
#
# 1 0.029598 0.004297 0.002311 0.000000 -0.027767 0.000000
# 2 0.004297 0.015808 0.001987 0.000000 -0.014755 0.000000
# 3 0.002311 0.001987 0.012722 0.000000 -0.026344 0.000000
# 4 0.000000 0.000000 0.000000 0.022709 0.000000 0.022312
# 5 -0.027767 -0.014755 -0.026344 0.000000 0.136429 0.000000
# 6 0.000000 0.000000 0.000000 0.022312 0.000000 -0.038248
#
#
# Mechanical properties :
#
#
# Convention : Reuss Voigt Hill
#
# Bulk Modulus (GPa) = 13.27717 32.90656 23.09187
# Shear Modulus (GPa) = 26.74738 21.11984 23.93361
#
# Velocity S-wave (km/s) = 3.46235 3.07663 3.27517
# Velocity P-wave (km/s) = 4.68343 5.23156 4.96506
#
# Compressibility (1/GPa) = 0.07531725
#
# Stress axis : x y z
#
# Youngs Moduli (GPa) = 33.78600 63.25976 78.60362
#
# Poissons Ratio (x) = -0.27181 -0.18164
# Poissons Ratio (y) = -0.14517 -0.15619
# Poissons Ratio (z) = -0.07808 -0.12570
#
# Static dielectric constant tensor:
#      x y z
#    x 1.597760 0.000000 -0.095140 
#    y 0.000000 1.825070 0.000000 
#    z -0.095140 0.000000 1.920300 
# 
# From -- ./inp_files/13720.got.cif
#   From: 2010.05.17/outbox.cif.g08.bks.cpg/sg15_7_cif.got.tgz:13720.got - 2010.06.03 18:47:42.
