data_PCOD9262838
_publ_section_title
;
Structure prediction by ZEFSAII (Michael W. Deem and Ramdas Pophale) SiO2 
 PCOD9262838
Probable space group: C 2/C
;
_chemical_formula_sum "Si O2"
_cell_formula_units_Z 48
_cell_length_a 14.491926
_cell_length_b 7.514429
_cell_length_c 24.254827
_cell_angle_alpha 90.000000
_cell_angle_beta 43.393786
_cell_angle_gamma 90.000000
_cell_volume 1814.606722
_symmetry_space_group_name_H-M "C 2/C"
_symmetry_group_IT_number 15
_symmetry_cell_setting 'monoclinic'
loop_
_space_group_symop_operation_xyz
x,y,z
-x,y,1/2-z
-x,-y,-z
x,-y,1/2+z
1/2+x,1/2+y,z
1/2-x,1/2+y,1/2-z
1/2-x,1/2-y,-z
1/2+x,1/2-y,1/2+z
loop_
_atom_site_type_symbol
_atom_site_label
_atom_site_fract_x
_atom_site_fract_y
_atom_site_fract_z
Si Si1 0.995275 0.430559 0.419938
Si Si2 0.214186 0.667256 0.268248
Si Si3 0.129873 0.070853 0.402202
Si Si4 0.470967 0.364048 0.325757
Si Si5 0.003708 0.733294 0.688929
Si Si6 0.103607 0.791828 0.020871
O O1 0.128892 0.540225 0.344976
O O2 0.036612 0.245162 0.429357
O O3 0.932495 0.377143 0.388152
O O4 0.908116 0.581324 0.487203
O O5 0.256387 0.575954 0.192726
O O6 0.115483 0.822802 0.290440
O O7 0.351224 0.725941 0.236884
O O8 0.189439 0.106814 0.436906
O O9 0.036737 0.898711 0.433576
O O10 0.500000 0.298114 0.250000
O O11 0.432588 0.570650 0.334735
O O12 0.380791 0.307663 0.419369
O O13 0.000000 0.646611 0.750000
#
# Coordination Sequence:
#
# PCOD9262838 Si02
#       6
#     8   8   8   8   8   8
#     4  10  20  32  58  84 115 147 200 233 281 340
#     4  10  20  36  59  89 114 151 200 241 287 341
#     4  10  20  35  55  85 117 152 186 239 291 346
#     4  10  20  37  60  85 116 154 195 243 287 340
#     4  10  19  33  56  86 117 146 187 244 292 332
#     4  10  20  35  56  84 116 152 190 234 295 341
#
# _framework density 26.452014999999999
#
# number of rings (size 3 to 8) (size 9 to 14) (size 15 to 20)
#    0.000    2.000    3.333    2.500    4.667    2.667 
#    0.000    0.833    0.000    0.000    0.000   26.833 
#    0.000    0.000    0.000    0.000    0.000    0.000 
#
# Total GULP energy -133900.792683 kJ/mol
# GULP energy per Si atom -5579.199695 kJ/mol
# Density = 2.639181 g / cm^3
# Si number density = 26.452015 Si / 1000 Ang^3
#
#
#
# Elastic Constant Matrix: (Units=GPa)
#
#
# Indices 1 2 3 4 5 6 
#
# 1 78.3359 8.2256 30.5498 0.0015 32.8913 0.0015
# 2 8.2256 142.0859 9.9060 -0.0039 12.9156 -0.0042
# 3 30.5498 9.9060 138.3437 -0.0004 45.5075 -0.0003
# 4 0.0015 -0.0039 -0.0004-1185.4449 -0.0019-1268.9672
# 5 32.8913 12.9156 45.5075 -0.0019 45.1150 -0.0019
# 6 0.0015 -0.0042 -0.0003-1268.9672 -0.0019-1293.9757
#
#
#
# Elastic Compliance Matrix: (Units=1/GPa)
#
#
# Indices 1 2 3 4 5 6 
#
# 1 0.018426 0.000170 0.000530 0.000000 -0.014017 0.000000
# 2 0.000170 0.007233 0.000249 0.000000 -0.002446 0.000000
# 3 0.000530 0.000249 0.010841 0.000000 -0.011393 0.000000
# 4 0.000000 0.000000 0.000000 0.016950 0.000000 -0.016622
# 5 -0.014017 -0.002446 -0.011393 0.000000 0.044577 0.000000
# 6 0.000000 0.000000 0.000000 -0.016622 0.000000 0.015528
#
#
# Mechanical properties :
#
#
# Convention : Reuss Voigt Hill
#
# Bulk Modulus (GPa) = 26.04230 50.68092 38.36161
# Shear Modulus (GPa) = 40.17436 -466.18884 -213.00724
#
# Velocity S-wave (km/s) = 3.90136 -13.28992 -8.98336
# Velocity P-wave (km/s) = 5.49187 14.70697 9.64713
#
# Compressibility (1/GPa) = 0.03839907
#
# Stress axis : x y z
#
# Youngs Moduli (GPa) = 54.26989 138.25284 92.24016
#
# Poissons Ratio (x) = -0.02357 -0.04884
# Poissons Ratio (y) = -0.00925 -0.02298
# Poissons Ratio (z) = -0.02874 -0.03444
#
# Static dielectric constant tensor:
#      x y z
#    x 2.144950 0.000000 -0.000330 
#    y 0.000000 2.116630 0.000000 
#    z -0.000330 0.000000 2.227820 
# 
# From -- ./inp_files/276025.got.cif
#   From: 2010.05.17/outbox.cif.g08.bks.cpg/sg15_139_cif.got.tgz:276025.got - 2010.06.03 18:47:42.
