data_PCOD9262570
_publ_section_title
;
Structure prediction by ZEFSAII (Michael W. Deem and Ramdas Pophale) SiO2 
 PCOD9262570
Probable space group: C 2/C
;
_chemical_formula_sum "Si O2"
_cell_formula_units_Z 52
_cell_length_a 17.615736
_cell_length_b 22.946790
_cell_length_c 19.812865
_cell_angle_alpha 90.000000
_cell_angle_beta 157.090456
_cell_angle_gamma 90.000000
_cell_volume 3117.663187
_symmetry_space_group_name_H-M "C 2/C"
_symmetry_group_IT_number 15
_symmetry_cell_setting 'monoclinic'
loop_
_space_group_symop_operation_xyz
x,y,z
-x,y,1/2-z
-x,-y,-z
x,-y,1/2+z
1/2+x,1/2+y,z
1/2-x,1/2+y,1/2-z
1/2-x,1/2-y,-z
1/2+x,1/2-y,1/2+z
loop_
_atom_site_type_symbol
_atom_site_label
_atom_site_fract_x
_atom_site_fract_y
_atom_site_fract_z
Si Si1 0.274813 0.616089 0.433013
Si Si2 0.500000 0.018749 0.250000
Si Si3 0.539757 0.431131 0.031208
Si Si4 0.949047 0.790582 0.280264
Si Si5 0.178051 0.416576 0.659959
Si Si6 0.508136 0.823786 0.904135
Si Si7 0.958219 0.470505 0.363211
O O1 0.442112 0.596830 0.517106
O O2 0.377864 0.664384 0.562668
O O3 0.093348 0.641392 0.240965
O O4 0.189631 0.560528 0.401605
O O5 0.501244 0.983385 0.320695
O O6 0.770640 0.428172 0.215760
O O7 0.500000 0.500000 0.000000
O O8 0.407330 0.409028 0.861300
O O9 0.945477 0.742601 0.336424
O O10 0.000000 0.761479 0.250000
O O11 0.741193 0.821792 0.101380
O O12 0.074587 0.357077 0.598287
O O13 0.126884 0.440712 0.544877
O O14 0.096748 0.467715 0.644667
#
# Coordination Sequence:
#
# PCOD9262570 Si02
#       7
#     8   4   8   8   8   8   8
#     4  11  22  36  50  73 111 141 180 213 257 303
#     4  12  20  34  54  80 108 140 176 224 254 312
#     4   9  16  35  52  67  95 142 173 212 257 308
#     4  12  24  32  49  71 107 145 178 215 257 299
#     4   9  19  34  53  68  98 137 175 214 253 310
#     4  11  21  36  50  70  98 142 182 214 247 297
#     4  10  19  33  54  73 101 132 179 213 263 308
#
# _framework density 16.679158999999999
#
# number of rings (size 3 to 8) (size 9 to 14) (size 15 to 20)
#    0.000    1.538    6.154    2.308    1.077    0.000 
#    0.000    0.769    0.000    0.000    0.000    0.000 
#    0.000    4.923    0.000    1.231    0.000    0.000 
#
# Total GULP energy -144896.232330 kJ/mol
# GULP energy per Si atom -5572.932013 kJ/mol
# Density = 1.664120 g / cm^3
# Si number density = 16.679159 Si / 1000 Ang^3
#
#
#
# Elastic Constant Matrix: (Units=GPa)
#
#
# Indices 1 2 3 4 5 6 
#
# 1 87.5896 35.0104 31.8000 0.0041 -11.8541 -0.0044
# 2 35.0104 52.4917 23.4870 0.0036 -4.5550 0.0045
# 3 31.8000 23.4870 75.5626 -0.0227 0.7769 0.0093
# 4 0.0041 0.0036 -0.0227 22.5786 0.0036 4.8148
# 5 -11.8541 -4.5550 0.7769 0.0036 16.0606 0.0018
# 6 -0.0044 0.0045 0.0093 4.8148 0.0018 20.3209
#
#
#
# Elastic Compliance Matrix: (Units=1/GPa)
#
#
# Indices 1 2 3 4 5 6 
#
# 1 0.018378 -0.009024 -0.005045 -0.000011 0.011249 0.000010
# 2 -0.009024 0.027284 -0.004696 -0.000007 0.001305 -0.000004
# 3 -0.005045 -0.004696 0.016877 0.000022 -0.005872 -0.000013
# 4 -0.000011 -0.000007 0.000022 0.046647 -0.000020 -0.011052
# 5 0.011249 0.001305 -0.005872 -0.000020 0.071221 0.000003
# 6 0.000010 -0.000004 -0.000013 -0.011052 0.000003 0.051829
#
#
# Mechanical properties :
#
#
# Convention : Reuss Voigt Hill
#
# Bulk Modulus (GPa) = 39.98633 44.02652 42.00642
# Shear Modulus (GPa) = 17.97894 20.14845 19.06369
#
# Velocity S-wave (km/s) = 3.28674 3.47940 3.38444
# Velocity P-wave (km/s) = 6.19915 6.52649 6.36492
#
# Compressibility (1/GPa) = 0.02500855
#
# Stress axis : x y z
#
# Youngs Moduli (GPa) = 54.41319 36.65155 59.25102
#
# Poissons Ratio (x) = 0.33074 0.29892
# Poissons Ratio (y) = 0.49103 0.27826
# Poissons Ratio (z) = 0.27451 0.17213
#
# Static dielectric constant tensor:
#      x y z
#    x 1.586450 0.000000 -0.008570 
#    y 0.000000 1.571600 -0.000030 
#    z -0.008570 -0.000030 1.608230 
# 
# From -- ./inp_files/216843.got.cif
#   From: 2010.05.17/outbox.cif.g08.bks.cpg/sg15_109_cif.got.tgz:216843.got - 2010.06.03 18:47:42.
