data_PCOD9262974
_publ_section_title
;
Structure prediction by ZEFSAII (Michael W. Deem and Ramdas Pophale) SiO2 
 PCOD9262974
Probable space group: C 2/C
;
_chemical_formula_sum "Si O2"
_cell_formula_units_Z 44
_cell_length_a 16.389586
_cell_length_b 22.690335
_cell_length_c 14.164614
_cell_angle_alpha 90.000000
_cell_angle_beta 26.806631
_cell_angle_gamma 90.000000
_cell_volume 2375.591298
_symmetry_space_group_name_H-M "C 2/C"
_symmetry_group_IT_number 15
_symmetry_cell_setting 'monoclinic'
loop_
_space_group_symop_operation_xyz
x,y,z
-x,y,1/2-z
-x,-y,-z
x,-y,1/2+z
1/2+x,1/2+y,z
1/2-x,1/2+y,1/2-z
1/2-x,1/2-y,-z
1/2+x,1/2-y,1/2+z
loop_
_atom_site_type_symbol
_atom_site_label
_atom_site_fract_x
_atom_site_fract_y
_atom_site_fract_z
Si Si1 0.000000 0.962587 0.250000
Si Si2 0.733111 0.623021 0.843644
Si Si3 0.455937 0.434434 0.502292
Si Si4 0.648152 0.863942 0.929828
Si Si5 0.362497 0.744290 0.460383
Si Si6 0.697577 0.950733 0.048563
O O1 0.928925 0.931494 0.417456
O O2 0.845003 0.003422 0.364764
O O3 0.735220 0.571062 0.919354
O O4 0.943876 0.630438 0.605449
O O5 0.623106 0.604628 0.866105
O O6 0.644897 0.679311 0.987300
O O7 0.500000 0.500000 0.500000
O O8 0.283738 0.402182 0.727380
O O9 0.666326 0.795116 0.933023
O O10 0.673412 0.893981 0.007141
O O11 0.116943 0.747451 0.677438
O O12 0.500000 0.979064 0.250000
#
# Coordination Sequence:
#
# PCOD9262974 Si02
#       6
#     4   8   8   8   8   8
#     4  12  24  42  58  86 120 166 208 260 302 352
#     4  11  23  37  59  96 132 162 198 244 312 384
#     4  12  25  40  63  86 124 166 210 263 306 366
#     4  11  22  38  57  94 129 163 199 244 312 379
#     4  12  20  34  61  96 133 163 191 243 317 382
#     4  10  19  33  58  89 127 155 194 244 299 375
#
# _framework density 18.521705000000001
#
# number of rings (size 3 to 8) (size 9 to 14) (size 15 to 20)
#    0.000    0.727    7.273    1.636    1.273    2.182 
#    0.000    0.000    0.000    1.091    0.000    0.000 
#    0.000    0.000    0.000    0.000    0.000    0.000 
#
# Total GULP energy -122481.146214 kJ/mol
# GULP energy per Si atom -5567.324828 kJ/mol
# Density = 1.847955 g / cm^3
# Si number density = 18.521705 Si / 1000 Ang^3
#
#
#
# Elastic Constant Matrix: (Units=GPa)
#
#
# Indices 1 2 3 4 5 6 
#
# 1 79.3776 22.0257 27.9943 -0.0132 2.6901 0.0119
# 2 22.0257 66.4067 40.1402 -0.0004 1.7826 0.0267
# 3 27.9943 40.1402 98.6421 -0.0298 3.0854 0.1589
# 4 -0.0132 -0.0004 -0.0298 34.7222 0.0360 -3.2433
# 5 2.6901 1.7826 3.0854 0.0360 25.7322 -0.1138
# 6 0.0119 0.0267 0.1589 -3.2433 -0.1138 48.6070
#
#
#
# Elastic Compliance Matrix: (Units=1/GPa)
#
#
# Indices 1 2 3 4 5 6 
#
# 1 0.014480 -0.003065 -0.002832 0.000005 -0.000962 0.000005
# 2 -0.003065 0.020624 -0.007516 -0.000006 -0.000207 0.000013
# 3 -0.002832 -0.007516 0.014027 0.000008 -0.000865 -0.000043
# 4 0.000005 -0.000006 0.000008 0.028981 -0.000033 0.001934
# 5 -0.000962 -0.000207 -0.000865 -0.000033 0.039081 0.000092
# 6 0.000005 0.000013 -0.000043 0.001934 0.000092 0.020703
#
#
# Mechanical properties :
#
#
# Convention : Reuss Voigt Hill
#
# Bulk Modulus (GPa) = 44.83391 47.19409 46.01400
# Shear Modulus (GPa) = 29.04333 32.09669 30.57001
#
# Velocity S-wave (km/s) = 3.96418 4.16736 4.06704
# Velocity P-wave (km/s) = 6.72396 6.97793 6.85212
#
# Compressibility (1/GPa) = 0.02230455
#
# Stress axis : x y z
#
# Youngs Moduli (GPa) = 69.06143 48.48685 71.29067
#
# Poissons Ratio (x) = 0.14861 0.20190
# Poissons Ratio (y) = 0.21167 0.53584
# Poissons Ratio (z) = 0.19558 0.36444
#
# Static dielectric constant tensor:
#      x y z
#    x 1.327580 0.000040 0.556740 
#    y 0.000040 1.614230 -0.000080 
#    z 0.556740 -0.000080 0.486860 
# 
# From -- ./inp_files/156585.got.cif
#   From: 2010.05.17/outbox.cif.g08.bks.cpg/sg15_79_cif.got.tgz:156585.got - 2010.06.03 18:47:42.
