data_PCOD9262969
_publ_section_title
;
Structure prediction by ZEFSAII (Michael W. Deem and Ramdas Pophale) SiO2 
 PCOD9262969
Probable space group: C 2/C
;
_chemical_formula_sum "Si O2"
_cell_formula_units_Z 56
_cell_length_a 9.466771
_cell_length_b 18.613587
_cell_length_c 14.585339
_cell_angle_alpha 90.000000
_cell_angle_beta 65.982067
_cell_angle_gamma 90.000000
_cell_volume 2347.567509
_symmetry_space_group_name_H-M "C 2/C"
_symmetry_group_IT_number 15
_symmetry_cell_setting 'monoclinic'
loop_
_space_group_symop_operation_xyz
x,y,z
-x,y,1/2-z
-x,-y,-z
x,-y,1/2+z
1/2+x,1/2+y,z
1/2-x,1/2+y,1/2-z
1/2-x,1/2-y,-z
1/2+x,1/2-y,1/2+z
loop_
_atom_site_type_symbol
_atom_site_label
_atom_site_fract_x
_atom_site_fract_y
_atom_site_fract_z
Si Si1 0.419938 0.148197 0.582066
Si Si2 0.062831 0.806620 0.977695
Si Si3 0.166315 0.254863 0.218715
Si Si4 0.660834 0.502191 0.359473
Si Si5 0.177345 0.362898 0.727155
Si Si6 0.861487 0.927572 0.430055
Si Si7 0.753248 0.632348 0.945345
O O1 0.437524 0.221096 0.517511
O O2 0.361117 0.184721 0.694132
O O3 0.296895 0.089292 0.579821
O O4 0.591863 0.114514 0.540522
O O5 0.216775 0.827256 0.880862
O O6 0.070826 0.846960 0.072838
O O7 0.915264 0.847690 0.969618
O O8 0.293036 0.195362 0.203248
O O9 0.205260 0.294221 0.115724
O O10 0.000000 0.218342 0.250000
O O11 0.755013 0.557835 0.273745
O O12 0.495918 0.480207 0.359945
O O13 0.655131 0.540344 0.462194
O O14 0.736280 0.427542 0.370774
O O15 0.000000 0.368952 0.750000
#
# Coordination Sequence:
#
# PCOD9262969 Si02
#       7
#     8   8   8   8   8   8   8
#     4  10  19  33  58  89 116 152 199 239 289 358
#     4   9  19  36  57  85 116 148 192 248 296 341
#     4   9  21  39  56  82 119 153 191 246 301 354
#     4   9  20  37  54  79 116 151 185 244 304 345
#     4  10  21  38  59  81 110 152 202 247 296 358
#     4   9  18  35  58  83 113 148 191 239 290 353
#     4  10  20  36  59  84 121 160 192 240 301 354
#
# _framework density 23.854478
#
# number of rings (size 3 to 8) (size 9 to 14) (size 15 to 20)
#    0.000    2.571    0.000    1.714    0.000    9.143 
#    0.000    2.857    0.000    0.000    0.000    0.000 
#    0.000    0.000    0.000    0.000    0.000    0.000 
#
# Total GULP energy -156059.210461 kJ/mol
# GULP energy per Si atom -5573.543231 kJ/mol
# Density = 2.380018 g / cm^3
# Si number density = 23.854478 Si / 1000 Ang^3
#
#
#
# Elastic Constant Matrix: (Units=GPa)
#
#
# Indices 1 2 3 4 5 6 
#
# 1 189.4672 52.9232 34.9400 0.0000 -43.6253 0.0000
# 2 52.9232 75.8091 14.2335 0.0000 -21.3131 0.0000
# 3 34.9400 14.2335 51.7225 0.0000 -14.9332 0.0000
# 4 0.0000 0.0000 0.0000 297.8662 0.0000 398.0668
# 5 -43.6253 -21.3131 -14.9332 0.0000 33.1057 0.0000
# 6 0.0000 0.0000 0.0000 398.0668 0.0000 616.9278
#
#
#
# Elastic Compliance Matrix: (Units=1/GPa)
#
#
# Indices 1 2 3 4 5 6 
#
# 1 0.008474 -0.003200 -0.002546 0.000000 0.007957 0.000000
# 2 -0.003200 0.017439 -0.000705 0.000000 0.006692 0.000000
# 3 -0.002546 -0.000705 0.023165 0.000000 0.006640 0.000000
# 4 0.000000 0.000000 0.000000 0.024380 0.000000 -0.015731
# 5 0.007957 0.006692 0.006640 0.000000 0.047996 0.000000
# 6 0.000000 0.000000 0.000000 -0.015731 0.000000 0.011771
#
#
# Mechanical properties :
#
#
# Convention : Reuss Voigt Hill
#
# Bulk Modulus (GPa) = 27.64365 57.91025 42.77695
# Shear Modulus (GPa) = 31.60850 203.90674 117.75762
#
# Velocity S-wave (km/s) = 3.64408 9.25554 7.03365
# Velocity P-wave (km/s) = 5.41474 11.77069 9.16157
#
# Compressibility (1/GPa) = 0.03617467
#
# Stress axis : x y z
#
# Youngs Moduli (GPa) = 118.01326 57.34303 43.16851
#
# Poissons Ratio (x) = 0.18352 0.10991
# Poissons Ratio (y) = 0.37768 0.03044
# Poissons Ratio (z) = 0.30046 0.04043
#
# Static dielectric constant tensor:
#      x y z
#    x 2.034320 0.000000 0.013230 
#    y 0.000000 1.954910 0.000000 
#    z 0.013230 0.000000 2.049610 
# 
# From -- ./inp_files/192022.got.cif
#   From: 2010.05.17/outbox.cif.g08.bks.cpg/sg15_97_cif.got.tgz:192022.got - 2010.06.03 18:47:42.
