data_PCOD9262484
_publ_section_title
;
Structure prediction by ZEFSAII (Michael W. Deem and Ramdas Pophale) SiO2 
 PCOD9262484
Probable space group: C 2/C
;
_chemical_formula_sum "Si O2"
_cell_formula_units_Z 48
_cell_length_a 28.513913
_cell_length_b 9.719025
_cell_length_c 13.967081
_cell_angle_alpha 90.000000
_cell_angle_beta 141.121737
_cell_angle_gamma 90.000000
_cell_volume 2429.489316
_symmetry_space_group_name_H-M "C 2/C"
_symmetry_group_IT_number 15
_symmetry_cell_setting 'monoclinic'
loop_
_space_group_symop_operation_xyz
x,y,z
-x,y,1/2-z
-x,-y,-z
x,-y,1/2+z
1/2+x,1/2+y,z
1/2-x,1/2+y,1/2-z
1/2-x,1/2-y,-z
1/2+x,1/2-y,1/2+z
loop_
_atom_site_type_symbol
_atom_site_label
_atom_site_fract_x
_atom_site_fract_y
_atom_site_fract_z
Si Si1 0.079722 0.795795 0.838464
Si Si2 0.707774 0.788141 0.083516
Si Si3 0.241397 0.220450 0.629151
Si Si4 0.257008 0.548353 0.498035
Si Si5 0.880605 0.087884 0.294408
Si Si6 0.573892 0.407485 0.424423
O O1 0.077198 0.828925 0.721567
O O2 0.000000 0.742976 0.750000
O O3 0.157909 0.720164 0.982735
O O4 0.905874 0.943260 0.586658
O O5 0.749035 0.829743 0.246532
O O6 0.703342 0.910648 0.000094
O O7 0.749867 0.667092 0.092149
O O8 0.632285 0.712444 0.994637
O O9 0.252058 0.095377 0.571387
O O10 0.306999 0.328102 0.712098
O O11 0.340553 0.542188 0.678952
O O12 0.929741 0.070022 0.467059
O O13 0.500000 0.369649 0.250000
#
# Coordination Sequence:
#
# PCOD9262484 Si02
#       6
#     8   8   8   8   8   8
#     4  10  19  33  52  83 111 137 183 229 281 325
#     4  10  20  34  56  80 111 144 184 231 267 330
#     4  10  20  36  58  81 113 146 181 231 276 322
#     4  10  19  34  54  84 105 138 196 222 269 324
#     4  10  20  36  57  80 112 149 182 226 276 326
#     4  10  20  34  53  80 116 145 176 227 288 325
#
# _framework density 19.757238999999998
#
# number of rings (size 3 to 8) (size 9 to 14) (size 15 to 20)
#    0.000    2.000    3.333    3.000    2.333    2.667 
#    6.000    0.000    0.000    8.000    0.000    0.000 
#    0.000    0.000    0.000    0.000    0.000    0.000 
#
# Total GULP energy -133743.201156 kJ/mol
# GULP energy per Si atom -5572.633381 kJ/mol
# Density = 1.971227 g / cm^3
# Si number density = 19.757239 Si / 1000 Ang^3
#
#
#
# Elastic Constant Matrix: (Units=GPa)
#
#
# Indices 1 2 3 4 5 6 
#
# 1 121.7727 7.3653 49.3719 0.0000 -26.4821 0.0000
# 2 7.3653 40.7801 18.2491 0.0000 -2.5934 0.0000
# 3 49.3719 18.2491 99.5147 0.0000 -25.7675 0.0000
# 4 0.0000 0.0000 0.0000 20.2604 0.0000 -0.1279
# 5 -26.4821 -2.5934 -25.7675 0.0000 45.3140 0.0000
# 6 0.0000 0.0000 0.0000 -0.1279 0.0000 28.6437
#
#
#
# Elastic Compliance Matrix: (Units=1/GPa)
#
#
# Indices 1 2 3 4 5 6 
#
# 1 0.010823 0.000271 -0.004429 0.000000 0.003822 0.000000
# 2 0.000271 0.026805 -0.005408 0.000000 -0.001383 0.000000
# 3 -0.004429 -0.005408 0.014644 0.000000 0.005429 0.000000
# 4 0.000000 0.000000 0.000000 0.049359 0.000000 0.000220
# 5 0.003822 -0.001383 0.005429 0.000000 0.027310 0.000000
# 6 0.000000 0.000000 0.000000 0.000220 0.000000 0.034913
#
#
# Mechanical properties :
#
#
# Convention : Reuss Voigt Hill
#
# Bulk Modulus (GPa) = 30.17699 45.78223 37.97961
# Shear Modulus (GPa) = 25.76898 31.31572 28.54235
#
# Velocity S-wave (km/s) = 3.61540 3.98556 3.80498
# Velocity P-wave (km/s) = 5.72147 6.66350 6.21037
#
# Compressibility (1/GPa) = 0.03313783
#
# Stress axis : x y z
#
# Youngs Moduli (GPa) = 92.39884 37.30654 68.28838
#
# Poissons Ratio (x) = -0.01009 0.30248
# Poissons Ratio (y) = -0.02500 0.36929
# Poissons Ratio (z) = 0.40928 0.20175
#
# Static dielectric constant tensor:
#      x y z
#    x 1.757820 0.000000 0.008310 
#    y 0.000000 1.731780 0.000000 
#    z 0.008310 0.000000 1.741250 
# 
# From -- ./inp_files/178196.got.cif
#   From: 2010.05.17/outbox.cif.g08.bks.cpg/sg15_90_cif.got.tgz:178196.got - 2010.06.03 18:47:42.
