data_PCOD9262021
_publ_section_title
;
Structure prediction by ZEFSAII (Michael W. Deem and Ramdas Pophale) SiO2 
 PCOD9262021
Probable space group: C 2/C
;
_chemical_formula_sum "Si O2"
_cell_formula_units_Z 48
_cell_length_a 18.061807
_cell_length_b 8.342193
_cell_length_c 26.498945
_cell_angle_alpha 90.000000
_cell_angle_beta 143.603981
_cell_angle_gamma 90.000000
_cell_volume 2369.138480
_symmetry_space_group_name_H-M "C 2/C"
_symmetry_group_IT_number 15
_symmetry_cell_setting 'monoclinic'
loop_
_space_group_symop_operation_xyz
x,y,z
-x,y,1/2-z
-x,-y,-z
x,-y,1/2+z
1/2+x,1/2+y,z
1/2-x,1/2+y,1/2-z
1/2-x,1/2-y,-z
1/2+x,1/2-y,1/2+z
loop_
_atom_site_type_symbol
_atom_site_label
_atom_site_fract_x
_atom_site_fract_y
_atom_site_fract_z
Si Si1 0.300517 0.173907 0.976196
Si Si2 0.864408 0.858861 0.910897
Si Si3 0.789339 0.889727 0.237909
Si Si4 0.144324 0.072367 0.324996
Si Si5 0.364309 0.284606 0.432736
Si Si6 0.074153 0.615962 0.132298
O O1 0.346388 0.303992 0.959414
O O2 0.195635 0.067731 0.890305
O O3 0.250000 0.250000 0.000000
O O4 0.428676 0.077499 0.059128
O O5 0.776658 0.747931 0.830617
O O6 0.835396 0.045344 0.891410
O O7 0.005212 0.824653 0.968775
O O8 0.891793 0.788719 0.324674
O O9 0.843427 0.012632 0.226440
O O10 0.676833 0.984037 0.204234
O O11 0.239355 0.217577 0.388561
O O12 0.000000 0.112902 0.250000
O O13 0.402728 0.145047 0.414567
#
# Coordination Sequence:
#
# PCOD9262021 Si02
#       6
#     8   8   8   8   8   8
#     4  10  20  35  53  75 105 141 175 210 257 311
#     4   9  18  34  55  75  99 131 173 215 261 308
#     4  10  19  32  52  78 104 137 172 215 259 305
#     4  10  20  35  53  75 107 141 174 212 258 308
#     4   9  18  34  54  76 100 132 171 218 261 304
#     4  10  19  32  53  79 106 135 174 215 256 305
#
# _framework density 20.260531
#
# number of rings (size 3 to 8) (size 9 to 14) (size 15 to 20)
#    0.000    2.333    0.000    3.000    0.000    4.000 
#    0.000    9.167    0.000    0.000    0.000    0.000 
#    0.000    0.000    0.000    0.000    0.000    0.000 
#
# Total GULP energy -133657.692359 kJ/mol
# GULP energy per Si atom -5569.070515 kJ/mol
# Density = 2.021442 g / cm^3
# Si number density = 20.260531 Si / 1000 Ang^3
#
#
#
# Elastic Constant Matrix: (Units=GPa)
#
#
# Indices 1 2 3 4 5 6 
#
# 1 58.2288 -0.3230 50.3149 0.0000 20.2872 0.0000
# 2 -0.3230 32.6052 24.9365 0.0000 11.0307 0.0000
# 3 50.3149 24.9365 80.3270 0.0000 22.4585 0.0000
# 4 0.0000 0.0000 0.0000 18.5817 0.0000 13.9208
# 5 20.2872 11.0307 22.4585 0.0000 35.6076 0.0000
# 6 0.0000 0.0000 0.0000 13.9208 0.0000 13.0617
#
#
#
# Elastic Compliance Matrix: (Units=1/GPa)
#
#
# Indices 1 2 3 4 5 6 
#
# 1 0.072594 0.050194 -0.054807 0.000000 -0.022341 0.000000
# 2 0.050194 0.075854 -0.049077 0.000000 -0.021142 0.000000
# 3 -0.054807 -0.049077 0.059531 0.000000 0.008882 0.000000
# 4 0.000000 0.000000 0.000000 0.267003 0.000000 -0.284564
# 5 -0.022341 -0.021142 0.008882 0.000000 0.041760 0.000000
# 6 0.000000 0.000000 0.000000 -0.284564 0.000000 0.379839
#
#
# Mechanical properties :
#
#
# Convention : Reuss Voigt Hill
#
# Bulk Modulus (GPa) = 9.94048 35.66865 22.80456
# Shear Modulus (GPa) = 4.81931 19.86571 12.34251
#
# Velocity S-wave (km/s) = 1.54397 3.13471 2.47085
# Velocity P-wave (km/s) = 2.84524 5.54483 4.40684
#
# Compressibility (1/GPa) = 0.10059880
#
# Stress axis : x y z
#
# Youngs Moduli (GPa) = 13.77530 13.18321 16.79803
#
# Poissons Ratio (x) = -0.66171 0.92064
# Poissons Ratio (y) = -0.69143 0.82440
# Poissons Ratio (z) = 0.75498 0.64699
#
# Static dielectric constant tensor:
#      x y z
#    x 1.756760 0.000000 -0.014320 
#    y 0.000000 1.734200 0.000000 
#    z -0.014320 0.000000 1.767070 
# 
# From -- ./inp_files/176962.got.cif
#   From: 2010.05.17/outbox.cif.g08.bks.cpg/sg15_89_cif.got.tgz:176962.got - 2010.06.03 18:47:42.
