data_PCOD9262088
_publ_section_title
;
Structure prediction by ZEFSAII (Michael W. Deem and Ramdas Pophale) SiO2 
 PCOD9262088
Probable space group: C 2/C
;
_chemical_formula_sum "Si O2"
_cell_formula_units_Z 60
_cell_length_a 16.521682
_cell_length_b 15.796804
_cell_length_c 11.427455
_cell_angle_alpha 90.000000
_cell_angle_beta 102.661621
_cell_angle_gamma 90.000000
_cell_volume 2909.920454
_symmetry_space_group_name_H-M "C 2/C"
_symmetry_group_IT_number 15
_symmetry_cell_setting 'monoclinic'
loop_
_space_group_symop_operation_xyz
x,y,z
-x,y,1/2-z
-x,-y,-z
x,-y,1/2+z
1/2+x,1/2+y,z
1/2-x,1/2+y,1/2-z
1/2-x,1/2-y,-z
1/2+x,1/2-y,1/2+z
loop_
_atom_site_type_symbol
_atom_site_label
_atom_site_fract_x
_atom_site_fract_y
_atom_site_fract_z
Si Si1 0.790806 0.823806 0.759322
Si Si2 0.552216 0.271782 0.542161
Si Si3 0.314760 0.132098 0.685312
Si Si4 0.500000 0.825495 0.250000
Si Si5 0.829958 0.089367 0.689213
Si Si6 0.552015 0.423985 0.072404
Si Si7 0.294300 0.438183 0.539855
Si Si8 0.330771 0.773938 0.601688
O O1 0.871561 0.818962 0.867737
O O2 0.793065 0.732496 0.693127
O O3 0.796905 0.896781 0.667469
O O4 0.707407 0.832915 0.810231
O O5 0.499348 0.230650 0.630550
O O6 0.502139 0.339470 0.450742
O O7 0.596797 0.205621 0.467368
O O8 0.413226 0.125194 0.732057
O O9 0.255528 0.089662 0.763859
O O10 0.286780 0.091276 0.554548
O O11 0.853242 0.185865 0.671039
O O12 0.810794 0.037124 0.566523
O O13 0.906152 0.053873 0.790182
O O14 0.630144 0.405309 0.013908
O O15 0.500000 0.500000 0.000000
O O16 0.250000 0.750000 0.500000
#
# Coordination Sequence:
#
# PCOD9262088 Si02
#       8
#     8   8   8   4   8   8   8   8
#     4   9  18  34  56  80 107 145 189 227 267 323
#     4  10  19  32  53  80 109 144 180 222 272 325
#     4   9  20  37  56  78 105 140 182 232 279 319
#     4  10  20  38  60  80 102 134 186 240 280 318
#     4  10  22  37  53  80 116 150 181 220 271 330
#     4  11  22  33  50  82 121 152 176 212 271 340
#     4  11  21  35  56  80 110 148 187 224 270 331
#     4   9  19  35  54  76 106 146 186 225 272 320
#
# _framework density 20.619121
#
# number of rings (size 3 to 8) (size 9 to 14) (size 15 to 20)
#    0.000    2.133    0.000    4.400    0.000    8.533 
#    0.000    0.667    0.000    0.000    0.000    0.000 
#    0.000    0.000    0.000    0.000    0.000    0.000 
#
# Total GULP energy -167359.212386 kJ/mol
# GULP energy per Si atom -5578.640413 kJ/mol
# Density = 2.057219 g / cm^3
# Si number density = 20.619121 Si / 1000 Ang^3
#
#
#
# Elastic Constant Matrix: (Units=GPa)
#
#
# Indices 1 2 3 4 5 6 
#
# 1 103.9550 6.4923 27.3212 0.0000 -1.7382 0.0000
# 2 6.4923 17.4789 11.7964 0.0000 15.3564 0.0000
# 3 27.3212 11.7964 67.8152 0.0000 8.4437 0.0000
# 4 0.0000 0.0000 0.0000 35.6976 0.0000 2.1140
# 5 -1.7382 15.3564 8.4437 0.0000 37.9343 0.0000
# 6 0.0000 0.0000 0.0000 2.1140 0.0000 22.9978
#
#
#
# Elastic Compliance Matrix: (Units=1/GPa)
#
#
# Indices 1 2 3 4 5 6 
#
# 1 0.011000 -0.003964 -0.004119 0.000000 0.003026 0.000000
# 2 -0.003964 0.099490 -0.010976 0.000000 -0.038014 0.000000
# 3 -0.004119 -0.010976 0.018292 0.000000 0.000183 0.000000
# 4 0.000000 0.000000 0.000000 0.028166 0.000000 -0.002589
# 5 0.003026 -0.038014 0.000183 0.000000 0.041848 0.000000
# 6 0.000000 0.000000 0.000000 -0.002589 0.000000 0.043720
#
#
# Mechanical properties :
#
#
# Convention : Reuss Voigt Hill
#
# Bulk Modulus (GPa) = 11.02980 31.16322 21.09651
# Shear Modulus (GPa) = 16.08460 28.90187 22.49324
#
# Velocity S-wave (km/s) = 2.79602 3.74799 3.30645
# Velocity P-wave (km/s) = 3.97298 5.82035 4.98303
#
# Compressibility (1/GPa) = 0.09066346
#
# Stress axis : x y z
#
# Youngs Moduli (GPa) = 90.90706 10.05127 54.66914
#
# Poissons Ratio (x) = 0.03985 0.22518
# Poissons Ratio (y) = 0.36039 0.60005
# Poissons Ratio (z) = 0.37444 0.11032
#
# Static dielectric constant tensor:
#      x y z
#    x 1.762670 0.000000 -0.029200 
#    y 0.000000 1.695290 0.000000 
#    z -0.029200 0.000000 1.842010 
# 
# From -- ./inp_files/98367.got.cif
#   From: 2010.05.17/outbox.cif.g08.bks.cpg/sg15_50_cif.got.tgz:98367.got - 2010.06.03 18:47:42.
