data_PCOD9262648
_publ_section_title
;
Structure prediction by ZEFSAII (Michael W. Deem and Ramdas Pophale) SiO2 
 PCOD9262648
Probable space group: C 2/C
;
_chemical_formula_sum "Si O2"
_cell_formula_units_Z 60
_cell_length_a 32.865384
_cell_length_b 15.230503
_cell_length_c 15.647745
_cell_angle_alpha 90.000000
_cell_angle_beta 21.919889
_cell_angle_gamma 90.000000
_cell_volume 2923.978355
_symmetry_space_group_name_H-M "C 2/C"
_symmetry_group_IT_number 15
_symmetry_cell_setting 'monoclinic'
loop_
_space_group_symop_operation_xyz
x,y,z
-x,y,1/2-z
-x,-y,-z
x,-y,1/2+z
1/2+x,1/2+y,z
1/2-x,1/2+y,1/2-z
1/2-x,1/2-y,-z
1/2+x,1/2-y,1/2+z
loop_
_atom_site_type_symbol
_atom_site_label
_atom_site_fract_x
_atom_site_fract_y
_atom_site_fract_z
Si Si1 0.723031 0.338572 0.503227
Si Si2 0.351332 0.020058 0.862678
Si Si3 0.593552 0.100691 0.387110
Si Si4 0.491259 0.423796 0.949692
Si Si5 0.310962 0.716567 0.797686
Si Si6 0.367347 0.914363 0.507765
Si Si7 0.000000 0.093120 0.250000
Si Si8 0.711692 0.283986 0.342630
O O1 0.750000 0.250000 0.500000
O O2 0.775219 0.418132 0.454114
O O3 0.593815 0.357711 0.754704
O O4 0.765352 0.324331 0.323277
O O5 0.470896 0.065206 0.626154
O O6 0.326247 0.021529 0.012599
O O7 0.358418 0.929230 0.797455
O O8 0.601780 0.204149 0.387345
O O9 0.657329 0.061116 0.345494
O O10 0.497990 0.461105 0.840502
O O11 0.500000 0.500000 0.000000
O O12 0.379509 0.370946 0.178825
O O13 0.241155 0.711984 0.845773
O O14 0.250000 0.750000 0.000000
O O15 0.500000 0.909621 0.250000
O O16 0.319336 0.817934 0.580379
O O17 0.897305 0.157984 0.453753
#
# Coordination Sequence:
#
# PCOD9262648 Si02
#       8
#     8   8   8   8   8   8   4   8
#     4  11  20  33  59  87 113 140 187 246 294 328
#     4  10  19  33  54  84 111 137 178 239 291 324
#     4   9  20  35  54  80 109 146 187 226 279 344
#     4  10  22  38  59  88 115 147 194 243 287 337
#     4  10  21  38  60  76 112 157 194 222 280 355
#     4   9  15  29  54  77 104 139 183 231 267 325
#     4   8  16  34  58  80 108 150 190 238 272 342
#     4   9  16  31  54  83 102 143 196 231 271 330
#
# _framework density 20.519988999999999
#
# number of rings (size 3 to 8) (size 9 to 14) (size 15 to 20)
#    0.000    2.400    2.000    0.800    5.600    0.000 
#    2.400    2.667    0.000    1.600    0.000    0.000 
#    0.000    0.000    0.000    0.000    0.000    0.000 
#
# Total GULP energy -167202.822664 kJ/mol
# GULP energy per Si atom -5573.427422 kJ/mol
# Density = 2.047328 g / cm^3
# Si number density = 20.519989 Si / 1000 Ang^3
#
#
#
# Elastic Constant Matrix: (Units=GPa)
#
#
# Indices 1 2 3 4 5 6 
#
# 1 156.2614 21.9909 37.5100 0.0000 33.9149 0.0000
# 2 21.9909 44.8399 1.5824 0.0000 9.5049 0.0000
# 3 37.5100 1.5824 38.6114 0.0000 18.0532 0.0000
# 4 0.0000 0.0000 0.0000 16.0432 0.0000 5.1566
# 5 33.9149 9.5049 18.0532 0.0000 34.4219 0.0000
# 6 0.0000 0.0000 0.0000 5.1566 0.0000 34.4231
#
#
#
# Elastic Compliance Matrix: (Units=1/GPa)
#
#
# Indices 1 2 3 4 5 6 
#
# 1 0.009600 -0.003427 -0.006897 0.000000 -0.004895 0.000000
# 2 -0.003427 0.025137 0.005254 0.000000 -0.006320 0.000000
# 3 -0.006897 0.005254 0.039594 0.000000 -0.015422 0.000000
# 4 0.000000 0.000000 0.000000 0.065485 0.000000 -0.009810
# 5 -0.004895 -0.006320 -0.015422 0.000000 0.043707 0.000000
# 6 0.000000 0.000000 0.000000 -0.009810 0.000000 0.030520
#
#
# Mechanical properties :
#
#
# Convention : Reuss Voigt Hill
#
# Bulk Modulus (GPa) = 15.57842 40.20880 27.89361
# Shear Modulus (GPa) = 20.36001 28.88624 24.62313
#
# Velocity S-wave (km/s) = 3.15334 3.75602 3.46780
# Velocity P-wave (km/s) = 4.56798 6.20062 5.44583
#
# Compressibility (1/GPa) = 0.06419135
#
# Stress axis : x y z
#
# Youngs Moduli (GPa) = 104.16913 39.78265 25.25606
#
# Poissons Ratio (x) = 0.13634 0.17419
# Poissons Ratio (y) = 0.35699 -0.13270
# Poissons Ratio (z) = 0.71844 -0.20902
#
# Static dielectric constant tensor:
#      x y z
#    x 1.800010 0.000000 0.054470 
#    y 0.000000 1.731850 0.000000 
#    z 0.054470 0.000000 1.774310 
# 
# From -- ./inp_files/182314.got.cif
#   From: 2010.05.17/outbox.cif.g08.bks.cpg/sg15_92_cif.got.tgz:182314.got - 2010.06.03 18:47:42.
