data_PCOD9262445
_publ_section_title
;
Structure prediction by ZEFSAII (Michael W. Deem and Ramdas Pophale) SiO2 
 PCOD9262445
Probable space group: C 2/C
;
_chemical_formula_sum "Si O2"
_cell_formula_units_Z 56
_cell_length_a 26.310727
_cell_length_b 10.556500
_cell_length_c 8.445003
_cell_angle_alpha 90.000000
_cell_angle_beta 113.745858
_cell_angle_gamma 90.000000
_cell_volume 2147.016246
_symmetry_space_group_name_H-M "C 2/C"
_symmetry_group_IT_number 15
_symmetry_cell_setting 'monoclinic'
loop_
_space_group_symop_operation_xyz
x,y,z
-x,y,1/2-z
-x,-y,-z
x,-y,1/2+z
1/2+x,1/2+y,z
1/2-x,1/2+y,1/2-z
1/2-x,1/2-y,-z
1/2+x,1/2-y,1/2+z
loop_
_atom_site_type_symbol
_atom_site_label
_atom_site_fract_x
_atom_site_fract_y
_atom_site_fract_z
Si Si1 0.817927 0.348268 0.942735
Si Si2 0.827659 0.944391 0.210958
Si Si3 0.440032 0.249172 0.100185
Si Si4 0.172327 0.326782 0.905662
Si Si5 0.441355 0.800488 0.234451
Si Si6 0.594285 0.454783 0.924960
Si Si7 0.261749 0.101961 0.695917
O O1 0.818538 0.388430 0.757501
O O2 0.780524 0.221274 0.880503
O O3 0.883003 0.341213 0.078824
O O4 0.789349 0.413870 0.059595
O O5 0.808021 0.820075 0.094214
O O6 0.882709 0.909060 0.378446
O O7 0.781489 0.994947 0.272807
O O8 0.852176 0.044936 0.122944
O O9 0.500000 0.232040 0.250000
O O10 0.393373 0.181481 0.146334
O O11 0.426680 0.401501 0.083072
O O12 0.436896 0.195950 0.918282
O O13 0.196594 0.367701 0.106654
O O14 0.500000 0.859305 0.250000
O O15 0.444209 0.651037 0.194077
#
# Coordination Sequence:
#
# PCOD9262445 Si02
#       7
#     8   8   8   8   8   8   8
#     4  10  19  33  52  74  94 127 178 225 273 312
#     4  10  20  33  49  71  99 131 179 222 266 308
#     4  11  23  34  48  69 105 147 189 223 253 306
#     4  10  19  35  52  74  95 129 183 226 272 317
#     4  12  22  33  50  70 104 145 187 221 261 305
#     4  11  21  34  47  68 102 144 186 218 252 306
#     4  10  19  34  55  73  95 127 180 232 271 320
#
# _framework density 26.082708
#
# number of rings (size 3 to 8) (size 9 to 14) (size 15 to 20)
#    0.000    1.429    5.714    3.000    2.000    1.143 
#    2.571    0.000    0.000    0.000    0.000    0.000 
#    0.000    0.000    0.000    3.857    1.429    0.000 
#
# Total GULP energy -156435.714497 kJ/mol
# GULP energy per Si atom -5586.989803 kJ/mol
# Density = 2.602334 g / cm^3
# Si number density = 26.082708 Si / 1000 Ang^3
#
#
#
# Elastic Constant Matrix: (Units=GPa)
#
#
# Indices 1 2 3 4 5 6 
#
# 1 162.2772 23.5238 95.7799 0.0000 0.8607 0.0000
# 2 23.5238 31.6245 45.4097 0.0000 -13.9061 0.0000
# 3 95.7799 45.4097 222.0185 0.0000 -23.2043 0.0000
# 4 0.0000 0.0000 0.0000 55.0764 0.0000 -2.5130
# 5 0.8607 -13.9061 -23.2043 0.0000 42.2862 0.0000
# 6 0.0000 0.0000 0.0000 -2.5130 0.0000 6.5739
#
#
#
# Elastic Compliance Matrix: (Units=1/GPa)
#
#
# Indices 1 2 3 4 5 6 
#
# 1 0.008625 -0.002742 -0.003472 0.000000 -0.002982 0.000000
# 2 -0.002742 0.050299 -0.007819 0.000000 0.012306 0.000000
# 3 -0.003472 -0.007819 0.007786 0.000000 0.001772 0.000000
# 4 0.000000 0.000000 0.000000 0.018479 0.000000 0.007064
# 5 -0.002982 0.012306 0.001772 0.000000 0.028729 0.000000
# 6 0.000000 0.000000 0.000000 0.007064 0.000000 0.154818
#
#
# Mechanical properties :
#
#
# Convention : Reuss Voigt Hill
#
# Bulk Modulus (GPa) = 25.87628 82.81632 54.34630
# Shear Modulus (GPa) = 16.14564 37.53442 26.84003
#
# Velocity S-wave (km/s) = 2.49070 3.79760 3.21134
# Velocity P-wave (km/s) = 4.26777 7.14489 5.88486
#
# Compressibility (1/GPa) = 0.03864544
#
# Stress axis : x y z
#
# Youngs Moduli (GPa) = 115.94762 19.88118 128.43339
#
# Poissons Ratio (x) = 0.05451 0.44587
# Poissons Ratio (y) = 0.31792 1.00417
# Poissons Ratio (z) = 0.40252 0.15544
#
# Static dielectric constant tensor:
#      x y z
#    x 2.081720 0.000000 0.041950 
#    y 0.000000 2.158450 0.000000 
#    z 0.041950 0.000000 2.044780 
# 
# From -- ./inp_files/66288.got.cif
#   From: 2010.05.17/outbox.cif.g08.bks.cpg/sg15_34_cif.got.tgz:66288.got - 2010.06.03 18:47:42.
