data_PCOD9262766
_publ_section_title
;
Structure prediction by ZEFSAII (Michael W. Deem and Ramdas Pophale) SiO2 
 PCOD9262766
Probable space group: C 2/C
;
_chemical_formula_sum "Si O2"
_cell_formula_units_Z 40
_cell_length_a 5.081528
_cell_length_b 18.482075
_cell_length_c 20.046436
_cell_angle_alpha 90.000000
_cell_angle_beta 104.580055
_cell_angle_gamma 90.000000
_cell_volume 1822.075763
_symmetry_space_group_name_H-M "C 2/C"
_symmetry_group_IT_number 15
_symmetry_cell_setting 'monoclinic'
loop_
_space_group_symop_operation_xyz
x,y,z
-x,y,1/2-z
-x,-y,-z
x,-y,1/2+z
1/2+x,1/2+y,z
1/2-x,1/2+y,1/2-z
1/2-x,1/2-y,-z
1/2+x,1/2-y,1/2+z
loop_
_atom_site_type_symbol
_atom_site_label
_atom_site_fract_x
_atom_site_fract_y
_atom_site_fract_z
Si Si1 0.296947 0.112576 0.006146
Si Si2 0.499769 0.610158 0.323026
Si Si3 0.814586 0.273987 0.928253
Si Si4 0.030779 0.525674 0.359246
Si Si5 0.708017 0.119156 0.910247
O O1 0.391949 0.186478 0.050250
O O2 0.392258 0.047988 0.059899
O O3 0.462199 0.117534 0.947778
O O4 0.984010 0.102851 0.968700
O O5 0.500000 0.644872 0.250000
O O6 0.619206 0.665071 0.385280
O O7 0.210499 0.579538 0.326161
O O8 0.714981 0.543843 0.331909
O O9 0.769834 0.199198 0.886280
O O10 0.750000 0.250000 0.000000
O O11 0.130518 0.444321 0.354756
#
# Coordination Sequence:
#
# PCOD9262766 Si02
#       5
#     8   8   8   8   8
#     4  10  19  33  55  89 123 153 181 229 297 362
#     4  11  24  42  59  79 114 162 203 240 298 368
#     4   9  20  37  60  89 120 152 192 243 298 356
#     4  11  21  37  59  83 113 153 196 240 286 349
#     4  11  20  33  57  90 119 146 187 244 294 341
#
# _framework density 21.952981000000001
#
# number of rings (size 3 to 8) (size 9 to 14) (size 15 to 20)
#    0.000    1.600    0.000    7.200    0.000    4.800 
#    0.000    2.000    0.000    0.000    0.000    0.000 
#    0.000    0.000    0.000    0.000    0.000    0.000 
#
# Total GULP energy -111691.840639 kJ/mol
# GULP energy per Si atom -5584.592032 kJ/mol
# Density = 2.190302 g / cm^3
# Si number density = 21.952981 Si / 1000 Ang^3
#
#
#
# Elastic Constant Matrix: (Units=GPa)
#
#
# Indices 1 2 3 4 5 6 
#
# 1 78.9714 1.7903 18.4042 0.0000 6.3937 0.0000
# 2 1.7903 110.0185 11.9901 0.0000 8.8526 0.0000
# 3 18.4042 11.9901 55.4846 0.0000 -5.4266 0.0000
# 4 0.0000 0.0000 0.0000 8.7621 0.0000 0.0644
# 5 6.3937 8.8526 -5.4266 0.0000 26.7900 0.0000
# 6 0.0000 0.0000 0.0000 0.0644 0.0000 24.9871
#
#
#
# Elastic Compliance Matrix: (Units=1/GPa)
#
#
# Indices 1 2 3 4 5 6 
#
# 1 0.014278 0.000733 -0.005357 0.000000 -0.004735 0.000000
# 2 0.000733 0.009690 -0.002721 0.000000 -0.003928 0.000000
# 3 -0.005357 -0.002721 0.021017 0.000000 0.006435 0.000000
# 4 0.000000 0.000000 0.000000 0.114130 0.000000 -0.000294
# 5 -0.004735 -0.003928 0.006435 0.000000 0.041059 0.000000
# 6 0.000000 0.000000 0.000000 -0.000294 0.000000 0.040021
#
#
# Mechanical properties :
#
#
# Convention : Reuss Voigt Hill
#
# Bulk Modulus (GPa) = 33.01033 34.31596 33.66315
# Shear Modulus (GPa) = 18.86894 26.26051 22.56473
#
# Velocity S-wave (km/s) = 2.93493 3.46239 3.20951
# Velocity P-wave (km/s) = 5.15311 5.62581 5.39464
#
# Compressibility (1/GPa) = 0.03029355
#
# Stress axis : x y z
#
# Youngs Moduli (GPa) = 70.03742 103.19828 47.57942
#
# Poissons Ratio (x) = -0.07559 0.25490
# Poissons Ratio (y) = -0.05130 0.12947
# Poissons Ratio (z) = 0.37522 0.28082
#
# Static dielectric constant tensor:
#      x y z
#    x 1.776030 0.000000 -0.015000 
#    y 0.000000 1.902730 0.000000 
#    z -0.015000 0.000000 1.838470 
# 
# From -- ./inp_files/226727.got.cif
#   From: 2010.05.17/outbox.cif.g08.bks.cpg/sg15_114_cif.got.tgz:226727.got - 2010.06.03 18:47:42.
