data_PCOD9262282
_publ_section_title
;
Structure prediction by ZEFSAII (Michael W. Deem and Ramdas Pophale) SiO2 
 PCOD9262282
Probable space group: C 2/C
;
_chemical_formula_sum "Si O2"
_cell_formula_units_Z 64
_cell_length_a 6.813345
_cell_length_b 22.227004
_cell_length_c 23.827231
_cell_angle_alpha 90.000000
_cell_angle_beta 75.067322
_cell_angle_gamma 90.000000
_cell_volume 3486.543375
_symmetry_space_group_name_H-M "C 2/C"
_symmetry_group_IT_number 15
_symmetry_cell_setting 'monoclinic'
loop_
_space_group_symop_operation_xyz
x,y,z
-x,y,1/2-z
-x,-y,-z
x,-y,1/2+z
1/2+x,1/2+y,z
1/2-x,1/2+y,1/2-z
1/2-x,1/2-y,-z
1/2+x,1/2-y,1/2+z
loop_
_atom_site_type_symbol
_atom_site_label
_atom_site_fract_x
_atom_site_fract_y
_atom_site_fract_z
Si Si1 0.313896 0.737932 0.618131
Si Si2 0.957366 0.174080 0.189532
Si Si3 0.141343 0.226805 0.689518
Si Si4 0.925617 0.080828 0.409806
Si Si5 0.558685 0.166975 0.476349
Si Si6 0.004743 0.351743 0.388066
Si Si7 0.144149 0.522750 0.912427
Si Si8 0.721248 0.066241 0.030473
O O1 0.140288 0.781356 0.656864
O O2 0.501036 0.736749 0.646167
O O3 0.385216 0.769368 0.555082
O O4 0.211152 0.672636 0.618487
O O5 0.959181 0.121015 0.144318
O O6 0.000000 0.154594 0.250000
O O7 0.750921 0.212146 0.201436
O O8 0.321060 0.182722 0.658371
O O9 0.000000 0.203572 0.750000
O O10 0.748871 0.121703 0.451575
O O11 0.076864 0.061089 0.448082
O O12 0.817976 0.025478 0.385556
O O13 0.503628 0.168569 0.545843
O O14 0.373433 0.133336 0.458200
O O15 0.064899 0.421589 0.381865
O O16 0.945420 0.482104 0.937441
O O17 0.231103 0.552131 0.963588
#
# Coordination Sequence:
#
# PCOD9262282 Si02
#       8
#     8   8   8   8   8   8   8   8
#     4  10  20  35  56  78 110 141 177 229 274 329
#     4  10  20  37  57  81 106 133 181 242 276 326
#     4  11  22  37  58  79 100 146 191 219 277 334
#     4  10  19  32  58  82 108 146 180 223 284 330
#     4   9  19  34  51  85 115 136 176 227 281 327
#     4  10  22  34  52  79 113 147 180 223 267 329
#     4   9  19  34  49  79 114 145 182 219 265 332
#     4   9  17  32  55  78 113 148 179 219 268 337
#
# _framework density 18.356287999999999
#
# number of rings (size 3 to 8) (size 9 to 14) (size 15 to 20)
#    0.000    2.250    1.250    2.250    0.000    3.500 
#    0.000    0.625    0.000    1.500    0.000    0.000 
#    0.000    0.000    0.000    0.000    0.000    0.000 
#
# Total GULP energy -178375.894255 kJ/mol
# GULP energy per Si atom -5574.246695 kJ/mol
# Density = 1.831451 g / cm^3
# Si number density = 18.356288 Si / 1000 Ang^3
#
#
#
# Elastic Constant Matrix: (Units=GPa)
#
#
# Indices 1 2 3 4 5 6 
#
# 1 59.6068 17.2341 3.0753 0.0000 10.4672 0.0000
# 2 17.2341 68.9372 13.4970 0.0000 2.1107 0.0000
# 3 3.0753 13.4970 67.4040 0.0000 -12.4497 0.0000
# 4 0.0000 0.0000 0.0000 8.8637 0.0000 2.8984
# 5 10.4672 2.1107 -12.4497 0.0000 25.8094 0.0000
# 6 0.0000 0.0000 0.0000 2.8984 0.0000 14.6899
#
#
#
# Elastic Compliance Matrix: (Units=1/GPa)
#
#
# Indices 1 2 3 4 5 6 
#
# 1 0.019574 -0.004332 -0.001566 0.000000 -0.008340 0.000000
# 2 -0.004332 0.016265 -0.003272 0.000000 -0.001152 0.000000
# 3 -0.001566 -0.003272 0.017268 0.000000 0.009232 0.000000
# 4 0.000000 0.000000 0.000000 0.120601 0.000000 -0.023795
# 5 -0.008340 -0.001152 0.009232 0.000000 0.046675 0.000000
# 6 0.000000 0.000000 0.000000 -0.023795 0.000000 0.072769
#
#
# Mechanical properties :
#
#
# Convention : Reuss Voigt Hill
#
# Bulk Modulus (GPa) = 28.76246 29.28453 29.02349
# Shear Modulus (GPa) = 15.47604 20.68203 18.07904
#
# Velocity S-wave (km/s) = 2.90675 3.36028 3.14171
# Velocity P-wave (km/s) = 5.19313 5.57165 5.38572
#
# Compressibility (1/GPa) = 0.03476755
#
# Stress axis : x y z
#
# Youngs Moduli (GPa) = 51.08744 61.48284 57.91139
#
# Poissons Ratio (x) = 0.26632 0.09070
# Poissons Ratio (y) = 0.22129 0.18948
# Poissons Ratio (z) = 0.08001 0.20117
#
# Static dielectric constant tensor:
#      x y z
#    x 1.630290 0.000000 -0.007610 
#    y 0.000000 1.655560 0.000000 
#    z -0.007610 0.000000 1.616760 
# 
# From -- ./inp_files/261677.got.cif
#   From: 2010.05.17/outbox.cif.g08.bks.cpg/sg15_131_cif.got.tgz:261677.got - 2010.06.03 18:47:42.
