data_PCOD9262699
_publ_section_title
;
Structure prediction by ZEFSAII (Michael W. Deem and Ramdas Pophale) SiO2 
 PCOD9262699
Probable space group: C 2/C
;
_chemical_formula_sum "Si O2"
_cell_formula_units_Z 40
_cell_length_a 7.168183
_cell_length_b 28.135311
_cell_length_c 10.399564
_cell_angle_alpha 90.000000
_cell_angle_beta 48.286980
_cell_angle_gamma 90.000000
_cell_volume 1565.662617
_symmetry_space_group_name_H-M "C 2/C"
_symmetry_group_IT_number 15
_symmetry_cell_setting 'monoclinic'
loop_
_space_group_symop_operation_xyz
x,y,z
-x,y,1/2-z
-x,-y,-z
x,-y,1/2+z
1/2+x,1/2+y,z
1/2-x,1/2+y,1/2-z
1/2-x,1/2-y,-z
1/2+x,1/2-y,1/2+z
loop_
_atom_site_type_symbol
_atom_site_label
_atom_site_fract_x
_atom_site_fract_y
_atom_site_fract_z
Si Si1 0.788416 0.385790 0.656638
Si Si2 0.634596 0.685333 0.827464
Si Si3 0.754373 0.717180 0.284204
Si Si4 0.766325 0.486291 0.702578
Si Si5 0.258721 0.413997 0.264910
O O1 0.500000 0.384710 0.750000
O O2 0.829984 0.330322 0.671947
O O3 0.798599 0.433131 0.744016
O O4 0.007325 0.400681 0.458404
O O5 0.500000 0.678215 0.750000
O O6 0.817654 0.730537 0.733588
O O7 0.711948 0.632594 0.834293
O O8 0.448343 0.701421 0.022199
O O9 0.000000 0.728681 0.250000
O O10 0.500000 0.484110 0.750000
O O11 0.750707 0.534052 0.795693
O O12 0.000000 0.500000 0.500000
O O13 0.500000 0.417128 0.250000
#
# Coordination Sequence:
#
# PCOD9262699 Si02
#       5
#     8   8   8   8   8
#     4  10  20  35  54  82 114 142 173 218 271 320
#     4  10  19  33  55  80 103 136 183 231 265 308
#     4  11  20  34  55  80 107 142 183 223 265 321
#     4   8  15  28  51  77 104 139 175 211 260 313
#     4   9  16  32  56  79 103 141 183 219 259 314
#
# _framework density 25.548287999999999
#
# number of rings (size 3 to 8) (size 9 to 14) (size 15 to 20)
#    0.000    2.400    0.000    6.000    0.000    0.000 
#    0.000    6.000    0.000    0.000    0.000    0.000 
#    0.000    0.000    0.000    0.000    0.000    0.000 
#
# Total GULP energy -111343.229355 kJ/mol
# GULP energy per Si atom -5567.161468 kJ/mol
# Density = 2.549014 g / cm^3
# Si number density = 25.548288 Si / 1000 Ang^3
#
#
#
# Elastic Constant Matrix: (Units=GPa)
#
#
# Indices 1 2 3 4 5 6 
#
# 1 127.4085 -7.3705 -0.5748 0.0000 -27.1356 0.0000
# 2 -7.3705 246.6651 -22.3853 0.0000 21.7504 0.0000
# 3 -0.5748 -22.3853 59.0172 0.0000 -22.3676 0.0000
# 4 0.0000 0.0000 0.0000 30.1557 0.0000 -47.4454
# 5 -27.1356 21.7504 -22.3676 0.0000 20.8344 0.0000
# 6 0.0000 0.0000 0.0000 -47.4454 0.0000 73.9407
#
#
#
# Elastic Compliance Matrix: (Units=1/GPa)
#
#
# Indices 1 2 3 4 5 6 
#
# 1 0.015447 -0.001502 0.013152 0.000000 0.035807 0.000000
# 2 -0.001502 0.004612 -0.001402 0.000000 -0.008277 0.000000
# 3 0.013152 -0.001402 0.039769 0.000000 0.061289 0.000000
# 4 0.000000 0.000000 0.000000 -3.466749 0.000000 -2.224501
# 5 0.035807 -0.008277 0.061289 0.000000 0.169074 0.000000
# 6 0.000000 0.000000 0.000000 -2.224501 0.000000 -1.413866
#
#
# Mechanical properties :
#
#
# Convention : Reuss Voigt Hill
#
# Bulk Modulus (GPa) = 12.44983 41.38108 26.91546
# Shear Modulus (GPa) = -1.07633 55.88093 27.40230
#
# Velocity S-wave (km/s) = -0.64977 4.68190 3.27856
# Velocity P-wave (km/s) = 2.07863 6.74235 4.98898
#
# Compressibility (1/GPa) = 0.08032236
#
# Stress axis : x y z
#
# Youngs Moduli (GPa) = 64.73557 216.83771 25.14526
#
# Poissons Ratio (x) = 0.32575 -0.33070
# Poissons Ratio (y) = 0.09725 0.03526
# Poissons Ratio (z) = -0.85138 0.30405
#
# Static dielectric constant tensor:
#      x y z
#    x 1.212620 0.000000 -0.386490 
#    y 0.000000 2.259660 0.000000 
#    z -0.386490 0.000000 1.793400 
# 
# From -- ./inp_files/25048.got.cif
#   From: 2010.05.17/outbox.cif.g08.bks.cpg/sg15_13_cif.got.tgz:25048.got - 2010.06.03 18:47:42.
