data_PCOD9262472
_publ_section_title
;
Structure prediction by ZEFSAII (Michael W. Deem and Ramdas Pophale) SiO2 
 PCOD9262472
Probable space group: C 2/C
;
_chemical_formula_sum "Si O2"
_cell_formula_units_Z 48
_cell_length_a 14.765561
_cell_length_b 5.638339
_cell_length_c 23.524406
_cell_angle_alpha 90.000000
_cell_angle_beta 107.449085
_cell_angle_gamma 90.000000
_cell_volume 1868.361021
_symmetry_space_group_name_H-M "C 2/C"
_symmetry_group_IT_number 15
_symmetry_cell_setting 'monoclinic'
loop_
_space_group_symop_operation_xyz
x,y,z
-x,y,1/2-z
-x,-y,-z
x,-y,1/2+z
1/2+x,1/2+y,z
1/2-x,1/2+y,1/2-z
1/2-x,1/2-y,-z
1/2+x,1/2-y,1/2+z
loop_
_atom_site_type_symbol
_atom_site_label
_atom_site_fract_x
_atom_site_fract_y
_atom_site_fract_z
Si Si1 0.559386 0.000000 0.702603
Si Si2 0.645394 0.500000 0.367707
Si Si3 0.307521 0.000000 0.984423
Si Si4 0.606872 0.500000 0.541559
Si Si5 0.084867 0.000000 0.670511
Si Si6 0.357115 1.000000 0.125787
O O1 0.500000 0.000000 0.750000
O O2 0.612099 0.750456 0.704383
O O3 0.471726 0.000000 0.640618
O O4 0.612099 0.249544 0.704383
O O5 0.700787 0.500000 0.438357
O O6 0.531458 0.500000 0.349081
O O7 0.671160 0.242682 0.348391
O O8 0.671160 0.757317 0.348391
O O9 0.354199 0.241491 0.970398
O O10 0.354199 0.758509 0.970398
O O11 0.317189 1.000000 0.054354
O O12 0.500000 0.500000 0.500000
O O13 0.614175 0.500000 0.610930
#
# Coordination Sequence:
#
# PCOD9262472 Si02
#       6
#     8   8   8   8   8   8
#     4  10  19  34  56  81 105 139 182 230 272 303
#     4  10  20  35  54  78 110 146 179 217 262 318
#     4  12  22  35  56  81 113 151 176 205 267 337
#     4  12  23  36  52  80 117 149 173 213 268 326
#     4  10  21  37  55  83 113 136 177 230 266 313
#     4  10  19  33  52  81 110 137 180 229 258 309
#
# _framework density 25.690964000000001
#
# number of rings (size 3 to 8) (size 9 to 14) (size 15 to 20)
#    0.000    1.333    0.000    9.000    0.000    0.000 
#    0.000    0.000    0.000    0.000    0.000   93.333 
#    0.000    0.000    0.000    0.000    0.000    0.000 
#
# Total GULP energy -134047.345243 kJ/mol
# GULP energy per Si atom -5585.306052 kJ/mol
# Density = 2.563249 g / cm^3
# Si number density = 25.690964 Si / 1000 Ang^3
#
#
#
# Elastic Constant Matrix: (Units=GPa)
#
#
# Indices 1 2 3 4 5 6 
#
# 1 39.7845 35.6034 6.3553 0.0000 -0.5427 0.0000
# 2 35.6034 384.7564 51.7223 0.0000 -52.1679 0.0000
# 3 6.3553 51.7223 101.4977 0.0000 -16.3701 0.0000
# 4 0.0000 0.0000 0.0000 -9.0290 0.0000 -28.0820
# 5 -0.5427 -52.1679 -16.3701 0.0000 36.9828 0.0000
# 6 0.0000 0.0000 0.0000 -28.0820 0.0000 31.6924
#
#
#
# Elastic Compliance Matrix: (Units=1/GPa)
#
#
# Indices 1 2 3 4 5 6 
#
# 1 0.027946 -0.003047 -0.000888 0.000000 -0.004281 0.000000
# 2 -0.003047 0.003638 -0.000908 0.000000 0.004686 0.000000
# 3 -0.000888 -0.000908 0.010943 0.000000 0.003551 0.000000
# 4 0.000000 0.000000 0.000000 -0.029488 0.000000 -0.026129
# 5 -0.004281 0.004686 0.003551 0.000000 0.035158 0.000000
# 6 0.000000 0.000000 0.000000 -0.026129 0.000000 0.008401
#
#
# Mechanical properties :
#
#
# Convention : Reuss Voigt Hill
#
# Bulk Modulus (GPa) = 30.44800 79.26674 54.85737
# Shear Modulus (GPa) = 64.74149 40.75307 52.74728
#
# Velocity S-wave (km/s) = 5.02542 3.98713 4.53608
# Velocity P-wave (km/s) = 6.74911 7.21923 6.98812
#
# Compressibility (1/GPa) = 0.03284288
#
# Stress axis : x y z
#
# Youngs Moduli (GPa) = 35.78376 274.85047 91.38137
#
# Poissons Ratio (x) = 0.83749 0.08110
# Poissons Ratio (y) = 0.10904 0.08293
# Poissons Ratio (z) = 0.03176 0.24943
#
# Static dielectric constant tensor:
#      x y z
#    x 2.072960 0.000000 0.066690 
#    y 0.000000 2.098020 0.000000 
#    z 0.066690 0.000000 2.037230 
# 
# From -- ./inp_files/275872.got.cif
#   From: 2010.05.17/outbox.cif.g08.bks.cpg/sg15_138_cif.got.tgz:275872.got - 2010.06.03 18:47:42.
