data_PCOD9262656
_publ_section_title
;
Structure prediction by ZEFSAII (Michael W. Deem and Ramdas Pophale) SiO2 
 PCOD9262656
Probable space group: C 2/C
;
_chemical_formula_sum "Si O2"
_cell_formula_units_Z 64
_cell_length_a 29.841110
_cell_length_b 20.168097
_cell_length_c 5.573059
_cell_angle_alpha 90.000000
_cell_angle_beta 113.421723
_cell_angle_gamma 90.000000
_cell_volume 3077.718019
_symmetry_space_group_name_H-M "C 2/C"
_symmetry_group_IT_number 15
_symmetry_cell_setting 'monoclinic'
loop_
_space_group_symop_operation_xyz
x,y,z
-x,y,1/2-z
-x,-y,-z
x,-y,1/2+z
1/2+x,1/2+y,z
1/2-x,1/2+y,1/2-z
1/2-x,1/2-y,-z
1/2+x,1/2-y,1/2+z
loop_
_atom_site_type_symbol
_atom_site_label
_atom_site_fract_x
_atom_site_fract_y
_atom_site_fract_z
Si Si1 0.627039 0.776444 0.606871
Si Si2 0.731851 0.978469 0.500723
Si Si3 0.696272 0.288062 0.632222
Si Si4 0.513847 0.392647 0.525786
Si Si5 0.376270 0.352180 0.678089
Si Si6 0.293115 0.835170 0.978966
Si Si7 0.655916 0.471827 0.193302
Si Si8 0.976263 0.259165 0.947174
O O1 0.611482 0.722535 0.376106
O O2 0.654755 0.837316 0.542549
O O3 0.579515 0.783276 0.666534
O O4 0.668346 0.738808 0.845427
O O5 0.725941 0.900857 0.433613
O O6 0.709823 0.013599 0.220471
O O7 0.786996 0.007051 0.655437
O O8 0.663455 0.343192 0.697902
O O9 0.749509 0.317726 0.701890
O O10 0.702405 0.225765 0.826103
O O11 0.500000 0.423602 0.750000
O O12 0.571672 0.381032 0.641103
O O13 0.483935 0.321496 0.462397
O O14 0.500000 0.427064 0.250000
O O15 0.353356 0.397257 0.417798
O O16 0.635751 0.487596 0.416632
O O17 0.000000 0.282425 0.750000
O O18 0.000000 0.281417 0.250000
#
# Coordination Sequence:
#
# PCOD9262656 Si02
#       8
#     8   8   8   8   8   8   8   8
#     4  11  22  34  60  89 123 159 191 251 306 381
#     4  10  22  39  60  79 111 162 208 251 286 342
#     4  10  21  36  55  86 125 160 191 250 311 378
#     4  10  19  33  54  85 112 150 190 243 300 367
#     4  11  22  35  61  87 115 160 209 247 311 366
#     4  10  23  37  54  88 123 160 204 250 308 362
#     4  10  23  39  57  83 107 153 213 261 287 341
#     4  10  19  35  54  85 118 155 190 230 296 372
#
# _framework density 20.794627999999999
#
# number of rings (size 3 to 8) (size 9 to 14) (size 15 to 20)
#    0.000    1.750    2.500    3.375    8.750    0.000 
#    0.000    0.000    0.000    2.250    0.000    0.000 
#    0.000    3.000    0.000    0.000    0.000    0.000 
#
# Total GULP energy -178493.302366 kJ/mol
# GULP energy per Si atom -5577.915699 kJ/mol
# Density = 2.074730 g / cm^3
# Si number density = 20.794628 Si / 1000 Ang^3
#
#
#
# Elastic Constant Matrix: (Units=GPa)
#
#
# Indices 1 2 3 4 5 6 
#
# 1 115.0350 28.8723 16.0740 0.0000 -1.1473 0.0000
# 2 28.8723 47.2106 9.8367 0.0000 10.4385 0.0000
# 3 16.0740 9.8367 106.0675 0.0000 -20.9986 0.0000
# 4 0.0000 0.0000 0.0000 9.9908 0.0000 -9.0815
# 5 -1.1473 10.4385 -20.9986 0.0000 24.7455 0.0000
# 6 0.0000 0.0000 0.0000 -9.0815 0.0000 44.7436
#
#
#
# Elastic Compliance Matrix: (Units=1/GPa)
#
#
# Indices 1 2 3 4 5 6 
#
# 1 0.010550 -0.007104 -0.000300 0.000000 0.003231 0.000000
# 2 -0.007104 0.030525 -0.005251 0.000000 -0.017662 0.000000
# 3 -0.000300 -0.005251 0.012495 0.000000 0.012805 0.000000
# 4 0.000000 0.000000 0.000000 0.122737 0.000000 0.024912
# 5 0.003231 -0.017662 0.012805 0.000000 0.058877 0.000000
# 6 0.000000 0.000000 0.000000 0.024912 0.000000 0.027406
#
#
# Mechanical properties :
#
#
# Convention : Reuss Voigt Hill
#
# Bulk Modulus (GPa) = 35.38505 41.98656 38.68581
# Shear Modulus (GPa) = 16.81680 30.13130 23.47405
#
# Velocity S-wave (km/s) = 2.84687 3.81070 3.36348
# Velocity P-wave (km/s) = 5.27822 6.29260 5.80760
#
# Compressibility (1/GPa) = 0.02826052
#
# Stress axis : x y z
#
# Youngs Moduli (GPa) = 94.78503 32.75958 80.02935
#
# Poissons Ratio (x) = 0.23272 0.02404
# Poissons Ratio (y) = 0.67334 0.42023
# Poissons Ratio (z) = 0.02847 0.17202
#
# Static dielectric constant tensor:
#      x y z
#    x 1.801490 0.000000 -0.045370 
#    y 0.000000 1.757560 0.000000 
#    z -0.045370 0.000000 1.810670 
# 
# From -- ./inp_files/18601.got.cif
#   From: 2010.05.17/outbox.cif.g08.bks.cpg/sg15_10_cif.got.tgz:18601.got - 2010.06.03 18:47:42.
