data_PCOD9262406
_publ_section_title
;
Structure prediction by ZEFSAII (Michael W. Deem and Ramdas Pophale) SiO2 
 PCOD9262406
Probable space group: C 2/C
;
_chemical_formula_sum "Si O2"
_cell_formula_units_Z 56
_cell_length_a 17.726407
_cell_length_b 21.320253
_cell_length_c 17.830821
_cell_angle_alpha 90.000000
_cell_angle_beta 146.537082
_cell_angle_gamma 90.000000
_cell_volume 3715.771065
_symmetry_space_group_name_H-M "C 2/C"
_symmetry_group_IT_number 15
_symmetry_cell_setting 'monoclinic'
loop_
_space_group_symop_operation_xyz
x,y,z
-x,y,1/2-z
-x,-y,-z
x,-y,1/2+z
1/2+x,1/2+y,z
1/2-x,1/2+y,1/2-z
1/2-x,1/2-y,-z
1/2+x,1/2-y,1/2+z
loop_
_atom_site_type_symbol
_atom_site_label
_atom_site_fract_x
_atom_site_fract_y
_atom_site_fract_z
Si Si1 0.847456 0.747858 0.153106
Si Si2 0.156541 0.502270 0.355146
Si Si3 0.791391 0.872879 0.899168
Si Si4 0.378296 0.434764 0.829486
Si Si5 0.321438 0.564390 0.872169
Si Si6 0.349855 0.496322 0.657670
Si Si7 0.108322 0.125440 0.717390
O O1 0.787441 0.690791 0.150844
O O2 0.852347 0.812039 0.205076
O O3 0.000000 0.735598 0.250000
O O4 0.750000 0.750000 0.000000
O O5 0.206025 0.569114 0.362518
O O6 0.197990 0.450854 0.326158
O O7 0.244920 0.492746 0.503205
O O8 0.000000 0.502284 0.250000
O O9 0.811644 0.883388 0.827433
O O10 0.944469 0.874572 0.063066
O O11 0.351722 0.499768 0.852328
O O12 0.322397 0.446596 0.700800
O O13 0.541577 0.424444 0.965496
O O14 0.317101 0.615149 0.801413
O O15 0.500000 0.484814 0.750000
O O16 0.356249 0.565351 0.701489
#
# Coordination Sequence:
#
# PCOD9262406 Si02
#       7
#     8   8   8   8   8   8   8
#     4  12  22  33  48  73  99 129 168 195 229 278
#     4  11  20  30  47  76 105 124 150 201 254 283
#     4  10  19  34  48  69 102 132 161 198 237 282
#     4   8  15  28  50  71  89 124 167 197 227 287
#     4   8  15  30  48  68  94 127 161 190 239 294
#     4  11  16  29  52  75  94 121 165 199 234 286
#     4  10  19  33  51  69  96 135 166 194 233 288
#
# _framework density 15.070897
#
# number of rings (size 3 to 8) (size 9 to 14) (size 15 to 20)
#    0.000    2.000    4.286    3.429    0.000    0.000 
#    0.000    7.857    0.000    0.000    0.000    2.000 
#    0.000    0.000    0.000    0.000    0.000    0.000 
#
# Total GULP energy -155969.174903 kJ/mol
# GULP energy per Si atom -5570.327675 kJ/mol
# Density = 1.503659 g / cm^3
# Si number density = 15.070897 Si / 1000 Ang^3
#
#
#
# Elastic Constant Matrix: (Units=GPa)
#
#
# Indices 1 2 3 4 5 6 
#
# 1 123.2604 55.9268 62.3884 0.0002 0.7331 0.0001
# 2 55.9268 70.9519 27.9368 0.0000 -3.3126 0.0000
# 3 62.3884 27.9368 85.8834 0.0005 4.2849 0.0004
# 4 0.0002 0.0000 0.0005 20.0790 0.0003 -6.8310
# 5 0.7331 -3.3126 4.2849 0.0003 23.4121 0.0002
# 6 0.0001 0.0000 0.0004 -6.8310 0.0002 32.1793
#
#
#
# Elastic Compliance Matrix: (Units=1/GPa)
#
#
# Indices 1 2 3 4 5 6 
#
# 1 0.017418 -0.010052 -0.009371 0.000000 -0.000253 0.000000
# 2 -0.010052 0.022218 -0.000099 0.000000 0.003477 0.000000
# 3 -0.009371 -0.000099 0.018639 0.000000 -0.003132 0.000000
# 4 0.000000 0.000000 0.000000 0.053680 -0.000001 0.011395
# 5 -0.000253 0.003477 -0.003132 -0.000001 0.043786 0.000000
# 6 0.000000 0.000000 0.000000 0.011395 0.000000 0.033495
#
#
# Mechanical properties :
#
#
# Convention : Reuss Voigt Hill
#
# Bulk Modulus (GPa) = 51.99384 63.62221 57.80802
# Shear Modulus (GPa) = 21.30462 24.05701 22.68081
#
# Velocity S-wave (km/s) = 3.76390 3.99965 3.88357
# Velocity P-wave (km/s) = 7.31189 7.97725 7.65180
#
# Compressibility (1/GPa) = 0.01923305
#
# Stress axis : x y z
#
# Youngs Moduli (GPa) = 57.41102 45.00758 53.64975
#
# Poissons Ratio (x) = 0.45241 0.50274
# Poissons Ratio (y) = 0.57708 0.00531
# Poissons Ratio (z) = 0.53799 0.00445
#
# Static dielectric constant tensor:
#      x y z
#    x 1.516570 0.000000 -0.014930 
#    y 0.000000 1.501100 0.000000 
#    z -0.014930 0.000000 1.504830 
# 
# From -- ./inp_files/57581.got.cif
#   From: 2010.05.17/outbox.cif.g08.bks.cpg/sg15_29_cif.got.tgz:57581.got - 2010.06.03 18:47:42.
