data_PCOD9262466
_publ_section_title
;
Structure prediction by ZEFSAII (Michael W. Deem and Ramdas Pophale) SiO2 
 PCOD9262466
Probable space group: C 2/C
;
_chemical_formula_sum "Si O2"
_cell_formula_units_Z 40
_cell_length_a 18.995246
_cell_length_b 16.690355
_cell_length_c 7.941418
_cell_angle_alpha 90.000000
_cell_angle_beta 142.749002
_cell_angle_gamma 90.000000
_cell_volume 1523.999627
_symmetry_space_group_name_H-M "C 2/C"
_symmetry_group_IT_number 15
_symmetry_cell_setting 'monoclinic'
loop_
_space_group_symop_operation_xyz
x,y,z
-x,y,1/2-z
-x,-y,-z
x,-y,1/2+z
1/2+x,1/2+y,z
1/2-x,1/2+y,1/2-z
1/2-x,1/2-y,-z
1/2+x,1/2-y,1/2+z
loop_
_atom_site_type_symbol
_atom_site_label
_atom_site_fract_x
_atom_site_fract_y
_atom_site_fract_z
Si Si1 0.547197 0.862347 0.091424
Si Si2 0.311444 0.893251 0.809488
Si Si3 0.757014 0.425280 0.212733
Si Si4 0.052449 0.916596 0.037127
Si Si5 0.369781 0.316905 0.817112
O O1 0.608555 0.903388 0.369600
O O2 0.607815 0.905236 0.049060
O O3 0.599416 0.772464 0.180611
O O4 0.409458 0.866693 0.861644
O O5 0.214372 0.828373 0.683146
O O6 0.248754 0.979267 0.669151
O O7 0.688352 0.408534 0.254463
O O8 0.695086 0.370505 0.951048
O O9 0.000000 0.904300 0.750000
O O10 0.997536 0.855228 0.061936
O O11 0.000000 0.000000 0.000000
#
# Coordination Sequence:
#
# PCOD9262466 Si02
#       5
#     8   8   8   8   8
#     4  10  22  33  55  84 114 143 190 251 292 339
#     4  10  19  33  52  80 113 144 187 233 302 341
#     4  10  19  33  52  79 116 142 189 232 301 343
#     4  10  20  34  57  87 117 149 197 250 295 349
#     4  10  21  35  55  86 111 147 195 248 291 340
#
# _framework density 26.246725000000001
#
# number of rings (size 3 to 8) (size 9 to 14) (size 15 to 20)
#    0.000    2.000    2.000    3.000   11.200    0.000 
#    0.000    0.000    0.000    0.000   15.600   26.600 
#    0.000    0.000    0.000    0.000    0.000    0.000 
#
# Total GULP energy -111665.738976 kJ/mol
# GULP energy per Si atom -5583.286949 kJ/mol
# Density = 2.618699 g / cm^3
# Si number density = 26.246725 Si / 1000 Ang^3
#
#
#
# Elastic Constant Matrix: (Units=GPa)
#
#
# Indices 1 2 3 4 5 6 
#
# 1 241.6188 34.4220 62.4081 0.0000 75.2141 0.0000
# 2 34.4220 117.3145 1.2328 0.0000 17.5730 0.0000
# 3 62.4081 1.2328 107.7651 0.0000 31.8731 0.0000
# 4 0.0000 0.0000 0.0000 20.3279 0.0000 15.9010
# 5 75.2141 17.5730 31.8731 0.0000 68.0555 0.0000
# 6 0.0000 0.0000 0.0000 15.9010 0.0000 28.4386
#
#
#
# Elastic Compliance Matrix: (Units=1/GPa)
#
#
# Indices 1 2 3 4 5 6 
#
# 1 0.006759 -0.001027 -0.002056 0.000000 -0.006242 0.000000
# 2 -0.001027 0.009065 0.000984 0.000000 -0.001667 0.000000
# 3 -0.002056 0.000984 0.011448 0.000000 -0.003343 0.000000
# 4 0.000000 0.000000 0.000000 0.087435 0.000000 -0.048888
# 5 -0.006242 -0.001667 -0.003343 0.000000 0.023588 0.000000
# 6 0.000000 0.000000 0.000000 -0.048888 0.000000 0.062499
#
#
# Mechanical properties :
#
#
# Convention : Reuss Voigt Hill
#
# Bulk Modulus (GPa) = 43.34050 73.64715 58.49383
# Shear Modulus (GPa) = 23.50911 47.94010 35.72461
#
# Velocity S-wave (km/s) = 2.99607 4.27841 3.69332
# Velocity P-wave (km/s) = 5.34014 7.24754 6.36569
#
# Compressibility (1/GPa) = 0.02307311
#
# Stress axis : x y z
#
# Youngs Moduli (GPa) = 147.94470 110.31852 87.35332
#
# Poissons Ratio (x) = 0.11326 0.17964
# Poissons Ratio (y) = 0.15189 -0.08594
# Poissons Ratio (z) = 0.30424 -0.10853
#
# Static dielectric constant tensor:
#      x y z
#    x 2.050590 0.000000 0.058530 
#    y 0.000000 2.029120 0.000000 
#    z 0.058530 0.000000 2.246020 
# 
# From -- ./inp_files/112524.got.cif
#   From: 2010.05.17/outbox.cif.g08.bks.cpg/sg15_57_cif.got.tgz:112524.got - 2010.06.03 18:47:42.
