data_PCOD9262864
_publ_section_title
;
Structure prediction by ZEFSAII (Michael W. Deem and Ramdas Pophale) SiO2 
 PCOD9262864
Probable space group: C 2/C
;
_chemical_formula_sum "Si O2"
_cell_formula_units_Z 40
_cell_length_a 16.423054
_cell_length_b 13.298023
_cell_length_c 18.792454
_cell_angle_alpha 90.000000
_cell_angle_beta 155.398239
_cell_angle_gamma 90.000000
_cell_volume 1708.598507
_symmetry_space_group_name_H-M "C 2/C"
_symmetry_group_IT_number 15
_symmetry_cell_setting 'monoclinic'
loop_
_space_group_symop_operation_xyz
x,y,z
-x,y,1/2-z
-x,-y,-z
x,-y,1/2+z
1/2+x,1/2+y,z
1/2-x,1/2+y,1/2-z
1/2-x,1/2-y,-z
1/2+x,1/2-y,1/2+z
loop_
_atom_site_type_symbol
_atom_site_label
_atom_site_fract_x
_atom_site_fract_y
_atom_site_fract_z
Si Si1 0.815099 0.158043 0.238207
Si Si2 0.228498 0.932665 0.936058
Si Si3 0.725064 0.139663 0.450364
Si Si4 0.718712 0.864238 0.373276
Si Si5 0.692528 0.558094 0.126652
O O1 0.707276 0.091084 0.092728
O O2 0.811252 0.269345 0.201527
O O3 0.731634 0.129109 0.249582
O O4 0.044307 0.133383 0.428820
O O5 0.000000 0.899969 0.750000
O O6 0.334001 0.869629 0.083465
O O7 0.228947 0.048488 0.959714
O O8 0.500000 0.129863 0.250000
O O9 0.750000 0.250000 0.500000
O O10 0.849184 0.122408 0.477157
O O11 0.669607 0.968033 0.293183
O O12 0.500000 0.500000 0.000000
#
# Coordination Sequence:
#
# PCOD9262864 Si02
#       5
#     8   8   8   8   8
#     4  10  19  33  57  80 109 152 194 249 308 359
#     4   9  19  37  57  80 115 158 199 247 308 371
#     4  11  24  40  62  92 126 168 212 257 316 388
#     4   9  19  34  53  81 112 146 194 246 305 367
#     4   9  21  40  59  85 122 162 207 261 311 367
#
# _framework density 23.411000000000001
#
# number of rings (size 3 to 8) (size 9 to 14) (size 15 to 20)
#    0.000    2.400    0.000    2.400    0.000    8.000 
#    0.000    3.000    0.000    0.000    0.000    0.000 
#    0.000    0.000    0.000    0.000    0.000    0.000 
#
# Total GULP energy -111586.341997 kJ/mol
# GULP energy per Si atom -5579.317100 kJ/mol
# Density = 2.335772 g / cm^3
# Si number density = 23.411000 Si / 1000 Ang^3
#
#
#
# Elastic Constant Matrix: (Units=GPa)
#
#
# Indices 1 2 3 4 5 6 
#
# 1 115.2100 82.9335 3.7121 0.0003 -47.0870 -0.0002
# 2 82.9335 174.1929 38.0592 0.0107 -72.0283 0.0067
# 3 3.7121 38.0592 53.6117 -0.0020 -25.1309 0.0030
# 4 0.0003 0.0107 -0.0020 52.3265 0.0037 -18.7926
# 5 -47.0870 -72.0283 -25.1309 0.0037 45.1483 0.0022
# 6 -0.0002 0.0067 0.0030 -18.7926 0.0022 40.1099
#
#
#
# Elastic Compliance Matrix: (Units=1/GPa)
#
#
# Indices 1 2 3 4 5 6 
#
# 1 0.019019 -0.002140 0.010689 -0.000002 0.022373 -0.000002
# 2 -0.002140 0.017139 -0.000335 -0.000008 0.024926 -0.000008
# 3 0.010689 -0.000335 0.031290 -0.000003 0.028031 -0.000005
# 4 -0.000002 -0.000008 -0.000003 0.022977 -0.000019 0.010765
# 5 0.022373 0.024926 0.028031 -0.000019 0.100851 -0.000020
# 6 -0.000002 -0.000008 -0.000005 0.010765 -0.000020 0.029975
#
#
# Mechanical properties :
#
#
# Convention : Reuss Voigt Hill
#
# Bulk Modulus (GPa) = 11.92204 65.82493 38.87348
# Shear Modulus (GPa) = 21.47928 42.07091 31.77509
#
# Velocity S-wave (km/s) = 3.03229 4.24377 3.68811
# Velocity P-wave (km/s) = 4.16692 7.22433 5.89721
#
# Compressibility (1/GPa) = 0.08387824
#
# Stress axis : x y z
#
# Youngs Moduli (GPa) = 52.57765 58.34539 31.95902
#
# Poissons Ratio (x) = 0.12484 -0.34162
# Poissons Ratio (y) = 0.11250 0.01071
# Poissons Ratio (z) = -0.56203 0.01955
#
# Static dielectric constant tensor:
#      x y z
#    x 2.051010 0.000000 0.003640 
#    y 0.000000 1.193280 -0.000050 
#    z 0.003640 -0.000050 1.895630 
# 
# From -- ./inp_files/37962.got.cif
#   From: 2010.05.17/outbox.cif.g08.bks.cpg/sg15_19_cif.got.tgz:37962.got - 2010.06.03 18:47:42.
