data_PCOD9262046
_publ_section_title
;
Structure prediction by ZEFSAII (Michael W. Deem and Ramdas Pophale) SiO2 
 PCOD9262046
Probable space group: C 2/C
;
_chemical_formula_sum "Si O2"
_cell_formula_units_Z 44
_cell_length_a 5.925240
_cell_length_b 18.501213
_cell_length_c 20.159238
_cell_angle_alpha 90.000000
_cell_angle_beta 81.933154
_cell_angle_gamma 90.000000
_cell_volume 2188.071581
_symmetry_space_group_name_H-M "C 2/C"
_symmetry_group_IT_number 15
_symmetry_cell_setting 'monoclinic'
loop_
_space_group_symop_operation_xyz
x,y,z
-x,y,1/2-z
-x,-y,-z
x,-y,1/2+z
1/2+x,1/2+y,z
1/2-x,1/2+y,1/2-z
1/2-x,1/2-y,-z
1/2+x,1/2-y,1/2+z
loop_
_atom_site_type_symbol
_atom_site_label
_atom_site_fract_x
_atom_site_fract_y
_atom_site_fract_z
Si Si1 0.581059 0.843120 0.042902
Si Si2 0.185595 0.054883 0.575765
Si Si3 0.197224 0.227439 0.375185
Si Si4 0.904635 0.830484 0.156181
Si Si5 0.955291 0.101371 0.445681
Si Si6 0.500000 0.787537 0.250000
O O1 0.445122 0.918490 0.056908
O O2 0.398275 0.779488 0.061410
O O3 0.750037 0.833138 0.097152
O O4 0.737682 0.847543 0.971686
O O5 0.063708 0.077743 0.511643
O O6 0.076522 0.102801 0.639032
O O7 0.137310 0.970485 0.585607
O O8 0.449243 0.256855 0.350393
O O9 0.146036 0.146648 0.399612
O O10 0.057916 0.242302 0.313248
O O11 0.727138 0.832682 0.223674
#
# Coordination Sequence:
#
# PCOD9262046 Si02
#       6
#     8   8   8   8   8   4
#     4   9  18  32  52  80 106 141 174 216 275 342
#     4   9  19  33  52  79 112 144 175 219 281 352
#     4  10  20  33  54  77 106 138 187 235 279 333
#     4   9  19  35  54  75 102 139 187 228 279 331
#     4  10  19  32  52  80 116 140 174 222 286 343
#     4  10  20  36  56  68  96 140 188 236 278 328
#
# _framework density 20.109031999999999
#
# number of rings (size 3 to 8) (size 9 to 14) (size 15 to 20)
#    0.000    2.545    0.000    1.636    0.000    9.455 
#    0.000    0.000   16.000    0.000    0.000    0.000 
#    0.000    0.000    0.000    0.000    0.000    0.000 
#
# Total GULP energy -122673.699334 kJ/mol
# GULP energy per Si atom -5576.077242 kJ/mol
# Density = 2.006326 g / cm^3
# Si number density = 20.109032 Si / 1000 Ang^3
#
#
#
# Elastic Constant Matrix: (Units=GPa)
#
#
# Indices 1 2 3 4 5 6 
#
# 1 85.0562 23.7094 19.8177 0.0000 -15.8280 0.0000
# 2 23.7094 88.0911 40.0611 0.0000 -5.6995 0.0000
# 3 19.8177 40.0611 67.3813 0.0000 -17.1731 0.0000
# 4 0.0000 0.0000 0.0000 12.6838 0.0000 1.5030
# 5 -15.8280 -5.6995 -17.1731 0.0000 35.0330 0.0000
# 6 0.0000 0.0000 0.0000 1.5030 0.0000 29.5178
#
#
#
# Elastic Compliance Matrix: (Units=1/GPa)
#
#
# Indices 1 2 3 4 5 6 
#
# 1 0.013780 -0.002927 -0.000968 0.000000 0.005275 0.000000
# 2 -0.002927 0.016343 -0.009731 0.000000 -0.003434 0.000000
# 3 -0.000968 -0.009731 0.023308 0.000000 0.009405 0.000000
# 4 0.000000 0.000000 0.000000 0.079319 0.000000 -0.004039
# 5 0.005275 -0.003434 0.009405 0.000000 0.034980 0.000000
# 6 0.000000 0.000000 0.000000 -0.004039 0.000000 0.034084
#
#
# Mechanical properties :
#
#
# Convention : Reuss Voigt Hill
#
# Bulk Modulus (GPa) = 38.19888 45.30056 41.74972
# Shear Modulus (GPa) = 21.02680 25.90959 23.46820
#
# Velocity S-wave (km/s) = 3.23714 3.59340 3.41991
# Velocity P-wave (km/s) = 5.74537 6.30818 6.03334
#
# Compressibility (1/GPa) = 0.02617878
#
# Stress axis : x y z
#
# Youngs Moduli (GPa) = 72.56828 61.18904 42.90386
#
# Poissons Ratio (x) = 0.17912 0.04153
# Poissons Ratio (y) = 0.21243 0.41748
# Poissons Ratio (z) = 0.07025 0.59541
#
# Static dielectric constant tensor:
#      x y z
#    x 1.766500 0.000000 -0.024680 
#    y 0.000000 1.732820 0.000000 
#    z -0.024680 0.000000 1.722680 
# 
# From -- ./inp_files/226902.got.cif
#   From: 2010.05.17/outbox.cif.g08.bks.cpg/sg15_114_cif.got.tgz:226902.got - 2010.06.03 18:47:42.
