data_PCOD9262033
_publ_section_title
;
Structure prediction by ZEFSAII (Michael W. Deem and Ramdas Pophale) SiO2 
 PCOD9262033
Probable space group: C 2/C
;
_chemical_formula_sum "Si O2"
_cell_formula_units_Z 64
_cell_length_a 18.175293
_cell_length_b 12.288219
_cell_length_c 20.713498
_cell_angle_alpha 90.000000
_cell_angle_beta 52.253727
_cell_angle_gamma 90.000000
_cell_volume 3658.067327
_symmetry_space_group_name_H-M "C 2/C"
_symmetry_group_IT_number 15
_symmetry_cell_setting 'monoclinic'
loop_
_space_group_symop_operation_xyz
x,y,z
-x,y,1/2-z
-x,-y,-z
x,-y,1/2+z
1/2+x,1/2+y,z
1/2-x,1/2+y,1/2-z
1/2-x,1/2-y,-z
1/2+x,1/2-y,1/2+z
loop_
_atom_site_type_symbol
_atom_site_label
_atom_site_fract_x
_atom_site_fract_y
_atom_site_fract_z
Si Si1 0.628374 0.467069 0.920482
Si Si2 0.494059 0.856120 0.612409
Si Si3 0.164165 0.604953 0.202023
Si Si4 0.460907 0.688852 0.517886
Si Si5 0.094480 0.797712 0.160702
Si Si6 0.861159 0.765401 0.938384
Si Si7 0.385044 0.031062 0.894644
Si Si8 0.329838 0.500059 0.452050
O O1 0.732140 0.438105 0.842609
O O2 0.593849 0.587562 0.918255
O O3 0.554968 0.372342 0.943851
O O4 0.631041 0.474265 0.997387
O O5 0.397277 0.877948 0.701550
O O6 0.479761 0.791048 0.554052
O O7 0.557860 0.775219 0.621076
O O8 0.547813 0.970324 0.590938
O O9 0.161164 0.721113 0.167313
O O10 0.114019 0.524875 0.176698
O O11 0.401261 0.728230 0.489120
O O12 0.146246 0.902492 0.107484
O O13 0.000000 0.824539 0.250000
O O14 0.902351 0.659778 0.881708
O O15 0.873730 0.886651 0.904254
O O16 0.750000 0.750000 0.000000
O O17 0.280218 0.013377 0.977326
#
# Coordination Sequence:
#
# PCOD9262033 Si02
#       8
#     8   8   8   8   8   8   8   8
#     4   9  18  32  53  80 101 136 180 207 267 317
#     4  10  19  32  52  79 110 134 169 217 272 308
#     4   9  19  33  53  77 107 139 170 214 261 319
#     4  10  19  32  56  77 104 138 171 227 261 309
#     4   9  17  29  49  79 108 133 169 219 267 302
#     4   9  19  35  52  76 103 134 181 217 258 310
#     4   9  18  31  53  76 104 140 175 215 251 316
#     4   9  16  30  54  77 102 137 177 219 254 305
#
# _framework density 17.495577000000001
#
# number of rings (size 3 to 8) (size 9 to 14) (size 15 to 20)
#    0.000    2.750    1.250    1.875    1.750    2.000 
#    0.000    2.500   11.000    0.000    0.000    0.000 
#    0.000    0.000    0.000    0.000    0.000    0.000 
#
# Total GULP energy -178180.827823 kJ/mol
# GULP energy per Si atom -5568.150869 kJ/mol
# Density = 1.745576 g / cm^3
# Si number density = 17.495577 Si / 1000 Ang^3
#
#
#
# Elastic Constant Matrix: (Units=GPa)
#
#
# Indices 1 2 3 4 5 6 
#
# 1 74.1180 6.8207 8.1746 0.0000 -16.0845 0.0000
# 2 6.8207 72.7814 22.9373 0.0000 -7.4757 0.0000
# 3 8.1746 22.9373 14.1296 0.0000 -5.9675 0.0000
# 4 0.0000 0.0000 0.0000 9.3073 0.0000 -12.2450
# 5 -16.0845 -7.4757 -5.9675 0.0000 17.2873 0.0000
# 6 0.0000 0.0000 0.0000 -12.2450 0.0000 21.8402
#
#
#
# Elastic Compliance Matrix: (Units=1/GPa)
#
#
# Indices 1 2 3 4 5 6 
#
# 1 0.017243 0.002232 -0.007510 0.000000 0.014416 0.000000
# 2 0.002232 0.028686 -0.048866 0.000000 -0.002387 0.000000
# 3 -0.007510 -0.048866 0.166901 0.000000 0.029494 0.000000
# 4 0.000000 0.000000 0.000000 0.409509 0.000000 0.229597
# 5 0.014416 -0.002387 0.029494 0.000000 0.080408 0.000000
# 6 0.000000 0.000000 0.000000 0.229597 0.000000 0.174514
#
#
# Mechanical properties :
#
#
# Convention : Reuss Voigt Hill
#
# Bulk Modulus (GPa) = 9.56563 26.32156 17.94360
# Shear Modulus (GPa) = 4.90005 17.89339 11.39672
#
# Velocity S-wave (km/s) = 1.67536 3.20150 2.55503
# Velocity P-wave (km/s) = 3.03673 5.36129 4.35690
#
# Compressibility (1/GPa) = 0.10454092
#
# Stress axis : x y z
#
# Youngs Moduli (GPa) = 57.99314 34.86051 5.99156
#
# Poissons Ratio (x) = -0.07780 0.04500
# Poissons Ratio (y) = -0.12942 0.29278
# Poissons Ratio (z) = 0.43555 1.70350
#
# Static dielectric constant tensor:
#      x y z
#    x 1.607220 0.000000 -0.010770 
#    y 0.000000 1.628220 0.000000 
#    z -0.010770 0.000000 1.578260 
# 
# From -- ./inp_files/210285.got.cif
#   From: 2010.05.17/outbox.cif.g08.bks.cpg/sg15_106_cif.got.tgz:210285.got - 2010.06.03 18:47:42.
