data_PCOD9262563
_publ_section_title
;
Structure prediction by ZEFSAII (Michael W. Deem and Ramdas Pophale) SiO2 
 PCOD9262563
Probable space group: C 2/C
;
_chemical_formula_sum "Si O2"
_cell_formula_units_Z 48
_cell_length_a 5.110285
_cell_length_b 26.597867
_cell_length_c 18.935037
_cell_angle_alpha 90.000000
_cell_angle_beta 77.532470
_cell_angle_gamma 90.000000
_cell_volume 2513.009281
_symmetry_space_group_name_H-M "C 2/C"
_symmetry_group_IT_number 15
_symmetry_cell_setting 'monoclinic'
loop_
_space_group_symop_operation_xyz
x,y,z
-x,y,1/2-z
-x,-y,-z
x,-y,1/2+z
1/2+x,1/2+y,z
1/2-x,1/2+y,1/2-z
1/2-x,1/2-y,-z
1/2+x,1/2-y,1/2+z
loop_
_atom_site_type_symbol
_atom_site_label
_atom_site_fract_x
_atom_site_fract_y
_atom_site_fract_z
Si Si1 0.574574 0.917912 0.028173
Si Si2 0.005659 0.894777 0.894310
Si Si3 0.570120 0.807823 0.444884
Si Si4 0.545738 0.846355 0.828625
Si Si5 0.746805 0.515530 0.435480
Si Si6 0.384717 0.247991 0.095703
O O1 0.852185 0.897506 0.978170
O O2 0.433663 0.947584 0.971313
O O3 0.426596 0.867838 0.060555
O O4 0.611977 0.961850 0.083848
O O5 0.786690 0.878048 0.849785
O O6 0.257532 0.857532 0.881170
O O7 0.132341 0.950644 0.879020
O O8 0.432397 0.790684 0.527167
O O9 0.382706 0.779779 0.399257
O O10 0.864132 0.784972 0.422754
O O11 0.500000 0.858900 0.750000
O O12 0.616301 0.788229 0.837042
O O13 0.500000 0.500000 0.500000
#
# Coordination Sequence:
#
# PCOD9262563 Si02
#       6
#     8   8   8   8   8   8
#     4  10  19  33  53  86 115 147 174 218 287 344
#     4  11  20  36  54  79 113 145 180 227 272 333
#     4  10  20  31  54  75 114 138 172 220 284 328
#     4  12  24  38  56  77 111 151 191 229 272 328
#     4   9  19  31  55  80 118 144 168 218 276 337
#     4  10  21  33  49  78 106 146 175 226 268 327
#
# _framework density 19.100607
#
# number of rings (size 3 to 8) (size 9 to 14) (size 15 to 20)
#    0.000    1.667    3.333    1.500    9.333    0.000 
#    0.000    0.000    0.000    0.000    0.000    4.667 
#    0.000    0.000    0.000    0.000    0.000    0.000 
#
# Total GULP energy -133838.674243 kJ/mol
# GULP energy per Si atom -5576.611427 kJ/mol
# Density = 1.905713 g / cm^3
# Si number density = 19.100607 Si / 1000 Ang^3
#
#
#
# Elastic Constant Matrix: (Units=GPa)
#
#
# Indices 1 2 3 4 5 6 
#
# 1 84.6348 34.9581 8.2990 0.0000 15.7954 0.0000
# 2 34.9581 149.0049 17.6114 0.0000 19.2487 0.0000
# 3 8.2990 17.6114 17.9665 0.0000 14.2081 0.0000
# 4 0.0000 0.0000 0.0000 10.7415 0.0000 3.3322
# 5 15.7954 19.2487 14.2081 0.0000 20.9857 0.0000
# 6 0.0000 0.0000 0.0000 3.3322 0.0000 35.2187
#
#
#
# Elastic Compliance Matrix: (Units=1/GPa)
#
#
# Indices 1 2 3 4 5 6 
#
# 1 0.014625 -0.002473 0.005553 0.000000 -0.012499 0.000000
# 2 -0.002473 0.008180 -0.005197 0.000000 -0.002123 0.000000
# 3 0.005553 -0.005197 0.124246 0.000000 -0.083531 0.000000
# 4 0.000000 0.000000 0.000000 0.095912 0.000000 -0.009075
# 5 -0.012499 -0.002123 -0.083531 0.000000 0.115561 0.000000
# 6 0.000000 0.000000 0.000000 -0.009075 0.000000 0.029253
#
#
# Mechanical properties :
#
#
# Convention : Reuss Voigt Hill
#
# Bulk Modulus (GPa) = 7.00198 41.48257 24.24228
# Shear Modulus (GPa) = 11.37358 26.10501 18.73930
#
# Velocity S-wave (km/s) = 2.44284 3.70092 3.13562
# Velocity P-wave (km/s) = 3.41035 6.32673 5.08222
#
# Compressibility (1/GPa) = 0.14281677
#
# Stress axis : x y z
#
# Youngs Moduli (GPa) = 68.37546 122.25165 8.04858
#
# Poissons Ratio (x) = 0.30231 -0.04469
# Poissons Ratio (y) = 0.16908 0.04183
# Poissons Ratio (z) = -0.37969 0.63534
#
# Static dielectric constant tensor:
#      x y z
#    x 1.735120 0.000000 0.015460 
#    y 0.000000 1.725230 0.000000 
#    z 0.015460 0.000000 1.676280 
# 
# From -- ./inp_files/227691.got.cif
#   From: 2010.05.17/outbox.cif.g08.bks.cpg/sg15_114_cif.got.tgz:227691.got - 2010.06.03 18:47:42.
