data_PCOD9262832
_publ_section_title
;
Structure prediction by ZEFSAII (Michael W. Deem and Ramdas Pophale) SiO2 
 PCOD9262832
Probable space group: C 2/C
;
_chemical_formula_sum "Si O2"
_cell_formula_units_Z 44
_cell_length_a 22.893203
_cell_length_b 26.415376
_cell_length_c 5.334053
_cell_angle_alpha 90.000000
_cell_angle_beta 37.095600
_cell_angle_gamma 90.000000
_cell_volume 1945.555681
_symmetry_space_group_name_H-M "C 2/C"
_symmetry_group_IT_number 15
_symmetry_cell_setting 'monoclinic'
loop_
_space_group_symop_operation_xyz
x,y,z
-x,y,1/2-z
-x,-y,-z
x,-y,1/2+z
1/2+x,1/2+y,z
1/2-x,1/2+y,1/2-z
1/2-x,1/2-y,-z
1/2+x,1/2-y,1/2+z
loop_
_atom_site_type_symbol
_atom_site_label
_atom_site_fract_x
_atom_site_fract_y
_atom_site_fract_z
Si Si1 0.367382 0.693674 0.592815
Si Si2 0.000000 0.465126 0.750000
Si Si3 0.868104 0.310275 0.598416
Si Si4 0.108914 0.019956 0.589615
Si Si5 0.367994 0.129736 0.600120
Si Si6 0.865725 0.135089 0.100044
O O1 0.398972 0.751871 0.487573
O O2 0.397909 0.662471 0.243578
O O3 0.249565 0.692304 0.989072
O O4 0.394663 0.666939 0.757740
O O5 0.000000 0.500000 0.500000
O O6 0.088779 0.425743 0.494541
O O7 0.895904 0.336735 0.244487
O O8 0.898744 0.343176 0.735126
O O9 0.100928 0.077968 0.545200
O O10 0.157122 0.989692 0.194709
O O11 0.000000 0.000000 0.000000
O O12 0.251303 0.129983 0.993522
#
# Coordination Sequence:
#
# PCOD9262832 Si02
#       6
#     8   4   8   8   8   8
#     4   9  17  30  55  88 115 137 175 226 270 329
#     4  12  26  42  58  78 110 150 194 246 292 326
#     4   9  17  33  56  84 114 143 173 219 282 334
#     4  10  21  36  54  74 103 146 185 224 273 318
#     4  10  21  36  57  82 112 145 183 228 277 338
#     4  10  19  33  56  86 111 142 187 229 271 328
#
# _framework density 22.615648
#
# number of rings (size 3 to 8) (size 9 to 14) (size 15 to 20)
#    0.000    2.182    0.000    3.273    0.000    5.818 
#    0.000    0.000    0.000   21.818    0.000    0.000 
#    0.000    0.000    0.000    0.000    0.000    0.000 
#
# Total GULP energy -123043.062827 kJ/mol
# GULP energy per Si atom -5592.866492 kJ/mol
# Density = 2.256417 g / cm^3
# Si number density = 22.615648 Si / 1000 Ang^3
#
#
#
# Elastic Constant Matrix: (Units=GPa)
#
#
# Indices 1 2 3 4 5 6 
#
# 1 162.9776 83.7771 81.6566 0.0000 37.8647 0.0000
# 2 83.7771 215.2239 78.2429 0.0000 46.5147 0.0000
# 3 81.6566 78.2429 89.4358 0.0000 39.0945 0.0000
# 4 0.0000 0.0000 0.0000 49.3468 0.0000 4.4556
# 5 37.8647 46.5147 39.0945 0.0000 65.5856 0.0000
# 6 0.0000 0.0000 0.0000 4.4556 0.0000 47.5650
#
#
#
# Elastic Compliance Matrix: (Units=1/GPa)
#
#
# Indices 1 2 3 4 5 6 
#
# 1 0.011447 -0.000939 -0.009510 0.000000 -0.000274 0.000000
# 2 -0.000939 0.007039 -0.004537 0.000000 -0.001745 0.000000
# 3 -0.009510 -0.004537 0.027084 0.000000 -0.007436 0.000000
# 4 0.000000 0.000000 0.000000 0.020438 0.000000 -0.001914
# 5 -0.000274 -0.001745 -0.007436 0.000000 0.021075 0.000000
# 6 0.000000 0.000000 0.000000 -0.001914 0.000000 0.021203
#
#
# Mechanical properties :
#
#
# Convention : Reuss Voigt Hill
#
# Bulk Modulus (GPa) = 64.11758 106.11007 85.11383
# Shear Modulus (GPa) = 34.85365 47.43020 41.14193
#
# Velocity S-wave (km/s) = 3.92998 4.58452 4.26981
# Velocity P-wave (km/s) = 7.00040 8.66282 7.87560
#
# Compressibility (1/GPa) = 0.01559635
#
# Stress axis : x y z
#
# Youngs Moduli (GPa) = 87.35889 142.07359 36.92273
#
# Poissons Ratio (x) = 0.13347 0.35113
# Poissons Ratio (y) = 0.08207 0.16753
# Poissons Ratio (z) = 0.83076 0.64462
#
# Static dielectric constant tensor:
#      x y z
#    x 1.890020 0.000000 -0.060410 
#    y 0.000000 1.772200 0.000000 
#    z -0.060410 0.000000 1.802530 
# 
# From -- ./inp_files/10266.got.cif
#   From: 2010.05.17/outbox.cif.g08.bks.cpg/sg15_6_cif.got.tgz:10266.got - 2010.06.03 18:47:42.
