data_PCOD9262090
_publ_section_title
;
Structure prediction by ZEFSAII (Michael W. Deem and Ramdas Pophale) SiO2 
 PCOD9262090
Probable space group: C 2/C
;
_chemical_formula_sum "Si O2"
_cell_formula_units_Z 40
_cell_length_a 19.568102
_cell_length_b 18.611781
_cell_length_c 5.289769
_cell_angle_alpha 90.000000
_cell_angle_beta 87.437171
_cell_angle_gamma 90.000000
_cell_volume 1924.592286
_symmetry_space_group_name_H-M "C 2/C"
_symmetry_group_IT_number 15
_symmetry_cell_setting 'monoclinic'
loop_
_space_group_symop_operation_xyz
x,y,z
-x,y,1/2-z
-x,-y,-z
x,-y,1/2+z
1/2+x,1/2+y,z
1/2-x,1/2+y,1/2-z
1/2-x,1/2-y,-z
1/2+x,1/2-y,1/2+z
loop_
_atom_site_type_symbol
_atom_site_label
_atom_site_fract_x
_atom_site_fract_y
_atom_site_fract_z
Si Si1 0.519957 0.731782 0.494258
Si Si2 0.214379 0.835089 0.294542
Si Si3 0.038017 0.391003 0.995457
Si Si4 0.666586 0.283226 0.802702
Si Si5 0.811257 0.546069 0.011652
O O1 0.500000 0.688624 0.250000
O O2 0.474586 0.804758 0.506083
O O3 0.599170 0.751584 0.439228
O O4 0.500000 0.692199 0.750000
O O5 0.272403 0.773995 0.240461
O O6 0.159301 0.810344 0.515383
O O7 0.252723 0.899985 0.426839
O O8 0.185980 0.842563 0.013821
O O9 0.116439 0.412180 0.005306
O O10 0.000000 0.418170 0.250000
O O11 0.000000 0.417493 0.750000
O O12 0.808305 0.484238 0.797236
#
# Coordination Sequence:
#
# PCOD9262090 Si02
#       5
#     8   8   8   8   8
#     4  10  19  32  53  80 113 145 177 225 290 345
#     4  10  21  37  56  80 109 145 197 244 286 332
#     4  10  21  35  52  73 109 153 193 228 268 320
#     4  10  20  35  58  81 108 148 188 241 297 337
#     4  12  25  39  56  80 116 159 200 233 268 330
#
# _framework density 20.783622999999999
#
# number of rings (size 3 to 8) (size 9 to 14) (size 15 to 20)
#    0.000    1.600    0.000    6.000    0.000   12.000 
#    0.000    0.000    0.000    0.000    0.000    0.000 
#    0.000   56.000    0.000    0.000    0.000    0.000 
#
# Total GULP energy -111472.182658 kJ/mol
# GULP energy per Si atom -5573.609133 kJ/mol
# Density = 2.073632 g / cm^3
# Si number density = 20.783623 Si / 1000 Ang^3
#
#
#
# Elastic Constant Matrix: (Units=GPa)
#
#
# Indices 1 2 3 4 5 6 
#
# 1 56.0039 20.4945 30.7523 0.0000 -8.7815 0.0000
# 2 20.4945 31.7417 2.1220 0.0000 2.8937 0.0000
# 3 30.7523 2.1220 173.3939 0.0000 -2.4044 0.0000
# 4 0.0000 0.0000 0.0000 -179.2389 0.0000 -67.6603
# 5 -8.7815 2.8937 -2.4044 0.0000 36.1107 0.0000
# 6 0.0000 0.0000 0.0000 -67.6603 0.0000 7.0835
#
#
#
# Elastic Compliance Matrix: (Units=1/GPa)
#
#
# Indices 1 2 3 4 5 6 
#
# 1 0.028672 -0.018941 -0.004740 0.000000 0.008175 0.000000
# 2 -0.018941 0.044280 0.002707 0.000000 -0.007974 0.000000
# 3 -0.004740 0.002707 0.006562 0.000000 -0.000933 0.000000
# 4 0.000000 0.000000 0.000000 -0.001211 0.000000 -0.011571
# 5 0.008175 -0.007974 -0.000933 0.000000 0.030257 0.000000
# 6 0.000000 0.000000 0.000000 -0.011571 0.000000 0.030652
#
#
# Mechanical properties :
#
#
# Convention : Reuss Voigt Hill
#
# Bulk Modulus (GPa) = 26.62022 40.87525 33.74773
# Shear Modulus (GPa) = 25.81567 -13.35757 6.22905
#
# Velocity S-wave (km/s) = 3.52819 -2.53790 1.73309
# Velocity P-wave (km/s) = 5.42527 3.33494 4.50308
#
# Compressibility (1/GPa) = 0.03756543
#
# Stress axis : x y z
#
# Youngs Moduli (GPa) = 34.87751 22.58376 152.39700
#
# Poissons Ratio (x) = 0.42775 0.72235
# Poissons Ratio (y) = 0.66060 -0.41250
# Poissons Ratio (z) = 0.16532 -0.06113
#
# Static dielectric constant tensor:
#      x y z
#    x 1.317340 0.000000 -0.422130 
#    y 0.000000 1.761700 0.000000 
#    z -0.422130 0.000000 1.456120 
# 
# From -- ./inp_files/9809.got.cif
#   From: 2010.05.17/outbox.cif.g08.bks.cpg/sg15_5_cif.got.tgz:9809.got - 2010.06.03 18:47:42.
