data_PCOD9262642
_publ_section_title
;
Structure prediction by ZEFSAII (Michael W. Deem and Ramdas Pophale) SiO2 
 PCOD9262642
Probable space group: C 2/C
;
_chemical_formula_sum "Si O2"
_cell_formula_units_Z 48
_cell_length_a 13.966144
_cell_length_b 13.743448
_cell_length_c 16.268109
_cell_angle_alpha 90.000000
_cell_angle_beta 43.775900
_cell_angle_gamma 90.000000
_cell_volume 2160.302962
_symmetry_space_group_name_H-M "C 2/C"
_symmetry_group_IT_number 15
_symmetry_cell_setting 'monoclinic'
loop_
_space_group_symop_operation_xyz
x,y,z
-x,y,1/2-z
-x,-y,-z
x,-y,1/2+z
1/2+x,1/2+y,z
1/2-x,1/2+y,1/2-z
1/2-x,1/2-y,-z
1/2+x,1/2-y,1/2+z
loop_
_atom_site_type_symbol
_atom_site_label
_atom_site_fract_x
_atom_site_fract_y
_atom_site_fract_z
Si Si1 0.773214 0.190397 0.593870
Si Si2 0.892356 0.966212 0.136008
Si Si3 0.166392 0.589622 0.216765
Si Si4 0.000000 0.574825 0.750000
Si Si5 0.346532 0.381684 0.878746
Si Si6 0.000000 0.245176 0.750000
Si Si7 0.843710 0.914414 0.435196
O O1 0.820397 0.131702 0.645027
O O2 0.627845 0.144172 0.654259
O O3 0.750231 0.305136 0.609169
O O4 0.866670 0.159029 0.459431
O O5 0.995404 0.941728 0.144796
O O6 0.780918 0.053112 0.210715
O O7 0.000000 0.000000 0.000000
O O8 0.057881 0.500339 0.281203
O O9 0.072961 0.685653 0.273303
O O10 0.252394 0.593156 0.075509
O O11 0.500000 0.381542 0.750000
O O12 0.288783 0.491241 0.921085
O O13 0.127282 0.183279 0.633030
#
# Coordination Sequence:
#
# PCOD9262642 Si02
#       7
#     8   8   8   4   8   4   8
#     4  10  19  33  54  83 110 143 183 215 268 331
#     4   9  17  36  56  77 108 143 178 225 262 328
#     4   9  19  35  56  75 101 148 187 212 259 336
#     4   9  14  31  54  76 102 139 180 219 248 318
#     4  11  20  32  54  85 112 140 176 229 273 315
#     4  11  22  35  54  80 106 145 182 225 274 314
#     4  11  20  36  55  79 112 138 181 230 272 318
#
# _framework density 22.219104000000002
#
# number of rings (size 3 to 8) (size 9 to 14) (size 15 to 20)
#    0.000    2.000    6.667    0.500    0.000    0.000 
#    3.000    0.000    0.000    0.000    0.000   17.500 
#    0.000    0.000    0.000    0.000    0.000    0.000 
#
# Total GULP energy -133687.132164 kJ/mol
# GULP energy per Si atom -5570.297174 kJ/mol
# Density = 2.216853 g / cm^3
# Si number density = 22.219104 Si / 1000 Ang^3
#
#
#
# Elastic Constant Matrix: (Units=GPa)
#
#
# Indices 1 2 3 4 5 6 
#
# 1 58.2748 26.5129 -1.2542 0.0000 -17.9021 0.0000
# 2 26.5129 142.5352 13.1211 0.0000 -0.0691 0.0000
# 3 -1.2542 13.1211 69.6054 0.0000 -2.6104 0.0000
# 4 0.0000 0.0000 0.0000 22.9692 0.0000 -5.1540
# 5 -17.9021 -0.0691 -2.6104 0.0000 23.0309 0.0000
# 6 0.0000 0.0000 0.0000 -5.1540 0.0000 35.3829
#
#
#
# Elastic Compliance Matrix: (Units=1/GPa)
#
#
# Indices 1 2 3 4 5 6 
#
# 1 0.025662 -0.004962 0.002154 0.000000 0.020177 0.000000
# 2 -0.004962 0.008100 -0.001767 0.000000 -0.004033 0.000000
# 3 0.002154 -0.001767 0.014865 0.000000 0.003354 0.000000
# 4 0.000000 0.000000 0.000000 0.045008 0.000000 0.006556
# 5 0.020177 -0.004033 0.003354 0.000000 0.059472 0.000000
# 6 0.000000 0.000000 0.000000 0.006556 0.000000 0.029217
#
#
# Mechanical properties :
#
#
# Convention : Reuss Voigt Hill
#
# Bulk Modulus (GPa) = 25.33163 38.57501 31.95332
# Shear Modulus (GPa) = 24.43415 31.74564 28.08989
#
# Velocity S-wave (km/s) = 3.31976 3.78399 3.55945
# Velocity P-wave (km/s) = 5.11077 6.04072 5.59510
#
# Compressibility (1/GPa) = 0.03947635
#
# Stress axis : x y z
#
# Youngs Moduli (GPa) = 38.96765 123.46380 67.27436
#
# Poissons Ratio (x) = 0.61263 -0.14494
# Poissons Ratio (y) = 0.19336 0.11891
# Poissons Ratio (z) = -0.08395 0.21822
#
# Static dielectric constant tensor:
#      x y z
#    x 1.572160 0.000000 0.032460 
#    y 0.000000 1.927820 0.000000 
#    z 0.032460 0.000000 1.864060 
# 
# From -- ./inp_files/205313.got.cif
#   From: 2010.05.17/outbox.cif.g08.bks.cpg/sg15_103_cif.got.tgz:205313.got - 2010.06.03 18:47:42.
