data_PCOD9262261
_publ_section_title
;
Structure prediction by ZEFSAII (Michael W. Deem and Ramdas Pophale) SiO2 
 PCOD9262261
Probable space group: C 2/C
;
_chemical_formula_sum "Si O2"
_cell_formula_units_Z 60
_cell_length_a 12.101891
_cell_length_b 14.867293
_cell_length_c 21.775676
_cell_angle_alpha 90.000000
_cell_angle_beta 129.125297
_cell_angle_gamma 90.000000
_cell_volume 3039.405020
_symmetry_space_group_name_H-M "C 2/C"
_symmetry_group_IT_number 15
_symmetry_cell_setting 'monoclinic'
loop_
_space_group_symop_operation_xyz
x,y,z
-x,y,1/2-z
-x,-y,-z
x,-y,1/2+z
1/2+x,1/2+y,z
1/2-x,1/2+y,1/2-z
1/2-x,1/2-y,-z
1/2+x,1/2-y,1/2+z
loop_
_atom_site_type_symbol
_atom_site_label
_atom_site_fract_x
_atom_site_fract_y
_atom_site_fract_z
Si Si1 0.043488 0.724485 0.982649
Si Si2 0.500000 0.087604 0.750000
Si Si3 0.059537 0.909954 0.703393
Si Si4 0.067944 0.108338 0.706576
Si Si5 0.039544 0.127148 0.960298
Si Si6 0.733733 0.510452 0.591245
Si Si7 0.644867 0.212002 0.697234
Si Si8 0.789937 0.881119 0.533806
O O1 0.130118 0.799582 0.973298
O O2 0.920310 0.694170 0.893163
O O3 0.165754 0.651038 0.035184
O O4 0.988680 0.773629 0.023633
O O5 0.368320 0.025305 0.682097
O O6 0.552261 0.154928 0.714042
O O7 0.133865 0.819175 0.706380
O O8 0.000000 0.891358 0.750000
O O9 0.918922 0.927030 0.613507
O O10 0.134140 0.006723 0.727251
O O11 0.195045 0.178075 0.741991
O O12 0.000000 0.117019 0.750000
O O13 0.956250 0.123768 0.611737
O O14 0.899611 0.066576 0.927618
O O15 0.167050 0.084128 0.045666
O O16 0.774596 0.558336 0.541792
#
# Coordination Sequence:
#
# PCOD9262261 Si02
#       8
#     8   4   8   8   8   8   8   8
#     4   9  19  30  56  87 121 158 198 260 311 372
#     4  12  20  32  60 100 134 152 200 284 334 352
#     4  10  21  35  61  93 123 162 209 265 313 382
#     4  11  24  42  63  90 129 178 211 253 318 394
#     4  10  20  36  60  90 124 171 212 251 313 391
#     4  10  19  32  56  93 130 157 201 261 324 373
#     4  11  22  36  60  96 129 159 212 270 323 367
#     4   9  16  30  52  90 126 146 191 255 328 363
#
# _framework density 19.740705999999999
#
# number of rings (size 3 to 8) (size 9 to 14) (size 15 to 20)
#    0.000    1.867    4.667    0.000    5.600    0.000 
#    0.000    0.667    5.867    7.200    0.000    0.000 
#    0.000    0.000    0.000    0.000    0.000    0.000 
#
# Total GULP energy -167205.444060 kJ/mol
# GULP energy per Si atom -5573.514802 kJ/mol
# Density = 1.969578 g / cm^3
# Si number density = 19.740706 Si / 1000 Ang^3
#
#
#
# Elastic Constant Matrix: (Units=GPa)
#
#
# Indices 1 2 3 4 5 6 
#
# 1 41.6067 20.0967 36.8752 0.0000 -16.5942 0.0000
# 2 20.0967 53.8672 40.4432 0.0000 1.7571 0.0000
# 3 36.8752 40.4432 93.7132 0.0000 -1.9910 0.0000
# 4 0.0000 0.0000 0.0000 -3.8089 0.0000 17.6930
# 5 -16.5942 1.7571 -1.9910 0.0000 27.0049 0.0000
# 6 0.0000 0.0000 0.0000 17.6930 0.0000 5.4912
#
#
#
# Elastic Compliance Matrix: (Units=1/GPa)
#
#
# Indices 1 2 3 4 5 6 
#
# 1 0.059096 -0.009343 -0.018466 0.000000 0.035561 0.000000
# 2 -0.009343 0.029133 -0.009072 0.000000 -0.008306 0.000000
# 3 -0.018466 -0.009072 0.021658 0.000000 -0.009160 0.000000
# 4 0.000000 0.000000 0.000000 -0.016443 0.000000 0.052980
# 5 0.035561 -0.008306 -0.009160 0.000000 0.058747 0.000000
# 6 0.000000 0.000000 0.000000 0.052980 0.000000 0.011405
#
#
# Mechanical properties :
#
#
# Convention : Reuss Voigt Hill
#
# Bulk Modulus (GPa) = 27.68325 42.66859 35.17592
# Shear Modulus (GPa) = 20.04803 11.85558 15.95180
#
# Velocity S-wave (km/s) = 3.19026 2.45330 2.84574
# Velocity P-wave (km/s) = 5.25587 5.44852 5.35306
#
# Compressibility (1/GPa) = 0.03612293
#
# Stress axis : x y z
#
# Youngs Moduli (GPa) = 16.92148 34.32591 46.17275
#
# Poissons Ratio (x) = 0.32072 0.85263
# Poissons Ratio (y) = 0.15810 0.41890
# Poissons Ratio (z) = 0.31247 0.31142
#
# Static dielectric constant tensor:
#      x y z
#    x 1.688660 0.000000 0.035660 
#    y 0.000000 1.719990 0.000000 
#    z 0.035660 0.000000 1.143670 
# 
# From -- ./inp_files/269968.got.cif
#   From: 2010.05.17/outbox.cif.g08.bks.cpg/sg15_135_cif.got.tgz:269968.got - 2010.06.03 18:47:42.
