data_PCOD9262842
_publ_section_title
;
Structure prediction by ZEFSAII (Michael W. Deem and Ramdas Pophale) SiO2 
 PCOD9262842
Probable space group: C 2/C
;
_chemical_formula_sum "Si O2"
_cell_formula_units_Z 52
_cell_length_a 7.063980
_cell_length_b 29.663874
_cell_length_c 10.062937
_cell_angle_alpha 90.000000
_cell_angle_beta 109.478132
_cell_angle_gamma 90.000000
_cell_volume 1987.958418
_symmetry_space_group_name_H-M "C 2/C"
_symmetry_group_IT_number 15
_symmetry_cell_setting 'monoclinic'
loop_
_space_group_symop_operation_xyz
x,y,z
-x,y,1/2-z
-x,-y,-z
x,-y,1/2+z
1/2+x,1/2+y,z
1/2-x,1/2+y,1/2-z
1/2-x,1/2-y,-z
1/2+x,1/2-y,1/2+z
loop_
_atom_site_type_symbol
_atom_site_label
_atom_site_fract_x
_atom_site_fract_y
_atom_site_fract_z
Si Si1 0.716764 0.786408 0.647665
Si Si2 0.853459 0.187655 0.898036
Si Si3 0.671171 0.950303 0.600259
Si Si4 0.203331 0.319231 0.943955
Si Si5 0.222058 0.419865 0.908272
Si Si6 0.677893 0.411538 0.119584
Si Si7 0.000000 0.982901 0.250000
O O1 0.829610 0.810912 0.553915
O O2 0.757024 0.733156 0.670185
O O3 0.737916 0.808294 0.796258
O O4 0.482294 0.789716 0.552840
O O5 0.092533 0.189048 0.929145
O O6 0.783663 0.139503 0.826643
O O7 0.730644 0.925140 0.751573
O O8 0.433769 0.958111 0.576176
O O9 0.677502 0.922431 0.467112
O O10 0.856886 0.985275 0.628596
O O11 0.137279 0.371284 0.930916
O O12 0.447783 0.416400 0.013602
O O13 0.668963 0.450730 0.224985
#
# Coordination Sequence:
#
# PCOD9262842 Si02
#       7
#     8   8   8   8   8   8   4
#     4  10  19  33  56  87 113 145 192 241 282 349
#     4  10  21  35  58  82 115 157 191 232 296 345
#     4  11  21  40  63  89 114 152 203 258 303 359
#     4  10  19  34  57  85 115 146 192 243 289 345
#     4  10  21  38  67  91 112 156 206 252 306 354
#     4  11  23  43  58  86 125 160 198 252 300 364
#     4  12  26  40  60  88 124 162 204 248 316 366
#
# _framework density 26.157489000000002
#
# number of rings (size 3 to 8) (size 9 to 14) (size 15 to 20)
#    0.000    1.538    1.538    5.077    0.000    4.308 
#    2.769    0.000    0.000    3.692    0.000    0.000 
#    0.000    0.000    0.000    0.000    0.000    0.000 
#
# Total GULP energy -145387.672391 kJ/mol
# GULP energy per Si atom -5591.833553 kJ/mol
# Density = 2.609795 g / cm^3
# Si number density = 26.157489 Si / 1000 Ang^3
#
#
#
# Elastic Constant Matrix: (Units=GPa)
#
#
# Indices 1 2 3 4 5 6 
#
# 1 87.9439 22.6705 13.5577 0.0000 -19.3989 0.0000
# 2 22.6705 116.5726 0.9477 0.0000 -9.7539 0.0000
# 3 13.5577 0.9477 35.4939 0.0000 -9.8800 0.0000
# 4 0.0000 0.0000 0.0000 18.2696 0.0000 -24.0878
# 5 -19.3989 -9.7539 -9.8800 0.0000 42.1947 0.0000
# 6 0.0000 0.0000 0.0000 -24.0878 0.0000 16.4633
#
#
#
# Elastic Compliance Matrix: (Units=1/GPa)
#
#
# Indices 1 2 3 4 5 6 
#
# 1 0.013593 -0.002207 -0.003782 0.000000 0.004854 0.000000
# 2 -0.002207 0.009110 0.000966 0.000000 0.001318 0.000000
# 3 -0.003782 0.000966 0.031205 0.000000 0.005791 0.000000
# 4 0.000000 0.000000 0.000000 -0.058914 0.000000 -0.086199
# 5 0.004854 0.001318 0.005791 0.000000 0.027592 0.000000
# 6 0.000000 0.000000 0.000000 -0.086199 0.000000 -0.065378
#
#
# Mechanical properties :
#
#
# Convention : Reuss Voigt Hill
#
# Bulk Modulus (GPa) = 22.79828 34.92913 28.86371
# Shear Modulus (GPa) = -275.83792 28.90782 -123.46505
#
# Velocity S-wave (km/s) = -10.28016 3.32798 -6.87773
# Velocity P-wave (km/s) = 11.49670 5.30562 7.21195
#
# Compressibility (1/GPa) = 0.04386296
#
# Stress axis : x y z
#
# Youngs Moduli (GPa) = 73.56462 109.77085 32.04637
#
# Poissons Ratio (x) = 0.24223 0.12121
# Poissons Ratio (y) = 0.16234 -0.03097
# Poissons Ratio (z) = 0.27825 -0.10609
#
# Static dielectric constant tensor:
#      x y z
#    x 2.014430 0.000000 0.031910 
#    y 0.000000 2.061340 0.000000 
#    z 0.031910 0.000000 2.061770 
# 
# From -- ./inp_files/80812.got.cif
#   From: 2010.05.17/outbox.cif.g08.bks.cpg/sg15_41_cif.got.tgz:80812.got - 2010.06.03 18:47:42.
