data_PCOD9262977
_publ_section_title
;
Structure prediction by ZEFSAII (Michael W. Deem and Ramdas Pophale) SiO2 
 PCOD9262977
Probable space group: C 2/C
;
_chemical_formula_sum "Si O2"
_cell_formula_units_Z 40
_cell_length_a 10.058405
_cell_length_b 15.107945
_cell_length_c 12.250460
_cell_angle_alpha 90.000000
_cell_angle_beta 69.253137
_cell_angle_gamma 90.000000
_cell_volume 1740.885979
_symmetry_space_group_name_H-M "C 2/C"
_symmetry_group_IT_number 15
_symmetry_cell_setting 'monoclinic'
loop_
_space_group_symop_operation_xyz
x,y,z
-x,y,1/2-z
-x,-y,-z
x,-y,1/2+z
1/2+x,1/2+y,z
1/2-x,1/2+y,1/2-z
1/2-x,1/2-y,-z
1/2+x,1/2-y,1/2+z
loop_
_atom_site_type_symbol
_atom_site_label
_atom_site_fract_x
_atom_site_fract_y
_atom_site_fract_z
Si Si1 0.806772 0.888810 0.625614
Si Si2 0.063631 0.634810 0.016859
Si Si3 0.881406 0.489166 0.191301
Si Si4 0.160345 0.747032 0.694960
Si Si5 0.411864 0.678335 0.513113
O O1 0.689417 0.867597 0.568522
O O2 0.757804 0.973981 0.708224
O O3 0.807277 0.806897 0.710444
O O4 0.963802 0.893117 0.529065
O O5 0.124576 0.594069 0.887200
O O6 0.941604 0.569398 0.097893
O O7 0.993911 0.730369 0.020393
O O8 0.000000 0.477922 0.250000
O O9 0.279005 0.674524 0.633165
O O10 0.152978 0.809801 0.589283
O O11 0.000000 0.713219 0.750000
#
# Coordination Sequence:
#
# PCOD9262977 Si02
#       5
#     8   8   8   8   8
#     4  10  19  35  58  90 123 156 196 258 301 347
#     4  10  19  34  57  90 120 161 206 244 297 373
#     4   9  19  34  56  86 126 164 203 244 295 359
#     4   9  19  34  55  87 116 155 197 246 306 354
#     4  10  19  33  58  90 117 157 205 247 301 365
#
# _framework density 22.976806
#
# number of rings (size 3 to 8) (size 9 to 14) (size 15 to 20)
#    0.000    2.400    2.000    0.600    0.000    2.400 
#    0.000    0.000    0.000   10.800    0.000    0.000 
#    0.000    0.000    0.000    0.000    0.000    0.000 
#
# Total GULP energy -111852.721288 kJ/mol
# GULP energy per Si atom -5592.636064 kJ/mol
# Density = 2.292451 g / cm^3
# Si number density = 22.976806 Si / 1000 Ang^3
#
#
#
# Elastic Constant Matrix: (Units=GPa)
#
#
# Indices 1 2 3 4 5 6 
#
# 1 131.1799 38.0610 68.1441 0.0000 -31.0631 0.0000
# 2 38.0610 94.3135 44.6441 0.0000 -9.9346 0.0000
# 3 68.1441 44.6441 125.4024 0.0000 -11.6493 0.0000
# 4 0.0000 0.0000 0.0000 41.1550 0.0000 3.3161
# 5 -31.0631 -9.9346 -11.6493 0.0000 57.1435 0.0000
# 6 0.0000 0.0000 0.0000 3.3161 0.0000 12.5950
#
#
#
# Elastic Compliance Matrix: (Units=1/GPa)
#
#
# Indices 1 2 3 4 5 6 
#
# 1 0.012253 -0.001771 -0.005543 0.000000 0.005223 0.000000
# 2 -0.001771 0.013106 -0.003650 0.000000 0.000572 0.000000
# 3 -0.005543 -0.003650 0.012178 0.000000 -0.001165 0.000000
# 4 0.000000 0.000000 0.000000 0.024825 0.000000 -0.006536
# 5 0.005223 0.000572 -0.001165 0.000000 0.020201 0.000000
# 6 0.000000 0.000000 0.000000 -0.006536 0.000000 0.081118
#
#
# Mechanical properties :
#
#
# Convention : Reuss Voigt Hill
#
# Bulk Modulus (GPa) = 64.06797 72.51050 68.28923
# Shear Modulus (GPa) = 26.20404 35.51513 30.85958
#
# Velocity S-wave (km/s) = 3.38073 3.93580 3.66878
# Velocity P-wave (km/s) = 6.57141 7.23054 6.90884
#
# Compressibility (1/GPa) = 0.01560842
#
# Stress axis : x y z
#
# Youngs Moduli (GPa) = 81.61298 76.30252 82.11859
#
# Poissons Ratio (x) = 0.13513 0.45515
# Poissons Ratio (y) = 0.14453 0.29976
# Poissons Ratio (z) = 0.45235 0.27853
#
# Static dielectric constant tensor:
#      x y z
#    x 1.829610 0.000000 -0.057500 
#    y 0.000000 1.857760 0.000000 
#    z -0.057500 0.000000 1.892420 
# 
# From -- ./inp_files/76717.got.cif
#   From: 2010.05.17/outbox.cif.g08.bks.cpg/sg15_39_cif.got.tgz:76717.got - 2010.06.03 18:47:42.
