data_PCOD9262622
_publ_section_title
;
Structure prediction by ZEFSAII (Michael W. Deem and Ramdas Pophale) SiO2 
 PCOD9262622
Probable space group: C 2/C
;
_chemical_formula_sum "Si O2"
_cell_formula_units_Z 60
_cell_length_a 6.506134
_cell_length_b 20.744476
_cell_length_c 27.353443
_cell_angle_alpha 90.000000
_cell_angle_beta 68.680525
_cell_angle_gamma 90.000000
_cell_volume 3439.156157
_symmetry_space_group_name_H-M "C 2/C"
_symmetry_group_IT_number 15
_symmetry_cell_setting 'monoclinic'
loop_
_space_group_symop_operation_xyz
x,y,z
-x,y,1/2-z
-x,-y,-z
x,-y,1/2+z
1/2+x,1/2+y,z
1/2-x,1/2+y,1/2-z
1/2-x,1/2-y,-z
1/2+x,1/2-y,1/2+z
loop_
_atom_site_type_symbol
_atom_site_label
_atom_site_fract_x
_atom_site_fract_y
_atom_site_fract_z
Si Si1 0.048831 0.151907 0.298548
Si Si2 0.632215 0.681537 0.018477
Si Si3 0.748167 0.514902 0.461628
Si Si4 0.022444 0.404250 0.473028
Si Si5 0.286157 0.377509 0.616594
Si Si6 0.906637 0.276214 0.654307
Si Si7 0.000000 0.732638 0.250000
Si Si8 0.369217 0.299904 0.451887
O O1 0.093454 0.109134 0.342415
O O2 0.276676 0.190949 0.273071
O O3 0.000000 0.120372 0.250000
O O4 0.846829 0.201253 0.325866
O O5 0.529100 0.662271 0.975155
O O6 0.820214 0.631798 0.016856
O O7 0.750000 0.750000 0.000000
O O8 0.439040 0.674764 0.074586
O O9 0.500000 0.500000 0.500000
O O10 0.852704 0.554999 0.497097
O O11 0.739172 0.560106 0.414934
O O12 0.906506 0.452062 0.444449
O O13 0.190333 0.347467 0.443155
O O14 0.052984 0.341722 0.643829
O O15 0.965551 0.237075 0.699127
O O16 0.987620 0.237593 0.600140
O O17 0.250000 0.250000 0.500000
#
# Coordination Sequence:
#
# PCOD9262622 Si02
#       8
#     8   8   8   8   8   8   4   8
#     4   9  19  33  53  75 110 146 178 231 285 340
#     4  12  21  31  50  78 114 152 187 226 276 341
#     4  11  22  37  52  72 113 155 196 229 262 338
#     4  11  22  35  50  72 115 152 191 228 268 322
#     4  11  20  31  51  78 108 150 189 221 281 338
#     4  10  19  33  54  80 116 149 180 231 285 341
#     4   8  18  36  50  80 110 142 188 226 282 350
#     4  12  20  32  49  81 117 152 190 222 278 341
#
# _framework density 17.446141000000001
#
# number of rings (size 3 to 8) (size 9 to 14) (size 15 to 20)
#    0.000    1.333    5.333    0.800    1.867    1.067 
#    0.000    0.000    0.000    0.000    0.000    0.000 
#   70.000    0.000    0.000    0.000    0.000    0.000 
#
# Total GULP energy -167095.429126 kJ/mol
# GULP energy per Si atom -5569.847638 kJ/mol
# Density = 1.740643 g / cm^3
# Si number density = 17.446141 Si / 1000 Ang^3
#
#
#
# Elastic Constant Matrix: (Units=GPa)
#
#
# Indices 1 2 3 4 5 6 
#
# 1 125.6793 35.2593 41.8984 0.0000 -4.3365 0.0000
# 2 35.2593 63.9276 23.2254 0.0000 -1.4185 0.0000
# 3 41.8984 23.2254 101.2748 0.0000 12.7805 0.0000
# 4 0.0000 0.0000 0.0000 15.9384 0.0000 6.8210
# 5 -4.3365 -1.4185 12.7805 0.0000 36.6696 0.0000
# 6 0.0000 0.0000 0.0000 6.8210 0.0000 39.9659
#
#
#
# Elastic Compliance Matrix: (Units=1/GPa)
#
#
# Indices 1 2 3 4 5 6 
#
# 1 0.010482 -0.004415 -0.003618 0.000000 0.002330 0.000000
# 2 -0.004415 0.019083 -0.002695 0.000000 0.001156 0.000000
# 3 -0.003618 -0.002695 0.012611 0.000000 -0.004927 0.000000
# 4 0.000000 0.000000 0.000000 0.067685 0.000000 -0.011552
# 5 0.002330 0.001156 -0.004927 0.000000 0.029308 0.000000
# 6 0.000000 0.000000 0.000000 -0.011552 0.000000 0.026993
#
#
# Mechanical properties :
#
#
# Convention : Reuss Voigt Hill
#
# Bulk Modulus (GPa) = 48.26632 54.62757 51.44694
# Shear Modulus (GPa) = 25.70359 31.21469 28.45914
#
# Velocity S-wave (km/s) = 3.84254 4.23449 4.04326
# Velocity P-wave (km/s) = 6.88569 7.43559 7.16591
#
# Compressibility (1/GPa) = 0.02071838
#
# Stress axis : x y z
#
# Youngs Moduli (GPa) = 95.40186 52.40312 79.29652
#
# Poissons Ratio (x) = 0.23137 0.28689
# Poissons Ratio (y) = 0.42122 0.21374
# Poissons Ratio (z) = 0.34516 0.14125
#
# Static dielectric constant tensor:
#      x y z
#    x 1.660900 0.000000 0.021070 
#    y 0.000000 1.616020 0.000000 
#    z 0.021070 0.000000 1.626500 
# 
# From -- ./inp_files/286359.got.cif
#   From: 2010.05.17/outbox.cif.g08.bks.cpg/sg15_144_cif.got.tgz:286359.got - 2010.06.03 18:47:42.
