data_PCOD9262932
_publ_section_title
;
Structure prediction by ZEFSAII (Michael W. Deem and Ramdas Pophale) SiO2 
 PCOD9262932
Probable space group: C 2/C
;
_chemical_formula_sum "Si O2"
_cell_formula_units_Z 40
_cell_length_a 14.030898
_cell_length_b 20.883660
_cell_length_c 5.272396
_cell_angle_alpha 90.000000
_cell_angle_beta 92.163025
_cell_angle_gamma 90.000000
_cell_volume 1543.798271
_symmetry_space_group_name_H-M "C 2/C"
_symmetry_group_IT_number 15
_symmetry_cell_setting 'monoclinic'
loop_
_space_group_symop_operation_xyz
x,y,z
-x,y,1/2-z
-x,-y,-z
x,-y,1/2+z
1/2+x,1/2+y,z
1/2-x,1/2+y,1/2-z
1/2-x,1/2-y,-z
1/2+x,1/2-y,1/2+z
loop_
_atom_site_type_symbol
_atom_site_label
_atom_site_fract_x
_atom_site_fract_y
_atom_site_fract_z
Si Si1 0.318538 0.086386 0.298008
Si Si2 0.058545 0.078981 0.014557
Si Si3 0.867457 0.714244 0.281382
Si Si4 0.364110 0.714430 0.277825
Si Si5 0.251738 0.945748 0.297633
O O1 0.394009 0.141499 0.367341
O O2 0.244614 0.088719 0.526967
O O3 0.318864 0.008547 0.273602
O O4 0.298284 0.101921 0.002773
O O5 0.098421 0.145493 0.130393
O O6 0.000000 0.050855 0.250000
O O7 0.152116 0.039979 0.929237
O O8 0.000000 0.090115 0.750000
O O9 0.751065 0.713798 0.258854
O O10 0.897282 0.763123 0.504541
O O11 0.894539 0.737878 0.006198
#
# Coordination Sequence:
#
# PCOD9262932 Si02
#       5
#     8   8   8   8   8
#     4  10  19  35  54  74 106 137 183 239 271 319
#     4  12  24  38  54  74 115 157 196 228 249 319
#     4  10  19  33  58  76 100 131 183 244 284 331
#     4  10  21  33  54  80  97 137 191 225 291 317
#     4  10  21  35  52  74 106 149 184 218 275 311
#
# _framework density 25.910119999999999
#
# number of rings (size 3 to 8) (size 9 to 14) (size 15 to 20)
#    0.000    1.600    2.000    3.600    5.600    0.000 
#    0.000   12.000    0.000    0.000    0.000    0.000 
#    0.000    0.000    0.000  252.000    0.000    0.000 
#
# Total GULP energy -111470.476812 kJ/mol
# GULP energy per Si atom -5573.523841 kJ/mol
# Density = 2.585115 g / cm^3
# Si number density = 25.910120 Si / 1000 Ang^3
#
#
#
# Elastic Constant Matrix: (Units=GPa)
#
#
# Indices 1 2 3 4 5 6 
#
# 1 65.1650 16.9078 5.9237 0.0000 -9.6985 0.0000
# 2 16.9078 142.1484 41.4468 0.0000 12.7749 0.0000
# 3 5.9237 41.4468 208.6975 0.0000 -1.7156 0.0000
# 4 0.0000 0.0000 0.0000 34.8328 0.0000 -1.1564
# 5 -9.6985 12.7749 -1.7156 0.0000 14.3285 0.0000
# 6 0.0000 0.0000 0.0000 -1.1564 0.0000 23.1417
#
#
#
# Elastic Compliance Matrix: (Units=1/GPa)
#
#
# Indices 1 2 3 4 5 6 
#
# 1 0.018678 -0.003765 0.000349 0.000000 0.016042 0.000000
# 2 -0.003765 0.008962 -0.001761 0.000000 -0.010750 0.000000
# 3 0.000349 -0.001761 0.005151 0.000000 0.002424 0.000000
# 4 0.000000 0.000000 0.000000 0.028756 0.000000 0.001437
# 5 0.016042 -0.010750 0.002424 0.000000 0.090524 0.000000
# 6 0.000000 0.000000 0.000000 0.001437 0.000000 0.043284
#
#
# Mechanical properties :
#
#
# Convention : Reuss Voigt Hill
#
# Bulk Modulus (GPa) = 44.56764 60.50752 52.53758
# Shear Modulus (GPa) = 23.45327 37.90942 30.68134
#
# Velocity S-wave (km/s) = 3.01188 3.82922 3.44487
# Velocity P-wave (km/s) = 5.41604 6.55394 6.01197
#
# Compressibility (1/GPa) = 0.02243781
#
# Stress axis : x y z
#
# Youngs Moduli (GPa) = 53.53809 111.57647 194.12035
#
# Poissons Ratio (x) = 0.42011 -0.06784
# Poissons Ratio (y) = 0.20158 0.34193
# Poissons Ratio (z) = -0.01871 0.19653
#
# Static dielectric constant tensor:
#      x y z
#    x 2.127390 0.000000 0.026370 
#    y 0.000000 2.139840 0.000000 
#    z 0.026370 0.000000 2.082410 
# 
# From -- ./inp_files/10206.got.cif
#   From: 2010.05.17/outbox.cif.g08.bks.cpg/sg15_6_cif.got.tgz:10206.got - 2010.06.03 18:47:42.
