data_PCOD9262572
_publ_section_title
;
Structure prediction by ZEFSAII (Michael W. Deem and Ramdas Pophale) SiO2 
 PCOD9262572
Probable space group: C 2/C
;
_chemical_formula_sum "Si O2"
_cell_formula_units_Z 56
_cell_length_a 16.323367
_cell_length_b 29.404020
_cell_length_c 9.813426
_cell_angle_alpha 90.000000
_cell_angle_beta 126.838297
_cell_angle_gamma 90.000000
_cell_volume 3769.698674
_symmetry_space_group_name_H-M "C 2/C"
_symmetry_group_IT_number 15
_symmetry_cell_setting 'monoclinic'
loop_
_space_group_symop_operation_xyz
x,y,z
-x,y,1/2-z
-x,-y,-z
x,-y,1/2+z
1/2+x,1/2+y,z
1/2-x,1/2+y,1/2-z
1/2-x,1/2-y,-z
1/2+x,1/2-y,1/2+z
loop_
_atom_site_type_symbol
_atom_site_label
_atom_site_fract_x
_atom_site_fract_y
_atom_site_fract_z
Si Si1 0.194165 0.680913 0.957784
Si Si2 0.990687 0.453911 0.405696
Si Si3 0.899222 0.232679 0.557974
Si Si4 0.151640 0.622944 0.657421
Si Si5 0.286619 0.173521 0.028464
Si Si6 0.420770 0.864174 0.909121
Si Si7 0.401693 0.275206 0.742978
O O1 0.122906 0.663124 0.007186
O O2 0.307605 0.690555 0.125112
O O3 0.194298 0.645260 0.835836
O O4 0.143948 0.726934 0.851060
O O5 0.075353 0.417426 0.544178
O O6 0.000000 0.458616 0.250000
O O7 0.000000 0.500000 0.500000
O O8 0.884825 0.428150 0.343238
O O9 0.819973 0.192634 0.519424
O O10 0.842132 0.280708 0.528337
O O11 0.926846 0.228175 0.427066
O O12 0.000000 0.230981 0.750000
O O13 0.222091 0.636730 0.601444
O O14 0.041138 0.645939 0.510959
O O15 0.355578 0.150275 0.214080
O O16 0.500000 0.286221 0.750000
#
# Coordination Sequence:
#
# PCOD9262572 Si02
#       7
#     8   8   8   8   8   8   8
#     4  11  20  36  50  71 100 140 189 210 257 304
#     4  10  22  34  52  81 110 135 167 218 265 319
#     4  11  24  35  47  72 107 134 180 232 254 296
#     4  10  19  33  54  74  99 141 170 208 250 325
#     4  11  22  34  50  73 100 144 181 209 265 306
#     4  10  19  35  52  72 103 139 173 206 251 324
#     4  11  24  33  51  71 101 139 181 232 251 293
#
# _framework density 14.855297999999999
#
# number of rings (size 3 to 8) (size 9 to 14) (size 15 to 20)
#    0.857    0.571    4.286    2.571    6.000    0.000 
#    0.000    0.000    0.000    0.000    0.000    0.000 
#    0.000    6.857    0.000    0.000    0.000    0.000 
#
# Total GULP energy -155992.134458 kJ/mol
# GULP energy per Si atom -5571.147659 kJ/mol
# Density = 1.482149 g / cm^3
# Si number density = 14.855298 Si / 1000 Ang^3
#
#
#
# Elastic Constant Matrix: (Units=GPa)
#
#
# Indices 1 2 3 4 5 6 
#
# 1 37.9676 -6.9797 -94.6227 0.0000 -6.0942 0.0000
# 2 -6.9797 54.2360 -77.1047 0.0000 -3.2416 0.0000
# 3 -94.6227 -77.1047 -335.8707 0.0000 11.3291 0.0000
# 4 0.0000 0.0000 0.0000 20.0202 0.0000 6.1967
# 5 -6.0942 -3.2416 11.3291 0.0000 30.5634 0.0000
# 6 0.0000 0.0000 0.0000 6.1967 0.0000 7.9526
#
#
#
# Elastic Compliance Matrix: (Units=1/GPa)
#
#
# Indices 1 2 3 4 5 6 
#
# 1 0.016819 -0.003084 -0.003880 0.000000 0.004465 0.000000
# 2 -0.003084 0.014683 -0.002440 0.000000 0.001847 0.000000
# 3 -0.003880 -0.002440 -0.001342 0.000000 -0.000535 0.000000
# 4 0.000000 0.000000 0.000000 0.065826 0.000000 -0.051292
# 5 0.004465 0.001847 -0.000535 0.000000 0.034003 0.000000
# 6 0.000000 0.000000 0.000000 -0.051292 0.000000 0.165711
#
#
# Mechanical properties :
#
#
# Convention : Reuss Voigt Hill
#
# Bulk Modulus (GPa) = 88.08377 -66.78683 10.64847
# Shear Modulus (GPa) = 15.70889 7.37659 11.54274
#
# Velocity S-wave (km/s) = 3.25539 2.23079 2.79052
# Velocity P-wave (km/s) = 8.57632 6.19844 4.19122
#
# Compressibility (1/GPa) = 0.01135283
#
# Stress axis : x y z
#
# Youngs Moduli (GPa) = 59.45670 68.10526 -744.97116
#
# Poissons Ratio (x) = 0.21005 -2.89024
# Poissons Ratio (y) = 0.18338 -1.81741
# Poissons Ratio (z) = 0.23067 0.16615
#
# Static dielectric constant tensor:
#      x y z
#    x 1.840360 0.000000 -0.857130 
#    y 0.000000 1.488480 0.000000 
#    z -0.857130 0.000000 3.592960 
# 
# From -- ./inp_files/44331.got.cif
#   From: 2010.05.17/outbox.cif.g08.bks.cpg/sg15_23_cif.got.tgz:44331.got - 2010.06.03 18:47:42.
