data_PCOD9262283
_publ_section_title
;
Structure prediction by ZEFSAII (Michael W. Deem and Ramdas Pophale) SiO2 
 PCOD9262283
Probable space group: C 2/C
;
_chemical_formula_sum "Si O2"
_cell_formula_units_Z 64
_cell_length_a 9.905880
_cell_length_b 19.537848
_cell_length_c 20.940683
_cell_angle_alpha 90.000000
_cell_angle_beta 58.551460
_cell_angle_gamma 90.000000
_cell_volume 3457.524025
_symmetry_space_group_name_H-M "C 2/C"
_symmetry_group_IT_number 15
_symmetry_cell_setting 'monoclinic'
loop_
_space_group_symop_operation_xyz
x,y,z
-x,y,1/2-z
-x,-y,-z
x,-y,1/2+z
1/2+x,1/2+y,z
1/2-x,1/2+y,1/2-z
1/2-x,1/2-y,-z
1/2+x,1/2-y,1/2+z
loop_
_atom_site_type_symbol
_atom_site_label
_atom_site_fract_x
_atom_site_fract_y
_atom_site_fract_z
Si Si1 0.408261 0.705357 0.454324
Si Si2 0.242928 0.495345 0.550458
Si Si3 0.985071 0.893032 0.047123
Si Si4 0.803758 0.403468 0.551316
Si Si5 0.445366 0.958417 0.192532
Si Si6 0.828309 0.026274 0.303571
Si Si7 0.579544 0.162998 0.905023
Si Si8 0.579017 0.619002 0.663672
O O1 0.250000 0.750000 0.500000
O O2 0.457574 0.672758 0.509658
O O3 0.352400 0.641505 0.425625
O O4 0.534422 0.759715 0.397902
O O5 0.347180 0.428332 0.512351
O O6 0.353132 0.550717 0.560360
O O7 0.202883 0.530129 0.492503
O O8 0.080354 0.492252 0.629478
O O9 0.979513 0.876904 0.123569
O O10 0.788792 0.426557 0.627242
O O11 0.958012 0.362643 0.489889
O O12 0.500000 0.941160 0.250000
O O13 0.439811 0.891000 0.148565
O O14 0.273582 0.994660 0.229291
O O15 0.000000 0.059303 0.250000
O O16 0.875035 0.960329 0.335164
O O17 0.757331 0.158405 0.885274
O O18 0.500000 0.641345 0.750000
#
# Coordination Sequence:
#
# PCOD9262283 Si02
#       8
#     8   8   8   8   8   8   8   8
#     4   9  19  37  55  80 102 142 193 237 268 330
#     4   9  19  31  53  88 108 142 185 228 285 344
#     4  10  19  32  58  82 112 146 185 237 286 326
#     4   9  17  35  59  78 109 139 187 232 278 330
#     4  10  22  34  55  84 116 149 183 234 285 341
#     4  10  21  34  55  84 119 146 179 234 294 344
#     4   9  20  36  56  80 113 146 191 230 270 336
#     4  10  21  33  54  86 117 149 177 231 291 337
#
# _framework density 18.510355000000001
#
# number of rings (size 3 to 8) (size 9 to 14) (size 15 to 20)
#    0.000    2.500    1.250    0.750    7.000    2.000 
#    0.000    0.625    2.750    0.750    0.000    0.000 
#    0.000    0.000    0.000    0.000    0.000    0.000 
#
# Total GULP energy -178297.711603 kJ/mol
# GULP energy per Si atom -5571.803488 kJ/mol
# Density = 1.846823 g / cm^3
# Si number density = 18.510355 Si / 1000 Ang^3
#
#
#
# Elastic Constant Matrix: (Units=GPa)
#
#
# Indices 1 2 3 4 5 6 
#
# 1 73.9122 14.4169 39.6755 0.0000 6.4789 0.0000
# 2 14.4169 38.6069 22.0144 0.0000 2.5413 0.0000
# 3 39.6755 22.0144 69.9885 0.0000 0.1015 0.0000
# 4 0.0000 0.0000 0.0000 9.5117 0.0000 -2.3225
# 5 6.4789 2.5413 0.1015 0.0000 34.4883 0.0000
# 6 0.0000 0.0000 0.0000 -2.3225 0.0000 21.1169
#
#
#
# Elastic Compliance Matrix: (Units=1/GPa)
#
#
# Indices 1 2 3 4 5 6 
#
# 1 0.019938 -0.000930 -0.011004 0.000000 -0.003644 0.000000
# 2 -0.000930 0.031790 -0.009469 0.000000 -0.002140 0.000000
# 3 -0.011004 -0.009469 0.023501 0.000000 0.002696 0.000000
# 4 0.000000 0.000000 0.000000 0.108034 0.000000 0.011882
# 5 -0.003644 -0.002140 0.002696 0.000000 0.029830 0.000000
# 6 0.000000 0.000000 0.000000 0.011882 0.000000 0.048662
#
#
# Mechanical properties :
#
#
# Convention : Reuss Voigt Hill
#
# Bulk Modulus (GPa) = 30.84424 37.19125 34.01774
# Shear Modulus (GPa) = 15.85447 20.11677 17.98562
#
# Velocity S-wave (km/s) = 2.92981 3.30022 3.12051
# Velocity P-wave (km/s) = 5.30513 5.88708 5.60366
#
# Compressibility (1/GPa) = 0.03242096
#
# Stress axis : x y z
#
# Youngs Moduli (GPa) = 50.15649 31.45675 42.55185
#
# Poissons Ratio (x) = 0.02927 0.46826
# Poissons Ratio (y) = 0.04667 0.40291
# Poissons Ratio (z) = 0.55194 0.29785
#
# Static dielectric constant tensor:
#      x y z
#    x 1.676180 0.000000 -0.024630 
#    y 0.000000 1.642140 0.000000 
#    z -0.024630 0.000000 1.670010 
# 
# From -- ./inp_files/233819.got.cif
#   From: 2010.05.17/outbox.cif.g08.bks.cpg/sg15_117_cif.got.tgz:233819.got - 2010.06.03 18:47:42.
