data_PCOD9262549
_publ_section_title
;
Structure prediction by ZEFSAII (Michael W. Deem and Ramdas Pophale) SiO2 
 PCOD9262549
Probable space group: C 2/C
;
_chemical_formula_sum "Si O2"
_cell_formula_units_Z 60
_cell_length_a 19.146695
_cell_length_b 12.901126
_cell_length_c 17.769051
_cell_angle_alpha 90.000000
_cell_angle_beta 40.129741
_cell_angle_gamma 90.000000
_cell_volume 2828.931755
_symmetry_space_group_name_H-M "C 2/C"
_symmetry_group_IT_number 15
_symmetry_cell_setting 'monoclinic'
loop_
_space_group_symop_operation_xyz
x,y,z
-x,y,1/2-z
-x,-y,-z
x,-y,1/2+z
1/2+x,1/2+y,z
1/2-x,1/2+y,1/2-z
1/2-x,1/2-y,-z
1/2+x,1/2-y,1/2+z
loop_
_atom_site_type_symbol
_atom_site_label
_atom_site_fract_x
_atom_site_fract_y
_atom_site_fract_z
Si Si1 0.369187 0.647170 0.453514
Si Si2 0.500000 0.191275 0.250000
Si Si3 0.688215 0.426803 0.967340
Si Si4 0.837158 0.585425 0.491468
Si Si5 0.726152 0.140226 0.419685
Si Si6 0.192649 0.752032 0.191492
Si Si7 0.585431 0.398023 0.839637
Si Si8 0.469867 0.367137 0.087484
O O1 0.323783 0.548636 0.538156
O O2 0.344514 0.757298 0.511154
O O3 0.308529 0.642350 0.423691
O O4 0.496745 0.624849 0.347877
O O5 0.448189 0.122688 0.360542
O O6 0.601406 0.252978 0.200528
O O7 0.757808 0.362299 0.850388
O O8 0.749983 0.415043 0.994912
O O9 0.569118 0.375946 0.065175
O O10 0.838048 0.468483 0.521910
O O11 0.787404 0.667180 0.591757
O O12 0.800487 0.140206 0.284477
O O13 0.122311 0.784848 0.320277
O O14 0.586100 0.520252 0.858159
O O15 0.531259 0.350514 0.958658
#
# Coordination Sequence:
#
# PCOD9262549 Si02
#       8
#     8   4   8   8   8   8   8   8
#     4   9  20  36  54  80 101 138 179 223 274 309
#     4  10  20  32  50  84 122 132 168 220 278 324
#     4   9  19  33  52  78 109 135 175 216 269 316
#     4  10  19  33  53  83 107 144 171 218 269 321
#     4  10  19  37  57  78 105 138 182 221 267 319
#     4  11  18  32  54  80 110 141 172 212 268 327
#     4  10  20  36  54  77 106 139 182 228 257 312
#     4  10  20  33  54  79 106 142 180 218 263 313
#
# _framework density 21.209419
#
# number of rings (size 3 to 8) (size 9 to 14) (size 15 to 20)
#    0.000    2.133    1.333    3.600    0.000    1.067 
#    9.600    0.000    0.000    0.800    0.000    0.000 
#    0.000    0.000    0.000    0.000    0.000    0.000 
#
# Total GULP energy -167387.954487 kJ/mol
# GULP energy per Si atom -5579.598483 kJ/mol
# Density = 2.116115 g / cm^3
# Si number density = 21.209419 Si / 1000 Ang^3
#
#
#
# Elastic Constant Matrix: (Units=GPa)
#
#
# Indices 1 2 3 4 5 6 
#
# 1 32.0885 1.1100 -8.9913 0.0000 -2.6780 0.0000
# 2 1.1100 124.3488 68.3683 0.0000 -0.5059 0.0000
# 3 -8.9913 68.3683 131.2093 0.0000 5.1654 0.0000
# 4 0.0000 0.0000 0.0000 28.1678 0.0000 -2.7743
# 5 -2.6780 -0.5059 5.1654 0.0000 20.9261 0.0000
# 6 0.0000 0.0000 0.0000 -2.7743 0.0000 12.3043
#
#
#
# Elastic Compliance Matrix: (Units=1/GPa)
#
#
# Indices 1 2 3 4 5 6 
#
# 1 0.032387 -0.001996 0.003128 0.000000 0.003324 0.000000
# 2 -0.001996 0.011457 -0.006167 0.000000 0.001544 0.000000
# 3 0.003128 -0.006167 0.011148 0.000000 -0.002500 0.000000
# 4 0.000000 0.000000 0.000000 0.036308 0.000000 0.008186
# 5 0.003324 0.001544 -0.002500 0.000000 0.048867 0.000000
# 6 0.000000 0.000000 0.000000 0.008186 0.000000 0.083118
#
#
# Mechanical properties :
#
#
# Convention : Reuss Voigt Hill
#
# Bulk Modulus (GPa) = 22.26063 45.40230 33.83146
# Shear Modulus (GPa) = 20.13470 27.42363 23.77916
#
# Velocity S-wave (km/s) = 3.08446 3.59972 3.35201
# Velocity P-wave (km/s) = 4.81701 6.22338 5.56480
#
# Compressibility (1/GPa) = 0.04492235
#
# Stress axis : x y z
#
# Youngs Moduli (GPa) = 30.87677 87.28441 89.70431
#
# Poissons Ratio (x) = 0.17418 -0.28062
# Poissons Ratio (y) = 0.06162 0.55323
# Poissons Ratio (z) = -0.09659 0.53830
#
# Static dielectric constant tensor:
#      x y z
#    x 1.838280 0.000000 0.036180 
#    y 0.000000 1.766980 0.000000 
#    z 0.036180 0.000000 1.750370 
# 
# From -- ./inp_files/255541.got.cif
#   From: 2010.05.17/outbox.cif.g08.bks.cpg/sg15_128_cif.got.tgz:255541.got - 2010.06.03 18:47:42.
