data_PCOD9262732
_publ_section_title
;
Structure prediction by ZEFSAII (Michael W. Deem and Ramdas Pophale) SiO2 
 PCOD9262732
Probable space group: C 2/C
;
_chemical_formula_sum "Si O2"
_cell_formula_units_Z 48
_cell_length_a 18.142119
_cell_length_b 15.594457
_cell_length_c 14.636966
_cell_angle_alpha 90.000000
_cell_angle_beta 32.223260
_cell_angle_gamma 90.000000
_cell_volume 2208.083864
_symmetry_space_group_name_H-M "C 2/C"
_symmetry_group_IT_number 15
_symmetry_cell_setting 'monoclinic'
loop_
_space_group_symop_operation_xyz
x,y,z
-x,y,1/2-z
-x,-y,-z
x,-y,1/2+z
1/2+x,1/2+y,z
1/2-x,1/2+y,1/2-z
1/2-x,1/2-y,-z
1/2+x,1/2-y,1/2+z
loop_
_atom_site_type_symbol
_atom_site_label
_atom_site_fract_x
_atom_site_fract_y
_atom_site_fract_z
Si Si1 0.959814 0.466704 0.642222
Si Si2 0.732510 0.513212 0.618508
Si Si3 0.969927 0.866593 0.077041
Si Si4 0.621089 0.217471 0.195972
Si Si5 0.538595 0.367275 0.804066
Si Si6 0.671137 0.474200 0.985079
O O1 0.894051 0.372403 0.732109
O O2 0.820462 0.517347 0.812687
O O3 0.000000 0.500000 0.500000
O O4 0.103892 0.474722 0.544825
O O5 0.646526 0.557573 0.791368
O O6 0.688221 0.413649 0.654523
O O7 0.678882 0.558196 0.581619
O O8 0.909309 0.789854 0.198540
O O9 0.004309 0.832600 0.940062
O O10 0.106824 0.904883 0.982967
O O11 0.500000 0.211841 0.250000
O O12 0.750000 0.250000 0.000000
O O13 0.500000 0.318879 0.750000
O O14 0.437820 0.449387 0.903894
#
# Coordination Sequence:
#
# PCOD9262732 Si02
#       6
#     8   8   8   8   8   8
#     4  12  23  36  54  81 117 156 191 231 291 363
#     4  10  19  33  55  84 117 152 195 243 294 353
#     4  11  19  35  57  82 115 151 192 245 303 358
#     4  12  25  39  59  89 122 155 195 250 310 363
#     4   9  19  34  56  83 110 150 199 246 290 350
#     4  10  19  33  55  83 115 150 191 241 293 349
#
# _framework density 21.738305
#
# number of rings (size 3 to 8) (size 9 to 14) (size 15 to 20)
#    0.000    1.333    0.000   11.000    0.000    0.000 
#    0.000    0.000    0.000    3.000    0.000   12.833 
#    0.000    0.000    0.000    1.667    0.000    0.000 
#
# Total GULP energy -133712.796066 kJ/mol
# GULP energy per Si atom -5571.366503 kJ/mol
# Density = 2.168883 g / cm^3
# Si number density = 21.738305 Si / 1000 Ang^3
#
#
#
# Elastic Constant Matrix: (Units=GPa)
#
#
# Indices 1 2 3 4 5 6 
#
# 1 115.3493 17.3125 57.4281 0.0000 14.0171 0.0000
# 2 17.3125 36.0076 21.7276 0.0000 10.0416 0.0000
# 3 57.4281 21.7276 150.1830 0.0000 -3.2690 0.0000
# 4 0.0000 0.0000 0.0000 23.6828 0.0000 14.3846
# 5 14.0171 10.0416 -3.2690 0.0000 66.3069 0.0000
# 6 0.0000 0.0000 0.0000 14.3846 0.0000 17.9183
#
#
#
# Elastic Compliance Matrix: (Units=1/GPa)
#
#
# Indices 1 2 3 4 5 6 
#
# 1 0.011302 -0.002384 -0.004025 0.000000 -0.002227 0.000000
# 2 -0.002384 0.032559 -0.003899 0.000000 -0.004619 0.000000
# 3 -0.004025 -0.003899 0.008803 0.000000 0.001875 0.000000
# 4 0.000000 0.000000 0.000000 0.082405 0.000000 -0.066154
# 5 -0.002227 -0.004619 0.001875 0.000000 0.016344 0.000000
# 6 0.000000 0.000000 0.000000 -0.066154 0.000000 0.108916
#
#
# Mechanical properties :
#
#
# Convention : Reuss Voigt Hill
#
# Bulk Modulus (GPa) = 31.20478 54.94183 43.07331
# Shear Modulus (GPa) = 17.14508 35.25306 26.19907
#
# Velocity S-wave (km/s) = 2.81143 4.03141 3.47537
# Velocity P-wave (km/s) = 4.99247 6.85556 5.99681
#
# Compressibility (1/GPa) = 0.03204637
#
# Stress axis : x y z
#
# Youngs Moduli (GPa) = 88.48235 30.71319 113.60178
#
# Poissons Ratio (x) = 0.07322 0.45727
# Poissons Ratio (y) = 0.21095 0.44298
# Poissons Ratio (z) = 0.35616 0.11976
#
# Static dielectric constant tensor:
#      x y z
#    x 1.890900 0.000000 0.022480 
#    y 0.000000 1.605210 0.000000 
#    z 0.022480 0.000000 1.932770 
# 
# From -- ./inp_files/163180.got.cif
#   From: 2010.05.17/outbox.cif.g08.bks.cpg/sg15_82_cif.got.tgz:163180.got - 2010.06.03 18:47:42.
