data_PCOD9262275
_publ_section_title
;
Structure prediction by ZEFSAII (Michael W. Deem and Ramdas Pophale) SiO2 
 PCOD9262275
Probable space group: C 2/C
;
_chemical_formula_sum "Si O2"
_cell_formula_units_Z 48
_cell_length_a 17.624535
_cell_length_b 8.877452
_cell_length_c 29.058667
_cell_angle_alpha 90.000000
_cell_angle_beta 147.831889
_cell_angle_gamma 90.000000
_cell_volume 2420.605418
_symmetry_space_group_name_H-M "C 2/C"
_symmetry_group_IT_number 15
_symmetry_cell_setting 'monoclinic'
loop_
_space_group_symop_operation_xyz
x,y,z
-x,y,1/2-z
-x,-y,-z
x,-y,1/2+z
1/2+x,1/2+y,z
1/2-x,1/2+y,1/2-z
1/2-x,1/2-y,-z
1/2+x,1/2-y,1/2+z
loop_
_atom_site_type_symbol
_atom_site_label
_atom_site_fract_x
_atom_site_fract_y
_atom_site_fract_z
Si Si1 0.357651 0.550761 0.517424
Si Si2 0.934139 0.879960 0.814891
Si Si3 0.000000 0.767477 0.750000
Si Si4 0.452392 0.183744 0.125290
Si Si5 0.243939 0.475958 0.366916
Si Si6 0.500000 0.222330 0.250000
Si Si7 0.204734 0.557556 0.744731
O O1 0.428942 0.421951 0.584659
O O2 0.434214 0.704291 0.573192
O O3 0.191761 0.585329 0.443483
O O4 0.360353 0.505608 0.465435
O O5 0.865100 0.721290 0.795693
O O6 0.974279 0.861131 0.782536
O O7 0.814574 0.006549 0.762475
O O8 0.137982 0.660232 0.826853
O O9 0.470627 0.279482 0.182600
O O10 0.580477 0.067299 0.184233
O O11 0.285558 0.447280 0.335622
O O12 0.139646 0.620021 0.313721
#
# Coordination Sequence:
#
# PCOD9262275 Si02
#       7
#     8   8   4   8   8   4   8
#     4  10  19  32  57  87 114 147 191 236 280 334
#     4  11  22  37  60  85 113 149 192 236 281 335
#     4   9  20  37  58  82 112 154 192 228 282 348
#     4   9  18  33  54  83 115 149 189 234 281 336
#     4   8  16  33  55  78 108 149 187 219 275 348
#     4   7  12  27  50  74 106 146 182 216 266 334
#     4  10  21  38  58  80 113 152 190 232 283 340
#
# _framework density 19.829749
#
# number of rings (size 3 to 8) (size 9 to 14) (size 15 to 20)
#    0.000    2.667    0.000    4.000    0.000    4.000 
#    0.000    3.333    0.000    7.000    0.000    0.000 
#    0.000    0.000    0.000    0.000    0.000    0.000 
#
# Total GULP energy -133800.120952 kJ/mol
# GULP energy per Si atom -5575.005040 kJ/mol
# Density = 1.978462 g / cm^3
# Si number density = 19.829749 Si / 1000 Ang^3
#
#
#
# Elastic Constant Matrix: (Units=GPa)
#
#
# Indices 1 2 3 4 5 6 
#
# 1 99.1858 50.0077 45.0983 0.0000 -8.0227 0.0000
# 2 50.0077 66.6769 48.0386 0.0000 -13.7076 0.0000
# 3 45.0983 48.0386 127.8268 0.0000 -25.9744 0.0000
# 4 0.0000 0.0000 0.0000 62.9433 0.0000 -26.5697
# 5 -8.0227 -13.7076 -25.9744 0.0000 29.5934 0.0000
# 6 0.0000 0.0000 0.0000 -26.5697 0.0000 25.6234
#
#
#
# Elastic Compliance Matrix: (Units=1/GPa)
#
#
# Indices 1 2 3 4 5 6 
#
# 1 0.016615 -0.011511 -0.002074 0.000000 -0.002648 0.000000
# 2 -0.011511 0.028816 -0.005708 0.000000 0.005217 0.000000
# 3 -0.002074 -0.005708 0.012230 0.000000 0.007528 0.000000
# 4 0.000000 0.000000 0.000000 0.028255 0.000000 0.029298
# 5 -0.002648 0.005217 0.007528 0.000000 0.042097 0.000000
# 6 0.000000 0.000000 0.000000 0.029298 0.000000 0.069407
#
#
# Mechanical properties :
#
#
# Convention : Reuss Voigt Hill
#
# Bulk Modulus (GPa) = 52.42721 64.44206 58.43464
# Shear Modulus (GPa) = 20.63023 33.66835 27.14929
#
# Velocity S-wave (km/s) = 3.22897 4.12499 3.70418
# Velocity P-wave (km/s) = 6.35592 7.43341 6.91568
#
# Compressibility (1/GPa) = 0.01907406
#
# Stress axis : x y z
#
# Youngs Moduli (GPa) = 60.18811 34.70284 81.76923
#
# Poissons Ratio (x) = 0.39947 0.16957
# Poissons Ratio (y) = 0.69284 0.46674
# Poissons Ratio (z) = 0.12482 0.19809
#
# Static dielectric constant tensor:
#      x y z
#    x 1.742420 0.000000 -0.017440 
#    y 0.000000 1.708350 0.000000 
#    z -0.017440 0.000000 1.705740 
# 
# From -- ./inp_files/166435.got.cif
#   From: 2010.05.17/outbox.cif.g08.bks.cpg/sg15_84_cif.got.tgz:166435.got - 2010.06.03 18:47:42.
