data_PCOD9262813
_publ_section_title
;
Structure prediction by ZEFSAII (Michael W. Deem and Ramdas Pophale) SiO2 
 PCOD9262813
Probable space group: C 2/C
;
_chemical_formula_sum "Si O2"
_cell_formula_units_Z 48
_cell_length_a 19.035885
_cell_length_b 9.607874
_cell_length_c 14.622340
_cell_angle_alpha 90.000000
_cell_angle_beta 126.088128
_cell_angle_gamma 90.000000
_cell_volume 2161.169247
_symmetry_space_group_name_H-M "C 2/C"
_symmetry_group_IT_number 15
_symmetry_cell_setting 'monoclinic'
loop_
_space_group_symop_operation_xyz
x,y,z
-x,y,1/2-z
-x,-y,-z
x,-y,1/2+z
1/2+x,1/2+y,z
1/2-x,1/2+y,1/2-z
1/2-x,1/2-y,-z
1/2+x,1/2-y,1/2+z
loop_
_atom_site_type_symbol
_atom_site_label
_atom_site_fract_x
_atom_site_fract_y
_atom_site_fract_z
Si Si1 0.859296 0.594154 0.253090
Si Si2 0.853172 0.911768 0.236556
Si Si3 0.198714 0.403029 0.578916
Si Si4 0.203008 0.089844 0.590572
Si Si5 0.987378 0.624465 0.638905
Si Si6 0.511455 0.423208 0.912541
O O1 0.870625 0.751254 0.227592
O O2 0.831053 0.595981 0.337798
O O3 0.780875 0.517669 0.140398
O O4 0.945834 0.501675 0.317247
O O5 0.824413 0.912861 0.322597
O O6 0.772652 0.982736 0.123436
O O7 0.939153 0.005374 0.294611
O O8 0.233315 0.246182 0.591111
O O9 0.110754 0.422684 0.454576
O O10 0.113451 0.062444 0.467839
O O11 0.005735 0.757898 0.589203
O O12 0.000000 0.683194 0.750000
O O13 0.500000 0.500000 0.000000
#
# Coordination Sequence:
#
# PCOD9262813 Si02
#       6
#     8   8   8   8   8   8
#     4  10  19  33  56  84 113 148 186 231 280 331
#     4   9  17  30  54  83 108 139 187 237 274 319
#     4   9  18  34  55  80 109 147 190 230 274 332
#     4   8  16  30  52  81 107 137 184 232 276 327
#     4  11  23  38  55  82 116 151 188 233 286 337
#     4   9  18  35  57  80 107 144 188 231 274 332
#
# _framework density 22.210197999999998
#
# number of rings (size 3 to 8) (size 9 to 14) (size 15 to 20)
#    0.000    2.667    0.000    2.500    0.000    5.333 
#    0.000    9.167    0.000    0.000    0.000    0.000 
#    0.000    0.000    0.000    0.000    0.000    0.000 
#
# Total GULP energy -134085.986810 kJ/mol
# GULP energy per Si atom -5586.916117 kJ/mol
# Density = 2.215965 g / cm^3
# Si number density = 22.210198 Si / 1000 Ang^3
#
#
#
# Elastic Constant Matrix: (Units=GPa)
#
#
# Indices 1 2 3 4 5 6 
#
# 1 44.6504 56.0357 32.4026 0.0000 7.4317 0.0000
# 2 56.0357 181.3693 83.9603 0.0000 57.4654 0.0000
# 3 32.4026 83.9603 132.6395 0.0000 51.1518 0.0000
# 4 0.0000 0.0000 0.0000 11.2785 0.0000 22.1626
# 5 7.4317 57.4654 51.1518 0.0000 48.6325 0.0000
# 6 0.0000 0.0000 0.0000 22.1626 0.0000 9.8510
#
#
#
# Elastic Compliance Matrix: (Units=1/GPa)
#
#
# Indices 1 2 3 4 5 6 
#
# 1 0.047899 -0.017963 -0.009579 0.000000 0.023981 0.000000
# 2 -0.017963 0.016130 0.000790 0.000000 -0.017146 0.000000
# 3 -0.009579 0.000790 0.015436 0.000000 -0.015705 0.000000
# 4 0.000000 0.000000 0.000000 -0.025918 0.000000 0.058311
# 5 0.023981 -0.017146 -0.015705 0.000000 0.053676 0.000000
# 6 0.000000 0.000000 0.000000 0.058311 0.000000 -0.029674
#
#
# Mechanical properties :
#
#
# Convention : Reuss Voigt Hill
#
# Bulk Modulus (GPa) = 38.51837 78.16181 58.34009
# Shear Modulus (GPa) = 35.78945 26.36978 31.07961
#
# Velocity S-wave (km/s) = 4.01858 3.44943 3.74483
# Velocity P-wave (km/s) = 6.23797 7.15074 6.70989
#
# Compressibility (1/GPa) = 0.02596164
#
# Stress axis : x y z
#
# Youngs Moduli (GPa) = 20.87720 61.99590 64.78419
#
# Poissons Ratio (x) = 1.11361 0.62057
# Poissons Ratio (y) = 0.37501 -0.05117
# Poissons Ratio (z) = 0.19998 -0.04897
#
# Static dielectric constant tensor:
#      x y z
#    x 1.824100 0.000000 -0.036290 
#    y 0.000000 1.788230 0.000000 
#    z -0.036290 0.000000 1.833390 
# 
# From -- ./inp_files/214070.got.cif
#   From: 2010.05.17/outbox.cif.g08.bks.cpg/sg15_108_cif.got.tgz:214070.got - 2010.06.03 18:47:42.
