data_PCOD9262740
_publ_section_title
;
Structure prediction by ZEFSAII (Michael W. Deem and Ramdas Pophale) SiO2 
 PCOD9262740
Probable space group: C 2/C
;
_chemical_formula_sum "Si O2"
_cell_formula_units_Z 60
_cell_length_a 10.679543
_cell_length_b 15.683025
_cell_length_c 18.868646
_cell_angle_alpha 90.000000
_cell_angle_beta 80.139139
_cell_angle_gamma 90.000000
_cell_volume 3113.575084
_symmetry_space_group_name_H-M "C 2/C"
_symmetry_group_IT_number 15
_symmetry_cell_setting 'monoclinic'
loop_
_space_group_symop_operation_xyz
x,y,z
-x,y,1/2-z
-x,-y,-z
x,-y,1/2+z
1/2+x,1/2+y,z
1/2-x,1/2+y,1/2-z
1/2-x,1/2-y,-z
1/2+x,1/2-y,1/2+z
loop_
_atom_site_type_symbol
_atom_site_label
_atom_site_fract_x
_atom_site_fract_y
_atom_site_fract_z
Si Si1 0.717289 0.785631 0.391595
Si Si2 0.291782 0.474674 0.357904
Si Si3 0.351257 0.745500 0.740367
Si Si4 0.036631 0.056911 0.929640
Si Si5 0.724886 0.443697 0.295491
Si Si6 0.000000 0.508017 0.250000
Si Si7 0.604697 0.116197 0.371756
Si Si8 0.540873 0.742899 0.529168
O O1 0.760570 0.738860 0.316041
O O2 0.593098 0.754590 0.444654
O O3 0.835807 0.772467 0.433262
O O4 0.713794 0.885989 0.372806
O O5 0.422322 0.457307 0.384993
O O6 0.316465 0.492449 0.272340
O O7 0.204637 0.550552 0.395283
O O8 0.500000 0.749312 0.750000
O O9 0.324766 0.651599 0.713644
O O10 0.326096 0.812362 0.681714
O O11 0.162539 0.028786 0.875305
O O12 0.040011 0.156557 0.952190
O O13 0.000000 0.000000 0.000000
O O14 0.875996 0.452981 0.279248
O O15 0.026962 0.564578 0.318043
O O16 0.523885 0.170859 0.435554
#
# Coordination Sequence:
#
# PCOD9262740 Si02
#       8
#     8   8   8   8   8   4   8   8
#     4   9  18  32  53  84 116 141 200 247 287 348
#     4   9  21  36  59  89 116 156 198 253 300 348
#     4  11  17  34  63  85 110 161 206 244 288 353
#     4  11  22  39  61  86 119 164 199 244 307 366
#     4  10  20  38  63  86 122 152 205 248 297 357
#     4  10  22  34  58  96 114 152 196 260 302 342
#     4  11  19  35  61  85 119 150 206 246 300 357
#     4  10  19  33  55  84 111 155 196 242 293 356
#
# _framework density 19.270451999999999
#
# number of rings (size 3 to 8) (size 9 to 14) (size 15 to 20)
#    0.000    1.867    3.333    2.000    0.000    5.867 
#    0.000    3.333   14.667    0.000    0.000    0.000 
#    0.000    0.000    0.000    0.000    0.000    0.000 
#
# Total GULP energy -167262.695013 kJ/mol
# GULP energy per Si atom -5575.423167 kJ/mol
# Density = 1.922659 g / cm^3
# Si number density = 19.270452 Si / 1000 Ang^3
#
#
#
# Elastic Constant Matrix: (Units=GPa)
#
#
# Indices 1 2 3 4 5 6 
#
# 1 67.5039 31.5119 30.8827 0.0000 -27.1181 0.0000
# 2 31.5119 61.4118 5.3993 0.0000 -20.1427 0.0000
# 3 30.8827 5.3993 114.1528 0.0000 -47.5060 0.0000
# 4 0.0000 0.0000 0.0000 24.4937 0.0000 -3.8201
# 5 -27.1181 -20.1427 -47.5060 0.0000 28.3871 0.0000
# 6 0.0000 0.0000 0.0000 -3.8201 0.0000 22.7070
#
#
#
# Elastic Compliance Matrix: (Units=1/GPa)
#
#
# Indices 1 2 3 4 5 6 
#
# 1 0.028151 -0.000497 0.011373 0.000000 0.045573 0.000000
# 2 -0.000497 0.041692 0.033854 0.000000 0.085764 0.000000
# 3 0.011373 0.033854 0.061277 0.000000 0.137434 0.000000
# 4 0.000000 0.000000 0.000000 0.041927 0.000000 0.007053
# 5 0.045573 0.085764 0.137434 0.000000 0.369615 0.000000
# 6 0.000000 0.000000 0.000000 0.007053 0.000000 0.045226
#
#
# Mechanical properties :
#
#
# Convention : Reuss Voigt Hill
#
# Bulk Modulus (GPa) = 4.53349 42.07291 23.30320
# Shear Modulus (GPa) = 8.74198 26.80254 17.77226
#
# Velocity S-wave (km/s) = 2.13221 3.73347 3.04016
# Velocity P-wave (km/s) = 2.90162 6.36124 4.94392
#
# Compressibility (1/GPa) = 0.22058041
#
# Stress axis : x y z
#
# Youngs Moduli (GPa) = 35.52327 23.98535 16.31943
#
# Poissons Ratio (x) = 0.01192 -0.18561
# Poissons Ratio (y) = 0.01765 -0.55248
# Poissons Ratio (z) = -0.40402 -0.81200
#
# Static dielectric constant tensor:
#      x y z
#    x 1.672080 0.000000 -0.018570 
#    y 0.000000 1.690520 0.000000 
#    z -0.018570 0.000000 1.712100 
# 
# From -- ./inp_files/197830.got.cif
#   From: 2010.05.17/outbox.cif.g08.bks.cpg/sg15_99_cif.got.tgz:197830.got - 2010.06.03 18:47:42.
