data_PCOD9262702
_publ_section_title
;
Structure prediction by ZEFSAII (Michael W. Deem and Ramdas Pophale) SiO2 
 PCOD9262702
Probable space group: C 2/C
;
_chemical_formula_sum "Si O2"
_cell_formula_units_Z 48
_cell_length_a 17.140504
_cell_length_b 9.034015
_cell_length_c 16.284524
_cell_angle_alpha 90.000000
_cell_angle_beta 95.750070
_cell_angle_gamma 90.000000
_cell_volume 2508.931185
_symmetry_space_group_name_H-M "C 2/C"
_symmetry_group_IT_number 15
_symmetry_cell_setting 'monoclinic'
loop_
_space_group_symop_operation_xyz
x,y,z
-x,y,1/2-z
-x,-y,-z
x,-y,1/2+z
1/2+x,1/2+y,z
1/2-x,1/2+y,1/2-z
1/2-x,1/2-y,-z
1/2+x,1/2-y,1/2+z
loop_
_atom_site_type_symbol
_atom_site_label
_atom_site_fract_x
_atom_site_fract_y
_atom_site_fract_z
Si Si1 0.580504 0.671486 0.237051
Si Si2 0.343683 0.088609 0.853133
Si Si3 0.064970 0.972783 0.076401
Si Si4 0.340908 0.406902 0.169533
Si Si5 0.925443 0.709450 0.305280
Si Si6 0.660245 0.702733 0.003266
O O1 0.500000 0.753495 0.250000
O O2 0.645292 0.785148 0.214401
O O3 0.555023 0.569585 0.157503
O O4 0.613597 0.558863 0.307808
O O5 0.251049 0.057789 0.849906
O O6 0.393690 0.948696 0.830504
O O7 0.372547 0.168734 0.940562
O O8 0.062671 0.807501 0.111179
O O9 0.144503 0.045397 0.046784
O O10 0.000000 0.000000 0.000000
O O11 0.358921 0.298244 0.247004
O O12 0.371003 0.323391 0.091397
O O13 0.000000 0.704885 0.250000
O O14 0.750000 0.750000 0.000000
#
# Coordination Sequence:
#
# PCOD9262702 Si02
#       6
#     8   8   8   8   8   8
#     4  10  19  33  55  80 105 141 187 229 274 331
#     4  10  21  36  55  83 115 144 184 239 288 329
#     4  10  19  35  56  77 106 147 185 221 273 340
#     4  10  19  37  58  79 108 150 188 228 281 342
#     4  11  22  37  58  85 114 147 189 235 282 338
#     4   9  19  36  56  78 111 147 184 230 280 332
#
# _framework density 19.131653
#
# number of rings (size 3 to 8) (size 9 to 14) (size 15 to 20)
#    0.000    2.000    0.000    5.500    0.000    1.333 
#    0.000   14.167    0.000    0.000    0.000    0.000 
#    0.000    0.000    0.000    0.000    0.000    0.000 
#
# Total GULP energy -133622.655490 kJ/mol
# GULP energy per Si atom -5567.610645 kJ/mol
# Density = 1.908811 g / cm^3
# Si number density = 19.131653 Si / 1000 Ang^3
#
#
#
# Elastic Constant Matrix: (Units=GPa)
#
#
# Indices 1 2 3 4 5 6 
#
# 1 89.1344 40.7569 30.3174 0.0000 -8.9529 0.0000
# 2 40.7569 117.6121 46.1794 0.0000 -1.4081 0.0000
# 3 30.3174 46.1794 100.0795 0.0000 12.3165 0.0000
# 4 0.0000 0.0000 0.0000 30.0275 0.0000 -6.7032
# 5 -8.9529 -1.4081 12.3165 0.0000 24.8648 0.0000
# 6 0.0000 0.0000 0.0000 -6.7032 0.0000 28.9217
#
#
#
# Elastic Compliance Matrix: (Units=1/GPa)
#
#
# Indices 1 2 3 4 5 6 
#
# 1 0.014819 -0.003607 -0.003681 0.000000 0.006955 0.000000
# 2 -0.003607 0.011499 -0.004402 0.000000 0.001533 0.000000
# 3 -0.003681 -0.004402 0.014198 0.000000 -0.008607 0.000000
# 4 0.000000 0.000000 0.000000 0.035120 0.000000 0.008140
# 5 0.006955 0.001533 -0.008607 0.000000 0.047072 0.000000
# 6 0.000000 0.000000 0.000000 0.008140 0.000000 0.036463
#
#
# Mechanical properties :
#
#
# Convention : Reuss Voigt Hill
#
# Bulk Modulus (GPa) = 58.35557 60.14817 59.25187
# Shear Modulus (GPa) = 26.55886 29.40094 27.97990
#
# Velocity S-wave (km/s) = 3.72992 3.92442 3.82840
# Velocity P-wave (km/s) = 7.00843 7.21402 7.11197
#
# Compressibility (1/GPa) = 0.01713633
#
# Stress axis : x y z
#
# Youngs Moduli (GPa) = 67.48250 86.96255 70.43456
#
# Poissons Ratio (x) = 0.31365 0.25925
# Poissons Ratio (y) = 0.24339 0.31006
# Poissons Ratio (z) = 0.24838 0.38282
#
# Static dielectric constant tensor:
#      x y z
#    x 1.685320 0.000000 -0.020690 
#    y 0.000000 1.651730 0.000000 
#    z -0.020690 0.000000 1.695770 
# 
# From -- ./inp_files/159700.got.cif
#   From: 2010.05.17/outbox.cif.g08.bks.cpg/sg15_80_cif.got.tgz:159700.got - 2010.06.03 18:47:42.
