data_PCOD9262820
_publ_section_title
;
Structure prediction by ZEFSAII (Michael W. Deem and Ramdas Pophale) SiO2 
 PCOD9262820
Probable space group: C 2/C
;
_chemical_formula_sum "Si O2"
_cell_formula_units_Z 56
_cell_length_a 20.815204
_cell_length_b 29.702633
_cell_length_c 10.618582
_cell_angle_alpha 90.000000
_cell_angle_beta 156.810625
_cell_angle_gamma 90.000000
_cell_volume 2585.153757
_symmetry_space_group_name_H-M "C 2/C"
_symmetry_group_IT_number 15
_symmetry_cell_setting 'monoclinic'
loop_
_space_group_symop_operation_xyz
x,y,z
-x,y,1/2-z
-x,-y,-z
x,-y,1/2+z
1/2+x,1/2+y,z
1/2-x,1/2+y,1/2-z
1/2-x,1/2-y,-z
1/2+x,1/2-y,1/2+z
loop_
_atom_site_type_symbol
_atom_site_label
_atom_site_fract_x
_atom_site_fract_y
_atom_site_fract_z
Si Si1 0.672777 0.602507 0.623638
Si Si2 0.025765 0.838050 0.061005
Si Si3 0.351998 0.262824 0.878556
Si Si4 0.663120 0.409666 0.634050
Si Si5 0.911091 0.335371 0.453313
Si Si6 0.324815 0.833827 0.789564
Si Si7 0.111410 0.006843 0.577252
O O1 0.636457 0.645814 0.645816
O O2 0.705498 0.554820 0.750987
O O3 0.804590 0.619518 0.762126
O O4 0.500000 0.595433 0.250000
O O5 0.157062 0.833843 0.408441
O O6 0.924690 0.792064 0.893438
O O7 0.905125 0.879555 0.874064
O O8 0.500000 0.260060 0.250000
O O9 0.313877 0.211657 0.777046
O O10 0.202650 0.291237 0.668230
O O11 0.500000 0.411920 0.250000
O O12 0.807160 0.380225 0.833606
O O13 0.712360 0.460531 0.751711
O O14 0.000000 0.337834 0.750000
O O15 0.031528 0.332595 0.551731
O O16 0.000000 0.006840 0.250000
O O17 0.000000 0.000000 0.500000
#
# Coordination Sequence:
#
# PCOD9262820 Si02
#       7
#     8   8   8   8   8   8   8
#     4  11  23  35  50  80 113 141 178 226 276 327
#     4   9  15  31  53  76 106 133 177 224 266 317
#     4   8  18  29  52  82 103 135 179 230 270 314
#     4   8  15  29  53  78 101 137 178 227 265 322
#     4  11  21  32  54  79 109 142 175 228 277 325
#     4   9  17  31  51  82 107 131 178 226 280 323
#     4  10  19  33  56  85 111 146 191 234 278 333
#
# _framework density 21.662154999999998
#
# number of rings (size 3 to 8) (size 9 to 14) (size 15 to 20)
#    0.000    2.571    2.857    1.714    2.000    1.714 
#    0.000    1.429    0.000    2.571    0.000    0.000 
#    0.000    0.000    0.000    0.000    0.000    0.000 
#
# Total GULP energy -155951.335189 kJ/mol
# GULP energy per Si atom -5569.690542 kJ/mol
# Density = 2.161285 g / cm^3
# Si number density = 21.662155 Si / 1000 Ang^3
#
#
#
# Elastic Constant Matrix: (Units=GPa)
#
#
# Indices 1 2 3 4 5 6 
#
# 1 111.5740 57.4992 19.8519 0.0000 33.6563 0.0000
# 2 57.4992 173.8200 25.9919 0.0000 38.7678 0.0000
# 3 19.8519 25.9919 28.5186 0.0000 4.7942 0.0001
# 4 0.0000 0.0000 0.0000 27.3546 0.0000 38.9951
# 5 33.6563 38.7678 4.7942 0.0000 34.0203 0.0000
# 6 0.0000 0.0000 0.0001 38.9951 0.0000 74.1925
#
#
#
# Elastic Compliance Matrix: (Units=1/GPa)
#
#
# Indices 1 2 3 4 5 6 
#
# 1 0.014385 -0.001006 -0.007064 0.000000 -0.012089 0.000000
# 2 -0.001006 0.008803 -0.005945 0.000000 -0.008199 0.000000
# 3 -0.007064 -0.005945 0.044132 0.000000 0.007544 0.000000
# 4 0.000000 0.000000 0.000000 0.145794 0.000000 -0.076629
# 5 -0.012089 -0.008199 0.007544 0.000000 0.049634 0.000000
# 6 0.000000 0.000000 0.000000 -0.076629 0.000000 0.053754
#
#
# Mechanical properties :
#
#
# Convention : Reuss Voigt Hill
#
# Bulk Modulus (GPa) = 25.45154 57.84428 41.64791
# Shear Modulus (GPa) = 13.98096 41.15146 27.56621
#
# Velocity S-wave (km/s) = 2.54325 4.36328 3.57115
# Velocity P-wave (km/s) = 4.51652 7.22116 6.02263
#
# Compressibility (1/GPa) = 0.03929035
#
# Stress axis : x y z
#
# Youngs Moduli (GPa) = 69.51917 113.59169 22.65912
#
# Poissons Ratio (x) = 0.11425 0.16007
# Poissons Ratio (y) = 0.06992 0.13471
# Poissons Ratio (z) = 0.49110 0.67530
#
# Static dielectric constant tensor:
#      x y z
#    x 1.880770 0.000000 -0.047570 
#    y 0.000000 1.851440 0.000000 
#    z -0.047570 0.000000 1.819950 
# 
# From -- ./inp_files/114948.got.cif
#   From: 2010.05.17/outbox.cif.g08.bks.cpg/sg15_58_cif.got.tgz:114948.got - 2010.06.03 18:47:42.
