data_PCOD9262015
_publ_section_title
;
Structure prediction by ZEFSAII (Michael W. Deem and Ramdas Pophale) SiO2 
 PCOD9262015
Probable space group: C 2/C
;
_chemical_formula_sum "Si O2"
_cell_formula_units_Z 64
_cell_length_a 30.570307
_cell_length_b 8.809108
_cell_length_c 15.209202
_cell_angle_alpha 90.000000
_cell_angle_beta 127.318972
_cell_angle_gamma 90.000000
_cell_volume 3257.273909
_symmetry_space_group_name_H-M "C 2/C"
_symmetry_group_IT_number 15
_symmetry_cell_setting 'monoclinic'
loop_
_space_group_symop_operation_xyz
x,y,z
-x,y,1/2-z
-x,-y,-z
x,-y,1/2+z
1/2+x,1/2+y,z
1/2-x,1/2+y,1/2-z
1/2-x,1/2-y,-z
1/2+x,1/2-y,1/2+z
loop_
_atom_site_type_symbol
_atom_site_label
_atom_site_fract_x
_atom_site_fract_y
_atom_site_fract_z
Si Si1 0.791340 0.595240 0.132894
Si Si2 0.745707 0.112885 0.064874
Si Si3 0.826772 0.862483 0.945143
Si Si4 0.943564 0.440690 0.731753
Si Si5 0.378526 0.650774 0.687824
Si Si6 0.363157 0.409388 0.804154
Si Si7 0.606697 0.068653 0.662756
Si Si8 0.142407 0.503423 0.520602
O O1 0.738539 0.618401 0.128616
O O2 0.828966 0.742152 0.163271
O O3 0.833385 0.473928 0.224286
O O4 0.767996 0.533770 0.012106
O O5 0.802950 0.105754 0.185640
O O6 0.694281 0.108208 0.070043
O O7 0.750000 0.250000 0.000000
O O8 0.851609 0.946210 0.891432
O O9 0.838171 0.680849 0.952420
O O10 0.855080 0.919499 0.069291
O O11 0.927573 0.264019 0.722720
O O12 0.937740 0.509283 0.821879
O O13 0.895946 0.510852 0.611635
O O14 0.000000 0.461332 0.750000
O O15 0.393002 0.532631 0.780663
O O16 0.394562 0.249549 0.843400
O O17 0.608094 0.989390 0.569005
#
# Coordination Sequence:
#
# PCOD9262015 Si02
#       8
#     8   8   8   8   8   8   8   8
#     4  11  18  33  51  77 115 156 183 213 255 325
#     4  12  19  32  52  83 121 153 185 220 257 325
#     4  10  19  32  52  76 110 155 184 209 269 325
#     4  10  21  41  62  77  99 140 189 237 289 340
#     4  10  20  37  56  76 108 145 189 226 271 338
#     4  11  21  32  53  81 115 148 178 221 267 326
#     4  10  21  37  54  83 114 141 185 229 277 332
#     4  10  20  36  56  80 113 150 181 229 280 327
#
# _framework density 19.648332
#
# number of rings (size 3 to 8) (size 9 to 14) (size 15 to 20)
#    0.000    1.500    6.250    1.875    0.000    1.500 
#    4.500    0.625    0.000    6.750    0.000    0.000 
#    0.000    0.000    0.000    0.000    0.000    0.000 
#
# Total GULP energy -178597.050647 kJ/mol
# GULP energy per Si atom -5581.157833 kJ/mol
# Density = 1.960361 g / cm^3
# Si number density = 19.648332 Si / 1000 Ang^3
#
#
#
# Elastic Constant Matrix: (Units=GPa)
#
#
# Indices 1 2 3 4 5 6 
#
# 1 115.5600 17.3652 11.9209 0.0000 -25.3486 0.0000
# 2 17.3652 33.3131 6.2247 0.0000 -10.4248 0.0000
# 3 11.9209 6.2247 32.3302 0.0000 -31.3898 0.0000
# 4 0.0000 0.0000 0.0000 19.0408 0.0000 -12.2283
# 5 -25.3486 -10.4248 -31.3898 0.0000 36.4010 0.0000
# 6 0.0000 0.0000 0.0000 -12.2283 0.0000 23.6166
#
#
#
# Elastic Compliance Matrix: (Units=1/GPa)
#
#
# Indices 1 2 3 4 5 6 
#
# 1 0.012769 -0.002160 0.022983 0.000000 0.028093 0.000000
# 2 -0.002160 0.034998 0.014311 0.000000 0.020860 0.000000
# 3 0.022983 0.014311 0.240980 0.000000 0.227908 0.000000
# 4 0.000000 0.000000 0.000000 0.078683 0.000000 0.040741
# 5 0.028093 0.020860 0.227908 0.000000 0.249542 0.000000
# 6 0.000000 0.000000 0.000000 0.040741 0.000000 0.063438
#
#
# Mechanical properties :
#
#
# Convention : Reuss Voigt Hill
#
# Bulk Modulus (GPa) = 2.78539 28.02501 15.40520
# Shear Modulus (GPa) = 6.85108 25.52452 16.18780
#
# Velocity S-wave (km/s) = 1.86934 3.60817 2.87344
# Velocity P-wave (km/s) = 2.46575 5.62608 4.34354
#
# Compressibility (1/GPa) = 0.35901606
#
# Stress axis : x y z
#
# Youngs Moduli (GPa) = 78.31185 28.57337 4.14973
#
# Poissons Ratio (x) = 0.06171 -0.09537
# Poissons Ratio (y) = 0.16913 -0.05939
# Poissons Ratio (z) = -1.79985 -0.40892
#
# Static dielectric constant tensor:
#      x y z
#    x 1.721080 0.000000 -0.030690 
#    y 0.000000 1.729100 0.000000 
#    z -0.030690 0.000000 1.709910 
# 
# From -- ./inp_files/180842.got.cif
#   From: 2010.05.17/outbox.cif.g08.bks.cpg/sg15_91_cif.got.tgz:180842.got - 2010.06.03 18:47:42.
