data_PCOD9262629
_publ_section_title
;
Structure prediction by ZEFSAII (Michael W. Deem and Ramdas Pophale) SiO2 
 PCOD9262629
Probable space group: C 2/C
;
_chemical_formula_sum "Si O2"
_cell_formula_units_Z 32
_cell_length_a 10.213905
_cell_length_b 24.160738
_cell_length_c 5.621817
_cell_angle_alpha 90.000000
_cell_angle_beta 113.753141
_cell_angle_gamma 90.000000
_cell_volume 1269.805333
_symmetry_space_group_name_H-M "C 2/C"
_symmetry_group_IT_number 15
_symmetry_cell_setting 'monoclinic'
loop_
_space_group_symop_operation_xyz
x,y,z
-x,y,1/2-z
-x,-y,-z
x,-y,1/2+z
1/2+x,1/2+y,z
1/2-x,1/2+y,1/2-z
1/2-x,1/2-y,-z
1/2+x,1/2-y,1/2+z
loop_
_atom_site_type_symbol
_atom_site_label
_atom_site_fract_x
_atom_site_fract_y
_atom_site_fract_z
Si Si1 0.000000 0.110783 0.250000
Si Si2 0.686543 0.148108 0.506133
Si Si3 0.500000 0.383877 0.250000
Si Si4 0.286458 0.186582 0.478658
Si Si5 0.336883 0.980578 0.422036
O O1 0.141927 0.149098 0.359623
O O2 0.996696 0.081875 0.503604
O O3 0.859630 0.154061 0.644358
O O4 0.642162 0.175738 0.226163
O O5 0.663239 0.082405 0.489965
O O6 0.634508 0.168567 0.722670
O O7 0.250000 0.250000 0.500000
O O8 0.500000 0.000000 0.500000
O O9 0.275439 0.013820 0.606700
#
# Coordination Sequence:
#
# PCOD9262629 Si02
#       5
#     4   8   4   8   8
#     4   8  16  30  46  69 104 138 170 211 270 324
#     4  10  19  35  56  79 108 148 186 230 290 339
#     4   8  16  30  52  73  98 134 172 215 268 328
#     4  10  19  33  54  81 110 142 184 236 286 342
#     4  10  21  38  57  77 109 151 190 229 277 339
#
# _framework density 25.200713
#
# number of rings (size 3 to 8) (size 9 to 14) (size 15 to 20)
#    0.000    2.500    0.000    2.250    0.000    0.000 
#    0.000    8.750    0.000    0.000    0.000    0.000 
#    0.000    0.000    0.000    0.000    0.000    0.000 
#
# Total GULP energy -89283.549669 kJ/mol
# GULP energy per Si atom -5580.221854 kJ/mol
# Density = 2.514336 g / cm^3
# Si number density = 25.200713 Si / 1000 Ang^3
#
#
#
# Elastic Constant Matrix: (Units=GPa)
#
#
# Indices 1 2 3 4 5 6 
#
# 1 113.1385 16.4768 73.4485 0.0000 -17.0235 0.0000
# 2 16.4768 116.3220 43.7436 0.0000 -28.3098 0.0000
# 3 73.4485 43.7436 297.4355 0.0000 -78.8076 0.0000
# 4 0.0000 0.0000 0.0000 30.3112 0.0000 -22.9665
# 5 -17.0235 -28.3098 -78.8076 0.0000 66.7374 0.0000
# 6 0.0000 0.0000 0.0000 -22.9665 0.0000 -28.3148
#
#
#
# Elastic Compliance Matrix: (Units=1/GPa)
#
#
# Indices 1 2 3 4 5 6 
#
# 1 0.010587 -0.000669 -0.002730 0.000000 -0.000807 0.000000
# 2 -0.000669 0.009677 -0.000314 0.000000 0.003564 0.000000
# 3 -0.002730 -0.000314 0.005621 0.000000 0.005809 0.000000
# 4 0.000000 0.000000 0.000000 0.020433 0.000000 -0.016574
# 5 -0.000807 0.003564 0.005809 0.000000 0.023149 0.000000
# 6 0.000000 0.000000 0.000000 -0.016574 0.000000 -0.021874
#
#
# Mechanical properties :
#
#
# Convention : Reuss Voigt Hill
#
# Bulk Modulus (GPa) = 54.17193 88.24819 71.21006
# Shear Modulus (GPa) = 81.73630 39.96189 60.84910
#
# Velocity S-wave (km/s) = 5.70127 3.98646 4.91917
# Velocity P-wave (km/s) = 8.05495 7.50222 7.78349
#
# Compressibility (1/GPa) = 0.01845975
#
# Stress axis : x y z
#
# Youngs Moduli (GPa) = 94.45668 103.33857 177.89522
#
# Poissons Ratio (x) = 0.06918 0.48558
# Poissons Ratio (y) = 0.06324 0.05579
# Poissons Ratio (z) = 0.25783 0.03241
#
# Static dielectric constant tensor:
#      x y z
#    x 2.023250 0.000000 -0.005300 
#    y 0.000000 1.909230 0.000000 
#    z -0.005300 0.000000 2.043670 
# 
# From -- ./inp_files/4002.got.cif
#   From: 2010.05.17/outbox.cif.g08.bks.cpg/sg15_3_cif.got.tgz:4002.got - 2010.06.03 18:47:42.
