data_PCOD9262257
_publ_section_title
;
Structure prediction by ZEFSAII (Michael W. Deem and Ramdas Pophale) SiO2 
 PCOD9262257
Probable space group: C 2/C
;
_chemical_formula_sum "Si O2"
_cell_formula_units_Z 60
_cell_length_a 11.180724
_cell_length_b 15.059414
_cell_length_c 20.097714
_cell_angle_alpha 90.000000
_cell_angle_beta 114.653955
_cell_angle_gamma 90.000000
_cell_volume 3075.486756
_symmetry_space_group_name_H-M "C 2/C"
_symmetry_group_IT_number 15
_symmetry_cell_setting 'monoclinic'
loop_
_space_group_symop_operation_xyz
x,y,z
-x,y,1/2-z
-x,-y,-z
x,-y,1/2+z
1/2+x,1/2+y,z
1/2-x,1/2+y,1/2-z
1/2-x,1/2-y,-z
1/2+x,1/2-y,1/2+z
loop_
_atom_site_type_symbol
_atom_site_label
_atom_site_fract_x
_atom_site_fract_y
_atom_site_fract_z
Si Si1 0.000000 0.737992 0.750000
Si Si2 0.149677 0.905203 0.064505
Si Si3 0.435722 0.098386 0.629529
Si Si4 0.541708 0.942946 0.574964
Si Si5 0.836803 0.130528 0.140711
Si Si6 0.561730 0.750478 0.458603
Si Si7 0.605640 0.470749 0.422979
Si Si8 0.675330 0.821820 0.024602
O O1 0.987917 0.670315 0.808843
O O2 0.120657 0.806356 0.788749
O O3 0.293630 0.918452 0.128808
O O4 0.031619 0.928418 0.086634
O O5 0.121517 0.803967 0.034057
O O6 0.144341 0.970871 0.998303
O O7 0.393831 0.150963 0.551923
O O8 0.516527 0.011863 0.629037
O O9 0.685483 0.899846 0.607023
O O10 0.434870 0.865620 0.547985
O O11 0.500000 0.000000 0.500000
O O12 0.889302 0.190221 0.091094
O O13 0.909302 0.037499 0.142306
O O14 0.407917 0.770109 0.437798
O O15 0.720374 0.399449 0.433713
O O16 0.750000 0.750000 0.000000
#
# Coordination Sequence:
#
# PCOD9262257 Si02
#       8
#     4   8   8   8   8   8   8   8
#     4  10  26  42  60  86 116 174 222 256 288 382
#     4  10  19  32  56  89 122 156 189 253 317 366
#     4  11  21  39  60  87 121 161 218 250 304 380
#     4  12  21  37  67  94 121 160 202 274 328 371
#     4  10  22  40  60  88 119 163 221 246 311 383
#     4  10  20  30  58  88 121 155 190 260 304 372
#     4  10  19  34  55  90 128 154 188 253 324 371
#     4  12  22  32  54 101 132 151 190 248 339 373
#
# _framework density 19.509108000000001
#
# number of rings (size 3 to 8) (size 9 to 14) (size 15 to 20)
#    0.000    1.333    5.333    1.200    3.733    0.000 
#    2.400    0.000    0.000    0.000    0.000    0.000 
#    0.000    0.000    0.000    0.000    0.000    0.000 
#
# Total GULP energy -167023.802528 kJ/mol
# GULP energy per Si atom -5567.460084 kJ/mol
# Density = 1.946470 g / cm^3
# Si number density = 19.509108 Si / 1000 Ang^3
#
#
#
# Elastic Constant Matrix: (Units=GPa)
#
#
# Indices 1 2 3 4 5 6 
#
# 1 154.8580 66.8037 34.8306 0.0000 17.6718 0.0000
# 2 66.8037 125.9172 40.2147 0.0000 7.9403 0.0000
# 3 34.8306 40.2147 54.7824 0.0000 8.9851 0.0000
# 4 0.0000 0.0000 0.0000 38.9792 0.0000 4.8772
# 5 17.6718 7.9403 8.9851 0.0000 12.2294 0.0000
# 6 0.0000 0.0000 0.0000 4.8772 0.0000 49.2572
#
#
#
# Elastic Compliance Matrix: (Units=1/GPa)
#
#
# Indices 1 2 3 4 5 6 
#
# 1 0.009708 -0.004009 -0.001541 0.000000 -0.010293 0.000000
# 2 -0.004009 0.012048 -0.006779 0.000000 0.002952 0.000000
# 3 -0.001541 -0.006779 0.026291 0.000000 -0.012688 0.000000
# 4 0.000000 0.000000 0.000000 0.025977 0.000000 -0.002572
# 5 -0.010293 0.002952 -0.012688 0.000000 0.104049 0.000000
# 6 0.000000 0.000000 0.000000 -0.002572 0.000000 0.020556
#
#
# Mechanical properties :
#
#
# Convention : Reuss Voigt Hill
#
# Bulk Modulus (GPa) = 42.75628 68.80619 55.78124
# Shear Modulus (GPa) = 21.63708 33.00706 27.32207
#
# Velocity S-wave (km/s) = 3.33389 4.11771 3.74636
# Velocity P-wave (km/s) = 6.06493 7.61267 6.88245
#
# Compressibility (1/GPa) = 0.02338838
#
# Stress axis : x y z
#
# Youngs Moduli (GPa) = 103.00372 83.00319 38.03545
#
# Poissons Ratio (x) = 0.33279 0.05862
# Poissons Ratio (y) = 0.41298 0.25784
# Poissons Ratio (z) = 0.15874 0.56268
#
# Static dielectric constant tensor:
#      x y z
#    x 1.762180 0.000000 -0.024810 
#    y 0.000000 1.737590 0.000000 
#    z -0.024810 0.000000 1.763510 
# 
# From -- ./inp_files/269760.got.cif
#   From: 2010.05.17/outbox.cif.g08.bks.cpg/sg15_135_cif.got.tgz:269760.got - 2010.06.03 18:47:42.
