data_PCOD9262850
_publ_section_title
;
Structure prediction by ZEFSAII (Michael W. Deem and Ramdas Pophale) SiO2 
 PCOD9262850
Probable space group: C 2/C
;
_chemical_formula_sum "Si O2"
_cell_formula_units_Z 60
_cell_length_a 23.917599
_cell_length_b 7.227787
_cell_length_c 17.427997
_cell_angle_alpha 90.000000
_cell_angle_beta 130.086520
_cell_angle_gamma 90.000000
_cell_volume 2305.012231
_symmetry_space_group_name_H-M "C 2/C"
_symmetry_group_IT_number 15
_symmetry_cell_setting 'monoclinic'
loop_
_space_group_symop_operation_xyz
x,y,z
-x,y,1/2-z
-x,-y,-z
x,-y,1/2+z
1/2+x,1/2+y,z
1/2-x,1/2+y,1/2-z
1/2-x,1/2-y,-z
1/2+x,1/2-y,1/2+z
loop_
_atom_site_type_symbol
_atom_site_label
_atom_site_fract_x
_atom_site_fract_y
_atom_site_fract_z
Si Si1 0.843157 0.384420 0.068813
Si Si2 0.486688 0.811697 0.921311
Si Si3 0.858171 0.808983 0.414873
Si Si4 0.447028 0.519407 0.298839
Si Si5 0.099612 0.333594 0.139725
Si Si6 0.253506 0.017189 0.253415
Si Si7 0.000000 0.351017 0.250000
Si Si8 0.797330 0.021528 0.116628
O O1 0.816829 0.234179 0.108950
O O2 0.923589 0.451361 0.164822
O O3 0.851894 0.276094 0.994442
O O4 0.774670 0.522121 0.997141
O O5 0.438266 0.720699 0.948644
O O6 0.492599 0.655495 0.863480
O O7 0.444844 0.997367 0.858599
O O8 0.565336 0.856667 0.025029
O O9 0.808382 0.691836 0.310707
O O10 0.813105 0.001112 0.366329
O O11 0.413057 0.628239 0.341158
O O12 0.491073 0.693036 0.307008
O O13 0.379995 0.445411 0.187425
O O14 0.184530 0.371195 0.217860
O O15 0.228191 0.991131 0.318903
#
# Coordination Sequence:
#
# PCOD9262850 Si02
#       8
#     8   8   8   8   8   8   4   8
#     4   9  18  33  55  87 118 158 208 256 306 378
#     4  10  21  36  56  86 126 154 200 263 303 366
#     4  10  19  34  57  86 117 157 198 255 311 365
#     4  11  20  39  61  86 118 165 205 257 313 370
#     4  10  21  34  56  90 121 160 202 251 314 373
#     4  10  19  33  56  89 120 152 201 256 305 371
#     4  10  22  36  60  90 120 164 222 256 316 384
#     4   9  18  34  59  85 118 159 201 257 311 362
#
# _framework density 26.03023
#
# number of rings (size 3 to 8) (size 9 to 14) (size 15 to 20)
#    0.000    2.133    1.333    2.800    0.000    1.067 
#    0.000    0.667    0.000    4.000    0.000    0.000 
#    0.000    0.000    0.000    0.000    0.000    0.000 
#
# Total GULP energy -167242.110462 kJ/mol
# GULP energy per Si atom -5574.737015 kJ/mol
# Density = 2.597098 g / cm^3
# Si number density = 26.030230 Si / 1000 Ang^3
#
#
#
# Elastic Constant Matrix: (Units=GPa)
#
#
# Indices 1 2 3 4 5 6 
#
# 1 52.9467 9.4695 27.9214 0.0000 2.2672 0.0000
# 2 9.4695 61.9852 22.2774 0.0000 -8.8936 0.0000
# 3 27.9214 22.2774 133.7942 0.0000 18.5504 0.0000
# 4 0.0000 0.0000 0.0000 19.7503 0.0000 10.3547
# 5 2.2672 -8.8936 18.5504 0.0000 42.5940 0.0000
# 6 0.0000 0.0000 0.0000 10.3547 0.0000 -3.0168
#
#
#
# Elastic Compliance Matrix: (Units=1/GPa)
#
#
# Indices 1 2 3 4 5 6 
#
# 1 0.021408 -0.001699 -0.004233 0.000000 0.000349 0.000000
# 2 -0.001699 0.018420 -0.003468 0.000000 0.005447 0.000000
# 3 -0.004233 -0.003468 0.009583 0.000000 -0.004672 0.000000
# 4 0.000000 0.000000 0.000000 0.018086 0.000000 0.062078
# 5 0.000349 0.005447 -0.004672 0.000000 0.026631 0.000000
# 6 0.000000 0.000000 0.000000 0.062078 0.000000 -0.118405
#
#
# Mechanical properties :
#
#
# Convention : Reuss Voigt Hill
#
# Bulk Modulus (GPa) = 32.66755 40.89583 36.78169
# Shear Modulus (GPa) = 1057.91463 24.46936 541.19199
#
# Velocity S-wave (km/s) = 20.18167 3.06933 14.43469
# Velocity P-wave (km/s) = 23.57210 5.32034 17.08727
#
# Compressibility (1/GPa) = 0.03061142
#
# Stress axis : x y z
#
# Youngs Moduli (GPa) = 46.71108 54.28818 104.35406
#
# Poissons Ratio (x) = 0.09224 0.44175
# Poissons Ratio (y) = 0.07936 0.36187
# Poissons Ratio (z) = 0.19774 0.18825
#
# Static dielectric constant tensor:
#      x y z
#    x 2.291330 0.000000 -0.035090 
#    y 0.000000 2.283020 0.000000 
#    z -0.035090 0.000000 2.105750 
# 
# From -- ./inp_files/257224.got.cif
#   From: 2010.05.17/outbox.cif.g08.bks.cpg/sg15_129_cif.got.tgz:257224.got - 2010.06.03 18:47:42.
