data_PCOD9262339
_publ_section_title
;
Structure prediction by ZEFSAII (Michael W. Deem and Ramdas Pophale) SiO2 
 PCOD9262339
Probable space group: C 2/C
;
_chemical_formula_sum "Si O2"
_cell_formula_units_Z 40
_cell_length_a 29.198424
_cell_length_b 4.881207
_cell_length_c 9.906910
_cell_angle_alpha 90.000000
_cell_angle_beta 95.175691
_cell_angle_gamma 90.000000
_cell_volume 1406.211069
_symmetry_space_group_name_H-M "C 2/C"
_symmetry_group_IT_number 15
_symmetry_cell_setting 'monoclinic'
loop_
_space_group_symop_operation_xyz
x,y,z
-x,y,1/2-z
-x,-y,-z
x,-y,1/2+z
1/2+x,1/2+y,z
1/2-x,1/2+y,1/2-z
1/2-x,1/2-y,-z
1/2+x,1/2-y,1/2+z
loop_
_atom_site_type_symbol
_atom_site_label
_atom_site_fract_x
_atom_site_fract_y
_atom_site_fract_z
Si Si1 0.694985 0.579057 0.807094
Si Si2 0.873470 0.687898 0.561565
Si Si3 0.947998 0.059113 0.531436
Si Si4 0.449057 0.832266 0.270566
Si Si5 0.202914 0.414894 0.129832
O O1 0.744037 0.532763 0.893556
O O2 0.693447 0.889742 0.756456
O O3 0.698654 0.397806 0.672234
O O4 0.653978 0.434947 0.873380
O O5 0.908125 0.850869 0.472624
O O6 0.836170 0.496773 0.483716
O O7 0.907039 0.534535 0.677271
O O8 0.940000 0.313086 0.427166
O O9 0.948905 0.965585 0.690278
O O10 0.000000 0.000000 0.500000
O O11 0.500000 0.947229 0.250000
#
# Coordination Sequence:
#
# PCOD9262339 Si02
#       5
#     8   8   8   8   8
#     4  10  22  40  62  94 133 168 217 270 328 388
#     4  10  19  32  62  90 131 170 223 259 333 386
#     4   8  15  28  51  89 126 167 210 266 317 379
#     4   8  15  28  51  87 129 164 213 263 319 376
#     4  10  22  40  62  94 132 170 215 272 326 389
#
# _framework density 28.445231
#
# number of rings (size 3 to 8) (size 9 to 14) (size 15 to 20)
#    1.200    1.600    0.000    1.800    0.000    1.600 
#    0.000    6.000    0.000    1.200    5.200    0.000 
#    0.000    0.000    0.000    0.000    0.000    0.000 
#
# Total GULP energy -111780.290865 kJ/mol
# GULP energy per Si atom -5589.014543 kJ/mol
# Density = 2.838049 g / cm^3
# Si number density = 28.445231 Si / 1000 Ang^3
#
#
#
# Elastic Constant Matrix: (Units=GPa)
#
#
# Indices 1 2 3 4 5 6 
#
# 1 181.1510 20.4700 70.1644 0.0000 32.4686 0.0000
# 2 20.4700 68.7147 22.7720 0.0000 -14.8096 0.0000
# 3 70.1644 22.7720 124.4248 0.0000 12.8338 0.0000
# 4 0.0000 0.0000 0.0000 44.3731 0.0000 10.2591
# 5 32.4686 -14.8096 12.8338 0.0000 60.3186 0.0000
# 6 0.0000 0.0000 0.0000 10.2591 0.0000 19.2837
#
#
#
# Elastic Compliance Matrix: (Units=1/GPa)
#
#
# Indices 1 2 3 4 5 6 
#
# 1 0.007872 -0.001978 -0.003670 0.000000 -0.003942 0.000000
# 2 -0.001978 0.017288 -0.002654 0.000000 0.005874 0.000000
# 3 -0.003670 -0.002654 0.010691 0.000000 -0.000951 0.000000
# 4 0.000000 0.000000 0.000000 0.025697 0.000000 -0.013671
# 5 -0.003942 0.005874 -0.000951 0.000000 0.020345 0.000000
# 6 0.000000 0.000000 0.000000 -0.013671 0.000000 0.059130
#
#
# Mechanical properties :
#
#
# Convention : Reuss Voigt Hill
#
# Bulk Modulus (GPa) = 51.96306 66.78927 59.37617
# Shear Modulus (GPa) = 30.47966 42.18735 36.33351
#
# Velocity S-wave (km/s) = 3.27696 3.85529 3.57783
# Velocity P-wave (km/s) = 5.71186 6.58397 6.16336
#
# Compressibility (1/GPa) = 0.01924444
#
# Stress axis : x y z
#
# Youngs Moduli (GPa) = 127.03190 57.84387 93.53999
#
# Poissons Ratio (x) = 0.11443 0.34333
# Poissons Ratio (y) = 0.25131 0.24828
# Poissons Ratio (z) = 0.46626 0.15354
#
# Static dielectric constant tensor:
#      x y z
#    x 2.237360 0.000000 -0.107200 
#    y 0.000000 2.263300 0.000000 
#    z -0.107200 0.000000 2.447600 
# 
# From -- ./inp_files/120747.got.cif
#   From: 2010.05.17/outbox.cif.g08.bks.cpg/sg15_61_cif.got.tgz:120747.got - 2010.06.03 18:47:42.
