data_PCOD9262498
_publ_section_title
;
Structure prediction by ZEFSAII (Michael W. Deem and Ramdas Pophale) SiO2 
 PCOD9262498
Probable space group: C 2/C
;
_chemical_formula_sum "Si O2"
_cell_formula_units_Z 48
_cell_length_a 16.776821
_cell_length_b 7.808998
_cell_length_c 22.628713
_cell_angle_alpha 90.000000
_cell_angle_beta 37.599050
_cell_angle_gamma 90.000000
_cell_volume 1808.792129
_symmetry_space_group_name_H-M "C 2/C"
_symmetry_group_IT_number 15
_symmetry_cell_setting 'monoclinic'
loop_
_space_group_symop_operation_xyz
x,y,z
-x,y,1/2-z
-x,-y,-z
x,-y,1/2+z
1/2+x,1/2+y,z
1/2-x,1/2+y,1/2-z
1/2-x,1/2-y,-z
1/2+x,1/2-y,1/2+z
loop_
_atom_site_type_symbol
_atom_site_label
_atom_site_fract_x
_atom_site_fract_y
_atom_site_fract_z
Si Si1 0.826891 0.875333 0.691505
Si Si2 0.580534 0.752550 0.893066
Si Si3 0.279128 0.165637 0.075841
Si Si4 0.206781 0.784098 0.151210
Si Si5 0.933377 0.212286 0.376628
Si Si6 0.926518 0.199605 0.883117
O O1 0.683983 0.882108 0.803746
O O2 0.809018 0.798695 0.636428
O O3 0.918277 0.778828 0.685964
O O4 0.880266 0.063663 0.650956
O O5 0.615021 0.755440 0.941360
O O6 0.445699 0.778137 0.937305
O O7 0.243521 0.981433 0.121656
O O8 0.137652 0.253327 0.144355
O O9 0.354425 0.175558 0.969989
O O10 0.067077 0.777710 0.267614
O O11 0.175087 0.717552 0.103410
O O12 0.904028 0.006171 0.399163
#
# Coordination Sequence:
#
# PCOD9262498 Si02
#       6
#     8   8   8   8   8   8
#     4  10  20  34  52  76 102 129 164 204 248 294
#     4  10  19  33  53  75  98 127 165 204 242 291
#     4  10  19  33  53  74  98 132 170 203 241 291
#     4   9  17  33  52  71  97 131 166 202 248 295
#     4   9  19  33  51  73 100 134 168 199 242 299
#     4   8  16  31  51  68  95 134 165 193 243 307
#
# _framework density 26.537047999999999
#
# number of rings (size 3 to 8) (size 9 to 14) (size 15 to 20)
#    0.000    2.667    0.000    3.000    0.000    5.333 
#    0.000    8.333    0.000   10.000    0.000    0.000 
#    0.000    0.000    0.000    0.000    0.000    0.000 
#
# Total GULP energy -133993.541984 kJ/mol
# GULP energy per Si atom -5583.064249 kJ/mol
# Density = 2.647665 g / cm^3
# Si number density = 26.537048 Si / 1000 Ang^3
#
#
#
# Elastic Constant Matrix: (Units=GPa)
#
#
# Indices 1 2 3 4 5 6 
#
# 1 307.5984 43.1026 52.3243 -0.0002 30.2607 0.0008
# 2 43.1026 31.3525 8.8540 -0.0004 3.6972 0.0009
# 3 52.3243 8.8540 36.1659 0.0000 -3.5973 0.0001
# 4 -0.0002 -0.0004 0.0000 21.7336 0.0000 0.7424
# 5 30.2607 3.6972 -3.5973 0.0000 67.0860 -0.0003
# 6 0.0008 0.0009 0.0001 0.7424 -0.0003 33.7348
#
#
#
# Elastic Compliance Matrix: (Units=1/GPa)
#
#
# Indices 1 2 3 4 5 6 
#
# 1 0.005372 -0.005184 -0.006751 0.000000 -0.002499 0.000000
# 2 -0.005184 0.039639 -0.002201 0.000001 0.000036 -0.000001
# 3 -0.006751 -0.002201 0.038477 0.000000 0.005230 0.000000
# 4 0.000000 0.000001 0.000000 0.046046 0.000000 -0.001013
# 5 -0.002499 0.000036 0.005230 0.000000 0.016312 0.000000
# 6 0.000000 -0.000001 0.000000 -0.001013 0.000000 0.029665
#
#
# Mechanical properties :
#
#
# Convention : Reuss Voigt Hill
#
# Bulk Modulus (GPa) = 18.11081 64.85317 41.48199
# Shear Modulus (GPa) = 22.50342 42.56661 32.53502
#
# Velocity S-wave (km/s) = 2.91520 4.00940 3.50526
# Velocity P-wave (km/s) = 4.26272 6.77683 5.66111
#
# Compressibility (1/GPa) = 0.05521563
#
# Stress axis : x y z
#
# Youngs Moduli (GPa) = 186.16310 25.22770 25.98959
#
# Poissons Ratio (x) = 0.13077 0.17546
# Poissons Ratio (y) = 0.96498 0.05721
# Poissons Ratio (z) = 1.25682 0.05553
#
# Static dielectric constant tensor:
#      x y z
#    x 2.266310 0.000000 -0.005320 
#    y 0.000000 2.001160 0.000000 
#    z -0.005320 0.000000 2.176830 
# 
# From -- ./inp_files/208695.got.cif
#   From: 2010.05.17/outbox.cif.g08.bks.cpg/sg15_105_cif.got.tgz:208695.got - 2010.06.03 18:47:42.
