data_PCOD9262231
_publ_section_title
;
Structure prediction by ZEFSAII (Michael W. Deem and Ramdas Pophale) SiO2 
 PCOD9262231
Probable space group: C 2/C
;
_chemical_formula_sum "Si O2"
_cell_formula_units_Z 56
_cell_length_a 20.820843
_cell_length_b 11.237980
_cell_length_c 26.441340
_cell_angle_alpha 90.000000
_cell_angle_beta 150.791836
_cell_angle_gamma 90.000000
_cell_volume 3019.087077
_symmetry_space_group_name_H-M "C 2/C"
_symmetry_group_IT_number 15
_symmetry_cell_setting 'monoclinic'
loop_
_space_group_symop_operation_xyz
x,y,z
-x,y,1/2-z
-x,-y,-z
x,-y,1/2+z
1/2+x,1/2+y,z
1/2-x,1/2+y,1/2-z
1/2-x,1/2-y,-z
1/2+x,1/2-y,1/2+z
loop_
_atom_site_type_symbol
_atom_site_label
_atom_site_fract_x
_atom_site_fract_y
_atom_site_fract_z
Si Si1 0.784327 0.408211 0.244856
Si Si2 0.161734 0.405853 0.569062
Si Si3 0.010314 0.143444 0.615040
Si Si4 0.032446 0.051813 0.213936
Si Si5 0.386911 0.473742 0.462108
Si Si6 0.466897 0.112279 0.416809
Si Si7 0.971202 0.236442 0.093402
O O1 0.652245 0.386577 0.186523
O O2 0.740408 0.438868 0.157426
O O3 0.861339 0.519365 0.321987
O O4 0.885586 0.297660 0.314455
O O5 0.313658 0.417918 0.684574
O O6 0.090618 0.343138 0.568572
O O7 0.129764 0.337595 0.494876
O O8 0.095100 0.535253 0.518525
O O9 0.005021 0.284784 0.604169
O O10 0.006669 0.069328 0.664511
O O11 0.889376 0.089242 0.499253
O O12 0.000000 0.037343 0.250000
O O13 0.960925 0.166488 0.139254
O O14 0.500000 0.500000 0.500000
O O15 0.442841 0.368075 0.534436
#
# Coordination Sequence:
#
# PCOD9262231 Si02
#       7
#     8   8   8   8   8   8   8
#     4  10  19  32  56  83 115 137 175 234 290 342
#     4  10  20  37  55  87 113 143 186 230 288 334
#     4  10  20  33  53  81 112 148 184 222 284 332
#     4  11  23  39  56  79 115 156 194 227 268 335
#     4   9  18  29  45  78 111 137 172 220 276 339
#     4  10  20  34  58  87 115 143 173 238 292 332
#     4  10  20  34  57  80 109 144 184 234 284 322
#
# _framework density 18.548653000000002
#
# number of rings (size 3 to 8) (size 9 to 14) (size 15 to 20)
#    0.000    2.000    1.429    3.429    4.000    1.714 
#    0.000    0.714    0.000    3.429    0.000    0.000 
#    0.000    0.000    0.000    0.000    0.000    0.000 
#
# Total GULP energy -156020.597248 kJ/mol
# GULP energy per Si atom -5572.164187 kJ/mol
# Density = 1.850644 g / cm^3
# Si number density = 18.548653 Si / 1000 Ang^3
#
#
#
# Elastic Constant Matrix: (Units=GPa)
#
#
# Indices 1 2 3 4 5 6 
#
# 1 52.3826 21.1988 4.6639 0.0001 -31.5611 0.0001
# 2 21.1988 75.5577 13.5174 0.0002 -13.9977 0.0001
# 3 4.6639 13.5174 79.5365 0.0003 -20.3351 0.0002
# 4 0.0001 0.0002 0.0003 14.0686 0.0001 -11.5008
# 5 -31.5611 -13.9977 -20.3351 0.0001 25.1667 0.0001
# 6 0.0001 0.0001 0.0002 -11.5008 0.0001 15.2759
#
#
#
# Elastic Compliance Matrix: (Units=1/GPa)
#
#
# Indices 1 2 3 4 5 6 
#
# 1 0.177336 -0.011457 0.058958 -0.000018 0.263661 -0.000017
# 2 -0.011457 0.015512 -0.004326 0.000000 -0.009235 0.000000
# 3 0.058958 -0.004326 0.035466 -0.000008 0.100190 -0.000007
# 4 -0.000018 0.000000 -0.000008 0.184844 -0.000030 0.139164
# 5 0.263661 -0.009235 0.100190 -0.000030 0.446206 -0.000028
# 6 -0.000017 0.000000 -0.000007 0.139164 -0.000028 0.170235
#
#
# Mechanical properties :
#
#
# Convention : Reuss Voigt Hill
#
# Bulk Modulus (GPa) = 3.17796 31.80411 17.49104
# Shear Modulus (GPa) = 4.77037 22.10870 13.43954
#
# Velocity S-wave (km/s) = 1.60543 3.45618 2.69468
# Velocity P-wave (km/s) = 2.27015 5.75417 4.37401
#
# Compressibility (1/GPa) = 0.31466711
#
# Stress axis : x y z
#
# Youngs Moduli (GPa) = 5.63901 64.46513 28.19578
#
# Poissons Ratio (x) = 0.73855 -1.66238
# Poissons Ratio (y) = 0.06460 0.12196
# Poissons Ratio (z) = -0.33247 0.27885
#
# Static dielectric constant tensor:
#      x y z
#    x 1.628950 0.000000 -0.031980 
#    y 0.000000 1.686320 0.000000 
#    z -0.031980 0.000000 1.668400 
# 
# From -- ./inp_files/110997.got.cif
#   From: 2010.05.17/outbox.cif.g08.bks.cpg/sg15_56_cif.got.tgz:110997.got - 2010.06.03 18:47:42.
