data_PCOD9262873
_publ_section_title
;
Structure prediction by ZEFSAII (Michael W. Deem and Ramdas Pophale) SiO2 
 PCOD9262873
Probable space group: C 2/C
;
_chemical_formula_sum "Si O2"
_cell_formula_units_Z 44
_cell_length_a 10.932746
_cell_length_b 15.444377
_cell_length_c 14.622290
_cell_angle_alpha 90.000000
_cell_angle_beta 44.794678
_cell_angle_gamma 90.000000
_cell_volume 1739.554915
_symmetry_space_group_name_H-M "C 2/C"
_symmetry_group_IT_number 15
_symmetry_cell_setting 'monoclinic'
loop_
_space_group_symop_operation_xyz
x,y,z
-x,y,1/2-z
-x,-y,-z
x,-y,1/2+z
1/2+x,1/2+y,z
1/2-x,1/2+y,1/2-z
1/2-x,1/2-y,-z
1/2+x,1/2-y,1/2+z
loop_
_atom_site_type_symbol
_atom_site_label
_atom_site_fract_x
_atom_site_fract_y
_atom_site_fract_z
Si Si1 0.420449 0.909797 0.386625
Si Si2 0.756466 0.069474 0.798895
Si Si3 0.688148 0.296950 0.939977
Si Si4 0.174243 0.257612 0.822150
Si Si5 0.000000 0.759538 0.750000
Si Si6 0.885684 0.028398 0.929602
O O1 0.500000 0.947135 0.250000
O O2 0.228517 0.944013 0.499334
O O3 0.553835 0.944766 0.391472
O O4 0.425403 0.807378 0.365898
O O5 0.784846 0.156717 0.723746
O O6 0.814774 0.073983 0.873325
O O7 0.910207 0.008168 0.680974
O O8 0.503477 0.246462 0.026923
O O9 0.650650 0.397292 0.978073
O O10 0.750000 0.250000 0.000000
O O11 0.818128 0.292578 0.785483
O O12 0.331593 0.301524 0.794239
#
# Coordination Sequence:
#
# PCOD9262873 Si02
#       6
#     8   8   8   8   4   8
#     4   9  19  33  54  80 108 146 187 227 265 345
#     4   9  18  35  54  79 111 151 181 222 292 334
#     4  11  21  34  59  85 117 143 191 235 292 338
#     4  10  20  38  57  83 111 156 188 237 281 347
#     4   8  20  40  58  76 112 156 194 222 292 334
#     4  10  19  33  57  82 111 147 183 233 283 334
#
# _framework density 25.293827
#
# number of rings (size 3 to 8) (size 9 to 14) (size 15 to 20)
#    0.545    1.818    1.818    1.091    0.000    2.909 
#    0.000    0.000    0.000    0.000    0.000    0.000 
#    0.000    0.000    0.000    0.000    0.000    0.000 
#
# Total GULP energy -122723.336833 kJ/mol
# GULP energy per Si atom -5578.333492 kJ/mol
# Density = 2.523626 g / cm^3
# Si number density = 25.293827 Si / 1000 Ang^3
#
#
#
# Elastic Constant Matrix: (Units=GPa)
#
#
# Indices 1 2 3 4 5 6 
#
# 1 102.9698 7.9988 3.0892 0.0001 8.8947 -0.0001
# 2 7.9988 30.0311 20.5456 0.0001 -0.1301 0.0000
# 3 3.0892 20.5456 49.2552 0.0004 7.2509 -0.0002
# 4 0.0001 0.0001 0.0004 19.7735 -0.0002 -0.7989
# 5 8.8947 -0.1301 7.2509 -0.0002 32.7677 0.0001
# 6 -0.0001 0.0000 -0.0002 -0.7989 0.0001 18.2216
#
#
#
# Elastic Compliance Matrix: (Units=1/GPa)
#
#
# Indices 1 2 3 4 5 6 
#
# 1 0.010221 -0.003649 0.001335 0.000000 -0.003085 0.000000
# 2 -0.003649 0.048591 -0.020894 0.000000 0.005807 0.000000
# 3 0.001335 -0.020894 0.029976 -0.000001 -0.007079 0.000000
# 4 0.000000 0.000000 -0.000001 0.050663 0.000000 0.002221
# 5 -0.003085 0.005807 -0.007079 0.000000 0.032945 0.000000
# 6 0.000000 0.000000 0.000000 0.002221 0.000000 0.054977
#
#
# Mechanical properties :
#
#
# Convention : Reuss Voigt Hill
#
# Bulk Modulus (GPa) = 23.60077 27.28036 25.44057
# Shear Modulus (GPa) = 17.36632 24.19407 20.78019
#
# Velocity S-wave (km/s) = 2.62312 3.09612 2.86938
# Velocity P-wave (km/s) = 4.30409 4.85696 4.58886
#
# Compressibility (1/GPa) = 0.04237149
#
# Stress axis : x y z
#
# Youngs Moduli (GPa) = 97.83337 20.58005 33.35973
#
# Poissons Ratio (x) = 0.07510 -0.04454
# Poissons Ratio (y) = 0.35703 0.69703
# Poissons Ratio (z) = -0.13063 0.43001
#
# Static dielectric constant tensor:
#      x y z
#    x 2.078630 0.000000 -0.008500 
#    y 0.000000 2.005100 0.000000 
#    z -0.008500 0.000000 2.018370 
# 
# From -- ./inp_files/199398.got.cif
#   From: 2010.05.17/outbox.cif.g08.bks.cpg/sg15_100_cif.got.tgz:199398.got - 2010.06.03 18:47:42.
