data_PCOD9262493
_publ_section_title
;
Structure prediction by ZEFSAII (Michael W. Deem and Ramdas Pophale) SiO2 
 PCOD9262493
Probable space group: C 2/C
;
_chemical_formula_sum "Si O2"
_cell_formula_units_Z 56
_cell_length_a 12.271870
_cell_length_b 18.713053
_cell_length_c 11.815240
_cell_angle_alpha 90.000000
_cell_angle_beta 108.056532
_cell_angle_gamma 90.000000
_cell_volume 2579.673863
_symmetry_space_group_name_H-M "C 2/C"
_symmetry_group_IT_number 15
_symmetry_cell_setting 'monoclinic'
loop_
_space_group_symop_operation_xyz
x,y,z
-x,y,1/2-z
-x,-y,-z
x,-y,1/2+z
1/2+x,1/2+y,z
1/2-x,1/2+y,1/2-z
1/2-x,1/2-y,-z
1/2+x,1/2-y,1/2+z
loop_
_atom_site_type_symbol
_atom_site_label
_atom_site_fract_x
_atom_site_fract_y
_atom_site_fract_z
Si Si1 0.107018 0.630455 0.342723
Si Si2 0.018119 0.148554 0.522931
Si Si3 0.310220 0.264595 0.283310
Si Si4 0.323080 0.467720 0.965870
Si Si5 0.647898 0.221125 0.546780
Si Si6 0.365774 0.514662 0.231464
Si Si7 0.374461 0.327982 0.670395
O O1 0.138482 0.698038 0.272079
O O2 0.214671 0.581711 0.403107
O O3 0.076120 0.664015 0.454420
O O4 0.000000 0.592676 0.250000
O O5 0.089073 0.182448 0.648788
O O6 0.107427 0.142452 0.449745
O O7 0.939425 0.079564 0.510476
O O8 0.930538 0.211099 0.457689
O O9 0.216484 0.305480 0.176860
O O10 0.229998 0.226747 0.351502
O O11 0.334775 0.512617 0.849520
O O12 0.307003 0.493974 0.091873
O O13 0.750000 0.250000 0.500000
O O14 0.500000 0.501322 0.250000
O O15 0.351939 0.600844 0.236363
O O16 0.500000 0.299460 0.750000
#
# Coordination Sequence:
#
# PCOD9262493 Si02
#       7
#     8   8   8   8   8   8   8
#     4  11  21  39  62  86 124 166 209 270 331 389
#     4  12  21  35  63  92 128 165 207 266 332 394
#     4  11  21  35  59  92 129 165 207 260 331 400
#     4  12  24  43  65  97 130 169 223 278 327 388
#     4  10  19  33  52  88 124 154 199 255 315 391
#     4  11  23  42  67  93 127 171 221 273 328 378
#     4  11  19  39  61  83 130 173 210 258 327 394
#
# _framework density 21.708171
#
# number of rings (size 3 to 8) (size 9 to 14) (size 15 to 20)
#    0.000    0.857   10.000    0.857    0.000    1.143 
#    0.000    0.714    0.000    0.000    0.000    0.000 
#    0.000    0.000    0.000    0.000    0.000    0.000 
#
# Total GULP energy -156050.341023 kJ/mol
# GULP energy per Si atom -5573.226465 kJ/mol
# Density = 2.165876 g / cm^3
# Si number density = 21.708171 Si / 1000 Ang^3
#
#
#
# Elastic Constant Matrix: (Units=GPa)
#
#
# Indices 1 2 3 4 5 6 
#
# 1 48.4980 26.9907 41.2102 0.0000 8.2577 0.0000
# 2 26.9907 36.8166 39.3796 0.0000 4.1381 0.0000
# 3 41.2102 39.3796 153.5693 0.0000 16.6630 0.0000
# 4 0.0000 0.0000 0.0000 33.5899 0.0000 9.5345
# 5 8.2577 4.1381 16.6630 0.0000 38.5970 0.0000
# 6 0.0000 0.0000 0.0000 9.5345 0.0000 16.4429
#
#
#
# Elastic Compliance Matrix: (Units=1/GPa)
#
#
# Indices 1 2 3 4 5 6 
#
# 1 0.037123 -0.022838 -0.003682 0.000000 -0.003904 0.000000
# 2 -0.022838 0.051478 -0.007347 0.000000 0.002539 0.000000
# 3 -0.003682 -0.007347 0.009666 0.000000 -0.002597 0.000000
# 4 0.000000 0.000000 0.000000 0.035636 0.000000 -0.020664
# 5 -0.003904 0.002539 -0.002597 0.000000 0.027593 0.000000
# 6 0.000000 0.000000 0.000000 -0.020664 0.000000 0.072799
#
#
# Mechanical properties :
#
#
# Convention : Reuss Voigt Hill
#
# Bulk Modulus (GPa) = 32.75285 50.44944 41.60114
# Shear Modulus (GPa) = 16.01501 26.47952 21.24727
#
# Velocity S-wave (km/s) = 2.71909 3.49635 3.13192
# Velocity P-wave (km/s) = 4.99784 6.29202 5.68190
#
# Compressibility (1/GPa) = 0.03053170
#
# Stress axis : x y z
#
# Youngs Moduli (GPa) = 26.93744 19.42573 103.45923
#
# Poissons Ratio (x) = 0.44365 0.38093
# Poissons Ratio (y) = 0.61521 0.76015
# Poissons Ratio (z) = 0.09918 0.14273
#
# Static dielectric constant tensor:
#      x y z
#    x 1.885550 0.000000 -0.159920 
#    y 0.000000 1.852400 0.000000 
#    z -0.159920 0.000000 2.091980 
# 
# From -- ./inp_files/89644.got.cif
#   From: 2010.05.17/outbox.cif.g08.bks.cpg/sg15_45_cif.got.tgz:89644.got - 2010.06.03 18:47:42.
