data_PCOD9262602
_publ_section_title
;
Structure prediction by ZEFSAII (Michael W. Deem and Ramdas Pophale) SiO2 
 PCOD9262602
Probable space group: C 2/C
;
_chemical_formula_sum "Si O2"
_cell_formula_units_Z 48
_cell_length_a 19.368577
_cell_length_b 5.342591
_cell_length_c 26.834589
_cell_angle_alpha 90.000000
_cell_angle_beta 122.754395
_cell_angle_gamma 90.000000
_cell_volume 2335.281843
_symmetry_space_group_name_H-M "C 2/C"
_symmetry_group_IT_number 15
_symmetry_cell_setting 'monoclinic'
loop_
_space_group_symop_operation_xyz
x,y,z
-x,y,1/2-z
-x,-y,-z
x,-y,1/2+z
1/2+x,1/2+y,z
1/2-x,1/2+y,1/2-z
1/2-x,1/2-y,-z
1/2+x,1/2-y,1/2+z
loop_
_atom_site_type_symbol
_atom_site_label
_atom_site_fract_x
_atom_site_fract_y
_atom_site_fract_z
Si Si1 0.484335 0.249627 0.936441
Si Si2 0.243362 0.039545 0.312357
Si Si3 0.340273 0.538411 0.319702
Si Si4 0.740608 0.230617 0.915273
Si Si5 0.623417 0.624650 0.023819
Si Si6 0.136737 0.504757 0.957314
O O1 0.429697 0.410942 0.877205
O O2 0.420316 0.177680 0.955685
O O3 0.539968 0.049373 0.929697
O O4 0.555040 0.416518 0.988734
O O5 0.305495 0.266745 0.321791
O O6 0.168990 0.055489 0.243761
O O7 0.220846 0.095228 0.360777
O O8 0.285854 0.772726 0.318611
O O9 0.665086 0.112649 0.915996
O O10 0.797488 0.997687 0.920720
O O11 0.800956 0.369683 0.977999
O O12 0.647594 0.718318 0.978225
#
# Coordination Sequence:
#
# PCOD9262602 Si02
#       6
#     8   8   8   8   8   8
#     4  10  20  32  52  85 109 148 183 241 282 338
#     4  10  21  38  59  87 107 154 189 242 277 341
#     4  10  21  37  61  84 115 141 201 236 283 329
#     4  10  20  35  53  80 113 149 193 227 296 342
#     4  10  19  33  54  79 113 146 189 229 292 339
#     4  10  21  33  52  82 114 151 182 239 286 357
#
# _framework density 20.554262999999999
#
# number of rings (size 3 to 8) (size 9 to 14) (size 15 to 20)
#    0.000    2.000    1.667    2.000    2.333    0.000 
#    0.000    0.833    0.000    0.000    0.000    0.000 
#    0.000    0.000    0.000    0.000    0.000    0.000 
#
# Total GULP energy -133713.459918 kJ/mol
# GULP energy per Si atom -5571.394163 kJ/mol
# Density = 2.050748 g / cm^3
# Si number density = 20.554263 Si / 1000 Ang^3
#
#
#
# Elastic Constant Matrix: (Units=GPa)
#
#
# Indices 1 2 3 4 5 6 
#
# 1 69.6351 7.3797 16.4927 0.0003 -11.6043 0.0000
# 2 7.3797 59.5326 -11.9957 0.0012 -8.8710 -0.0006
# 3 16.4927 -11.9957 58.7483 0.0007 -20.3575 0.0006
# 4 0.0003 0.0012 0.0007 22.7467 0.0001 -12.7101
# 5 -11.6043 -8.8710 -20.3575 0.0001 25.3749 0.0003
# 6 0.0000 -0.0006 0.0006 -12.7101 0.0003 4.4524
#
#
#
# Elastic Compliance Matrix: (Units=1/GPa)
#
#
# Indices 1 2 3 4 5 6 
#
# 1 0.016074 -0.002205 -0.003716 0.000000 0.003599 0.000000
# 2 -0.002205 0.021215 0.009933 0.000002 0.014377 0.000006
# 3 -0.003716 0.009933 0.028681 0.000006 0.024783 0.000013
# 4 0.000000 0.000002 0.000006 -0.073874 0.000008 -0.210886
# 5 0.003599 0.014377 0.024783 0.000008 0.065964 0.000018
# 6 0.000000 0.000006 0.000013 -0.210886 0.000018 -0.377412
#
#
# Mechanical properties :
#
#
# Convention : Reuss Voigt Hill
#
# Bulk Modulus (GPa) = 13.51470 23.51883 18.51676
# Shear Modulus (GPa) = -16.51731 22.25074 2.86672
#
# Velocity S-wave (km/s) = -2.83785 3.29376 1.18226
# Velocity P-wave (km/s) = 2.03678 5.09238 3.30029
#
# Compressibility (1/GPa) = 0.07399350
#
# Stress axis : x y z
#
# Youngs Moduli (GPa) = 62.21208 47.13750 34.86660
#
# Poissons Ratio (x) = 0.10393 0.12955
# Poissons Ratio (y) = 0.13717 -0.34632
# Poissons Ratio (z) = 0.23115 -0.46820
#
# Static dielectric constant tensor:
#      x y z
#    x 1.783750 0.000000 -0.048360 
#    y 0.000000 1.834010 0.000000 
#    z -0.048360 0.000000 1.763740 
# 
# From -- ./inp_files/250791.got.cif
#   From: 2010.05.17/outbox.cif.g08.bks.cpg/sg15_126_cif.got.tgz:250791.got - 2010.06.03 18:47:42.
