data_PCOD9262177
_publ_section_title
;
Structure prediction by ZEFSAII (Michael W. Deem and Ramdas Pophale) SiO2 
 PCOD9262177
Probable space group: C 2/C
;
_chemical_formula_sum "Si O2"
_cell_formula_units_Z 36
_cell_length_a 14.296511
_cell_length_b 9.017727
_cell_length_c 12.678200
_cell_angle_alpha 90.000000
_cell_angle_beta 119.265774
_cell_angle_gamma 90.000000
_cell_volume 1425.874203
_symmetry_space_group_name_H-M "C 2/C"
_symmetry_group_IT_number 15
_symmetry_cell_setting 'monoclinic'
loop_
_space_group_symop_operation_xyz
x,y,z
-x,y,1/2-z
-x,-y,-z
x,-y,1/2+z
1/2+x,1/2+y,z
1/2-x,1/2+y,1/2-z
1/2-x,1/2-y,-z
1/2+x,1/2-y,1/2+z
loop_
_atom_site_type_symbol
_atom_site_label
_atom_site_fract_x
_atom_site_fract_y
_atom_site_fract_z
Si Si1 0.094538 0.249096 0.416595
Si Si2 0.114172 0.085253 0.214756
Si Si3 0.841477 0.414312 0.859583
Si Si4 0.085650 0.576636 0.414889
Si Si5 0.000000 0.825752 0.250000
O O1 0.129069 0.133786 0.346762
O O2 0.155602 0.271250 0.559856
O O3 0.101541 0.414674 0.371642
O O4 0.972546 0.201497 0.375887
O O5 0.232810 0.083171 0.234124
O O6 0.053991 0.929072 0.191156
O O7 0.958688 0.419054 0.873923
O O8 0.844467 0.555446 0.941535
O O9 0.093203 0.723613 0.351449
#
# Coordination Sequence:
#
# PCOD9262177 Si02
#       5
#     8   8   8   8   4
#     4   8  17  34  53  74 101 137 171 209 242 316
#     4  10  19  32  55  78 103 136 172 210 258 297
#     4   9  19  34  57  74 103 136 176 210 251 305
#     4   9  19  36  53  73 106 136 170 212 253 306
#     4  10  20  34  50  78 108 134 166 218 254 304
#
# _framework density 25.247668000000001
#
# number of rings (size 3 to 8) (size 9 to 14) (size 15 to 20)
#    1.333    1.778    0.000    2.000    0.000    2.667 
#    0.000    4.444    0.000    0.000    0.000    0.000 
#    0.000    0.000    0.000    0.000    0.000    0.000 
#
# Total GULP energy -100247.394474 kJ/mol
# GULP energy per Si atom -5569.299693 kJ/mol
# Density = 2.519020 g / cm^3
# Si number density = 25.247668 Si / 1000 Ang^3
#
#
#
# Elastic Constant Matrix: (Units=GPa)
#
#
# Indices 1 2 3 4 5 6 
#
# 1 69.1741 9.0332 17.7819 0.0000 40.3808 0.0000
# 2 9.0332 115.5851 7.0845 0.0000 -0.6123 0.0000
# 3 17.7819 7.0845 31.3820 0.0000 19.8063 0.0000
# 4 0.0000 0.0000 0.0000 16.2748 0.0000 -0.7661
# 5 40.3808 -0.6123 19.8063 0.0000 40.7416 0.0000
# 6 0.0000 0.0000 0.0000 -0.7661 0.0000 22.1730
#
#
#
# Elastic Compliance Matrix: (Units=1/GPa)
#
#
# Indices 1 2 3 4 5 6 
#
# 1 0.035636 -0.003236 0.004127 0.000000 -0.037376 0.000000
# 2 -0.003236 0.009138 -0.003376 0.000000 0.004986 0.000000
# 3 0.004127 -0.003376 0.047467 0.000000 -0.027217 0.000000
# 4 0.000000 0.000000 0.000000 0.061545 0.000000 0.002126
# 5 -0.037376 0.004986 -0.027217 0.000000 0.074896 0.000000
# 6 0.000000 0.000000 0.000000 0.002126 0.000000 0.045173
#
#
# Mechanical properties :
#
#
# Convention : Reuss Voigt Hill
#
# Bulk Modulus (GPa) = 11.45859 31.54893 21.50376
# Shear Modulus (GPa) = 16.23825 27.98730 22.11277
#
# Velocity S-wave (km/s) = 2.53881 3.33304 2.96266
# Velocity P-wave (km/s) = 3.62524 5.22830 4.49875
#
# Compressibility (1/GPa) = 0.08727078
#
# Stress axis : x y z
#
# Youngs Moduli (GPa) = 28.06132 109.43460 21.06745
#
# Poissons Ratio (x) = 0.35413 -0.08695
# Poissons Ratio (y) = 0.09081 0.07113
# Poissons Ratio (z) = -0.11581 0.36946
#
# Static dielectric constant tensor:
#      x y z
#    x 2.113400 0.000000 -0.131220 
#    y 0.000000 2.015940 0.000000 
#    z -0.131220 0.000000 2.150270 
# 
# From -- ./inp_files/208369.got.cif
#   From: 2010.05.17/outbox.cif.g08.bks.cpg/sg15_105_cif.got.tgz:208369.got - 2010.06.03 18:47:42.
