data_PCOD9262437
_publ_section_title
;
Structure prediction by ZEFSAII (Michael W. Deem and Ramdas Pophale) SiO2 
 PCOD9262437
Probable space group: C 2/C
;
_chemical_formula_sum "Si O2"
_cell_formula_units_Z 56
_cell_length_a 21.278568
_cell_length_b 15.987493
_cell_length_c 21.238934
_cell_angle_alpha 90.000000
_cell_angle_beta 155.777874
_cell_angle_gamma 90.000000
_cell_volume 2964.358922
_symmetry_space_group_name_H-M "C 2/C"
_symmetry_group_IT_number 15
_symmetry_cell_setting 'monoclinic'
loop_
_space_group_symop_operation_xyz
x,y,z
-x,y,1/2-z
-x,-y,-z
x,-y,1/2+z
1/2+x,1/2+y,z
1/2-x,1/2+y,1/2-z
1/2-x,1/2-y,-z
1/2+x,1/2-y,1/2+z
loop_
_atom_site_type_symbol
_atom_site_label
_atom_site_fract_x
_atom_site_fract_y
_atom_site_fract_z
Si Si1 0.906817 0.145823 0.727752
Si Si2 0.787239 0.868557 0.791765
Si Si3 0.436771 0.743606 0.982402
Si Si4 0.173887 0.369826 0.253483
Si Si5 0.570199 0.802569 0.882365
Si Si6 0.569702 0.041045 0.180865
Si Si7 0.740208 0.037349 0.680880
O O1 0.749561 0.187506 0.557909
O O2 0.846702 0.079573 0.724831
O O3 0.000000 0.114605 0.750000
O O4 0.006107 0.217157 0.854527
O O5 0.660704 0.801671 0.653371
O O6 0.719716 0.914191 0.790410
O O7 0.942208 0.817546 0.940225
O O8 0.798623 0.944888 0.752387
O O9 0.534946 0.806382 0.114583
O O10 0.316224 0.684147 0.907465
O O11 0.119931 0.448319 0.245241
O O12 0.224289 0.407969 0.230651
O O13 0.500000 0.789161 0.750000
O O14 0.500336 0.891482 0.837199
O O15 0.433461 0.030803 0.004758
#
# Coordination Sequence:
#
# PCOD9262437 Si02
#       7
#     8   8   8   8   8   8   8
#     4  10  21  36  52  75  99 136 172 206 248 297
#     4  10  19  34  48  79 104 135 168 200 258 296
#     4  10  20  30  52  72 108 132 168 202 246 314
#     4  10  19  34  48  79 104 135 168 200 258 296
#     4  10  21  36  52  75  99 136 172 206 248 297
#     4  10  19  33  52  73 107 134 167 208 251 302
#     4  10  19  33  52  73 107 134 167 208 251 302
#
# _framework density 18.891100000000002
#
# number of rings (size 3 to 8) (size 9 to 14) (size 15 to 20)
#    0.000    2.000    2.857    2.571    4.000    2.286 
#    7.714    0.000    0.000    0.000    0.000    6.000 
#    0.000    0.000    0.000    0.000    0.000    0.000 
#
# Total GULP energy -156010.707730 kJ/mol
# GULP energy per Si atom -5571.810990 kJ/mol
# Density = 1.884810 g / cm^3
# Si number density = 18.891100 Si / 1000 Ang^3
#
#
#
# Elastic Constant Matrix: (Units=GPa)
#
#
# Indices 1 2 3 4 5 6 
#
# 1 39.1313 30.6978 16.7833 -0.0007 10.7905 0.0001
# 2 30.6978 126.4362 42.5684 0.0076 18.0996 0.0018
# 3 16.7833 42.5684 76.7095 0.0165 24.2269 0.0030
# 4 -0.0007 0.0076 0.0165 4.4752 0.0038 14.7771
# 5 10.7905 18.0996 24.2269 0.0038 20.9315 0.0004
# 6 0.0001 0.0018 0.0030 14.7771 0.0004 29.0016
#
#
#
# Elastic Compliance Matrix: (Units=1/GPa)
#
#
# Indices 1 2 3 4 5 6 
#
# 1 0.033959 -0.006531 -0.000095 -0.000037 -0.011749 0.000019
# 2 -0.006531 0.011139 -0.004372 0.000003 -0.001205 -0.000002
# 3 -0.000095 -0.004372 0.022498 0.000074 -0.022210 -0.000039
# 4 -0.000037 0.000003 0.000074 -0.327430 -0.000013 0.166834
# 5 -0.011749 -0.001205 -0.022210 -0.000013 0.080581 0.000008
# 6 0.000019 -0.000002 -0.000039 0.166834 0.000008 -0.050525
#
#
# Mechanical properties :
#
#
# Convention : Reuss Voigt Hill
#
# Bulk Modulus (GPa) = 21.92983 46.93066 34.43025
# Shear Modulus (GPa) = -25.96285 21.03017 -2.46634
#
# Velocity S-wave (km/s) = -3.71123 3.34013 -1.14385
# Velocity P-wave (km/s) = 2.59434 6.30650 4.06457
#
# Compressibility (1/GPa) = 0.04559998
#
# Stress axis : x y z
#
# Youngs Moduli (GPa) = 29.44721 89.77216 44.44897
#
# Poissons Ratio (x) = 0.58632 0.00422
# Poissons Ratio (y) = 0.19232 0.19433
# Poissons Ratio (z) = 0.00279 0.39249
#
# Static dielectric constant tensor:
#      x y z
#    x 1.692120 0.000000 0.007470 
#    y 0.000000 1.705210 0.000000 
#    z 0.007470 0.000000 1.667380 
# 
# From -- ./inp_files/69986.got.cif
#   From: 2010.05.17/outbox.cif.g08.bks.cpg/sg15_35_cif.got.tgz:69986.got - 2010.06.03 18:47:42.
