data_PCOD9262460
_publ_section_title
;
Structure prediction by ZEFSAII (Michael W. Deem and Ramdas Pophale) SiO2 
 PCOD9262460
Probable space group: C 2/C
;
_chemical_formula_sum "Si O2"
_cell_formula_units_Z 64
_cell_length_a 12.261324
_cell_length_b 7.933232
_cell_length_c 25.579135
_cell_angle_alpha 90.000000
_cell_angle_beta 102.881467
_cell_angle_gamma 90.000000
_cell_volume 2425.513850
_symmetry_space_group_name_H-M "C 2/C"
_symmetry_group_IT_number 15
_symmetry_cell_setting 'monoclinic'
loop_
_space_group_symop_operation_xyz
x,y,z
-x,y,1/2-z
-x,-y,-z
x,-y,1/2+z
1/2+x,1/2+y,z
1/2-x,1/2+y,1/2-z
1/2-x,1/2-y,-z
1/2+x,1/2-y,1/2+z
loop_
_atom_site_type_symbol
_atom_site_label
_atom_site_fract_x
_atom_site_fract_y
_atom_site_fract_z
Si Si1 0.946078 0.513415 0.364686
Si Si2 0.492156 0.303305 0.517832
Si Si3 0.826035 0.921294 0.897284
Si Si4 0.870811 0.337331 0.559079
Si Si5 0.576265 0.343021 0.206787
Si Si6 0.300152 0.794161 0.928310
Si Si7 0.743599 0.823323 0.194732
Si Si8 0.101709 0.996302 0.871602
O O1 0.946483 0.678103 0.328731
O O2 0.867679 0.557653 0.405920
O O3 0.884626 0.379537 0.322136
O O4 0.067667 0.512423 0.402830
O O5 0.500000 0.500000 0.500000
O O6 0.555823 0.325448 0.579873
O O7 0.570524 0.184306 0.490024
O O8 0.367319 0.238800 0.489633
O O9 0.757555 0.875584 0.943738
O O10 0.757259 0.845061 0.841087
O O11 0.825231 0.122773 0.898527
O O12 0.893076 0.156217 0.588748
O O13 0.500000 0.331594 0.250000
O O14 0.702088 0.330747 0.242407
O O15 0.522954 0.496797 0.167479
O O16 0.171688 0.850614 0.908254
O O17 0.819173 0.954587 0.169468
#
# Coordination Sequence:
#
# PCOD9262460 Si02
#       8
#     8   8   8   8   8   8   8   8
#     4   9  18  34  52  73 102 139 173 211 263 317
#     4   9  18  33  52  75 105 141 175 213 262 313
#     4  10  19  33  52  78 107 137 173 220 264 307
#     4   9  17  33  53  73 102 137 175 215 259 309
#     4   9  17  32  56  75  99 138 177 216 268 321
#     4   9  18  34  54  77 106 136 176 219 259 316
#     4   9  18  32  52  77 103 134 173 216 264 315
#     4   8  16  33  55  74  99 138 172 210 265 318
#
# _framework density 26.386161999999999
#
# number of rings (size 3 to 8) (size 9 to 14) (size 15 to 20)
#    0.000    3.000    0.000    1.125    0.000    1.000 
#    0.000   20.000    0.000   21.750    0.000    0.000 
#    0.000    0.000    0.000    0.000    0.000    0.000 
#
# Total GULP energy -178559.779629 kJ/mol
# GULP energy per Si atom -5579.993113 kJ/mol
# Density = 2.632611 g / cm^3
# Si number density = 26.386162 Si / 1000 Ang^3
#
#
#
# Elastic Constant Matrix: (Units=GPa)
#
#
# Indices 1 2 3 4 5 6 
#
# 1 92.6378 27.4867 32.6225 0.0000 34.1428 0.0000
# 2 27.4867 91.7194 34.3617 0.0000 19.8481 0.0000
# 3 32.6225 34.3617 146.2029 0.0000 39.4275 0.0000
# 4 0.0000 0.0000 0.0000 32.0066 0.0000 9.8668
# 5 34.1428 19.8481 39.4275 0.0000 56.7698 0.0000
# 6 0.0000 0.0000 0.0000 9.8668 0.0000 30.6830
#
#
#
# Elastic Compliance Matrix: (Units=1/GPa)
#
#
# Indices 1 2 3 4 5 6 
#
# 1 0.014489 -0.002499 -0.000654 0.000000 -0.007386 0.000000
# 2 -0.002499 0.012744 -0.002020 0.000000 -0.001550 0.000000
# 3 -0.000654 -0.002020 0.008815 0.000000 -0.005023 0.000000
# 4 0.000000 0.000000 0.000000 0.034682 0.000000 -0.011153
# 5 -0.007386 -0.001550 -0.005023 0.000000 0.026088 0.000000
# 6 0.000000 0.000000 0.000000 -0.011153 0.000000 0.036178
#
#
# Mechanical properties :
#
#
# Convention : Reuss Voigt Hill
#
# Bulk Modulus (GPa) = 38.90563 57.72244 48.31404
# Shear Modulus (GPa) = 32.91511 39.63114 36.27313
#
# Velocity S-wave (km/s) = 3.53574 3.87973 3.71172
# Velocity P-wave (km/s) = 5.60761 6.48022 6.05964
#
# Compressibility (1/GPa) = 0.02570322
#
# Stress axis : x y z
#
# Youngs Moduli (GPa) = 69.01970 78.47020 113.44477
#
# Poissons Ratio (x) = 0.19607 0.07416
# Poissons Ratio (y) = 0.17246 0.22911
# Poissons Ratio (z) = 0.04512 0.15847
#
# Static dielectric constant tensor:
#      x y z
#    x 2.167480 0.000000 0.038750 
#    y 0.000000 2.146490 0.000000 
#    z 0.038750 0.000000 2.130350 
# 
# From -- ./inp_files/312931.got.cif
#   From: 2010.05.17/outbox.cif.g08.bks.cpg/sg15_157_cif.got.tgz:312931.got - 2010.06.03 18:47:42.
