data_PCOD9262711
_publ_section_title
;
Structure prediction by ZEFSAII (Michael W. Deem and Ramdas Pophale) SiO2 
 PCOD9262711
Probable space group: C 2/C
;
_chemical_formula_sum "Si O2"
_cell_formula_units_Z 40
_cell_length_a 23.834290
_cell_length_b 6.921703
_cell_length_c 14.228557
_cell_angle_alpha 90.000000
_cell_angle_beta 41.546312
_cell_angle_gamma 90.000000
_cell_volume 1556.815202
_symmetry_space_group_name_H-M "C 2/C"
_symmetry_group_IT_number 15
_symmetry_cell_setting 'monoclinic'
loop_
_space_group_symop_operation_xyz
x,y,z
-x,y,1/2-z
-x,-y,-z
x,-y,1/2+z
1/2+x,1/2+y,z
1/2-x,1/2+y,1/2-z
1/2-x,1/2-y,-z
1/2+x,1/2-y,1/2+z
loop_
_atom_site_type_symbol
_atom_site_label
_atom_site_fract_x
_atom_site_fract_y
_atom_site_fract_z
Si Si1 0.784466 0.545870 0.000742
Si Si2 0.519400 0.460362 0.122194
Si Si3 0.388144 0.967630 0.710760
Si Si4 0.562684 0.099442 0.554235
Si Si5 0.370828 0.420983 0.682965
O O1 0.811261 0.417545 0.876944
O O2 0.750000 0.750000 0.000000
O O3 0.873259 0.552734 0.943752
O O4 0.717226 0.502083 0.166759
O O5 0.500000 0.381757 0.250000
O O6 0.440192 0.447857 0.150507
O O7 0.528792 0.690462 0.120704
O O8 0.604326 0.409129 0.958004
O O9 0.483797 0.955569 0.633769
O O10 0.379361 0.199152 0.704776
O O11 0.388042 0.884133 0.606469
#
# Coordination Sequence:
#
# PCOD9262711 Si02
#       5
#     8   8   8   8   8
#     4  10  19  33  55  81 108 140 178 222 271 323
#     4  10  19  36  54  71 101 142 175 214 269 322
#     4   9  19  36  53  78 109 140 177 221 269 324
#     4  10  19  33  56  78 105 143 181 216 267 328
#     4   9  20  34  52  78 103 132 179 220 261 321
#
# _framework density 25.693481999999999
#
# number of rings (size 3 to 8) (size 9 to 14) (size 15 to 20)
#    0.000    2.400    0.000    4.200    0.000    4.800 
#    0.000   10.000    0.000    0.000    0.000    0.000 
#    0.000    0.000    0.000    0.000    0.000    0.000 
#
# Total GULP energy -111715.709970 kJ/mol
# GULP energy per Si atom -5585.785499 kJ/mol
# Density = 2.563500 g / cm^3
# Si number density = 25.693482 Si / 1000 Ang^3
#
#
#
# Elastic Constant Matrix: (Units=GPa)
#
#
# Indices 1 2 3 4 5 6 
#
# 1 73.7321 16.7137 34.0227 0.0079 32.1893 0.0015
# 2 16.7137 50.6892 4.4844 0.0234 8.3146 -0.0192
# 3 34.0227 4.4844 239.9506 0.0353 55.4822 -0.0171
# 4 0.0079 0.0234 0.0353 37.4582 -0.0207 10.3797
# 5 32.1893 8.3146 55.4822 -0.0207 42.7195 0.0074
# 6 0.0015 -0.0192 -0.0171 10.3797 0.0074 21.0619
#
#
#
# Elastic Compliance Matrix: (Units=1/GPa)
#
#
# Indices 1 2 3 4 5 6 
#
# 1 0.021275 -0.004424 0.000820 -0.000014 -0.016234 0.000008
# 2 -0.004424 0.021398 0.000600 -0.000023 -0.001610 0.000032
# 3 0.000820 0.000600 0.006017 -0.000015 -0.008549 0.000016
# 4 -0.000014 -0.000023 -0.000015 0.030919 0.000052 -0.015237
# 5 -0.016234 -0.001610 -0.008549 0.000052 0.047057 -0.000049
# 6 0.000008 0.000032 0.000016 -0.015237 -0.000049 0.054989
#
#
# Mechanical properties :
#
#
# Convention : Reuss Voigt Hill
#
# Bulk Modulus (GPa) = 23.43047 52.75705 38.09376
# Shear Modulus (GPa) = 24.76591 40.85798 32.81195
#
# Velocity S-wave (km/s) = 3.10804 3.99207 3.57747
# Velocity P-wave (km/s) = 4.69243 6.46735 5.65002
#
# Compressibility (1/GPa) = 0.04267947
#
# Stress axis : x y z
#
# Youngs Moduli (GPa) = 47.00424 46.73344 166.20262
#
# Poissons Ratio (x) = 0.20677 -0.13627
# Poissons Ratio (y) = 0.20797 -0.09966
# Poissons Ratio (z) = -0.03854 -0.02802
#
# Static dielectric constant tensor:
#      x y z
#    x 2.012580 0.000000 -0.005490 
#    y 0.000000 2.106980 0.000000 
#    z -0.005490 0.000000 2.054910 
# 
# From -- ./inp_files/103199.got.cif
#   From: 2010.05.17/outbox.cif.g08.bks.cpg/sg15_52_cif.got.tgz:103199.got - 2010.06.03 18:47:42.
