data_PCOD9262843
_publ_section_title
;
Structure prediction by ZEFSAII (Michael W. Deem and Ramdas Pophale) SiO2 
 PCOD9262843
Probable space group: C 2/C
;
_chemical_formula_sum "Si O2"
_cell_formula_units_Z 48
_cell_length_a 15.437570
_cell_length_b 22.642637
_cell_length_c 10.578139
_cell_angle_alpha 90.000000
_cell_angle_beta 36.799552
_cell_angle_gamma 90.000000
_cell_volume 2214.902462
_symmetry_space_group_name_H-M "C 2/C"
_symmetry_group_IT_number 15
_symmetry_cell_setting 'monoclinic'
loop_
_space_group_symop_operation_xyz
x,y,z
-x,y,1/2-z
-x,-y,-z
x,-y,1/2+z
1/2+x,1/2+y,z
1/2-x,1/2+y,1/2-z
1/2-x,1/2-y,-z
1/2+x,1/2-y,1/2+z
loop_
_atom_site_type_symbol
_atom_site_label
_atom_site_fract_x
_atom_site_fract_y
_atom_site_fract_z
Si Si1 0.146208 0.210746 0.530400
Si Si2 0.841467 0.329940 0.091841
Si Si3 0.363348 0.729529 0.472818
Si Si4 0.383073 0.850513 0.585238
Si Si5 0.839211 0.523849 0.156452
Si Si6 0.324811 0.060477 0.454646
O O1 0.250000 0.250000 0.500000
O O2 0.084928 0.266755 0.522605
O O3 0.246793 0.170530 0.327207
O O4 0.000000 0.180901 0.750000
O O5 0.710761 0.311589 0.335645
O O6 0.795546 0.370910 0.027660
O O7 0.970948 0.364096 0.008268
O O8 0.500000 0.698772 0.250000
O O9 0.250000 0.750000 0.500000
O O10 0.415512 0.792165 0.468121
O O11 0.345357 0.913956 0.572935
O O12 0.776641 0.539260 0.370639
O O13 0.769991 0.477526 0.139037
O O14 0.000000 0.500000 0.000000
O O15 0.500000 0.054409 0.250000
#
# Coordination Sequence:
#
# PCOD9262843 Si02
#       6
#     8   8   8   8   8   8
#     4  11  21  33  55  85 122 158 195 247 317 380
#     4  11  20  35  57  85 119 160 202 261 306 385
#     4  11  24  39  58  87 126 169 210 259 324 388
#     4  11  21  35  58  87 123 157 211 258 317 378
#     4  10  20  34  57  92 123 165 210 273 320 375
#     4  10  19  33  56  87 128 154 217 259 327 366
#
# _framework density 21.671384
#
# number of rings (size 3 to 8) (size 9 to 14) (size 15 to 20)
#    0.000    1.333    6.667    1.500    0.000    3.333 
#    0.000    0.000    0.000    1.000    0.000    4.667 
#    0.000    0.000    0.000    0.000    0.000    0.000 
#
# Total GULP energy -133726.102770 kJ/mol
# GULP energy per Si atom -5571.920949 kJ/mol
# Density = 2.162206 g / cm^3
# Si number density = 21.671384 Si / 1000 Ang^3
#
#
#
# Elastic Constant Matrix: (Units=GPa)
#
#
# Indices 1 2 3 4 5 6 
#
# 1 57.6224 2.8750 10.2493 0.0000 17.7312 0.0000
# 2 2.8750 108.0919 14.4054 0.0000 15.7802 0.0000
# 3 10.2493 14.4054 131.0028 0.0000 9.7509 0.0000
# 4 0.0000 0.0000 0.0000 25.5720 0.0000 13.9704
# 5 17.7312 15.7802 9.7509 0.0000 33.0986 0.0000
# 6 0.0000 0.0000 0.0000 13.9704 0.0000 24.9108
#
#
#
# Elastic Compliance Matrix: (Units=1/GPa)
#
#
# Indices 1 2 3 4 5 6 
#
# 1 0.021021 0.001255 -0.000920 0.000000 -0.011589 0.000000
# 2 0.001255 0.010092 -0.000818 0.000000 -0.005243 0.000000
# 3 -0.000920 -0.000818 0.007903 0.000000 -0.001445 0.000000
# 4 0.000000 0.000000 0.000000 0.056379 0.000000 -0.031618
# 5 -0.011589 -0.005243 -0.001445 0.000000 0.039347 0.000000
# 6 0.000000 0.000000 0.000000 -0.031618 0.000000 0.057875
#
#
# Mechanical properties :
#
#
# Convention : Reuss Voigt Hill
#
# Bulk Modulus (GPa) = 26.27998 39.08627 32.68313
# Shear Modulus (GPa) = 24.24047 34.66211 29.45129
#
# Velocity S-wave (km/s) = 3.34810 4.00364 3.69045
# Velocity P-wave (km/s) = 5.20569 6.28070 5.76830
#
# Compressibility (1/GPa) = 0.03805178
#
# Stress axis : x y z
#
# Youngs Moduli (GPa) = 47.57052 99.08408 126.53549
#
# Poissons Ratio (x) = -0.12438 0.11643
# Poissons Ratio (y) = -0.05972 0.10347
# Poissons Ratio (z) = 0.04377 0.08102
#
# Static dielectric constant tensor:
#      x y z
#    x 1.946590 0.000000 0.082510 
#    y 0.000000 1.825940 0.000000 
#    z 0.082510 0.000000 1.804330 
# 
# From -- ./inp_files/108051.got.cif
#   From: 2010.05.17/outbox.cif.g08.bks.cpg/sg15_55_cif.got.tgz:108051.got - 2010.06.03 18:47:42.
