data_PCOD9262923
_publ_section_title
;
Structure prediction by ZEFSAII (Michael W. Deem and Ramdas Pophale) SiO2 
 PCOD9262923
Probable space group: C 2/C
;
_chemical_formula_sum "Si O2"
_cell_formula_units_Z 40
_cell_length_a 6.433385
_cell_length_b 19.923399
_cell_length_c 18.214258
_cell_angle_alpha 90.000000
_cell_angle_beta 101.143198
_cell_angle_gamma 90.000000
_cell_volume 2290.596761
_symmetry_space_group_name_H-M "C 2/C"
_symmetry_group_IT_number 15
_symmetry_cell_setting 'monoclinic'
loop_
_space_group_symop_operation_xyz
x,y,z
-x,y,1/2-z
-x,-y,-z
x,-y,1/2+z
1/2+x,1/2+y,z
1/2-x,1/2+y,1/2-z
1/2-x,1/2-y,-z
1/2+x,1/2-y,1/2+z
loop_
_atom_site_type_symbol
_atom_site_label
_atom_site_fract_x
_atom_site_fract_y
_atom_site_fract_z
Si Si1 0.460007 0.865176 0.827688
Si Si2 0.794193 0.319776 0.963815
Si Si3 0.845684 0.993481 0.672857
Si Si4 0.896277 0.086174 0.425712
Si Si5 0.887247 0.433688 0.459056
O O1 0.500000 0.836039 0.750000
O O2 0.385567 0.815572 0.887142
O O3 0.292472 0.927389 0.814350
O O4 0.683786 0.894539 0.868660
O O5 0.569789 0.356115 0.940826
O O6 0.750000 0.250000 0.000000
O O7 0.955629 0.370578 0.017577
O O8 0.000000 0.012801 0.750000
O O9 0.991370 0.971550 0.613803
O O10 0.686658 0.048910 0.628339
O O11 0.816055 0.074540 0.502458
O O12 0.000000 0.500000 0.500000
#
# Coordination Sequence:
#
# PCOD9262923 Si02
#       5
#     8   8   8   8   8
#     4  10  19  33  57  91 112 145 198 244 296 353
#     4  10  23  38  58  85 114 160 204 244 291 357
#     4  11  20  31  54  90 119 146 183 244 312 347
#     4  10  19  34  60  81 118 146 190 242 293 342
#     4  11  20  34  57  91 113 150 199 243 294 361
#
# _framework density 17.462698
#
# number of rings (size 3 to 8) (size 9 to 14) (size 15 to 20)
#    0.000    1.600    8.000    0.600    0.000    3.200 
#    0.000    0.000    0.000    7.200    0.000    0.000 
#    0.000    0.000    0.000    0.000    0.000    0.000 
#
# Total GULP energy -111416.650214 kJ/mol
# GULP energy per Si atom -5570.832511 kJ/mol
# Density = 1.742295 g / cm^3
# Si number density = 17.462698 Si / 1000 Ang^3
#
#
#
# Elastic Constant Matrix: (Units=GPa)
#
#
# Indices 1 2 3 4 5 6 
#
# 1 93.3293 31.4252 32.4985 0.0000 -0.4531 0.0000
# 2 31.4252 80.4774 58.8125 0.0000 -3.6196 0.0000
# 3 32.4985 58.8125 119.2476 0.0000 14.1759 0.0000
# 4 0.0000 0.0000 0.0000 19.2327 0.0000 -2.9204
# 5 -0.4531 -3.6196 14.1759 0.0000 33.8789 0.0000
# 6 0.0000 0.0000 0.0000 -2.9204 0.0000 14.9299
#
#
#
# Elastic Compliance Matrix: (Units=1/GPa)
#
#
# Indices 1 2 3 4 5 6 
#
# 1 0.012528 -0.003649 -0.001671 0.000000 0.000477 0.000000
# 2 -0.003649 0.021908 -0.010611 0.000000 0.006732 0.000000
# 3 -0.001671 -0.010611 0.014956 0.000000 -0.007414 0.000000
# 4 0.000000 0.000000 0.000000 0.053586 0.000000 0.010482
# 5 0.000477 0.006732 -0.007414 0.000000 0.033345 0.000000
# 6 0.000000 0.000000 0.000000 0.010482 0.000000 0.069030
#
#
# Mechanical properties :
#
#
# Convention : Reuss Voigt Hill
#
# Bulk Modulus (GPa) = 57.04660 59.83630 58.44145
# Shear Modulus (GPa) = 20.57130 24.96284 22.76707
#
# Velocity S-wave (km/s) = 3.43594 3.78497 3.61467
# Velocity P-wave (km/s) = 6.96273 7.31033 7.13864
#
# Compressibility (1/GPa) = 0.01752953
#
# Stress axis : x y z
#
# Youngs Moduli (GPa) = 79.82316 45.64611 66.86393
#
# Poissons Ratio (x) = 0.16657 0.11174
# Poissons Ratio (y) = 0.29129 0.70946
# Poissons Ratio (z) = 0.13339 0.48433
#
# Static dielectric constant tensor:
#      x y z
#    x 1.623120 0.000000 -0.002030 
#    y 0.000000 1.591480 0.000000 
#    z -0.002030 0.000000 1.651530 
# 
# From -- ./inp_files/184212.got.cif
#   From: 2010.05.17/outbox.cif.g08.bks.cpg/sg15_93_cif.got.tgz:184212.got - 2010.06.03 18:47:42.
