data_PCOD9262571
_publ_section_title
;
Structure prediction by ZEFSAII (Michael W. Deem and Ramdas Pophale) SiO2 
 PCOD9262571
Probable space group: C 2/C
;
_chemical_formula_sum "Si O2"
_cell_formula_units_Z 64
_cell_length_a 22.851435
_cell_length_b 12.878999
_cell_length_c 21.690759
_cell_angle_alpha 90.000000
_cell_angle_beta 35.795566
_cell_angle_gamma 90.000000
_cell_volume 3733.775277
_symmetry_space_group_name_H-M "C 2/C"
_symmetry_group_IT_number 15
_symmetry_cell_setting 'monoclinic'
loop_
_space_group_symop_operation_xyz
x,y,z
-x,y,1/2-z
-x,-y,-z
x,-y,1/2+z
1/2+x,1/2+y,z
1/2-x,1/2+y,1/2-z
1/2-x,1/2-y,-z
1/2+x,1/2-y,1/2+z
loop_
_atom_site_type_symbol
_atom_site_label
_atom_site_fract_x
_atom_site_fract_y
_atom_site_fract_z
Si Si1 0.076455 0.180056 0.762640
Si Si2 0.974062 0.585959 0.072036
Si Si3 0.484965 0.908348 0.829279
Si Si4 0.615240 0.434360 0.035348
Si Si5 0.116418 0.773433 0.920426
Si Si6 0.668124 0.268390 0.314168
Si Si7 0.044221 0.094282 0.003462
Si Si8 0.751454 0.631330 0.521113
O O1 0.108226 0.186285 0.806701
O O2 0.169262 0.132904 0.645883
O O3 0.044588 0.297741 0.772421
O O4 0.975203 0.114138 0.847398
O O5 0.971787 0.544839 0.144209
O O6 0.875152 0.652123 0.139760
O O7 0.059612 0.674667 0.996899
O O8 0.000000 0.500000 0.000000
O O9 0.500000 0.961596 0.750000
O O10 0.365521 0.894563 0.939913
O O11 0.710043 0.436159 0.999280
O O12 0.634100 0.355338 0.961391
O O13 0.576863 0.541603 0.039027
O O14 0.218347 0.739507 0.802266
O O15 0.044372 0.822526 0.929745
O O16 0.639347 0.346697 0.393014
O O17 0.000000 0.000000 0.000000
O O18 0.750000 0.750000 0.500000
#
# Coordination Sequence:
#
# PCOD9262571 Si02
#       8
#     8   8   8   8   8   8   8   8
#     4  11  18  30  49  73 106 138 168 205 266 320
#     4  10  21  36  51  77 110 136 177 224 262 314
#     4  11  20  33  48  73 109 143 170 208 265 330
#     4  11  19  33  52  76 106 142 174 210 257 324
#     4  10  19  34  50  76 104 139 176 216 266 310
#     4  10  19  33  54  74 105 143 172 218 269 318
#     4   9  18  35  50  73 107 138 176 220 253 311
#     4  12  20  29  49  74 107 144 167 201 262 332
#
# _framework density 17.140827999999999
#
# number of rings (size 3 to 8) (size 9 to 14) (size 15 to 20)
#    0.000    1.500    7.500    1.875    1.750    2.000 
#    2.250    0.000    0.000    0.000    0.000   10.500 
#    0.000    0.000    0.000    0.000    0.000    0.000 
#
# Total GULP energy -178317.460757 kJ/mol
# GULP energy per Si atom -5572.420649 kJ/mol
# Density = 1.710181 g / cm^3
# Si number density = 17.140828 Si / 1000 Ang^3
#
#
#
# Elastic Constant Matrix: (Units=GPa)
#
#
# Indices 1 2 3 4 5 6 
#
# 1 52.5941 15.4341 4.4180 0.0000 10.5237 0.0000
# 2 15.4341 25.4743 8.4595 0.0000 10.6408 0.0000
# 3 4.4180 8.4595 80.9683 0.0000 -9.1972 0.0000
# 4 0.0000 0.0000 0.0000 10.7469 0.0000 3.8569
# 5 10.5237 10.6408 -9.1972 0.0000 35.4244 0.0000
# 6 0.0000 0.0000 0.0000 3.8569 0.0000 18.8619
#
#
#
# Elastic Compliance Matrix: (Units=1/GPa)
#
#
# Indices 1 2 3 4 5 6 
#
# 1 0.023423 -0.012747 -0.000311 0.000000 -0.003210 0.000000
# 2 -0.012747 0.055304 -0.006738 0.000000 -0.014575 0.000000
# 3 -0.000311 -0.006738 0.013716 0.000000 0.005678 0.000000
# 4 0.000000 0.000000 0.000000 0.100419 0.000000 -0.020534
# 5 -0.003210 -0.014575 0.005678 0.000000 0.035035 0.000000
# 6 0.000000 0.000000 0.000000 -0.020534 0.000000 0.057216
#
#
# Mechanical properties :
#
#
# Convention : Reuss Voigt Hill
#
# Bulk Modulus (GPa) = 18.92114 23.96222 21.44168
# Shear Modulus (GPa) = 14.60615 21.72165 18.16390
#
# Velocity S-wave (km/s) = 2.92229 3.56370 3.25881
# Velocity P-wave (km/s) = 4.73803 5.56267 5.16683
#
# Compressibility (1/GPa) = 0.05285093
#
# Stress axis : x y z
#
# Youngs Moduli (GPa) = 42.69372 18.08191 72.90554
#
# Poissons Ratio (x) = 0.23049 0.02267
# Poissons Ratio (y) = 0.54422 0.49125
# Poissons Ratio (z) = 0.01327 0.12184
#
# Static dielectric constant tensor:
#      x y z
#    x 1.467450 0.000000 0.022780 
#    y 0.000000 1.574130 0.000000 
#    z 0.022780 0.000000 1.625670 
# 
# From -- ./inp_files/255341.got.cif
#   From: 2010.05.17/outbox.cif.g08.bks.cpg/sg15_128_cif.got.tgz:255341.got - 2010.06.03 18:47:42.
