data_PCOD9262085
_publ_section_title
;
Structure prediction by ZEFSAII (Michael W. Deem and Ramdas Pophale) SiO2 
 PCOD9262085
Probable space group: C 2/C
;
_chemical_formula_sum "Si O2"
_cell_formula_units_Z 64
_cell_length_a 10.118575
_cell_length_b 22.258191
_cell_length_c 13.042249
_cell_angle_alpha 90.000000
_cell_angle_beta 97.370551
_cell_angle_gamma 90.000000
_cell_volume 2913.119661
_symmetry_space_group_name_H-M "C 2/C"
_symmetry_group_IT_number 15
_symmetry_cell_setting 'monoclinic'
loop_
_space_group_symop_operation_xyz
x,y,z
-x,y,1/2-z
-x,-y,-z
x,-y,1/2+z
1/2+x,1/2+y,z
1/2-x,1/2+y,1/2-z
1/2-x,1/2-y,-z
1/2+x,1/2-y,1/2+z
loop_
_atom_site_type_symbol
_atom_site_label
_atom_site_fract_x
_atom_site_fract_y
_atom_site_fract_z
Si Si1 0.371488 0.941060 0.032220
Si Si2 0.659733 0.864015 0.287051
Si Si3 0.133888 0.956195 0.859014
Si Si4 0.154764 0.091830 0.879265
Si Si5 0.493473 0.351984 0.969924
Si Si6 0.889888 0.575226 0.063560
Si Si7 0.632881 0.272820 0.835398
Si Si8 0.767085 0.133569 0.292712
O O1 0.299571 0.906238 0.114943
O O2 0.418939 0.004688 0.083191
O O3 0.278005 0.954328 0.927217
O O4 0.493528 0.902960 0.999189
O O5 0.500000 0.874759 0.250000
O O6 0.753892 0.880185 0.200744
O O7 0.671341 0.795717 0.326073
O O8 0.154564 0.921920 0.753573
O O9 0.047007 0.914502 0.925969
O O10 0.097539 0.025979 0.846609
O O11 0.043563 0.136052 0.916081
O O12 0.254423 0.079258 0.984701
O O13 0.593082 0.299537 0.942370
O O14 0.357973 0.339184 0.892529
O O15 0.864085 0.609284 0.165979
O O16 0.500000 0.280895 0.750000
O O17 0.741782 0.316994 0.796440
#
# Coordination Sequence:
#
# PCOD9262085 Si02
#       8
#     8   8   8   8   8   8   8   8
#     4  10  20  32  48  76 110 136 169 206 257 314
#     4  11  20  35  51  75 106 140 171 212 258 299
#     4  10  19  32  53  80 105 138 166 206 264 306
#     4  10  19  32  54  81 103 134 172 213 255 305
#     4   9  18  36  55  76 104 132 173 214 253 307
#     4   9  18  33  49  77 107 134 169 211 254 307
#     4   8  17  33  52  74 100 131 174 212 255 300
#     4   9  17  34  55  75 101 135 170 215 254 303
#
# _framework density 21.969577000000001
#
# number of rings (size 3 to 8) (size 9 to 14) (size 15 to 20)
#    0.000    2.500    1.250    2.250    0.000    0.500 
#    2.250    6.875    0.000    0.000    6.500    0.000 
#    0.000    0.000    0.000    0.000    0.000    0.000 
#
# Total GULP energy -178456.549868 kJ/mol
# GULP energy per Si atom -5576.767183 kJ/mol
# Density = 2.191957 g / cm^3
# Si number density = 21.969577 Si / 1000 Ang^3
#
#
#
# Elastic Constant Matrix: (Units=GPa)
#
#
# Indices 1 2 3 4 5 6 
#
# 1 33.7607 -4.3353 16.9869 0.0000 -14.1828 0.0000
# 2 -4.3353 91.5423 39.9388 0.0000 -25.7460 0.0000
# 3 16.9869 39.9388 92.0214 0.0000 -40.1292 0.0000
# 4 0.0000 0.0000 0.0000 10.2026 0.0000 0.5678
# 5 -14.1828 -25.7460 -40.1292 0.0000 48.3558 0.0000
# 6 0.0000 0.0000 0.0000 0.5678 0.0000 14.5500
#
#
#
# Elastic Compliance Matrix: (Units=1/GPa)
#
#
# Indices 1 2 3 4 5 6 
#
# 1 0.037607 0.007074 -0.005579 0.000000 0.010167 0.000000
# 2 0.007074 0.015227 -0.005445 0.000000 0.005664 0.000000
# 3 -0.005579 -0.005445 0.019248 0.000000 0.011438 0.000000
# 4 0.000000 0.000000 0.000000 0.098227 0.000000 -0.003834
# 5 0.010167 0.005664 0.011438 0.000000 0.036170 0.000000
# 6 0.000000 0.000000 0.000000 -0.003834 0.000000 0.068878
#
#
# Mechanical properties :
#
#
# Convention : Reuss Voigt Hill
#
# Bulk Modulus (GPa) = 15.58029 35.83389 25.70709
# Shear Modulus (GPa) = 16.41222 25.60397 21.00809
#
# Velocity S-wave (km/s) = 2.73617 3.41754 3.09566
# Velocity P-wave (km/s) = 4.13393 5.64968 4.95016
#
# Compressibility (1/GPa) = 0.06418366
#
# Stress axis : x y z
#
# Youngs Moduli (GPa) = 26.59087 65.67090 51.95315
#
# Poissons Ratio (x) = -0.46458 0.28984
# Poissons Ratio (y) = -0.18812 0.28288
# Poissons Ratio (z) = 0.14835 0.35758
#
# Static dielectric constant tensor:
#      x y z
#    x 1.866740 0.000000 0.023960 
#    y 0.000000 1.821820 0.000000 
#    z 0.023960 0.000000 1.824520 
# 
# From -- ./inp_files/90794.got.cif
#   From: 2010.05.17/outbox.cif.g08.bks.cpg/sg15_46_cif.got.tgz:90794.got - 2010.06.03 18:47:42.
