data_PCOD9262260
_publ_section_title
;
Structure prediction by ZEFSAII (Michael W. Deem and Ramdas Pophale) SiO2 
 PCOD9262260
Probable space group: C 2/C
;
_chemical_formula_sum "Si O2"
_cell_formula_units_Z 48
_cell_length_a 25.201893
_cell_length_b 6.113605
_cell_length_c 19.986743
_cell_angle_alpha 90.000000
_cell_angle_beta 134.527241
_cell_angle_gamma 90.000000
_cell_volume 2195.389657
_symmetry_space_group_name_H-M "C 2/C"
_symmetry_group_IT_number 15
_symmetry_cell_setting 'monoclinic'
loop_
_space_group_symop_operation_xyz
x,y,z
-x,y,1/2-z
-x,-y,-z
x,-y,1/2+z
1/2+x,1/2+y,z
1/2-x,1/2+y,1/2-z
1/2-x,1/2-y,-z
1/2+x,1/2-y,1/2+z
loop_
_atom_site_type_symbol
_atom_site_label
_atom_site_fract_x
_atom_site_fract_y
_atom_site_fract_z
Si Si1 0.932551 0.346900 0.958885
Si Si2 0.648583 0.663800 0.867854
Si Si3 0.612830 0.573213 0.473775
Si Si4 0.648213 0.569622 0.720524
Si Si5 0.699079 0.057776 0.981786
Si Si6 0.683786 0.762884 0.143264
O O1 0.951209 0.175778 0.035718
O O2 0.909188 0.197296 0.876367
O O3 0.864195 0.518315 0.907839
O O4 0.000000 0.500000 0.000000
O O5 0.619224 0.580832 0.771005
O O6 0.649458 0.921827 0.885628
O O7 0.611347 0.549481 0.900446
O O8 0.736971 0.606523 0.937447
O O9 0.651504 0.803929 0.490624
O O10 0.658403 0.413767 0.564204
O O11 0.664437 0.338306 0.699056
O O12 0.728535 0.691341 0.785315
O O13 0.750000 0.250000 0.000000
#
# Coordination Sequence:
#
# PCOD9262260 Si02
#       6
#     8   8   8   8   8   8
#     4  11  25  43  63  89 131 178 216 265 335 400
#     4  10  19  32  56  92 126 162 213 270 324 388
#     4  10  21  36  61  87 126 169 215 266 334 388
#     4  11  22  36  65  96 127 164 216 279 317 387
#     4   9  17  30  53  89 128 162 200 260 334 382
#     4  11  22  39  63  94 126 163 218 271 325 390
#
# _framework density 21.864000999999998
#
# number of rings (size 3 to 8) (size 9 to 14) (size 15 to 20)
#    0.000    1.667    1.667    5.000    2.333    5.333 
#    0.000    0.000    0.000   15.000    0.000    0.000 
#    0.000    0.000    0.000    0.000    0.000    0.000 
#
# Total GULP energy -133602.745051 kJ/mol
# GULP energy per Si atom -5566.781044 kJ/mol
# Density = 2.181424 g / cm^3
# Si number density = 21.864001 Si / 1000 Ang^3
#
#
#
# Elastic Constant Matrix: (Units=GPa)
#
#
# Indices 1 2 3 4 5 6 
#
# 1 79.1882 34.1374 55.3931 0.0000 -37.2966 0.0001
# 2 34.1374 96.6149 33.5741 0.0004 -33.6476 -0.0011
# 3 55.3931 33.5741 60.5588 -0.0001 -41.4354 0.0000
# 4 0.0000 0.0004 -0.0001 18.3895 0.0000 -0.7385
# 5 -37.2966 -33.6476 -41.4354 0.0000 46.2489 0.0000
# 6 0.0001 -0.0011 0.0000 -0.7385 0.0000 47.9485
#
#
#
# Elastic Compliance Matrix: (Units=1/GPa)
#
#
# Indices 1 2 3 4 5 6 
#
# 1 0.035336 -0.001868 -0.032865 0.000000 -0.002307 0.000000
# 2 -0.001868 0.014059 -0.000304 0.000000 0.008449 0.000000
# 3 -0.032865 -0.000304 0.073535 0.000000 0.039157 0.000000
# 4 0.000000 0.000000 0.000000 0.054413 0.000000 0.000838
# 5 -0.002307 0.008449 0.039157 0.000000 0.060989 0.000000
# 6 0.000000 0.000000 0.000000 0.000838 0.000000 0.020869
#
#
# Mechanical properties :
#
#
# Convention : Reuss Voigt Hill
#
# Bulk Modulus (GPa) = 18.92003 53.61902 36.26953
# Shear Modulus (GPa) = 14.41364 30.06787 22.24076
#
# Velocity S-wave (km/s) = 2.57035 3.71242 3.19287
# Velocity P-wave (km/s) = 4.18106 6.55387 5.49702
#
# Compressibility (1/GPa) = 0.05285403
#
# Stress axis : x y z
#
# Youngs Moduli (GPa) = 28.29961 71.13025 13.59902
#
# Poissons Ratio (x) = 0.13290 0.44693
# Poissons Ratio (y) = 0.05288 0.00414
# Poissons Ratio (z) = 0.93006 0.02166
#
# Static dielectric constant tensor:
#      x y z
#    x 2.110010 0.000000 0.039740 
#    y 0.000000 1.801560 0.000000 
#    z 0.039740 0.000000 1.894500 
# 
# From -- ./inp_files/256466.got.cif
#   From: 2010.05.17/outbox.cif.g08.bks.cpg/sg15_129_cif.got.tgz:256466.got - 2010.06.03 18:47:42.
