data_PCOD9262229
_publ_section_title
;
Structure prediction by ZEFSAII (Michael W. Deem and Ramdas Pophale) SiO2 
 PCOD9262229
Probable space group: C 2/C
;
_chemical_formula_sum "Si O2"
_cell_formula_units_Z 56
_cell_length_a 24.823345
_cell_length_b 16.010355
_cell_length_c 9.299955
_cell_angle_alpha 90.000000
_cell_angle_beta 45.245526
_cell_angle_gamma 90.000000
_cell_volume 2624.703296
_symmetry_space_group_name_H-M "C 2/C"
_symmetry_group_IT_number 15
_symmetry_cell_setting 'monoclinic'
loop_
_space_group_symop_operation_xyz
x,y,z
-x,y,1/2-z
-x,-y,-z
x,-y,1/2+z
1/2+x,1/2+y,z
1/2-x,1/2+y,1/2-z
1/2-x,1/2-y,-z
1/2+x,1/2-y,1/2+z
loop_
_atom_site_type_symbol
_atom_site_label
_atom_site_fract_x
_atom_site_fract_y
_atom_site_fract_z
Si Si1 0.216246 0.446261 0.094365
Si Si2 0.352144 0.144393 0.043638
Si Si3 0.554771 0.002529 0.031918
Si Si4 0.077584 0.109604 0.667698
Si Si5 0.811782 0.825527 0.109528
Si Si6 0.433117 0.456641 0.992187
Si Si7 0.767343 0.134964 0.991735
O O1 0.137157 0.460639 0.331825
O O2 0.266167 0.375064 0.074766
O O3 0.262328 0.533017 0.992304
O O4 0.192476 0.414000 0.983350
O O5 0.350150 0.238905 0.988976
O O6 0.305154 0.153875 0.277271
O O7 0.425137 0.090142 0.946558
O O8 0.500000 0.047490 0.250000
O O9 0.500000 0.000000 0.000000
O O10 0.153615 0.156318 0.575191
O O11 0.000000 0.150748 0.750000
O O12 0.100002 0.046162 0.496189
O O13 0.054379 0.060516 0.860934
O O14 0.759815 0.822780 0.350735
O O15 0.875828 0.885605 0.051175
O O16 0.500000 0.446685 0.750000
#
# Coordination Sequence:
#
# PCOD9262229 Si02
#       7
#     8   8   8   8   8   8   8
#     4  11  22  40  66  94 122 167 215 264 315 391
#     4  11  24  39  64  92 127 161 206 266 328 372
#     4  11  23  44  70  97 124 168 225 272 316 387
#     4  10  19  32  56  83 109 151 198 243 278 352
#     4  11  23  39  60  93 129 164 204 261 327 374
#     4  10  20  34  53  82 116 152 194 240 292 353
#     4  10  21  38  62  87 122 161 212 252 306 385
#
# _framework density 21.335744999999999
#
# number of rings (size 3 to 8) (size 9 to 14) (size 15 to 20)
#    0.000    1.429    2.857    4.286    4.000    1.714 
#    0.000    0.000    3.143    0.000    0.000    0.000 
#    0.000    0.000    0.000    0.000    0.000    0.000 
#
# Total GULP energy -155966.151789 kJ/mol
# GULP energy per Si atom -5570.219707 kJ/mol
# Density = 2.128718 g / cm^3
# Si number density = 21.335745 Si / 1000 Ang^3
#
#
#
# Elastic Constant Matrix: (Units=GPa)
#
#
# Indices 1 2 3 4 5 6 
#
# 1 134.7302 27.9109 -4.7090 0.0000 12.1118 0.0000
# 2 27.9109 79.0596 -16.5258 0.0000 -9.5309 0.0000
# 3 -4.7090 -16.5258 44.0276 0.0000 6.6695 0.0000
# 4 0.0000 0.0000 0.0000 5.5333 0.0000 -4.0977
# 5 12.1118 -9.5309 6.6695 0.0000 33.3717 0.0000
# 6 0.0000 0.0000 0.0000 -4.0977 0.0000 11.2351
#
#
#
# Elastic Compliance Matrix: (Units=1/GPa)
#
#
# Indices 1 2 3 4 5 6 
#
# 1 0.008517 -0.003454 0.000239 0.000000 -0.004125 0.000000
# 2 -0.003454 0.015420 0.004704 0.000000 0.004717 0.000000
# 3 0.000239 0.004704 0.025073 0.000000 -0.003754 0.000000
# 4 0.000000 0.000000 0.000000 0.247601 0.000000 0.090306
# 5 -0.004125 0.004717 -0.003754 0.000000 0.033560 0.000000
# 6 0.000000 0.000000 0.000000 0.090306 0.000000 0.121944
#
#
# Mechanical properties :
#
#
# Convention : Reuss Voigt Hill
#
# Bulk Modulus (GPa) = 19.23509 30.12996 24.68252
# Shear Modulus (GPa) = 10.71889 26.77076 18.74482
#
# Velocity S-wave (km/s) = 2.24384 3.54607 2.96727
# Velocity P-wave (km/s) = 3.96839 5.56045 4.83046
#
# Compressibility (1/GPa) = 0.05198833
#
# Stress axis : x y z
#
# Youngs Moduli (GPa) = 117.41171 64.85052 39.88357
#
# Poissons Ratio (x) = 0.22400 -0.00955
# Poissons Ratio (y) = 0.40555 -0.18761
# Poissons Ratio (z) = -0.02811 -0.30505
#
# Static dielectric constant tensor:
#      x y z
#    x 1.768260 0.000000 0.000440 
#    y 0.000000 1.895150 0.000000 
#    z 0.000440 0.000000 1.877390 
# 
# From -- ./inp_files/62681.got.cif
#   From: 2010.05.17/outbox.cif.g08.bks.cpg/sg15_32_cif.got.tgz:62681.got - 2010.06.03 18:47:42.
