data_PCOD9262345
_publ_section_title
;
Structure prediction by ZEFSAII (Michael W. Deem and Ramdas Pophale) SiO2 
 PCOD9262345
Probable space group: C 2/C
;
_chemical_formula_sum "Si O2"
_cell_formula_units_Z 56
_cell_length_a 18.754903
_cell_length_b 5.643646
_cell_length_c 25.579347
_cell_angle_alpha 90.000000
_cell_angle_beta 69.393266
_cell_angle_gamma 90.000000
_cell_volume 2534.243394
_symmetry_space_group_name_H-M "C 2/C"
_symmetry_group_IT_number 15
_symmetry_cell_setting 'monoclinic'
loop_
_space_group_symop_operation_xyz
x,y,z
-x,y,1/2-z
-x,-y,-z
x,-y,1/2+z
1/2+x,1/2+y,z
1/2-x,1/2+y,1/2-z
1/2-x,1/2-y,-z
1/2+x,1/2-y,1/2+z
loop_
_atom_site_type_symbol
_atom_site_label
_atom_site_fract_x
_atom_site_fract_y
_atom_site_fract_z
Si Si1 0.767183 0.361429 0.610778
Si Si2 0.690856 0.863533 0.618458
Si Si3 0.573034 0.051906 0.378497
Si Si4 0.960565 0.804289 0.475568
Si Si5 0.045105 0.819370 0.607694
Si Si6 0.525499 0.298816 0.184255
Si Si7 0.331697 0.998966 0.987313
O O1 0.721592 0.608273 0.629602
O O2 0.841133 0.393130 0.628372
O O3 0.787146 0.356292 0.542875
O O4 0.727071 0.107527 0.631082
O O5 0.600792 0.857408 0.653905
O O6 0.707496 0.869709 0.551491
O O7 0.525597 0.123484 0.442568
O O8 0.541257 0.201260 0.337167
O O9 0.539214 0.789512 0.377846
O O10 0.882017 0.681736 0.509710
O O11 0.941835 0.939749 0.427187
O O12 0.000000 0.000000 0.500000
O O13 0.106811 0.654173 0.562563
O O14 0.047605 0.927386 0.664906
O O15 0.500000 0.277416 0.250000
#
# Coordination Sequence:
#
# PCOD9262345 Si02
#       7
#     8   8   8   8   8   8   8
#     4  12  28  41  71 105 155 192 220 281 371 424
#     4  12  26  47  64 107 147 183 242 291 345 437
#     4  10  23  43  66 101 136 183 239 294 340 437
#     4  10  19  32  64  94 140 178 242 272 328 407
#     4  10  19  39  68  98 136 170 254 280 334 412
#     4  11  25  48  77  98 126 184 245 310 363 411
#     4  11  22  40  63 102 145 201 226 280 345 440
#
# _framework density 22.097325000000001
#
# number of rings (size 3 to 8) (size 9 to 14) (size 15 to 20)
#    0.000    1.143    4.286    3.429    8.000    2.857 
#    0.000    1.429    0.000    0.000    0.000    0.000 
#    0.000    0.000    0.000    0.000    0.000    0.000 
#
# Total GULP energy -156110.837965 kJ/mol
# GULP energy per Si atom -5575.387070 kJ/mol
# Density = 2.204703 g / cm^3
# Si number density = 22.097325 Si / 1000 Ang^3
#
#
#
# Elastic Constant Matrix: (Units=GPa)
#
#
# Indices 1 2 3 4 5 6 
#
# 1 133.7118 57.8632 23.5527 0.0012 5.4492 0.0014
# 2 57.8632 126.2445 21.9463 0.0035 -4.5641 0.0018
# 3 23.5527 21.9463 89.5536 0.0010 4.6819 0.0012
# 4 0.0012 0.0035 0.0010 22.2764 0.0022 3.4861
# 5 5.4492 -4.5641 4.6819 0.0022 17.5719 0.0021
# 6 0.0014 0.0018 0.0012 3.4861 0.0021 43.1957
#
#
#
# Elastic Compliance Matrix: (Units=1/GPa)
#
#
# Indices 1 2 3 4 5 6 
#
# 1 0.009761 -0.004387 -0.001292 0.000001 -0.003822 0.000000
# 2 -0.004387 0.010377 -0.001624 -0.000002 0.004488 0.000000
# 3 -0.001292 -0.001624 0.012074 0.000000 -0.003238 0.000000
# 4 0.000001 -0.000002 0.000000 0.045465 -0.000006 -0.003669
# 5 -0.003822 0.004488 -0.003238 -0.000006 0.060123 -0.000002
# 6 0.000000 0.000000 0.000000 -0.003669 -0.000002 0.023447
#
#
# Mechanical properties :
#
#
# Convention : Reuss Voigt Hill
#
# Bulk Modulus (GPa) = 56.80338 61.80381 59.30359
# Shear Modulus (GPa) = 27.51498 33.01867 30.26682
#
# Velocity S-wave (km/s) = 3.53253 3.86973 3.70497
# Velocity P-wave (km/s) = 6.51154 6.92792 6.72295
#
# Compressibility (1/GPa) = 0.01760459
#
# Stress axis : x y z
#
# Youngs Moduli (GPa) = 102.45139 96.37101 82.82598
#
# Poissons Ratio (x) = 0.42281 0.10702
# Poissons Ratio (y) = 0.44949 0.13448
# Poissons Ratio (z) = 0.13238 0.15648
#
# Static dielectric constant tensor:
#      x y z
#    x 1.896900 0.000000 0.020340 
#    y 0.000000 1.929980 0.000000 
#    z 0.020340 0.000000 1.873840 
# 
# From -- ./inp_files/297720.got.cif
#   From: 2010.05.17/outbox.cif.g08.bks.cpg/sg15_149_cif.got.tgz:297720.got - 2010.06.03 18:47:42.
