data_PCOD9262029
_publ_section_title
;
Structure prediction by ZEFSAII (Michael W. Deem and Ramdas Pophale) SiO2 
 PCOD9262029
Probable space group: C 2/C
;
_chemical_formula_sum "Si O2"
_cell_formula_units_Z 40
_cell_length_a 23.933040
_cell_length_b 18.250608
_cell_length_c 9.210190
_cell_angle_alpha 90.000000
_cell_angle_beta 143.713918
_cell_angle_gamma 90.000000
_cell_volume 2380.847152
_symmetry_space_group_name_H-M "C 2/C"
_symmetry_group_IT_number 15
_symmetry_cell_setting 'monoclinic'
loop_
_space_group_symop_operation_xyz
x,y,z
-x,y,1/2-z
-x,-y,-z
x,-y,1/2+z
1/2+x,1/2+y,z
1/2-x,1/2+y,1/2-z
1/2-x,1/2-y,-z
1/2+x,1/2-y,1/2+z
loop_
_atom_site_type_symbol
_atom_site_label
_atom_site_fract_x
_atom_site_fract_y
_atom_site_fract_z
Si Si1 0.174387 0.797921 0.253416
Si Si2 0.974005 0.734258 0.353377
Si Si3 0.387854 0.960779 0.989467
Si Si4 0.833413 0.594582 0.057688
Si Si5 0.401708 0.191383 0.635835
O O1 0.250000 0.750000 0.500000
O O2 0.080969 0.791246 0.156992
O O3 0.227347 0.874176 0.344619
O O4 0.155162 0.755854 0.062179
O O5 0.905419 0.663340 0.189636
O O6 0.000000 0.763234 0.250000
O O7 0.066330 0.707880 0.634714
O O8 0.500000 0.969772 0.250000
O O9 0.357203 0.888372 0.016256
O O10 0.342578 0.034965 0.951757
O O11 0.364654 0.942666 0.774574
O O12 0.500000 0.187381 0.750000
#
# Coordination Sequence:
#
# PCOD9262029 Si02
#       5
#     8   8   8   8   8
#     4   9  17  35  50  70 106 140 168 212 250 298
#     4  10  19  32  52  78  99 133 177 210 251 303
#     4  11  19  31  48  79 110 141 161 200 252 323
#     4  11  21  31  50  75 115 135 165 204 259 308
#     4   9  16  32  52  73 103 135 169 206 253 303
#
# _framework density 16.800742
#
# number of rings (size 3 to 8) (size 9 to 14) (size 15 to 20)
#    0.000    2.000    8.000    1.200    2.800    0.000 
#    0.000    6.000    0.000    0.000    0.000   18.200 
#    0.000    0.000    0.000    0.000    0.000    0.000 
#
# Total GULP energy -111407.243911 kJ/mol
# GULP energy per Si atom -5570.362196 kJ/mol
# Density = 1.676250 g / cm^3
# Si number density = 16.800742 Si / 1000 Ang^3
#
#
#
# Elastic Constant Matrix: (Units=GPa)
#
#
# Indices 1 2 3 4 5 6 
#
# 1 51.4831 34.1983 11.9921 0.0000 -5.5361 0.0000
# 2 34.1983 71.0407 14.1886 0.0000 7.9188 0.0000
# 3 11.9921 14.1886 35.2631 0.0000 -3.8489 0.0000
# 4 0.0000 0.0000 0.0000 4.6064 0.0000 1.8125
# 5 -5.5361 7.9188 -3.8489 0.0000 13.4992 0.0000
# 6 0.0000 0.0000 0.0000 1.8125 0.0000 28.4099
#
#
#
# Elastic Compliance Matrix: (Units=1/GPa)
#
#
# Indices 1 2 3 4 5 6 
#
# 1 0.035650 -0.019772 -0.001348 0.000000 0.025834 0.000000
# 2 -0.019772 0.028066 -0.007484 0.000000 -0.026706 0.000000
# 3 -0.001348 -0.007484 0.033283 0.000000 0.013327 0.000000
# 4 0.000000 0.000000 0.000000 0.222680 0.000000 -0.014207
# 5 0.025834 -0.026706 0.013327 0.000000 0.104139 0.000000
# 6 0.000000 0.000000 0.000000 -0.014207 0.000000 0.036105
#
#
# Mechanical properties :
#
#
# Convention : Reuss Voigt Hill
#
# Bulk Modulus (GPa) = 25.13170 30.94942 28.04056
# Shear Modulus (GPa) = 9.42695 15.79696 12.61196
#
# Velocity S-wave (km/s) = 2.37133 3.06968 2.74282
# Velocity P-wave (km/s) = 4.74223 5.57004 5.17272
#
# Compressibility (1/GPa) = 0.03979039
#
# Stress axis : x y z
#
# Youngs Moduli (GPa) = 28.05083 35.63043 30.04578
#
# Poissons Ratio (x) = 0.70447 0.04051
# Poissons Ratio (y) = 0.55461 0.22486
# Poissons Ratio (z) = 0.03782 0.26665
#
# Static dielectric constant tensor:
#      x y z
#    x 1.609350 0.000000 0.006820 
#    y 0.000000 1.593440 0.000000 
#    z 0.006820 0.000000 1.587250 
# 
# From -- ./inp_files/37943.got.cif
#   From: 2010.05.17/outbox.cif.g08.bks.cpg/sg15_19_cif.got.tgz:37943.got - 2010.06.03 18:47:42.
