data_PCOD9262654
_publ_section_title
;
Structure prediction by ZEFSAII (Michael W. Deem and Ramdas Pophale) SiO2 
 PCOD9262654
Probable space group: C 2/C
;
_chemical_formula_sum "Si O2"
_cell_formula_units_Z 60
_cell_length_a 17.680454
_cell_length_b 13.765697
_cell_length_c 21.118926
_cell_angle_alpha 90.000000
_cell_angle_beta 32.855489
_cell_angle_gamma 90.000000
_cell_volume 2788.565269
_symmetry_space_group_name_H-M "C 2/C"
_symmetry_group_IT_number 15
_symmetry_cell_setting 'monoclinic'
loop_
_space_group_symop_operation_xyz
x,y,z
-x,y,1/2-z
-x,-y,-z
x,-y,1/2+z
1/2+x,1/2+y,z
1/2-x,1/2+y,1/2-z
1/2-x,1/2-y,-z
1/2+x,1/2-y,1/2+z
loop_
_atom_site_type_symbol
_atom_site_label
_atom_site_fract_x
_atom_site_fract_y
_atom_site_fract_z
Si Si1 0.754420 0.414792 0.718822
Si Si2 0.382528 0.801780 0.874794
Si Si3 0.500000 0.853659 0.250000
Si Si4 0.235048 0.365753 0.270295
Si Si5 0.319084 0.387715 0.580878
Si Si6 0.300770 0.405910 0.077844
Si Si7 0.969923 0.278272 0.607709
Si Si8 0.018553 0.230714 0.362445
O O1 0.771050 0.528765 0.693510
O O2 0.718117 0.403076 0.819608
O O3 0.896364 0.353647 0.612858
O O4 0.633272 0.354346 0.769558
O O5 0.500000 0.746113 0.750000
O O6 0.312976 0.871376 0.872052
O O7 0.461730 0.836497 0.882181
O O8 0.250000 0.750000 0.000000
O O9 0.643626 0.911050 0.161404
O O10 0.482965 0.786925 0.323715
O O11 0.288980 0.382962 0.160446
O O12 0.347847 0.292626 0.220567
O O13 0.093167 0.307029 0.357411
O O14 0.380232 0.491368 0.515435
O O15 0.419590 0.296180 0.500047
O O16 0.385611 0.320755 0.985570
#
# Coordination Sequence:
#
# PCOD9262654 Si02
#       8
#     8   8   4   8   8   8   8   8
#     4  10  19  35  61  82 111 142 190 246 279 336
#     4  10  20  34  55  86 121 157 193 239 296 357
#     4  10  22  36  54  82 110 150 184 228 288 356
#     4   9  20  35  58  88 106 142 196 236 283 342
#     4  10  20  33  59  88 108 144 197 242 289 338
#     4  10  20  36  61  83 108 142 192 248 284 326
#     4  10  19  33  54  84 117 145 181 238 294 344
#     4  10  20  35  58  82 112 147 180 236 290 344
#
# _framework density 21.516439999999999
#
# number of rings (size 3 to 8) (size 9 to 14) (size 15 to 20)
#    0.000    2.133    1.333    2.000    0.933    3.200 
#    0.000    0.000   13.200   23.200    0.000    0.000 
#    0.000    0.000    0.000    0.000    0.000    0.000 
#
# Total GULP energy -167336.982635 kJ/mol
# GULP energy per Si atom -5577.899421 kJ/mol
# Density = 2.146747 g / cm^3
# Si number density = 21.516440 Si / 1000 Ang^3
#
#
#
# Elastic Constant Matrix: (Units=GPa)
#
#
# Indices 1 2 3 4 5 6 
#
# 1 67.8979 -1.9010 3.6677 0.0002 -13.5519 0.0000
# 2 -1.9010 107.1081 18.5279 0.0006 -3.8202 0.0002
# 3 3.6677 18.5279 81.0034 0.0005 -0.4418 0.0004
# 4 0.0002 0.0006 0.0005 24.7560 -0.0001 -1.1781
# 5 -13.5519 -3.8202 -0.4418 -0.0001 31.8284 -0.0001
# 6 0.0000 0.0002 0.0004 -1.1781 -0.0001 6.3854
#
#
#
# Elastic Compliance Matrix: (Units=1/GPa)
#
#
# Indices 1 2 3 4 5 6 
#
# 1 0.016182 0.000683 -0.000851 0.000000 0.006960 0.000000
# 2 0.000683 0.009791 -0.002263 0.000000 0.001434 0.000000
# 3 -0.000851 -0.002263 0.012899 0.000000 -0.000455 -0.000001
# 4 0.000000 0.000000 0.000000 0.040752 0.000000 0.007519
# 5 0.006960 0.001434 -0.000455 0.000000 0.034548 0.000001
# 6 0.000000 0.000000 -0.000001 0.007519 0.000001 0.157996
#
#
# Mechanical properties :
#
#
# Convention : Reuss Voigt Hill
#
# Bulk Modulus (GPa) = 29.40278 32.95539 31.17909
# Shear Modulus (GPa) = 17.33908 28.30829 22.82368
#
# Velocity S-wave (km/s) = 2.84183 3.63114 3.26046
# Velocity P-wave (km/s) = 4.94600 5.73845 5.35690
#
# Compressibility (1/GPa) = 0.03401039
#
# Stress axis : x y z
#
# Youngs Moduli (GPa) = 61.79600 102.13427 77.52706
#
# Poissons Ratio (x) = -0.06972 0.06597
# Poissons Ratio (y) = -0.04219 0.17541
# Poissons Ratio (z) = 0.05258 0.23109
#
# Static dielectric constant tensor:
#      x y z
#    x 1.767850 0.000000 -0.006400 
#    y 0.000000 1.799440 0.000000 
#    z -0.006400 0.000000 1.685840 
# 
# From -- ./inp_files/277550.got.cif
#   From: 2010.05.17/outbox.cif.g08.bks.cpg/sg15_139_cif.got.tgz:277550.got - 2010.06.03 18:47:42.
