data_PCOD9262432
_publ_section_title
;
Structure prediction by ZEFSAII (Michael W. Deem and Ramdas Pophale) SiO2 
 PCOD9262432
Probable space group: C 2/C
;
_chemical_formula_sum "Si O2"
_cell_formula_units_Z 60
_cell_length_a 27.279117
_cell_length_b 7.617949
_cell_length_c 12.629351
_cell_angle_alpha 90.000000
_cell_angle_beta 69.985791
_cell_angle_gamma 90.000000
_cell_volume 2466.016645
_symmetry_space_group_name_H-M "C 2/C"
_symmetry_group_IT_number 15
_symmetry_cell_setting 'monoclinic'
loop_
_space_group_symop_operation_xyz
x,y,z
-x,y,1/2-z
-x,-y,-z
x,-y,1/2+z
1/2+x,1/2+y,z
1/2-x,1/2+y,1/2-z
1/2-x,1/2-y,-z
1/2+x,1/2-y,1/2+z
loop_
_atom_site_type_symbol
_atom_site_label
_atom_site_fract_x
_atom_site_fract_y
_atom_site_fract_z
Si Si1 0.954376 0.125732 0.078049
Si Si2 0.218398 0.216578 0.777781
Si Si3 0.500000 0.176410 0.750000
Si Si4 0.604271 0.699583 0.812503
Si Si5 0.903077 0.868516 0.411193
Si Si6 0.404611 0.795479 0.443656
Si Si7 0.785827 0.876813 0.569627
Si Si8 0.286381 0.092943 0.016104
O O1 0.975272 0.223610 0.165609
O O2 0.906694 0.002479 0.148924
O O3 0.933574 0.217855 0.987370
O O4 0.000000 0.000000 0.000000
O O5 0.165175 0.232747 0.752303
O O6 0.267721 0.233776 0.667120
O O7 0.220890 0.381947 0.854112
O O8 0.209591 0.051219 0.859968
O O9 0.551282 0.101951 0.654263
O O10 0.579063 0.708616 0.714941
O O11 0.588751 0.802326 0.932383
O O12 0.841574 0.844057 0.476723
O O13 0.909624 0.084501 0.410993
O O14 0.347458 0.865689 0.453201
O O15 0.739223 0.927932 0.523348
O O16 0.250000 0.250000 0.000000
#
# Coordination Sequence:
#
# PCOD9262432 Si02
#       8
#     8   8   4   8   8   8   8   8
#     4  11  18  30  49  81 110 155 190 241 309 358
#     4  10  22  37  57  84 118 162 200 251 301 368
#     4  12  20  30  56  82 120 154 204 250 304 372
#     4  10  19  34  49  76 120 155 192 242 301 358
#     4  11  20  31  54  81 120 157 194 248 305 365
#     4  10  19  33  51  84 111 160 195 246 306 365
#     4  11  22  37  59  87 120 165 201 249 309 363
#     4   9  18  35  56  77 114 159 201 237 308 361
#
# _framework density 24.330732999999999
#
# number of rings (size 3 to 8) (size 9 to 14) (size 15 to 20)
#    0.000    1.600    9.333    0.000    1.867    2.667 
#    0.000    0.000    0.000    0.000    0.000    6.533 
#    0.000    0.000    0.000    0.000    0.000    0.000 
#
# Total GULP energy -167326.947415 kJ/mol
# GULP energy per Si atom -5577.564914 kJ/mol
# Density = 2.427536 g / cm^3
# Si number density = 24.330733 Si / 1000 Ang^3
#
#
#
# Elastic Constant Matrix: (Units=GPa)
#
#
# Indices 1 2 3 4 5 6 
#
# 1 125.3533 22.8701 73.6187 0.0000 20.1555 0.0000
# 2 22.8701 75.9265 21.3434 0.0000 8.0892 0.0000
# 3 73.6187 21.3434 174.2598 0.0000 11.3388 0.0000
# 4 0.0000 0.0000 0.0000 21.6487 0.0000 5.3640
# 5 20.1555 8.0892 11.3388 0.0000 54.1107 0.0000
# 6 0.0000 0.0000 0.0000 5.3640 0.0000 13.3162
#
#
#
# Elastic Compliance Matrix: (Units=1/GPa)
#
#
# Indices 1 2 3 4 5 6 
#
# 1 0.011381 -0.001873 -0.004381 0.000000 -0.003041 0.000000
# 2 -0.001873 0.014107 -0.000857 0.000000 -0.001232 0.000000
# 3 -0.004381 -0.000857 0.007684 0.000000 0.000150 0.000000
# 4 0.000000 0.000000 0.000000 0.051314 0.000000 -0.020670
# 5 -0.003041 -0.001232 0.000150 0.000000 0.019766 0.000000
# 6 0.000000 0.000000 0.000000 -0.020670 0.000000 0.083423
#
#
# Mechanical properties :
#
#
# Convention : Reuss Voigt Hill
#
# Bulk Modulus (GPa) = 52.76420 67.91154 60.33787
# Shear Modulus (GPa) = 24.01398 34.99561 29.50480
#
# Velocity S-wave (km/s) = 3.14503 3.79665 3.48610
# Velocity P-wave (km/s) = 5.90945 6.86963 6.40755
#
# Compressibility (1/GPa) = 0.01895224
#
# Stress axis : x y z
#
# Youngs Moduli (GPa) = 87.86645 70.88830 130.13261
#
# Poissons Ratio (x) = 0.13275 0.57008
# Poissons Ratio (y) = 0.16454 0.11146
# Poissons Ratio (z) = 0.38492 0.06072
#
# Static dielectric constant tensor:
#      x y z
#    x 1.860830 0.000000 0.035120 
#    y 0.000000 2.054250 0.000000 
#    z 0.035120 0.000000 1.964130 
# 
# From -- ./inp_files/125898.got.cif
#   From: 2010.05.17/outbox.cif.g08.bks.cpg/sg15_63_cif.got.tgz:125898.got - 2010.06.03 18:47:42.
