data_PCOD9262733
_publ_section_title
;
Structure prediction by ZEFSAII (Michael W. Deem and Ramdas Pophale) SiO2 
 PCOD9262733
Probable space group: C 2/C
;
_chemical_formula_sum "Si O2"
_cell_formula_units_Z 64
_cell_length_a 13.071774
_cell_length_b 8.691497
_cell_length_c 29.541283
_cell_angle_alpha 90.000000
_cell_angle_beta 68.178518
_cell_angle_gamma 90.000000
_cell_volume 3115.792905
_symmetry_space_group_name_H-M "C 2/C"
_symmetry_group_IT_number 15
_symmetry_cell_setting 'monoclinic'
loop_
_space_group_symop_operation_xyz
x,y,z
-x,y,1/2-z
-x,-y,-z
x,-y,1/2+z
1/2+x,1/2+y,z
1/2-x,1/2+y,1/2-z
1/2-x,1/2-y,-z
1/2+x,1/2-y,1/2+z
loop_
_atom_site_type_symbol
_atom_site_label
_atom_site_fract_x
_atom_site_fract_y
_atom_site_fract_z
Si Si1 0.012661 0.632141 0.383730
Si Si2 0.431743 0.421580 0.442647
Si Si3 0.420203 0.070640 0.550563
Si Si4 0.811534 0.992552 0.378503
Si Si5 0.266494 0.832727 0.693215
Si Si6 0.824669 0.364828 0.852632
Si Si7 0.632450 0.038125 0.742842
Si Si8 0.639930 0.573913 0.451684
O O1 0.947170 0.601149 0.349198
O O2 0.034792 0.477389 0.407557
O O3 0.124340 0.721929 0.352300
O O4 0.937873 0.743909 0.426866
O O5 0.407635 0.508927 0.399682
O O6 0.546277 0.464921 0.446932
O O7 0.344767 0.450934 0.497227
O O8 0.404589 0.251232 0.545985
O O9 0.500000 0.000000 0.500000
O O10 0.299327 0.993822 0.573123
O O11 0.807686 0.096595 0.334961
O O12 0.809834 0.818314 0.359425
O O13 0.193304 0.703481 0.729318
O O14 0.322591 0.956814 0.718300
O O15 0.812800 0.432478 0.805305
O O16 0.745232 0.440001 0.902818
O O17 0.500000 0.048099 0.750000
#
# Coordination Sequence:
#
# PCOD9262733 Si02
#       8
#     8   8   8   8   8   8   8   8
#     4  10  20  37  64  85 126 164 207 264 319 379
#     4  10  20  37  56  91 129 170 212 256 321 382
#     4  10  19  33  55  83 118 165 210 254 302 376
#     4   9  22  39  61  88 126 166 212 264 326 388
#     4  11  24  46  66  96 128 164 215 277 330 397
#     4  10  21  40  65  92 124 171 215 269 324 387
#     4  12  25  47  72  98 129 169 221 275 341 399
#     4  10  21  35  58  89 129 171 214 263 313 390
#
# _framework density 20.540517999999999
#
# number of rings (size 3 to 8) (size 9 to 14) (size 15 to 20)
#    0.000    1.750    2.500    1.500    1.750    2.500 
#    9.000    0.625    0.000    0.000    0.000    0.000 
#    0.000    0.000    0.000    0.000    0.000    0.000 
#
# Total GULP energy -178266.110904 kJ/mol
# GULP energy per Si atom -5570.815966 kJ/mol
# Density = 2.049377 g / cm^3
# Si number density = 20.540518 Si / 1000 Ang^3
#
#
#
# Elastic Constant Matrix: (Units=GPa)
#
#
# Indices 1 2 3 4 5 6 
#
# 1 56.8251 19.6442 33.0635 0.0000 13.4339 0.0000
# 2 19.6442 32.9319 30.1391 0.0000 7.0412 0.0000
# 3 33.0635 30.1391 95.2625 0.0000 11.5930 0.0000
# 4 0.0000 0.0000 0.0000 34.5909 0.0000 4.7513
# 5 13.4339 7.0412 11.5930 0.0000 38.5336 0.0000
# 6 0.0000 0.0000 0.0000 4.7513 0.0000 24.7171
#
#
#
# Elastic Compliance Matrix: (Units=1/GPa)
#
#
# Indices 1 2 3 4 5 6 
#
# 1 0.025025 -0.009026 -0.005158 0.000000 -0.005523 0.000000
# 2 -0.009026 0.046565 -0.011363 0.000000 -0.001943 0.000000
# 3 -0.005158 -0.011363 0.015997 0.000000 -0.000938 0.000000
# 4 0.000000 0.000000 0.000000 0.029693 0.000000 -0.005708
# 5 -0.005523 -0.001943 -0.000938 0.000000 0.028514 0.000000
# 6 0.000000 0.000000 0.000000 -0.005708 0.000000 0.041555
#
#
# Mechanical properties :
#
#
# Convention : Reuss Voigt Hill
#
# Bulk Modulus (GPa) = 27.40292 38.96813 33.18553
# Shear Modulus (GPa) = 19.95159 26.37984 23.16571
#
# Velocity S-wave (km/s) = 3.12000 3.58758 3.36193
# Velocity P-wave (km/s) = 5.13313 6.01444 5.59118
#
# Compressibility (1/GPa) = 0.03649246
#
# Stress axis : x y z
#
# Youngs Moduli (GPa) = 39.96007 21.47555 62.51364
#
# Poissons Ratio (x) = 0.19385 0.32242
# Poissons Ratio (y) = 0.36070 0.71032
# Poissons Ratio (z) = 0.20610 0.24402
#
# Static dielectric constant tensor:
#      x y z
#    x 1.783220 0.000000 -0.012900 
#    y 0.000000 1.731330 0.000000 
#    z -0.012900 0.000000 1.767050 
# 
# From -- ./inp_files/295121.got.cif
#   From: 2010.05.17/outbox.cif.g08.bks.cpg/sg15_148_cif.got.tgz:295121.got - 2010.06.03 18:47:42.
