data_PCOD9262649
_publ_section_title
;
Structure prediction by ZEFSAII (Michael W. Deem and Ramdas Pophale) SiO2 
 PCOD9262649
Probable space group: C 2/C
;
_chemical_formula_sum "Si O2"
_cell_formula_units_Z 64
_cell_length_a 8.428129
_cell_length_b 25.289001
_cell_length_c 17.538427
_cell_angle_alpha 90.000000
_cell_angle_beta 89.834437
_cell_angle_gamma 90.000000
_cell_volume 3738.106532
_symmetry_space_group_name_H-M "C 2/C"
_symmetry_group_IT_number 15
_symmetry_cell_setting 'monoclinic'
loop_
_space_group_symop_operation_xyz
x,y,z
-x,y,1/2-z
-x,-y,-z
x,-y,1/2+z
1/2+x,1/2+y,z
1/2-x,1/2+y,1/2-z
1/2-x,1/2-y,-z
1/2+x,1/2-y,1/2+z
loop_
_atom_site_type_symbol
_atom_site_label
_atom_site_fract_x
_atom_site_fract_y
_atom_site_fract_z
Si Si1 0.191813 0.659655 0.260289
Si Si2 0.844810 0.225275 0.389862
Si Si3 0.794019 0.332555 0.464079
Si Si4 0.941782 0.080435 0.510405
Si Si5 0.075791 0.399731 0.525862
Si Si6 0.226680 0.984300 0.064967
Si Si7 0.598868 0.054042 0.326203
Si Si8 0.861541 0.848117 0.597752
O O1 0.274661 0.704851 0.310193
O O2 0.205903 0.604852 0.306432
O O3 0.285080 0.651004 0.181590
O O4 0.000000 0.668216 0.250000
O O5 0.830437 0.287709 0.402487
O O6 0.739387 0.197773 0.456129
O O7 0.021807 0.202313 0.403558
O O8 0.641732 0.369610 0.450526
O O9 0.938093 0.371561 0.479748
O O10 0.066681 0.050418 0.563867
O O11 0.030359 0.103289 0.434360
O O12 0.815734 0.037026 0.482832
O O13 0.148587 0.447702 0.478382
O O14 0.208959 0.355189 0.543510
O O15 0.013524 0.424754 0.605337
O O16 0.298673 0.005512 0.143206
O O17 0.500000 0.042114 0.250000
#
# Coordination Sequence:
#
# PCOD9262649 Si02
#       8
#     8   8   8   8   8   8   8   8
#     4  11  19  35  56  81 112 138 177 230 286 333
#     4  10  20  32  52  80 108 141 177 222 280 331
#     4  10  19  34  53  77 109 142 180 226 273 323
#     4   9  19  35  55  81 113 141 187 229 278 318
#     4  11  19  34  56  83 110 146 185 228 273 329
#     4  10  20  33  56  83 109 146 185 227 273 330
#     4  11  19  32  54  84 112 142 177 228 286 336
#     4  10  19  33  54  84 111 138 177 234 276 324
#
# _framework density 17.120968000000001
#
# number of rings (size 3 to 8) (size 9 to 14) (size 15 to 20)
#    0.000    1.750    5.000    1.500    0.000    0.500 
#    0.000    2.500    0.000    3.000    0.000    0.000 
#    0.000    0.000    0.000    0.000    0.000    0.000 
#
# Total GULP energy -178269.767815 kJ/mol
# GULP energy per Si atom -5570.930244 kJ/mol
# Density = 1.708200 g / cm^3
# Si number density = 17.120968 Si / 1000 Ang^3
#
#
#
# Elastic Constant Matrix: (Units=GPa)
#
#
# Indices 1 2 3 4 5 6 
#
# 1 88.0212 57.5180 39.0166 0.0000 3.5656 0.0000
# 2 57.5180 109.9311 50.2103 0.0000 7.9339 0.0000
# 3 39.0166 50.2103 71.5745 0.0000 11.3343 0.0000
# 4 0.0000 0.0000 0.0000 20.9450 0.0000 -2.9714
# 5 3.5656 7.9339 11.3343 0.0000 24.9535 0.0000
# 6 0.0000 0.0000 0.0000 -2.9714 0.0000 17.3460
#
#
#
# Elastic Compliance Matrix: (Units=1/GPa)
#
#
# Indices 1 2 3 4 5 6 
#
# 1 0.018418 -0.007432 -0.005155 0.000000 0.002073 0.000000
# 2 -0.007432 0.016384 -0.007312 0.000000 -0.000826 0.000000
# 3 -0.005155 -0.007312 0.023086 0.000000 -0.007425 0.000000
# 4 0.000000 0.000000 0.000000 0.048933 0.000000 0.008382
# 5 0.002073 -0.000826 -0.007425 0.000000 0.043414 0.000000
# 6 0.000000 0.000000 0.000000 0.008382 0.000000 0.059086
#
#
# Mechanical properties :
#
#
# Convention : Reuss Voigt Hill
#
# Bulk Modulus (GPa) = 55.27206 62.55738 58.91472
# Shear Modulus (GPa) = 19.59635 20.83437 20.21536
#
# Velocity S-wave (km/s) = 3.38684 3.49218 3.43991
# Velocity P-wave (km/s) = 6.90272 7.27174 7.08963
#
# Compressibility (1/GPa) = 0.01809232
#
# Stress axis : x y z
#
# Youngs Moduli (GPa) = 54.29369 61.03387 43.31564
#
# Poissons Ratio (x) = 0.45360 0.22328
# Poissons Ratio (y) = 0.40351 0.31671
# Poissons Ratio (z) = 0.27987 0.44626
#
# Static dielectric constant tensor:
#      x y z
#    x 1.631340 0.000000 -0.001810 
#    y 0.000000 1.577510 0.000000 
#    z -0.001810 0.000000 1.570210 
# 
# From -- ./inp_files/192971.got.cif
#   From: 2010.05.17/outbox.cif.g08.bks.cpg/sg15_97_cif.got.tgz:192971.got - 2010.06.03 18:47:42.
