data_PCOD9262375
_publ_section_title
;
Structure prediction by ZEFSAII (Michael W. Deem and Ramdas Pophale) SiO2 
 PCOD9262375
Probable space group: C 2/C
;
_chemical_formula_sum "Si O2"
_cell_formula_units_Z 64
_cell_length_a 13.010539
_cell_length_b 23.460683
_cell_length_c 18.238653
_cell_angle_alpha 90.000000
_cell_angle_beta 45.896977
_cell_angle_gamma 90.000000
_cell_volume 3997.673539
_symmetry_space_group_name_H-M "C 2/C"
_symmetry_group_IT_number 15
_symmetry_cell_setting 'monoclinic'
loop_
_space_group_symop_operation_xyz
x,y,z
-x,y,1/2-z
-x,-y,-z
x,-y,1/2+z
1/2+x,1/2+y,z
1/2-x,1/2+y,1/2-z
1/2-x,1/2-y,-z
1/2+x,1/2-y,1/2+z
loop_
_atom_site_type_symbol
_atom_site_label
_atom_site_fract_x
_atom_site_fract_y
_atom_site_fract_z
Si Si1 0.167342 0.355911 0.022826
Si Si2 0.836741 0.963138 0.330388
Si Si3 0.354548 0.099307 0.693173
Si Si4 0.670950 0.186806 0.677900
Si Si5 0.147562 0.488243 0.709422
Si Si6 0.180812 0.026818 0.016906
Si Si7 0.160228 0.813554 0.700984
Si Si8 0.361690 0.568209 0.208614
O O1 0.219398 0.321030 0.069401
O O2 0.996465 0.365159 0.102130
O O3 0.229987 0.418748 0.001901
O O4 0.232858 0.330300 0.917173
O O5 0.736079 0.922537 0.331476
O O6 0.000000 0.941464 0.250000
O O7 0.797358 0.977034 0.433682
O O8 0.840357 0.025276 0.288294
O O9 0.274718 0.138613 0.793192
O O10 0.394054 0.042652 0.719611
O O11 0.500000 0.177712 0.750000
O O12 0.697264 0.248219 0.701073
O O13 0.255825 0.508255 0.592116
O O14 0.235139 0.445227 0.715804
O O15 0.000000 0.465459 0.750000
O O16 0.015267 0.047744 0.100278
O O17 0.149340 0.866085 0.762539
O O18 0.000000 0.809555 0.750000
#
# Coordination Sequence:
#
# PCOD9262375 Si02
#       8
#     8   8   8   8   8   8   8   8
#     4  11  18  30  49  74 103 126 155 194 241 289
#     4   9  19  33  50  71  98 127 161 194 236 285
#     4  10  19  33  49  72  99 128 160 196 235 286
#     4   9  19  32  49  72  99 128 157 194 239 286
#     4  11  20  32  49  70 100 131 162 195 239 285
#     4  11  18  32  49  72 103 128 155 196 241 287
#     4  11  19  32  49  71 101 130 159 195 239 286
#     4  10  20  32  48  72  98 130 161 196 237 287
#
# _framework density 16.009311
#
# number of rings (size 3 to 8) (size 9 to 14) (size 15 to 20)
#    0.000    1.750    5.000    1.500    0.000    1.500 
#    0.000    0.000    0.000    0.750    0.000    1.750 
#    0.000    0.000    0.000    0.000    0.000    0.000 
#
# Total GULP energy -178190.997741 kJ/mol
# GULP energy per Si atom -5568.468679 kJ/mol
# Density = 1.597287 g / cm^3
# Si number density = 16.009311 Si / 1000 Ang^3
#
#
#
# Elastic Constant Matrix: (Units=GPa)
#
#
# Indices 1 2 3 4 5 6 
#
# 1 86.5199 31.0155 18.7274 -0.0002 -3.1424 0.0000
# 2 31.0155 65.3183 -2.3600 -0.0001 -0.6647 0.0000
# 3 18.7274 -2.3600 55.5507 -0.0004 -2.6155 -0.0001
# 4 -0.0002 -0.0001 -0.0004 33.2493 0.0002 6.8800
# 5 -3.1424 -0.6647 -2.6155 0.0002 9.8648 0.0000
# 6 0.0000 0.0000 -0.0001 6.8800 0.0000 16.9631
#
#
#
# Elastic Compliance Matrix: (Units=1/GPa)
#
#
# Indices 1 2 3 4 5 6 
#
# 1 0.015546 -0.007547 -0.005420 0.000000 0.003007 0.000000
# 2 -0.007547 0.019011 0.003341 0.000000 -0.000237 0.000000
# 3 -0.005420 0.003341 0.020152 0.000000 0.003841 0.000000
# 4 0.000000 0.000000 0.000000 0.032831 -0.000001 -0.013316
# 5 0.003007 -0.000237 0.003841 -0.000001 0.103330 0.000000
# 6 0.000000 0.000000 0.000000 -0.013316 0.000000 0.064352
#
#
# Mechanical properties :
#
#
# Convention : Reuss Voigt Hill
#
# Bulk Modulus (GPa) = 28.20347 33.57274 30.88811
# Shear Modulus (GPa) = 17.46459 22.68253 20.07356
#
# Velocity S-wave (km/s) = 3.30646 3.76817 3.54484
# Velocity P-wave (km/s) = 5.67733 6.32048 6.00752
#
# Compressibility (1/GPa) = 0.03545663
#
# Stress axis : x y z
#
# Youngs Moduli (GPa) = 64.32606 52.59977 49.62405
#
# Poissons Ratio (x) = 0.39697 0.26896
# Poissons Ratio (y) = 0.48546 -0.16578
# Poissons Ratio (z) = 0.34864 -0.17572
#
# Static dielectric constant tensor:
#      x y z
#    x 1.529060 0.000000 0.009550 
#    y 0.000000 1.549490 0.000000 
#    z 0.009550 0.000000 1.611370 
# 
# From -- ./inp_files/200355.got.cif
#   From: 2010.05.17/outbox.cif.g08.bks.cpg/sg15_101_cif.got.tgz:200355.got - 2010.06.03 18:47:42.
