data_PCOD9262567
_publ_section_title
;
Structure prediction by ZEFSAII (Michael W. Deem and Ramdas Pophale) SiO2 
 PCOD9262567
Probable space group: C 2/C
;
_chemical_formula_sum "Si O2"
_cell_formula_units_Z 44
_cell_length_a 17.476873
_cell_length_b 5.657498
_cell_length_c 24.136603
_cell_angle_alpha 90.000000
_cell_angle_beta 61.597629
_cell_angle_gamma 90.000000
_cell_volume 2099.248112
_symmetry_space_group_name_H-M "C 2/C"
_symmetry_group_IT_number 15
_symmetry_cell_setting 'monoclinic'
loop_
_space_group_symop_operation_xyz
x,y,z
-x,y,1/2-z
-x,-y,-z
x,-y,1/2+z
1/2+x,1/2+y,z
1/2-x,1/2+y,1/2-z
1/2-x,1/2-y,-z
1/2+x,1/2-y,1/2+z
loop_
_atom_site_type_symbol
_atom_site_label
_atom_site_fract_x
_atom_site_fract_y
_atom_site_fract_z
Si Si1 0.818402 0.360844 0.165140
Si Si2 0.394964 0.027298 0.032103
Si Si3 0.648666 0.872159 0.737747
Si Si4 0.538055 0.492042 0.842371
Si Si5 0.918849 0.027482 0.985064
Si Si6 0.500000 0.178152 0.750000
O O1 0.855223 0.541991 0.107393
O O2 0.724466 0.265411 0.180738
O O3 0.806884 0.464825 0.230729
O O4 0.890812 0.157392 0.147259
O O5 0.367978 0.768493 0.017831
O O6 0.500000 0.000000 0.000000
O O7 0.374446 0.268767 0.006310
O O8 0.586152 0.704911 0.795293
O O9 0.586486 0.021150 0.720141
O O10 0.461853 0.560930 0.910202
O O11 0.504029 0.329614 0.804263
O O12 0.000000 0.000000 0.000000
#
# Coordination Sequence:
#
# PCOD9262567 Si02
#       6
#     8   8   8   8   8   4
#     4  11  21  33  63  92 127 151 214 268 320 368
#     4  10  19  33  53  94 122 161 194 269 320 370
#     4  11  22  39  59  93 123 167 207 267 326 377
#     4  11  21  39  59  91 123 165 212 260 314 388
#     4  10  19  33  59  88 124 159 211 261 314 372
#     4  10  26  40  58  86 128 176 206 250 334 394
#
# _framework density 20.959885
#
# number of rings (size 3 to 8) (size 9 to 14) (size 15 to 20)
#    0.000    1.455    5.455    2.727    2.545    0.000 
#    0.000    0.000    0.000    2.182    0.000    0.000 
#    0.000    0.000    0.000    0.000    0.000    0.000 
#
# Total GULP energy -122822.072818 kJ/mol
# GULP energy per Si atom -5582.821492 kJ/mol
# Density = 2.091218 g / cm^3
# Si number density = 20.959885 Si / 1000 Ang^3
#
#
#
# Elastic Constant Matrix: (Units=GPa)
#
#
# Indices 1 2 3 4 5 6 
#
# 1 61.5429 15.5772 23.9048 -0.0017 5.3751 -0.0471
# 2 15.5772 108.2128 -0.9671 0.0007 5.6042 -0.0768
# 3 23.9048 -0.9671 67.2604 -0.0069 -0.8461 -0.0645
# 4 -0.0017 0.0007 -0.0069 25.8554 0.0054 -6.4900
# 5 5.3751 5.6042 -0.8461 0.0054 8.9164 0.0257
# 6 -0.0471 -0.0768 -0.0645 -6.4900 0.0257 -104.3381
#
#
#
# Elastic Compliance Matrix: (Units=1/GPa)
#
#
# Indices 1 2 3 4 5 6 
#
# 1 0.020846 -0.002461 -0.007592 0.000000 -0.011740 -0.000006
# 2 -0.002461 0.009843 0.000958 -0.000001 -0.004612 -0.000008
# 3 -0.007592 0.000958 0.017651 0.000001 0.005649 -0.000007
# 4 0.000000 -0.000001 0.000001 0.038082 -0.000016 -0.002369
# 5 -0.011740 -0.004612 0.005649 -0.000016 0.122665 0.000036
# 6 -0.000006 -0.000008 -0.000007 -0.002369 0.000036 -0.009437
#
#
# Mechanical properties :
#
#
# Convention : Reuss Voigt Hill
#
# Bulk Modulus (GPa) = 33.16716 34.89398 34.03057
# Shear Modulus (GPa) = 21.94057 -0.67984 10.63036
#
# Velocity S-wave (km/s) = 3.23892 -0.57014 2.25450
# Velocity P-wave (km/s) = 5.46314 4.03122 4.80087
#
# Compressibility (1/GPa) = 0.03015030
#
# Stress axis : x y z
#
# Youngs Moduli (GPa) = 47.97116 101.59851 56.65525
#
# Poissons Ratio (x) = 0.24999 0.43012
# Poissons Ratio (y) = 0.11804 -0.05428
# Poissons Ratio (z) = 0.36419 -0.09733
#
# Static dielectric constant tensor:
#      x y z
#    x 1.759660 0.000270 -0.063600 
#    y 0.000270 1.575280 -0.000330 
#    z -0.063600 -0.000330 1.880580 
# 
# From -- ./inp_files/246502.got.cif
#   From: 2010.05.17/outbox.cif.g08.bks.cpg/sg15_124_cif.got.tgz:246502.got - 2010.06.03 18:47:42.
