data_PCOD9262633
_publ_section_title
;
Structure prediction by ZEFSAII (Michael W. Deem and Ramdas Pophale) SiO2 
 PCOD9262633
Probable space group: C 2/C
;
_chemical_formula_sum "Si O2"
_cell_formula_units_Z 64
_cell_length_a 11.976107
_cell_length_b 21.230936
_cell_length_c 24.473541
_cell_angle_alpha 90.000000
_cell_angle_beta 149.952849
_cell_angle_gamma 90.000000
_cell_volume 3115.803552
_symmetry_space_group_name_H-M "C 2/C"
_symmetry_group_IT_number 15
_symmetry_cell_setting 'monoclinic'
loop_
_space_group_symop_operation_xyz
x,y,z
-x,y,1/2-z
-x,-y,-z
x,-y,1/2+z
1/2+x,1/2+y,z
1/2-x,1/2+y,1/2-z
1/2-x,1/2-y,-z
1/2+x,1/2-y,1/2+z
loop_
_atom_site_type_symbol
_atom_site_label
_atom_site_fract_x
_atom_site_fract_y
_atom_site_fract_z
Si Si1 0.518086 0.385882 0.321876
Si Si2 0.477888 0.953421 0.542805
Si Si3 0.314785 0.825554 0.097682
Si Si4 0.459759 0.295923 0.852827
Si Si5 0.999933 0.236523 0.965142
Si Si6 0.536072 0.930217 0.135750
Si Si7 0.188950 0.640231 0.063806
Si Si8 0.018764 0.736938 0.345956
O O1 0.500000 0.400863 0.250000
O O2 0.742645 0.417007 0.440332
O O3 0.517960 0.310438 0.328295
O O4 0.295108 0.414740 0.252822
O O5 0.666034 0.902402 0.607683
O O6 0.500000 0.000000 0.500000
O O7 0.502960 0.996829 0.606491
O O8 0.495966 0.774019 0.153703
O O9 0.204475 0.810085 0.109096
O O10 0.402419 0.895825 0.127227
O O11 0.114796 0.811019 0.970212
O O12 0.563964 0.341564 0.850809
O O13 0.206432 0.298666 0.764259
O O14 0.944710 0.295728 0.980369
O O15 0.008233 0.262067 0.907250
O O16 0.248706 0.209887 0.077791
O O17 0.439661 0.892821 0.041229
#
# Coordination Sequence:
#
# PCOD9262633 Si02
#       8
#     8   8   8   8   8   8   8   8
#     4  12  20  33  58  82 106 148 192 233 280 349
#     4  10  19  33  54  81 114 140 181 239 283 329
#     4   9  18  33  53  77 112 147 183 235 273 344
#     4   9  18  30  51  81 109 145 187 221 286 345
#     4  10  21  35  51  79 118 147 182 232 295 326
#     4  10  19  35  56  84 108 147 195 226 276 345
#     4   9  17  33  51  79 118 142 167 234 286 340
#     4  11  22  33  52  84 112 151 191 234 281 350
#
# _framework density 20.540448000000001
#
# number of rings (size 3 to 8) (size 9 to 14) (size 15 to 20)
#    0.000    2.000    5.000    0.750    1.750    2.000 
#    0.000    6.250    0.000    0.750    0.000    0.000 
#    0.000    0.000    0.000    0.000    0.000    0.000 
#
# Total GULP energy -178501.717942 kJ/mol
# GULP energy per Si atom -5578.178686 kJ/mol
# Density = 2.049370 g / cm^3
# Si number density = 20.540448 Si / 1000 Ang^3
#
#
#
# Elastic Constant Matrix: (Units=GPa)
#
#
# Indices 1 2 3 4 5 6 
#
# 1 55.1778 11.8202 -5.0471 0.0007 10.0414 -0.0001
# 2 11.8202 60.7008 -0.6801 0.0002 7.3222 -0.0001
# 3 -5.0471 -0.6801 35.6551 -0.0013 7.2255 -0.0023
# 4 0.0007 0.0002 -0.0013 17.1816 0.0005 3.4444
# 5 10.0414 7.3222 7.2255 0.0005 21.6273 0.0001
# 6 -0.0001 -0.0001 -0.0023 3.4444 0.0001 34.8560
#
#
#
# Elastic Compliance Matrix: (Units=1/GPa)
#
#
# Indices 1 2 3 4 5 6 
#
# 1 0.021103 -0.002780 0.005072 0.000000 -0.010552 0.000000
# 2 -0.002780 0.017629 0.000955 0.000000 -0.004997 0.000000
# 3 0.005072 0.000955 0.031455 0.000002 -0.013188 0.000002
# 4 0.000000 0.000000 0.000002 0.059378 -0.000002 -0.005868
# 5 -0.010552 -0.004997 -0.013188 -0.000002 0.057235 -0.000001
# 6 0.000000 0.000000 0.000002 -0.005868 -0.000001 0.029269
#
#
# Mechanical properties :
#
#
# Convention : Reuss Voigt Hill
#
# Bulk Modulus (GPa) = 13.04061 18.19107 15.61584
# Shear Modulus (GPa) = 21.26448 24.42903 22.84675
#
# Velocity S-wave (km/s) = 3.22102 3.45238 3.33871
# Velocity P-wave (km/s) = 4.49398 4.97668 4.74148
#
# Compressibility (1/GPa) = 0.07668351
#
# Stress axis : x y z
#
# Youngs Moduli (GPa) = 47.38692 56.72463 31.79126
#
# Poissons Ratio (x) = 0.15768 -0.16126
# Poissons Ratio (y) = 0.13172 -0.03038
# Poissons Ratio (z) = -0.24037 -0.05420
#
# Static dielectric constant tensor:
#      x y z
#    x 1.016840 -0.000030 -1.299720 
#    y -0.000030 1.770520 -0.000050 
#    z -1.299720 -0.000050 -0.340500 
# 
# From -- ./inp_files/293896.got.cif
#   From: 2010.05.17/outbox.cif.g08.bks.cpg/sg15_147_cif.got.tgz:293896.got - 2010.06.03 18:47:42.
