data_PCOD9262004
_publ_section_title
;
Structure prediction by ZEFSAII (Michael W. Deem and Ramdas Pophale) SiO2 
 PCOD9262004
Probable space group: C 2/C
;
_chemical_formula_sum "Si O2"
_cell_formula_units_Z 56
_cell_length_a 24.152946
_cell_length_b 23.193964
_cell_length_c 5.615124
_cell_angle_alpha 90.000000
_cell_angle_beta 79.884575
_cell_angle_gamma 90.000000
_cell_volume 3096.711315
_symmetry_space_group_name_H-M "C 2/C"
_symmetry_group_IT_number 15
_symmetry_cell_setting 'monoclinic'
loop_
_space_group_symop_operation_xyz
x,y,z
-x,y,1/2-z
-x,-y,-z
x,-y,1/2+z
1/2+x,1/2+y,z
1/2-x,1/2+y,1/2-z
1/2-x,1/2-y,-z
1/2+x,1/2-y,1/2+z
loop_
_atom_site_type_symbol
_atom_site_label
_atom_site_fract_x
_atom_site_fract_y
_atom_site_fract_z
Si Si1 0.771410 0.842736 0.925189
Si Si2 0.174468 0.264873 0.828836
Si Si3 0.780402 0.029956 0.536845
Si Si4 0.416147 0.528546 0.398326
Si Si5 0.942003 0.248996 0.347647
Si Si6 0.048739 0.864369 0.387006
Si Si7 0.633674 0.685620 0.477443
O O1 0.716324 0.817362 0.839219
O O2 0.761990 0.903107 0.060691
O O3 0.821125 0.851347 0.697763
O O4 0.797044 0.790904 0.065190
O O5 0.164735 0.240650 0.572145
O O6 0.112786 0.277069 0.987446
O O7 0.848498 0.028736 0.468881
O O8 0.762370 0.998028 0.795600
O O9 0.434173 0.497372 0.631688
O O10 0.439044 0.592977 0.407949
O O11 0.963149 0.199232 0.510072
O O12 0.000000 0.282662 0.250000
O O13 0.914123 0.214212 0.149485
O O14 0.105496 0.855533 0.192947
O O15 0.000000 0.884827 0.250000
#
# Coordination Sequence:
#
# PCOD9262004 Si02
#       7
#     8   8   8   8   8   8   8
#     4  10  20  35  53  78 108 134 182 221 273 331
#     4   9  20  33  53  81 105 139 172 222 275 321
#     4  10  22  37  56  78 105 146 184 226 276 327
#     4  10  23  36  51  69  97 133 185 236 278 309
#     4  10  19  33  51  74 100 133 169 209 260 329
#     4  11  22  33  49  67  93 134 183 224 269 314
#     4  10  19  32  52  73  98 137 171 220 269 322
#
# _framework density 18.083701999999999
#
# number of rings (size 3 to 8) (size 9 to 14) (size 15 to 20)
#    0.000    2.000    1.429    3.000   10.000    0.571 
#    0.000    0.000    0.000    0.000    0.000    0.000 
#    0.000    1.143    0.000    0.000    0.000    0.000 
#
# Total GULP energy -156269.155037 kJ/mol
# GULP energy per Si atom -5581.041251 kJ/mol
# Density = 1.804254 g / cm^3
# Si number density = 18.083702 Si / 1000 Ang^3
#
#
#
# Elastic Constant Matrix: (Units=GPa)
#
#
# Indices 1 2 3 4 5 6 
#
# 1 68.5334 16.1727 14.6267 0.0000 9.6853 0.0000
# 2 16.1727 47.9515 18.2345 0.0000 5.4183 0.0000
# 3 14.6267 18.2345 66.8304 0.0000 13.4144 0.0000
# 4 0.0000 0.0000 0.0000 15.2809 0.0000 10.6923
# 5 9.6853 5.4183 13.4144 0.0000 16.7521 0.0000
# 6 0.0000 0.0000 0.0000 10.6923 0.0000 14.0365
#
#
#
# Elastic Compliance Matrix: (Units=1/GPa)
#
#
# Indices 1 2 3 4 5 6 
#
# 1 0.016925 -0.004488 -0.000961 0.000000 -0.007564 0.000000
# 2 -0.004488 0.024578 -0.005539 0.000000 -0.000919 0.000000
# 3 -0.000961 -0.005539 0.019319 0.000000 -0.013122 0.000000
# 4 0.000000 0.000000 0.000000 0.140136 0.000000 -0.106749
# 5 -0.007564 -0.000919 -0.013122 0.000000 0.074872 0.000000
# 6 0.000000 0.000000 0.000000 -0.106749 0.000000 0.152560
#
#
# Mechanical properties :
#
#
# Convention : Reuss Voigt Hill
#
# Bulk Modulus (GPa) = 25.74369 31.26478 28.50423
# Shear Modulus (GPa) = 10.79179 18.16598 14.47888
#
# Velocity S-wave (km/s) = 2.44554 3.17290 2.83266
# Velocity P-wave (km/s) = 4.71603 5.54523 5.14735
#
# Compressibility (1/GPa) = 0.03884447
#
# Stress axis : x y z
#
# Youngs Moduli (GPa) = 59.08553 40.68617 51.76239
#
# Poissons Ratio (x) = 0.18260 0.04977
# Poissons Ratio (y) = 0.26517 0.28673
# Poissons Ratio (z) = 0.05681 0.22538
#
# Static dielectric constant tensor:
#      x y z
#    x 1.645730 0.000000 -0.009450 
#    y 0.000000 1.615510 0.000000 
#    z -0.009450 0.000000 1.727380 
# 
# From -- ./inp_files/15643.got.cif
#   From: 2010.05.17/outbox.cif.g08.bks.cpg/sg15_8_cif.got.tgz:15643.got - 2010.06.03 18:47:42.
