data_PCOD9262892
_publ_section_title
;
Structure prediction by ZEFSAII (Michael W. Deem and Ramdas Pophale) SiO2 
 PCOD9262892
Probable space group: C 2/C
;
_chemical_formula_sum "Si O2"
_cell_formula_units_Z 60
_cell_length_a 14.249958
_cell_length_b 10.674037
_cell_length_c 28.490070
_cell_angle_alpha 90.000000
_cell_angle_beta 30.641338
_cell_angle_gamma 90.000000
_cell_volume 2208.606317
_symmetry_space_group_name_H-M "C 2/C"
_symmetry_group_IT_number 15
_symmetry_cell_setting 'monoclinic'
loop_
_space_group_symop_operation_xyz
x,y,z
-x,y,1/2-z
-x,-y,-z
x,-y,1/2+z
1/2+x,1/2+y,z
1/2-x,1/2+y,1/2-z
1/2-x,1/2-y,-z
1/2+x,1/2-y,1/2+z
loop_
_atom_site_type_symbol
_atom_site_label
_atom_site_fract_x
_atom_site_fract_y
_atom_site_fract_z
Si Si1 0.142379 0.374128 0.527755
Si Si2 0.500000 0.254171 0.750000
Si Si3 0.283084 0.306196 0.928183
Si Si4 0.370145 0.183274 0.211501
Si Si5 0.937389 0.713781 0.614157
Si Si6 0.810117 0.015190 0.539400
Si Si7 0.837190 0.821997 0.351180
Si Si8 0.764730 0.032296 0.661525
O O1 0.250000 0.250000 0.500000
O O2 0.190508 0.472095 0.547786
O O3 0.218756 0.391286 0.442535
O O4 0.930005 0.345535 0.632544
O O5 0.393449 0.335829 0.834182
O O6 0.642356 0.157708 0.714266
O O7 0.428396 0.296419 0.908418
O O8 0.200149 0.166153 0.953068
O O9 0.094491 0.373478 0.024075
O O10 0.228724 0.299956 0.277419
O O11 0.539641 0.227497 0.170755
O O12 0.281362 0.063738 0.276642
O O13 0.810840 0.733856 0.622060
O O14 0.727387 0.978174 0.625157
O O15 0.012328 0.959915 0.440523
O O16 0.000000 0.885991 0.250000
#
# Coordination Sequence:
#
# PCOD9262892 Si02
#       8
#     8   4   8   8   8   8   8   8
#     4  10  22  34  54  86 111 142 190 235 276 333
#     4  10  22  30  52  82 114 138 174 236 282 340
#     4  10  21  38  53  82 112 148 183 225 286 344
#     4  10  19  33  57  84 114 141 186 228 288 335
#     4  10  21  35  58  77 109 154 189 221 276 345
#     4  10  21  35  56  83 119 145 182 231 287 348
#     4   9  21  35  56  79 108 149 188 237 268 321
#     4  10  20  32  56  87 115 146 171 231 305 345
#
# _framework density 27.166454999999999
#
# number of rings (size 3 to 8) (size 9 to 14) (size 15 to 20)
#    0.000    2.133    1.333    1.600   12.133    4.267 
#    0.000    0.667    0.000    0.000    1.733    0.000 
#    0.000    0.000    0.000    0.000    0.000    0.000 
#
# Total GULP energy -167008.756871 kJ/mol
# GULP energy per Si atom -5566.958562 kJ/mol
# Density = 2.710462 g / cm^3
# Si number density = 27.166455 Si / 1000 Ang^3
#
#
#
# Elastic Constant Matrix: (Units=GPa)
#
#
# Indices 1 2 3 4 5 6 
#
# 1 132.5578 20.0567 78.3208 0.0000 8.3335 0.0000
# 2 20.0567 53.6223 24.8847 0.0002 7.4233 -0.0001
# 3 78.3208 24.8847 247.8931 -0.0002 46.8724 0.0000
# 4 0.0000 0.0002 -0.0002 16.5707 -0.0002 3.6976
# 5 8.3335 7.4233 46.8724 -0.0002 69.2248 0.0000
# 6 0.0000 -0.0001 0.0000 3.6976 0.0000 22.6355
#
#
#
# Elastic Compliance Matrix: (Units=1/GPa)
#
#
# Indices 1 2 3 4 5 6 
#
# 1 0.009610 -0.002353 -0.003015 0.000000 0.001137 0.000000
# 2 -0.002353 0.020183 -0.001063 0.000000 -0.001161 0.000000
# 3 -0.003015 -0.001063 0.005738 0.000000 -0.003408 0.000000
# 4 0.000000 0.000000 0.000000 0.062631 0.000000 -0.010231
# 5 0.001137 -0.001161 -0.003408 0.000000 0.016741 0.000000
# 6 0.000000 0.000000 0.000000 -0.010231 0.000000 0.045850
#
#
# Mechanical properties :
#
#
# Convention : Reuss Voigt Hill
#
# Bulk Modulus (GPa) = 44.11319 75.62195 59.86757
# Shear Modulus (GPa) = 27.59847 42.40694 35.00271
#
# Velocity S-wave (km/s) = 3.19078 3.95524 3.59340
# Velocity P-wave (km/s) = 5.46334 6.98252 6.26912
#
# Compressibility (1/GPa) = 0.02266896
#
# Stress axis : x y z
#
# Youngs Moduli (GPa) = 104.06118 49.54645 174.28612
#
# Poissons Ratio (x) = 0.11656 0.52546
# Poissons Ratio (y) = 0.24482 0.18530
# Poissons Ratio (z) = 0.31374 0.05268
#
# Static dielectric constant tensor:
#      x y z
#    x 2.109140 0.000000 0.009540 
#    y 0.000000 2.459000 0.000000 
#    z 0.009540 0.000000 2.307190 
# 
# From -- ./inp_files/313970.got.cif
#   From: 2010.05.17/outbox.cif.g08.bks.cpg/sg15_157_cif.got.tgz:313970.got - 2010.06.03 18:47:42.
