data_PCOD9262674
_publ_section_title
;
Structure prediction by ZEFSAII (Michael W. Deem and Ramdas Pophale) SiO2 
 PCOD9262674
Probable space group: C 2/C
;
_chemical_formula_sum "Si O2"
_cell_formula_units_Z 36
_cell_length_a 16.084184
_cell_length_b 16.768214
_cell_length_c 6.529766
_cell_angle_alpha 90.000000
_cell_angle_beta 55.360824
_cell_angle_gamma 90.000000
_cell_volume 1448.939487
_symmetry_space_group_name_H-M "C 2/C"
_symmetry_group_IT_number 15
_symmetry_cell_setting 'monoclinic'
loop_
_space_group_symop_operation_xyz
x,y,z
-x,y,1/2-z
-x,-y,-z
x,-y,1/2+z
1/2+x,1/2+y,z
1/2-x,1/2+y,1/2-z
1/2-x,1/2-y,-z
1/2+x,1/2-y,1/2+z
loop_
_atom_site_type_symbol
_atom_site_label
_atom_site_fract_x
_atom_site_fract_y
_atom_site_fract_z
Si Si1 0.607984 0.890090 0.644954
Si Si2 0.598084 0.710500 0.743977
Si Si3 0.000000 0.978477 0.250000
Si Si4 0.230201 0.165478 0.915578
Si Si5 0.713336 0.592626 0.357080
O O1 0.500000 0.928188 0.750000
O O2 0.583403 0.804642 0.786642
O O3 0.676186 0.864277 0.354457
O O4 0.681942 0.936019 0.694523
O O5 0.500000 0.682408 0.750000
O O6 0.628744 0.674175 0.919664
O O7 0.692734 0.683229 0.472747
O O8 0.882877 0.950077 0.418277
O O9 0.000000 0.000000 0.500000
O O10 0.250000 0.250000 0.000000
O O11 0.214404 0.101905 0.115541
#
# Coordination Sequence:
#
# PCOD9262674 Si02
#       5
#     8   8   4   8   8
#     4  10  21  36  57  98 143 173 214 262 343 447
#     4  10  19  33  54  92 136 174 211 254 332 430
#     4  12  32  52  74 102 128 182 260 312 350 392
#     4  11  19  34  58  91 135 182 223 253 334 435
#     4  11  22  42  65  90 132 177 220 291 348 391
#
# _framework density 24.845758
#
# number of rings (size 3 to 8) (size 9 to 14) (size 15 to 20)
#    0.000    1.333    5.556    1.333    6.222    1.778 
#    0.000    0.000    0.000    1.333    0.000    0.000 
#    0.000    0.000    0.000    0.000    0.000    0.000 
#
# Total GULP energy -100287.547528 kJ/mol
# GULP energy per Si atom -5571.530418 kJ/mol
# Density = 2.478921 g / cm^3
# Si number density = 24.845758 Si / 1000 Ang^3
#
#
#
# Elastic Constant Matrix: (Units=GPa)
#
#
# Indices 1 2 3 4 5 6 
#
# 1 280.2420 44.9703 96.8634 0.0000 -0.3430 0.0000
# 2 44.9703 38.3078 29.5476 0.0000 8.0082 0.0000
# 3 96.8634 29.5476 171.0450 0.0000 25.8969 0.0000
# 4 0.0000 0.0000 0.0000 22.5495 0.0000 -12.0609
# 5 -0.3430 8.0082 25.8969 0.0000 46.2513 0.0000
# 6 0.0000 0.0000 0.0000 -12.0609 0.0000 21.5889
#
#
#
# Elastic Compliance Matrix: (Units=1/GPa)
#
#
# Indices 1 2 3 4 5 6 
#
# 1 0.005164 -0.004628 -0.002461 0.000000 0.002217 0.000000
# 2 -0.004628 0.034535 -0.002660 0.000000 -0.004525 0.000000
# 3 -0.002461 -0.002660 0.008339 0.000000 -0.004227 0.000000
# 4 0.000000 0.000000 0.000000 0.063245 0.000000 0.035333
# 5 0.002217 -0.004525 -0.004227 0.000000 0.024788 0.000000
# 6 0.000000 0.000000 0.000000 0.035333 0.000000 0.066059
#
#
# Mechanical properties :
#
#
# Convention : Reuss Voigt Hill
#
# Bulk Modulus (GPa) = 35.03721 92.48416 63.76069
# Shear Modulus (GPa) = 21.63178 39.29218 30.46198
#
# Velocity S-wave (km/s) = 2.95387 3.98105 3.50529
# Velocity P-wave (km/s) = 5.07605 7.64433 6.48853
#
# Compressibility (1/GPa) = 0.02854108
#
# Stress axis : x y z
#
# Youngs Moduli (GPa) = 193.63867 28.95640 119.91152
#
# Poissons Ratio (x) = 0.13401 0.29508
# Poissons Ratio (y) = 0.89614 0.31896
# Poissons Ratio (z) = 0.47651 0.07702
#
# Static dielectric constant tensor:
#      x y z
#    x 2.034640 0.000000 0.056790 
#    y 0.000000 2.050040 0.000000 
#    z 0.056790 0.000000 1.920320 
# 
# From -- ./inp_files/7220.got.cif
#   From: 2010.05.17/outbox.cif.g08.bks.cpg/sg15_4_cif.got.tgz:7220.got - 2010.06.03 18:47:42.
