data_PCOD9262859
_publ_section_title
;
Structure prediction by ZEFSAII (Michael W. Deem and Ramdas Pophale) SiO2 
 PCOD9262859
Probable space group: C 2/C
;
_chemical_formula_sum "Si O2"
_cell_formula_units_Z 64
_cell_length_a 17.943637
_cell_length_b 11.866509
_cell_length_c 27.344535
_cell_angle_alpha 90.000000
_cell_angle_beta 32.065885
_cell_angle_gamma 90.000000
_cell_volume 3091.091660
_symmetry_space_group_name_H-M "C 2/C"
_symmetry_group_IT_number 15
_symmetry_cell_setting 'monoclinic'
loop_
_space_group_symop_operation_xyz
x,y,z
-x,y,1/2-z
-x,-y,-z
x,-y,1/2+z
1/2+x,1/2+y,z
1/2-x,1/2+y,1/2-z
1/2-x,1/2-y,-z
1/2+x,1/2-y,1/2+z
loop_
_atom_site_type_symbol
_atom_site_label
_atom_site_fract_x
_atom_site_fract_y
_atom_site_fract_z
Si Si1 0.089216 0.661188 0.117596
Si Si2 0.103999 0.045710 0.900370
Si Si3 0.493392 0.052090 0.438872
Si Si4 0.620804 0.591066 0.557297
Si Si5 0.196400 0.599471 0.868972
Si Si6 0.767785 0.727825 0.189125
Si Si7 0.461739 0.555580 0.214668
Si Si8 0.717621 0.174931 0.205888
O O1 0.057842 0.595675 0.084257
O O2 0.114495 0.793472 0.092275
O O3 0.939040 0.655417 0.227056
O O4 0.233220 0.602778 0.053766
O O5 0.203098 0.154076 0.853373
O O6 0.004113 0.083901 0.911781
O O7 0.201783 0.940842 0.832533
O O8 0.000000 0.000000 0.000000
O O9 0.365140 0.047218 0.547265
O O10 0.605234 0.144232 0.396354
O O11 0.585096 0.938524 0.389409
O O12 0.593000 0.485790 0.608918
O O13 0.347452 0.546094 0.774300
O O14 0.205945 0.732812 0.869517
O O15 0.622150 0.665290 0.257658
O O16 0.783856 0.732506 0.239271
O O17 0.500000 0.568883 0.250000
#
# Coordination Sequence:
#
# PCOD9262859 Si02
#       8
#     8   8   8   8   8   8   8   8
#     4  10  21  35  60  86 128 161 200 267 323 369
#     4  12  24  42  68  91 131 170 215 263 320 388
#     4   9  18  33  57  84 122 153 198 272 304 372
#     4  11  21  40  58  95 125 165 207 262 329 373
#     4  10  19  33  56  94 116 154 218 252 314 374
#     4  10  21  38  59  88 120 164 218 248 311 386
#     4  11  21  38  64  90 125 163 207 266 321 377
#     4  11  21  37  65  91 123 169 214 262 311 384
#
# _framework density 20.704658999999999
#
# number of rings (size 3 to 8) (size 9 to 14) (size 15 to 20)
#    0.000    1.500    5.000    1.500    3.500    0.000 
#    0.000    1.875    0.000    2.250    0.000    0.000 
#    0.000    0.000    0.000    0.000    0.000    0.000 
#
# Total GULP energy -178578.333726 kJ/mol
# GULP energy per Si atom -5580.572929 kJ/mol
# Density = 2.065753 g / cm^3
# Si number density = 20.704659 Si / 1000 Ang^3
#
#
#
# Elastic Constant Matrix: (Units=GPa)
#
#
# Indices 1 2 3 4 5 6 
#
# 1 50.3258 10.9949 6.3611 0.0000 -12.8898 0.0000
# 2 10.9949 107.0662 44.1072 -0.0001 -19.9829 0.0000
# 3 6.3611 44.1072 89.8550 -0.0005 -16.9293 0.0001
# 4 0.0000 -0.0001 -0.0005 36.1001 0.0001 0.5026
# 5 -12.8898 -19.9829 -16.9293 0.0001 28.7880 0.0000
# 6 0.0000 0.0000 0.0001 0.5026 0.0000 14.7669
#
#
#
# Elastic Compliance Matrix: (Units=1/GPa)
#
#
# Indices 1 2 3 4 5 6 
#
# 1 0.022495 -0.000714 0.000632 0.000000 0.009948 0.000000
# 2 -0.000714 0.012508 -0.005076 0.000000 0.005378 0.000000
# 3 0.000632 -0.005076 0.014581 0.000000 0.005334 0.000000
# 4 0.000000 0.000000 0.000000 0.027714 0.000000 -0.000943
# 5 0.009948 0.005378 0.005334 0.000000 0.046061 0.000000
# 6 0.000000 0.000000 0.000000 -0.000943 0.000000 0.067751
#
#
# Mechanical properties :
#
#
# Convention : Reuss Voigt Hill
#
# Bulk Modulus (GPa) = 25.46579 41.13039 33.29809
# Shear Modulus (GPa) = 23.30844 28.31658 25.81251
#
# Velocity S-wave (km/s) = 3.35887 3.70218 3.53470
# Velocity P-wave (km/s) = 5.23153 6.17926 5.72504
#
# Compressibility (1/GPa) = 0.03926836
#
# Stress axis : x y z
#
# Youngs Moduli (GPa) = 44.45525 79.94744 68.58237
#
# Poissons Ratio (x) = 0.05706 -0.04336
# Poissons Ratio (y) = 0.03173 0.34814
# Poissons Ratio (z) = -0.02810 0.40583
#
# Static dielectric constant tensor:
#      x y z
#    x 1.759430 0.000000 0.007050 
#    y 0.000000 1.760290 0.000000 
#    z 0.007050 0.000000 1.807660 
# 
# From -- ./inp_files/316203.got.cif
#   From: 2010.05.17/outbox.cif.g08.bks.cpg/sg15_159_cif.got.tgz:316203.got - 2010.06.03 18:47:42.
