data_PCOD9262727
_publ_section_title
;
Structure prediction by ZEFSAII (Michael W. Deem and Ramdas Pophale) SiO2 
 PCOD9262727
Probable space group: C 2/C
;
_chemical_formula_sum "Si O2"
_cell_formula_units_Z 52
_cell_length_a 12.920066
_cell_length_b 19.104362
_cell_length_c 20.867165
_cell_angle_alpha 90.000000
_cell_angle_beta 144.663118
_cell_angle_gamma 90.000000
_cell_volume 2979.038647
_symmetry_space_group_name_H-M "C 2/C"
_symmetry_group_IT_number 15
_symmetry_cell_setting 'monoclinic'
loop_
_space_group_symop_operation_xyz
x,y,z
-x,y,1/2-z
-x,-y,-z
x,-y,1/2+z
1/2+x,1/2+y,z
1/2-x,1/2+y,1/2-z
1/2-x,1/2-y,-z
1/2+x,1/2-y,1/2+z
loop_
_atom_site_type_symbol
_atom_site_label
_atom_site_fract_x
_atom_site_fract_y
_atom_site_fract_z
Si Si1 0.500000 0.757420 0.750000
Si Si2 0.306512 0.316004 0.724225
Si Si3 0.155587 0.822919 0.206670
Si Si4 0.789876 0.181474 0.062616
Si Si5 0.038767 0.579501 0.595574
Si Si6 0.772878 0.824087 0.974715
Si Si7 0.523126 0.082950 0.434223
O O1 0.425992 0.706960 0.768163
O O2 0.660020 0.807814 0.854319
O O3 0.269118 0.241256 0.736484
O O4 0.504189 0.341297 0.843437
O O5 0.286997 0.305104 0.637813
O O6 0.153122 0.370321 0.666806
O O7 0.285947 0.887474 0.284031
O O8 0.983400 0.837464 0.075287
O O9 0.750000 0.250000 0.000000
O O10 0.637060 0.123773 0.973706
O O11 0.010864 0.498257 0.596876
O O12 0.061921 0.587534 0.530094
O O13 0.679292 0.883003 0.970740
O O14 0.750000 0.750000 0.000000
#
# Coordination Sequence:
#
# PCOD9262727 Si02
#       7
#     4   8   8   8   8   8   8
#     4  10  20  32  58  86 110 144 182 230 276 326
#     4  10  20  34  56  79 111 141 185 232 265 328
#     4  11  20  33  57  87 110 142 187 228 274 330
#     4  10  20  35  55  80 105 147 190 223 270 322
#     4  10  21  34  58  81 113 150 177 230 281 325
#     4  10  19  33  55  83 110 141 183 228 269 331
#     4  10  20  37  53  84 117 140 181 230 285 326
#
# _framework density 17.455296000000001
#
# number of rings (size 3 to 8) (size 9 to 14) (size 15 to 20)
#    0.000    1.846    4.615    1.846    2.154    1.231 
#    0.000    4.615    3.385    0.923    0.000    0.000 
#    0.000    0.000    0.000    0.000    0.000    0.000 
#
# Total GULP energy -144963.397010 kJ/mol
# GULP energy per Si atom -5575.515270 kJ/mol
# Density = 1.741557 g / cm^3
# Si number density = 17.455296 Si / 1000 Ang^3
#
#
#
# Elastic Constant Matrix: (Units=GPa)
#
#
# Indices 1 2 3 4 5 6 
#
# 1 20.5593 4.2484 3.9337 0.0000 15.0258 0.0000
# 2 4.2484 98.6468 36.0362 0.0000 8.0983 0.0000
# 3 3.9337 36.0362 119.8805 -0.0001 21.8239 0.0000
# 4 0.0000 0.0000 -0.0001 28.1728 0.0000 1.9100
# 5 15.0258 8.0983 21.8239 0.0000 22.2527 0.0000
# 6 0.0000 0.0000 0.0000 1.9100 0.0000 27.1183
#
#
#
# Elastic Compliance Matrix: (Units=1/GPa)
#
#
# Indices 1 2 3 4 5 6 
#
# 1 0.108827 -0.002311 0.012597 0.000000 -0.084997 0.000000
# 2 -0.002311 0.011454 -0.003521 0.000000 0.000845 0.000000
# 3 0.012597 -0.003521 0.012541 0.000000 -0.019524 0.000000
# 4 0.000000 0.000000 0.000000 0.035665 0.000000 -0.002512
# 5 -0.084997 0.000845 -0.019524 0.000000 0.121171 0.000000
# 6 0.000000 0.000000 0.000000 -0.002512 0.000000 0.037052
#
#
# Mechanical properties :
#
#
# Convention : Reuss Voigt Hill
#
# Bulk Modulus (GPa) = 6.83283 36.39147 21.61215
# Shear Modulus (GPa) = 13.81351 28.50001 21.15676
#
# Velocity S-wave (km/s) = 2.81617 4.04510 3.48523
# Velocity P-wave (km/s) = 3.80755 6.53535 5.34828
#
# Compressibility (1/GPa) = 0.14635220
#
# Stress axis : x y z
#
# Youngs Moduli (GPa) = 9.18889 87.30925 79.73855
#
# Poissons Ratio (x) = 0.20176 -1.00448
# Poissons Ratio (y) = 0.02123 0.28076
# Poissons Ratio (z) = -0.11575 0.30742
#
# Static dielectric constant tensor:
#      x y z
#    x 1.603820 0.000000 -0.000790 
#    y 0.000000 1.549960 0.000000 
#    z -0.000790 0.000000 1.633520 
# 
# From -- ./inp_files/174006.got.cif
#   From: 2010.05.17/outbox.cif.g08.bks.cpg/sg15_88_cif.got.tgz:174006.got - 2010.06.03 18:47:42.
