data_PCOD9262311
_publ_section_title
;
Structure prediction by ZEFSAII (Michael W. Deem and Ramdas Pophale) SiO2 
 PCOD9262311
Probable space group: C 2/C
;
_chemical_formula_sum "Si O2"
_cell_formula_units_Z 60
_cell_length_a 21.620694
_cell_length_b 11.615521
_cell_length_c 8.835454
_cell_angle_alpha 90.000000
_cell_angle_beta 101.476697
_cell_angle_gamma 90.000000
_cell_volume 2174.531987
_symmetry_space_group_name_H-M "C 2/C"
_symmetry_group_IT_number 15
_symmetry_cell_setting 'monoclinic'
loop_
_space_group_symop_operation_xyz
x,y,z
-x,y,1/2-z
-x,-y,-z
x,-y,1/2+z
1/2+x,1/2+y,z
1/2-x,1/2+y,1/2-z
1/2-x,1/2-y,-z
1/2+x,1/2-y,1/2+z
loop_
_atom_site_type_symbol
_atom_site_label
_atom_site_fract_x
_atom_site_fract_y
_atom_site_fract_z
Si Si1 0.404282 0.525601 0.559956
Si Si2 0.470910 0.144184 0.984554
Si Si3 0.759898 0.759171 0.750663
Si Si4 0.900209 0.838708 0.761274
Si Si5 0.500000 0.293191 0.250000
Si Si6 0.659749 0.881649 0.548944
Si Si7 0.758723 0.066863 0.529438
Si Si8 0.083997 0.502646 0.280622
O O1 0.424258 0.397303 0.618899
O O2 0.404528 0.554759 0.383079
O O3 0.445986 0.623727 0.660471
O O4 0.332082 0.538957 0.575862
O O5 0.520334 0.210886 0.117685
O O6 0.423825 0.100711 0.095025
O O7 0.440977 0.241834 0.863998
O O8 0.471518 0.038169 0.864015
O O9 0.827983 0.793909 0.717803
O O10 0.696861 0.768519 0.619444
O O11 0.762879 0.637926 0.834720
O O12 0.750044 0.852429 0.880046
O O13 0.633693 0.948412 0.683655
O O14 0.716514 0.954853 0.503494
O O15 0.605910 0.894063 0.395168
#
# Coordination Sequence:
#
# PCOD9262311 Si02
#       8
#     8   8   8   8   4   8   8   8
#     4  10  22  40  64  93 125 171 217 273 312 383
#     4  10  23  44  65  93 124 170 214 281 321 383
#     4  10  19  32  59  84 125 174 206 247 314 392
#     4  10  21  41  63  93 134 164 215 261 325 383
#     4  10  24  44  74  88 122 170 228 272 340 360
#     4  11  19  34  56  91 127 171 197 253 313 399
#     4  10  20  35  56  90 129 171 213 250 315 382
#     4  10  22  38  61  91 136 160 216 259 326 383
#
# _framework density 27.592143
#
# number of rings (size 3 to 8) (size 9 to 14) (size 15 to 20)
#    0.000    1.867    2.667    1.600    5.600    2.667 
#    2.400    1.333    0.000    7.200    0.000    0.000 
#    0.000    0.000    0.000    0.000    0.000    0.000 
#
# Total GULP energy -167960.259059 kJ/mol
# GULP energy per Si atom -5598.675302 kJ/mol
# Density = 2.752934 g / cm^3
# Si number density = 27.592143 Si / 1000 Ang^3
#
#
#
# Elastic Constant Matrix: (Units=GPa)
#
#
# Indices 1 2 3 4 5 6 
#
# 1 55.9947 8.1126 26.6388 0.0000 8.1225 0.0000
# 2 8.1126 56.6366 28.2276 0.0000 -6.7440 0.0000
# 3 26.6388 28.2276 154.0374 0.0000 14.7620 0.0000
# 4 0.0000 0.0000 0.0000 61.5671 0.0000 -10.9830
# 5 8.1225 -6.7440 14.7620 0.0000 57.9117 0.0000
# 6 0.0000 0.0000 0.0000 -10.9830 0.0000 39.5279
#
#
#
# Elastic Compliance Matrix: (Units=1/GPa)
#
#
# Indices 1 2 3 4 5 6 
#
# 1 0.019805 -0.001653 -0.002909 0.000000 -0.002229 0.000000
# 2 -0.001653 0.020185 -0.003752 0.000000 0.003539 0.000000
# 3 -0.002909 -0.003752 0.007878 0.000000 -0.002037 0.000000
# 4 0.000000 0.000000 0.000000 0.017090 0.000000 0.004748
# 5 -0.002229 0.003539 -0.002037 0.000000 0.018512 0.000000
# 6 0.000000 0.000000 0.000000 0.004748 0.000000 0.026618
#
#
# Mechanical properties :
#
#
# Convention : Reuss Voigt Hill
#
# Bulk Modulus (GPa) = 32.00948 43.62520 37.81734
# Shear Modulus (GPa) = 36.46245 45.38065 40.92155
#
# Velocity S-wave (km/s) = 3.63916 4.05988 3.85526
# Velocity P-wave (km/s) = 5.41148 6.14995 5.79250
#
# Compressibility (1/GPa) = 0.03124075
#
# Stress axis : x y z
#
# Youngs Moduli (GPa) = 50.49142 49.54269 126.93966
#
# Poissons Ratio (x) = 0.08188 0.36922
# Poissons Ratio (y) = 0.08344 0.47630
# Poissons Ratio (z) = 0.14686 0.18589
#
# Static dielectric constant tensor:
#      x y z
#    x 2.160590 0.000000 0.047460 
#    y 0.000000 2.216710 0.000000 
#    z 0.047460 0.000000 2.123470 
# 
# From -- ./inp_files/69429.got.cif
#   From: 2010.05.17/outbox.cif.g08.bks.cpg/sg15_35_cif.got.tgz:69429.got - 2010.06.03 18:47:42.
