data_PCOD9262715
_publ_section_title
;
Structure prediction by ZEFSAII (Michael W. Deem and Ramdas Pophale) SiO2 
 PCOD9262715
Probable space group: C 2/C
;
_chemical_formula_sum "Si O2"
_cell_formula_units_Z 48
_cell_length_a 9.343972
_cell_length_b 15.599811
_cell_length_c 32.175939
_cell_angle_alpha 90.000000
_cell_angle_beta 30.450697
_cell_angle_gamma 90.000000
_cell_volume 2376.927365
_symmetry_space_group_name_H-M "C 2/C"
_symmetry_group_IT_number 15
_symmetry_cell_setting 'monoclinic'
loop_
_space_group_symop_operation_xyz
x,y,z
-x,y,1/2-z
-x,-y,-z
x,-y,1/2+z
1/2+x,1/2+y,z
1/2-x,1/2+y,1/2-z
1/2-x,1/2-y,-z
1/2+x,1/2-y,1/2+z
loop_
_atom_site_type_symbol
_atom_site_label
_atom_site_fract_x
_atom_site_fract_y
_atom_site_fract_z
Si Si1 0.249379 0.451912 0.838125
Si Si2 0.687776 0.461178 0.339744
Si Si3 0.042097 0.724201 0.589364
Si Si4 0.238188 0.390123 0.930495
Si Si5 0.270308 0.952429 0.414548
Si Si6 0.176954 0.877527 0.129340
O O1 0.500000 0.408208 0.750000
O O2 0.149937 0.403186 0.904528
O O3 0.357104 0.541585 0.831418
O O4 0.017388 0.480243 0.863044
O O5 0.447772 0.533733 0.392855
O O6 0.710868 0.435301 0.381556
O O7 0.587311 0.383259 0.335217
O O8 0.000000 0.492821 0.250000
O O9 0.250000 0.750000 0.500000
O O10 0.081437 0.803199 0.610277
O O11 0.150130 0.635684 0.582335
O O12 0.743760 0.703334 0.641921
O O13 0.960534 0.389472 0.029636
O O14 0.000000 0.000000 0.500000
#
# Coordination Sequence:
#
# PCOD9262715 Si02
#       6
#     8   8   8   8   8   8
#     4  10  19  33  55  81 111 147 181 221 274 337
#     4  11  21  35  55  84 112 143 187 231 271 330
#     4   9  19  36  58  82 106 139 187 234 280 328
#     4  10  19  38  59  81 107 145 189 230 279 331
#     4  11  20  34  57  84 109 142 186 230 271 330
#     4   9  18  36  59  78 106 150 189 226 271 332
#
# _framework density 20.194140000000001
#
# number of rings (size 3 to 8) (size 9 to 14) (size 15 to 20)
#    0.000    2.000    0.000    8.000    0.000    0.000 
#    0.000   15.000    0.000    4.000    0.000    0.000 
#    0.000    0.000    0.000    0.000    0.000    0.000 
#
# Total GULP energy -133770.397111 kJ/mol
# GULP energy per Si atom -5573.766546 kJ/mol
# Density = 2.014818 g / cm^3
# Si number density = 20.194140 Si / 1000 Ang^3
#
#
#
# Elastic Constant Matrix: (Units=GPa)
#
#
# Indices 1 2 3 4 5 6 
#
# 1 115.7750 22.8914 -1.9425 0.0002 -12.4778 0.0015
# 2 22.8914 66.1259 -6.5470 -0.0116 -4.8526 0.0006
# 3 -1.9425 -6.5470 51.5058 -0.0072 -7.4477 -0.0330
# 4 0.0002 -0.0116 -0.0072 6.8939 -0.0082 -14.0731
# 5 -12.4778 -4.8526 -7.4477 -0.0082 30.0417 -0.0002
# 6 0.0015 0.0006 -0.0330 -14.0731 -0.0002 23.6744
#
#
#
# Elastic Compliance Matrix: (Units=1/GPa)
#
#
# Indices 1 2 3 4 5 6 
#
# 1 0.009635 -0.003018 0.000506 0.000000 0.003640 0.000000
# 2 -0.003018 0.016538 0.002275 -0.000181 0.001982 -0.000105
# 3 0.000506 0.002275 0.020543 -0.000424 0.005670 -0.000223
# 4 0.000000 -0.000181 -0.000424 -0.679476 -0.000323 -0.403910
# 5 0.003640 0.001982 0.005670 -0.000323 0.036525 -0.000184
# 6 0.000000 -0.000105 -0.000223 -0.403910 -0.000184 -0.197861
#
#
# Mechanical properties :
#
#
# Convention : Reuss Voigt Hill
#
# Bulk Modulus (GPa) = 21.62554 29.13451 25.38002
# Shear Modulus (GPa) = -6.42502 26.72233 10.14866
#
# Velocity S-wave (km/s) = -1.78565 3.64163 2.24420
# Velocity P-wave (km/s) = 2.54572 5.66926 4.39438
#
# Compressibility (1/GPa) = 0.04624162
#
# Stress axis : x y z
#
# Youngs Moduli (GPa) = 103.78835 60.46627 48.67779
#
# Poissons Ratio (x) = 0.18250 -0.02463
# Poissons Ratio (y) = 0.31326 -0.11073
# Poissons Ratio (z) = -0.05252 -0.13755
#
# Static dielectric constant tensor:
#      x y z
#    x 1.749730 0.000520 -0.010920 
#    y 0.000520 1.771740 -0.000230 
#    z -0.010920 -0.000230 1.776620 
# 
# From -- ./inp_files/308721.got.cif
#   From: 2010.05.17/outbox.cif.g08.bks.cpg/sg15_155_cif.got.tgz:308721.got - 2010.06.03 18:47:42.
