data_PCOD9262588
_publ_section_title
;
Structure prediction by ZEFSAII (Michael W. Deem and Ramdas Pophale) SiO2 
 PCOD9262588
Probable space group: C 2/C
;
_chemical_formula_sum "Si O2"
_cell_formula_units_Z 64
_cell_length_a 24.059431
_cell_length_b 8.582151
_cell_length_c 16.002035
_cell_angle_alpha 90.000000
_cell_angle_beta 113.389893
_cell_angle_gamma 90.000000
_cell_volume 3032.609183
_symmetry_space_group_name_H-M "C 2/C"
_symmetry_group_IT_number 15
_symmetry_cell_setting 'monoclinic'
loop_
_space_group_symop_operation_xyz
x,y,z
-x,y,1/2-z
-x,-y,-z
x,-y,1/2+z
1/2+x,1/2+y,z
1/2-x,1/2+y,1/2-z
1/2-x,1/2-y,-z
1/2+x,1/2-y,1/2+z
loop_
_atom_site_type_symbol
_atom_site_label
_atom_site_fract_x
_atom_site_fract_y
_atom_site_fract_z
Si Si1 0.634338 0.135693 0.862323
Si Si2 0.026799 0.420948 0.856984
Si Si3 0.745402 0.970094 0.833015
Si Si4 0.330391 0.043564 0.373240
Si Si5 0.429506 0.824892 0.347191
Si Si6 0.861316 0.154536 0.975289
Si Si7 0.204691 0.706767 0.545211
Si Si8 0.573329 0.350492 0.492648
O O1 0.690630 0.044707 0.854095
O O2 0.596257 0.207492 0.760889
O O3 0.590894 0.005324 0.878027
O O4 0.649088 0.268249 0.939577
O O5 0.000000 0.381325 0.750000
O O6 0.986076 0.558816 0.871936
O O7 0.029877 0.265559 0.914942
O O8 0.804015 0.063135 0.900931
O O9 0.723641 0.962757 0.725044
O O10 0.762216 0.790453 0.858343
O O11 0.365522 0.201101 0.414038
O O12 0.378709 0.923658 0.365612
O O13 0.303235 0.974406 0.442318
O O14 0.438229 0.682396 0.415980
O O15 0.917618 0.035141 0.014150
O O16 0.250000 0.750000 0.500000
O O17 0.139005 0.784858 0.500567
#
# Coordination Sequence:
#
# PCOD9262588 Si02
#       8
#     8   8   8   8   8   8   8   8
#     4  10  20  37  60  88 118 152 200 244 296 356
#     4  10  20  39  65  86 110 153 200 245 294 351
#     4  10  20  35  55  83 116 154 194 237 288 346
#     4  10  20  36  56  82 115 152 197 238 285 351
#     4   9  20  39  63  84 111 155 201 246 291 348
#     4  11  22  36  56  88 123 155 188 243 301 351
#     4  10  19  33  54  78 107 148 190 231 277 336
#     4  10  21  37  56  85 118 149 190 238 293 353
#
# _framework density 21.103940000000001
#
# number of rings (size 3 to 8) (size 9 to 14) (size 15 to 20)
#    0.000    2.000    0.000    4.500    0.000    2.000 
#    0.000   10.625    0.000    0.000    0.000    0.000 
#    0.000    0.000    0.000    0.000    0.000    0.000 
#
# Total GULP energy -178349.222905 kJ/mol
# GULP energy per Si atom -5573.413216 kJ/mol
# Density = 2.105591 g / cm^3
# Si number density = 21.103940 Si / 1000 Ang^3
#
#
#
# Elastic Constant Matrix: (Units=GPa)
#
#
# Indices 1 2 3 4 5 6 
#
# 1 38.9688 3.7585 17.9923 0.0000 3.4661 0.0000
# 2 3.7585 100.0142 40.0772 0.0000 -3.4924 0.0000
# 3 17.9923 40.0772 97.5854 0.0000 -4.4448 0.0000
# 4 0.0000 0.0000 0.0000 26.8096 0.0000 6.1042
# 5 3.4661 -3.4924 -4.4448 0.0000 19.7850 0.0000
# 6 0.0000 0.0000 0.0000 6.1042 0.0000 22.0984
#
#
#
# Elastic Compliance Matrix: (Units=1/GPa)
#
#
# Indices 1 2 3 4 5 6 
#
# 1 0.028914 0.001132 -0.006080 0.000000 -0.006231 0.000000
# 2 0.001132 0.012033 -0.005115 0.000000 0.000777 0.000000
# 3 -0.006080 -0.005115 0.013616 0.000000 0.003221 0.000000
# 4 0.000000 0.000000 0.000000 0.039803 0.000000 -0.010995
# 5 -0.006231 0.000777 0.003221 0.000000 0.052496 0.000000
# 6 0.000000 0.000000 0.000000 -0.010995 0.000000 0.048289
#
#
# Mechanical properties :
#
#
# Convention : Reuss Voigt Hill
#
# Bulk Modulus (GPa) = 29.03865 40.02490 34.53178
# Shear Modulus (GPa) = 22.05024 25.38798 23.71911
#
# Velocity S-wave (km/s) = 3.23591 3.47219 3.35613
# Velocity P-wave (km/s) = 5.26794 5.92297 5.60503
#
# Compressibility (1/GPa) = 0.03443686
#
# Stress axis : x y z
#
# Youngs Moduli (GPa) = 34.58575 83.10582 73.44407
#
# Poissons Ratio (x) = -0.09408 0.44652
# Poissons Ratio (y) = -0.03915 0.37567
# Poissons Ratio (z) = 0.21027 0.42510
#
# Static dielectric constant tensor:
#      x y z
#    x 1.785660 0.000000 -0.012580 
#    y 0.000000 1.816250 0.000000 
#    z -0.012580 0.000000 1.971320 
# 
# From -- ./inp_files/176641.got.cif
#   From: 2010.05.17/outbox.cif.g08.bks.cpg/sg15_89_cif.got.tgz:176641.got - 2010.06.03 18:47:42.
