data_PCOD9262978
_publ_section_title
;
Structure prediction by ZEFSAII (Michael W. Deem and Ramdas Pophale) SiO2 
 PCOD9262978
Probable space group: C 2/C
;
_chemical_formula_sum "Si O2"
_cell_formula_units_Z 40
_cell_length_a 18.438319
_cell_length_b 5.337238
_cell_length_c 20.862590
_cell_angle_alpha 90.000000
_cell_angle_beta 124.394742
_cell_angle_gamma 90.000000
_cell_volume 1694.131414
_symmetry_space_group_name_H-M "C 2/C"
_symmetry_group_IT_number 15
_symmetry_cell_setting 'monoclinic'
loop_
_space_group_symop_operation_xyz
x,y,z
-x,y,1/2-z
-x,-y,-z
x,-y,1/2+z
1/2+x,1/2+y,z
1/2-x,1/2+y,1/2-z
1/2-x,1/2-y,-z
1/2+x,1/2-y,1/2+z
loop_
_atom_site_type_symbol
_atom_site_label
_atom_site_fract_x
_atom_site_fract_y
_atom_site_fract_z
Si Si1 0.804975 0.000167 0.015427
Si Si2 0.606975 0.300351 0.565249
Si Si3 0.576128 0.795862 0.601068
Si Si4 0.086452 0.524451 0.248135
Si Si5 0.895346 0.018882 0.190260
O O1 0.878699 0.021680 0.106571
O O2 0.750000 0.750000 0.000000
O O3 0.843245 0.954830 0.964735
O O4 0.750000 0.250000 0.000000
O O5 0.607624 0.506863 0.622408
O O6 0.510866 0.245877 0.485796
O O7 0.634913 0.017116 0.597816
O O8 0.557793 0.916740 0.661440
O O9 0.135274 0.265871 0.287776
O O10 0.000000 0.509976 0.250000
O O11 0.141982 0.762475 0.299555
O O12 0.000000 0.005751 0.250000
#
# Coordination Sequence:
#
# PCOD9262978 Si02
#       5
#     8   8   8   8   8
#     4  12  25  42  65  93 130 169 209 262 326 394
#     4  10  21  37  59  90 127 164 207 256 320 376
#     4  10  20  35  61  93 123 159 208 270 311 361
#     4  10  19  33  58  90 121 150 199 259 314 364
#     4  10  21  37  62  90 119 157 210 263 306 366
#
# _framework density 23.610918999999999
#
# number of rings (size 3 to 8) (size 9 to 14) (size 15 to 20)
#    0.000    1.600    0.000    6.000    0.000    9.600 
#    0.000    0.000    0.000   24.000    0.000    0.000 
#    0.000    0.000    0.000    0.000    0.000    0.000 
#
# Total GULP energy -111567.914483 kJ/mol
# GULP energy per Si atom -5578.395724 kJ/mol
# Density = 2.355718 g / cm^3
# Si number density = 23.610919 Si / 1000 Ang^3
#
#
#
# Elastic Constant Matrix: (Units=GPa)
#
#
# Indices 1 2 3 4 5 6 
#
# 1 36.7317 38.8867 17.1862 0.0000 -2.6206 0.0002
# 2 38.8867 223.4814 19.3795 0.0000 -19.3674 0.0009
# 3 17.1862 19.3795 95.9302 0.0000 -9.9050 0.0000
# 4 0.0000 0.0000 0.0000 37.8349 0.0000 -7.5853
# 5 -2.6206 -19.3674 -9.9050 0.0000 21.3048 0.0000
# 6 0.0002 0.0009 0.0000 -7.5853 0.0000 26.5965
#
#
#
# Elastic Compliance Matrix: (Units=1/GPa)
#
#
# Indices 1 2 3 4 5 6 
#
# 1 0.036051 -0.006110 -0.005609 0.000000 -0.003728 0.000000
# 2 -0.006110 0.005921 0.000396 0.000000 0.004815 0.000000
# 3 -0.005609 0.000396 0.011886 0.000000 0.005196 0.000000
# 4 0.000000 0.000000 0.000000 0.028034 0.000000 0.007995
# 5 -0.003728 0.004815 0.005196 0.000000 0.053272 0.000000
# 6 0.000000 0.000000 0.000000 0.007995 0.000000 0.039879
#
#
# Mechanical properties :
#
#
# Convention : Reuss Voigt Hill
#
# Bulk Modulus (GPa) = 32.04013 56.33869 44.18941
# Shear Modulus (GPa) = 24.02781 35.85997 29.94389
#
# Velocity S-wave (km/s) = 3.19353 3.90139 3.56507
# Velocity P-wave (km/s) = 5.21514 6.64888 5.97517
#
# Compressibility (1/GPa) = 0.03121086
#
# Stress axis : x y z
#
# Youngs Moduli (GPa) = 27.73833 168.89885 84.13466
#
# Poissons Ratio (x) = 1.03192 0.47194
# Poissons Ratio (y) = 0.16947 -0.03329
# Poissons Ratio (z) = 0.15559 -0.06682
#
# Static dielectric constant tensor:
#      x y z
#    x 1.913620 0.000000 -0.068780 
#    y 0.000000 2.063960 0.000000 
#    z -0.068780 0.000000 1.863150 
# 
# From -- ./inp_files/217635.got.cif
#   From: 2010.05.17/outbox.cif.g08.bks.cpg/sg15_109_cif.got.tgz:217635.got - 2010.06.03 18:47:42.
