data_PCOD9262480
_publ_section_title
;
Structure prediction by ZEFSAII (Michael W. Deem and Ramdas Pophale) SiO2 
 PCOD9262480
Probable space group: C 2/C
;
_chemical_formula_sum "Si O2"
_cell_formula_units_Z 36
_cell_length_a 8.602110
_cell_length_b 30.308790
_cell_length_c 7.501727
_cell_angle_alpha 90.000000
_cell_angle_beta 116.032863
_cell_angle_gamma 90.000000
_cell_volume 1757.411450
_symmetry_space_group_name_H-M "C 2/C"
_symmetry_group_IT_number 15
_symmetry_cell_setting 'monoclinic'
loop_
_space_group_symop_operation_xyz
x,y,z
-x,y,1/2-z
-x,-y,-z
x,-y,1/2+z
1/2+x,1/2+y,z
1/2-x,1/2+y,1/2-z
1/2-x,1/2-y,-z
1/2+x,1/2-y,1/2+z
loop_
_atom_site_type_symbol
_atom_site_label
_atom_site_fract_x
_atom_site_fract_y
_atom_site_fract_z
Si Si1 0.812792 0.067053 0.160850
Si Si2 0.816368 0.477280 0.562130
Si Si3 0.500000 0.258210 0.250000
Si Si4 0.467001 0.106542 0.018436
Si Si5 0.133638 0.298970 0.150831
O O1 0.792038 0.050455 0.352420
O O2 0.657910 0.099530 0.035253
O O3 0.000000 0.087554 0.250000
O O4 0.782254 0.020970 0.042875
O O5 0.000000 0.488085 0.750000
O O6 0.868403 0.440211 0.443018
O O7 0.336824 0.285111 0.252269
O O8 0.563139 0.227497 0.443771
O O9 0.500000 0.111570 0.250000
O O10 0.377265 0.149025 0.896215
O O11 0.000000 0.290107 0.250000
#
# Coordination Sequence:
#
# PCOD9262480 Si02
#       5
#     8   8   4   8   8
#     4  10  19  33  52  82 112 157 200 244 295 343
#     4   9  18  33  54  72 115 160 193 244 299 339
#     4  10  24  44  68  92 134 146 208 260 300 372
#     4   9  19  37  55  79 122 157 192 254 300 350
#     4  11  22  43  68  96 120 168 198 248 317 370
#
# _framework density 20.484673999999998
#
# number of rings (size 3 to 8) (size 9 to 14) (size 15 to 20)
#    0.000    2.667    1.111    4.000    0.000    2.667 
#   10.000    1.111    0.000    0.000    0.000    0.000 
#    0.000    0.000    0.000    0.000    0.000    0.000 
#
# Total GULP energy -100273.952029 kJ/mol
# GULP energy per Si atom -5570.775113 kJ/mol
# Density = 2.043805 g / cm^3
# Si number density = 20.484674 Si / 1000 Ang^3
#
#
#
# Elastic Constant Matrix: (Units=GPa)
#
#
# Indices 1 2 3 4 5 6 
#
# 1 67.8430 1.0930 21.2763 0.0000 -2.7851 0.0000
# 2 1.0930 82.5929 25.4498 0.0000 9.6063 0.0000
# 3 21.2763 25.4498 35.4891 0.0000 -4.8214 0.0000
# 4 0.0000 0.0000 0.0000 26.2520 0.0000 5.9392
# 5 -2.7851 9.6063 -4.8214 0.0000 32.3407 0.0000
# 6 0.0000 0.0000 0.0000 5.9392 0.0000 -33.7569
#
#
#
# Elastic Compliance Matrix: (Units=1/GPa)
#
#
# Indices 1 2 3 4 5 6 
#
# 1 0.019356 0.004665 -0.015219 0.000000 -0.001988 0.000000
# 2 0.004665 0.018086 -0.016781 0.000000 -0.007472 0.000000
# 3 -0.015219 -0.016781 0.050865 0.000000 0.011257 0.000000
# 4 0.000000 0.000000 0.000000 0.036634 0.000000 0.006445
# 5 -0.001988 -0.007472 0.011257 0.000000 0.034647 0.000000
# 6 0.000000 0.000000 0.000000 0.006445 0.000000 -0.028490
#
#
# Mechanical properties :
#
#
# Convention : Reuss Voigt Hill
#
# Bulk Modulus (GPa) = 29.73073 31.28479 30.50776
# Shear Modulus (GPa) = 25.38286 14.17424 19.77855
#
# Velocity S-wave (km/s) = 3.52392 2.63334 3.11067
# Velocity P-wave (km/s) = 5.57697 4.95494 5.27513
#
# Compressibility (1/GPa) = 0.03363524
#
# Stress axis : x y z
#
# Youngs Moduli (GPa) = 51.66321 55.29179 19.65970
#
# Poissons Ratio (x) = -0.25792 0.29921
# Poissons Ratio (y) = -0.24099 0.32992
# Poissons Ratio (z) = 0.78629 0.92787
#
# Static dielectric constant tensor:
#      x y z
#    x 1.829870 0.000000 -0.039810 
#    y 0.000000 1.699680 0.000000 
#    z -0.039810 0.000000 1.773780 
# 
# From -- ./inp_files/25156.got.cif
#   From: 2010.05.17/outbox.cif.g08.bks.cpg/sg15_13_cif.got.tgz:25156.got - 2010.06.03 18:47:42.
