data_PCOD9262505
_publ_section_title
;
Structure prediction by ZEFSAII (Michael W. Deem and Ramdas Pophale) SiO2 
 PCOD9262505
Probable space group: C 2/C
;
_chemical_formula_sum "Si O2"
_cell_formula_units_Z 56
_cell_length_a 19.392065
_cell_length_b 18.405719
_cell_length_c 14.424282
_cell_angle_alpha 90.000000
_cell_angle_beta 41.941758
_cell_angle_gamma 90.000000
_cell_volume 3441.051284
_symmetry_space_group_name_H-M "C 2/C"
_symmetry_group_IT_number 15
_symmetry_cell_setting 'monoclinic'
loop_
_space_group_symop_operation_xyz
x,y,z
-x,y,1/2-z
-x,-y,-z
x,-y,1/2+z
1/2+x,1/2+y,z
1/2-x,1/2+y,1/2-z
1/2-x,1/2-y,-z
1/2+x,1/2-y,1/2+z
loop_
_atom_site_type_symbol
_atom_site_label
_atom_site_fract_x
_atom_site_fract_y
_atom_site_fract_z
Si Si1 0.750000 0.250000 0.659392
Si Si2 0.117846 0.824107 0.632154
Si Si3 0.313388 0.983828 0.041478
Si Si4 0.881538 0.001242 0.368462
Si Si5 0.186612 0.483828 0.668254
Si Si6 0.878009 0.381678 0.603368
Si Si7 0.378009 0.118322 0.640614
O O1 0.825294 0.206048 0.515213
O O2 0.674706 0.293952 0.665801
O O3 0.815053 0.307930 0.652643
O O4 0.684947 0.192070 0.782749
O O5 0.120099 0.911258 0.629902
O O6 0.000000 0.799098 0.750000
O O7 0.354262 0.920838 0.066805
O O8 0.189678 0.977971 0.147696
O O9 0.341852 0.059662 0.062021
O O10 0.356264 0.981898 0.893736
O O11 0.810322 0.977972 0.527051
O O12 0.000000 0.976666 0.250000
O O13 0.145739 0.420838 0.775329
O O14 0.158148 0.559662 0.745725
O O15 0.000000 0.370031 0.471738
#
# Coordination Sequence:
#
# PCOD9262505 Si02
#       7
#     8   8   8   8   8   8   8
#     4  11  20  36  49  82 112 140 183 224 261 330
#     4  10  19  33  53  76 111 146 170 216 281 325
#     4   9  19  38  57  81 110 139 183 227 262 321
#     4   9  17  35  57  80 107 139 176 218 271 322
#     4   9  19  38  57  81 110 139 183 227 262 321
#     4  11  22  35  56  84 110 141 182 225 271 321
#     4  11  22  35  56  84 110 141 182 225 271 321
#
# _framework density 16.274097000000001
#
# number of rings (size 3 to 8) (size 9 to 14) (size 15 to 20)
#    0.857    1.143    2.857    2.571    2.000    2.286 
#    0.000    6.429    0.000    0.000    0.000    0.000 
#    0.000    0.000    0.000    0.000    0.000    0.000 
#
# Total GULP energy -155967.293016 kJ/mol
# GULP energy per Si atom -5570.260465 kJ/mol
# Density = 1.623706 g / cm^3
# Si number density = 16.274097 Si / 1000 Ang^3
#
#
#
# Elastic Constant Matrix: (Units=GPa)
#
#
# Indices 1 2 3 4 5 6 
#
# 1 97.2270 40.7231 57.2733 0.0000 -2.7323 0.0000
# 2 40.7231 79.7828 40.7006 0.0000 0.0393 0.0000
# 3 57.2733 40.7006 107.3421 0.0000 -15.4628 0.0000
# 4 0.0000 0.0000 0.0000 12.4963 0.0000 -11.6006
# 5 -2.7323 0.0393 -15.4628 0.0000 43.6319 0.0000
# 6 0.0000 0.0000 0.0000 -11.6006 0.0000 6.0459
#
#
#
# Elastic Compliance Matrix: (Units=1/GPa)
#
#
# Indices 1 2 3 4 5 6 
#
# 1 0.016473 -0.004726 -0.007217 0.000000 -0.001522 0.000000
# 2 -0.004726 0.017102 -0.004223 0.000000 -0.001808 0.000000
# 3 -0.007217 -0.004223 0.015494 0.000000 0.005043 0.000000
# 4 0.000000 0.000000 0.000000 -0.102435 0.000000 -0.196546
# 5 -0.001522 -0.001808 0.005043 0.000000 0.024613 0.000000
# 6 0.000000 0.000000 0.000000 -0.196546 0.000000 -0.211722
#
#
# Mechanical properties :
#
#
# Convention : Reuss Voigt Hill
#
# Bulk Modulus (GPa) = 59.74692 62.41621 61.08157
# Shear Modulus (GPa) = -24.68348 22.14514 -1.26917
#
# Velocity S-wave (km/s) = -3.89875 3.69285 -0.88406
# Velocity P-wave (km/s) = 4.06517 7.52457 6.04751
#
# Compressibility (1/GPa) = 0.01673726
#
# Stress axis : x y z
#
# Youngs Moduli (GPa) = 60.70565 58.47399 64.54016
#
# Poissons Ratio (x) = 0.27635 0.46576
# Poissons Ratio (y) = 0.28689 0.27257
# Poissons Ratio (z) = 0.43809 0.24695
#
# Static dielectric constant tensor:
#      x y z
#    x 1.543430 0.000000 -0.015080 
#    y 0.000000 1.522860 0.000000 
#    z -0.015080 0.000000 1.551820 
# 
# From -- ./inp_files/163057.got.cif
#   From: 2010.05.17/outbox.cif.g08.bks.cpg/sg15_82_cif.got.tgz:163057.got - 2010.06.03 18:47:42.
