data_PCOD9262407
_publ_section_title
;
Structure prediction by ZEFSAII (Michael W. Deem and Ramdas Pophale) SiO2 
 PCOD9262407
Probable space group: C 2/C
;
_chemical_formula_sum "Si O2"
_cell_formula_units_Z 52
_cell_length_a 23.138416
_cell_length_b 21.736319
_cell_length_c 20.019107
_cell_angle_alpha 90.000000
_cell_angle_beta 160.647621
_cell_angle_gamma 90.000000
_cell_volume 3336.466516
_symmetry_space_group_name_H-M "C 2/C"
_symmetry_group_IT_number 15
_symmetry_cell_setting 'monoclinic'
loop_
_space_group_symop_operation_xyz
x,y,z
-x,y,1/2-z
-x,-y,-z
x,-y,1/2+z
1/2+x,1/2+y,z
1/2-x,1/2+y,1/2-z
1/2-x,1/2-y,-z
1/2+x,1/2-y,1/2+z
loop_
_atom_site_type_symbol
_atom_site_label
_atom_site_fract_x
_atom_site_fract_y
_atom_site_fract_z
Si Si1 0.198075 0.387690 0.951313
Si Si2 0.102670 0.187095 0.715530
Si Si3 0.898759 0.009159 0.000394
Si Si4 0.337786 0.425086 0.296827
Si Si5 0.000000 0.987290 0.250000
Si Si6 0.039450 0.549998 0.100560
Si Si7 0.196764 0.672037 0.304947
O O1 0.180755 0.351295 0.863170
O O2 0.000000 0.408861 0.750000
O O3 0.276937 0.341497 0.093789
O O4 0.339033 0.441649 0.093235
O O5 0.149922 0.146762 0.702700
O O6 0.127683 0.258701 0.729161
O O7 0.901336 0.174022 0.512082
O O8 0.975468 0.026609 0.155697
O O9 0.866182 0.057698 0.905384
O O10 0.021564 0.959452 0.096443
O O11 0.716539 0.977614 0.822559
O O12 0.145373 0.446709 0.064174
O O13 0.094796 0.621331 0.148603
O O14 0.000000 0.500000 0.000000
#
# Coordination Sequence:
#
# PCOD9262407 Si02
#       7
#     8   8   8   8   4   8   8
#     4  12  21  33  48  70 103 142 175 204 244 293
#     4  12  22  35  50  72 105 136 176 211 246 305
#     4  10  20  33  52  70 100 130 175 210 253 297
#     4  10  19  34  51  72  93 138 169 214 252 293
#     4  12  20  34  50  74 102 138 176 210 250 306
#     4  10  19  33  51  71  98 132 169 208 251 293
#     4  12  22  35  48  75 104 137 174 210 247 299
#
# _framework density 15.585350999999999
#
# number of rings (size 3 to 8) (size 9 to 14) (size 15 to 20)
#    0.000    0.923    6.154    3.231    0.000    0.000 
#    0.000    0.000    0.000    0.000    0.000    0.000 
#    0.000   11.077    0.000    0.000    0.000    0.308 
#
# Total GULP energy -144743.252661 kJ/mol
# GULP energy per Si atom -5567.048179 kJ/mol
# Density = 1.554988 g / cm^3
# Si number density = 15.585351 Si / 1000 Ang^3
#
#
#
# Elastic Constant Matrix: (Units=GPa)
#
#
# Indices 1 2 3 4 5 6 
#
# 1 72.0463 40.8223 38.2809 -0.0001 -13.5302 0.0001
# 2 40.8223 72.3941 31.4464 0.0005 -7.9114 -0.0004
# 3 38.2809 31.4464 91.5704 -0.0005 15.7148 0.0002
# 4 -0.0001 0.0005 -0.0005 21.5328 -0.0004 -2.4723
# 5 -13.5302 -7.9114 15.7148 -0.0004 30.1268 0.0002
# 6 0.0001 -0.0004 0.0002 -2.4723 0.0002 22.0723
#
#
#
# Elastic Compliance Matrix: (Units=1/GPa)
#
#
# Indices 1 2 3 4 5 6 
#
# 1 0.028179 -0.009160 -0.011415 0.000000 0.016204 0.000000
# 2 -0.009160 0.021114 -0.004027 0.000000 0.003531 0.000000
# 3 -0.011415 -0.004027 0.019920 0.000000 -0.016575 0.000000
# 4 0.000000 0.000000 0.000000 0.047046 0.000001 0.005270
# 5 0.016204 0.003531 -0.016575 0.000001 0.050044 0.000000
# 6 0.000000 0.000000 0.000000 0.005270 0.000000 0.045896
#
#
# Mechanical properties :
#
#
# Convention : Reuss Voigt Hill
#
# Bulk Modulus (GPa) = 49.98206 50.78999 50.38602
# Shear Modulus (GPa) = 18.65158 23.11047 20.88103
#
# Velocity S-wave (km/s) = 3.46314 3.85493 3.66428
# Velocity P-wave (km/s) = 6.93763 7.24383 7.09238
#
# Compressibility (1/GPa) = 0.02000718
#
# Stress axis : x y z
#
# Youngs Moduli (GPa) = 35.48762 47.36188 50.20007
#
# Poissons Ratio (x) = 0.43385 0.57305
# Poissons Ratio (y) = 0.32508 0.20217
# Poissons Ratio (z) = 0.40510 0.19074
#
# Static dielectric constant tensor:
#      x y z
#    x 1.534150 0.000000 0.010160 
#    y 0.000000 1.520600 0.000000 
#    z 0.010160 0.000000 1.587720 
# 
# From -- ./inp_files/216830.got.cif
#   From: 2010.05.17/outbox.cif.g08.bks.cpg/sg15_109_cif.got.tgz:216830.got - 2010.06.03 18:47:42.
