data_PCOD9262777
_publ_section_title
;
Structure prediction by ZEFSAII (Michael W. Deem and Ramdas Pophale) SiO2 
 PCOD9262777
Probable space group: C 2/C
;
_chemical_formula_sum "Si O2"
_cell_formula_units_Z 56
_cell_length_a 20.032323
_cell_length_b 15.468277
_cell_length_c 22.882231
_cell_angle_alpha 90.000000
_cell_angle_beta 159.881598
_cell_angle_gamma 90.000000
_cell_volume 2438.828102
_symmetry_space_group_name_H-M "C 2/C"
_symmetry_group_IT_number 15
_symmetry_cell_setting 'monoclinic'
loop_
_space_group_symop_operation_xyz
x,y,z
-x,y,1/2-z
-x,-y,-z
x,-y,1/2+z
1/2+x,1/2+y,z
1/2-x,1/2+y,1/2-z
1/2-x,1/2-y,-z
1/2+x,1/2-y,1/2+z
loop_
_atom_site_type_symbol
_atom_site_label
_atom_site_fract_x
_atom_site_fract_y
_atom_site_fract_z
Si Si1 0.200222 0.857473 0.525167
Si Si2 0.201725 0.859514 0.233267
Si Si3 0.967430 0.216951 0.439719
Si Si4 0.370492 0.538657 0.340396
Si Si5 0.000000 0.782918 0.250000
Si Si6 0.250041 0.238381 0.570812
Si Si7 0.000000 0.886066 0.750000
Si Si8 0.213287 0.951602 0.030811
O O1 0.353979 0.781957 0.664134
O O2 0.002693 0.855197 0.400568
O O3 0.125399 0.839444 0.397757
O O4 0.293654 0.952922 0.608290
O O5 0.366692 0.795375 0.389925
O O6 0.270067 0.958845 0.287547
O O7 0.145074 0.822165 0.122955
O O8 0.816757 0.136620 0.310860
O O9 0.058613 0.245441 0.452903
O O10 0.500000 0.500000 0.500000
O O11 0.514470 0.548525 0.404269
O O12 0.250000 0.250000 0.500000
O O13 0.382413 0.320478 0.695670
O O14 0.317270 0.138156 0.634472
O O15 0.851205 0.940811 0.589376
#
# Coordination Sequence:
#
# PCOD9262777 Si02
#       8
#     8   8   8   8   4   8   4   8
#     4  10  20  37  58  84 111 146 189 233 289 337
#     4  10  20  35  58  78 111 145 185 228 278 337
#     4  10  20  34  58  79 109 149 187 227 283 328
#     4   8  17  34  52  75 104 145 183 221 276 337
#     4  10  21  35  60  82 112 140 188 239 283 342
#     4   9  20  33  52  79 110 146 188 228 276 338
#     4  10  19  33  56  78 116 146 186 241 283 336
#     4   9  18  33  54  77 109 148 183 229 286 334
#
# _framework density 22.961848
#
# number of rings (size 3 to 8) (size 9 to 14) (size 15 to 20)
#    0.000    2.571    0.000    1.286    6.000    0.571 
#    0.000    0.714   25.143    0.000    0.000    0.000 
#    0.000    0.000    0.000    0.000    0.000    0.000 
#
# Total GULP energy -155972.394553 kJ/mol
# GULP energy per Si atom -5570.442663 kJ/mol
# Density = 2.290959 g / cm^3
# Si number density = 22.961848 Si / 1000 Ang^3
#
#
#
# Elastic Constant Matrix: (Units=GPa)
#
#
# Indices 1 2 3 4 5 6 
#
# 1 74.6569 15.0723 7.3509 -0.0041 5.5096 -0.0031
# 2 15.0723 149.1470 9.6662 0.0501 22.6523 0.0256
# 3 7.3509 9.6662 27.5150 0.0057 12.2263 0.0059
# 4 -0.0041 0.0501 0.0057 19.9616 0.0069 2.0965
# 5 5.5096 22.6523 12.2263 0.0069 24.0976 0.0066
# 6 -0.0031 0.0256 0.0059 2.0965 0.0066 29.0392
#
#
#
# Elastic Compliance Matrix: (Units=1/GPa)
#
#
# Indices 1 2 3 4 5 6 
#
# 1 0.013967 -0.001125 -0.003082 0.000006 -0.000572 0.000003
# 2 -0.001125 0.007922 0.000919 -0.000017 -0.007656 -0.000004
# 3 -0.003082 0.000919 0.047660 -0.000008 -0.024341 -0.000005
# 4 0.000006 -0.000017 -0.000008 0.050479 0.000005 -0.003644
# 5 -0.000572 -0.007656 -0.024341 0.000005 0.061175 -0.000003
# 6 0.000003 -0.000004 -0.000005 -0.003644 -0.000003 0.034699
#
#
# Mechanical properties :
#
#
# Convention : Reuss Voigt Hill
#
# Bulk Modulus (GPa) = 15.87952 35.05530 25.46741
# Shear Modulus (GPa) = 20.53655 29.23499 24.88577
#
# Velocity S-wave (km/s) = 2.99386 3.57206 3.29566
# Velocity P-wave (km/s) = 4.34529 5.68443 5.05936
#
# Compressibility (1/GPa) = 0.06297419
#
# Stress axis : x y z
#
# Youngs Moduli (GPa) = 71.59529 126.23641 20.98200
#
# Poissons Ratio (x) = 0.14199 0.06467
# Poissons Ratio (y) = 0.08053 -0.01929
# Poissons Ratio (z) = 0.22066 -0.11607
#
# Static dielectric constant tensor:
#      x y z
#    x 1.878410 -0.000010 -0.036360 
#    y -0.000010 1.942160 -0.000030 
#    z -0.036360 -0.000030 1.991200 
# 
# From -- ./inp_files/302323.got.cif
#   From: 2010.05.17/outbox.cif.g08.bks.cpg/sg15_152_cif.got.tgz:302323.got - 2010.06.03 18:47:42.
