data_PCOD9262661
_publ_section_title
;
Structure prediction by ZEFSAII (Michael W. Deem and Ramdas Pophale) SiO2 
 PCOD9262661
Probable space group: C 2/C
;
_chemical_formula_sum "Si O2"
_cell_formula_units_Z 48
_cell_length_a 14.667469
_cell_length_b 13.869799
_cell_length_c 14.213514
_cell_angle_alpha 90.000000
_cell_angle_beta 102.154859
_cell_angle_gamma 90.000000
_cell_volume 2826.702104
_symmetry_space_group_name_H-M "C 2/C"
_symmetry_group_IT_number 15
_symmetry_cell_setting 'monoclinic'
loop_
_space_group_symop_operation_xyz
x,y,z
-x,y,1/2-z
-x,-y,-z
x,-y,1/2+z
1/2+x,1/2+y,z
1/2-x,1/2+y,1/2-z
1/2-x,1/2-y,-z
1/2+x,1/2-y,1/2+z
loop_
_atom_site_type_symbol
_atom_site_label
_atom_site_fract_x
_atom_site_fract_y
_atom_site_fract_z
Si Si1 0.770675 0.373917 0.760079
Si Si2 0.299405 0.549671 0.656477
Si Si3 0.406052 0.292508 0.288944
Si Si4 0.010950 0.884286 0.009182
Si Si5 0.793047 0.848278 0.968280
Si Si6 0.909911 0.134071 0.171614
O O1 0.771823 0.482983 0.800672
O O2 0.861472 0.311254 0.798863
O O3 0.745191 0.372016 0.643912
O O4 0.684147 0.327315 0.800510
O O5 0.329175 0.647433 0.713535
O O6 0.271414 0.571620 0.543437
O O7 0.391397 0.481512 0.675147
O O8 0.500000 0.282174 0.250000
O O9 0.433905 0.352467 0.386730
O O10 0.068154 0.846762 0.931582
O O11 0.905665 0.843112 0.987206
O O12 0.000000 0.000000 0.000000
O O13 0.750000 0.750000 0.000000
O O14 0.000000 0.161417 0.250000
#
# Coordination Sequence:
#
# PCOD9262661 Si02
#       6
#     8   8   8   8   8   8
#     4  10  23  36  55  90 124 148 194 251 296 350
#     4  10  21  34  56  87 116 150 194 245 301 336
#     4  12  21  37  60  89 115 154 201 246 289 349
#     4  12  19  33  60  85 115 150 194 247 298 348
#     4  12  20  35  58  88 115 156 199 240 289 358
#     4  10  19  33  54  85 120 151 185 241 302 336
#
# _framework density 16.980917999999999
#
# number of rings (size 3 to 8) (size 9 to 14) (size 15 to 20)
#    1.000    0.000    6.667    2.500    0.000    0.667 
#    0.000    0.000    0.000    7.000    0.000    0.000 
#    0.000    0.000    0.000    0.000    0.000    0.000 
#
# Total GULP energy -133688.208516 kJ/mol
# GULP energy per Si atom -5570.342021 kJ/mol
# Density = 1.694227 g / cm^3
# Si number density = 16.980918 Si / 1000 Ang^3
#
#
#
# Elastic Constant Matrix: (Units=GPa)
#
#
# Indices 1 2 3 4 5 6 
#
# 1 62.9161 43.3901 42.4437 0.0000 -19.1116 0.0000
# 2 43.3901 61.2762 26.6318 0.0000 -6.9625 0.0000
# 3 42.4437 26.6318 126.5539 0.0000 -23.9852 0.0000
# 4 0.0000 0.0000 0.0000 19.1067 0.0000 -8.2046
# 5 -19.1116 -6.9625 -23.9852 0.0000 28.3450 0.0000
# 6 0.0000 0.0000 0.0000 -8.2046 0.0000 30.4518
#
#
#
# Elastic Compliance Matrix: (Units=1/GPa)
#
#
# Indices 1 2 3 4 5 6 
#
# 1 0.043032 -0.026019 -0.005561 0.000000 0.017918 0.000000
# 2 -0.026019 0.033744 -0.000153 0.000000 -0.009384 0.000000
# 3 -0.005561 -0.000153 0.010816 0.000000 0.005365 0.000000
# 4 0.000000 0.000000 0.000000 0.059185 0.000000 0.015946
# 5 0.017918 -0.009384 0.005365 0.000000 0.049595 0.000000
# 6 0.000000 0.000000 0.000000 0.015946 0.000000 0.037135
#
#
# Mechanical properties :
#
#
# Convention : Reuss Voigt Hill
#
# Bulk Modulus (GPa) = 41.44904 52.85305 47.15104
# Shear Modulus (GPa) = 16.39262 24.79942 20.59602
#
# Velocity S-wave (km/s) = 3.11039 3.82570 3.48644
# Velocity P-wave (km/s) = 6.11241 7.12090 6.63584
#
# Compressibility (1/GPa) = 0.02412601
#
# Stress axis : x y z
#
# Youngs Moduli (GPa) = 23.23847 29.63500 92.45622
#
# Poissons Ratio (x) = 0.77106 0.51415
# Poissons Ratio (y) = 0.60463 0.01419
# Poissons Ratio (z) = 0.12923 0.00455
#
# Static dielectric constant tensor:
#      x y z
#    x 1.572880 0.000000 -0.030640 
#    y 0.000000 1.575590 0.000000 
#    z -0.030640 0.000000 1.601470 
# 
# From -- ./inp_files/143821.got.cif
#   From: 2010.05.17/outbox.cif.g08.bks.cpg/sg15_72_cif.got.tgz:143821.got - 2010.06.03 18:47:42.
