data_PCOD9262912
_publ_section_title
;
Structure prediction by ZEFSAII (Michael W. Deem and Ramdas Pophale) SiO2 
 PCOD9262912
Probable space group: C 2/C
;
_chemical_formula_sum "Si O2"
_cell_formula_units_Z 56
_cell_length_a 17.475506
_cell_length_b 8.085047
_cell_length_c 18.934028
_cell_angle_alpha 90.000000
_cell_angle_beta 115.034481
_cell_angle_gamma 90.000000
_cell_volume 2423.868553
_symmetry_space_group_name_H-M "C 2/C"
_symmetry_group_IT_number 15
_symmetry_cell_setting 'monoclinic'
loop_
_space_group_symop_operation_xyz
x,y,z
-x,y,1/2-z
-x,-y,-z
x,-y,1/2+z
1/2+x,1/2+y,z
1/2-x,1/2+y,1/2-z
1/2-x,1/2-y,-z
1/2+x,1/2-y,1/2+z
loop_
_atom_site_type_symbol
_atom_site_label
_atom_site_fract_x
_atom_site_fract_y
_atom_site_fract_z
Si Si1 0.812259 0.313665 0.132132
Si Si2 0.784855 0.374850 0.453763
Si Si3 0.769224 0.980996 0.706736
Si Si4 0.913131 0.633551 0.197938
Si Si5 0.442786 0.709663 0.557087
Si Si6 0.336787 0.384138 0.515857
Si Si7 0.372821 0.720541 0.827102
O O1 0.823812 0.169140 0.194226
O O2 0.842367 0.494679 0.164547
O O3 0.863917 0.255882 0.081926
O O4 0.711854 0.327339 0.073202
O O5 0.750000 0.250000 0.500000
O O6 0.748855 0.379847 0.360463
O O7 0.884574 0.336478 0.489365
O O8 0.742435 0.537531 0.470566
O O9 0.680705 0.887862 0.684159
O O10 0.811646 0.062887 0.791444
O O11 0.920367 0.731806 0.127828
O O12 0.906258 0.760135 0.259520
O O13 0.000000 0.538943 0.250000
O O14 0.405158 0.526168 0.530917
O O15 0.544111 0.711253 0.591663
#
# Coordination Sequence:
#
# PCOD9262912 Si02
#       7
#     8   8   8   8   8   8   8
#     4  10  19  33  57  88 115 151 196 242 299 355
#     4   9  17  35  64  92 114 151 196 250 301 348
#     4  11  24  40  61  82 121 167 204 241 302 370
#     4  10  20  34  59  89 119 153 200 253 299 356
#     4  10  20  37  62  90 118 151 203 255 304 350
#     4   9  18  32  58  90 117 148 187 251 305 349
#     4  11  24  41  57  83 119 165 203 242 304 372
#
# _framework density 23.103563000000001
#
# number of rings (size 3 to 8) (size 9 to 14) (size 15 to 20)
#    0.000    2.000    1.429    3.429    2.000    1.714 
#    0.000    0.714    0.000    0.000    0.000    0.000 
#    0.000    0.000    0.000    0.000    0.000    0.000 
#
# Total GULP energy -156024.536003 kJ/mol
# GULP energy per Si atom -5572.304857 kJ/mol
# Density = 2.305098 g / cm^3
# Si number density = 23.103563 Si / 1000 Ang^3
#
#
#
# Elastic Constant Matrix: (Units=GPa)
#
#
# Indices 1 2 3 4 5 6 
#
# 1 70.3586 18.2100 23.3275 0.0000 34.1840 0.0000
# 2 18.2100 78.5175 27.1074 0.0000 15.0578 0.0000
# 3 23.3275 27.1074 83.7342 0.0000 21.9949 0.0000
# 4 0.0000 0.0000 0.0000 35.3837 0.0000 -3.4643
# 5 34.1840 15.0578 21.9949 0.0000 43.5101 0.0000
# 6 0.0000 0.0000 0.0000 -3.4643 0.0000 25.8525
#
#
#
# Elastic Compliance Matrix: (Units=1/GPa)
#
#
# Indices 1 2 3 4 5 6 
#
# 1 0.023438 -0.001638 -0.001512 0.000000 -0.017083 0.000000
# 2 -0.001638 0.014805 -0.003838 0.000000 -0.001897 0.000000
# 3 -0.001512 -0.003838 0.014928 0.000000 -0.005030 0.000000
# 4 0.000000 0.000000 0.000000 0.028637 0.000000 0.003837
# 5 -0.017083 -0.001897 -0.005030 0.000000 0.039604 0.000000
# 6 0.000000 0.000000 0.000000 0.003837 0.000000 0.039195
#
#
# Mechanical properties :
#
#
# Convention : Reuss Voigt Hill
#
# Bulk Modulus (GPa) = 25.51403 41.10001 33.30702
# Shear Modulus (GPa) = 26.64575 31.88028 29.26301
#
# Velocity S-wave (km/s) = 3.39974 3.71871 3.56280
# Velocity P-wave (km/s) = 5.14570 6.02217 5.60111
#
# Compressibility (1/GPa) = 0.03919413
#
# Stress axis : x y z
#
# Youngs Moduli (GPa) = 42.66577 67.54618 66.99013
#
# Poissons Ratio (x) = 0.11061 0.10130
# Poissons Ratio (y) = 0.06987 0.25713
# Poissons Ratio (z) = 0.06452 0.25926
#
# Static dielectric constant tensor:
#      x y z
#    x 2.043910 0.000000 -0.038490 
#    y 0.000000 1.904660 0.000000 
#    z -0.038490 0.000000 1.981770 
# 
# From -- ./inp_files/247571.got.cif
#   From: 2010.05.17/outbox.cif.g08.bks.cpg/sg15_124_cif.got.tgz:247571.got - 2010.06.03 18:47:42.
