data_PCOD9262665
_publ_section_title
;
Structure prediction by ZEFSAII (Michael W. Deem and Ramdas Pophale) SiO2 
 PCOD9262665
Probable space group: C 2/C
;
_chemical_formula_sum "Si O2"
_cell_formula_units_Z 36
_cell_length_a 16.218727
_cell_length_b 17.618301
_cell_length_c 13.618674
_cell_angle_alpha 90.000000
_cell_angle_beta 153.188222
_cell_angle_gamma 90.000000
_cell_volume 1755.298195
_symmetry_space_group_name_H-M "C 2/C"
_symmetry_group_IT_number 15
_symmetry_cell_setting 'monoclinic'
loop_
_space_group_symop_operation_xyz
x,y,z
-x,y,1/2-z
-x,-y,-z
x,-y,1/2+z
1/2+x,1/2+y,z
1/2-x,1/2+y,1/2-z
1/2-x,1/2-y,-z
1/2+x,1/2-y,1/2+z
loop_
_atom_site_type_symbol
_atom_site_label
_atom_site_fract_x
_atom_site_fract_y
_atom_site_fract_z
Si Si1 0.310438 0.676608 0.002577
Si Si2 0.632566 0.388033 0.127132
Si Si3 0.025796 0.545876 0.427695
Si Si4 0.889751 0.042979 0.529947
Si Si5 0.500000 0.070300 0.750000
O O1 0.355930 0.682346 0.935540
O O2 0.142243 0.619864 0.840708
O O3 0.500000 0.648922 0.250000
O O4 0.250000 0.750000 0.000000
O O5 0.824334 0.392219 0.388724
O O6 0.479077 0.398833 0.046420
O O7 0.611934 0.461837 0.031349
O O8 0.000000 0.500000 0.500000
O O9 0.105601 0.484571 0.436497
O O10 0.821828 0.566096 0.177021
O O11 0.000000 0.039661 0.750000
#
# Coordination Sequence:
#
# PCOD9262665 Si02
#       5
#     8   8   8   8   4
#     4  12  26  40  58  84 122 170 207 246 289 365
#     4  10  22  34  55  87 122 160 198 244 311 367
#     4  10  20  32  54  82 118 160 185 247 304 369
#     4  10  19  33  54  87 119 154 192 245 315 361
#     4  12  22  38  56  86 132 156 204 238 316 356
#
# _framework density 20.509335
#
# number of rings (size 3 to 8) (size 9 to 14) (size 15 to 20)
#    0.000    1.333    5.556    2.000    9.333    0.000 
#    0.000    0.000    0.000    0.000    0.000    1.556 
#    3.333    0.000    0.000    0.000    0.000    0.000 
#
# Total GULP energy -100345.497746 kJ/mol
# GULP energy per Si atom -5574.749875 kJ/mol
# Density = 2.046266 g / cm^3
# Si number density = 20.509335 Si / 1000 Ang^3
#
#
#
# Elastic Constant Matrix: (Units=GPa)
#
#
# Indices 1 2 3 4 5 6 
#
# 1 112.5332 34.4664 23.8212 0.0000 -1.5606 0.0000
# 2 34.4664 31.4060 15.0143 0.0000 -8.4428 0.0000
# 3 23.8212 15.0143 131.0857 0.0000 2.1802 0.0000
# 4 0.0000 0.0000 0.0000 5.5548 0.0000 -9.5627
# 5 -1.5606 -8.4428 2.1802 0.0000 41.4673 0.0000
# 6 0.0000 0.0000 0.0000 -9.5627 0.0000 27.7790
#
#
#
# Elastic Compliance Matrix: (Units=1/GPa)
#
#
# Indices 1 2 3 4 5 6 
#
# 1 0.013720 -0.015426 -0.000683 0.000000 -0.002588 0.000000
# 2 -0.015426 0.053234 -0.003468 0.000000 0.010440 0.000000
# 3 -0.000683 -0.003468 0.008169 0.000000 -0.001161 0.000000
# 4 0.000000 0.000000 0.000000 0.441902 0.000000 0.152120
# 5 -0.002588 0.010440 -0.001161 0.000000 0.026205 0.000000
# 6 0.000000 0.000000 0.000000 0.152120 0.000000 0.088364
#
#
# Mechanical properties :
#
#
# Convention : Reuss Voigt Hill
#
# Bulk Modulus (GPa) = 27.80115 46.84762 37.32439
# Shear Modulus (GPa) = 7.32346 28.40844 17.86595
#
# Velocity S-wave (km/s) = 1.89170 3.72579 2.95466
# Velocity P-wave (km/s) = 4.28441 6.43431 5.46610
#
# Compressibility (1/GPa) = 0.03596973
#
# Stress axis : x y z
#
# Youngs Moduli (GPa) = 72.88888 18.78489 122.40994
#
# Poissons Ratio (x) = 0.28977 0.08364
# Poissons Ratio (y) = 1.12435 0.42449
# Poissons Ratio (z) = 0.04980 0.06514
#
# Static dielectric constant tensor:
#      x y z
#    x 1.769510 0.000000 0.015350 
#    y 0.000000 1.804420 0.000000 
#    z 0.015350 0.000000 1.758770 
# 
# From -- ./inp_files/99930.got.cif
#   From: 2010.05.17/outbox.cif.g08.bks.cpg/sg15_50_cif.got.tgz:99930.got - 2010.06.03 18:47:42.
