data_PCOD9262786
_publ_section_title
;
Structure prediction by ZEFSAII (Michael W. Deem and Ramdas Pophale) SiO2 
 PCOD9262786
Probable space group: C 2/C
;
_chemical_formula_sum "Si O2"
_cell_formula_units_Z 56
_cell_length_a 15.281314
_cell_length_b 29.198193
_cell_length_c 11.710132
_cell_angle_alpha 90.000000
_cell_angle_beta 29.232168
_cell_angle_gamma 90.000000
_cell_volume 2551.581043
_symmetry_space_group_name_H-M "C 2/C"
_symmetry_group_IT_number 15
_symmetry_cell_setting 'monoclinic'
loop_
_space_group_symop_operation_xyz
x,y,z
-x,y,1/2-z
-x,-y,-z
x,-y,1/2+z
1/2+x,1/2+y,z
1/2-x,1/2+y,1/2-z
1/2-x,1/2-y,-z
1/2+x,1/2-y,1/2+z
loop_
_atom_site_type_symbol
_atom_site_label
_atom_site_fract_x
_atom_site_fract_y
_atom_site_fract_z
Si Si1 0.810143 0.727398 0.811016
Si Si2 0.807845 0.490546 0.907847
Si Si3 0.187910 0.406571 0.730897
Si Si4 0.798375 0.316695 0.654039
Si Si5 0.304960 0.359358 0.971467
Si Si6 0.926640 0.955224 0.644016
Si Si7 0.683589 0.930007 0.263940
O O1 0.808530 0.768452 0.722446
O O2 0.001167 0.702785 0.593205
O O3 0.750000 0.750000 0.000000
O O4 0.679801 0.683511 0.957664
O O5 0.743284 0.438840 0.951647
O O6 0.835389 0.518554 0.759222
O O7 0.000000 0.489600 0.750000
O O8 0.668909 0.522529 0.135947
O O9 0.216066 0.352423 0.724550
O O10 0.276671 0.429769 0.741357
O O11 0.974154 0.415996 0.972599
O O12 0.744981 0.342229 0.597145
O O13 0.500000 0.381406 0.750000
O O14 0.163810 0.395288 0.180084
O O15 0.110159 0.925325 0.433648
O O16 0.000000 0.000000 0.500000
#
# Coordination Sequence:
#
# PCOD9262786 Si02
#       7
#     8   8   8   8   8   8   8
#     4  10  19  33  56  80 118 162 203 257 325 385
#     4  12  24  41  65  92 131 177 216 266 322 371
#     4  12  25  43  63  93 135 173 218 267 317 387
#     4  11  22  37  57  87 125 166 210 265 323 397
#     4  11  20  33  55  87 122 167 216 256 323 388
#     4  12  25  43  64  92 129 172 224 266 316 372
#     4  12  23  39  62  91 127 179 214 261 309 387
#
# _framework density 21.947177
#
# number of rings (size 3 to 8) (size 9 to 14) (size 15 to 20)
#    0.000    0.571    4.286    7.714    0.000    0.000 
#    0.000    0.000    0.000    0.000    0.000    1.000 
#    0.000    0.000    0.000    0.000    0.000    0.000 
#
# Total GULP energy -156103.642238 kJ/mol
# GULP energy per Si atom -5575.130080 kJ/mol
# Density = 2.189722 g / cm^3
# Si number density = 21.947177 Si / 1000 Ang^3
#
#
#
# Elastic Constant Matrix: (Units=GPa)
#
#
# Indices 1 2 3 4 5 6 
#
# 1 45.7542 14.3917 19.7381 -0.0006 -23.5472 -0.0005
# 2 14.3917 116.6031 11.1805 0.0008 -4.0727 -0.0007
# 3 19.7381 11.1805 66.9091 -0.0005 -19.8534 -0.0007
# 4 -0.0006 0.0008 -0.0005 35.8513 0.0010 7.9574
# 5 -23.5472 -4.0727 -19.8534 0.0010 22.3504 0.0003
# 6 -0.0005 -0.0007 -0.0007 7.9574 0.0003 32.1145
#
#
#
# Elastic Compliance Matrix: (Units=1/GPa)
#
#
# Indices 1 2 3 4 5 6 
#
# 1 0.050009 -0.004483 0.001884 -0.000001 0.053544 0.000000
# 2 -0.004483 0.009120 -0.001507 0.000000 -0.004400 0.000000
# 3 0.001884 -0.001507 0.020571 0.000000 0.019983 0.000000
# 4 -0.000001 0.000000 0.000000 0.029516 -0.000002 -0.007314
# 5 0.053544 -0.004400 0.019983 -0.000002 0.118102 0.000001
# 6 0.000000 0.000000 0.000000 -0.007314 0.000001 0.032951
#
#
# Mechanical properties :
#
#
# Convention : Reuss Voigt Hill
#
# Bulk Modulus (GPa) = 13.98817 35.54301 24.76559
# Shear Modulus (GPa) = 17.10507 30.32697 23.71602
#
# Velocity S-wave (km/s) = 2.79476 3.72131 3.29081
# Velocity P-wave (km/s) = 4.09898 5.89018 5.07424
#
# Compressibility (1/GPa) = 0.07148898
#
# Stress axis : x y z
#
# Youngs Moduli (GPa) = 19.99630 109.64639 48.61170
#
# Poissons Ratio (x) = 0.49153 -0.09159
# Poissons Ratio (y) = 0.08964 0.07326
# Poissons Ratio (z) = -0.03767 0.16524
#
# Static dielectric constant tensor:
#      x y z
#    x 1.917290 0.000000 -0.023830 
#    y 0.000000 1.880860 0.000000 
#    z -0.023830 0.000000 1.885020 
# 
# From -- ./inp_files/101768.got.cif
#   From: 2010.05.17/outbox.cif.g08.bks.cpg/sg15_51_cif.got.tgz:101768.got - 2010.06.03 18:47:42.
