data_PCOD9262366
_publ_section_title
;
Structure prediction by ZEFSAII (Michael W. Deem and Ramdas Pophale) SiO2 
 PCOD9262366
Probable space group: C 2/C
;
_chemical_formula_sum "Si O2"
_cell_formula_units_Z 44
_cell_length_a 8.099676
_cell_length_b 14.365421
_cell_length_c 18.311882
_cell_angle_alpha 90.000000
_cell_angle_beta 124.287369
_cell_angle_gamma 90.000000
_cell_volume 1760.418835
_symmetry_space_group_name_H-M "C 2/C"
_symmetry_group_IT_number 15
_symmetry_cell_setting 'monoclinic'
loop_
_space_group_symop_operation_xyz
x,y,z
-x,y,1/2-z
-x,-y,-z
x,-y,1/2+z
1/2+x,1/2+y,z
1/2-x,1/2+y,1/2-z
1/2-x,1/2-y,-z
1/2+x,1/2-y,1/2+z
loop_
_atom_site_type_symbol
_atom_site_label
_atom_site_fract_x
_atom_site_fract_y
_atom_site_fract_z
Si Si1 0.892793 0.389072 0.091655
Si Si2 0.339827 0.640333 0.558675
Si Si3 0.581097 0.069483 0.117164
Si Si4 0.934569 0.937231 0.606305
Si Si5 0.000000 0.502835 0.250000
Si Si6 0.613338 0.719238 0.082369
O O1 0.876226 0.427184 0.169611
O O2 0.062467 0.457774 0.099296
O O3 0.959408 0.285731 0.087773
O O4 0.702306 0.419066 0.998651
O O5 0.451504 0.548073 0.613773
O O6 0.445233 0.689261 0.515351
O O7 0.303674 0.715997 0.612819
O O8 0.119141 0.613086 0.468534
O O9 0.792249 0.098572 0.136187
O O10 0.572617 0.068130 0.201953
O O11 0.122595 0.874746 0.631567
#
# Coordination Sequence:
#
# PCOD9262366 Si02
#       6
#     8   8   8   8   4   8
#     4   9  17  33  52  75 101 136 176 212 263 320
#     4  10  19  33  48  81 114 130 170 225 277 317
#     4   9  17  34  55  71  98 141 176 209 260 325
#     4  11  18  33  56  80 100 135 185 220 262 324
#     4   8  18  32  58  68 102 152 162 214 270 310
#     4  11  20  29  54  85 107 133 169 236 274 306
#
# _framework density 24.994053000000001
#
# number of rings (size 3 to 8) (size 9 to 14) (size 15 to 20)
#    1.091    1.091    3.636    2.182    0.000    0.000 
#    0.000    1.818    0.000    0.000    9.455    0.000 
#    0.000    0.000    0.000    0.000    0.000    0.000 
#
# Total GULP energy -122470.740985 kJ/mol
# GULP energy per Si atom -5566.851863 kJ/mol
# Density = 2.493717 g / cm^3
# Si number density = 24.994053 Si / 1000 Ang^3
#
#
#
# Elastic Constant Matrix: (Units=GPa)
#
#
# Indices 1 2 3 4 5 6 
#
# 1 112.8481 52.4226 48.4964 0.0000 -34.6847 0.0000
# 2 52.4226 139.8710 4.6398 0.0000 -17.8817 0.0000
# 3 48.4964 4.6398 116.0156 0.0000 -24.6136 0.0000
# 4 0.0000 0.0000 0.0000 15.9167 0.0000 -34.8094
# 5 -34.6847 -17.8817 -24.6136 0.0000 29.2742 0.0000
# 6 0.0000 0.0000 0.0000 -34.8094 0.0000 32.4101
#
#
#
# Elastic Compliance Matrix: (Units=1/GPa)
#
#
# Indices 1 2 3 4 5 6 
#
# 1 0.016911 -0.004412 -0.003911 0.000000 0.014053 0.000000
# 2 -0.004412 0.008975 0.001874 0.000000 0.001830 0.000000
# 3 -0.003911 0.001874 0.011489 0.000000 0.006170 0.000000
# 4 0.000000 0.000000 0.000000 -0.046578 0.000000 -0.050026
# 5 0.014053 0.001830 0.006170 0.000000 0.057116 0.000000
# 6 0.000000 0.000000 0.000000 -0.050026 0.000000 -0.022874
#
#
# Mechanical properties :
#
#
# Convention : Reuss Voigt Hill
#
# Bulk Modulus (GPa) = 40.85688 64.42802 52.64245
# Shear Modulus (GPa) = 108.46992 33.06527 70.76759
#
# Velocity S-wave (km/s) = 6.59488 3.64115 5.32684
# Velocity P-wave (km/s) = 8.62393 6.59626 7.67733
#
# Compressibility (1/GPa) = 0.02447568
#
# Stress axis : x y z
#
# Youngs Moduli (GPa) = 59.13262 111.42332 87.04348
#
# Poissons Ratio (x) = 0.49157 0.34044
# Poissons Ratio (y) = 0.26088 -0.16308
# Poissons Ratio (z) = 0.23128 -0.20876
#
# Static dielectric constant tensor:
#      x y z
#    x 2.193400 0.000000 0.007180 
#    y 0.000000 2.070830 0.000000 
#    z 0.007180 0.000000 1.917580 
# 
# From -- ./inp_files/263746.got.cif
#   From: 2010.05.17/outbox.cif.g08.bks.cpg/sg15_132_cif.got.tgz:263746.got - 2010.06.03 18:47:42.
