data_PCOD9262270
_publ_section_title
;
Structure prediction by ZEFSAII (Michael W. Deem and Ramdas Pophale) SiO2 
 PCOD9262270
Probable space group: C 2/C
;
_chemical_formula_sum "Si O2"
_cell_formula_units_Z 64
_cell_length_a 25.467206
_cell_length_b 13.724149
_cell_length_c 14.618653
_cell_angle_alpha 90.000000
_cell_angle_beta 38.171371
_cell_angle_gamma 90.000000
_cell_volume 3157.719545
_symmetry_space_group_name_H-M "C 2/C"
_symmetry_group_IT_number 15
_symmetry_cell_setting 'monoclinic'
loop_
_space_group_symop_operation_xyz
x,y,z
-x,y,1/2-z
-x,-y,-z
x,-y,1/2+z
1/2+x,1/2+y,z
1/2-x,1/2+y,1/2-z
1/2-x,1/2-y,-z
1/2+x,1/2-y,1/2+z
loop_
_atom_site_type_symbol
_atom_site_label
_atom_site_fract_x
_atom_site_fract_y
_atom_site_fract_z
Si Si1 0.777019 0.589291 0.437113
Si Si2 0.802327 0.609788 0.005414
Si Si3 0.227264 0.071708 0.298790
Si Si4 0.046082 0.123240 0.522358
Si Si5 0.331256 0.351420 0.134778
Si Si6 0.484945 0.584080 0.144030
Si Si7 0.840979 0.193991 0.426729
Si Si8 0.865025 0.214280 0.783646
O O1 0.807859 0.496121 0.452227
O O2 0.769017 0.564420 0.340968
O O3 0.837991 0.683097 0.363665
O O4 0.684038 0.626298 0.597854
O O5 0.788913 0.602656 0.132216
O O6 0.719895 0.660168 0.071708
O O7 0.869862 0.693333 0.885743
O O8 0.142985 0.140403 0.420474
O O9 0.195177 0.963424 0.314116
O O10 0.054333 0.093823 0.404131
O O11 0.966635 0.196975 0.641355
O O12 0.013558 0.026339 0.617778
O O13 0.323125 0.291291 0.238946
O O14 0.431757 0.350439 0.978286
O O15 0.293887 0.319837 0.088633
O O16 0.418756 0.620931 0.307922
#
# Coordination Sequence:
#
# PCOD9262270 Si02
#       8
#     8   8   8   8   8   8   8   8
#     4  11  22  37  56  81 113 154 187 225 277 336
#     4  11  22  35  53  81 116 146 183 229 276 335
#     4  11  20  35  57  83 115 141 185 238 287 325
#     4   9  18  32  56  82 114 141 174 241 285 327
#     4  10  19  32  57  85 109 141 179 236 281 333
#     4   9  17  31  54  83 112 138 176 228 289 329
#     4  11  20  33  53  84 114 144 181 224 284 336
#     4  10  21  37  55  80 116 149 187 224 280 338
#
# _framework density 20.267790000000002
#
# number of rings (size 3 to 8) (size 9 to 14) (size 15 to 20)
#    0.000    1.750    3.750    2.625    0.000    0.500 
#    0.000    0.000    0.000    3.000   13.000    0.000 
#    0.000    0.000    0.000    0.000    0.000    0.000 
#
# Total GULP energy -178379.997050 kJ/mol
# GULP energy per Si atom -5574.374908 kJ/mol
# Density = 2.022166 g / cm^3
# Si number density = 20.267790 Si / 1000 Ang^3
#
#
#
# Elastic Constant Matrix: (Units=GPa)
#
#
# Indices 1 2 3 4 5 6 
#
# 1 47.9666 -3.7577 14.2358 0.0000 22.6993 0.0000
# 2 -3.7577 89.1362 25.9496 0.0000 9.3492 0.0000
# 3 14.2358 25.9496 57.3883 0.0000 24.3642 0.0000
# 4 0.0000 0.0000 0.0000 24.3654 0.0000 4.7745
# 5 22.6993 9.3492 24.3642 0.0000 35.2534 0.0000
# 6 0.0000 0.0000 0.0000 4.7745 0.0000 18.0056
#
#
#
# Elastic Compliance Matrix: (Units=1/GPa)
#
#
# Indices 1 2 3 4 5 6 
#
# 1 0.031025 0.003645 -0.000641 0.000000 -0.020500 0.000000
# 2 0.003645 0.013366 -0.006293 0.000000 -0.001542 0.000000
# 3 -0.000641 -0.006293 0.027663 0.000000 -0.017037 0.000000
# 4 0.000000 0.000000 0.000000 0.043291 0.000000 -0.011479
# 5 -0.020500 -0.001542 -0.017037 0.000000 0.053749 0.000000
# 6 0.000000 0.000000 0.000000 -0.011479 0.000000 0.058582
#
#
# Mechanical properties :
#
#
# Convention : Reuss Voigt Hill
#
# Bulk Modulus (GPa) = 15.27295 29.70515 22.48905
# Shear Modulus (GPa) = 19.52512 26.06244 22.79378
#
# Velocity S-wave (km/s) = 3.10717 3.58984 3.35719
# Velocity P-wave (km/s) = 4.51936 5.64542 5.11348
#
# Compressibility (1/GPa) = 0.06547525
#
# Stress axis : x y z
#
# Youngs Moduli (GPa) = 32.23211 74.81494 36.14985
#
# Poissons Ratio (x) = -0.27268 0.02316
# Poissons Ratio (y) = -0.11748 0.22750
# Poissons Ratio (z) = 0.02065 0.47083
#
# Static dielectric constant tensor:
#      x y z
#    x 1.833780 0.000000 0.016190 
#    y 0.000000 1.779930 0.000000 
#    z 0.016190 0.000000 1.726120 
# 
# From -- ./inp_files/177817.got.cif
#   From: 2010.05.17/outbox.cif.g08.bks.cpg/sg15_89_cif.got.tgz:177817.got - 2010.06.03 18:47:42.
