data_PCOD9262606
_publ_section_title
;
Structure prediction by ZEFSAII (Michael W. Deem and Ramdas Pophale) SiO2 
 PCOD9262606
Probable space group: C 2/C
;
_chemical_formula_sum "Si O2"
_cell_formula_units_Z 44
_cell_length_a 14.354860
_cell_length_b 6.789804
_cell_length_c 19.881651
_cell_angle_alpha 90.000000
_cell_angle_beta 109.613348
_cell_angle_gamma 90.000000
_cell_volume 1825.366157
_symmetry_space_group_name_H-M "C 2/C"
_symmetry_group_IT_number 15
_symmetry_cell_setting 'monoclinic'
loop_
_space_group_symop_operation_xyz
x,y,z
-x,y,1/2-z
-x,-y,-z
x,-y,1/2+z
1/2+x,1/2+y,z
1/2-x,1/2+y,1/2-z
1/2-x,1/2-y,-z
1/2+x,1/2-y,1/2+z
loop_
_atom_site_type_symbol
_atom_site_label
_atom_site_fract_x
_atom_site_fract_y
_atom_site_fract_z
Si Si1 0.322807 0.465243 0.479931
Si Si2 0.331560 0.848374 0.299275
Si Si3 0.782577 0.404479 0.428771
Si Si4 0.436778 0.478407 0.128226
Si Si5 0.146385 0.890342 0.161824
Si Si6 0.500000 0.799139 0.250000
O O1 0.229049 0.454209 0.508925
O O2 0.328267 0.700318 0.464729
O O3 0.417358 0.425104 0.549950
O O4 0.320392 0.365336 0.407298
O O5 0.327579 0.965996 0.368228
O O6 0.228557 0.826972 0.234955
O O7 0.358590 0.627287 0.327439
O O8 0.415942 0.917334 0.268701
O O9 0.666300 0.367076 0.383132
O O10 0.532320 0.340141 0.148528
O O11 0.446180 0.650741 0.185029
#
# Coordination Sequence:
#
# PCOD9262606 Si02
#       6
#     8   8   8   8   8   4
#     4   8  16  29  51  80 105 129 166 218 255 294
#     4  10  20  34  52  73 104 136 175 211 256 301
#     4   8  15  29  51  78 103 127 167 217 253 291
#     4   9  16  30  54  77  98 132 177 208 245 310
#     4  10  19  33  54  80 103 135 170 213 253 306
#     4  10  20  32  50  72 100 142 174 210 256 306
#
# _framework density 24.104754
#
# number of rings (size 3 to 8) (size 9 to 14) (size 15 to 20)
#    1.091    1.818    0.000    2.727    0.000    0.000 
#    0.000    4.545    0.000    1.091    0.000    0.000 
#    0.000    0.000    0.000    0.000    0.000    0.000 
#
# Total GULP energy -122674.259134 kJ/mol
# GULP energy per Si atom -5576.102688 kJ/mol
# Density = 2.404989 g / cm^3
# Si number density = 24.104754 Si / 1000 Ang^3
#
#
#
# Elastic Constant Matrix: (Units=GPa)
#
#
# Indices 1 2 3 4 5 6 
#
# 1 122.3487 7.5804 47.7303 0.0000 -27.8740 0.0000
# 2 7.5804 47.1067 35.5908 0.0000 -1.7339 0.0000
# 3 47.7303 35.5908 145.8277 0.0000 -28.6897 0.0000
# 4 0.0000 0.0000 0.0000 26.6691 0.0000 -6.6952
# 5 -27.8740 -1.7339 -28.6897 0.0000 50.4395 0.0000
# 6 0.0000 0.0000 0.0000 -6.6952 0.0000 6.5939
#
#
#
# Elastic Compliance Matrix: (Units=1/GPa)
#
#
# Indices 1 2 3 4 5 6 
#
# 1 0.010101 0.000506 -0.002621 0.000000 0.004108 0.000000
# 2 0.000506 0.026480 -0.007200 0.000000 -0.002905 0.000000
# 3 -0.002621 -0.007200 0.010290 0.000000 0.004157 0.000000
# 4 0.000000 0.000000 0.000000 0.050324 0.000000 0.051097
# 5 0.004108 -0.002905 0.004157 0.000000 0.024361 0.000000
# 6 0.000000 0.000000 0.000000 0.051097 0.000000 0.203537
#
#
# Mechanical properties :
#
#
# Convention : Reuss Voigt Hill
#
# Bulk Modulus (GPa) = 35.40960 55.23180 45.32070
# Shear Modulus (GPa) = 14.15884 31.69928 22.92906
#
# Velocity S-wave (km/s) = 2.42624 3.63031 3.08754
# Velocity P-wave (km/s) = 4.75085 6.36673 5.61720
#
# Compressibility (1/GPa) = 0.02824093
#
# Stress axis : x y z
#
# Youngs Moduli (GPa) = 99.00441 37.76461 97.17753
#
# Poissons Ratio (x) = -0.01912 0.25473
# Poissons Ratio (y) = -0.05013 0.69967
# Poissons Ratio (z) = 0.25952 0.27190
#
# Static dielectric constant tensor:
#      x y z
#    x 2.006040 0.000000 -0.070600 
#    y 0.000000 1.978800 0.000000 
#    z -0.070600 0.000000 1.911690 
# 
# From -- ./inp_files/242078.got.cif
#   From: 2010.05.17/outbox.cif.g08.bks.cpg/sg15_122_cif.got.tgz:242078.got - 2010.06.03 18:47:42.
