data_PCOD9262332
_publ_section_title
;
Structure prediction by ZEFSAII (Michael W. Deem and Ramdas Pophale) SiO2 
 PCOD9262332
Probable space group: C 2/C
;
_chemical_formula_sum "Si O2"
_cell_formula_units_Z 60
_cell_length_a 23.736533
_cell_length_b 14.499438
_cell_length_c 13.465746
_cell_angle_alpha 90.000000
_cell_angle_beta 148.451777
_cell_angle_gamma 90.000000
_cell_volume 2424.822163
_symmetry_space_group_name_H-M "C 2/C"
_symmetry_group_IT_number 15
_symmetry_cell_setting 'monoclinic'
loop_
_space_group_symop_operation_xyz
x,y,z
-x,y,1/2-z
-x,-y,-z
x,-y,1/2+z
1/2+x,1/2+y,z
1/2-x,1/2+y,1/2-z
1/2-x,1/2-y,-z
1/2+x,1/2-y,1/2+z
loop_
_atom_site_type_symbol
_atom_site_label
_atom_site_fract_x
_atom_site_fract_y
_atom_site_fract_z
Si Si1 0.391913 0.893400 0.394951
Si Si2 0.506643 0.060342 0.658482
Si Si3 0.084996 0.074081 0.170606
Si Si4 0.267115 0.290824 0.225694
Si Si5 0.839317 0.879765 0.015891
Si Si6 0.789354 0.450372 0.506260
Si Si7 0.968446 0.225585 0.888568
Si Si8 0.000000 0.034812 0.250000
O O1 0.429535 0.893925 0.337030
O O2 0.273930 0.849552 0.240538
O O3 0.480331 0.820902 0.571084
O O4 0.411582 0.996612 0.468436
O O5 0.500000 0.120731 0.750000
O O6 0.593433 0.987489 0.827921
O O7 0.200784 0.025837 0.340740
O O8 0.049686 0.087830 0.232182
O O9 0.064381 0.164876 0.077872
O O10 0.000000 0.000000 0.000000
O O11 0.222759 0.358338 0.074017
O O12 0.385594 0.269705 0.358427
O O13 0.205784 0.194722 0.126275
O O14 0.740425 0.924296 0.926522
O O15 0.909908 0.828086 0.209080
O O16 0.907670 0.963463 0.075055
#
# Coordination Sequence:
#
# PCOD9262332 Si02
#       8
#     8   8   8   8   8   8   8   4
#     4  11  25  41  67  96 125 175 211 266 328 382
#     4  11  23  45  66  90 129 165 216 265 317 390
#     4  11  21  40  60  89 131 163 211 265 313 393
#     4  11  20  35  64  97 127 161 208 270 327 373
#     4  10  19  32  61  95 126 155 207 270 318 370
#     4  10  20  38  61  92 125 169 208 260 326 377
#     4  11  22  41  60  94 132 161 216 267 319 377
#     4  10  20  34  58  88 118 174 202 248 332 368
#
# _framework density 24.744081999999999
#
# number of rings (size 3 to 8) (size 9 to 14) (size 15 to 20)
#    0.000    1.333    5.333    4.000    0.000    2.133 
#    3.600    0.667    0.000    0.000    0.000    0.000 
#    0.000    0.000    0.000    0.000    0.000    0.000 
#
# Total GULP energy -167540.725212 kJ/mol
# GULP energy per Si atom -5584.690840 kJ/mol
# Density = 2.468776 g / cm^3
# Si number density = 24.744082 Si / 1000 Ang^3
#
#
#
# Elastic Constant Matrix: (Units=GPa)
#
#
# Indices 1 2 3 4 5 6 
#
# 1 142.6198 11.8026 17.5433 0.0000 4.7649 0.0000
# 2 11.8026 44.2337 23.1851 0.0000 6.5182 0.0000
# 3 17.5433 23.1851 59.0716 0.0000 0.2673 0.0000
# 4 0.0000 0.0000 0.0000 8.9539 0.0000 7.9529
# 5 4.7649 6.5182 0.2673 0.0000 27.4498 0.0000
# 6 0.0000 0.0000 0.0000 7.9529 0.0000 25.5651
#
#
#
# Elastic Compliance Matrix: (Units=1/GPa)
#
#
# Indices 1 2 3 4 5 6 
#
# 1 0.007343 -0.000834 -0.001849 0.000000 -0.001059 0.000000
# 2 -0.000834 0.029825 -0.011427 0.000000 -0.006826 0.000000
# 3 -0.001849 -0.011427 0.021950 0.000000 0.002821 0.000000
# 4 0.000000 0.000000 0.000000 0.154323 0.000000 -0.048008
# 5 -0.001059 -0.006826 0.002821 0.000000 0.038207 0.000000
# 6 0.000000 0.000000 0.000000 -0.048008 0.000000 0.054050
#
#
# Mechanical properties :
#
#
# Convention : Reuss Voigt Hill
#
# Bulk Modulus (GPa) = 32.36474 38.99854 35.68164
# Shear Modulus (GPa) = 14.52558 25.28672 19.90615
#
# Velocity S-wave (km/s) = 2.42550 3.20023 2.83941
# Velocity P-wave (km/s) = 4.57737 5.42681 5.02009
#
# Compressibility (1/GPa) = 0.03089783
#
# Stress axis : x y z
#
# Youngs Moduli (GPa) = 136.17558 33.52845 45.55802
#
# Poissons Ratio (x) = 0.02798 0.08422
# Poissons Ratio (y) = 0.11364 0.52061
# Poissons Ratio (z) = 0.25173 0.38315
#
# Static dielectric constant tensor:
#      x y z
#    x 2.204020 0.000000 -0.047130 
#    y 0.000000 2.003820 0.000000 
#    z -0.047130 0.000000 1.986430 
# 
# From -- ./inp_files/178566.got.cif
#   From: 2010.05.17/outbox.cif.g08.bks.cpg/sg15_90_cif.got.tgz:178566.got - 2010.06.03 18:47:42.
