data_PCOD9262262
_publ_section_title
;
Structure prediction by ZEFSAII (Michael W. Deem and Ramdas Pophale) SiO2 
 PCOD9262262
Probable space group: C 2/C
;
_chemical_formula_sum "Si O2"
_cell_formula_units_Z 48
_cell_length_a 24.634560
_cell_length_b 9.720942
_cell_length_c 8.578704
_cell_angle_alpha 90.000000
_cell_angle_beta 119.175183
_cell_angle_gamma 90.000000
_cell_volume 1793.723094
_symmetry_space_group_name_H-M "C 2/C"
_symmetry_group_IT_number 15
_symmetry_cell_setting 'monoclinic'
loop_
_space_group_symop_operation_xyz
x,y,z
-x,y,1/2-z
-x,-y,-z
x,-y,1/2+z
1/2+x,1/2+y,z
1/2-x,1/2+y,1/2-z
1/2-x,1/2-y,-z
1/2+x,1/2-y,1/2+z
loop_
_atom_site_type_symbol
_atom_site_label
_atom_site_fract_x
_atom_site_fract_y
_atom_site_fract_z
Si Si1 0.700112 0.557972 0.026314
Si Si2 0.378719 0.067963 0.541341
Si Si3 0.942693 0.356297 0.821322
Si Si4 0.548357 0.254186 0.673222
Si Si5 0.267789 0.141546 0.821159
Si Si6 0.934484 0.915828 0.102271
O O1 0.714799 0.696767 0.150753
O O2 0.744198 0.430391 0.131178
O O3 0.713866 0.613407 0.873020
O O4 0.629961 0.509849 0.957934
O O5 0.392716 0.122114 0.388794
O O6 0.386117 0.194478 0.672182
O O7 0.434593 0.978432 0.690166
O O8 0.323770 0.957687 0.456486
O O9 0.929482 0.219523 0.704262
O O10 0.008721 0.340453 0.997713
O O11 0.500000 0.263377 0.750000
O O12 0.561129 0.380510 0.574285
O O13 0.000000 0.974709 0.250000
#
# Coordination Sequence:
#
# PCOD9262262 Si02
#       6
#     8   8   8   8   8   8
#     4  11  26  50  71 108 140 193 240 297 358 426
#     4  11  19  33  58  96 136 183 221 291 350 425
#     4  10  19  32  56  93 137 179 222 289 358 413
#     4   9  20  34  57  99 140 179 229 292 366 417
#     4  11  26  45  74 102 149 189 242 291 357 427
#     4  10  21  42  69  97 139 187 236 300 354 421
#
# _framework density 26.759982999999998
#
# number of rings (size 3 to 8) (size 9 to 14) (size 15 to 20)
#    0.000    1.667    1.667    2.500    4.667    5.333 
#    0.000    0.833    0.000    0.000    0.000    0.000 
#    0.000    0.000    0.000    0.000    0.000    0.000 
#
# Total GULP energy -134289.893691 kJ/mol
# GULP energy per Si atom -5595.412237 kJ/mol
# Density = 2.669908 g / cm^3
# Si number density = 26.759983 Si / 1000 Ang^3
#
#
#
# Elastic Constant Matrix: (Units=GPa)
#
#
# Indices 1 2 3 4 5 6 
#
# 1 96.6132 1.5788 22.9700 0.0000 7.6628 0.0000
# 2 1.5788 107.0790 32.4922 0.0000 -0.1716 0.0000
# 3 22.9700 32.4922 105.9967 0.0000 -8.3314 0.0000
# 4 0.0000 0.0000 0.0000 -0.4318 0.0000 -15.1830
# 5 7.6628 -0.1716 -8.3314 0.0000 47.5700 0.0000
# 6 0.0000 0.0000 0.0000 -15.1830 0.0000 24.1927
#
#
#
# Elastic Compliance Matrix: (Units=1/GPa)
#
#
# Indices 1 2 3 4 5 6 
#
# 1 0.011191 0.000686 -0.002815 0.000000 -0.002293 0.000000
# 2 0.000686 0.010352 -0.003374 0.000000 -0.000664 0.000000
# 3 -0.002815 -0.003374 0.011268 0.000000 0.002415 0.000000
# 4 0.000000 0.000000 0.000000 -0.100398 0.000000 -0.063008
# 5 -0.002293 -0.000664 0.002415 0.000000 0.021812 0.000000
# 6 0.000000 0.000000 0.000000 -0.063008 0.000000 0.001792
#
#
# Mechanical properties :
#
#
# Convention : Reuss Voigt Hill
#
# Bulk Modulus (GPa) = 45.86511 47.08565 46.47538
# Shear Modulus (GPa) = -194.48859 31.10938 -81.68960
#
# Velocity S-wave (km/s) = -8.53444 3.41329 -5.53110
# Velocity P-wave (km/s) = 8.94086 5.75915 4.83586
#
# Compressibility (1/GPa) = 0.02180307
#
# Stress axis : x y z
#
# Youngs Moduli (GPa) = 89.36050 96.60418 88.74339
#
# Poissons Ratio (x) = -0.06624 0.24986
# Poissons Ratio (y) = -0.06127 0.29941
# Poissons Ratio (z) = 0.25159 0.32594
#
# Static dielectric constant tensor:
#      x y z
#    x 2.094930 0.000000 0.018870 
#    y 0.000000 2.153440 0.000000 
#    z 0.018870 0.000000 2.074410 
# 
# From -- ./inp_files/65233.got.cif
#   From: 2010.05.17/outbox.cif.g08.bks.cpg/sg15_33_cif.got.tgz:65233.got - 2010.06.03 18:47:42.
