data_PCOD9262438
_publ_section_title
;
Structure prediction by ZEFSAII (Michael W. Deem and Ramdas Pophale) SiO2 
 PCOD9262438
Probable space group: C 2/C
;
_chemical_formula_sum "Si O2"
_cell_formula_units_Z 56
_cell_length_a 14.108601
_cell_length_b 28.826997
_cell_length_c 14.732390
_cell_angle_alpha 90.000000
_cell_angle_beta 31.824251
_cell_angle_gamma 90.000000
_cell_volume 3159.563420
_symmetry_space_group_name_H-M "C 2/C"
_symmetry_group_IT_number 15
_symmetry_cell_setting 'monoclinic'
loop_
_space_group_symop_operation_xyz
x,y,z
-x,y,1/2-z
-x,-y,-z
x,-y,1/2+z
1/2+x,1/2+y,z
1/2-x,1/2+y,1/2-z
1/2-x,1/2-y,-z
1/2+x,1/2-y,1/2+z
loop_
_atom_site_type_symbol
_atom_site_label
_atom_site_fract_x
_atom_site_fract_y
_atom_site_fract_z
Si Si1 0.383816 0.978815 0.258773
Si Si2 0.592875 0.606818 0.405270
Si Si3 0.519985 0.916709 0.840817
Si Si4 0.731843 0.572762 0.716032
Si Si5 0.085092 0.280453 0.092752
Si Si6 0.607296 0.311819 0.756471
Si Si7 0.014095 0.019117 0.343846
O O1 0.500000 0.961620 0.250000
O O2 0.357375 0.942645 0.198898
O O3 0.185005 0.991573 0.456895
O O4 0.466396 0.027241 0.158114
O O5 0.793090 0.606007 0.281596
O O6 0.435521 0.601475 0.607469
O O7 0.560464 0.651740 0.370634
O O8 0.580826 0.561811 0.349792
O O9 0.500000 0.908667 0.750000
O O10 0.351351 0.903594 0.041182
O O11 0.640728 0.525286 0.753462
O O12 0.000000 0.305064 0.250000
O O13 0.949660 0.240630 0.169466
O O14 0.250000 0.250000 0.000000
O O15 0.181548 0.311947 0.940830
O O16 0.500000 0.322790 0.750000
O O17 0.000000 0.031621 0.250000
#
# Coordination Sequence:
#
# PCOD9262438 Si02
#       7
#     8   8   8   8   8   8   8
#     4  10  19  33  52  73  98 139 192 228 270 324
#     4  11  22  36  50  82 112 138 182 235 272 317
#     4  11  22  36  54  71  99 142 192 236 269 311
#     4  11  22  37  51  74 107 147 193 228 274 321
#     4   7  13  29  55  77 103 143 172 194 251 333
#     4   9  17  34  55  81 116 142 172 213 261 333
#     4  11  20  33  53  72 107 154 187 229 276 310
#
# _framework density 17.723967999999999
#
# number of rings (size 3 to 8) (size 9 to 14) (size 15 to 20)
#    0.000    2.286    2.857    3.429    2.000    0.000 
#    7.714    0.000    0.000    0.000    0.000    1.000 
#    0.000    0.000    0.000    0.000    0.000    0.000 
#
# Total GULP energy -156136.265449 kJ/mol
# GULP energy per Si atom -5576.295195 kJ/mol
# Density = 1.768363 g / cm^3
# Si number density = 17.723968 Si / 1000 Ang^3
#
#
#
# Elastic Constant Matrix: (Units=GPa)
#
#
# Indices 1 2 3 4 5 6 
#
# 1 81.5379 13.3185 46.3912 -0.0002 -2.4129 -0.0005
# 2 13.3185 30.2482 32.2037 -0.0006 2.8240 -0.0004
# 3 46.3912 32.2037 134.0135 -0.0018 18.0549 -0.0015
# 4 -0.0002 -0.0006 -0.0018 -80.6225 0.0003 -51.0288
# 5 -2.4129 2.8240 18.0549 0.0003 21.4691 0.0005
# 6 -0.0005 -0.0004 -0.0015 -51.0288 0.0005 -27.2621
#
#
#
# Elastic Compliance Matrix: (Units=1/GPa)
#
#
# Indices 1 2 3 4 5 6 
#
# 1 0.016276 -0.001077 -0.006362 0.000000 0.007321 0.000000
# 2 -0.001077 0.044736 -0.010791 0.000000 0.003069 -0.000001
# 3 -0.006362 -0.010791 0.013716 -0.000001 -0.010831 0.000001
# 4 0.000000 0.000000 -0.000001 0.067147 0.000003 -0.125685
# 5 0.007321 0.003069 -0.010831 0.000003 0.056106 -0.000004
# 6 0.000000 -0.000001 0.000001 -0.125685 -0.000004 0.198575
#
#
# Mechanical properties :
#
#
# Convention : Reuss Voigt Hill
#
# Bulk Modulus (GPa) = 26.13055 47.73628 36.93341
# Shear Modulus (GPa) = 11.21650 -7.02401 2.09625
#
# Velocity S-wave (km/s) = 2.51837 -1.99289 1.08871
# Velocity P-wave (km/s) = 4.81989 4.65792 4.73959
#
# Compressibility (1/GPa) = 0.03826939
#
# Stress axis : x y z
#
# Youngs Moduli (GPa) = 61.43852 22.35345 72.90513
#
# Poissons Ratio (x) = 0.02407 0.46382
# Poissons Ratio (y) = 0.06616 0.78671
# Poissons Ratio (z) = 0.39087 0.24121
#
# Static dielectric constant tensor:
#      x y z
#    x 1.622490 0.000000 -0.003730 
#    y 0.000000 1.596770 0.000000 
#    z -0.003730 0.000000 1.673700 
# 
# From -- ./inp_files/157453.got.cif
#   From: 2010.05.17/outbox.cif.g08.bks.cpg/sg15_79_cif.got.tgz:157453.got - 2010.06.03 18:47:42.
