data_PCOD9262385
_publ_section_title
;
Structure prediction by ZEFSAII (Michael W. Deem and Ramdas Pophale) SiO2 
 PCOD9262385
Probable space group: C 2/C
;
_chemical_formula_sum "Si O2"
_cell_formula_units_Z 64
_cell_length_a 17.529427
_cell_length_b 30.818480
_cell_length_c 14.423763
_cell_angle_alpha 90.000000
_cell_angle_beta 32.696514
_cell_angle_gamma 90.000000
_cell_volume 4209.236676
_symmetry_space_group_name_H-M "C 2/C"
_symmetry_group_IT_number 15
_symmetry_cell_setting 'monoclinic'
loop_
_space_group_symop_operation_xyz
x,y,z
-x,y,1/2-z
-x,-y,-z
x,-y,1/2+z
1/2+x,1/2+y,z
1/2-x,1/2+y,1/2-z
1/2-x,1/2-y,-z
1/2+x,1/2-y,1/2+z
loop_
_atom_site_type_symbol
_atom_site_label
_atom_site_fract_x
_atom_site_fract_y
_atom_site_fract_z
Si Si1 0.174246 0.461385 0.379445
Si Si2 0.669805 0.205060 0.683738
Si Si3 0.660219 0.527809 0.604440
Si Si4 0.157970 0.543309 0.264185
Si Si5 0.657676 0.423743 0.613734
Si Si6 0.848337 0.390155 0.252748
Si Si7 0.835367 0.291047 0.528573
Si Si8 0.678192 0.116335 0.388354
O O1 0.273288 0.456651 0.366941
O O2 0.203397 0.505050 0.289616
O O3 0.187266 0.420632 0.297304
O O4 0.009908 0.463753 0.578525
O O5 0.694869 0.160119 0.711227
O O6 0.757452 0.246145 0.628427
O O7 0.701167 0.197568 0.541801
O O8 0.503583 0.215234 0.860073
O O9 0.500000 0.542734 0.750000
O O10 0.757428 0.539534 0.417411
O O11 0.657754 0.475643 0.615129
O O12 0.181018 0.589759 0.289947
O O13 0.500000 0.408633 0.750000
O O14 0.768558 0.408765 0.423019
O O15 0.710139 0.405227 0.657163
O O16 0.018402 0.390879 0.090751
O O17 0.798789 0.331975 0.630754
#
# Coordination Sequence:
#
# PCOD9262385 Si02
#       8
#     8   8   8   8   8   8   8   8
#     4  10  20  33  53  73  92 126 170 204 234 281
#     4   9  17  29  46  68  97 127 156 194 238 285
#     4  11  23  35  47  68 103 134 159 200 247 286
#     4  10  20  33  53  73  92 126 170 204 234 281
#     4  11  21  29  44  70  99 132 163 196 236 286
#     4  10  19  33  50  70  95 129 167 203 236 275
#     4   9  17  29  46  68  97 127 156 194 238 285
#     4  10  19  33  50  70  95 129 167 203 236 275
#
# _framework density 15.204656999999999
#
# number of rings (size 3 to 8) (size 9 to 14) (size 15 to 20)
#    0.000    2.000    3.750    0.750    0.000    3.500 
#    0.000    0.000    0.000    0.000    0.000    0.875 
#    0.000    0.000    0.000    0.000    0.000    0.000 
#
# Total GULP energy -178431.316892 kJ/mol
# GULP energy per Si atom -5575.978653 kJ/mol
# Density = 1.517005 g / cm^3
# Si number density = 15.204657 Si / 1000 Ang^3
#
#
#
# Elastic Constant Matrix: (Units=GPa)
#
#
# Indices 1 2 3 4 5 6 
#
# 1 74.7286 24.6152 8.8641 0.0000 -8.6980 0.0000
# 2 24.6152 87.5408 10.2597 0.0000 -5.4153 0.0000
# 3 8.8641 10.2597 8.7826 0.0001 2.3915 -0.0001
# 4 0.0000 0.0000 0.0001 18.4750 0.0000 -2.3843
# 5 -8.6980 -5.4153 2.3915 0.0000 11.0777 0.0000
# 6 0.0000 0.0000 -0.0001 -2.3843 0.0000 24.3823
#
#
#
# Elastic Compliance Matrix: (Units=1/GPa)
#
#
# Indices 1 2 3 4 5 6 
#
# 1 0.018691 -0.001491 -0.022227 0.000000 0.018746 0.000000
# 2 -0.001491 0.014592 -0.018237 0.000000 0.009900 0.000000
# 3 -0.022227 -0.018237 0.175071 -0.000001 -0.064163 0.000000
# 4 0.000000 0.000000 -0.000001 0.054819 0.000001 0.005361
# 5 0.018746 0.009900 -0.064163 0.000001 0.123682 0.000000
# 6 0.000000 0.000000 0.000000 0.005361 0.000000 0.041538
#
#
# Mechanical properties :
#
#
# Convention : Reuss Voigt Hill
#
# Bulk Modulus (GPa) = 8.03583 28.72557 18.38070
# Shear Modulus (GPa) = 9.02878 19.27453 14.15165
#
# Velocity S-wave (km/s) = 2.43948 3.56430 3.05412
# Velocity P-wave (km/s) = 3.63749 5.98938 4.95499
#
# Compressibility (1/GPa) = 0.12444272
#
# Stress axis : x y z
#
# Youngs Moduli (GPa) = 53.50057 68.52918 5.71198
#
# Poissons Ratio (x) = 0.10218 0.12696
# Poissons Ratio (y) = 0.07977 0.10417
# Poissons Ratio (z) = 1.18918 1.24979
#
# Static dielectric constant tensor:
#      x y z
#    x 1.491840 0.000000 -0.016480 
#    y 0.000000 1.509510 0.000000 
#    z -0.016480 0.000000 1.503540 
# 
# From -- ./inp_files/44580.got.cif
#   From: 2010.05.17/outbox.cif.g08.bks.cpg/sg15_23_cif.got.tgz:44580.got - 2010.06.03 18:47:42.
