data_PCOD9262122
_publ_section_title
;
Structure prediction by ZEFSAII (Michael W. Deem and Ramdas Pophale) SiO2 
 PCOD9262122
Probable space group: C 2/C
;
_chemical_formula_sum "Si O2"
_cell_formula_units_Z 60
_cell_length_a 17.306267
_cell_length_b 20.903005
_cell_length_c 12.896090
_cell_angle_alpha 90.000000
_cell_angle_beta 139.094508
_cell_angle_gamma 90.000000
_cell_volume 3054.834214
_symmetry_space_group_name_H-M "C 2/C"
_symmetry_group_IT_number 15
_symmetry_cell_setting 'monoclinic'
loop_
_space_group_symop_operation_xyz
x,y,z
-x,y,1/2-z
-x,-y,-z
x,-y,1/2+z
1/2+x,1/2+y,z
1/2-x,1/2+y,1/2-z
1/2-x,1/2-y,-z
1/2+x,1/2-y,1/2+z
loop_
_atom_site_type_symbol
_atom_site_label
_atom_site_fract_x
_atom_site_fract_y
_atom_site_fract_z
Si Si1 0.708993 0.083521 0.355830
Si Si2 0.500000 0.718308 0.750000
Si Si3 0.535518 0.461745 0.399024
Si Si4 0.406469 0.961947 0.331786
Si Si5 0.473682 0.847570 0.970410
Si Si6 0.828590 0.678398 0.995634
Si Si7 0.138230 0.925343 0.096901
Si Si8 0.599463 0.293939 0.136733
O O1 0.840645 0.071432 0.448990
O O2 0.641729 0.121967 0.198189
O O3 0.712942 0.124578 0.465348
O O4 0.636139 0.016294 0.294049
O O5 0.611683 0.764880 0.878783
O O6 0.480505 0.687566 0.843062
O O7 0.500000 0.441020 0.250000
O O8 0.428321 0.451044 0.368108
O O9 0.575971 0.535763 0.442412
O O10 0.474435 0.893804 0.387017
O O11 0.277192 0.941115 0.244378
O O12 0.500000 0.000000 0.500000
O O13 0.569331 0.849671 0.974111
O O14 0.445982 0.772547 0.956414
O O15 0.729277 0.706409 0.819659
O O16 0.108548 0.850914 0.064584
#
# Coordination Sequence:
#
# PCOD9262122 Si02
#       8
#     8   4   8   8   8   8   8   8
#     4  10  19  32  54  77 105 151 190 231 281 342
#     4  10  22  30  44  78 118 158 182 208 278 358
#     4  10  22  37  55  81 112 149 196 238 288 345
#     4   9  19  37  55  75 110 150 193 239 278 332
#     4  10  20  34  51  80 113 149 186 228 285 348
#     4  11  18  32  47  77 116 146 181 226 283 346
#     4  10  21  37  55  82 113 149 195 237 289 347
#     4  11  21  30  51  76 118 152 178 225 281 350
#
# _framework density 19.641000999999999
#
# number of rings (size 3 to 8) (size 9 to 14) (size 15 to 20)
#    0.000    1.867    4.000    1.200    2.800    1.067 
#    0.000    0.000    0.000    0.000    0.000    9.333 
#    0.000    0.000    0.000    0.000    0.000    0.000 
#
# Total GULP energy -167045.622159 kJ/mol
# GULP energy per Si atom -5568.187405 kJ/mol
# Density = 1.959630 g / cm^3
# Si number density = 19.641001 Si / 1000 Ang^3
#
#
#
# Elastic Constant Matrix: (Units=GPa)
#
#
# Indices 1 2 3 4 5 6 
#
# 1 25.8895 12.3581 9.9050 0.0000 18.5627 0.0000
# 2 12.3581 117.7614 27.7947 0.0000 16.5991 0.0000
# 3 9.9050 27.7947 62.8681 0.0000 23.3298 0.0000
# 4 0.0000 0.0000 0.0000 22.2403 0.0000 6.6991
# 5 18.5627 16.5991 23.3298 0.0000 19.1726 0.0000
# 6 0.0000 0.0000 0.0000 6.6991 0.0000 29.2400
#
#
#
# Elastic Compliance Matrix: (Units=1/GPa)
#
#
# Indices 1 2 3 4 5 6 
#
# 1 0.308274 0.002785 0.112779 0.000000 -0.438113 0.000000
# 2 0.002785 0.009856 -0.001147 0.000000 -0.009834 0.000000
# 3 0.112779 -0.001147 0.070739 0.000000 -0.194276 0.000000
# 4 0.000000 0.000000 0.000000 0.048296 0.000000 -0.011065
# 5 -0.438113 -0.009834 -0.194276 0.000000 0.721249 0.000000
# 6 0.000000 0.000000 0.000000 -0.011065 0.000000 0.036735
#
#
# Mechanical properties :
#
#
# Convention : Reuss Voigt Hill
#
# Bulk Modulus (GPa) = 1.61890 34.07051 17.84470
# Shear Modulus (GPa) = 4.26542 24.56133 14.41337
#
# Velocity S-wave (km/s) = 1.47526 3.54010 2.71189
# Velocity P-wave (km/s) = 1.93078 5.83901 4.34867
#
# Compressibility (1/GPa) = 0.61770381
#
# Stress axis : x y z
#
# Youngs Moduli (GPa) = 3.24386 101.45717 14.13647
#
# Poissons Ratio (x) = -0.28254 -1.59430
# Poissons Ratio (y) = -0.00903 0.01622
# Poissons Ratio (z) = -0.36584 0.11639
#
# Static dielectric constant tensor:
#      x y z
#    x 1.715210 0.000000 0.011240 
#    y 0.000000 1.805890 0.000000 
#    z 0.011240 0.000000 1.698940 
# 
# From -- ./inp_files/163546.got.cif
#   From: 2010.05.17/outbox.cif.g08.bks.cpg/sg15_82_cif.got.tgz:163546.got - 2010.06.03 18:47:42.
