data_PCOD9262708
_publ_section_title
;
Structure prediction by ZEFSAII (Michael W. Deem and Ramdas Pophale) SiO2 
 PCOD9262708
Probable space group: C 2/C
;
_chemical_formula_sum "Si O2"
_cell_formula_units_Z 48
_cell_length_a 8.460722
_cell_length_b 16.829269
_cell_length_c 21.033124
_cell_angle_alpha 90.000000
_cell_angle_beta 133.334719
_cell_angle_gamma 90.000000
_cell_volume 2178.332191
_symmetry_space_group_name_H-M "C 2/C"
_symmetry_group_IT_number 15
_symmetry_cell_setting 'monoclinic'
loop_
_space_group_symop_operation_xyz
x,y,z
-x,y,1/2-z
-x,-y,-z
x,-y,1/2+z
1/2+x,1/2+y,z
1/2-x,1/2+y,1/2-z
1/2-x,1/2-y,-z
1/2+x,1/2-y,1/2+z
loop_
_atom_site_type_symbol
_atom_site_label
_atom_site_fract_x
_atom_site_fract_y
_atom_site_fract_z
Si Si1 0.239717 0.838007 0.845720
Si Si2 0.761305 0.494606 0.651168
Si Si3 0.318071 0.334210 0.092874
Si Si4 0.676443 0.838110 0.906388
Si Si5 0.879694 0.000279 0.649345
Si Si6 0.736296 0.166438 0.846474
O O1 0.414928 0.842488 0.837531
O O2 0.271923 0.752477 0.888636
O O3 0.000000 0.837147 0.750000
O O4 0.258441 0.919236 0.890021
O O5 0.738390 0.417061 0.602138
O O6 0.567113 0.493521 0.648306
O O7 0.745772 0.581696 0.613556
O O8 0.000000 0.490990 0.750000
O O9 0.257290 0.247825 0.103433
O O10 0.253591 0.416566 0.107109
O O11 0.580725 0.335342 0.158293
O O12 0.241840 0.336990 0.998598
O O13 0.000000 0.004259 0.750000
O O14 0.500000 0.167546 0.750000
#
# Coordination Sequence:
#
# PCOD9262708 Si02
#       6
#     8   8   8   8   8   8
#     4   9  17  33  53  74 105 141 174 213 263 313
#     4  10  19  33  55  81 104 136 182 221 260 314
#     4   9  20  36  55  78 109 141 176 221 268 316
#     4  10  20  36  57  80 106 140 180 222 266 312
#     4  10  20  34  52  78 111 141 174 218 266 317
#     4   8  16  31  52  74 102 138 172 212 259 308
#
# _framework density 22.035207
#
# number of rings (size 3 to 8) (size 9 to 14) (size 15 to 20)
#    0.000    2.667    0.000    2.000    0.000    4.000 
#    0.000    8.333    0.000   12.000    0.000    0.000 
#    0.000    0.000    0.000    0.000    0.000    0.000 
#
# Total GULP energy -133703.254758 kJ/mol
# GULP energy per Si atom -5570.968948 kJ/mol
# Density = 2.198505 g / cm^3
# Si number density = 22.035207 Si / 1000 Ang^3
#
#
#
# Elastic Constant Matrix: (Units=GPa)
#
#
# Indices 1 2 3 4 5 6 
#
# 1 27.8501 30.0743 4.6740 0.0000 7.7083 0.0000
# 2 30.0743 325.1756 23.5207 0.0000 -23.9364 0.0000
# 3 4.6740 23.5207 31.9695 0.0000 6.1310 -0.0001
# 4 0.0000 0.0000 0.0000 -30.4404 0.0000 -20.1052
# 5 7.7083 -23.9364 6.1310 0.0000 17.4998 0.0000
# 6 0.0000 0.0000 -0.0001 -20.1052 0.0000 25.5496
#
#
#
# Elastic Compliance Matrix: (Units=1/GPa)
#
#
# Indices 1 2 3 4 5 6 
#
# 1 0.053810 -0.008022 0.005022 0.000000 -0.036434 0.000000
# 2 -0.008022 0.005067 -0.004891 0.000000 0.012178 0.000000
# 3 0.005022 -0.004891 0.038433 0.000000 -0.022367 0.000000
# 4 0.000000 0.000000 0.000000 -0.021616 0.000000 -0.017010
# 5 -0.036434 0.012178 -0.022367 0.000000 0.097686 0.000000
# 6 0.000000 0.000000 0.000000 -0.017010 0.000000 0.025754
#
#
# Mechanical properties :
#
#
# Convention : Reuss Voigt Hill
#
# Bulk Modulus (GPa) = 12.26551 55.72590 33.99571
# Shear Modulus (GPa) = 20.65323 24.30354 22.47839
#
# Velocity S-wave (km/s) = 3.06483 3.32466 3.19738
# Velocity P-wave (km/s) = 4.25472 6.33105 5.39374
#
# Compressibility (1/GPa) = 0.08152940
#
# Stress axis : x y z
#
# Youngs Moduli (GPa) = 18.58379 197.34035 26.01901
#
# Poissons Ratio (x) = 1.58304 -0.13066
# Poissons Ratio (y) = 0.14908 0.12726
# Poissons Ratio (z) = -0.09333 0.96517
#
# Static dielectric constant tensor:
#      x y z
#    x 1.795080 0.000000 0.035650 
#    y 0.000000 1.929580 0.000000 
#    z 0.035650 0.000000 1.823470 
# 
# From -- ./inp_files/232849.got.cif
#   From: 2010.05.17/outbox.cif.g08.bks.cpg/sg15_117_cif.got.tgz:232849.got - 2010.06.03 18:47:42.
