data_PCOD9262496
_publ_section_title
;
Structure prediction by ZEFSAII (Michael W. Deem and Ramdas Pophale) SiO2 
 PCOD9262496
Probable space group: C 2/C
;
_chemical_formula_sum "Si O2"
_cell_formula_units_Z 60
_cell_length_a 16.614425
_cell_length_b 31.663372
_cell_length_c 18.733516
_cell_angle_alpha 90.000000
_cell_angle_beta 156.869843
_cell_angle_gamma 90.000000
_cell_volume 3871.298797
_symmetry_space_group_name_H-M "C 2/C"
_symmetry_group_IT_number 15
_symmetry_cell_setting 'monoclinic'
loop_
_space_group_symop_operation_xyz
x,y,z
-x,y,1/2-z
-x,-y,-z
x,-y,1/2+z
1/2+x,1/2+y,z
1/2-x,1/2+y,1/2-z
1/2-x,1/2-y,-z
1/2+x,1/2-y,1/2+z
loop_
_atom_site_type_symbol
_atom_site_label
_atom_site_fract_x
_atom_site_fract_y
_atom_site_fract_z
Si Si1 0.660404 0.468704 0.936701
Si Si2 0.934432 0.026209 0.515971
Si Si3 0.500000 0.094008 0.750000
Si Si4 0.079543 0.807826 0.734362
Si Si5 0.655727 0.935756 0.146332
Si Si6 0.965799 0.641633 0.570983
Si Si7 0.834503 0.288391 0.180603
Si Si8 0.006900 0.514137 0.389809
O O1 0.500000 0.448963 0.750000
O O2 0.535242 0.496803 0.890319
O O3 0.799352 0.435434 0.092646
O O4 0.819012 0.498088 0.022223
O O5 0.692247 0.033150 0.311945
O O6 0.097320 0.063669 0.651416
O O7 0.000000 0.000000 0.500000
O O8 0.460918 0.119777 0.645694
O O9 0.179451 0.761108 0.812851
O O10 0.000000 0.812654 0.750000
O O11 0.880037 0.806863 0.522041
O O12 0.246769 0.844139 0.861635
O O13 0.569369 0.891518 0.102667
O O14 0.568749 0.971995 0.129418
O O15 0.584212 0.952253 0.010824
O O16 0.086606 0.684465 0.688654
O O17 0.000000 0.290931 0.250000
#
# Coordination Sequence:
#
# PCOD9262496 Si02
#       8
#     8   8   4   8   8   8   8   8
#     4  12  21  34  55  73  96 139 182 217 257 307
#     4  10  19  33  53  68  94 134 167 212 262 305
#     4  12  22  34  44  78  98 122 178 230 248 294
#     4  11  19  34  53  70  94 135 170 214 266 312
#     4  10  21  34  47  71  99 130 170 216 260 296
#     4  12  22  34  48  75 104 126 173 229 257 299
#     4  11  19  34  53  70  95 131 174 212 262 316
#     4  10  19  36  51  67  97 133 174 209 257 308
#
# _framework density 15.498673999999999
#
# number of rings (size 3 to 8) (size 9 to 14) (size 15 to 20)
#    0.000    1.067    7.333    1.600    0.000    2.667 
#    0.000    0.000    0.000    0.000    0.000    0.000 
#    0.000    0.000    0.000    4.800    0.000    0.267 
#
# Total GULP energy -167357.776178 kJ/mol
# GULP energy per Si atom -5578.592539 kJ/mol
# Density = 1.546340 g / cm^3
# Si number density = 15.498674 Si / 1000 Ang^3
#
#
#
# Elastic Constant Matrix: (Units=GPa)
#
#
# Indices 1 2 3 4 5 6 
#
# 1 36.5145 13.7112 5.7978 0.0015 1.3312 -0.0010
# 2 13.7112 65.9956 28.7287 0.0008 8.9094 -0.0004
# 3 5.7978 28.7287 109.0117 0.0053 -2.0381 -0.0064
# 4 0.0015 0.0008 0.0053 -83.4025 0.0048 99.9719
# 5 1.3312 8.9094 -2.0381 0.0048 18.3216 -0.0043
# 6 -0.0010 -0.0004 -0.0064 99.9719 -0.0043 -59.7427
#
#
#
# Elastic Compliance Matrix: (Units=1/GPa)
#
#
# Indices 1 2 3 4 5 6 
#
# 1 0.029719 -0.006349 0.000110 0.000000 0.000941 0.000000
# 2 -0.006349 0.020033 -0.005126 -0.000001 -0.009850 0.000000
# 3 0.000110 -0.005126 0.010587 0.000001 0.003662 0.000000
# 4 0.000000 -0.000001 0.000001 0.011921 0.000002 0.019948
# 5 0.000941 -0.009850 0.003662 0.000002 0.059710 -0.000001
# 6 0.000000 0.000000 0.000000 0.019948 -0.000001 0.016642
#
#
# Mechanical properties :
#
#
# Convention : Reuss Voigt Hill
#
# Bulk Modulus (GPa) = 26.58974 34.22192 30.40583
# Shear Modulus (GPa) = 27.19221 -14.07910 6.55655
#
# Velocity S-wave (km/s) = 4.19320 -3.01725 2.05902
# Velocity P-wave (km/s) = 6.37474 3.16071 5.03127
#
# Compressibility (1/GPa) = 0.03760849
#
# Stress axis : x y z
#
# Youngs Moduli (GPa) = 33.64882 49.91802 94.45727
#
# Poissons Ratio (x) = 0.31695 -0.01042
# Poissons Ratio (y) = 0.21365 0.48418
# Poissons Ratio (z) = -0.00371 0.25587
#
# Static dielectric constant tensor:
#      x y z
#    x 1.501710 0.000000 -0.008280 
#    y 0.000000 1.532920 0.000000 
#    z -0.008280 0.000000 1.585550 
# 
# From -- ./inp_files/250510.got.cif
#   From: 2010.05.17/outbox.cif.g08.bks.cpg/sg15_126_cif.got.tgz:250510.got - 2010.06.03 18:47:42.
