data_PCOD9262818
_publ_section_title
;
Structure prediction by ZEFSAII (Michael W. Deem and Ramdas Pophale) SiO2 
 PCOD9262818
Probable space group: C 2/C
;
_chemical_formula_sum "Si O2"
_cell_formula_units_Z 60
_cell_length_a 20.357912
_cell_length_b 8.191919
_cell_length_c 20.997056
_cell_angle_alpha 90.000000
_cell_angle_beta 37.797019
_cell_angle_gamma 90.000000
_cell_volume 2146.064530
_symmetry_space_group_name_H-M "C 2/C"
_symmetry_group_IT_number 15
_symmetry_cell_setting 'monoclinic'
loop_
_space_group_symop_operation_xyz
x,y,z
-x,y,1/2-z
-x,-y,-z
x,-y,1/2+z
1/2+x,1/2+y,z
1/2-x,1/2+y,1/2-z
1/2-x,1/2-y,-z
1/2+x,1/2-y,1/2+z
loop_
_atom_site_type_symbol
_atom_site_label
_atom_site_fract_x
_atom_site_fract_y
_atom_site_fract_z
Si Si1 0.000000 0.829088 0.750000
Si Si2 0.081203 0.234628 0.746287
Si Si3 0.421155 0.100419 0.702175
Si Si4 0.636599 0.420449 0.326064
Si Si5 0.799939 0.927751 0.971826
Si Si6 0.875101 0.285877 0.110398
Si Si7 0.191744 0.405837 0.458277
Si Si8 0.180780 0.221792 0.916300
O O1 0.895726 0.934115 0.846988
O O2 0.010982 0.711044 0.802141
O O3 0.067431 0.105639 0.815366
O O4 0.202756 0.203411 0.632216
O O5 0.000000 0.231787 0.750000
O O6 0.205572 0.552001 0.023131
O O7 0.426995 0.913506 0.716453
O O8 0.301809 0.168702 0.805461
O O9 0.757707 0.372187 0.211587
O O10 0.633729 0.600272 0.358328
O O11 0.612400 0.304457 0.404872
O O12 0.551772 0.128813 0.892250
O O13 0.750000 0.750000 0.000000
O O14 0.844214 0.910368 0.009103
O O15 0.892694 0.311553 0.021732
O O16 0.187144 0.591377 0.434078
#
# Coordination Sequence:
#
# PCOD9262818 Si02
#       8
#     4   8   8   8   8   8   8   8
#     4  12  22  38  66  92 130 168 210 264 320 388
#     4  11  22  33  54  94 130 164 210 260 320 376
#     4  11  20  36  60  88 124 167 210 261 314 378
#     4  10  19  33  56  84 124 165 210 264 310 375
#     4  10  22  38  65  98 128 167 213 261 319 384
#     4  10  19  33  56  91 119 161 220 253 310 380
#     4  10  19  34  57  88 121 161 205 259 305 371
#     4  10  19  39  64  88 123 162 213 260 313 373
#
# _framework density 27.958152999999999
#
# number of rings (size 3 to 8) (size 9 to 14) (size 15 to 20)
#    0.000    1.600    3.333    7.200    0.933    0.000 
#    0.000    2.667    0.000   12.000    0.000    0.000 
#    0.000    0.000    0.000    0.000    0.000    0.000 
#
# Total GULP energy -167888.306260 kJ/mol
# GULP energy per Si atom -5596.276875 kJ/mol
# Density = 2.789452 g / cm^3
# Si number density = 27.958153 Si / 1000 Ang^3
#
#
#
# Elastic Constant Matrix: (Units=GPa)
#
#
# Indices 1 2 3 4 5 6 
#
# 1 186.3919 56.6814 48.8103 0.0002 49.2192 -0.0002
# 2 56.6814 153.6521 23.3932 0.0004 16.8541 -0.0005
# 3 48.8103 23.3932 94.1353 0.0000 10.4042 -0.0001
# 4 0.0002 0.0004 0.0000 48.7195 0.0000 13.9618
# 5 49.2192 16.8541 10.4042 0.0000 63.2622 0.0001
# 6 -0.0002 -0.0005 -0.0001 13.9618 0.0001 43.6103
#
#
#
# Elastic Compliance Matrix: (Units=1/GPa)
#
#
# Indices 1 2 3 4 5 6 
#
# 1 0.008201 -0.001956 -0.003176 0.000000 -0.005337 0.000000
# 2 -0.001956 0.007384 -0.000786 0.000000 -0.000316 0.000000
# 3 -0.003176 -0.000786 0.012394 0.000000 0.000642 0.000000
# 4 0.000000 0.000000 0.000000 0.022599 0.000000 -0.007235
# 5 -0.005337 -0.000316 0.000642 0.000000 0.019938 0.000000
# 6 0.000000 0.000000 0.000000 -0.007235 0.000000 0.025247
#
#
# Mechanical properties :
#
#
# Convention : Reuss Voigt Hill
#
# Bulk Modulus (GPa) = 61.94726 76.88321 69.41524
# Shear Modulus (GPa) = 44.25533 51.47137 47.86335
#
# Velocity S-wave (km/s) = 3.98290 4.29536 4.14208
# Velocity P-wave (km/s) = 6.58457 7.22214 6.91071
#
# Compressibility (1/GPa) = 0.01614276
#
# Stress axis : x y z
#
# Youngs Moduli (GPa) = 121.93595 135.42487 80.68262
#
# Poissons Ratio (x) = 0.26493 0.25627
# Poissons Ratio (y) = 0.23855 0.06339
# Poissons Ratio (z) = 0.38731 0.10641
#
# Static dielectric constant tensor:
#      x y z
#    x 2.282230 0.000000 0.027010 
#    y 0.000000 2.122100 0.000000 
#    z 0.027010 0.000000 2.329350 
# 
# From -- ./inp_files/279223.got.cif
#   From: 2010.05.17/outbox.cif.g08.bks.cpg/sg15_140_cif.got.tgz:279223.got - 2010.06.03 18:47:42.
