data_PCOD9262209
_publ_section_title
;
Structure prediction by ZEFSAII (Michael W. Deem and Ramdas Pophale) SiO2 
 PCOD9262209
Probable space group: C 2/C
;
_chemical_formula_sum "Si O2"
_cell_formula_units_Z 64
_cell_length_a 9.721363
_cell_length_b 21.435298
_cell_length_c 23.678596
_cell_angle_alpha 90.000000
_cell_angle_beta 142.335149
_cell_angle_gamma 90.000000
_cell_volume 3014.972579
_symmetry_space_group_name_H-M "C 2/C"
_symmetry_group_IT_number 15
_symmetry_cell_setting 'monoclinic'
loop_
_space_group_symop_operation_xyz
x,y,z
-x,y,1/2-z
-x,-y,-z
x,-y,1/2+z
1/2+x,1/2+y,z
1/2-x,1/2+y,1/2-z
1/2-x,1/2-y,-z
1/2+x,1/2-y,1/2+z
loop_
_atom_site_type_symbol
_atom_site_label
_atom_site_fract_x
_atom_site_fract_y
_atom_site_fract_z
Si Si1 0.511342 0.002088 0.612976
Si Si2 0.792121 0.030652 0.303756
Si Si3 0.671046 0.592901 0.350534
Si Si4 0.151933 0.329355 0.750741
Si Si5 0.416716 0.119932 0.939777
Si Si6 0.599595 0.572936 0.936317
Si Si7 0.519200 0.252368 0.583702
Si Si8 0.265535 0.305795 0.959289
O O1 0.588411 0.997943 0.701724
O O2 0.689665 0.957115 0.639968
O O3 0.275877 0.970763 0.525654
O O4 0.523083 0.067744 0.586270
O O5 0.711238 0.100889 0.291886
O O6 0.015612 0.051861 0.341380
O O7 0.880782 0.970342 0.365546
O O8 0.500000 0.625332 0.250000
O O9 0.863960 0.628894 0.448020
O O10 0.377649 0.288491 0.828387
O O11 0.000000 0.298875 0.750000
O O12 0.988901 0.327232 0.643144
O O13 0.213105 0.092932 0.912547
O O14 0.379157 0.183648 0.894143
O O15 0.600014 0.637621 0.969175
O O16 0.250000 0.250000 0.500000
O O17 0.598634 0.287673 0.552729
O O18 0.250000 0.250000 0.000000
#
# Coordination Sequence:
#
# PCOD9262209 Si02
#       8
#     8   8   8   8   8   8   8   8
#     4  10  19  32  55  94 134 157 207 270 332 393
#     4  11  19  35  61  89 126 168 217 268 325 396
#     4   9  17  27  50  87 122 156 195 257 327 383
#     4  10  24  45  64  91 132 182 229 265 347 419
#     4  11  19  36  57  94 136 155 212 278 335 386
#     4  11  20  36  64 100 127 167 218 278 334 392
#     4  11  25  44  68  95 133 182 227 280 336 412
#     4  11  23  45  70  97 135 182 231 276 340 412
#
# _framework density 21.22739
#
# number of rings (size 3 to 8) (size 9 to 14) (size 15 to 20)
#    0.000    1.500    5.000    1.500    0.000    1.000 
#    2.250    4.375    0.000    0.000    0.000    0.000 
#    0.000    0.000    0.000    0.000    0.000    0.000 
#
# Total GULP energy -178337.074886 kJ/mol
# GULP energy per Si atom -5573.033590 kJ/mol
# Density = 2.117908 g / cm^3
# Si number density = 21.227390 Si / 1000 Ang^3
#
#
#
# Elastic Constant Matrix: (Units=GPa)
#
#
# Indices 1 2 3 4 5 6 
#
# 1 22.5437 30.7980 11.2212 0.0002 7.8522 0.0000
# 2 30.7980 125.6346 73.2724 0.0002 -0.7859 0.0009
# 3 11.2212 73.2724 61.9015 0.0007 6.8374 -0.0007
# 4 0.0002 0.0002 0.0007 -125.2937 0.0005 22.8493
# 5 7.8522 -0.7859 6.8374 0.0005 18.9299 0.0000
# 6 0.0000 0.0009 -0.0007 22.8493 0.0000 20.4411
#
#
#
# Elastic Compliance Matrix: (Units=1/GPa)
#
#
# Indices 1 2 3 4 5 6 
#
# 1 0.176948 -0.106207 0.106483 0.000001 -0.116269 0.000007
# 2 -0.106207 0.092678 -0.099719 -0.000001 0.083921 -0.000006
# 3 0.106483 -0.099719 0.125221 0.000002 -0.093539 0.000007
# 4 0.000001 -0.000001 0.000002 -0.006630 -0.000001 0.007411
# 5 -0.116269 0.083921 -0.093539 -0.000001 0.138325 -0.000006
# 6 0.000007 -0.000006 0.000007 0.007411 -0.000006 0.040637
#
#
# Mechanical properties :
#
#
# Convention : Reuss Voigt Hill
#
# Bulk Modulus (GPa) = 5.10309 48.96257 27.03283
# Shear Modulus (GPa) = 6.01405 -10.86531 -2.42563
#
# Velocity S-wave (km/s) = 1.68502 -2.26487 -1.07013
# Velocity P-wave (km/s) = 2.48897 4.03439 3.35196
#
# Compressibility (1/GPa) = 0.19595974
#
# Stress axis : x y z
#
# Youngs Moduli (GPa) = 5.65139 10.79002 7.98588
#
# Poissons Ratio (x) = 1.14597 -0.85036
# Poissons Ratio (y) = 0.60022 0.79635
# Poissons Ratio (z) = -0.60177 1.07597
#
# Static dielectric constant tensor:
#      x y z
#    x 1.832860 0.000000 -0.014460 
#    y 0.000000 1.801510 0.000000 
#    z -0.014460 0.000000 1.788120 
# 
# From -- ./inp_files/293791.got.cif
#   From: 2010.05.17/outbox.cif.g08.bks.cpg/sg15_147_cif.got.tgz:293791.got - 2010.06.03 18:47:42.
