data_PCOD9262538
_publ_section_title
;
Structure prediction by ZEFSAII (Michael W. Deem and Ramdas Pophale) SiO2 
 PCOD9262538
Probable space group: C 2/C
;
_chemical_formula_sum "Si O2"
_cell_formula_units_Z 56
_cell_length_a 13.615379
_cell_length_b 19.118644
_cell_length_c 17.954981
_cell_angle_alpha 90.000000
_cell_angle_beta 137.901228
_cell_angle_gamma 90.000000
_cell_volume 3133.377489
_symmetry_space_group_name_H-M "C 2/C"
_symmetry_group_IT_number 15
_symmetry_cell_setting 'monoclinic'
loop_
_space_group_symop_operation_xyz
x,y,z
-x,y,1/2-z
-x,-y,-z
x,-y,1/2+z
1/2+x,1/2+y,z
1/2-x,1/2+y,1/2-z
1/2-x,1/2-y,-z
1/2+x,1/2-y,1/2+z
loop_
_atom_site_type_symbol
_atom_site_label
_atom_site_fract_x
_atom_site_fract_y
_atom_site_fract_z
Si Si1 0.188484 0.343942 0.629823
Si Si2 0.270199 0.465252 0.313647
Si Si3 0.262085 0.026513 0.541663
Si Si4 0.891270 0.334153 0.089909
Si Si5 0.498461 0.035476 0.079983
Si Si6 0.281911 0.805166 0.182071
Si Si7 0.959596 0.949214 0.807813
O O1 0.151152 0.341945 0.520372
O O2 0.064083 0.387689 0.602899
O O3 0.201088 0.264272 0.663573
O O4 0.342190 0.386442 0.729540
O O5 0.279734 0.500183 0.400579
O O6 0.117978 0.492257 0.194020
O O7 0.279605 0.381510 0.330678
O O8 0.388735 0.494873 0.323248
O O9 0.382500 0.087192 0.617326
O O10 0.119140 0.066832 0.430728
O O11 0.340022 0.972318 0.529747
O O12 0.792381 0.296824 0.097472
O O13 0.053544 0.304448 0.192410
O O14 0.500000 0.000000 0.000000
O O15 0.000000 0.979303 0.750000
#
# Coordination Sequence:
#
# PCOD9262538 Si02
#       7
#     8   8   8   8   8   8   8
#     4  11  22  35  55  85 117 147 193 235 287 347
#     4  10  21  36  55  80 113 151 188 231 295 343
#     4  11  19  35  56  80 113 149 189 236 285 340
#     4  10  19  33  53  80 116 151 177 231 295 350
#     4  11  19  36  58  80 112 152 198 236 279 340
#     4  10  21  33  54  81 116 151 185 228 294 354
#     4  11  22  35  56  85 112 145 192 247 286 332
#
# _framework density 17.87209
#
# number of rings (size 3 to 8) (size 9 to 14) (size 15 to 20)
#    0.000    1.429    4.286    2.143    2.000    2.286 
#    0.000    0.000    0.000    4.286    0.000    0.000 
#    0.000    0.000    0.000    0.000    0.000    0.000 
#
# Total GULP energy -155905.672439 kJ/mol
# GULP energy per Si atom -5568.059730 kJ/mol
# Density = 1.783141 g / cm^3
# Si number density = 17.872090 Si / 1000 Ang^3
#
#
#
# Elastic Constant Matrix: (Units=GPa)
#
#
# Indices 1 2 3 4 5 6 
#
# 1 88.6640 41.8581 18.9615 0.0000 -12.4696 0.0000
# 2 41.8581 101.5187 11.0049 0.0000 1.0570 0.0000
# 3 18.9615 11.0049 91.6787 0.0000 -13.9965 0.0000
# 4 0.0000 0.0000 0.0000 14.9809 0.0000 3.8981
# 5 -12.4696 1.0570 -13.9965 0.0000 27.5925 0.0000
# 6 0.0000 0.0000 0.0000 3.8981 0.0000 30.2660
#
#
#
# Elastic Compliance Matrix: (Units=1/GPa)
#
#
# Indices 1 2 3 4 5 6 
#
# 1 0.015472 -0.006290 -0.001453 0.000000 0.006496 0.000000
# 2 -0.006290 0.012566 -0.000775 0.000000 -0.003717 0.000000
# 3 -0.001453 -0.000775 0.012146 0.000000 0.005534 0.000000
# 4 0.000000 0.000000 0.000000 0.069066 0.000000 -0.008895
# 5 0.006496 -0.003717 0.005534 0.000000 0.042127 0.000000
# 6 0.000000 0.000000 0.000000 -0.008895 0.000000 0.034186
#
#
# Mechanical properties :
#
#
# Convention : Reuss Voigt Hill
#
# Bulk Modulus (GPa) = 43.19862 47.27891 45.23877
# Shear Modulus (GPa) = 23.77374 28.57036 26.17205
#
# Velocity S-wave (km/s) = 3.65117 4.00259 3.83091
# Velocity P-wave (km/s) = 6.48060 6.91899 6.70338
#
# Compressibility (1/GPa) = 0.02314889
#
# Stress axis : x y z
#
# Youngs Moduli (GPa) = 64.63195 79.57710 82.33048
#
# Poissons Ratio (x) = 0.50051 0.11965
# Poissons Ratio (y) = 0.40651 0.06381
# Poissons Ratio (z) = 0.09393 0.06168
#
# Static dielectric constant tensor:
#      x y z
#    x 1.654940 0.000000 0.007590 
#    y 0.000000 1.634740 0.000000 
#    z 0.007590 0.000000 1.703190 
# 
# From -- ./inp_files/200220.got.cif
#   From: 2010.05.17/outbox.cif.g08.bks.cpg/sg15_101_cif.got.tgz:200220.got - 2010.06.03 18:47:42.
