data_PCOD9262529
_publ_section_title
;
Structure prediction by ZEFSAII (Michael W. Deem and Ramdas Pophale) SiO2 
 PCOD9262529
Probable space group: C 2/C
;
_chemical_formula_sum "Si O2"
_cell_formula_units_Z 40
_cell_length_a 28.010636
_cell_length_b 7.886507
_cell_length_c 8.891665
_cell_angle_alpha 90.000000
_cell_angle_beta 123.123885
_cell_angle_gamma 90.000000
_cell_volume 1645.018923
_symmetry_space_group_name_H-M "C 2/C"
_symmetry_group_IT_number 15
_symmetry_cell_setting 'monoclinic'
loop_
_space_group_symop_operation_xyz
x,y,z
-x,y,1/2-z
-x,-y,-z
x,-y,1/2+z
1/2+x,1/2+y,z
1/2-x,1/2+y,1/2-z
1/2-x,1/2-y,-z
1/2+x,1/2-y,1/2+z
loop_
_atom_site_type_symbol
_atom_site_label
_atom_site_fract_x
_atom_site_fract_y
_atom_site_fract_z
Si Si1 0.309077 0.414479 0.616546
Si Si2 0.340539 0.807148 0.637954
Si Si3 0.452510 0.291165 0.442845
Si Si4 0.569757 0.341722 0.741272
Si Si5 0.228237 0.491313 0.236371
O O1 0.366335 0.304619 0.705331
O O2 0.329437 0.606417 0.609855
O O3 0.260968 0.373563 0.412010
O O4 0.184059 0.598796 0.549280
O O5 0.407168 0.832470 0.787095
O O6 0.279516 0.560310 0.223884
O O7 0.304245 0.873393 0.717198
O O8 0.518336 0.238607 0.574709
O O9 0.432547 0.326284 0.581636
O O10 0.446837 0.465832 0.337431
#
# Coordination Sequence:
#
# PCOD9262529 Si02
#       5
#     8   8   8   8   8
#     4  10  19  34  53  82 115 139 180 233 275 320
#     4  10  21  37  53  79 117 149 181 228 274 327
#     4   9  18  34  55  82 111 138 178 230 282 317
#     4   9  17  32  57  81 107 139 177 232 278 319
#     4  10  19  33  53  79 117 150 175 215 276 341
#
# _framework density 24.315830999999999
#
# number of rings (size 3 to 8) (size 9 to 14) (size 15 to 20)
#    0.000    2.400    0.000    4.800    0.000    0.000 
#    0.000   33.000    0.000    4.800    0.000    5.600 
#    0.000    1.600    0.000    0.000    0.000    0.000 
#
# Total GULP energy -111868.408528 kJ/mol
# GULP energy per Si atom -5593.420426 kJ/mol
# Density = 2.426049 g / cm^3
# Si number density = 24.315831 Si / 1000 Ang^3
#
#
#
# Elastic Constant Matrix: (Units=GPa)
#
#
# Indices 1 2 3 4 5 6 
#
# 1 79.0938 11.3255 91.8025 0.0000 -0.5874 0.0000
# 2 11.3255 34.4979 38.6061 0.0000 -1.5773 0.0000
# 3 91.8025 38.6061 217.2280 0.0000 12.2239 0.0000
# 4 0.0000 0.0000 0.0000 39.1693 0.0000 -0.8786
# 5 -0.5874 -1.5773 12.2239 0.0000 47.9053 0.0000
# 6 0.0000 0.0000 0.0000 -0.8786 0.0000 20.9412
#
#
#
# Elastic Compliance Matrix: (Units=1/GPa)
#
#
# Indices 1 2 3 4 5 6 
#
# 1 0.025967 0.005173 -0.012094 0.000000 0.003575 0.000000
# 2 0.005173 0.037608 -0.009074 0.000000 0.003617 0.000000
# 3 -0.012094 -0.009074 0.011518 0.000000 -0.003386 0.000000
# 4 0.000000 0.000000 0.000000 0.025554 0.000000 0.001072
# 5 0.003575 0.003617 -0.003386 0.000000 0.021901 0.000000
# 6 0.000000 0.000000 0.000000 0.001072 0.000000 0.047798
#
#
# Mechanical properties :
#
#
# Convention : Reuss Voigt Hill
#
# Bulk Modulus (GPa) = 23.20002 68.25421 45.72711
# Shear Modulus (GPa) = 23.07304 34.20887 28.64096
#
# Velocity S-wave (km/s) = 3.08375 3.75488 3.43574
# Velocity P-wave (km/s) = 4.71605 6.85052 5.88093
#
# Compressibility (1/GPa) = 0.04310342
#
# Stress axis : x y z
#
# Youngs Moduli (GPa) = 38.51107 26.58982 86.82279
#
# Poissons Ratio (x) = -0.13756 1.05006
# Poissons Ratio (y) = -0.19923 0.78780
# Poissons Ratio (z) = 0.46576 0.24127
#
# Static dielectric constant tensor:
#      x y z
#    x 1.919470 0.000000 0.058320 
#    y 0.000000 1.992480 0.000000 
#    z 0.058320 0.000000 1.979060 
# 
# From -- ./inp_files/112170.got.cif
#   From: 2010.05.17/outbox.cif.g08.bks.cpg/sg15_57_cif.got.tgz:112170.got - 2010.06.03 18:47:42.
