data_PCOD9262919
_publ_section_title
;
Structure prediction by ZEFSAII (Michael W. Deem and Ramdas Pophale) SiO2 
 PCOD9262919
Probable space group: C 2/C
;
_chemical_formula_sum "Si O2"
_cell_formula_units_Z 56
_cell_length_a 12.391998
_cell_length_b 19.099938
_cell_length_c 25.380970
_cell_angle_alpha 90.000000
_cell_angle_beta 152.346932
_cell_angle_gamma 90.000000
_cell_volume 2788.101981
_symmetry_space_group_name_H-M "C 2/C"
_symmetry_group_IT_number 15
_symmetry_cell_setting 'monoclinic'
loop_
_space_group_symop_operation_xyz
x,y,z
-x,y,1/2-z
-x,-y,-z
x,-y,1/2+z
1/2+x,1/2+y,z
1/2-x,1/2+y,1/2-z
1/2-x,1/2-y,-z
1/2+x,1/2-y,1/2+z
loop_
_atom_site_type_symbol
_atom_site_label
_atom_site_fract_x
_atom_site_fract_y
_atom_site_fract_z
Si Si1 0.111946 0.438599 0.884100
Si Si2 0.000000 0.365172 0.250000
Si Si3 0.070165 0.929471 0.129111
Si Si4 0.154895 0.192733 0.519570
Si Si5 0.000000 0.926021 0.750000
Si Si6 0.166746 0.461586 0.159713
Si Si7 0.683417 0.572557 0.135019
Si Si8 0.313216 0.151576 0.470013
O O1 0.223584 0.465169 0.877662
O O2 0.007356 0.499356 0.874999
O O3 0.886140 0.400437 0.761848
O O4 0.317728 0.400284 0.004427
O O5 0.786030 0.404573 0.186521
O O6 0.881490 0.321325 0.152370
O O7 0.146808 0.921934 0.222521
O O8 0.047081 0.013272 0.108141
O O9 0.208450 0.170846 0.482285
O O10 0.085934 0.272348 0.501137
O O11 0.958716 0.137001 0.448558
O O12 0.883314 0.878134 0.654246
O O13 0.800568 0.977988 0.685980
O O14 0.012765 0.406908 0.060988
#
# Coordination Sequence:
#
# PCOD9262919 Si02
#       8
#     8   4   8   8   4   8   8   8
#     4  10  19  33  57  90 125 155 204 262 323 372
#     4  12  21  36  64  99 132 164 206 266 326 381
#     4  11  20  32  60  94 129 156 212 264 320 373
#     4  11  23  41  63  95 135 167 211 255 319 407
#     4  12  25  44  68  89 124 168 230 274 312 367
#     4  11  22  40  64  94 121 163 219 279 316 368
#     4  10  20  31  55  92 129 167 195 257 328 378
#     4  11  24  42  64  91 127 175 216 259 314 383
#
# _framework density 20.085349000000001
#
# number of rings (size 3 to 8) (size 9 to 14) (size 15 to 20)
#    0.000    1.143    2.857    6.429    2.000    0.000 
#    0.000    1.429    0.000    1.714    0.000    0.000 
#    0.000    0.000    0.000    0.000    0.000    0.000 
#
# Total GULP energy -156095.688614 kJ/mol
# GULP energy per Si atom -5574.846022 kJ/mol
# Density = 2.003963 g / cm^3
# Si number density = 20.085349 Si / 1000 Ang^3
#
#
#
# Elastic Constant Matrix: (Units=GPa)
#
#
# Indices 1 2 3 4 5 6 
#
# 1 46.5872 29.7168 30.0618 0.0008 -7.4750 0.0000
# 2 29.7168 103.8038 46.9895 -0.0003 -4.6901 -0.0001
# 3 30.0618 46.9895 168.3409 -0.0008 -20.6787 0.0005
# 4 0.0008 -0.0003 -0.0008 10.3695 0.0003 8.2760
# 5 -7.4750 -4.6901 -20.6787 0.0003 31.6394 -0.0001
# 6 0.0000 -0.0001 0.0005 8.2760 -0.0001 7.3838
#
#
#
# Elastic Compliance Matrix: (Units=1/GPa)
#
#
# Indices 1 2 3 4 5 6 
#
# 1 0.028055 -0.006644 -0.002677 -0.000024 0.003894 0.000027
# 2 -0.006644 0.012605 -0.002496 0.000003 -0.001332 -0.000003
# 3 -0.002677 -0.002496 0.007602 0.000009 0.003966 -0.000011
# 4 -0.000024 0.000003 0.000009 0.914475 -0.000011 -1.024971
# 5 0.003894 -0.001332 0.003966 -0.000011 0.034921 0.000013
# 6 0.000027 -0.000003 -0.000011 -1.024971 0.000013 1.284250
#
#
# Mechanical properties :
#
#
# Convention : Reuss Voigt Hill
#
# Bulk Modulus (GPa) = 40.60228 59.14091 49.87159
# Shear Modulus (GPa) = 2.16099 24.00946 13.08523
#
# Velocity S-wave (km/s) = 1.03838 3.46117 2.55518
# Velocity P-wave (km/s) = 4.65794 6.74401 5.79560
#
# Compressibility (1/GPa) = 0.02462916
#
# Stress axis : x y z
#
# Youngs Moduli (GPa) = 35.64381 79.33299 131.53990
#
# Poissons Ratio (x) = 0.52707 0.35217
# Poissons Ratio (y) = 0.23681 0.32829
# Poissons Ratio (z) = 0.09543 0.19799
#
# Static dielectric constant tensor:
#      x y z
#    x 1.770280 0.000000 0.002370 
#    y 0.000000 1.725710 0.000000 
#    z 0.002370 0.000000 1.793680 
# 
# From -- ./inp_files/270984.got.cif
#   From: 2010.05.17/outbox.cif.g08.bks.cpg/sg15_136_cif.got.tgz:270984.got - 2010.06.03 18:47:42.
