data_PCOD9262753
_publ_section_title
;
Structure prediction by ZEFSAII (Michael W. Deem and Ramdas Pophale) SiO2 
 PCOD9262753
Probable space group: C 2/C
;
_chemical_formula_sum "Si O2"
_cell_formula_units_Z 32
_cell_length_a 17.990945
_cell_length_b 4.546590
_cell_length_c 13.701726
_cell_angle_alpha 90.000000
_cell_angle_beta 103.879375
_cell_angle_gamma 90.000000
_cell_volume 1088.043125
_symmetry_space_group_name_H-M "C 2/C"
_symmetry_group_IT_number 15
_symmetry_cell_setting 'monoclinic'
loop_
_space_group_symop_operation_xyz
x,y,z
-x,y,1/2-z
-x,-y,-z
x,-y,1/2+z
1/2+x,1/2+y,z
1/2-x,1/2+y,1/2-z
1/2-x,1/2-y,-z
1/2+x,1/2-y,1/2+z
loop_
_atom_site_type_symbol
_atom_site_label
_atom_site_fract_x
_atom_site_fract_y
_atom_site_fract_z
Si Si1 0.441503 0.709473 0.038775
Si Si2 0.647435 0.154417 0.409052
Si Si3 0.934407 0.292770 0.290363
Si Si4 0.779432 0.203674 0.316481
O O1 0.387926 0.472425 0.081275
O O2 0.507965 0.919479 0.110858
O O3 0.375132 0.954131 0.004989
O O4 0.500000 0.500000 0.000000
O O5 0.735257 0.138637 0.401687
O O6 0.605415 0.011209 0.299072
O O7 0.867422 0.124408 0.325206
O O8 0.000000 0.117309 0.250000
O O9 0.764588 0.542433 0.286368
#
# Coordination Sequence:
#
# PCOD9262753 Si02
#       4
#     8   8   8   8
#     4  11  23  40  59  86 119 153 190 238 289 340
#     4  10  21  38  58  84 115 153 193 236 285 340
#     4   9  20  35  59  85 109 147 192 232 277 336
#     4  10  19  33  55  85 114 143 187 240 282 328
#
# _framework density 29.410596999999999
#
# number of rings (size 3 to 8) (size 9 to 14) (size 15 to 20)
#    0.000    2.000    0.000    5.250    0.000   19.000 
#    0.000    2.500    0.000    0.000    0.000    0.000 
#    0.000    0.000    0.000    0.000    0.000    0.000 
#
# Total GULP energy -89138.079010 kJ/mol
# GULP energy per Si atom -5571.129938 kJ/mol
# Density = 2.934366 g / cm^3
# Si number density = 29.410597 Si / 1000 Ang^3
#
#
#
# Elastic Constant Matrix: (Units=GPa)
#
#
# Indices 1 2 3 4 5 6 
#
# 1 306.0959 34.8641 50.4328 0.0000 -76.7456 0.0000
# 2 34.8641 116.3368 8.1399 0.0000 -16.9034 0.0000
# 3 50.4328 8.1399 83.6452 0.0000 -15.0219 0.0000
# 4 0.0000 0.0000 0.0000 39.6325 0.0000 -12.0599
# 5 -76.7456 -16.9034 -15.0219 0.0000 74.3011 0.0000
# 6 0.0000 0.0000 0.0000 -12.0599 0.0000 44.7361
#
#
#
# Elastic Compliance Matrix: (Units=1/GPa)
#
#
# Indices 1 2 3 4 5 6 
#
# 1 0.004771 -0.000653 -0.002028 0.000000 0.004369 0.000000
# 2 -0.000653 0.009001 -0.000244 0.000000 0.001324 0.000000
# 3 -0.002028 -0.000244 0.013299 0.000000 0.000538 0.000000
# 4 0.000000 0.000000 0.000000 0.027487 0.000000 0.007410
# 5 0.004369 0.001324 0.000538 0.000000 0.018382 0.000000
# 6 0.000000 0.000000 0.000000 0.007410 0.000000 0.024351
#
#
# Mechanical properties :
#
#
# Convention : Reuss Voigt Hill
#
# Bulk Modulus (GPa) = 47.12795 76.99462 62.06129
# Shear Modulus (GPa) = 45.36613 59.24334 52.30473
#
# Velocity S-wave (km/s) = 3.93174 4.49302 4.22172
# Velocity P-wave (km/s) = 6.05561 7.29057 6.70160
#
# Compressibility (1/GPa) = 0.02121883
#
# Stress axis : x y z
#
# Youngs Moduli (GPa) = 209.59854 111.10033 75.19562
#
# Poissons Ratio (x) = 0.07255 0.15253
# Poissons Ratio (y) = 0.13687 0.01838
# Poissons Ratio (z) = 0.42515 0.02716
#
# Static dielectric constant tensor:
#      x y z
#    x 2.259120 0.000000 -0.013800 
#    y 0.000000 2.174700 0.000000 
#    z -0.013800 0.000000 3.092800 
# 
# From -- ./inp_files/207730.got.cif
#   From: 2010.05.17/outbox.cif.g08.bks.cpg/sg15_104_cif.got.tgz:207730.got - 2010.06.03 18:47:42.
