data_PCOD9262499
_publ_section_title
;
Structure prediction by ZEFSAII (Michael W. Deem and Ramdas Pophale) SiO2 
 PCOD9262499
Probable space group: C 2/C
;
_chemical_formula_sum "Si O2"
_cell_formula_units_Z 64
_cell_length_a 14.506800
_cell_length_b 14.937063
_cell_length_c 19.343170
_cell_angle_alpha 90.000000
_cell_angle_beta 51.916622
_cell_angle_gamma 90.000000
_cell_volume 3299.150443
_symmetry_space_group_name_H-M "C 2/C"
_symmetry_group_IT_number 15
_symmetry_cell_setting 'monoclinic'
loop_
_space_group_symop_operation_xyz
x,y,z
-x,y,1/2-z
-x,-y,-z
x,-y,1/2+z
1/2+x,1/2+y,z
1/2-x,1/2+y,1/2-z
1/2-x,1/2-y,-z
1/2+x,1/2-y,1/2+z
loop_
_atom_site_type_symbol
_atom_site_label
_atom_site_fract_x
_atom_site_fract_y
_atom_site_fract_z
Si Si1 0.051097 0.098587 0.803207
Si Si2 0.123659 0.220664 0.165055
Si Si3 0.967683 0.488261 0.847689
Si Si4 0.755283 0.601952 0.910024
Si Si5 0.464533 0.791272 0.686729
Si Si6 0.795086 0.444298 0.232381
Si Si7 0.973149 0.088179 0.404465
Si Si8 0.284076 0.351016 0.733469
O O1 0.000000 0.088521 0.750000
O O2 0.007241 0.192843 0.855631
O O3 0.011127 0.011408 0.864403
O O4 0.193612 0.100556 0.733798
O O5 0.197266 0.298913 0.095651
O O6 0.089495 0.139348 0.130628
O O7 0.189781 0.184264 0.201875
O O8 0.000000 0.260167 0.250000
O O9 0.839105 0.530523 0.909664
O O10 0.000000 0.487641 0.750000
O O11 0.980676 0.384844 0.866140
O O12 0.064024 0.551846 0.840783
O O13 0.772414 0.590385 0.820268
O O14 0.621392 0.588066 0.991731
O O15 0.500000 0.787358 0.750000
O O16 0.324341 0.799680 0.748137
O O17 0.761532 0.548073 0.243331
O O18 0.091939 0.144147 0.363051
#
# Coordination Sequence:
#
# PCOD9262499 Si02
#       8
#     8   8   8   8   8   8   8   8
#     4  10  19  33  53  75 101 141 182 217 259 311
#     4  10  19  34  54  77 104 139 177 214 260 316
#     4   8  16  31  50  75 101 129 170 218 257 303
#     4  11  20  32  54  82 110 136 168 215 275 322
#     4   9  17  31  53  75  97 131 181 224 252 296
#     4   9  17  31  52  76  99 133 175 214 254 307
#     4  10  21  34  51  81 113 136 165 218 275 319
#     4   9  18  33  54  76 102 135 174 218 259 304
#
# _framework density 19.398933
#
# number of rings (size 3 to 8) (size 9 to 14) (size 15 to 20)
#    0.000    2.500    0.000    4.875    0.000    3.000 
#    0.000    0.625    0.000   14.250    0.000    0.000 
#    0.000    0.000    0.000    0.000    0.000    0.000 
#
# Total GULP energy -178198.847326 kJ/mol
# GULP energy per Si atom -5568.713979 kJ/mol
# Density = 1.935478 g / cm^3
# Si number density = 19.398933 Si / 1000 Ang^3
#
#
#
# Elastic Constant Matrix: (Units=GPa)
#
#
# Indices 1 2 3 4 5 6 
#
# 1 90.1058 9.8189 -10.5402 0.0000 -16.7292 0.0000
# 2 9.8189 106.7955 8.6330 0.0000 -2.4072 0.0000
# 3 -10.5402 8.6330 25.8606 0.0000 -5.7320 0.0000
# 4 0.0000 0.0000 0.0000 11.0701 0.0000 -6.2824
# 5 -16.7292 -2.4072 -5.7320 0.0000 11.6979 0.0000
# 6 0.0000 0.0000 0.0000 -6.2824 0.0000 27.6414
#
#
#
# Elastic Compliance Matrix: (Units=1/GPa)
#
#
# Indices 1 2 3 4 5 6 
#
# 1 0.020218 -0.002420 0.017216 0.000000 0.036851 0.000000
# 2 -0.002420 0.009915 -0.005173 0.000000 -0.003955 0.000000
# 3 0.017216 -0.005173 0.059047 0.000000 0.052490 0.000000
# 4 0.000000 0.000000 0.000000 0.103711 0.000000 0.023572
# 5 0.036851 -0.003955 0.052490 0.000000 0.163093 0.000000
# 6 0.000000 0.000000 0.000000 0.023572 0.000000 0.041535
#
#
# Mechanical properties :
#
#
# Convention : Reuss Voigt Hill
#
# Bulk Modulus (GPa) = 9.22285 26.50948 17.86617
# Shear Modulus (GPa) = 12.06521 24.40522 18.23522
#
# Velocity S-wave (km/s) = 2.49660 3.55078 3.06929
# Velocity P-wave (km/s) = 3.61598 5.52320 4.66804
#
# Compressibility (1/GPa) = 0.10842635
#
# Stress axis : x y z
#
# Youngs Moduli (GPa) = 49.46209 100.85541 16.93568
#
# Poissons Ratio (x) = 0.24406 -0.29157
# Poissons Ratio (y) = 0.11969 0.08761
# Poissons Ratio (z) = -0.85155 0.52171
#
# Static dielectric constant tensor:
#      x y z
#    x 1.740790 0.000000 -0.032340 
#    y 0.000000 1.737220 0.000000 
#    z -0.032340 0.000000 1.632350 
# 
# From -- ./inp_files/274333.got.cif
#   From: 2010.05.17/outbox.cif.g08.bks.cpg/sg15_138_cif.got.tgz:274333.got - 2010.06.03 18:47:42.
