data_PCOD9262124
_publ_section_title
;
Structure prediction by ZEFSAII (Michael W. Deem and Ramdas Pophale) SiO2 
 PCOD9262124
Probable space group: C 2/C
;
_chemical_formula_sum "Si O2"
_cell_formula_units_Z 56
_cell_length_a 29.906590
_cell_length_b 11.317840
_cell_length_c 8.892357
_cell_angle_alpha 90.000000
_cell_angle_beta 113.065703
_cell_angle_gamma 90.000000
_cell_volume 2769.246946
_symmetry_space_group_name_H-M "C 2/C"
_symmetry_group_IT_number 15
_symmetry_cell_setting 'monoclinic'
loop_
_space_group_symop_operation_xyz
x,y,z
-x,y,1/2-z
-x,-y,-z
x,-y,1/2+z
1/2+x,1/2+y,z
1/2-x,1/2+y,1/2-z
1/2-x,1/2-y,-z
1/2+x,1/2-y,1/2+z
loop_
_atom_site_type_symbol
_atom_site_label
_atom_site_fract_x
_atom_site_fract_y
_atom_site_fract_z
Si Si1 0.529949 0.596019 0.437150
Si Si2 0.771206 0.492857 0.738751
Si Si3 0.689403 0.667719 0.548892
Si Si4 0.674068 0.887196 0.962350
Si Si5 0.191728 0.190554 0.225913
Si Si6 0.109747 0.758522 0.187126
Si Si7 0.622760 0.549372 0.959721
O O1 0.500000 0.632120 0.250000
O O2 0.500000 0.500000 0.500000
O O3 0.556555 0.710973 0.548073
O O4 0.574926 0.520336 0.435971
O O5 0.740217 0.615069 0.678547
O O6 0.786283 0.433706 0.602857
O O7 0.736952 0.398844 0.776877
O O8 0.820636 0.518946 0.895860
O O9 0.691388 0.739413 0.395462
O O10 0.653666 0.727047 0.623460
O O11 0.664130 0.543769 0.474211
O O12 0.624810 0.855926 0.807155
O O13 0.690037 0.769481 0.072811
O O14 0.141877 0.118354 0.131244
O O15 0.114931 0.865387 0.311068
#
# Coordination Sequence:
#
# PCOD9262124 Si02
#       7
#     8   8   8   8   8   8   8
#     4  11  20  33  59  90 125 152 180 227 290 367
#     4  11  22  37  56  80 108 158 205 245 276 328
#     4  10  19  32  54  78 114 156 200 232 286 331
#     4  11  25  39  56  78 117 151 206 247 288 338
#     4  10  21  35  56  80 116 154 198 238 285 337
#     4  10  22  36  54  83 119 158 185 237 293 349
#     4   9  18  33  51  83 122 161 180 223 289 342
#
# _framework density 20.222104000000002
#
# number of rings (size 3 to 8) (size 9 to 14) (size 15 to 20)
#    0.000    1.714    2.857    3.000    8.000    1.714 
#    0.000    0.000    0.000    0.000    0.000    1.000 
#    0.000    0.143    0.000    0.000    0.000    0.000 
#
# Total GULP energy -155938.999726 kJ/mol
# GULP energy per Si atom -5569.249990 kJ/mol
# Density = 2.017608 g / cm^3
# Si number density = 20.222104 Si / 1000 Ang^3
#
#
#
# Elastic Constant Matrix: (Units=GPa)
#
#
# Indices 1 2 3 4 5 6 
#
# 1 58.1939 7.5854 32.8165 0.0000 12.8750 0.0000
# 2 7.5854 26.4759 21.7952 0.0000 11.2750 0.0000
# 3 32.8165 21.7952 139.0902 0.0000 17.7751 0.0000
# 4 0.0000 0.0000 0.0000 33.2201 0.0000 3.3978
# 5 12.8750 11.2750 17.7751 0.0000 37.2702 0.0000
# 6 0.0000 0.0000 0.0000 3.3978 0.0000 18.5375
#
#
#
# Elastic Compliance Matrix: (Units=1/GPa)
#
#
# Indices 1 2 3 4 5 6 
#
# 1 0.020707 -0.000333 -0.004187 0.000000 -0.005056 0.000000
# 2 -0.000333 0.047621 -0.005918 0.000000 -0.011469 0.000000
# 3 -0.004187 -0.005918 0.009255 0.000000 -0.001177 0.000000
# 4 0.000000 0.000000 0.000000 0.030677 0.000000 -0.005623
# 5 -0.005056 -0.011469 -0.001177 0.000000 0.032609 0.000000
# 6 0.000000 0.000000 0.000000 -0.005623 0.000000 0.054975
#
#
# Mechanical properties :
#
#
# Convention : Reuss Voigt Hill
#
# Bulk Modulus (GPa) = 17.63421 38.68379 28.15900
# Shear Modulus (GPa) = 21.22025 28.57642 24.89834
#
# Velocity S-wave (km/s) = 3.24290 3.76324 3.51271
# Velocity P-wave (km/s) = 4.77085 6.16876 5.51428
#
# Compressibility (1/GPa) = 0.05670795
#
# Stress axis : x y z
#
# Youngs Moduli (GPa) = 48.29258 20.99894 108.04589
#
# Poissons Ratio (x) = 0.00698 0.45243
# Poissons Ratio (y) = 0.01606 0.63942
# Poissons Ratio (z) = 0.20222 0.12427
#
# Static dielectric constant tensor:
#      x y z
#    x 1.746020 0.000000 0.004370 
#    y 0.000000 1.827700 0.000000 
#    z 0.004370 0.000000 1.834810 
# 
# From -- ./inp_files/69158.got.cif
#   From: 2010.05.17/outbox.cif.g08.bks.cpg/sg15_35_cif.got.tgz:69158.got - 2010.06.03 18:47:42.
