data_PCOD9262862
_publ_section_title
;
Structure prediction by ZEFSAII (Michael W. Deem and Ramdas Pophale) SiO2 
 PCOD9262862
Probable space group: C 2/C
;
_chemical_formula_sum "Si O2"
_cell_formula_units_Z 48
_cell_length_a 27.140601
_cell_length_b 5.761465
_cell_length_c 13.335581
_cell_angle_alpha 90.000000
_cell_angle_beta 58.599166
_cell_angle_gamma 90.000000
_cell_volume 1779.876396
_symmetry_space_group_name_H-M "C 2/C"
_symmetry_group_IT_number 15
_symmetry_cell_setting 'monoclinic'
loop_
_space_group_symop_operation_xyz
x,y,z
-x,y,1/2-z
-x,-y,-z
x,-y,1/2+z
1/2+x,1/2+y,z
1/2-x,1/2+y,1/2-z
1/2-x,1/2-y,-z
1/2+x,1/2-y,1/2+z
loop_
_atom_site_type_symbol
_atom_site_label
_atom_site_fract_x
_atom_site_fract_y
_atom_site_fract_z
Si Si1 0.323680 0.138458 0.262515
Si Si2 0.659931 0.815879 0.524103
Si Si3 0.940940 0.097705 0.962426
Si Si4 0.188704 0.810234 0.515259
Si Si5 0.546810 0.196004 0.436866
Si Si6 0.158965 0.855183 0.767457
O O1 0.316509 0.153900 0.389404
O O2 0.392970 0.130720 0.173573
O O3 0.308838 0.400950 0.246325
O O4 0.306033 0.880673 0.246275
O O5 0.592451 0.749027 0.583582
O O6 0.687265 0.564238 0.463479
O O7 0.671581 0.078115 0.471440
O O8 0.899564 0.147766 0.104573
O O9 0.939571 0.819440 0.970866
O O10 0.008339 0.144494 0.904167
O O11 0.250000 0.750000 0.500000
O O12 0.148513 0.843199 0.657950
O O13 0.500000 0.000000 0.500000
#
# Coordination Sequence:
#
# PCOD9262862 Si02
#       6
#     8   8   8   8   8   8
#     4   9  18  34  52  78 108 150 182 218 272 323
#     4  10  22  36  59  83 114 140 187 238 279 327
#     4  10  21  34  54  86 112 150 188 230 271 322
#     4  10  21  40  60  80 107 147 185 231 292 348
#     4  10  19  33  57  78 116 155 190 216 266 338
#     4   9  18  34  55  77 108 145 180 220 281 338
#
# _framework density 26.968166
#
# number of rings (size 3 to 8) (size 9 to 14) (size 15 to 20)
#    0.000    2.333    1.667    0.500    2.333    0.667 
#    0.000    1.667    0.000    0.000    0.000    0.000 
#    0.000    0.000    0.000    0.000    0.000    0.000 
#
# Total GULP energy -133691.838337 kJ/mol
# GULP energy per Si atom -5570.493264 kJ/mol
# Density = 2.690679 g / cm^3
# Si number density = 26.968166 Si / 1000 Ang^3
#
#
#
# Elastic Constant Matrix: (Units=GPa)
#
#
# Indices 1 2 3 4 5 6 
#
# 1 132.8335 54.5241 0.7578 0.0000 -5.8050 0.0000
# 2 54.5241 304.4886 20.9517 0.0001 10.2887 0.0002
# 3 0.7578 20.9517 65.3635 0.0000 0.9333 0.0000
# 4 0.0000 0.0001 0.0000 28.7931 0.0000 -4.7286
# 5 -5.8050 10.2887 0.9333 0.0000 22.5687 0.0000
# 6 0.0000 0.0002 0.0000 -4.7286 0.0000 36.1619
#
#
#
# Elastic Compliance Matrix: (Units=1/GPa)
#
#
# Indices 1 2 3 4 5 6 
#
# 1 0.008312 -0.001611 0.000379 0.000000 0.002857 0.000000
# 2 -0.001611 0.003721 -0.001145 0.000000 -0.002063 0.000000
# 3 0.000379 -0.001145 0.015662 0.000000 -0.000028 0.000000
# 4 0.000000 0.000000 0.000000 0.035493 0.000000 0.004641
# 5 0.002857 -0.002063 -0.000028 0.000000 0.045986 0.000000
# 6 0.000000 0.000000 0.000000 0.004641 0.000000 0.028260
#
#
# Mechanical properties :
#
#
# Convention : Reuss Voigt Hill
#
# Bulk Modulus (GPa) = 43.58740 72.79477 58.19108
# Shear Modulus (GPa) = 33.37009 45.93485 39.65247
#
# Velocity S-wave (km/s) = 3.52147 4.13158 3.83867
# Velocity P-wave (km/s) = 5.72118 7.05772 6.42430
#
# Compressibility (1/GPa) = 0.02294241
#
# Stress axis : x y z
#
# Youngs Moduli (GPa) = 120.30502 268.73229 63.84891
#
# Poissons Ratio (x) = 0.43295 -0.02421
# Poissons Ratio (y) = 0.19382 0.07308
# Poissons Ratio (z) = -0.04563 0.30760
#
# Static dielectric constant tensor:
#      x y z
#    x 2.133800 0.000000 0.030560 
#    y 0.000000 2.910520 0.000000 
#    z 0.030560 0.000000 2.144620 
# 
# From -- ./inp_files/179674.got.cif
#   From: 2010.05.17/outbox.cif.g08.bks.cpg/sg15_90_cif.got.tgz:179674.got - 2010.06.03 18:47:42.
