data_PCOD9262338
_publ_section_title
;
Structure prediction by ZEFSAII (Michael W. Deem and Ramdas Pophale) SiO2 
 PCOD9262338
Probable space group: C 2/C
;
_chemical_formula_sum "Si O2"
_cell_formula_units_Z 52
_cell_length_a 8.802860
_cell_length_b 16.713514
_cell_length_c 16.572931
_cell_angle_alpha 90.000000
_cell_angle_beta 88.366764
_cell_angle_gamma 90.000000
_cell_volume 2437.330475
_symmetry_space_group_name_H-M "C 2/C"
_symmetry_group_IT_number 15
_symmetry_cell_setting 'monoclinic'
loop_
_space_group_symop_operation_xyz
x,y,z
-x,y,1/2-z
-x,-y,-z
x,-y,1/2+z
1/2+x,1/2+y,z
1/2-x,1/2+y,1/2-z
1/2-x,1/2-y,-z
1/2+x,1/2-y,1/2+z
loop_
_atom_site_type_symbol
_atom_site_label
_atom_site_fract_x
_atom_site_fract_y
_atom_site_fract_z
Si Si1 0.802645 0.053064 0.456308
Si Si2 0.561749 0.262589 0.407291
Si Si3 0.500000 0.311276 0.750000
Si Si4 0.535328 0.561772 0.874995
Si Si5 0.592852 0.731906 0.083173
Si Si6 0.531066 0.916034 0.867129
Si Si7 0.755414 0.948706 0.719631
O O1 0.861179 0.048385 0.546289
O O2 0.869990 0.137182 0.422673
O O3 0.622252 0.059488 0.446171
O O4 0.882693 0.985447 0.401039
O O5 0.503449 0.343939 0.369046
O O6 0.507652 0.249626 0.501001
O O7 0.743844 0.274590 0.415465
O O8 0.536056 0.180637 0.360836
O O9 0.484767 0.257831 0.829983
O O10 0.358317 0.370541 0.734770
O O11 0.631478 0.521437 0.801949
O O12 0.860483 0.452834 0.703881
O O13 0.358297 0.939436 0.854747
#
# Coordination Sequence:
#
# PCOD9262338 Si02
#       7
#     8   8   4   8   8   8   8
#     4   9  17  34  57  84 112 148 190 230 280 357
#     4   9  18  36  58  88 111 151 192 239 278 349
#     4  12  18  36  62  86 106 156 204 232 274 362
#     4  10  19  32  62  86 110 144 202 238 278 332
#     4   9  17  32  62  83 113 152 195 229 290 339
#     4  10  21  39  58  80 121 158 191 225 306 353
#     4  11  21  35  60  84 113 157 189 235 291 356
#
# _framework density 21.334817000000001
#
# number of rings (size 3 to 8) (size 9 to 14) (size 15 to 20)
#    0.000    2.154    4.615    0.923    0.000    0.615 
#    0.000    6.923    3.385    0.000    0.000    0.000 
#    0.000    0.000    0.000    0.000    0.000    0.000 
#
# Total GULP energy -144980.442372 kJ/mol
# GULP energy per Si atom -5576.170860 kJ/mol
# Density = 2.128626 g / cm^3
# Si number density = 21.334817 Si / 1000 Ang^3
#
#
#
# Elastic Constant Matrix: (Units=GPa)
#
#
# Indices 1 2 3 4 5 6 
#
# 1 81.2144 23.2999 12.0882 0.0000 23.2247 0.0000
# 2 23.2999 98.1539 14.3564 0.0000 -7.8380 0.0000
# 3 12.0882 14.3564 79.6396 0.0000 -12.6376 0.0000
# 4 0.0000 0.0000 0.0000 20.2102 0.0000 -0.9362
# 5 23.2247 -7.8380 -12.6376 0.0000 38.6969 0.0000
# 6 0.0000 0.0000 0.0000 -0.9362 0.0000 24.3061
#
#
#
# Elastic Compliance Matrix: (Units=1/GPa)
#
#
# Indices 1 2 3 4 5 6 
#
# 1 0.017989 -0.004735 -0.003947 0.000000 -0.013045 0.000000
# 2 -0.004735 0.011803 -0.000610 0.000000 0.005033 0.000000
# 3 -0.003947 -0.000610 0.014367 0.000000 0.006937 0.000000
# 4 0.000000 0.000000 0.000000 0.049568 0.000000 0.001909
# 5 -0.013045 0.005033 0.006937 0.000000 0.036956 0.000000
# 6 0.000000 0.000000 0.000000 0.001909 0.000000 0.041215
#
#
# Mechanical properties :
#
#
# Convention : Reuss Voigt Hill
#
# Bulk Modulus (GPa) = 39.10100 39.83297 39.46698
# Shear Modulus (GPa) = 25.12465 30.59353 27.85909
#
# Velocity S-wave (km/s) = 3.43539 3.79089 3.61751
# Velocity P-wave (km/s) = 5.83978 6.15403 5.99896
#
# Compressibility (1/GPa) = 0.02557480
#
# Stress axis : x y z
#
# Youngs Moduli (GPa) = 55.58866 84.72283 69.60635
#
# Poissons Ratio (x) = 0.40114 0.27474
# Poissons Ratio (y) = 0.26319 0.04249
# Poissons Ratio (z) = 0.21941 0.05171
#
# Static dielectric constant tensor:
#      x y z
#    x 1.774290 0.000000 0.022160 
#    y 0.000000 1.745120 0.000000 
#    z 0.022160 0.000000 1.895710 
# 
# From -- ./inp_files/231214.got.cif
#   From: 2010.05.17/outbox.cif.g08.bks.cpg/sg15_116_cif.got.tgz:231214.got - 2010.06.03 18:47:42.
