data_PCOD9262507
_publ_section_title
;
Structure prediction by ZEFSAII (Michael W. Deem and Ramdas Pophale) SiO2 
 PCOD9262507
Probable space group: C 2/C
;
_chemical_formula_sum "Si O2"
_cell_formula_units_Z 56
_cell_length_a 18.963773
_cell_length_b 28.826303
_cell_length_c 8.955348
_cell_angle_alpha 90.000000
_cell_angle_beta 143.090370
_cell_angle_gamma 90.000000
_cell_volume 2940.009120
_symmetry_space_group_name_H-M "C 2/C"
_symmetry_group_IT_number 15
_symmetry_cell_setting 'monoclinic'
loop_
_space_group_symop_operation_xyz
x,y,z
-x,y,1/2-z
-x,-y,-z
x,-y,1/2+z
1/2+x,1/2+y,z
1/2-x,1/2+y,1/2-z
1/2-x,1/2-y,-z
1/2+x,1/2-y,1/2+z
loop_
_atom_site_type_symbol
_atom_site_label
_atom_site_fract_x
_atom_site_fract_y
_atom_site_fract_z
Si Si1 0.843328 0.561298 0.865662
Si Si2 0.604177 0.882980 0.310509
Si Si3 0.870647 0.869737 0.459921
Si Si4 0.770522 0.478799 0.535727
Si Si5 0.684316 0.442410 0.690733
Si Si6 0.777788 0.803725 0.535262
Si Si7 0.019339 0.857037 0.449436
O O1 0.921920 0.595984 0.898606
O O2 0.716496 0.588031 0.651397
O O3 0.838979 0.514442 0.760481
O O4 0.854697 0.547452 0.059227
O O5 0.500000 0.881406 0.250000
O O6 0.701297 0.916548 0.549790
O O7 0.665519 0.833485 0.395481
O O8 0.813130 0.823863 0.433125
O O9 0.899245 0.861364 0.336853
O O10 0.000000 0.877848 0.750000
O O11 0.700286 0.449382 0.540291
O O12 0.684928 0.509206 0.283010
O O13 0.578661 0.407987 0.547616
O O14 0.750000 0.750000 0.500000
O O15 0.888929 0.821736 0.819389
O O16 0.000000 0.841686 0.250000
#
# Coordination Sequence:
#
# PCOD9262507 Si02
#       7
#     8   8   8   8   8   8   8
#     4   9  17  30  44  65  96 129 166 205 241 281
#     4   9  18  33  52  71  95 127 166 208 251 298
#     4   9  17  31  49  69  98 131 159 194 245 302
#     4   9  16  30  47  65  99 135 167 210 241 276
#     4   9  18  32  47  71 104 135 170 208 245 285
#     4   9  19  35  56  78  98 125 163 204 252 312
#     4  10  19  33  53  77 104 134 164 201 252 304
#
# _framework density 19.047561000000002
#
# number of rings (size 3 to 8) (size 9 to 14) (size 15 to 20)
#    0.000    2.857    0.000    3.429    0.000    1.714 
#    0.000   27.143    0.000    3.429    0.000    0.000 
#    0.000    0.000    0.000    0.000    0.000    0.000 
#
# Total GULP energy -156004.107500 kJ/mol
# GULP energy per Si atom -5571.575268 kJ/mol
# Density = 1.900421 g / cm^3
# Si number density = 19.047561 Si / 1000 Ang^3
#
#
#
# Elastic Constant Matrix: (Units=GPa)
#
#
# Indices 1 2 3 4 5 6 
#
# 1 183.1491 57.6170 34.0176 0.0000 -20.1819 0.0000
# 2 57.6170 113.0929 22.2227 0.0000 -8.0809 0.0000
# 3 34.0176 22.2227 32.1725 0.0000 -12.6273 0.0000
# 4 0.0000 0.0000 0.0000 5.3294 0.0000 -3.2428
# 5 -20.1819 -8.0809 -12.6273 0.0000 31.8273 0.0000
# 6 0.0000 0.0000 0.0000 -3.2428 0.0000 17.4600
#
#
#
# Elastic Compliance Matrix: (Units=1/GPa)
#
#
# Indices 1 2 3 4 5 6 
#
# 1 0.007495 -0.002629 -0.005336 0.000000 0.001968 0.000000
# 2 -0.002629 0.011155 -0.005292 0.000000 -0.000935 0.000000
# 3 -0.005336 -0.005292 0.045630 0.000000 0.013376 0.000000
# 4 0.000000 0.000000 0.000000 0.211544 0.000000 0.039289
# 5 0.001968 -0.000935 0.013376 0.000000 0.037737 0.000000
# 6 0.000000 0.000000 0.000000 0.039289 0.000000 0.064571
#
#
# Mechanical properties :
#
#
# Convention : Reuss Voigt Hill
#
# Bulk Modulus (GPa) = 26.47957 61.79211 44.13584
# Shear Modulus (GPa) = 11.98366 25.22717 18.60541
#
# Velocity S-wave (km/s) = 2.51100 3.64322 3.12875
# Velocity P-wave (km/s) = 4.72639 7.08582 6.02277
#
# Compressibility (1/GPa) = 0.03776497
#
# Stress axis : x y z
#
# Youngs Moduli (GPa) = 133.41802 89.64670 21.91541
#
# Poissons Ratio (x) = 0.23571 0.11695
# Poissons Ratio (y) = 0.35080 0.11597
# Poissons Ratio (z) = 0.71198 0.47439
#
# Static dielectric constant tensor:
#      x y z
#    x 1.720880 0.000000 -0.023520 
#    y 0.000000 1.660610 0.000000 
#    z -0.023520 0.000000 1.716540 
# 
# From -- ./inp_files/34153.got.cif
#   From: 2010.05.17/outbox.cif.g08.bks.cpg/sg15_18_cif.got.tgz:34153.got - 2010.06.03 18:47:42.
