data_PCOD9262799
_publ_section_title
;
Structure prediction by ZEFSAII (Michael W. Deem and Ramdas Pophale) SiO2 
 PCOD9262799
Probable space group: C 2/C
;
_chemical_formula_sum "Si O2"
_cell_formula_units_Z 44
_cell_length_a 14.963034
_cell_length_b 8.375558
_cell_length_c 18.197868
_cell_angle_alpha 90.000000
_cell_angle_beta 79.941651
_cell_angle_gamma 90.000000
_cell_volume 2245.572933
_symmetry_space_group_name_H-M "C 2/C"
_symmetry_group_IT_number 15
_symmetry_cell_setting 'monoclinic'
loop_
_space_group_symop_operation_xyz
x,y,z
-x,y,1/2-z
-x,-y,-z
x,-y,1/2+z
1/2+x,1/2+y,z
1/2-x,1/2+y,1/2-z
1/2-x,1/2-y,-z
1/2+x,1/2-y,1/2+z
loop_
_atom_site_type_symbol
_atom_site_label
_atom_site_fract_x
_atom_site_fract_y
_atom_site_fract_z
Si Si1 0.295981 0.329268 0.168010
Si Si2 0.311285 0.127347 0.036892
Si Si3 0.000000 0.639156 0.750000
Si Si4 0.336384 0.336067 0.705284
Si Si5 0.236635 0.803183 0.085736
Si Si6 0.624222 0.016346 0.117170
O O1 0.350028 0.229898 0.098832
O O2 0.348383 0.474476 0.198066
O O3 0.251361 0.210202 0.233058
O O4 0.211466 0.422686 0.140250
O O5 0.245642 0.993096 0.082238
O O6 0.250000 0.250000 0.000000
O O7 0.376240 0.042038 0.967894
O O8 0.079387 0.748888 0.770488
O O9 0.039675 0.534671 0.677786
O O10 0.314928 0.263106 0.628121
O O11 0.147174 0.703996 0.120349
O O12 0.250000 0.750000 0.000000
#
# Coordination Sequence:
#
# PCOD9262799 Si02
#       6
#     8   8   4   8   8   8
#     4   9  17  30  53  78 103 146 197 233 270 330
#     4   9  16  30  54  81 107 140 189 240 274 320
#     4  10  20  36  56  86 124 150 176 234 302 348
#     4  10  19  33  56  82 112 150 189 235 287 339
#     4   9  17  32  55  81 103 140 193 233 270 333
#     4   8  17  32  53  79 110 146 182 228 284 338
#
# _framework density 19.594107999999999
#
# number of rings (size 3 to 8) (size 9 to 14) (size 15 to 20)
#    0.000    2.909    0.000    2.182    0.000    0.000 
#    0.000    4.545    0.000   53.455    0.000    0.000 
#    0.000    0.000    0.000    0.000    0.000    0.000 
#
# Total GULP energy -122515.067011 kJ/mol
# GULP energy per Si atom -5568.866682 kJ/mol
# Density = 1.954951 g / cm^3
# Si number density = 19.594108 Si / 1000 Ang^3
#
#
#
# Elastic Constant Matrix: (Units=GPa)
#
#
# Indices 1 2 3 4 5 6 
#
# 1 39.0222 21.3248 32.3722 0.0000 -10.5677 0.0000
# 2 21.3248 143.9576 50.4110 0.0000 -14.3180 0.0000
# 3 32.3722 50.4110 117.2451 0.0000 -6.5542 0.0000
# 4 0.0000 0.0000 0.0000 14.7644 0.0000 13.5540
# 5 -10.5677 -14.3180 -6.5542 0.0000 26.8405 0.0000
# 6 0.0000 0.0000 0.0000 13.5540 0.0000 9.1406
#
#
#
# Elastic Compliance Matrix: (Units=1/GPa)
#
#
# Indices 1 2 3 4 5 6 
#
# 1 0.036933 -0.001134 -0.009054 0.000000 0.011725 0.000000
# 2 -0.001134 0.008561 -0.003181 0.000000 0.003344 0.000000
# 3 -0.009054 -0.003181 0.012270 0.000000 -0.002265 0.000000
# 4 0.000000 0.000000 0.000000 -0.187478 0.000000 0.277998
# 5 0.011725 0.003344 -0.002265 0.000000 0.043104 0.000000
# 6 0.000000 0.000000 0.000000 0.277998 0.000000 -0.302823
#
#
# Mechanical properties :
#
#
# Convention : Reuss Voigt Hill
#
# Bulk Modulus (GPa) = 32.23169 56.49344 44.36256
# Shear Modulus (GPa) = -14.19033 23.22357 4.51662
#
# Velocity S-wave (km/s) = -2.69404 3.44645 1.51990
# Velocity P-wave (km/s) = 2.60926 6.68819 5.07642
#
# Compressibility (1/GPa) = 0.03102537
#
# Stress axis : x y z
#
# Youngs Moduli (GPa) = 27.07609 116.81020 81.49890
#
# Poissons Ratio (x) = 0.13248 0.73792
# Poissons Ratio (y) = 0.03071 0.25923
# Poissons Ratio (z) = 0.24516 0.37155
#
# Static dielectric constant tensor:
#      x y z
#    x 1.669170 0.000000 0.012430 
#    y 0.000000 1.741980 0.000000 
#    z 0.012430 0.000000 1.735490 
# 
# From -- ./inp_files/202687.got.cif
#   From: 2010.05.17/outbox.cif.g08.bks.cpg/sg15_102_cif.got.tgz:202687.got - 2010.06.03 18:47:42.
