data_PCOD9262579
_publ_section_title
;
Structure prediction by ZEFSAII (Michael W. Deem and Ramdas Pophale) SiO2 
 PCOD9262579
Probable space group: C 2/C
;
_chemical_formula_sum "Si O2"
_cell_formula_units_Z 56
_cell_length_a 13.651360
_cell_length_b 28.300051
_cell_length_c 15.110716
_cell_angle_alpha 90.000000
_cell_angle_beta 31.493215
_cell_angle_gamma 90.000000
_cell_volume 3049.645415
_symmetry_space_group_name_H-M "C 2/C"
_symmetry_group_IT_number 15
_symmetry_cell_setting 'monoclinic'
loop_
_space_group_symop_operation_xyz
x,y,z
-x,y,1/2-z
-x,-y,-z
x,-y,1/2+z
1/2+x,1/2+y,z
1/2-x,1/2+y,1/2-z
1/2-x,1/2-y,-z
1/2+x,1/2-y,1/2+z
loop_
_atom_site_type_symbol
_atom_site_label
_atom_site_fract_x
_atom_site_fract_y
_atom_site_fract_z
Si Si1 0.834578 0.805563 0.505873
Si Si2 0.916466 0.449466 0.215621
Si Si3 0.178060 0.405621 0.682768
Si Si4 0.728804 0.983778 0.406262
Si Si5 0.592501 0.496651 0.038395
Si Si6 0.761275 0.293359 0.117044
Si Si7 0.068924 0.390172 0.462971
O O1 0.773949 0.856207 0.586175
O O2 0.801147 0.762170 0.598809
O O3 0.716689 0.798707 0.506126
O O4 0.049798 0.803441 0.310097
O O5 0.701761 0.463548 0.399390
O O6 0.944759 0.405884 0.128058
O O7 0.000000 0.443752 0.250000
O O8 0.027383 0.491453 0.077390
O O9 0.329385 0.447017 0.557845
O O10 0.000000 0.413647 0.750000
O O11 0.104263 0.400872 0.839386
O O12 0.823489 0.994250 0.427227
O O13 0.715797 0.928074 0.393282
O O14 0.871884 0.003640 0.222684
O O15 0.880708 0.335380 0.066913
#
# Coordination Sequence:
#
# PCOD9262579 Si02
#       7
#     8   8   8   8   8   8   8
#     4  10  20  33  51  76 113 140 172 210 265 323
#     4  10  22  40  52  72 106 145 185 236 266 304
#     4  12  19  31  51  79 111 145 173 218 266 318
#     4  10  19  33  54  77 102 143 182 220 266 325
#     4  10  19  34  53  75 110 143 179 219 272 315
#     4  10  20  33  51  78 106 146 175 209 262 330
#     4  12  21  33  53  78 107 142 185 216 268 323
#
# _framework density 18.36279
#
# number of rings (size 3 to 8) (size 9 to 14) (size 15 to 20)
#    0.000    1.429    4.286    2.571    2.000    2.857 
#    2.571    0.000    0.000    0.000    0.000    4.000 
#    0.000    0.000    0.000    0.000    0.000    0.000 
#
# Total GULP energy -156109.331057 kJ/mol
# GULP energy per Si atom -5575.333252 kJ/mol
# Density = 1.832100 g / cm^3
# Si number density = 18.362790 Si / 1000 Ang^3
#
#
#
# Elastic Constant Matrix: (Units=GPa)
#
#
# Indices 1 2 3 4 5 6 
#
# 1 58.6239 17.1562 24.8789 -0.0010 24.5380 0.0016
# 2 17.1562 90.9014 33.9807 0.0002 10.4476 0.0000
# 3 24.8789 33.9807 127.0453 -0.0011 9.6036 0.0017
# 4 -0.0010 0.0002 -0.0011 32.1427 0.0010 6.5489
# 5 24.5380 10.4476 9.6036 0.0010 26.8998 -0.0017
# 6 0.0016 0.0000 0.0017 6.5489 -0.0017 23.7306
#
#
#
# Elastic Compliance Matrix: (Units=1/GPa)
#
#
# Indices 1 2 3 4 5 6 
#
# 1 0.029439 -0.001364 -0.003505 0.000002 -0.025074 -0.000004
# 2 -0.001364 0.012651 -0.002918 0.000000 -0.002627 0.000000
# 3 -0.003505 -0.002918 0.009261 0.000000 0.001024 0.000000
# 4 0.000002 0.000000 0.000000 0.032965 -0.000004 -0.009097
# 5 -0.025074 -0.002627 0.001024 -0.000004 0.060702 0.000007
# 6 -0.000004 0.000000 0.000000 -0.009097 0.000007 0.044650
#
#
# Mechanical properties :
#
#
# Convention : Reuss Voigt Hill
#
# Bulk Modulus (GPa) = 27.95088 47.62248 37.78668
# Shear Modulus (GPa) = 23.02364 29.92493 26.47428
#
# Velocity S-wave (km/s) = 3.54477 4.04127 3.80114
# Velocity P-wave (km/s) = 5.65760 6.91132 6.31565
#
# Compressibility (1/GPa) = 0.03577705
#
# Stress axis : x y z
#
# Youngs Moduli (GPa) = 33.96805 79.04383 107.98441
#
# Poissons Ratio (x) = 0.10784 0.37846
# Poissons Ratio (y) = 0.04634 0.31510
# Poissons Ratio (z) = 0.11905 0.23065
#
# Static dielectric constant tensor:
#      x y z
#    x 1.685020 0.000000 -0.023070 
#    y 0.000000 1.649880 0.000000 
#    z -0.023070 0.000000 1.676370 
# 
# From -- ./inp_files/157189.got.cif
#   From: 2010.05.17/outbox.cif.g08.bks.cpg/sg15_79_cif.got.tgz:157189.got - 2010.06.03 18:47:42.
