data_PCOD9262328
_publ_section_title
;
Structure prediction by ZEFSAII (Michael W. Deem and Ramdas Pophale) SiO2 
 PCOD9262328
Probable space group: C 2/C
;
_chemical_formula_sum "Si O2"
_cell_formula_units_Z 60
_cell_length_a 10.373154
_cell_length_b 15.796816
_cell_length_c 20.918665
_cell_angle_alpha 90.000000
_cell_angle_beta 122.777712
_cell_angle_gamma 90.000000
_cell_volume 2882.008843
_symmetry_space_group_name_H-M "C 2/C"
_symmetry_group_IT_number 15
_symmetry_cell_setting 'monoclinic'
loop_
_space_group_symop_operation_xyz
x,y,z
-x,y,1/2-z
-x,-y,-z
x,-y,1/2+z
1/2+x,1/2+y,z
1/2-x,1/2+y,1/2-z
1/2-x,1/2-y,-z
1/2+x,1/2-y,1/2+z
loop_
_atom_site_type_symbol
_atom_site_label
_atom_site_fract_x
_atom_site_fract_y
_atom_site_fract_z
Si Si1 0.542953 0.007187 0.586194
Si Si2 0.354581 0.741841 0.932619
Si Si3 0.773347 0.271494 0.663490
Si Si4 0.673020 0.664137 0.007805
Si Si5 0.687338 0.856794 0.693925
Si Si6 0.000000 0.959751 0.750000
Si Si7 0.050326 0.322233 0.416385
Si Si8 0.147689 0.906697 0.368658
O O1 0.444281 0.078119 0.594930
O O2 0.707438 0.053510 0.628194
O O3 0.500000 0.000000 0.500000
O O4 0.563149 0.922413 0.631854
O O5 0.490078 0.673884 0.967558
O O6 0.329195 0.776079 0.855739
O O7 0.191911 0.717406 0.917583
O O8 0.421108 0.811665 0.999720
O O9 0.743787 0.336559 0.597226
O O10 0.832143 0.323647 0.739721
O O11 0.607795 0.228629 0.637931
O O12 0.868186 0.189811 0.661832
O O13 0.689241 0.597539 0.954937
O O14 0.750000 0.750000 0.000000
O O15 0.853023 0.900615 0.724948
O O16 0.018865 0.025724 0.814511
#
# Coordination Sequence:
#
# PCOD9262328 Si02
#       8
#     8   8   8   8   8   4   8   8
#     4  10  19  36  61  85 116 157 194 240 303 359
#     4  10  19  32  61  88 108 154 197 242 290 349
#     4   9  19  36  59  86 114 147 196 254 285 342
#     4   9  19  37  60  83 112 148 200 238 283 349
#     4  11  21  34  60  90 117 149 199 252 297 349
#     4  10  22  36  54  90 120 152 190 244 304 348
#     4   9  18  35  56  86 118 148 200 241 292 355
#     4   9  20  37  60  80 114 160 194 236 288 363
#
# _framework density 20.818812999999999
#
# number of rings (size 3 to 8) (size 9 to 14) (size 15 to 20)
#    0.000    2.400    1.333    1.600    1.867    0.000 
#    0.000    0.667    0.000    1.600    0.000    0.000 
#    0.000    0.000    0.000    0.000    0.000    0.000 
#
# Total GULP energy -167171.765206 kJ/mol
# GULP energy per Si atom -5572.392174 kJ/mol
# Density = 2.077143 g / cm^3
# Si number density = 20.818813 Si / 1000 Ang^3
#
#
#
# Elastic Constant Matrix: (Units=GPa)
#
#
# Indices 1 2 3 4 5 6 
#
# 1 45.0535 5.8949 2.0089 0.0000 -1.2308 0.0000
# 2 5.8949 51.1864 39.9418 0.0000 -5.7781 0.0000
# 3 2.0089 39.9418 149.5434 0.0000 -24.6848 0.0000
# 4 0.0000 0.0000 0.0000 25.8226 0.0000 -0.2910
# 5 -1.2308 -5.7781 -24.6848 0.0000 29.1008 0.0000
# 6 0.0000 0.0000 0.0000 -0.2910 0.0000 14.3901
#
#
#
# Elastic Compliance Matrix: (Units=1/GPa)
#
#
# Indices 1 2 3 4 5 6 
#
# 1 0.022585 -0.003005 0.000649 0.000000 0.000909 0.000000
# 2 -0.003005 0.025096 -0.006815 0.000000 -0.000925 0.000000
# 3 0.000649 -0.006815 0.009628 0.000000 0.006841 0.000000
# 4 0.000000 0.000000 0.000000 0.038735 0.000000 0.000783
# 5 0.000909 -0.000925 0.006841 0.000000 0.040021 0.000000
# 6 0.000000 0.000000 0.000000 0.000783 0.000000 0.069508
#
#
# Mechanical properties :
#
#
# Convention : Reuss Voigt Hill
#
# Bulk Modulus (GPa) = 25.66278 37.94160 31.80219
# Shear Modulus (GPa) = 21.10561 27.05855 24.08208
#
# Velocity S-wave (km/s) = 3.18744 3.60907 3.40479
# Velocity P-wave (km/s) = 5.08919 5.96920 5.54668
#
# Compressibility (1/GPa) = 0.03896694
#
# Stress axis : x y z
#
# Youngs Moduli (GPa) = 44.27735 39.84659 103.86520
#
# Poissons Ratio (x) = 0.11974 -0.06744
# Poissons Ratio (y) = 0.13305 0.70788
# Poissons Ratio (z) = -0.02875 0.27157
#
# Static dielectric constant tensor:
#      x y z
#    x 1.774960 0.000000 0.057240 
#    y 0.000000 1.791950 0.000000 
#    z 0.057240 0.000000 1.788470 
# 
# From -- ./inp_files/199531.got.cif
#   From: 2010.05.17/outbox.cif.g08.bks.cpg/sg15_100_cif.got.tgz:199531.got - 2010.06.03 18:47:42.
