data_PCOD9262100
_publ_section_title
;
Structure prediction by ZEFSAII (Michael W. Deem and Ramdas Pophale) SiO2 
 PCOD9262100
Probable space group: C 2/C
;
_chemical_formula_sum "Si O2"
_cell_formula_units_Z 56
_cell_length_a 15.440325
_cell_length_b 17.965588
_cell_length_c 8.469197
_cell_angle_alpha 90.000000
_cell_angle_beta 98.929219
_cell_angle_gamma 90.000000
_cell_volume 2320.837166
_symmetry_space_group_name_H-M "C 2/C"
_symmetry_group_IT_number 15
_symmetry_cell_setting 'monoclinic'
loop_
_space_group_symop_operation_xyz
x,y,z
-x,y,1/2-z
-x,-y,-z
x,-y,1/2+z
1/2+x,1/2+y,z
1/2-x,1/2+y,1/2-z
1/2-x,1/2-y,-z
1/2+x,1/2-y,1/2+z
loop_
_atom_site_type_symbol
_atom_site_label
_atom_site_fract_x
_atom_site_fract_y
_atom_site_fract_z
Si Si1 0.587239 0.171912 0.965095
Si Si2 0.373078 0.376592 0.142170
Si Si3 0.808837 0.576165 0.248725
Si Si4 0.454818 0.071910 0.065159
Si Si5 0.650692 0.552744 0.395996
Si Si6 0.529194 0.664421 0.505268
Si Si7 0.214385 0.591329 0.774504
O O1 0.645271 0.137825 0.127004
O O2 0.491773 0.137598 0.969157
O O3 0.571604 0.259097 0.959170
O O4 0.638542 0.139504 0.831029
O O5 0.373797 0.466187 0.121697
O O6 0.425152 0.353130 0.314016
O O7 0.425885 0.337782 0.015204
O O8 0.272645 0.363809 0.165181
O O9 0.854339 0.580129 0.091155
O O10 0.705560 0.579678 0.257890
O O11 0.824299 0.488118 0.294401
O O12 0.500000 0.076130 0.250000
O O13 0.500000 0.000000 0.000000
O O14 0.564365 0.599530 0.403826
O O15 0.718776 0.567504 0.561853
#
# Coordination Sequence:
#
# PCOD9262100 Si02
#       7
#     8   8   8   8   8   8   8
#     4  10  20  32  51  82 109 134 176 228 279 321
#     4   9  19  31  50  75 102 132 176 220 268 329
#     4   9  18  30  50  76 106 138 175 218 265 325
#     4  10  19  32  53  82 111 148 183 228 271 333
#     4   9  18  33  51  73 101 138 176 219 264 329
#     4  10  20  33  51  80 104 134 174 228 284 310
#     4   9  17  33  51  76 105 136 174 214 266 325
#
# _framework density 24.129225000000002
#
# number of rings (size 3 to 8) (size 9 to 14) (size 15 to 20)
#    0.000    2.571    1.429    0.429    6.000    5.143 
#    0.000    0.000    0.000    0.857   14.857    6.000 
#    0.000    0.000    0.000    0.000    0.000    0.000 
#
# Total GULP energy -156217.849898 kJ/mol
# GULP energy per Si atom -5579.208925 kJ/mol
# Density = 2.407431 g / cm^3
# Si number density = 24.129225 Si / 1000 Ang^3
#
#
#
# Elastic Constant Matrix: (Units=GPa)
#
#
# Indices 1 2 3 4 5 6 
#
# 1 51.7014 -27.3822 63.9936 0.0000 -28.1769 0.0000
# 2 -27.3822 43.4938 14.7029 0.0000 -3.7687 0.0000
# 3 63.9936 14.7029 57.9854 0.0000 -17.1712 0.0000
# 4 0.0000 0.0000 0.0000 0.6559 0.0000 -0.5296
# 5 -28.1769 -3.7687 -17.1712 0.0000 71.9692 0.0000
# 6 0.0000 0.0000 0.0000 -0.5296 0.0000 33.6206
#
#
#
# Elastic Compliance Matrix: (Units=1/GPa)
#
#
# Indices 1 2 3 4 5 6 
#
# 1 -0.014739 -0.016135 0.019797 0.000000 -0.001892 0.000000
# 2 -0.016135 0.007486 0.015230 0.000000 -0.002291 0.000000
# 3 0.019797 0.015230 -0.006384 0.000000 0.007025 0.000000
# 4 0.000000 0.000000 0.000000 1.544189 0.000000 0.024325
# 5 -0.001892 -0.002291 0.007025 0.000000 0.014710 0.000000
# 6 0.000000 0.000000 0.000000 0.024325 0.000000 0.030127
#
#
# Mechanical properties :
#
#
# Convention : Reuss Voigt Hill
#
# Bulk Modulus (GPa) = 41.41186 28.42323 34.91754
# Shear Modulus (GPa) = 3.23488 28.04023 15.63755
#
# Velocity S-wave (km/s) = 1.15912 3.41264 2.54849
# Velocity P-wave (km/s) = 4.35789 5.22812 4.81272
#
# Compressibility (1/GPa) = 0.02414767
#
# Stress axis : x y z
#
# Youngs Moduli (GPa) = -67.84754 133.57611 -156.63701
#
# Poissons Ratio (x) = 2.15530 3.10096
# Poissons Ratio (y) = -1.09475 2.38565
# Poissons Ratio (z) = 1.34319 -2.03443
#
# Static dielectric constant tensor:
#      x y z
#    x 2.121130 0.000000 0.089200 
#    y 0.000000 -8.613730 0.000000 
#    z 0.089200 0.000000 2.023640 
# 
# From -- ./inp_files/106067.got.cif
#   From: 2010.05.17/outbox.cif.g08.bks.cpg/sg15_54_cif.got.tgz:106067.got - 2010.06.03 18:47:42.
