data_PCOD9262590
_publ_section_title
;
Structure prediction by ZEFSAII (Michael W. Deem and Ramdas Pophale) SiO2 
 PCOD9262590
Probable space group: C 2/C
;
_chemical_formula_sum "Si O2"
_cell_formula_units_Z 60
_cell_length_a 29.918124
_cell_length_b 8.926986
_cell_length_c 18.503955
_cell_angle_alpha 90.000000
_cell_angle_beta 148.148619
_cell_angle_gamma 90.000000
_cell_volume 2607.987279
_symmetry_space_group_name_H-M "C 2/C"
_symmetry_group_IT_number 15
_symmetry_cell_setting 'monoclinic'
loop_
_space_group_symop_operation_xyz
x,y,z
-x,y,1/2-z
-x,-y,-z
x,-y,1/2+z
1/2+x,1/2+y,z
1/2-x,1/2+y,1/2-z
1/2-x,1/2-y,-z
1/2+x,1/2-y,1/2+z
loop_
_atom_site_type_symbol
_atom_site_label
_atom_site_fract_x
_atom_site_fract_y
_atom_site_fract_z
Si Si1 0.500000 0.417939 0.250000
Si Si2 0.514602 0.948319 0.100490
Si Si3 0.092830 0.873220 0.682240
Si Si4 0.790407 0.147615 0.864389
Si Si5 0.847875 0.865246 0.590363
Si Si6 0.905978 0.479850 0.154964
Si Si7 0.830580 0.492636 0.913684
Si Si8 0.939569 0.932230 0.019741
O O1 0.574546 0.523968 0.321907
O O2 0.538859 0.342293 0.376218
O O3 0.542284 0.776099 0.134090
O O4 0.583300 0.028368 0.247142
O O5 0.424636 0.970742 0.013533
O O6 0.500000 0.000000 0.000000
O O7 0.167849 0.882454 0.845250
O O8 0.105704 0.865338 0.613720
O O9 0.029532 0.010393 0.612487
O O10 0.794680 0.325075 0.865531
O O11 0.722321 0.088578 0.714748
O O12 0.879241 0.069104 0.962561
O O13 0.778358 0.105377 0.932717
O O14 0.880275 0.695951 0.621187
O O15 0.000000 0.490566 0.250000
O O16 0.840820 0.554016 0.009516
#
# Coordination Sequence:
#
# PCOD9262590 Si02
#       8
#     4   8   8   8   8   8   8   8
#     4   8  12  22  44  74  96 122 166 214 250 292
#     4  10  19  33  56  79 103 131 176 224 265 303
#     4   9  16  29  52  79 102 127 173 220 262 299
#     4  10  19  33  54  78 108 139 175 212 262 323
#     4   8  13  25  48  76  96 125 175 220 250 289
#     4   8  14  29  53  75  94 130 178 224 249 295
#     4  10  20  35  56  79 106 140 176 215 263 314
#     4   9  16  28  51  76 102 131 169 216 262 301
#
# _framework density 23.006247999999999
#
# number of rings (size 3 to 8) (size 9 to 14) (size 15 to 20)
#    0.000    2.933    2.000    0.000    0.000    1.067 
#    0.000    1.333   16.133    6.400    0.000    0.000 
#    0.000    0.000    0.000    0.000    0.000    0.000 
#
# Total GULP energy -167173.213621 kJ/mol
# GULP energy per Si atom -5572.440454 kJ/mol
# Density = 2.295388 g / cm^3
# Si number density = 23.006248 Si / 1000 Ang^3
#
#
#
# Elastic Constant Matrix: (Units=GPa)
#
#
# Indices 1 2 3 4 5 6 
#
# 1 94.7497 8.6679 78.6945 0.0000 -49.3722 0.0000
# 2 8.6679 27.8761 33.0643 0.0000 -12.2163 0.0000
# 3 78.6945 33.0643 188.9637 0.0000 -88.0194 0.0000
# 4 0.0000 0.0000 0.0000 22.2044 0.0000 2.6914
# 5 -49.3722 -12.2163 -88.0194 0.0000 75.3408 0.0000
# 6 0.0000 0.0000 0.0000 2.6914 0.0000 22.0536
#
#
#
# Elastic Compliance Matrix: (Units=1/GPa)
#
#
# Indices 1 2 3 4 5 6 
#
# 1 0.017680 0.003182 -0.005008 0.000000 0.006251 0.000000
# 2 0.003182 0.046454 -0.010912 0.000000 -0.003130 0.000000
# 3 -0.005008 -0.010912 0.015212 0.000000 0.012722 0.000000
# 4 0.000000 0.000000 0.000000 0.045712 0.000000 -0.005579
# 5 0.006251 -0.003130 0.012722 0.000000 0.031725 0.000000
# 6 0.000000 0.000000 0.000000 -0.005579 0.000000 0.046025
#
#
# Mechanical properties :
#
#
# Convention : Reuss Voigt Hill
#
# Bulk Modulus (GPa) = 18.56266 61.38254 39.97260
# Shear Modulus (GPa) = 20.30541 36.66396 28.48469
#
# Velocity S-wave (km/s) = 2.97409 3.99639 3.52252
# Velocity P-wave (km/s) = 4.45866 6.93063 5.82723
#
# Compressibility (1/GPa) = 0.05387158
#
# Stress axis : x y z
#
# Youngs Moduli (GPa) = 56.56249 21.52656 65.73568
#
# Poissons Ratio (x) = -0.06849 0.32917
# Poissons Ratio (y) = -0.17997 0.71728
# Poissons Ratio (z) = 0.28324 0.23489
#
# Static dielectric constant tensor:
#      x y z
#    x 1.741080 0.000000 -0.146630 
#    y 0.000000 1.942980 0.000000 
#    z -0.146630 0.000000 1.948720 
# 
# From -- ./inp_files/225022.got.cif
#   From: 2010.05.17/outbox.cif.g08.bks.cpg/sg15_113_cif.got.tgz:225022.got - 2010.06.03 18:47:42.
