data_PCOD9262819
_publ_section_title
;
Structure prediction by ZEFSAII (Michael W. Deem and Ramdas Pophale) SiO2 
 PCOD9262819
Probable space group: C 2/C
;
_chemical_formula_sum "Si O2"
_cell_formula_units_Z 40
_cell_length_a 14.347393
_cell_length_b 6.946692
_cell_length_c 15.542220
_cell_angle_alpha 90.000000
_cell_angle_beta 76.964586
_cell_angle_gamma 90.000000
_cell_volume 1509.127604
_symmetry_space_group_name_H-M "C 2/C"
_symmetry_group_IT_number 15
_symmetry_cell_setting 'monoclinic'
loop_
_space_group_symop_operation_xyz
x,y,z
-x,y,1/2-z
-x,-y,-z
x,-y,1/2+z
1/2+x,1/2+y,z
1/2-x,1/2+y,1/2-z
1/2-x,1/2-y,-z
1/2+x,1/2-y,1/2+z
loop_
_atom_site_type_symbol
_atom_site_label
_atom_site_fract_x
_atom_site_fract_y
_atom_site_fract_z
Si Si1 0.669045 0.291146 0.920148
Si Si2 0.502999 0.185462 0.060537
Si Si3 0.133382 0.670928 0.181747
Si Si4 0.608808 0.378546 0.738988
Si Si5 0.305243 0.138127 0.140179
O O1 0.776893 0.368195 0.900771
O O2 0.630830 0.347826 0.834179
O O3 0.689467 0.061323 0.911353
O O4 0.585496 0.323786 0.006522
O O5 0.539481 0.120361 0.147129
O O6 0.394513 0.262112 0.087531
O O7 0.500000 0.000000 0.000000
O O8 0.118343 0.897404 0.209236
O O9 0.165419 0.588431 0.267124
O O10 0.500000 0.314586 0.750000
O O11 0.802864 0.785655 0.832817
#
# Coordination Sequence:
#
# PCOD9262819 Si02
#       5
#     8   8   8   8   8
#     4   9  20  35  55  82 109 138 181 227 269 316
#     4  10  19  33  56  85 109 138 182 230 267 311
#     4  10  19  36  58  78 107 147 181 217 269 327
#     4  10  20  35  54  78 108 144 180 219 271 325
#     4   9  19  35  56  79 105 143 187 219 260 325
#
# _framework density 26.505379000000001
#
# number of rings (size 3 to 8) (size 9 to 14) (size 15 to 20)
#    0.000    2.400    0.000    2.400    0.000    3.200 
#    0.000    5.000    0.000    4.800    0.000    0.000 
#    0.000    0.000    0.000    0.000    0.000    0.000 
#
# Total GULP energy -111749.859646 kJ/mol
# GULP energy per Si atom -5587.492982 kJ/mol
# Density = 2.644505 g / cm^3
# Si number density = 26.505379 Si / 1000 Ang^3
#
#
#
# Elastic Constant Matrix: (Units=GPa)
#
#
# Indices 1 2 3 4 5 6 
#
# 1 221.9319 0.5472 43.4432 0.0000 -41.9448 0.0000
# 2 0.5472 76.3723 13.6495 0.0000 -1.1501 0.0000
# 3 43.4432 13.6495 99.7588 0.0000 -17.5913 0.0000
# 4 0.0000 0.0000 0.0000 33.3265 0.0000 0.8880
# 5 -41.9448 -1.1501 -17.5913 0.0000 65.7149 0.0000
# 6 0.0000 0.0000 0.0000 0.8880 0.0000 8.1973
#
#
#
# Elastic Compliance Matrix: (Units=1/GPa)
#
#
# Indices 1 2 3 4 5 6 
#
# 1 0.005436 0.000344 -0.001891 0.000000 0.002970 0.000000
# 2 0.000344 0.013448 -0.002004 0.000000 -0.000082 0.000000
# 3 -0.001891 -0.002004 0.011443 0.000000 0.001821 0.000000
# 4 0.000000 0.000000 0.000000 0.030093 0.000000 -0.003260
# 5 0.002970 -0.000082 0.001821 0.000000 0.017599 0.000000
# 6 0.000000 0.000000 0.000000 -0.003260 0.000000 0.122344
#
#
# Mechanical properties :
#
#
# Convention : Reuss Voigt Hill
#
# Bulk Modulus (GPa) = 43.05673 57.03808 50.04740
# Shear Modulus (GPa) = 23.23331 44.14262 33.68796
#
# Velocity S-wave (km/s) = 2.96387 4.08538 3.56896
# Velocity P-wave (km/s) = 5.29079 6.61967 5.99218
#
# Compressibility (1/GPa) = 0.02322518
#
# Stress axis : x y z
#
# Youngs Moduli (GPa) = 183.94296 74.35911 87.38990
#
# Poissons Ratio (x) = -0.02556 0.16524
# Poissons Ratio (y) = -0.06322 0.17514
# Poissons Ratio (z) = 0.34780 0.14903
#
# Static dielectric constant tensor:
#      x y z
#    x 2.142430 0.000000 -0.105150 
#    y 0.000000 2.106970 0.000000 
#    z -0.105150 0.000000 2.085860 
# 
# From -- ./inp_files/202207.got.cif
#   From: 2010.05.17/outbox.cif.g08.bks.cpg/sg15_102_cif.got.tgz:202207.got - 2010.06.03 18:47:42.
