data_PCOD9262637
_publ_section_title
;
Structure prediction by ZEFSAII (Michael W. Deem and Ramdas Pophale) SiO2 
 PCOD9262637
Probable space group: C 2/C
;
_chemical_formula_sum "Si O2"
_cell_formula_units_Z 64
_cell_length_a 31.930484
_cell_length_b 5.420421
_cell_length_c 26.364481
_cell_angle_alpha 90.000000
_cell_angle_beta 141.171587
_cell_angle_gamma 90.000000
_cell_volume 2861.004268
_symmetry_space_group_name_H-M "C 2/C"
_symmetry_group_IT_number 15
_symmetry_cell_setting 'monoclinic'
loop_
_space_group_symop_operation_xyz
x,y,z
-x,y,1/2-z
-x,-y,-z
x,-y,1/2+z
1/2+x,1/2+y,z
1/2-x,1/2+y,1/2-z
1/2-x,1/2-y,-z
1/2+x,1/2-y,1/2+z
loop_
_atom_site_type_symbol
_atom_site_label
_atom_site_fract_x
_atom_site_fract_y
_atom_site_fract_z
Si Si1 0.725078 0.807337 0.292235
Si Si2 0.390381 0.580736 0.253753
Si Si3 0.803239 0.306882 0.353751
Si Si4 0.986756 0.608589 0.598199
Si Si5 0.418524 0.633666 0.167754
Si Si6 0.559002 0.144737 0.348200
Si Si7 0.561139 0.272437 0.112547
Si Si8 0.580584 0.533815 0.525510
O O1 0.666162 0.753207 0.275828
O O2 0.775501 0.572944 0.343858
O O3 0.697709 0.802670 0.208625
O O4 0.757319 0.076593 0.328598
O O5 0.461838 0.713119 0.325394
O O6 0.384415 0.551454 0.188209
O O7 0.396283 0.349505 0.297935
O O8 0.875505 0.209388 0.439093
O O9 0.970517 0.402495 0.624198
O O10 0.921887 0.756497 0.519355
O O11 0.028766 0.494249 0.590933
O O12 0.500000 0.652609 0.250000
O O13 0.405227 0.406654 0.118041
O O14 0.399596 0.903636 0.129646
O O15 0.500000 0.163597 0.250000
O O16 0.598729 0.330440 0.095759
O O17 0.496265 0.447277 0.047786
#
# Coordination Sequence:
#
# PCOD9262637 Si02
#       8
#     8   8   8   8   8   8   8   8
#     4  10  23  37  62  82 111 161 202 249 290 333
#     4  11  21  35  57  91 119 152 198 242 305 361
#     4  10  22  42  56  81 116 158 208 244 284 335
#     4  11  22  33  58  86 124 160 191 238 303 367
#     4  10  19  33  54  81 120 149 180 242 298 359
#     4  10  19  34  51  81 118 151 185 232 298 358
#     4  10  21  35  54  86 122 156 194 235 300 359
#     4  10  22  37  54  84 120 163 198 243 285 360
#
# _framework density 22.369769000000002
#
# number of rings (size 3 to 8) (size 9 to 14) (size 15 to 20)
#    0.000    1.750    3.750    1.875    5.250    1.000 
#    0.000    0.000    0.000    0.000    0.000    5.250 
#    0.000    0.000    0.000    0.000    0.000    0.000 
#
# Total GULP energy -178688.440995 kJ/mol
# GULP energy per Si atom -5584.013781 kJ/mol
# Density = 2.231885 g / cm^3
# Si number density = 22.369769 Si / 1000 Ang^3
#
#
#
# Elastic Constant Matrix: (Units=GPa)
#
#
# Indices 1 2 3 4 5 6 
#
# 1 85.2359 2.4083 19.3382 -0.0050 -1.7418 -0.0097
# 2 2.4083 104.0218 9.6971 0.0025 -1.6565 0.0016
# 3 19.3382 9.6971 23.6363 0.0011 1.8619 -0.0004
# 4 -0.0050 0.0025 0.0011 12.5671 0.0009 9.0571
# 5 -1.7418 -1.6565 1.8619 0.0009 12.2211 -0.0002
# 6 -0.0097 0.0016 -0.0004 9.0571 -0.0002 27.1425
#
#
#
# Elastic Compliance Matrix: (Units=1/GPa)
#
#
# Indices 1 2 3 4 5 6 
#
# 1 0.014674 0.000911 -0.012706 0.000004 0.004151 0.000004
# 2 0.000911 0.010101 -0.005068 -0.000002 0.002271 0.000000
# 3 -0.012706 -0.005068 0.055647 -0.000007 -0.010976 -0.000001
# 4 0.000004 -0.000002 -0.000007 0.104768 -0.000007 -0.034960
# 5 0.004151 0.002271 -0.010976 -0.000007 0.084397 0.000004
# 6 0.000004 0.000000 -0.000001 -0.034960 0.000004 0.048508
#
#
# Mechanical properties :
#
#
# Convention : Reuss Voigt Hill
#
# Bulk Modulus (GPa) = 21.41552 30.64233 26.02893
# Shear Modulus (GPa) = 13.60960 22.48284 18.04622
#
# Velocity S-wave (km/s) = 2.46924 3.17370 2.84337
# Velocity P-wave (km/s) = 4.20995 5.21130 4.73716
#
# Compressibility (1/GPa) = 0.04669511
#
# Stress axis : x y z
#
# Youngs Moduli (GPa) = 68.14777 99.00098 17.97036
#
# Poissons Ratio (x) = -0.09018 0.22834
# Poissons Ratio (y) = -0.06207 0.09108
# Poissons Ratio (z) = 0.86590 0.50175
#
# Static dielectric constant tensor:
#      x y z
#    x 1.858520 0.000000 0.008390 
#    y 0.000000 1.898520 0.000000 
#    z 0.008390 0.000000 1.855990 
# 
# From -- ./inp_files/304115.got.cif
#   From: 2010.05.17/outbox.cif.g08.bks.cpg/sg15_153_cif.got.tgz:304115.got - 2010.06.03 18:47:42.
