data_PCOD9262831
_publ_section_title
;
Structure prediction by ZEFSAII (Michael W. Deem and Ramdas Pophale) SiO2 
 PCOD9262831
Probable space group: C 2/C
;
_chemical_formula_sum "Si O2"
_cell_formula_units_Z 40
_cell_length_a 7.014221
_cell_length_b 17.014688
_cell_length_c 13.053559
_cell_angle_alpha 90.000000
_cell_angle_beta 75.980110
_cell_angle_gamma 90.000000
_cell_volume 1511.467707
_symmetry_space_group_name_H-M "C 2/C"
_symmetry_group_IT_number 15
_symmetry_cell_setting 'monoclinic'
loop_
_space_group_symop_operation_xyz
x,y,z
-x,y,1/2-z
-x,-y,-z
x,-y,1/2+z
1/2+x,1/2+y,z
1/2-x,1/2+y,1/2-z
1/2-x,1/2-y,-z
1/2+x,1/2-y,1/2+z
loop_
_atom_site_type_symbol
_atom_site_label
_atom_site_fract_x
_atom_site_fract_y
_atom_site_fract_z
Si Si1 0.124211 0.412733 0.925898
Si Si2 0.393478 0.140578 0.661972
Si Si3 0.225016 0.033155 0.435047
Si Si4 0.480874 0.387493 0.119297
Si Si5 0.311484 0.743014 0.374257
O O1 0.245755 0.483094 0.961538
O O2 0.011915 0.383547 0.044272
O O3 0.249593 0.345202 0.855966
O O4 0.942975 0.439697 0.880085
O O5 0.500000 0.106597 0.750000
O O6 0.168426 0.122140 0.668510
O O7 0.458471 0.232574 0.660974
O O8 0.086082 0.104514 0.491626
O O9 0.135117 0.970752 0.367570
O O10 0.333706 0.312932 0.148105
O O11 0.250000 0.750000 0.500000
#
# Coordination Sequence:
#
# PCOD9262831 Si02
#       5
#     8   8   8   8   8
#     4   9  18  35  57  84 112 138 185 242 276 326
#     4  10  21  34  52  83 114 150 186 228 279 340
#     4   9  17  32  54  89 108 134 177 237 295 312
#     4  10  19  33  56  86 107 141 184 232 279 329
#     4  10  19  35  53  86 107 141 188 238 272 320
#
# _framework density 26.464344000000001
#
# number of rings (size 3 to 8) (size 9 to 14) (size 15 to 20)
#    0.000    2.400    4.000    0.000    0.000    8.000 
#    0.000    0.000    0.000    0.000   93.600    0.000 
#    0.000    0.000    0.000    0.000    0.000    0.000 
#
# Total GULP energy -111443.913207 kJ/mol
# GULP energy per Si atom -5572.195660 kJ/mol
# Density = 2.640411 g / cm^3
# Si number density = 26.464344 Si / 1000 Ang^3
#
#
#
# Elastic Constant Matrix: (Units=GPa)
#
#
# Indices 1 2 3 4 5 6 
#
# 1 224.7779 84.9039 37.1991 0.0000 9.4015 0.0000
# 2 84.9039 149.5692 22.2730 0.0000 2.4277 0.0000
# 3 37.1991 22.2730 67.7404 0.0000 25.6288 0.0000
# 4 0.0000 0.0000 0.0000 36.9082 0.0000 -6.0711
# 5 9.4015 2.4277 25.6288 0.0000 35.4819 0.0000
# 6 0.0000 0.0000 0.0000 -6.0711 0.0000 62.2493
#
#
#
# Elastic Compliance Matrix: (Units=1/GPa)
#
#
# Indices 1 2 3 4 5 6 
#
# 1 0.005984 -0.003041 -0.002428 0.000000 0.000377 0.000000
# 2 -0.003041 0.008645 -0.001725 0.000000 0.001460 0.000000
# 3 -0.002428 -0.001725 0.022533 0.000000 -0.015514 0.000000
# 4 0.000000 0.000000 0.000000 0.027536 0.000000 0.002686
# 5 0.000377 0.001460 -0.015514 0.000000 0.039189 0.000000
# 6 0.000000 0.000000 0.000000 0.002686 0.000000 0.016326
#
#
# Mechanical properties :
#
#
# Convention : Reuss Voigt Hill
#
# Bulk Modulus (GPa) = 43.91320 81.20437 62.55879
# Shear Modulus (GPa) = 35.16334 46.77532 40.96933
#
# Velocity S-wave (km/s) = 3.64910 4.20871 3.93885
# Velocity P-wave (km/s) = 5.86378 7.37351 6.66155
#
# Compressibility (1/GPa) = 0.02277220
#
# Stress axis : x y z
#
# Youngs Moduli (GPa) = 167.12083 115.66864 44.38026
#
# Poissons Ratio (x) = 0.35177 0.10778
# Poissons Ratio (y) = 0.50824 0.07656
# Poissons Ratio (z) = 0.40585 0.19954
#
# Static dielectric constant tensor:
#      x y z
#    x 2.180150 0.000000 -0.115440 
#    y 0.000000 2.237060 0.000000 
#    z -0.115440 0.000000 2.286190 
# 
# From -- ./inp_files/189473.got.cif
#   From: 2010.05.17/outbox.cif.g08.bks.cpg/sg15_95_cif.got.tgz:189473.got - 2010.06.03 18:47:42.
