data_PCOD9262071
_publ_section_title
;
Structure prediction by ZEFSAII (Michael W. Deem and Ramdas Pophale) SiO2 
 PCOD9262071
Probable space group: C 2/C
;
_chemical_formula_sum "Si O2"
_cell_formula_units_Z 40
_cell_length_a 24.162982
_cell_length_b 9.604757
_cell_length_c 16.160368
_cell_angle_alpha 90.000000
_cell_angle_beta 28.367636
_cell_angle_gamma 90.000000
_cell_volume 1781.960625
_symmetry_space_group_name_H-M "C 2/C"
_symmetry_group_IT_number 15
_symmetry_cell_setting 'monoclinic'
loop_
_space_group_symop_operation_xyz
x,y,z
-x,y,1/2-z
-x,-y,-z
x,-y,1/2+z
1/2+x,1/2+y,z
1/2-x,1/2+y,1/2-z
1/2-x,1/2-y,-z
1/2+x,1/2-y,1/2+z
loop_
_atom_site_type_symbol
_atom_site_label
_atom_site_fract_x
_atom_site_fract_y
_atom_site_fract_z
Si Si1 0.634997 0.278315 0.862646
Si Si2 0.937160 0.945895 0.963245
Si Si3 0.181913 0.778656 0.239929
Si Si4 0.692144 0.964793 0.186889
Si Si5 0.198753 0.943796 0.621997
O O1 0.555747 0.402042 0.002638
O O2 0.703426 0.233613 0.854459
O O3 0.608988 0.135015 0.849407
O O4 0.710712 0.358839 0.691992
O O5 0.908533 0.834076 0.072132
O O6 0.822686 0.951950 0.056181
O O7 0.067217 0.915848 0.761482
O O8 0.156948 0.625964 0.237953
O O9 0.202431 0.894393 0.143447
O O10 0.708249 0.916042 0.071434
#
# Coordination Sequence:
#
# PCOD9262071 Si02
#       5
#     8   8   8   8   8
#     4   9  18  32  50  72 100 134 165 195 242 302
#     4   9  19  35  53  73 100 133 165 197 244 302
#     4   9  18  32  50  72 100 134 165 195 242 302
#     4  10  19  32  53  78 100 125 165 210 244 283
#     4  11  19  33  53  77  99 128 166 209 245 283
#
# _framework density 22.447184
#
# number of rings (size 3 to 8) (size 9 to 14) (size 15 to 20)
#    0.000    2.400    0.000    5.400    0.000    0.000 
#    0.000    4.000    0.000    0.000    0.000   47.600 
#    0.000    0.000    0.000    0.000    0.000    0.000 
#
# Total GULP energy -111496.186197 kJ/mol
# GULP energy per Si atom -5574.809310 kJ/mol
# Density = 2.239609 g / cm^3
# Si number density = 22.447184 Si / 1000 Ang^3
#
#
#
# Elastic Constant Matrix: (Units=GPa)
#
#
# Indices 1 2 3 4 5 6 
#
# 1 52.0811 -14.5046 7.2892 0.0000 -5.1886 0.0000
# 2 -14.5046 92.6911 -4.8801 0.0000 -3.0575 0.0000
# 3 7.2892 -4.8801 54.4913 0.0000 4.7310 0.0000
# 4 0.0000 0.0000 0.0000 9.5935 0.0000 1.2269
# 5 -5.1886 -3.0575 4.7310 0.0000 26.4403 0.0000
# 6 0.0000 0.0000 0.0000 1.2269 0.0000 35.9658
#
#
#
# Elastic Compliance Matrix: (Units=1/GPa)
#
#
# Indices 1 2 3 4 5 6 
#
# 1 0.021036 0.003302 -0.002956 0.000000 0.005039 0.000000
# 2 0.003302 0.011389 0.000414 0.000000 0.001891 0.000000
# 3 -0.002956 0.000414 0.019127 0.000000 -0.003955 0.000000
# 4 0.000000 0.000000 0.000000 0.104694 0.000000 -0.003572
# 5 0.005039 0.001891 -0.003955 0.000000 0.039736 0.000000
# 6 0.000000 0.000000 0.000000 -0.003572 0.000000 0.027926
#
#
# Mechanical properties :
#
#
# Convention : Reuss Voigt Hill
#
# Bulk Modulus (GPa) = 18.84141 19.45252 19.14696
# Shear Modulus (GPa) = 20.82644 28.49051 24.65847
#
# Velocity S-wave (km/s) = 3.04928 3.56648 3.31797
# Velocity P-wave (km/s) = 4.56173 5.06403 4.81943
#
# Compressibility (1/GPa) = 0.05307458
#
# Stress axis : x y z
#
# Youngs Moduli (GPa) = 47.53708 87.80040 52.28114
#
# Poissons Ratio (x) = -0.28995 0.15453
# Poissons Ratio (y) = -0.15699 -0.02165
# Poissons Ratio (z) = 0.14051 -0.03636
#
# Static dielectric constant tensor:
#      x y z
#    x 1.877160 0.000000 -0.065750 
#    y 0.000000 1.855350 0.000000 
#    z -0.065750 0.000000 1.854160 
# 
# From -- ./inp_files/158760.got.cif
#   From: 2010.05.17/outbox.cif.g08.bks.cpg/sg15_80_cif.got.tgz:158760.got - 2010.06.03 18:47:42.
