data_PCOD9262879
_publ_section_title
;
Structure prediction by ZEFSAII (Michael W. Deem and Ramdas Pophale) SiO2 
 PCOD9262879
Probable space group: C 2/C
;
_chemical_formula_sum "Si O2"
_cell_formula_units_Z 56
_cell_length_a 15.314120
_cell_length_b 14.731026
_cell_length_c 11.526245
_cell_angle_alpha 90.000000
_cell_angle_beta 65.888540
_cell_angle_gamma 90.000000
_cell_volume 2373.372541
_symmetry_space_group_name_H-M "C 2/C"
_symmetry_group_IT_number 15
_symmetry_cell_setting 'monoclinic'
loop_
_space_group_symop_operation_xyz
x,y,z
-x,y,1/2-z
-x,-y,-z
x,-y,1/2+z
1/2+x,1/2+y,z
1/2-x,1/2+y,1/2-z
1/2-x,1/2-y,-z
1/2+x,1/2-y,1/2+z
loop_
_atom_site_type_symbol
_atom_site_label
_atom_site_fract_x
_atom_site_fract_y
_atom_site_fract_z
Si Si1 0.197953 0.081116 0.634902
Si Si2 0.474690 0.213585 0.500924
Si Si3 0.788099 0.304417 0.271558
Si Si4 0.562739 0.584096 0.504480
Si Si5 0.246194 0.900037 0.735407
Si Si6 0.628153 0.897674 0.618415
Si Si7 0.912343 0.396119 0.385213
O O1 0.205832 0.143888 0.744079
O O2 0.100653 0.075803 0.615865
O O3 0.273328 0.122824 0.502806
O O4 0.236755 0.982023 0.650449
O O5 0.380870 0.198085 0.634774
O O6 0.490173 0.320492 0.485178
O O7 0.445426 0.174831 0.391660
O O8 0.559664 0.158276 0.515188
O O9 0.763385 0.200575 0.310076
O O10 0.819365 0.359699 0.368160
O O11 0.500000 0.500000 0.500000
O O12 0.655201 0.585763 0.369962
O O13 0.340159 0.904713 0.765643
O O14 0.592369 0.996243 0.597450
O O15 0.000000 0.378511 0.250000
#
# Coordination Sequence:
#
# PCOD9262879 Si02
#       7
#     8   8   8   8   8   8   8
#     4  10  20  36  58  80 107 144 180 224 268 318
#     4   9  19  34  55  80 109 145 179 222 264 321
#     4   9  18  34  56  82 104 142 191 215 260 328
#     4  10  22  37  56  81 109 143 186 221 268 325
#     4  10  20  36  59  79 108 145 180 227 267 315
#     4  10  19  36  58  82 109 141 182 221 271 324
#     4  10  19  33  57  83 110 140 179 225 271 319
#
# _framework density 23.595116999999998
#
# number of rings (size 3 to 8) (size 9 to 14) (size 15 to 20)
#    0.000    2.286    1.429    1.286    2.000    4.000 
#    0.000    2.143    3.143    0.000    0.000    0.000 
#    0.000    0.000    0.000    0.000    0.000    0.000 
#
# Total GULP energy -156630.541099 kJ/mol
# GULP energy per Si atom -5593.947896 kJ/mol
# Density = 2.354141 g / cm^3
# Si number density = 23.595117 Si / 1000 Ang^3
#
#
#
# Elastic Constant Matrix: (Units=GPa)
#
#
# Indices 1 2 3 4 5 6 
#
# 1 78.1258 22.7856 29.8357 0.0000 13.9053 0.0000
# 2 22.7856 134.9014 10.1208 0.0000 19.1842 0.0000
# 3 29.8357 10.1208 63.1908 0.0000 -5.1416 0.0000
# 4 0.0000 0.0000 0.0000 25.3895 0.0000 6.4379
# 5 13.9053 19.1842 -5.1416 0.0000 25.9910 0.0000
# 6 0.0000 0.0000 0.0000 6.4379 0.0000 29.9994
#
#
#
# Elastic Compliance Matrix: (Units=1/GPa)
#
#
# Indices 1 2 3 4 5 6 
#
# 1 0.018735 -0.000833 -0.009633 0.000000 -0.011315 0.000000
# 2 -0.000833 0.008538 -0.001475 0.000000 -0.006148 0.000000
# 3 -0.009633 -0.001475 0.021463 0.000000 0.010488 0.000000
# 4 0.000000 0.000000 0.000000 0.041653 0.000000 -0.008939
# 5 -0.011315 -0.006148 0.010488 0.000000 0.051141 0.000000
# 6 0.000000 0.000000 0.000000 -0.008939 0.000000 0.035252
#
#
# Mechanical properties :
#
#
# Convention : Reuss Voigt Hill
#
# Bulk Modulus (GPa) = 40.23227 44.63357 42.43292
# Shear Modulus (GPa) = 23.92921 30.50771 27.21846
#
# Velocity S-wave (km/s) = 3.18804 3.59969 3.40010
# Velocity P-wave (km/s) = 5.53530 6.01951 5.78248
#
# Compressibility (1/GPa) = 0.02485567
#
# Stress axis : x y z
#
# Youngs Moduli (GPa) = 53.37479 117.11687 46.59186
#
# Poissons Ratio (x) = 0.09753 0.44883
# Poissons Ratio (y) = 0.04445 0.06871
# Poissons Ratio (z) = 0.51417 0.17270
#
# Static dielectric constant tensor:
#      x y z
#    x 1.907970 0.000000 -0.053370 
#    y 0.000000 1.819160 0.000000 
#    z -0.053370 0.000000 1.940190 
# 
# From -- ./inp_files/97015.got.cif
#   From: 2010.05.17/outbox.cif.g08.bks.cpg/sg15_49_cif.got.tgz:97015.got - 2010.06.03 18:47:42.
