data_PCOD9262774
_publ_section_title
;
Structure prediction by ZEFSAII (Michael W. Deem and Ramdas Pophale) SiO2 
 PCOD9262774
Probable space group: C 2/C
;
_chemical_formula_sum "Si O2"
_cell_formula_units_Z 48
_cell_length_a 10.531521
_cell_length_b 23.820504
_cell_length_c 20.484942
_cell_angle_alpha 90.000000
_cell_angle_beta 147.769261
_cell_angle_gamma 90.000000
_cell_volume 2740.772212
_symmetry_space_group_name_H-M "C 2/C"
_symmetry_group_IT_number 15
_symmetry_cell_setting 'monoclinic'
loop_
_space_group_symop_operation_xyz
x,y,z
-x,y,1/2-z
-x,-y,-z
x,-y,1/2+z
1/2+x,1/2+y,z
1/2-x,1/2+y,1/2-z
1/2-x,1/2-y,-z
1/2+x,1/2-y,1/2+z
loop_
_atom_site_type_symbol
_atom_site_label
_atom_site_fract_x
_atom_site_fract_y
_atom_site_fract_z
Si Si1 0.226613 0.136466 0.152733
Si Si2 0.944998 0.824404 0.058740
Si Si3 0.109929 0.295442 0.653469
Si Si4 0.097425 0.925105 0.365816
Si Si5 0.653676 0.098986 0.092514
Si Si6 0.495995 0.448853 0.851067
O O1 0.500000 0.124928 0.250000
O O2 0.252682 0.182143 0.222609
O O3 0.104792 0.081280 0.129170
O O4 0.077584 0.158153 0.026449
O O5 0.003587 0.875750 0.132284
O O6 0.113855 0.770770 0.142803
O O7 0.670890 0.808294 0.957278
O O8 0.186417 0.335957 0.627295
O O9 0.380020 0.916577 0.481218
O O10 0.000000 0.923182 0.250000
O O11 0.044017 0.985362 0.374251
O O12 0.768548 0.082507 0.073765
O O13 0.798377 0.063425 0.209395
#
# Coordination Sequence:
#
# PCOD9262774 Si02
#       6
#     8   8   8   8   8   8
#     4   9  18  34  54  77 101 139 181 214 262 324
#     4   9  18  31  49  79 105 130 171 220 268 307
#     4   8  16  31  53  72 101 136 175 215 258 313
#     4  11  21  32  54  81 109 137 179 226 268 310
#     4   9  18  34  53  81 102 138 186 221 255 315
#     4  10  19  33  56  78 103 143 179 221 261 317
#
# _framework density 17.513311000000002
#
# number of rings (size 3 to 8) (size 9 to 14) (size 15 to 20)
#    0.000    2.667    1.667    1.500    0.000    5.333 
#    0.000    0.833    0.000    4.000    0.000    0.000 
#    0.000    0.000    0.000    0.000    0.000    0.000 
#
# Total GULP energy -133712.301211 kJ/mol
# GULP energy per Si atom -5571.345884 kJ/mol
# Density = 1.747345 g / cm^3
# Si number density = 17.513311 Si / 1000 Ang^3
#
#
#
# Elastic Constant Matrix: (Units=GPa)
#
#
# Indices 1 2 3 4 5 6 
#
# 1 55.9659 77.9909 25.1954 -0.0004 -14.9755 -0.0091
# 2 77.9909 181.7892 52.9092 -0.0013 -17.0765 -0.0016
# 3 25.1954 52.9092 45.3833 -0.0011 -4.2768 -0.0177
# 4 -0.0004 -0.0013 -0.0011 18.2940 -0.0003 1.0986
# 5 -14.9755 -17.0765 -4.2768 -0.0003 24.7978 -0.0083
# 6 -0.0091 -0.0016 -0.0177 1.0986 -0.0083 -22.2533
#
#
#
# Elastic Compliance Matrix: (Units=1/GPa)
#
#
# Indices 1 2 3 4 5 6 
#
# 1 0.050670 -0.018814 -0.004608 0.000001 0.016849 -0.000022
# 2 -0.018814 0.015749 -0.008096 -0.000001 -0.001913 0.000014
# 3 -0.004608 -0.008096 0.033793 0.000003 -0.002530 -0.000023
# 4 0.000001 -0.000001 0.000003 0.054501 0.000002 0.002691
# 5 0.016849 -0.001913 -0.002530 0.000002 0.048748 -0.000023
# 6 -0.000022 0.000014 -0.000023 0.002691 -0.000023 -0.044804
#
#
# Mechanical properties :
#
#
# Convention : Reuss Voigt Hill
#
# Bulk Modulus (GPa) = 26.89994 66.14770 46.52382
# Shear Modulus (GPa) = 21.35978 12.63723 16.99850
#
# Velocity S-wave (km/s) = 3.49611 2.68914 3.11883
# Velocity P-wave (km/s) = 5.62940 6.89158 6.29222
#
# Compressibility (1/GPa) = 0.03717480
#
# Stress axis : x y z
#
# Youngs Moduli (GPa) = 19.73568 63.49543 29.59191
#
# Poissons Ratio (x) = 1.19462 0.13637
# Poissons Ratio (y) = 0.37131 0.23958
# Poissons Ratio (z) = 0.09095 0.51406
#
# Static dielectric constant tensor:
#      x y z
#    x 1.609050 0.000000 0.000020 
#    y 0.000000 1.609440 0.000000 
#    z 0.000020 0.000000 1.587800 
# 
# From -- ./inp_files/240719.got.cif
#   From: 2010.05.17/outbox.cif.g08.bks.cpg/sg15_121_cif.got.tgz:240719.got - 2010.06.03 18:47:42.
