data_PCOD9262682
_publ_section_title
;
Structure prediction by ZEFSAII (Michael W. Deem and Ramdas Pophale) SiO2 
 PCOD9262682
Probable space group: C 2/C
;
_chemical_formula_sum "Si O2"
_cell_formula_units_Z 48
_cell_length_a 22.727859
_cell_length_b 19.152892
_cell_length_c 9.128604
_cell_angle_alpha 90.000000
_cell_angle_beta 142.785685
_cell_angle_gamma 90.000000
_cell_volume 2403.298277
_symmetry_space_group_name_H-M "C 2/C"
_symmetry_group_IT_number 15
_symmetry_cell_setting 'monoclinic'
loop_
_space_group_symop_operation_xyz
x,y,z
-x,y,1/2-z
-x,-y,-z
x,-y,1/2+z
1/2+x,1/2+y,z
1/2-x,1/2+y,1/2-z
1/2-x,1/2-y,-z
1/2+x,1/2-y,1/2+z
loop_
_atom_site_type_symbol
_atom_site_label
_atom_site_fract_x
_atom_site_fract_y
_atom_site_fract_z
Si Si1 0.852109 0.265590 0.617584
Si Si2 0.729278 0.089155 0.589726
Si Si3 0.350392 0.020773 0.792796
Si Si4 0.764960 0.721708 0.368314
Si Si5 0.909879 0.819940 0.475676
Si Si6 0.408418 0.903014 0.138210
O O1 0.750000 0.250000 0.500000
O O2 0.849207 0.349120 0.599252
O O3 0.832775 0.231322 0.421671
O O4 0.931467 0.228422 0.876117
O O5 0.709048 0.025439 0.441376
O O6 0.837146 0.118906 0.781488
O O7 0.713879 0.068719 0.728331
O O8 0.419532 0.067132 0.825061
O O9 0.397335 0.966710 0.000940
O O10 0.750000 0.750000 0.500000
O O11 0.844263 0.772413 0.451995
O O12 0.812552 0.645157 0.451551
O O13 0.000000 0.844015 0.750000
O O14 0.500000 0.862358 0.250000
#
# Coordination Sequence:
#
# PCOD9262682 Si02
#       6
#     8   8   8   8   8   8
#     4   8  16  32  53  74  99 134 172 213 264 325
#     4   9  18  34  53  75 102 139 180 215 260 328
#     4  10  20  33  52  74 106 149 179 207 260 326
#     4  10  19  33  55  78 102 136 177 220 271 331
#     4  10  19  34  55  77 101 135 178 227 273 311
#     4  11  20  32  50  78 108 137 175 222 265 315
#
# _framework density 19.972553000000001
#
# number of rings (size 3 to 8) (size 9 to 14) (size 15 to 20)
#    0.000    2.667    0.000    6.000    0.000    0.000 
#    0.000    1.667    0.000   10.000    0.000    0.000 
#    0.000    0.000    0.000    0.000    0.000    0.000 
#
# Total GULP energy -133736.833672 kJ/mol
# GULP energy per Si atom -5572.368070 kJ/mol
# Density = 1.992709 g / cm^3
# Si number density = 19.972553 Si / 1000 Ang^3
#
#
#
# Elastic Constant Matrix: (Units=GPa)
#
#
# Indices 1 2 3 4 5 6 
#
# 1 81.4903 28.2042 29.3009 0.0000 -36.2447 0.0000
# 2 28.2042 67.9069 15.1233 0.0000 -6.0849 0.0000
# 3 29.3009 15.1233 82.4887 0.0000 -17.5750 0.0000
# 4 0.0000 0.0000 0.0000 29.0933 0.0000 -9.8467
# 5 -36.2447 -6.0849 -17.5750 0.0000 30.6919 0.0000
# 6 0.0000 0.0000 0.0000 -9.8467 0.0000 22.7710
#
#
#
# Elastic Compliance Matrix: (Units=1/GPa)
#
#
# Indices 1 2 3 4 5 6 
#
# 1 0.031519 -0.009551 -0.002184 0.000000 0.034077 0.000000
# 2 -0.009551 0.018319 -0.001817 0.000000 -0.008687 0.000000
# 3 -0.002184 -0.001817 0.014357 0.000000 0.005281 0.000000
# 4 0.000000 0.000000 0.000000 0.040265 0.000000 0.017412
# 5 0.034077 -0.008687 0.005281 0.000000 0.074126 0.000000
# 6 0.000000 0.000000 0.000000 0.017412 0.000000 0.051445
#
#
# Mechanical properties :
#
#
# Convention : Reuss Voigt Hill
#
# Bulk Modulus (GPa) = 26.96099 41.90473 34.43286
# Shear Modulus (GPa) = 18.55294 27.12842 22.84068
#
# Velocity S-wave (km/s) = 3.05113 3.68949 3.38539
# Velocity P-wave (km/s) = 5.09321 6.25911 5.70602
#
# Compressibility (1/GPa) = 0.03709063
#
# Stress axis : x y z
#
# Youngs Moduli (GPa) = 31.72689 54.58791 69.65162
#
# Poissons Ratio (x) = 0.52137 0.15215
# Poissons Ratio (y) = 0.30302 0.12655
# Poissons Ratio (z) = 0.06931 0.09918
#
# Static dielectric constant tensor:
#      x y z
#    x 1.744650 0.000000 -0.012290 
#    y 0.000000 1.765640 0.000000 
#    z -0.012290 0.000000 1.800830 
# 
# From -- ./inp_files/57958.got.cif
#   From: 2010.05.17/outbox.cif.g08.bks.cpg/sg15_29_cif.got.tgz:57958.got - 2010.06.03 18:47:42.
