data_PCOD9262631
_publ_section_title
;
Structure prediction by ZEFSAII (Michael W. Deem and Ramdas Pophale) SiO2 
 PCOD9262631
Probable space group: C 2/C
;
_chemical_formula_sum "Si O2"
_cell_formula_units_Z 60
_cell_length_a 25.306742
_cell_length_b 7.792044
_cell_length_c 26.201749
_cell_angle_alpha 90.000000
_cell_angle_beta 147.848713
_cell_angle_gamma 90.000000
_cell_volume 2749.523323
_symmetry_space_group_name_H-M "C 2/C"
_symmetry_group_IT_number 15
_symmetry_cell_setting 'monoclinic'
loop_
_space_group_symop_operation_xyz
x,y,z
-x,y,1/2-z
-x,-y,-z
x,-y,1/2+z
1/2+x,1/2+y,z
1/2-x,1/2+y,1/2-z
1/2-x,1/2-y,-z
1/2+x,1/2-y,1/2+z
loop_
_atom_site_type_symbol
_atom_site_label
_atom_site_fract_x
_atom_site_fract_y
_atom_site_fract_z
Si Si1 0.655585 0.836606 0.109916
Si Si2 0.999492 0.755806 0.938719
Si Si3 0.039140 0.830811 0.377239
Si Si4 0.500000 0.578297 0.250000
Si Si5 0.824480 0.015025 0.926665
Si Si6 0.641601 0.528902 0.722391
Si Si7 0.693170 0.708207 0.362004
Si Si8 0.389662 0.981904 0.036024
O O1 0.559816 0.845447 0.067066
O O2 0.685019 0.642477 0.119135
O O3 0.754314 0.914442 0.215508
O O4 0.631570 0.930513 0.036822
O O5 0.022337 0.650348 0.905709
O O6 0.927160 0.914417 0.869131
O O7 0.106122 0.835235 0.040592
O O8 0.080951 0.639494 0.403968
O O9 0.931512 0.822006 0.317052
O O10 0.113272 0.934552 0.475243
O O11 0.025158 0.949757 0.316899
O O12 0.595660 0.694194 0.316334
O O13 0.727461 0.107447 0.869206
O O14 0.669091 0.411508 0.793575
O O15 0.790186 0.622625 0.468245
#
# Coordination Sequence:
#
# PCOD9262631 Si02
#       8
#     8   8   8   4   8   8   8   8
#     4  10  19  33  54  81 111 149 187 223 267 335
#     4  10  19  33  54  81 111 149 187 223 267 335
#     4   9  19  36  55  77 106 144 179 230 281 328
#     4  10  20  36  60  82 112 140 184 236 288 348
#     4   9  19  35  55  77 110 145 184 226 277 326
#     4   9  20  33  48  76 112 142 176 227 284 315
#     4   9  19  36  55  77 106 144 179 230 281 328
#     4   9  19  35  55  77 110 145 184 226 277 326
#
# _framework density 21.821964000000001
#
# number of rings (size 3 to 8) (size 9 to 14) (size 15 to 20)
#    0.000    2.667    0.000    0.800    0.000    4.267 
#    0.000    2.667    0.000   25.600    0.000    0.000 
#    0.000    0.000    0.000    0.000    0.000    0.000 
#
# Total GULP energy -167433.758361 kJ/mol
# GULP energy per Si atom -5581.125279 kJ/mol
# Density = 2.177230 g / cm^3
# Si number density = 21.821964 Si / 1000 Ang^3
#
#
#
# Elastic Constant Matrix: (Units=GPa)
#
#
# Indices 1 2 3 4 5 6 
#
# 1 79.9734 25.2729 35.3243 0.0000 37.9303 0.0000
# 2 25.2729 75.9322 27.2720 -0.0001 29.6227 0.0000
# 3 35.3243 27.2720 50.1067 0.0000 18.1541 0.0000
# 4 0.0000 -0.0001 0.0000 13.6114 0.0001 5.4819
# 5 37.9303 29.6227 18.1541 0.0001 26.9924 0.0000
# 6 0.0000 0.0000 0.0000 5.4819 0.0000 18.2984
#
#
#
# Elastic Compliance Matrix: (Units=1/GPa)
#
#
# Indices 1 2 3 4 5 6 
#
# 1 0.061745 0.026841 -0.021195 0.000001 -0.101967 0.000000
# 2 0.026841 0.035478 -0.013831 0.000001 -0.067351 0.000000
# 3 -0.021195 -0.013831 0.034558 0.000000 0.021719 0.000000
# 4 0.000001 0.000001 0.000000 0.083548 -0.000002 -0.025030
# 5 -0.101967 -0.067351 0.021719 -0.000002 0.239640 0.000000
# 6 0.000000 0.000000 0.000000 -0.025030 0.000000 0.062148
#
#
# Mechanical properties :
#
#
# Convention : Reuss Voigt Hill
#
# Bulk Modulus (GPa) = 8.66455 42.41676 25.54065
# Shear Modulus (GPa) = 8.74191 19.65665 14.19928
#
# Velocity S-wave (km/s) = 2.00367 3.00454 2.55362
# Velocity P-wave (km/s) = 3.05485 5.61393 4.51931
#
# Compressibility (1/GPa) = 0.11541277
#
# Stress axis : x y z
#
# Youngs Moduli (GPa) = 16.19558 28.18613 28.93687
#
# Poissons Ratio (x) = -0.75654 0.61330
# Poissons Ratio (y) = -0.43470 0.40021
# Poissons Ratio (z) = 0.34326 0.38983
#
# Static dielectric constant tensor:
#      x y z
#    x 1.824270 0.000000 0.003660 
#    y 0.000000 1.838310 0.000000 
#    z 0.003660 0.000000 1.799460 
# 
# From -- ./inp_files/302085.got.cif
#   From: 2010.05.17/outbox.cif.g08.bks.cpg/sg15_152_cif.got.tgz:302085.got - 2010.06.03 18:47:42.
