data_PCOD9262836
_publ_section_title
;
Structure prediction by ZEFSAII (Michael W. Deem and Ramdas Pophale) SiO2 
 PCOD9262836
Probable space group: C 2/C
;
_chemical_formula_sum "Si O2"
_cell_formula_units_Z 56
_cell_length_a 18.284439
_cell_length_b 16.162535
_cell_length_c 9.444401
_cell_angle_alpha 90.000000
_cell_angle_beta 91.835345
_cell_angle_gamma 90.000000
_cell_volume 2789.604813
_symmetry_space_group_name_H-M "C 2/C"
_symmetry_group_IT_number 15
_symmetry_cell_setting 'monoclinic'
loop_
_space_group_symop_operation_xyz
x,y,z
-x,y,1/2-z
-x,-y,-z
x,-y,1/2+z
1/2+x,1/2+y,z
1/2-x,1/2+y,1/2-z
1/2-x,1/2-y,-z
1/2+x,1/2-y,1/2+z
loop_
_atom_site_type_symbol
_atom_site_label
_atom_site_fract_x
_atom_site_fract_y
_atom_site_fract_z
Si Si1 0.348462 0.699774 0.417613
Si Si2 0.843091 0.470134 0.897942
Si Si3 0.439424 0.042314 0.142398
Si Si4 0.251777 0.864166 0.370474
Si Si5 0.725311 0.164819 0.925678
Si Si6 0.015811 0.728888 0.410925
Si Si7 0.924305 0.260589 0.167897
O O1 0.294455 0.777586 0.392981
O O2 0.304122 0.631012 0.501277
O O3 0.411098 0.730290 0.527059
O O4 0.388985 0.690208 0.268051
O O5 0.873713 0.439501 0.749360
O O6 0.805655 0.558678 0.879157
O O7 0.908591 0.486839 0.014436
O O8 0.785453 0.406170 0.959617
O O9 0.500000 0.002358 0.250000
O O10 0.470959 0.129414 0.087691
O O11 0.224637 0.858476 0.205889
O O12 0.642721 0.176582 0.857667
O O13 0.750000 0.250000 0.000000
O O14 0.000000 0.751672 0.250000
O O15 0.951283 0.756831 0.511505
O O16 0.000000 0.288908 0.250000
#
# Coordination Sequence:
#
# PCOD9262836 Si02
#       7
#     8   8   8   8   8   8   8
#     4   9  19  36  59  77 113 161 202 247 297 355
#     4  12  23  40  55  86 127 166 210 249 308 369
#     4  11  23  35  53  83 124 177 200 244 294 368
#     4  10  21  38  58  83 118 163 207 252 304 360
#     4  11  24  38  61  90 124 162 209 264 307 371
#     4  10  19  33  56  86 116 153 202 247 298 361
#     4   9  20  38  59  85 118 160 206 244 301 370
#
# _framework density 20.074527
#
# number of rings (size 3 to 8) (size 9 to 14) (size 15 to 20)
#    0.000    1.714    2.857    2.143    4.000    1.714 
#    0.000    0.000    0.000    0.000    0.000    5.000 
#    0.000    0.000    0.000    0.000    0.000    0.000 
#
# Total GULP energy -156081.999266 kJ/mol
# GULP energy per Si atom -5574.357117 kJ/mol
# Density = 2.002884 g / cm^3
# Si number density = 20.074527 Si / 1000 Ang^3
#
#
#
# Elastic Constant Matrix: (Units=GPa)
#
#
# Indices 1 2 3 4 5 6 
#
# 1 33.3860 8.7258 31.6544 0.0000 -25.2473 0.0000
# 2 8.7258 40.4620 20.2788 0.0000 -6.9639 0.0000
# 3 31.6544 20.2788 143.0748 0.0000 -36.8131 0.0000
# 4 0.0000 0.0000 0.0000 46.5674 0.0000 -8.4779
# 5 -25.2473 -6.9639 -36.8131 0.0000 34.1054 0.0000
# 6 0.0000 0.0000 0.0000 -8.4779 0.0000 18.3129
#
#
#
# Elastic Compliance Matrix: (Units=1/GPa)
#
#
# Indices 1 2 3 4 5 6 
#
# 1 0.070106 -0.005664 -0.002287 0.000000 0.048272 0.000000
# 2 -0.005664 0.027150 -0.003112 0.000000 -0.002008 0.000000
# 3 -0.002287 -0.003112 0.010159 0.000000 0.008637 0.000000
# 4 0.000000 0.000000 0.000000 0.023451 0.000000 0.010857
# 5 0.048272 -0.002008 0.008637 0.000000 0.073968 0.000000
# 6 0.000000 0.000000 0.000000 0.010857 0.000000 0.059632
#
#
# Mechanical properties :
#
#
# Convention : Reuss Voigt Hill
#
# Bulk Modulus (GPa) = 11.72492 37.58232 24.65362
# Shear Modulus (GPa) = 15.87194 30.21472 23.04333
#
# Velocity S-wave (km/s) = 2.81490 3.88381 3.39173
# Velocity P-wave (km/s) = 4.05195 6.23490 5.25796
#
# Compressibility (1/GPa) = 0.08528846
#
# Stress axis : x y z
#
# Youngs Moduli (GPa) = 14.26404 36.83246 98.43859
#
# Poissons Ratio (x) = 0.20863 0.22516
# Poissons Ratio (y) = 0.08080 0.30630
# Poissons Ratio (z) = 0.03263 0.11461
#
# Static dielectric constant tensor:
#      x y z
#    x 1.769480 0.000000 -0.028630 
#    y 0.000000 1.676780 0.000000 
#    z -0.028630 0.000000 1.789980 
# 
# From -- ./inp_files/55632.got.cif
#   From: 2010.05.17/outbox.cif.g08.bks.cpg/sg15_28_cif.got.tgz:55632.got - 2010.06.03 18:47:42.
