data_PCOD9262248
_publ_section_title
;
Structure prediction by ZEFSAII (Michael W. Deem and Ramdas Pophale) SiO2 
 PCOD9262248
Probable space group: C 2/C
;
_chemical_formula_sum "Si O2"
_cell_formula_units_Z 48
_cell_length_a 22.038001
_cell_length_b 9.113734
_cell_length_c 12.901543
_cell_angle_alpha 90.000000
_cell_angle_beta 40.246063
_cell_angle_gamma 90.000000
_cell_volume 1674.136278
_symmetry_space_group_name_H-M "C 2/C"
_symmetry_group_IT_number 15
_symmetry_cell_setting 'monoclinic'
loop_
_space_group_symop_operation_xyz
x,y,z
-x,y,1/2-z
-x,-y,-z
x,-y,1/2+z
1/2+x,1/2+y,z
1/2-x,1/2+y,1/2-z
1/2-x,1/2-y,-z
1/2+x,1/2-y,1/2+z
loop_
_atom_site_type_symbol
_atom_site_label
_atom_site_fract_x
_atom_site_fract_y
_atom_site_fract_z
Si Si1 0.666743 0.442730 0.679688
Si Si2 0.225588 0.930729 0.894359
Si Si3 0.655306 0.177089 0.420938
Si Si4 0.035051 0.975298 0.585276
Si Si5 0.510791 0.907344 0.623422
Si Si6 0.878719 0.359243 0.216217
O O1 0.703622 0.551255 0.543633
O O2 0.754825 0.390303 0.632944
O O3 0.563893 0.502489 0.847078
O O4 0.633366 0.276226 0.690568
O O5 0.278148 0.087546 0.803107
O O6 0.296604 0.813011 0.756226
O O7 0.126618 0.919914 0.964817
O O8 0.587294 0.317132 0.516085
O O9 0.584217 0.041567 0.531180
O O10 0.000000 0.989084 0.750000
O O11 0.500000 0.834490 0.750000
O O12 0.547672 0.826635 0.472040
O O13 0.415632 0.995124 0.723747
#
# Coordination Sequence:
#
# PCOD9262248 Si02
#       6
#     8   8   8   8   8   8
#     4  11  21  36  61  84 120 158 203 242 296 352
#     4  10  22  35  55  91 120 153 202 245 296 356
#     4  11  21  35  58  86 121 157 195 250 296 345
#     4  10  21  35  59  88 116 152 203 246 289 353
#     4  10  20  32  52  89 126 147 192 250 301 341
#     4  10  19  32  56  87 116 157 195 244 297 351
#
# _framework density 28.671503000000001
#
# number of rings (size 3 to 8) (size 9 to 14) (size 15 to 20)
#    0.000    1.667    3.333    2.000    4.667    0.667 
#    0.000    0.000    0.000    6.000    0.000    0.000 
#    0.000    0.000    0.000    0.000    0.000    0.000 
#
# Total GULP energy -133974.845137 kJ/mol
# GULP energy per Si atom -5582.285214 kJ/mol
# Density = 2.860625 g / cm^3
# Si number density = 28.671503 Si / 1000 Ang^3
#
#
#
# Elastic Constant Matrix: (Units=GPa)
#
#
# Indices 1 2 3 4 5 6 
#
# 1 154.9268 21.8316 36.3655 0.0001 -29.5034 0.0000
# 2 21.8316 65.4094 25.9848 0.0002 -2.8689 -0.0001
# 3 36.3655 25.9848 192.0578 0.0002 -21.7070 -0.0001
# 4 0.0001 0.0002 0.0002 -156.0747 0.0000 -97.7668
# 5 -29.5034 -2.8689 -21.7070 0.0000 58.9401 0.0000
# 6 0.0000 -0.0001 -0.0001 -97.7668 0.0000 -19.7007
#
#
#
# Elastic Compliance Matrix: (Units=1/GPa)
#
#
# Indices 1 2 3 4 5 6 
#
# 1 0.007576 -0.002074 -0.000769 0.000000 0.003408 0.000000
# 2 -0.002074 0.016724 -0.001978 0.000000 -0.000952 0.000000
# 3 -0.000769 -0.001978 0.005807 0.000000 0.001658 0.000000
# 4 0.000000 0.000000 0.000000 0.003039 0.000000 -0.015079
# 5 0.003408 -0.000952 0.001658 0.000000 0.019237 0.000000
# 6 0.000000 0.000000 0.000000 -0.015079 0.000000 0.024072
#
#
# Mechanical properties :
#
#
# Convention : Reuss Voigt Hill
#
# Bulk Modulus (GPa) = 48.85817 64.52864 56.69340
# Shear Modulus (GPa) = 53.81039 -1.48625 26.16207
#
# Velocity S-wave (km/s) = 4.33689 -0.72076 3.02400
# Velocity P-wave (km/s) = 6.49275 4.67572 5.65766
#
# Compressibility (1/GPa) = 0.02046741
#
# Stress axis : x y z
#
# Youngs Moduli (GPa) = 131.98813 59.79278 172.19822
#
# Poissons Ratio (x) = 0.12400 0.13238
# Poissons Ratio (y) = 0.27373 0.34056
# Poissons Ratio (z) = 0.10147 0.11825
#
# Static dielectric constant tensor:
#      x y z
#    x 2.368740 0.000000 0.059390 
#    y 0.000000 2.281990 0.000000 
#    z 0.059390 0.000000 2.252300 
# 
# From -- ./inp_files/178132.got.cif
#   From: 2010.05.17/outbox.cif.g08.bks.cpg/sg15_90_cif.got.tgz:178132.got - 2010.06.03 18:47:42.
