data_PCOD9262240
_publ_section_title
;
Structure prediction by ZEFSAII (Michael W. Deem and Ramdas Pophale) SiO2 
 PCOD9262240
Probable space group: C 2/C
;
_chemical_formula_sum "Si O2"
_cell_formula_units_Z 56
_cell_length_a 6.869211
_cell_length_b 23.455174
_cell_length_c 18.378553
_cell_angle_alpha 90.000000
_cell_angle_beta 124.727119
_cell_angle_gamma 90.000000
_cell_volume 2433.673632
_symmetry_space_group_name_H-M "C 2/C"
_symmetry_group_IT_number 15
_symmetry_cell_setting 'monoclinic'
loop_
_space_group_symop_operation_xyz
x,y,z
-x,y,1/2-z
-x,-y,-z
x,-y,1/2+z
1/2+x,1/2+y,z
1/2-x,1/2+y,1/2-z
1/2-x,1/2-y,-z
1/2+x,1/2-y,1/2+z
loop_
_atom_site_type_symbol
_atom_site_label
_atom_site_fract_x
_atom_site_fract_y
_atom_site_fract_z
Si Si1 0.613234 0.822215 0.945342
Si Si2 0.686028 0.452673 0.965514
Si Si3 0.613919 0.710913 0.599309
Si Si4 0.240752 0.110706 0.730834
Si Si5 0.163842 0.982847 0.717898
Si Si6 0.471565 0.848548 0.080524
Si Si7 0.950390 0.549589 0.094604
O O1 0.545781 0.830310 0.016174
O O2 0.882891 0.800815 0.000714
O O3 0.433544 0.773719 0.879324
O O4 0.596339 0.883795 0.906093
O O5 0.429213 0.450787 0.873282
O O6 0.864832 0.454089 0.934195
O O7 0.774268 0.398755 0.030877
O O8 0.737739 0.510076 0.021283
O O9 0.624009 0.662890 0.663526
O O10 0.848731 0.701422 0.601220
O O11 0.500000 0.103810 0.750000
O O12 0.305624 0.126487 0.827502
O O13 0.116408 0.050045 0.696017
O O14 0.422686 0.976060 0.807537
O O15 0.000000 0.962666 0.750000
#
# Coordination Sequence:
#
# PCOD9262240 Si02
#       7
#     8   8   8   8   8   8   8
#     4  10  21  38  60  79 115 153 190 244 291 339
#     4   9  17  31  54  84 111 143 187 233 285 352
#     4  10  22  38  56  87 112 150 202 235 286 352
#     4  10  21  36  53  85 116 144 190 240 281 348
#     4  10  19  32  56  85 112 147 191 232 293 354
#     4  10  20  38  60  83 113 153 189 238 291 346
#     4   9  17  32  53  83 112 145 185 236 292 344
#
# _framework density 23.010482
#
# number of rings (size 3 to 8) (size 9 to 14) (size 15 to 20)
#    0.000    2.286    1.429    1.286    4.000    0.000 
#    2.571   14.286    0.000    1.714    0.000    0.000 
#    0.000    0.000    0.000    0.000    0.000    0.000 
#
# Total GULP energy -156536.658386 kJ/mol
# GULP energy per Si atom -5590.594942 kJ/mol
# Density = 2.295811 g / cm^3
# Si number density = 23.010482 Si / 1000 Ang^3
#
#
#
# Elastic Constant Matrix: (Units=GPa)
#
#
# Indices 1 2 3 4 5 6 
#
# 1 56.1151 4.4777 0.8920 0.0000 -5.3353 0.0000
# 2 4.4777 118.0810 32.4702 0.0000 0.3615 0.0000
# 3 0.8920 32.4702 101.9093 0.0000 5.2864 0.0000
# 4 0.0000 0.0000 0.0000 36.7185 0.0000 7.0560
# 5 -5.3353 0.3615 5.2864 0.0000 31.7144 0.0000
# 6 0.0000 0.0000 0.0000 7.0560 0.0000 27.6854
#
#
#
# Elastic Compliance Matrix: (Units=1/GPa)
#
#
# Indices 1 2 3 4 5 6 
#
# 1 0.018169 -0.000669 -0.000106 0.000000 0.003082 0.000000
# 2 -0.000669 0.009311 -0.002975 0.000000 0.000277 0.000000
# 3 -0.000106 -0.002975 0.010855 0.000000 -0.001793 0.000000
# 4 0.000000 0.000000 0.000000 0.028637 0.000000 -0.007298
# 5 0.003082 0.000277 -0.001793 0.000000 0.032346 0.000000
# 6 0.000000 0.000000 0.000000 -0.007298 0.000000 0.037980
#
#
# Mechanical properties :
#
#
# Convention : Reuss Voigt Hill
#
# Bulk Modulus (GPa) = 32.43168 39.08723 35.75946
# Shear Modulus (GPa) = 32.24231 35.10804 33.67517
#
# Velocity S-wave (km/s) = 3.74732 3.91031 3.82968
# Velocity P-wave (km/s) = 5.73133 6.11645 5.92702
#
# Compressibility (1/GPa) = 0.03083405
#
# Stress axis : x y z
#
# Youngs Moduli (GPa) = 55.04002 107.39460 92.12698
#
# Poissons Ratio (x) = 0.07189 0.00973
# Poissons Ratio (y) = 0.03684 0.27411
# Poissons Ratio (z) = 0.00581 0.31953
#
# Static dielectric constant tensor:
#      x y z
#    x 1.933570 0.000000 -0.000020 
#    y 0.000000 1.850310 0.000000 
#    z -0.000020 0.000000 1.832660 
# 
# From -- ./inp_files/233932.got.cif
#   From: 2010.05.17/outbox.cif.g08.bks.cpg/sg15_117_cif.got.tgz:233932.got - 2010.06.03 18:47:42.
