data_PCOD9262951
_publ_section_title
;
Structure prediction by ZEFSAII (Michael W. Deem and Ramdas Pophale) SiO2 
 PCOD9262951
Probable space group: C 2/C
;
_chemical_formula_sum "Si O2"
_cell_formula_units_Z 48
_cell_length_a 7.530893
_cell_length_b 11.387137
_cell_length_c 18.905204
_cell_angle_alpha 90.000000
_cell_angle_beta 99.339960
_cell_angle_gamma 90.000000
_cell_volume 1599.728725
_symmetry_space_group_name_H-M "C 2/C"
_symmetry_group_IT_number 15
_symmetry_cell_setting 'monoclinic'
loop_
_space_group_symop_operation_xyz
x,y,z
-x,y,1/2-z
-x,-y,-z
x,-y,1/2+z
1/2+x,1/2+y,z
1/2-x,1/2+y,1/2-z
1/2-x,1/2-y,-z
1/2+x,1/2-y,1/2+z
loop_
_atom_site_type_symbol
_atom_site_label
_atom_site_fract_x
_atom_site_fract_y
_atom_site_fract_z
Si Si1 0.089070 0.656143 0.483858
Si Si2 0.269882 0.096306 0.645781
Si Si3 0.474681 0.413016 0.673928
Si Si4 0.027136 0.708158 0.330192
Si Si5 0.881589 0.880521 0.509488
Si Si6 0.169050 0.597203 0.641196
O O1 0.250000 0.750000 0.500000
O O2 0.857992 0.796447 0.334355
O O3 0.137636 0.574948 0.553958
O O4 0.932959 0.749527 0.487696
O O5 0.263303 0.090840 0.559820
O O6 0.482708 0.106269 0.670505
O O7 0.449161 0.875961 0.600285
O O8 0.156315 0.985176 0.667208
O O9 0.500000 0.348093 0.750000
O O10 0.408614 0.362720 0.595003
O O11 0.309216 0.502054 0.678068
O O12 0.211701 0.784319 0.343911
O O13 0.000000 0.659161 0.250000
O O14 0.000000 0.000000 0.500000
#
# Coordination Sequence:
#
# PCOD9262951 Si02
#       6
#     8   8   8   8   8   8
#     4   9  18  34  58  81 113 151 194 236 285 342
#     4   9  18  32  56  81 105 142 197 237 271 346
#     4  10  21  37  59  82 115 151 194 241 296 350
#     4   9  18  31  49  78 114 145 183 234 291 337
#     4   9  18  34  55  81 109 153 192 231 287 351
#     4  10  19  33  58  85 104 149 199 242 282 341
#
# _framework density 30.005087
#
# number of rings (size 3 to 8) (size 9 to 14) (size 15 to 20)
#    0.000    2.667    0.000    5.000    0.000    6.000 
#    0.000    0.000   18.333    0.000    0.000    0.000 
#    0.000    0.000    0.000    0.000    0.000    0.000 
#
# Total GULP energy -134210.620736 kJ/mol
# GULP energy per Si atom -5592.109197 kJ/mol
# Density = 2.993679 g / cm^3
# Si number density = 30.005087 Si / 1000 Ang^3
#
#
#
# Elastic Constant Matrix: (Units=GPa)
#
#
# Indices 1 2 3 4 5 6 
#
# 1 253.4773 25.4601 45.4253 0.0000 -2.9874 0.0000
# 2 25.4601 90.9226 77.9751 0.0000 -8.5353 0.0000
# 3 45.4253 77.9751 338.7595 0.0000 -12.4379 0.0000
# 4 0.0000 0.0000 0.0000 42.4355 0.0000 1.0056
# 5 -2.9874 -8.5353 -12.4379 0.0000 20.0072 0.0000
# 6 0.0000 0.0000 0.0000 1.0056 0.0000 41.2333
#
#
#
# Elastic Compliance Matrix: (Units=1/GPa)
#
#
# Indices 1 2 3 4 5 6 
#
# 1 0.004093 -0.000839 -0.000355 0.000000 0.000033 0.000000
# 2 -0.000839 0.014192 -0.003005 0.000000 0.004061 0.000000
# 3 -0.000355 -0.003005 0.003727 0.000000 0.000982 0.000000
# 4 0.000000 0.000000 0.000000 0.023579 0.000000 -0.000575
# 5 0.000033 0.004061 0.000982 0.000000 0.052330 0.000000
# 6 0.000000 0.000000 0.000000 -0.000575 0.000000 0.024266
#
#
# Mechanical properties :
#
#
# Convention : Reuss Voigt Hill
#
# Bulk Modulus (GPa) = 73.44856 108.98672 91.21764
# Shear Modulus (GPa) = 37.00337 56.35512 46.67924
#
# Velocity S-wave (km/s) = 3.51556 4.33851 3.94853
# Velocity P-wave (km/s) = 6.40396 7.84209 7.15923
#
# Compressibility (1/GPa) = 0.01361497
#
# Stress axis : x y z
#
# Youngs Moduli (GPa) = 244.29983 70.46411 268.29538
#
# Poissons Ratio (x) = 0.05912 0.09512
# Poissons Ratio (y) = 0.20499 0.80623
# Poissons Ratio (z) = 0.08662 0.21174
#
# Static dielectric constant tensor:
#      x y z
#    x 2.137370 0.000000 -0.103070 
#    y 0.000000 2.345040 0.000000 
#    z -0.103070 0.000000 2.204440 
# 
# From -- ./inp_files/196605.got.cif
#   From: 2010.05.17/outbox.cif.g08.bks.cpg/sg15_99_cif.got.tgz:196605.got - 2010.06.03 18:47:42.
