data_PCOD9262426
_publ_section_title
;
Structure prediction by ZEFSAII (Michael W. Deem and Ramdas Pophale) SiO2 
 PCOD9262426
Probable space group: C 2/C
;
_chemical_formula_sum "Si O2"
_cell_formula_units_Z 40
_cell_length_a 5.408105
_cell_length_b 19.429336
_cell_length_c 17.218726
_cell_angle_alpha 90.000000
_cell_angle_beta 109.472054
_cell_angle_gamma 90.000000
_cell_volume 1705.790119
_symmetry_space_group_name_H-M "C 2/C"
_symmetry_group_IT_number 15
_symmetry_cell_setting 'monoclinic'
loop_
_space_group_symop_operation_xyz
x,y,z
-x,y,1/2-z
-x,-y,-z
x,-y,1/2+z
1/2+x,1/2+y,z
1/2-x,1/2+y,1/2-z
1/2-x,1/2-y,-z
1/2+x,1/2-y,1/2+z
loop_
_atom_site_type_symbol
_atom_site_label
_atom_site_fract_x
_atom_site_fract_y
_atom_site_fract_z
Si Si1 0.806065 0.722616 0.304522
Si Si2 0.805354 0.122049 0.802891
Si Si3 0.962347 0.081081 0.484585
Si Si4 0.078319 0.385384 0.548834
Si Si5 0.477900 0.476834 0.655614
O O1 0.500000 0.712521 0.250000
O O2 0.827997 0.801192 0.337740
O O3 0.872981 0.671097 0.380956
O O4 0.000000 0.714634 0.250000
O O5 0.500000 0.110836 0.750000
O O6 0.000000 0.124621 0.750000
O O7 0.908090 0.052000 0.852745
O O8 0.722676 0.112350 0.504544
O O9 0.235383 0.120706 0.506750
O O10 0.875389 0.079589 0.382538
O O11 0.000000 0.000000 0.500000
O O12 0.180443 0.458452 0.597195
O O13 0.500000 0.467221 0.750000
#
# Coordination Sequence:
#
# PCOD9262426 Si02
#       5
#     8   8   8   8   8
#     4  10  19  33  51  79 113 140 168 217 274 323
#     4   9  19  32  49  75 113 142 166 209 273 323
#     4  10  22  36  52  76 106 144 175 219 270 313
#     4  10  21  31  56  75 104 135 177 220 259 312
#     4   9  21  31  55  81 105 131 176 220 261 311
#
# _framework density 23.449545000000001
#
# number of rings (size 3 to 8) (size 9 to 14) (size 15 to 20)
#    1.200    1.200    0.000    2.400    8.400    0.000 
#    0.000    0.000    0.000    2.400    0.000    0.000 
#    0.000    0.000    0.000    0.000    0.000    0.000 
#
# Total GULP energy -111398.963216 kJ/mol
# GULP energy per Si atom -5569.948161 kJ/mol
# Density = 2.339617 g / cm^3
# Si number density = 23.449545 Si / 1000 Ang^3
#
#
#
# Elastic Constant Matrix: (Units=GPa)
#
#
# Indices 1 2 3 4 5 6 
#
# 1 198.9683 36.7321 26.2087 0.0000 10.9223 0.0000
# 2 36.7321 99.8573 17.1818 0.0000 0.7378 0.0000
# 3 26.2087 17.1818 45.0648 0.0000 2.0094 0.0000
# 4 0.0000 0.0000 0.0000 43.5416 0.0000 -3.1993
# 5 10.9223 0.7378 2.0094 0.0000 23.5871 0.0000
# 6 0.0000 0.0000 0.0000 -3.1993 0.0000 27.5015
#
#
#
# Elastic Compliance Matrix: (Units=1/GPa)
#
#
# Indices 1 2 3 4 5 6 
#
# 1 0.005814 -0.001667 -0.002638 0.000000 -0.002415 0.000000
# 2 -0.001667 0.011195 -0.003330 0.000000 0.000705 0.000000
# 3 -0.002638 -0.003330 0.025030 0.000000 -0.000807 0.000000
# 4 0.000000 0.000000 0.000000 0.023165 0.000000 0.002695
# 5 -0.002415 0.000705 -0.000807 0.000000 0.043561 0.000000
# 6 0.000000 0.000000 0.000000 0.002695 0.000000 0.036675
#
#
# Mechanical properties :
#
#
# Convention : Reuss Voigt Hill
#
# Bulk Modulus (GPa) = 37.35703 56.01508 46.68606
# Shear Modulus (GPa) = 29.47536 36.51058 32.99297
#
# Velocity S-wave (km/s) = 3.54922 3.95015 3.75504
# Velocity P-wave (km/s) = 5.72376 6.68911 6.22517
#
# Compressibility (1/GPa) = 0.02676872
#
# Stress axis : x y z
#
# Youngs Moduli (GPa) = 172.00752 89.32353 39.95178
#
# Poissons Ratio (x) = 0.14889 0.10539
# Poissons Ratio (y) = 0.28670 0.13306
# Poissons Ratio (z) = 0.45374 0.29749
#
# Static dielectric constant tensor:
#      x y z
#    x 1.972480 0.000000 -0.067110 
#    y 0.000000 1.869200 0.000000 
#    z -0.067110 0.000000 2.039500 
# 
# From -- ./inp_files/260968.got.cif
#   From: 2010.05.17/outbox.cif.g08.bks.cpg/sg15_131_cif.got.tgz:260968.got - 2010.06.03 18:47:42.
