data_PCOD9262751
_publ_section_title
;
Structure prediction by ZEFSAII (Michael W. Deem and Ramdas Pophale) SiO2 
 PCOD9262751
Probable space group: C 2/C
;
_chemical_formula_sum "Si O2"
_cell_formula_units_Z 48
_cell_length_a 25.280719
_cell_length_b 12.021661
_cell_length_c 26.360469
_cell_angle_alpha 90.000000
_cell_angle_beta 18.819209
_cell_angle_gamma 90.000000
_cell_volume 2584.333615
_symmetry_space_group_name_H-M "C 2/C"
_symmetry_group_IT_number 15
_symmetry_cell_setting 'monoclinic'
loop_
_space_group_symop_operation_xyz
x,y,z
-x,y,1/2-z
-x,-y,-z
x,-y,1/2+z
1/2+x,1/2+y,z
1/2-x,1/2+y,1/2-z
1/2-x,1/2-y,-z
1/2+x,1/2-y,1/2+z
loop_
_atom_site_type_symbol
_atom_site_label
_atom_site_fract_x
_atom_site_fract_y
_atom_site_fract_z
Si Si1 0.371067 0.525382 0.047359
Si Si2 0.501725 0.595711 0.832823
Si Si3 0.945835 0.617547 0.527113
Si Si4 0.030041 0.644022 0.335039
Si Si5 0.122372 0.838190 0.382807
Si Si6 0.242641 0.379932 0.489815
O O1 0.211107 0.593550 0.174916
O O2 0.331803 0.407289 0.108449
O O3 0.496714 0.517949 0.886325
O O4 0.460457 0.601533 0.007941
O O5 0.514730 0.722671 0.841878
O O6 0.642096 0.593995 0.663133
O O7 0.333694 0.567320 0.954973
O O8 0.769255 0.647969 0.709759
O O9 0.000000 0.500000 0.500000
O O10 0.947982 0.617986 0.463980
O O11 0.074343 0.710080 0.430033
O O12 0.936603 0.597561 0.370001
O O13 0.250000 0.250000 0.500000
#
# Coordination Sequence:
#
# PCOD9262751 Si02
#       6
#     8   8   8   8   8   8
#     4  11  22  36  56  81 123 160 203 249 300 363
#     4  10  19  33  55  84 122 163 189 251 312 370
#     4  12  24  40  62  84 122 165 209 255 311 362
#     4  11  19  33  54  84 116 162 195 247 307 371
#     4  11  25  39  54  87 118 163 213 252 297 373
#     4   9  19  32  52  83 122 155 201 242 305 387
#
# _framework density 18.573454999999999
#
# number of rings (size 3 to 8) (size 9 to 14) (size 15 to 20)
#    0.000    1.333    3.333    4.000    2.333    2.000 
#    0.000    0.000    0.000    0.000    0.000    1.167 
#    0.000    0.000    0.000    0.000    0.000    0.000 
#
# Total GULP energy -133863.797715 kJ/mol
# GULP energy per Si atom -5577.658238 kJ/mol
# Density = 1.853118 g / cm^3
# Si number density = 18.573455 Si / 1000 Ang^3
#
#
#
# Elastic Constant Matrix: (Units=GPa)
#
#
# Indices 1 2 3 4 5 6 
#
# 1 93.8061 30.8696 29.0000 -0.0055 -1.3520 -0.0008
# 2 30.8696 80.8174 27.4858 0.0018 -1.2282 0.0003
# 3 29.0000 27.4858 85.1883 0.0113 -4.2922 -0.0006
# 4 -0.0055 0.0018 0.0113 19.9418 0.0016 2.8804
# 5 -1.3520 -1.2282 -4.2922 0.0016 44.8480 -0.0003
# 6 -0.0008 0.0003 -0.0006 2.8804 -0.0003 23.1776
#
#
#
# Elastic Compliance Matrix: (Units=1/GPa)
#
#
# Indices 1 2 3 4 5 6 
#
# 1 0.012903 -0.003858 -0.003149 0.000006 -0.000018 0.000000
# 2 -0.003858 0.015052 -0.003545 0.000000 -0.000043 0.000000
# 3 -0.003149 -0.003545 0.014012 -0.000009 0.001149 0.000001
# 4 0.000006 0.000000 -0.000009 0.051063 -0.000002 -0.006346
# 5 -0.000018 -0.000043 0.001149 -0.000002 0.022406 0.000001
# 6 0.000000 0.000000 0.000001 -0.006346 0.000001 0.043934
#
#
# Mechanical properties :
#
#
# Convention : Reuss Voigt Hill
#
# Bulk Modulus (GPa) = 47.93024 48.28030 48.10527
# Shear Modulus (GPa) = 26.67687 29.09057 27.88372
#
# Velocity S-wave (km/s) = 3.79395 3.96187 3.87882
# Velocity P-wave (km/s) = 6.71222 6.85414 6.78355
#
# Compressibility (1/GPa) = 0.02086366
#
# Stress axis : x y z
#
# Youngs Moduli (GPa) = 77.50138 66.43488 71.36542
#
# Poissons Ratio (x) = 0.25630 0.22470
# Poissons Ratio (y) = 0.29900 0.25302
# Poissons Ratio (z) = 0.24402 0.23554
#
# Static dielectric constant tensor:
#      x y z
#    x 1.672580 0.000000 -0.034840 
#    y 0.000000 1.624000 0.000010 
#    z -0.034840 0.000010 1.701980 
# 
# From -- ./inp_files/60556.got.cif
#   From: 2010.05.17/outbox.cif.g08.bks.cpg/sg15_31_cif.got.tgz:60556.got - 2010.06.03 18:47:42.
