data_PCOD9262341
_publ_section_title
;
Structure prediction by ZEFSAII (Michael W. Deem and Ramdas Pophale) SiO2 
 PCOD9262341
Probable space group: C 2/C
;
_chemical_formula_sum "Si O2"
_cell_formula_units_Z 48
_cell_length_a 17.865781
_cell_length_b 5.242658
_cell_length_c 28.128626
_cell_angle_alpha 90.000000
_cell_angle_beta 122.340932
_cell_angle_gamma 90.000000
_cell_volume 2225.958274
_symmetry_space_group_name_H-M "C 2/C"
_symmetry_group_IT_number 15
_symmetry_cell_setting 'monoclinic'
loop_
_space_group_symop_operation_xyz
x,y,z
-x,y,1/2-z
-x,-y,-z
x,-y,1/2+z
1/2+x,1/2+y,z
1/2-x,1/2+y,1/2-z
1/2-x,1/2-y,-z
1/2+x,1/2-y,1/2+z
loop_
_atom_site_type_symbol
_atom_site_label
_atom_site_fract_x
_atom_site_fract_y
_atom_site_fract_z
Si Si1 0.130200 0.185828 0.323466
Si Si2 0.061242 0.292869 0.198307
Si Si3 0.344604 0.347940 0.086008
Si Si4 0.046892 0.788854 0.134560
Si Si5 0.057160 0.749563 0.029767
Si Si6 0.253726 0.655812 0.940563
O O1 0.118266 0.214120 0.263646
O O2 0.215024 0.326964 0.373227
O O3 0.040625 0.295411 0.317418
O O4 0.137831 0.907453 0.351458
O O5 0.078850 0.565587 0.180698
O O6 0.068482 0.067014 0.162508
O O7 0.438949 0.278702 0.095945
O O8 0.274281 0.126151 0.054743
O O9 0.304988 0.619604 0.055433
O O10 0.081500 0.747861 0.093573
O O11 0.144965 0.768134 0.028043
O O12 0.000000 0.500000 0.000000
O O13 0.000000 0.000000 0.000000
#
# Coordination Sequence:
#
# PCOD9262341 Si02
#       6
#     8   8   8   8   8   8
#     4   8  19  31  62  92 126 154 187 225 299 355
#     4  10  19  32  62  95 124 154 190 233 292 357
#     4   9  18  36  62  88 123 149 194 239 292 340
#     4  11  21  39  59  91 120 154 199 253 284 349
#     4  12  27  46  63  81 115 165 206 253 320 356
#     4  10  20  39  61  88 119 160 192 247 293 356
#
# _framework density 21.563745999999998
#
# number of rings (size 3 to 8) (size 9 to 14) (size 15 to 20)
#    1.000    1.000    1.667    2.000    2.333    1.333 
#    0.000    6.667    0.000    0.000    0.000    0.000 
#    0.000    0.000    0.000    0.000    0.000    0.000 
#
# Total GULP energy -133974.275859 kJ/mol
# GULP energy per Si atom -5582.261494 kJ/mol
# Density = 2.151467 g / cm^3
# Si number density = 21.563746 Si / 1000 Ang^3
#
#
#
# Elastic Constant Matrix: (Units=GPa)
#
#
# Indices 1 2 3 4 5 6 
#
# 1 74.0144 33.0470 35.3943 0.0000 -6.8712 -0.0003
# 2 33.0470 129.0923 21.1122 0.0007 3.2672 -0.0010
# 3 35.3943 21.1122 73.7658 0.0001 -8.5931 -0.0001
# 4 0.0000 0.0007 0.0001 37.5495 -0.0001 3.2129
# 5 -6.8712 3.2672 -8.5931 -0.0001 32.0284 0.0000
# 6 -0.0003 -0.0010 -0.0001 3.2129 0.0000 16.8321
#
#
#
# Elastic Compliance Matrix: (Units=1/GPa)
#
#
# Indices 1 2 3 4 5 6 
#
# 1 0.019124 -0.003672 -0.007849 0.000000 0.002372 0.000000
# 2 -0.003672 0.008902 -0.001015 0.000000 -0.001968 0.000001
# 3 -0.007849 -0.001015 0.017991 0.000000 0.003247 0.000000
# 4 0.000000 0.000000 0.000000 0.027074 0.000000 -0.005168
# 5 0.002372 -0.001968 0.003247 0.000000 0.032803 0.000000
# 6 0.000000 0.000001 0.000000 -0.005168 0.000000 0.060397
#
#
# Mechanical properties :
#
#
# Convention : Reuss Voigt Hill
#
# Bulk Modulus (GPa) = 47.74360 50.66438 49.20399
# Shear Modulus (GPa) = 25.20864 29.76994 27.48929
#
# Velocity S-wave (km/s) = 3.42282 3.71961 3.57430
# Velocity P-wave (km/s) = 6.14895 6.48024 6.31677
#
# Compressibility (1/GPa) = 0.02094522
#
# Stress axis : x y z
#
# Youngs Moduli (GPa) = 52.29044 112.33088 55.58265
#
# Poissons Ratio (x) = 0.41248 0.43626
# Poissons Ratio (y) = 0.19201 0.05643
# Poissons Ratio (z) = 0.41042 0.11404
#
# Static dielectric constant tensor:
#      x y z
#    x 1.752290 0.000000 -0.018240 
#    y 0.000000 1.767130 0.000000 
#    z -0.018240 0.000000 1.880000 
# 
# From -- ./inp_files/300000.got.cif
#   From: 2010.05.17/outbox.cif.g08.bks.cpg/sg15_150_cif.got.tgz:300000.got - 2010.06.03 18:47:42.
