data_PCOD9262659
_publ_section_title
;
Structure prediction by ZEFSAII (Michael W. Deem and Ramdas Pophale) SiO2 
 PCOD9262659
Probable space group: C 2/C
;
_chemical_formula_sum "Si O2"
_cell_formula_units_Z 64
_cell_length_a 22.640201
_cell_length_b 27.988064
_cell_length_c 11.295666
_cell_angle_alpha 90.000000
_cell_angle_beta 151.095923
_cell_angle_gamma 90.000000
_cell_volume 3459.568383
_symmetry_space_group_name_H-M "C 2/C"
_symmetry_group_IT_number 15
_symmetry_cell_setting 'monoclinic'
loop_
_space_group_symop_operation_xyz
x,y,z
-x,y,1/2-z
-x,-y,-z
x,-y,1/2+z
1/2+x,1/2+y,z
1/2-x,1/2+y,1/2-z
1/2-x,1/2-y,-z
1/2+x,1/2-y,1/2+z
loop_
_atom_site_type_symbol
_atom_site_label
_atom_site_fract_x
_atom_site_fract_y
_atom_site_fract_z
Si Si1 0.643967 0.858511 0.519188
Si Si2 0.133471 0.524048 0.718881
Si Si3 0.391114 0.295036 0.326342
Si Si4 0.349906 0.184922 0.221661
Si Si5 0.156085 0.801718 0.751911
Si Si6 0.762306 0.790514 0.341372
Si Si7 0.933764 0.624985 0.009025
Si Si8 0.353836 0.971297 0.990880
O O1 0.681172 0.829800 0.700554
O O2 0.734839 0.838792 0.579457
O O3 0.659454 0.915073 0.557120
O O4 0.500000 0.848656 0.250000
O O5 0.111629 0.578972 0.643029
O O6 0.194153 0.499626 0.709000
O O7 0.190919 0.519224 0.952121
O O8 0.000000 0.500000 0.500000
O O9 0.389749 0.240014 0.279978
O O10 0.516235 0.318342 0.501609
O O11 0.363747 0.290696 0.417630
O O12 0.272088 0.321022 0.067572
O O13 0.459938 0.151464 0.376009
O O14 0.177965 0.756909 0.702272
O O15 0.171748 0.787837 0.916466
O O16 0.675350 0.836494 0.170088
O O17 0.000000 0.611647 0.250000
O O18 0.500000 0.981402 0.250000
#
# Coordination Sequence:
#
# PCOD9262659 Si02
#       8
#     8   8   8   8   8   8   8   8
#     4  11  22  37  59  84 118 151 191 236 293 355
#     4  10  19  33  54  85 118 147 183 240 302 365
#     4  11  23  38  51  80 115 158 204 241 282 331
#     4  11  22  35  55  78 117 158 194 239 284 342
#     4  11  23  36  59  76 114 160 199 242 282 345
#     4  11  22  37  53  82 111 155 203 239 288 339
#     4  12  21  35  57  84 121 153 190 241 304 346
#     4   9  18  34  54  83 119 143 183 234 297 361
#
# _framework density 18.499417999999999
#
# number of rings (size 3 to 8) (size 9 to 14) (size 15 to 20)
#    0.000    1.250    3.750    5.250    1.750    0.500 
#    0.000    0.000    0.000    0.000    0.000    0.875 
#   11.250    0.000    0.000    0.000    0.000    0.000 
#
# Total GULP energy -178407.110469 kJ/mol
# GULP energy per Si atom -5575.222202 kJ/mol
# Density = 1.845731 g / cm^3
# Si number density = 18.499418 Si / 1000 Ang^3
#
#
#
# Elastic Constant Matrix: (Units=GPa)
#
#
# Indices 1 2 3 4 5 6 
#
# 1 93.1808 27.8429 34.4126 0.0000 3.9679 0.0000
# 2 27.8429 69.2957 27.0517 0.0000 7.7777 0.0000
# 3 34.4126 27.0517 47.3882 0.0000 11.5669 0.0000
# 4 0.0000 0.0000 0.0000 1.6003 0.0000 -3.9836
# 5 3.9679 7.7777 11.5669 0.0000 33.4162 0.0000
# 6 0.0000 0.0000 0.0000 -3.9836 0.0000 27.2253
#
#
#
# Elastic Compliance Matrix: (Units=1/GPa)
#
#
# Indices 1 2 3 4 5 6 
#
# 1 0.015095 -0.002348 -0.010177 0.000000 0.002277 0.000000
# 2 -0.002348 0.018950 -0.008852 0.000000 -0.001068 0.000000
# 3 -0.010177 -0.008852 0.035771 0.000000 -0.009113 0.000000
# 4 0.000000 0.000000 0.000000 0.982854 0.000000 0.143811
# 5 0.002277 -0.001068 -0.009113 0.000000 0.033058 0.000000
# 6 0.000000 0.000000 0.000000 0.143811 0.000000 0.057773
#
#
# Mechanical properties :
#
#
# Convention : Reuss Voigt Hill
#
# Bulk Modulus (GPa) = 36.95340 43.16435 40.05887
# Shear Modulus (GPa) = 4.18314 20.48553 12.33434
#
# Velocity S-wave (km/s) = 1.50537 3.33131 2.58494
# Velocity P-wave (km/s) = 4.80003 6.17902 5.53266
#
# Compressibility (1/GPa) = 0.02706111
#
# Stress axis : x y z
#
# Youngs Moduli (GPa) = 66.24731 52.77122 27.95599
#
# Poissons Ratio (x) = 0.12389 0.28452
# Poissons Ratio (y) = 0.15553 0.24747
# Poissons Ratio (z) = 0.67422 0.46713
#
# Static dielectric constant tensor:
#      x y z
#    x 1.706120 0.000000 -0.038100 
#    y 0.000000 1.634490 0.000000 
#    z -0.038100 0.000000 1.642800 
# 
# From -- ./inp_files/115023.got.cif
#   From: 2010.05.17/outbox.cif.g08.bks.cpg/sg15_58_cif.got.tgz:115023.got - 2010.06.03 18:47:42.
