data_PCOD9262239
_publ_section_title
;
Structure prediction by ZEFSAII (Michael W. Deem and Ramdas Pophale) SiO2 
 PCOD9262239
Probable space group: C 2/C
;
_chemical_formula_sum "Si O2"
_cell_formula_units_Z 36
_cell_length_a 20.060545
_cell_length_b 7.708560
_cell_length_c 14.339308
_cell_angle_alpha 90.000000
_cell_angle_beta 37.106809
_cell_angle_gamma 90.000000
_cell_volume 1337.763973
_symmetry_space_group_name_H-M "C 2/C"
_symmetry_group_IT_number 15
_symmetry_cell_setting 'monoclinic'
loop_
_space_group_symop_operation_xyz
x,y,z
-x,y,1/2-z
-x,-y,-z
x,-y,1/2+z
1/2+x,1/2+y,z
1/2-x,1/2+y,1/2-z
1/2-x,1/2-y,-z
1/2+x,1/2-y,1/2+z
loop_
_atom_site_type_symbol
_atom_site_label
_atom_site_fract_x
_atom_site_fract_y
_atom_site_fract_z
Si Si1 0.181843 0.662410 0.658940
Si Si2 0.037984 0.529072 0.097942
Si Si3 0.396436 0.505962 0.683613
Si Si4 0.659008 0.858438 0.807046
Si Si5 0.500000 0.337565 0.250000
O O1 0.250000 0.750000 0.500000
O O2 0.225838 0.496281 0.668497
O O3 0.063714 0.592640 0.752586
O O4 0.154764 0.815671 0.760578
O O5 0.079262 0.691216 0.113610
O O6 0.964817 0.629411 0.101263
O O7 0.128976 0.414667 0.945310
O O8 0.500000 0.500000 0.500000
O O9 0.315767 0.659463 0.740244
O O10 0.438024 0.549470 0.742162
#
# Coordination Sequence:
#
# PCOD9262239 Si02
#       5
#     8   8   8   8   4
#     4  10  19  32  56  85 112 143 184 231 289 343
#     4   8  15  33  52  78 106 142 175 233 281 310
#     4  11  19  36  60  86 105 154 201 228 288 339
#     4   8  16  34  53  77 105 142 187 224 276 333
#     4  10  20  32  58  86 114 138 202 250 262 336
#
# _framework density 26.910577
#
# number of rings (size 3 to 8) (size 9 to 14) (size 15 to 20)
#    1.333    1.333    2.222    1.333    0.000    1.778 
#    0.000    0.000    0.000   10.667    0.000    0.000 
#    0.000    0.000    0.000    0.000    0.000    0.000 
#
# Total GULP energy -100458.340230 kJ/mol
# GULP energy per Si atom -5581.018902 kJ/mol
# Density = 2.684933 g / cm^3
# Si number density = 26.910577 Si / 1000 Ang^3
#
#
#
# Elastic Constant Matrix: (Units=GPa)
#
#
# Indices 1 2 3 4 5 6 
#
# 1 89.6385 12.9650 12.2492 0.0003 -0.3062 -0.0003
# 2 12.9650 175.5785 48.0123 0.0022 -2.1896 -0.0027
# 3 12.2492 48.0123 136.5725 0.0010 5.5481 -0.0014
# 4 0.0003 0.0022 0.0010 58.7504 0.0000 12.7408
# 5 -0.3062 -2.1896 5.5481 0.0000 26.4135 0.0001
# 6 -0.0003 -0.0027 -0.0014 12.7408 0.0001 49.9452
#
#
#
# Elastic Compliance Matrix: (Units=1/GPa)
#
#
# Indices 1 2 3 4 5 6 
#
# 1 0.011357 -0.000613 -0.000813 0.000000 0.000252 0.000000
# 2 -0.000613 0.006360 -0.002221 0.000000 0.000987 0.000000
# 3 -0.000813 -0.002221 0.008254 0.000000 -0.001927 0.000000
# 4 0.000000 0.000000 0.000000 0.018018 0.000000 -0.004596
# 5 0.000252 0.000987 -0.001927 0.000000 0.038349 0.000000
# 6 0.000000 0.000000 0.000000 -0.004596 0.000000 0.021194
#
#
# Mechanical properties :
#
#
# Convention : Reuss Voigt Hill
#
# Bulk Modulus (GPa) = 53.54380 60.91582 57.22981
# Shear Modulus (GPa) = 42.71573 48.92601 45.82087
#
# Velocity S-wave (km/s) = 3.98844 4.26854 4.13087
# Velocity P-wave (km/s) = 6.41485 6.85415 6.63814
#
# Compressibility (1/GPa) = 0.01867630
#
# Stress axis : x y z
#
# Youngs Moduli (GPa) = 88.05462 157.22284 121.15053
#
# Poissons Ratio (x) = 0.09639 0.09853
# Poissons Ratio (y) = 0.05398 0.26909
# Poissons Ratio (z) = 0.07161 0.34921
#
# Static dielectric constant tensor:
#      x y z
#    x 2.311370 0.000000 0.139190 
#    y 0.000000 2.138300 0.000000 
#    z 0.139190 0.000000 2.214730 
# 
# From -- ./inp_files/224050.got.cif
#   From: 2010.05.17/outbox.cif.g08.bks.cpg/sg15_113_cif.got.tgz:224050.got - 2010.06.03 18:47:42.
