data_PCOD9262326
_publ_section_title
;
Structure prediction by ZEFSAII (Michael W. Deem and Ramdas Pophale) SiO2 
 PCOD9262326
Probable space group: C 2/C
;
_chemical_formula_sum "Si O2"
_cell_formula_units_Z 56
_cell_length_a 18.676677
_cell_length_b 13.888046
_cell_length_c 11.992428
_cell_angle_alpha 90.000000
_cell_angle_beta 46.775451
_cell_angle_gamma 90.000000
_cell_volume 2266.636604
_symmetry_space_group_name_H-M "C 2/C"
_symmetry_group_IT_number 15
_symmetry_cell_setting 'monoclinic'
loop_
_space_group_symop_operation_xyz
x,y,z
-x,y,1/2-z
-x,-y,-z
x,-y,1/2+z
1/2+x,1/2+y,z
1/2-x,1/2+y,1/2-z
1/2-x,1/2-y,-z
1/2+x,1/2-y,1/2+z
loop_
_atom_site_type_symbol
_atom_site_label
_atom_site_fract_x
_atom_site_fract_y
_atom_site_fract_z
Si Si1 0.436688 0.115699 0.470638
Si Si2 0.585945 0.592309 0.995321
Si Si3 0.986955 0.195896 0.638468
Si Si4 0.285121 0.929625 0.954873
Si Si5 0.637814 0.579596 0.175788
Si Si6 0.313462 0.384247 0.650512
Si Si7 0.554770 0.077657 0.791513
O O1 0.521775 0.189382 0.344028
O O2 0.421144 0.128493 0.618781
O O3 0.340777 0.122962 0.495634
O O4 0.478616 0.008643 0.403666
O O5 0.631688 0.631320 0.062291
O O6 0.472195 0.572429 0.154395
O O7 0.580521 0.653254 0.887477
O O8 0.644356 0.493760 0.907940
O O9 0.096597 0.183774 0.473844
O O10 0.000000 0.155600 0.750000
O O11 0.348952 0.023135 0.853584
O O12 0.266200 0.872666 0.860689
O O13 0.181888 0.973775 0.105675
O O14 0.707273 0.625559 0.196595
O O15 0.500000 0.133641 0.750000
#
# Coordination Sequence:
#
# PCOD9262326 Si02
#       7
#     8   8   8   8   8   8   8
#     4  10  21  39  58  84 111 147 191 242 289 334
#     4   9  20  34  56  83 117 156 190 224 279 342
#     4  11  22  35  56  85 119 147 187 233 285 341
#     4  10  19  32  61  84 109 147 192 237 278 337
#     4   9  17  33  54  85 112 147 191 231 268 335
#     4  10  21  33  57  84 118 155 185 227 282 341
#     4   9  19  39  62  81 102 145 201 237 283 334
#
# _framework density 24.706212000000001
#
# number of rings (size 3 to 8) (size 9 to 14) (size 15 to 20)
#    0.000    2.286    0.000    3.857    8.000    0.571 
#    5.143    0.000    0.000    3.429    0.000    0.000 
#    0.000    0.000    0.000    0.000    0.000    0.000 
#
# Total GULP energy -156270.786643 kJ/mol
# GULP energy per Si atom -5581.099523 kJ/mol
# Density = 2.464998 g / cm^3
# Si number density = 24.706212 Si / 1000 Ang^3
#
#
#
# Elastic Constant Matrix: (Units=GPa)
#
#
# Indices 1 2 3 4 5 6 
#
# 1 207.4083 35.2765 63.9506 0.0000 72.6818 0.0000
# 2 35.2765 37.5225 6.5985 0.0000 21.1299 0.0000
# 3 63.9506 6.5985 94.2481 0.0000 54.9548 0.0000
# 4 0.0000 0.0000 0.0000 12.1345 0.0000 -0.9258
# 5 72.6818 21.1299 54.9548 0.0000 60.7578 0.0000
# 6 0.0000 0.0000 0.0000 -0.9258 0.0000 4.5397
#
#
#
# Elastic Compliance Matrix: (Units=1/GPa)
#
#
# Indices 1 2 3 4 5 6 
#
# 1 0.008546 -0.003045 -0.000512 0.000000 -0.008702 0.000000
# 2 -0.003045 0.038596 0.010721 0.000000 -0.019477 0.000000
# 3 -0.000512 0.010721 0.025442 0.000000 -0.026128 0.000000
# 4 0.000000 0.000000 0.000000 0.083712 0.000000 0.017072
# 5 -0.008702 -0.019477 -0.026128 0.000000 0.057274 0.000000
# 6 0.000000 0.000000 0.000000 0.017072 0.000000 0.223762
#
#
# Mechanical properties :
#
#
# Convention : Reuss Voigt Hill
#
# Bulk Modulus (GPa) = 11.50590 61.20334 36.35462
# Shear Modulus (GPa) = 11.06254 31.04328 21.05291
#
# Velocity S-wave (km/s) = 2.11834 3.54856 2.92229
# Velocity P-wave (km/s) = 3.26349 6.45104 5.11206
#
# Compressibility (1/GPa) = 0.08691192
#
# Stress axis : x y z
#
# Youngs Moduli (GPa) = 117.00709 25.90954 39.30524
#
# Poissons Ratio (x) = 0.07889 0.02012
# Poissons Ratio (y) = 0.35625 -0.42137
# Poissons Ratio (z) = 0.05991 -0.27776
#
# Static dielectric constant tensor:
#      x y z
#    x 2.013980 0.000000 0.037540 
#    y 0.000000 2.014230 0.000000 
#    z 0.037540 0.000000 2.016760 
# 
# From -- ./inp_files/105638.got.cif
#   From: 2010.05.17/outbox.cif.g08.bks.cpg/sg15_53_cif.got.tgz:105638.got - 2010.06.03 18:47:42.
