data_PCOD9262657
_publ_section_title
;
Structure prediction by ZEFSAII (Michael W. Deem and Ramdas Pophale) SiO2 
 PCOD9262657
Probable space group: C 2/C
;
_chemical_formula_sum "Si O2"
_cell_formula_units_Z 48
_cell_length_a 18.846130
_cell_length_b 19.937486
_cell_length_c 9.311329
_cell_angle_alpha 90.000000
_cell_angle_beta 40.638648
_cell_angle_gamma 90.000000
_cell_volume 2278.642231
_symmetry_space_group_name_H-M "C 2/C"
_symmetry_group_IT_number 15
_symmetry_cell_setting 'monoclinic'
loop_
_space_group_symop_operation_xyz
x,y,z
-x,y,1/2-z
-x,-y,-z
x,-y,1/2+z
1/2+x,1/2+y,z
1/2-x,1/2+y,1/2-z
1/2-x,1/2-y,-z
1/2+x,1/2-y,1/2+z
loop_
_atom_site_type_symbol
_atom_site_label
_atom_site_fract_x
_atom_site_fract_y
_atom_site_fract_z
Si Si1 0.127775 0.254395 0.086809
Si Si2 0.921381 0.153713 0.105521
Si Si3 0.626421 0.912631 0.063310
Si Si4 0.673298 0.651019 0.789171
Si Si5 0.314838 0.546739 0.471086
Si Si6 0.287245 0.399136 0.560340
O O1 0.139117 0.214350 0.217867
O O2 0.137483 0.333575 0.082535
O O3 0.000000 0.241583 0.250000
O O4 0.190665 0.216164 0.862223
O O5 0.891236 0.087954 0.245456
O O6 0.868105 0.144734 0.033095
O O7 0.050892 0.158728 0.914518
O O8 0.500000 0.931046 0.250000
O O9 0.696463 0.950491 0.076185
O O10 0.686139 0.918450 0.818162
O O11 0.744331 0.637255 0.538929
O O12 0.682315 0.587739 0.884058
O O13 0.345930 0.469627 0.436897
#
# Coordination Sequence:
#
# PCOD9262657 Si02
#       6
#     8   8   8   8   8   8
#     4   8  17  36  58  79 102 140 186 212 260 333
#     4   9  19  34  56  81 113 147 166 205 270 336
#     4  10  22  41  59  72 101 148 189 229 266 303
#     4  10  19  33  54  85 116 135 168 223 267 317
#     4  10  21  35  53  80 109 144 185 210 256 334
#     4  11  22  33  52  84 110 138 182 219 261 319
#
# _framework density 21.065176000000001
#
# number of rings (size 3 to 8) (size 9 to 14) (size 15 to 20)
#    0.000    2.333    0.000    4.000    0.000   11.333 
#    0.000    0.833    0.000    4.000    0.000    0.000 
#    0.000    0.000    0.000    0.000    0.000    0.000 
#
# Total GULP energy -134017.166013 kJ/mol
# GULP energy per Si atom -5584.048584 kJ/mol
# Density = 2.101723 g / cm^3
# Si number density = 21.065176 Si / 1000 Ang^3
#
#
#
# Elastic Constant Matrix: (Units=GPa)
#
#
# Indices 1 2 3 4 5 6 
#
# 1 99.5747 -0.0932 31.5966 0.0000 19.2351 0.0000
# 2 -0.0932 71.3362 -5.4701 0.0000 24.7076 0.0000
# 3 31.5966 -5.4701 69.0264 0.0000 18.4067 0.0000
# 4 0.0000 0.0000 0.0000 6.4372 0.0000 7.9582
# 5 19.2351 24.7076 18.4067 0.0000 37.5860 0.0000
# 6 0.0000 0.0000 0.0000 7.9582 0.0000 6.3290
#
#
#
# Elastic Compliance Matrix: (Units=1/GPa)
#
#
# Indices 1 2 3 4 5 6 
#
# 1 0.012383 0.001548 -0.004123 0.000000 -0.005336 0.000000
# 2 0.001548 0.020213 0.005346 0.000000 -0.016698 0.000000
# 3 -0.004123 0.005346 0.019752 0.000000 -0.011077 0.000000
# 4 0.000000 0.000000 0.000000 -0.280132 0.000000 0.352247
# 5 -0.005336 -0.016698 -0.011077 0.000000 0.045738 0.000000
# 6 0.000000 0.000000 0.000000 0.352247 0.000000 -0.284922
#
#
# Mechanical properties :
#
#
# Convention : Reuss Voigt Hill
#
# Bulk Modulus (GPa) = 17.27388 32.44491 24.85939
# Shear Modulus (GPa) = -11.03233 24.33069 6.64918
#
# Velocity S-wave (km/s) = -2.29098 3.40225 1.77858
# Velocity P-wave (km/s) = 1.10448 5.55601 4.00557
#
# Compressibility (1/GPa) = 0.05789087
#
# Stress axis : x y z
#
# Youngs Moduli (GPa) = 80.75504 49.47202 50.62808
#
# Poissons Ratio (x) = -0.07659 0.20873
# Poissons Ratio (y) = -0.12502 -0.27065
# Poissons Ratio (z) = 0.33294 -0.26447
#
# Static dielectric constant tensor:
#      x y z
#    x 1.780080 0.000000 -0.020220 
#    y 0.000000 1.752390 0.000000 
#    z -0.020220 0.000000 1.802710 
# 
# From -- ./inp_files/50042.got.cif
#   From: 2010.05.17/outbox.cif.g08.bks.cpg/sg15_26_cif.got.tgz:50042.got - 2010.06.03 18:47:42.
