data_PCOD9262030
_publ_section_title
;
Structure prediction by ZEFSAII (Michael W. Deem and Ramdas Pophale) SiO2 
 PCOD9262030
Probable space group: C 2/C
;
_chemical_formula_sum "Si O2"
_cell_formula_units_Z 64
_cell_length_a 22.742167
_cell_length_b 18.896408
_cell_length_c 19.160752
_cell_angle_alpha 90.000000
_cell_angle_beta 157.722246
_cell_angle_gamma 90.000000
_cell_volume 3121.575824
_symmetry_space_group_name_H-M "C 2/C"
_symmetry_group_IT_number 15
_symmetry_cell_setting 'monoclinic'
loop_
_space_group_symop_operation_xyz
x,y,z
-x,y,1/2-z
-x,-y,-z
x,-y,1/2+z
1/2+x,1/2+y,z
1/2-x,1/2+y,1/2-z
1/2-x,1/2-y,-z
1/2+x,1/2-y,1/2+z
loop_
_atom_site_type_symbol
_atom_site_label
_atom_site_fract_x
_atom_site_fract_y
_atom_site_fract_z
Si Si1 0.840891 0.171210 0.148795
Si Si2 0.933807 0.320942 0.249935
Si Si3 0.346051 0.514467 0.114046
Si Si4 0.279292 0.449253 0.805417
Si Si5 0.685203 0.063173 0.797788
Si Si6 0.357651 0.449067 0.265522
Si Si7 0.849265 0.161645 0.869179
Si Si8 0.716589 0.688431 0.262957
O O1 0.959047 0.236860 0.287105
O O2 0.894096 0.090313 0.201276
O O3 0.734864 0.177255 0.102432
O O4 0.749833 0.181679 0.975866
O O5 0.938758 0.375954 0.318508
O O6 0.000000 0.349502 0.250000
O O7 0.500000 0.482044 0.250000
O O8 0.289557 0.465744 0.115008
O O9 0.235252 0.532452 0.927909
O O10 0.162321 0.494612 0.724197
O O11 0.307441 0.488149 0.762500
O O12 0.227124 0.370520 0.729456
O O13 0.452968 0.449139 0.030271
O O14 0.809778 0.106957 0.888113
O O15 0.307702 0.378348 0.251425
O O16 0.760643 0.233958 0.786726
O O17 0.031798 0.176513 0.064661
#
# Coordination Sequence:
#
# PCOD9262030 Si02
#       8
#     8   8   8   8   8   8   8   8
#     4  10  20  29  45  76 102 146 167 204 248 324
#     4  10  21  33  45  69 113 146 172 204 255 319
#     4  11  17  27  50  77 103 130 167 216 263 301
#     4   9  17  32  50  73 102 134 176 218 259 297
#     4  10  19  32  52  79 102 135 173 221 261 311
#     4   9  17  31  49  76 104 132 172 222 255 305
#     4  10  22  35  55  80 108 139 178 216 263 312
#     4  11  20  34  56  75 107 141 173 219 262 309
#
# _framework density 20.502465000000001
#
# number of rings (size 3 to 8) (size 9 to 14) (size 15 to 20)
#    0.000    2.000    3.750    1.875    1.750    0.000 
#    0.000    0.000    5.500    3.000    0.000    0.000 
#    0.000    0.000    0.000    0.000    0.000    0.000 
#
# Total GULP energy -178451.826264 kJ/mol
# GULP energy per Si atom -5576.619571 kJ/mol
# Density = 2.045580 g / cm^3
# Si number density = 20.502465 Si / 1000 Ang^3
#
#
#
# Elastic Constant Matrix: (Units=GPa)
#
#
# Indices 1 2 3 4 5 6 
#
# 1 127.1530 61.0842 21.4966 -0.0031 -17.2626 -0.0026
# 2 61.0842 107.2268 16.5174 0.0027 -19.9891 0.0023
# 3 21.4966 16.5174 30.8516 0.0007 -12.7127 0.0007
# 4 -0.0031 0.0027 0.0007 12.6794 -0.0010 -2.1539
# 5 -17.2626 -19.9891 -12.7127 -0.0010 24.7507 -0.0009
# 6 -0.0026 0.0023 0.0007 -2.1539 -0.0009 53.1460
#
#
#
# Elastic Compliance Matrix: (Units=1/GPa)
#
#
# Indices 1 2 3 4 5 6 
#
# 1 0.011492 -0.005638 -0.004519 0.000005 0.001141 0.000001
# 2 -0.005638 0.013942 -0.000655 -0.000004 0.006991 -0.000001
# 3 -0.004519 -0.000655 0.043630 -0.000002 0.018729 -0.000001
# 4 0.000005 -0.000004 -0.000002 0.079415 0.000002 0.003219
# 5 0.001141 0.006991 0.018729 0.000002 0.056464 0.000001
# 6 0.000001 -0.000001 -0.000001 0.003219 0.000001 0.018947
#
#
# Mechanical properties :
#
#
# Convention : Reuss Voigt Hill
#
# Bulk Modulus (GPa) = 21.07920 51.49198 36.28559
# Shear Modulus (GPa) = 19.13320 29.19078 24.16199
#
# Velocity S-wave (km/s) = 3.05817 3.77738 3.43664
# Velocity P-wave (km/s) = 4.77216 6.64788 5.78653
#
# Compressibility (1/GPa) = 0.04744013
#
# Stress axis : x y z
#
# Youngs Moduli (GPa) = 87.01898 71.72623 22.92007
#
# Poissons Ratio (x) = 0.40438 0.10357
# Poissons Ratio (y) = 0.49059 0.01502
# Poissons Ratio (z) = 0.39321 0.04700
#
# Static dielectric constant tensor:
#      x y z
#    x 1.768460 0.000000 0.059090 
#    y 0.000000 1.753880 0.000000 
#    z 0.059090 0.000000 1.909710 
# 
# From -- ./inp_files/113474.got.cif
#   From: 2010.05.17/outbox.cif.g08.bks.cpg/sg15_57_cif.got.tgz:113474.got - 2010.06.03 18:47:42.
