data_PCOD9262528
_publ_section_title
;
Structure prediction by ZEFSAII (Michael W. Deem and Ramdas Pophale) SiO2 
 PCOD9262528
Probable space group: C 2/C
;
_chemical_formula_sum "Si O2"
_cell_formula_units_Z 40
_cell_length_a 18.432001
_cell_length_b 20.641033
_cell_length_c 12.819120
_cell_angle_alpha 90.000000
_cell_angle_beta 22.418053
_cell_angle_gamma 90.000000
_cell_volume 1859.940984
_symmetry_space_group_name_H-M "C 2/C"
_symmetry_group_IT_number 15
_symmetry_cell_setting 'monoclinic'
loop_
_space_group_symop_operation_xyz
x,y,z
-x,y,1/2-z
-x,-y,-z
x,-y,1/2+z
1/2+x,1/2+y,z
1/2-x,1/2+y,1/2-z
1/2-x,1/2-y,-z
1/2+x,1/2-y,1/2+z
loop_
_atom_site_type_symbol
_atom_site_label
_atom_site_fract_x
_atom_site_fract_y
_atom_site_fract_z
Si Si1 0.717906 0.567891 0.763665
Si Si2 0.988910 0.462017 0.138159
Si Si3 0.611070 0.516135 0.693476
Si Si4 0.954258 0.191163 0.435572
Si Si5 0.341402 0.831110 0.551311
O O1 0.904175 0.526326 0.543085
O O2 0.698202 0.563041 0.664375
O O3 0.532996 0.530898 0.054327
O O4 0.707557 0.639452 0.821639
O O5 0.762738 0.470021 0.432925
O O6 0.000000 0.464589 0.250000
O O7 0.109702 0.397360 0.951834
O O8 0.500000 0.552513 0.750000
O O9 0.000000 0.187185 0.250000
O O10 0.883973 0.263843 0.552729
O O11 0.138795 0.172934 0.260914
O O12 0.500000 0.831127 0.250000
#
# Coordination Sequence:
#
# PCOD9262528 Si02
#       5
#     8   8   8   8   8
#     4  10  20  35  55  83 115 147 183 226 281 336
#     4   9  19  36  56  83 115 144 181 229 277 334
#     4  10  20  35  55  82 114 145 183 233 280 325
#     4  11  21  34  55  83 115 147 180 226 281 339
#     4  10  19  33  53  79 115 148 178 224 285 339
#
# _framework density 21.506059
#
# number of rings (size 3 to 8) (size 9 to 14) (size 15 to 20)
#    0.000    2.000    0.000    7.800    0.000    2.400 
#    0.000    8.000    0.000    0.000    0.000   49.000 
#    0.000    0.000    0.000    0.000    0.000    0.000 
#
# Total GULP energy -111566.258894 kJ/mol
# GULP energy per Si atom -5578.312945 kJ/mol
# Density = 2.145711 g / cm^3
# Si number density = 21.506059 Si / 1000 Ang^3
#
#
#
# Elastic Constant Matrix: (Units=GPa)
#
#
# Indices 1 2 3 4 5 6 
#
# 1 88.4714 18.7663 22.0029 0.0009 -17.6508 -0.0012
# 2 18.7663 149.2706 47.6249 0.0050 -6.3864 0.0462
# 3 22.0029 47.6249 84.2660 0.0050 -16.1047 0.0399
# 4 0.0009 0.0050 0.0050 46.1403 0.0051 37.2383
# 5 -17.6508 -6.3864 -16.1047 0.0051 34.4288 -0.0175
# 6 -0.0012 0.0462 0.0399 37.2383 -0.0175 86.6577
#
#
#
# Elastic Compliance Matrix: (Units=1/GPa)
#
#
# Indices 1 2 3 4 5 6 
#
# 1 0.013072 -0.000802 -0.001875 -0.000004 0.005676 0.000004
# 2 -0.000802 0.008238 -0.004649 0.000003 -0.001058 -0.000004
# 3 -0.001875 -0.004649 0.016072 0.000002 0.005695 -0.000005
# 4 -0.000004 0.000003 0.000002 0.033180 -0.000013 -0.014258
# 5 0.005676 -0.001058 0.005695 -0.000013 0.034423 0.000011
# 6 0.000004 -0.000004 -0.000005 -0.014258 0.000011 0.017667
#
#
# Mechanical properties :
#
#
# Convention : Reuss Voigt Hill
#
# Bulk Modulus (GPa) = 43.99384 55.42178 49.70781
# Shear Modulus (GPa) = 34.51116 49.01963 41.76540
#
# Velocity S-wave (km/s) = 4.01024 4.77942 4.41163
# Velocity P-wave (km/s) = 6.47639 7.50223 7.00810
#
# Compressibility (1/GPa) = 0.02273046
#
# Stress axis : x y z
#
# Youngs Moduli (GPa) = 76.49959 121.38908 62.21868
#
# Poissons Ratio (x) = 0.09740 0.11666
# Poissons Ratio (y) = 0.06138 0.28922
# Poissons Ratio (z) = 0.14344 0.56428
#
# Static dielectric constant tensor:
#      x y z
#    x 1.983840 -0.000020 -0.067250 
#    y -0.000020 1.813840 0.000030 
#    z -0.067250 0.000030 1.822550 
# 
# From -- ./inp_files/100596.got.cif
#   From: 2010.05.17/outbox.cif.g08.bks.cpg/sg15_51_cif.got.tgz:100596.got - 2010.06.03 18:47:42.
