data_PCOD9262086
_publ_section_title
;
Structure prediction by ZEFSAII (Michael W. Deem and Ramdas Pophale) SiO2 
 PCOD9262086
Probable space group: C 2/C
;
_chemical_formula_sum "Si O2"
_cell_formula_units_Z 56
_cell_length_a 19.988290
_cell_length_b 8.222950
_cell_length_c 14.205940
_cell_angle_alpha 90.000000
_cell_angle_beta 66.381770
_cell_angle_gamma 90.000000
_cell_volume 2139.342351
_symmetry_space_group_name_H-M "C 2/C"
_symmetry_group_IT_number 15
_symmetry_cell_setting 'monoclinic'
loop_
_space_group_symop_operation_xyz
x,y,z
-x,y,1/2-z
-x,-y,-z
x,-y,1/2+z
1/2+x,1/2+y,z
1/2-x,1/2+y,1/2-z
1/2-x,1/2-y,-z
1/2+x,1/2-y,1/2+z
loop_
_atom_site_type_symbol
_atom_site_label
_atom_site_fract_x
_atom_site_fract_y
_atom_site_fract_z
Si Si1 0.203097 0.711618 0.378692
Si Si2 0.925705 0.366691 0.738105
Si Si3 0.997612 0.692644 0.478462
Si Si4 0.153905 0.238999 0.547004
Si Si5 0.351714 0.639397 0.410775
Si Si6 0.786584 0.653686 0.670741
Si Si7 0.425870 0.748816 0.195587
O O1 0.279942 0.697985 0.393535
O O2 0.147586 0.759155 0.492909
O O3 0.189896 0.533624 0.344071
O O4 0.219830 0.828337 0.280775
O O5 0.859189 0.324461 0.844515
O O6 0.929758 0.560733 0.721767
O O7 0.000000 0.319658 0.750000
O O8 0.936553 0.277023 0.631559
O O9 0.921940 0.718978 0.465177
O O10 0.987392 0.785989 0.582969
O O11 0.000000 0.500000 0.500000
O O12 0.215142 0.299838 0.438425
O O13 0.156638 0.046869 0.557168
O O14 0.416526 0.656578 0.298547
O O15 0.850052 0.763906 0.680337
#
# Coordination Sequence:
#
# PCOD9262086 Si02
#       7
#     8   8   8   8   8   8   8
#     4  10  21  36  53  76 108 146 185 227 274 324
#     4   9  17  32  55  79 103 136 177 219 267 327
#     4   8  16  33  56  77 103 138 177 220 268 328
#     4  10  19  32  53  80 107 139 179 223 272 327
#     4  10  21  35  51  77 112 142 177 227 275 322
#     4  10  20  34  54  76 103 143 184 224 271 326
#     4   9  18  34  53  75 103 138 180 219 264 322
#
# _framework density 26.176269000000001
#
# number of rings (size 3 to 8) (size 9 to 14) (size 15 to 20)
#    0.000    2.571    0.000    1.714    0.000    1.714 
#    0.000    2.857    0.000    0.000    0.000    0.000 
#    0.000    0.000    0.000    0.000    0.000    0.000 
#
# Total GULP energy -156596.285382 kJ/mol
# GULP energy per Si atom -5592.724478 kJ/mol
# Density = 2.611669 g / cm^3
# Si number density = 26.176269 Si / 1000 Ang^3
#
#
#
# Elastic Constant Matrix: (Units=GPa)
#
#
# Indices 1 2 3 4 5 6 
#
# 1 73.0785 -13.5090 45.9674 0.0000 -7.4615 0.0000
# 2 -13.5090 69.8555 56.1365 0.0000 0.9526 0.0001
# 3 45.9674 56.1365 240.7911 0.0000 -16.1227 0.0000
# 4 0.0000 0.0000 0.0000 42.8453 0.0000 2.0411
# 5 -7.4615 0.9526 -16.1227 0.0000 56.6456 0.0000
# 6 0.0000 0.0001 0.0000 2.0411 0.0000 15.6547
#
#
#
# Elastic Compliance Matrix: (Units=1/GPa)
#
#
# Indices 1 2 3 4 5 6 
#
# 1 0.018566 0.007857 -0.005322 0.000000 0.000799 0.000000
# 2 0.007857 0.021065 -0.006489 0.000000 -0.001166 0.000000
# 3 -0.005322 -0.006489 0.006771 0.000000 0.001335 0.000000
# 4 0.000000 0.000000 0.000000 0.023486 0.000000 -0.003062
# 5 0.000799 -0.001166 0.001335 0.000000 0.018158 0.000000
# 6 0.000000 0.000000 0.000000 -0.003062 0.000000 0.064278
#
#
# Mechanical properties :
#
#
# Convention : Reuss Voigt Hill
#
# Bulk Modulus (GPa) = 25.97915 62.32386 44.15151
# Shear Modulus (GPa) = 28.89105 42.70446 35.79776
#
# Velocity S-wave (km/s) = 3.32582 4.04346 3.70207
# Velocity P-wave (km/s) = 4.96934 6.75725 5.93105
#
# Compressibility (1/GPa) = 0.03849240
#
# Stress axis : x y z
#
# Youngs Moduli (GPa) = 53.86304 47.47210 147.68426
#
# Poissons Ratio (x) = -0.37297 0.78603
# Poissons Ratio (y) = -0.42318 0.95830
# Poissons Ratio (z) = 0.28668 0.30804
#
# Static dielectric constant tensor:
#      x y z
#    x 2.405410 0.000000 0.036210 
#    y 0.000000 1.762040 0.000000 
#    z 0.036210 0.000000 2.101960 
# 
# From -- ./inp_files/180506.got.cif
#   From: 2010.05.17/outbox.cif.g08.bks.cpg/sg15_91_cif.got.tgz:180506.got - 2010.06.03 18:47:42.
