data_PCOD9262249
_publ_section_title
;
Structure prediction by ZEFSAII (Michael W. Deem and Ramdas Pophale) SiO2 
 PCOD9262249
Probable space group: C 2/C
;
_chemical_formula_sum "Si O2"
_cell_formula_units_Z 56
_cell_length_a 12.575014
_cell_length_b 7.933678
_cell_length_c 36.992452
_cell_angle_alpha 90.000000
_cell_angle_beta 134.186978
_cell_angle_gamma 90.000000
_cell_volume 2646.410051
_symmetry_space_group_name_H-M "C 2/C"
_symmetry_group_IT_number 15
_symmetry_cell_setting 'monoclinic'
loop_
_space_group_symop_operation_xyz
x,y,z
-x,y,1/2-z
-x,-y,-z
x,-y,1/2+z
1/2+x,1/2+y,z
1/2-x,1/2+y,1/2-z
1/2-x,1/2-y,-z
1/2+x,1/2-y,1/2+z
loop_
_atom_site_type_symbol
_atom_site_label
_atom_site_fract_x
_atom_site_fract_y
_atom_site_fract_z
Si Si1 0.262330 0.145982 0.790024
Si Si2 0.337091 0.708581 0.197889
Si Si3 0.923557 0.488759 0.134314
Si Si4 0.815044 0.818739 0.877146
Si Si5 0.301040 0.475889 0.616119
Si Si6 0.087581 0.174161 0.678165
Si Si7 0.847290 0.785351 0.557933
O O1 0.431714 0.113660 0.816949
O O2 0.262612 0.265602 0.824723
O O3 0.157805 0.213044 0.733791
O O4 0.201038 0.965275 0.789280
O O5 0.500000 0.752757 0.250000
O O6 0.299392 0.660972 0.147739
O O7 0.224171 0.850390 0.184327
O O8 0.789797 0.542158 0.128978
O O9 0.874305 0.384586 0.087691
O O10 0.994200 0.669189 0.141018
O O11 0.788871 0.642512 0.893442
O O12 0.990497 0.853501 0.915754
O O13 0.474531 0.524517 0.655786
O O14 0.268105 0.406355 0.568570
O O15 0.750000 0.750000 0.500000
#
# Coordination Sequence:
#
# PCOD9262249 Si02
#       7
#     8   8   8   8   8   8   8
#     4   9  18  34  59  87 129 164 193 233 290 359
#     4  10  19  32  56  87 122 160 193 233 284 347
#     4   9  21  38  59  88 122 156 203 251 294 362
#     4   9  21  41  62  89 123 161 199 251 304 363
#     4  10  22  41  61  85 124 160 199 248 300 358
#     4  10  20  37  60  90 127 166 201 238 289 364
#     4  11  25  44  65  88 116 156 209 269 318 359
#
# _framework density 21.160743
#
# number of rings (size 3 to 8) (size 9 to 14) (size 15 to 20)
#    0.000    2.286    1.429    0.857    4.000    2.286 
#    0.000    4.286    0.000    0.000    0.000    0.000 
#    0.000    0.000    0.000    0.000    0.000    0.000 
#
# Total GULP energy -156372.403574 kJ/mol
# GULP energy per Si atom -5584.728699 kJ/mol
# Density = 2.111258 g / cm^3
# Si number density = 21.160743 Si / 1000 Ang^3
#
#
#
# Elastic Constant Matrix: (Units=GPa)
#
#
# Indices 1 2 3 4 5 6 
#
# 1 101.9627 19.5023 8.5391 0.0000 -12.6022 0.0000
# 2 19.5023 69.1658 12.5760 0.0000 -14.2865 0.0000
# 3 8.5391 12.5760 85.0841 0.0000 -16.1691 0.0000
# 4 0.0000 0.0000 0.0000 17.4202 0.0000 -11.6317
# 5 -12.6022 -14.2865 -16.1691 0.0000 21.7338 0.0000
# 6 0.0000 0.0000 0.0000 -11.6317 0.0000 43.1638
#
#
#
# Elastic Compliance Matrix: (Units=1/GPa)
#
#
# Indices 1 2 3 4 5 6 
#
# 1 0.010807 -0.002034 0.000178 0.000000 0.005062 0.000000
# 2 -0.002034 0.017127 -0.000480 0.000000 0.009722 0.000000
# 3 0.000178 -0.000480 0.013703 0.000000 0.009982 0.000000
# 4 0.000000 0.000000 0.000000 0.070000 0.000000 0.018863
# 5 0.005062 0.009722 0.009982 0.000000 0.062764 0.000000
# 6 0.000000 0.000000 0.000000 0.018863 0.000000 0.028251
#
#
# Mechanical properties :
#
#
# Convention : Reuss Voigt Hill
#
# Bulk Modulus (GPa) = 27.05227 37.49414 32.27321
# Shear Modulus (GPa) = 22.76399 30.83658 26.80028
#
# Velocity S-wave (km/s) = 3.28344 3.82154 3.56267
# Velocity P-wave (km/s) = 5.21408 6.10159 5.67521
#
# Compressibility (1/GPa) = 0.03696547
#
# Stress axis : x y z
#
# Youngs Moduli (GPa) = 92.53018 58.38778 72.97585
#
# Poissons Ratio (x) = 0.11876 -0.01299
# Poissons Ratio (y) = 0.18821 0.03502
# Poissons Ratio (z) = -0.01647 0.02802
#
# Static dielectric constant tensor:
#      x y z
#    x 1.841240 0.000000 -0.018030 
#    y 0.000000 1.808120 0.000000 
#    z -0.018030 0.000000 1.705820 
# 
# From -- ./inp_files/291534.got.cif
#   From: 2010.05.17/outbox.cif.g08.bks.cpg/sg15_146_cif.got.tgz:291534.got - 2010.06.03 18:47:42.
