data_PCOD9262868
_publ_section_title
;
Structure prediction by ZEFSAII (Michael W. Deem and Ramdas Pophale) SiO2 
 PCOD9262868
Probable space group: C 2/C
;
_chemical_formula_sum "Si O2"
_cell_formula_units_Z 48
_cell_length_a 9.245077
_cell_length_b 15.122791
_cell_length_c 17.673145
_cell_angle_alpha 90.000000
_cell_angle_beta 74.837363
_cell_angle_gamma 90.000000
_cell_volume 2384.887550
_symmetry_space_group_name_H-M "C 2/C"
_symmetry_group_IT_number 15
_symmetry_cell_setting 'monoclinic'
loop_
_space_group_symop_operation_xyz
x,y,z
-x,y,1/2-z
-x,-y,-z
x,-y,1/2+z
1/2+x,1/2+y,z
1/2-x,1/2+y,1/2-z
1/2-x,1/2-y,-z
1/2+x,1/2-y,1/2+z
loop_
_atom_site_type_symbol
_atom_site_label
_atom_site_fract_x
_atom_site_fract_y
_atom_site_fract_z
Si Si1 0.582765 0.284993 0.531532
Si Si2 0.870670 0.333897 0.828701
Si Si3 0.219931 0.310662 0.431463
Si Si4 0.364296 0.034993 0.468468
Si Si5 0.550629 0.583897 0.328701
Si Si6 0.098605 0.060662 0.931463
O O1 0.750000 0.250000 0.500000
O O2 0.455218 0.211360 0.562347
O O3 0.557744 0.357545 0.601711
O O4 0.557431 0.339544 0.456900
O O5 0.826866 0.232904 0.854918
O O6 0.909453 0.392455 0.898289
O O7 0.715139 0.374999 0.819722
O O8 0.000000 0.340145 0.750000
O O9 0.250000 0.250000 0.500000
O O10 0.235669 0.410456 0.456899
O O11 0.500000 0.000000 0.500000
O O12 0.267565 0.961359 0.437654
O O13 0.500000 0.590144 0.250000
O O14 0.568220 0.482904 0.354917
O O15 0.000000 0.000000 0.000000
#
# Coordination Sequence:
#
# PCOD9262868 Si02
#       6
#     8   8   8   8   8   8
#     4  10  19  33  57  82 105 137 180 225 270 323
#     4   9  19  34  53  77 109 145 180 221 270 322
#     4   9  18  33  53  78 105 134 176 221 262 318
#     4  10  19  33  57  82 105 137 180 225 270 323
#     4   9  19  34  53  77 109 145 180 221 270 322
#     4   9  18  33  53  78 105 134 176 221 262 318
#
# _framework density 20.126733999999999
#
# number of rings (size 3 to 8) (size 9 to 14) (size 15 to 20)
#    0.000    2.667    0.000    4.000    0.000    5.333 
#    0.000    0.000    0.000   64.000    0.000    0.000 
#    0.000    0.000    0.000    0.000    0.000    0.000 
#
# Total GULP energy -133732.633689 kJ/mol
# GULP energy per Si atom -5572.193070 kJ/mol
# Density = 2.008092 g / cm^3
# Si number density = 20.126734 Si / 1000 Ang^3
#
#
#
# Elastic Constant Matrix: (Units=GPa)
#
#
# Indices 1 2 3 4 5 6 
#
# 1 112.6885 27.3350 53.5243 0.0000 -1.1196 0.0000
# 2 27.3350 61.2262 29.5679 0.0000 -0.0893 0.0000
# 3 53.5243 29.5679 112.6073 0.0000 1.1244 0.0000
# 4 0.0000 0.0000 0.0000 19.8447 0.0000 0.0795
# 5 -1.1196 -0.0893 1.1244 0.0000 43.4631 0.0000
# 6 0.0000 0.0000 0.0000 0.0795 0.0000 21.8449
#
#
#
# Elastic Compliance Matrix: (Units=1/GPa)
#
#
# Indices 1 2 3 4 5 6 
#
# 1 0.011920 -0.002958 -0.004893 0.000000 0.000428 0.000000
# 2 -0.002958 0.019440 -0.003699 0.000000 0.000059 0.000000
# 3 -0.004893 -0.003699 0.012182 0.000000 -0.000449 0.000000
# 4 0.000000 0.000000 0.000000 0.050392 0.000000 -0.000183
# 5 0.000428 0.000059 -0.000449 0.000000 0.023031 0.000000
# 6 0.000000 0.000000 0.000000 -0.000183 0.000000 0.045778
#
#
# Mechanical properties :
#
#
# Convention : Reuss Voigt Hill
#
# Bulk Modulus (GPa) = 48.92081 56.37516 52.64798
# Shear Modulus (GPa) = 25.95281 28.77021 27.36151
#
# Velocity S-wave (km/s) = 3.59481 3.78491 3.69109
# Velocity P-wave (km/s) = 6.44898 6.86816 6.66187
#
# Compressibility (1/GPa) = 0.02044120
#
# Stress axis : x y z
#
# Youngs Moduli (GPa) = 83.89238 51.44039 82.08779
#
# Poissons Ratio (x) = 0.15216 0.40169
# Poissons Ratio (y) = 0.24816 0.30365
# Poissons Ratio (z) = 0.41052 0.19028
#
# Static dielectric constant tensor:
#      x y z
#    x 1.789510 0.000000 0.003210 
#    y 0.000000 1.779220 0.000000 
#    z 0.003210 0.000000 1.709510 
# 
# From -- ./inp_files/189721.got.cif
#   From: 2010.05.17/outbox.cif.g08.bks.cpg/sg15_95_cif.got.tgz:189721.got - 2010.06.03 18:47:42.
