data_PCOD9262048
_publ_section_title
;
Structure prediction by ZEFSAII (Michael W. Deem and Ramdas Pophale) SiO2 
 PCOD9262048
Probable space group: C 2/C
;
_chemical_formula_sum "Si O2"
_cell_formula_units_Z 48
_cell_length_a 7.677038
_cell_length_b 15.973016
_cell_length_c 14.998636
_cell_angle_alpha 90.000000
_cell_angle_beta 116.465020
_cell_angle_gamma 90.000000
_cell_volume 1646.476971
_symmetry_space_group_name_H-M "C 2/C"
_symmetry_group_IT_number 15
_symmetry_cell_setting 'monoclinic'
loop_
_space_group_symop_operation_xyz
x,y,z
-x,y,1/2-z
-x,-y,-z
x,-y,1/2+z
1/2+x,1/2+y,z
1/2-x,1/2+y,1/2-z
1/2-x,1/2-y,-z
1/2+x,1/2-y,1/2+z
loop_
_atom_site_type_symbol
_atom_site_label
_atom_site_fract_x
_atom_site_fract_y
_atom_site_fract_z
Si Si1 0.819150 0.568681 0.375221
Si Si2 0.172045 0.642306 0.938822
Si Si3 0.279360 0.695568 0.634228
Si Si4 0.268314 0.249243 0.690196
Si Si5 0.248495 0.882358 0.545540
Si Si6 0.219294 0.499625 0.304752
O O1 0.751197 0.590943 0.459105
O O2 0.769827 0.653046 0.310128
O O3 0.734128 0.497277 0.290317
O O4 0.053350 0.567766 0.435083
O O5 0.286570 0.721287 0.922400
O O6 0.186673 0.583650 0.854120
O O7 0.950796 0.669033 0.910322
O O8 0.332406 0.702907 0.750705
O O9 0.290558 0.790382 0.596555
O O10 0.354840 0.634758 0.572415
O O11 0.500000 0.238825 0.750000
O O12 0.160049 0.938712 0.603844
O O13 0.000000 0.537623 0.250000
#
# Coordination Sequence:
#
# PCOD9262048 Si02
#       6
#     8   8   8   8   8   8
#     4  10  20  34  54  80 110 145 189 233 279 340
#     4  10  21  33  53  85 112 141 187 233 288 326
#     4   9  17  31  50  78 108 138 177 225 270 341
#     4  10  19  33  54  80 105 147 189 231 279 335
#     4   9  18  31  52  80 106 140 178 222 288 321
#     4  10  19  32  52  81 111 141 177 231 285 321
#
# _framework density 29.153155000000002
#
# number of rings (size 3 to 8) (size 9 to 14) (size 15 to 20)
#    0.000    2.333    1.667    2.000    0.000    7.333 
#    0.000    0.000    0.000    1.000   13.000    0.000 
#    0.000    0.000    0.000    2.333    0.000    0.000 
#
# Total GULP energy -134175.051350 kJ/mol
# GULP energy per Si atom -5590.627140 kJ/mol
# Density = 2.908680 g / cm^3
# Si number density = 29.153155 Si / 1000 Ang^3
#
#
#
# Elastic Constant Matrix: (Units=GPa)
#
#
# Indices 1 2 3 4 5 6 
#
# 1 129.9325 -0.7031 6.9154 0.0000 -5.2417 0.0000
# 2 -0.7031 80.2770 15.1018 0.0000 -4.3497 0.0000
# 3 6.9154 15.1018 189.6909 0.0000 -28.9171 0.0000
# 4 0.0000 0.0000 0.0000 54.6590 0.0000 -15.8249
# 5 -5.2417 -4.3497 -28.9171 0.0000 21.5038 0.0000
# 6 0.0000 0.0000 0.0000 -15.8249 0.0000 27.9281
#
#
#
# Elastic Compliance Matrix: (Units=1/GPa)
#
#
# Indices 1 2 3 4 5 6 
#
# 1 0.007775 0.000173 -0.000004 0.000000 0.001925 0.000000
# 2 0.000173 0.012689 -0.000778 0.000000 0.001562 0.000000
# 3 -0.000004 -0.000778 0.006679 0.000000 0.008823 0.000000
# 4 0.000000 0.000000 0.000000 0.021886 0.000000 0.012401
# 5 0.001925 0.001562 0.008823 0.000000 0.059153 0.000000
# 6 0.000000 0.000000 0.000000 0.012401 0.000000 0.042833
#
#
# Mechanical properties :
#
#
# Convention : Reuss Voigt Hill
#
# Bulk Modulus (GPa) = 38.57225 49.16984 43.87104
# Shear Modulus (GPa) = 31.07995 46.05726 38.56861
#
# Velocity S-wave (km/s) = 3.26865 3.97903 3.64120
# Velocity P-wave (km/s) = 5.24453 6.16546 5.72355
#
# Compressibility (1/GPa) = 0.02592538
#
# Stress axis : x y z
#
# Youngs Moduli (GPa) = 128.61558 78.80547 149.72644
#
# Poissons Ratio (x) = -0.01364 0.00056
# Poissons Ratio (y) = -0.02227 0.11655
# Poissons Ratio (z) = 0.00048 0.06134
#
# Static dielectric constant tensor:
#      x y z
#    x 2.221200 0.000000 -0.012460 
#    y 0.000000 2.298580 0.000000 
#    z -0.012460 0.000000 2.354170 
# 
# From -- ./inp_files/145177.got.cif
#   From: 2010.05.17/outbox.cif.g08.bks.cpg/sg15_73_cif.got.tgz:145177.got - 2010.06.03 18:47:42.
