data_PCOD9262533
_publ_section_title
;
Structure prediction by ZEFSAII (Michael W. Deem and Ramdas Pophale) SiO2 
 PCOD9262533
Probable space group: C 2/C
;
_chemical_formula_sum "Si O2"
_cell_formula_units_Z 56
_cell_length_a 21.532343
_cell_length_b 14.317540
_cell_length_c 9.452599
_cell_angle_alpha 90.000000
_cell_angle_beta 84.939000
_cell_angle_gamma 90.000000
_cell_volume 2902.782222
_symmetry_space_group_name_H-M "C 2/C"
_symmetry_group_IT_number 15
_symmetry_cell_setting 'monoclinic'
loop_
_space_group_symop_operation_xyz
x,y,z
-x,y,1/2-z
-x,-y,-z
x,-y,1/2+z
1/2+x,1/2+y,z
1/2-x,1/2+y,1/2-z
1/2-x,1/2-y,-z
1/2+x,1/2-y,1/2+z
loop_
_atom_site_type_symbol
_atom_site_label
_atom_site_fract_x
_atom_site_fract_y
_atom_site_fract_z
Si Si1 0.569936 0.549573 0.243090
Si Si2 0.141303 0.919597 0.438077
Si Si3 0.130470 0.710914 0.475335
Si Si4 0.351123 0.079154 0.635799
Si Si5 0.069820 0.260069 0.286987
Si Si6 0.215664 0.554113 0.556658
Si Si7 0.460538 0.060511 0.120812
O O1 0.500000 0.510944 0.250000
O O2 0.615312 0.481376 0.316768
O O3 0.565459 0.650553 0.322975
O O4 0.595641 0.566745 0.080814
O O5 0.142812 0.809491 0.400350
O O6 0.210483 0.950828 0.467323
O O7 0.113286 0.732934 0.640509
O O8 0.188482 0.639944 0.468498
O O9 0.070827 0.653832 0.432232
O O10 0.392401 0.173761 0.612182
O O11 0.318357 0.037308 0.502520
O O12 0.403509 0.005788 0.673960
O O13 0.303258 0.076826 0.777195
O O14 0.000000 0.291203 0.250000
O O15 0.500000 0.081471 0.250000
O O16 0.500000 0.000000 0.000000
#
# Coordination Sequence:
#
# PCOD9262533 Si02
#       7
#     8   8   8   8   8   8   8
#     4  10  22  38  57  79 101 135 181 226 272 324
#     4  11  21  39  58  76 106 143 181 226 273 319
#     4   9  20  33  53  79 107 144 181 217 264 328
#     4  10  19  33  53  80 110 141 179 221 266 326
#     4   9  17  33  54  75 105 144 178 215 274 328
#     4  10  20  35  54  79 107 143 180 218 268 329
#     4  11  20  33  55  86 116 144 177 221 278 332
#
# _framework density 19.291837000000001
#
# number of rings (size 3 to 8) (size 9 to 14) (size 15 to 20)
#    0.000    2.000    0.000    5.571    0.000    0.571 
#    0.000    5.000    0.000    0.000    0.000    0.000 
#    0.000    0.000    0.000    0.000    0.000    0.000 
#
# Total GULP energy -156119.465210 kJ/mol
# GULP energy per Si atom -5575.695186 kJ/mol
# Density = 1.924793 g / cm^3
# Si number density = 19.291837 Si / 1000 Ang^3
#
#
#
# Elastic Constant Matrix: (Units=GPa)
#
#
# Indices 1 2 3 4 5 6 
#
# 1 82.2443 2.9241 -4.9843 0.0000 11.3108 0.0000
# 2 2.9241 69.8989 2.0297 0.0000 25.1503 0.0000
# 3 -4.9843 2.0297 29.6150 0.0000 8.3758 0.0000
# 4 0.0000 0.0000 0.0000 10.0536 0.0000 3.4891
# 5 11.3108 25.1503 8.3758 0.0000 33.4621 0.0000
# 6 0.0000 0.0000 0.0000 3.4891 0.0000 19.5631
#
#
#
# Elastic Compliance Matrix: (Units=1/GPa)
#
#
# Indices 1 2 3 4 5 6 
#
# 1 0.013283 0.001791 0.004050 0.000000 -0.006850 0.000000
# 2 0.001791 0.020109 0.003626 0.000000 -0.016627 0.000000
# 3 0.004050 0.003626 0.038051 0.000000 -0.013619 0.000000
# 4 0.000000 0.000000 0.000000 0.106030 0.000000 -0.018910
# 5 -0.006850 -0.016627 -0.013619 0.000000 0.048106 0.000000
# 6 0.000000 0.000000 0.000000 -0.018910 0.000000 0.054489
#
#
# Mechanical properties :
#
#
# Convention : Reuss Voigt Hill
#
# Bulk Modulus (GPa) = 11.06470 20.18861 15.62665
# Shear Modulus (GPa) = 17.16684 24.73499 20.95092
#
# Velocity S-wave (km/s) = 2.98627 3.58459 3.29902
# Velocity P-wave (km/s) = 4.19980 5.25547 4.75701
#
# Compressibility (1/GPa) = 0.09037753
#
# Stress axis : x y z
#
# Youngs Moduli (GPa) = 75.28579 49.72978 26.28018
#
# Poissons Ratio (x) = -0.08909 -0.10644
# Poissons Ratio (y) = -0.13487 -0.09529
# Poissons Ratio (z) = -0.30491 -0.18031
#
# Static dielectric constant tensor:
#      x y z
#    x 1.666340 0.000000 -0.026340 
#    y 0.000000 1.730040 0.000000 
#    z -0.026340 0.000000 1.685710 
# 
# From -- ./inp_files/55643.got.cif
#   From: 2010.05.17/outbox.cif.g08.bks.cpg/sg15_28_cif.got.tgz:55643.got - 2010.06.03 18:47:42.
