data_PCOD9262844
_publ_section_title
;
Structure prediction by ZEFSAII (Michael W. Deem and Ramdas Pophale) SiO2 
 PCOD9262844
Probable space group: C 2/C
;
_chemical_formula_sum "Si O2"
_cell_formula_units_Z 48
_cell_length_a 19.885815
_cell_length_b 13.026035
_cell_length_c 11.588423
_cell_angle_alpha 90.000000
_cell_angle_beta 137.130170
_cell_angle_gamma 90.000000
_cell_volume 2042.221368
_symmetry_space_group_name_H-M "C 2/C"
_symmetry_group_IT_number 15
_symmetry_cell_setting 'monoclinic'
loop_
_space_group_symop_operation_xyz
x,y,z
-x,y,1/2-z
-x,-y,-z
x,-y,1/2+z
1/2+x,1/2+y,z
1/2-x,1/2+y,1/2-z
1/2-x,1/2-y,-z
1/2+x,1/2-y,1/2+z
loop_
_atom_site_type_symbol
_atom_site_label
_atom_site_fract_x
_atom_site_fract_y
_atom_site_fract_z
Si Si1 0.772470 0.589642 0.898323
Si Si2 0.601098 0.886329 0.723456
Si Si3 0.100982 0.375816 0.144325
Si Si4 0.240803 0.109898 0.239150
Si Si5 0.353649 0.298177 0.670464
Si Si6 0.887599 0.974755 0.131553
O O1 0.799422 0.637583 0.808312
O O2 0.791237 0.469305 0.892342
O O3 0.665178 0.582061 0.825396
O O4 0.848487 0.630105 0.090011
O O5 0.488591 0.860756 0.557774
O O6 0.672416 0.832418 0.719041
O O7 0.606215 0.008497 0.700195
O O8 0.080138 0.301454 0.226183
O O9 0.161973 0.166628 0.217264
O O10 0.179916 0.052757 0.062527
O O11 0.250000 0.250000 0.500000
O O12 0.383767 0.401504 0.643969
O O13 0.000000 0.943375 0.250000
#
# Coordination Sequence:
#
# PCOD9262844 Si02
#       6
#     8   8   8   8   8   8
#     4   9  17  34  57  79 112 153 192 238 296 359
#     4   9  18  34  56  82 118 159 197 238 308 377
#     4  10  19  33  56  88 118 155 200 249 303 361
#     4   9  19  37  58  82 116 158 198 247 309 362
#     4  11  22  37  59  88 122 156 206 260 300 355
#     4  10  22  40  61  85 117 164 210 247 301 371
#
# _framework density 23.503819
#
# number of rings (size 3 to 8) (size 9 to 14) (size 15 to 20)
#    0.000    2.333    0.000    4.500    0.000    4.000 
#    0.000   10.000    0.000    0.000    0.000    0.000 
#    0.000    0.000    0.000    0.000    0.000    0.000 
#
# Total GULP energy -133717.440309 kJ/mol
# GULP energy per Si atom -5571.560013 kJ/mol
# Density = 2.345032 g / cm^3
# Si number density = 23.503819 Si / 1000 Ang^3
#
#
#
# Elastic Constant Matrix: (Units=GPa)
#
#
# Indices 1 2 3 4 5 6 
#
# 1 107.9037 9.3542 30.4637 0.0000 7.8932 0.0000
# 2 9.3542 34.5649 1.2328 0.0000 4.2851 0.0000
# 3 30.4637 1.2328 55.9804 0.0000 15.4744 0.0000
# 4 0.0000 0.0000 0.0000 19.8701 0.0000 -7.7794
# 5 7.8932 4.2851 15.4744 0.0000 30.8086 0.0000
# 6 0.0000 0.0000 0.0000 -7.7794 0.0000 19.4739
#
#
#
# Elastic Compliance Matrix: (Units=1/GPa)
#
#
# Indices 1 2 3 4 5 6 
#
# 1 0.011229 -0.002898 -0.006228 0.000000 0.000654 0.000000
# 2 -0.002898 0.030202 0.002169 0.000000 -0.004548 0.000000
# 3 -0.006228 0.002169 0.024208 0.000000 -0.010865 0.000000
# 4 0.000000 0.000000 0.000000 0.059657 0.000000 0.023832
# 5 0.000654 -0.004548 -0.010865 0.000000 0.038381 0.000000
# 6 0.000000 0.000000 0.000000 0.023832 0.000000 0.060871
#
#
# Mechanical properties :
#
#
# Convention : Reuss Voigt Hill
#
# Bulk Modulus (GPa) = 19.33273 31.17227 25.25250
# Shear Modulus (GPa) = 19.55388 24.52373 22.03880
#
# Velocity S-wave (km/s) = 2.88747 3.23366 3.06546
# Velocity P-wave (km/s) = 4.39999 5.21858 4.82667
#
# Compressibility (1/GPa) = 0.05172577
#
# Stress axis : x y z
#
# Youngs Moduli (GPa) = 89.05415 33.11061 41.30839
#
# Poissons Ratio (x) = 0.09595 0.25726
# Poissons Ratio (y) = 0.25807 -0.08960
# Poissons Ratio (z) = 0.55461 -0.07182
#
# Static dielectric constant tensor:
#      x y z
#    x 1.964330 0.000000 0.007820 
#    y 0.000000 2.023050 0.000000 
#    z 0.007820 0.000000 1.896780 
# 
# From -- ./inp_files/112921.got.cif
#   From: 2010.05.17/outbox.cif.g08.bks.cpg/sg15_57_cif.got.tgz:112921.got - 2010.06.03 18:47:42.
