data_PCOD9262013
_publ_section_title
;
Structure prediction by ZEFSAII (Michael W. Deem and Ramdas Pophale) SiO2 
 PCOD9262013
Probable space group: C 2/C
;
_chemical_formula_sum "Si O2"
_cell_formula_units_Z 56
_cell_length_a 8.380809
_cell_length_b 16.285895
_cell_length_c 21.814315
_cell_angle_alpha 90.000000
_cell_angle_beta 83.287659
_cell_angle_gamma 90.000000
_cell_volume 2957.004812
_symmetry_space_group_name_H-M "C 2/C"
_symmetry_group_IT_number 15
_symmetry_cell_setting 'monoclinic'
loop_
_space_group_symop_operation_xyz
x,y,z
-x,y,1/2-z
-x,-y,-z
x,-y,1/2+z
1/2+x,1/2+y,z
1/2-x,1/2+y,1/2-z
1/2-x,1/2-y,-z
1/2+x,1/2-y,1/2+z
loop_
_atom_site_type_symbol
_atom_site_label
_atom_site_fract_x
_atom_site_fract_y
_atom_site_fract_z
Si Si1 0.759897 0.056637 0.892320
Si Si2 0.933096 0.202493 0.817437
Si Si3 0.029326 0.889410 0.623401
Si Si4 0.159356 0.050643 0.474816
Si Si5 0.842185 0.675647 0.140396
Si Si6 0.440126 0.970521 0.876232
Si Si7 0.267799 0.871954 0.782977
O O1 0.832553 0.134071 0.855088
O O2 0.878110 0.977368 0.878950
O O3 0.585630 0.034095 0.873155
O O4 0.758922 0.074585 0.965109
O O5 0.834540 0.285442 0.806135
O O6 0.000000 0.170262 0.750000
O O7 0.080144 0.236536 0.851404
O O8 0.173435 0.824861 0.614044
O O9 0.912164 0.883613 0.570014
O O10 0.915213 0.880403 0.687326
O O11 0.294501 0.005919 0.427677
O O12 0.000000 0.000000 0.500000
O O13 0.801711 0.634906 0.209272
O O14 0.972603 0.614158 0.105082
O O15 0.363503 0.944631 0.814143
#
# Coordination Sequence:
#
# PCOD9262013 Si02
#       7
#     8   8   8   8   8   8   8
#     4  10  19  32  52  76 103 134 166 210 259 301
#     4   9  19  34  50  73 107 136 161 204 263 309
#     4   9  18  32  54  76  96 134 180 210 241 301
#     4   9  18  33  50  73 102 130 166 215 260 296
#     4   9  17  32  53  73 100 136 170 208 254 303
#     4   9  17  30  51  74  95 131 176 206 240 306
#     4   9  17  33  52  73 102 133 169 211 252 304
#
# _framework density 18.938082999999999
#
# number of rings (size 3 to 8) (size 9 to 14) (size 15 to 20)
#    0.000    2.857    0.000    2.143    0.000    2.286 
#    0.000   12.857    0.000    5.143    0.000    0.000 
#    0.000    0.000    0.000    0.000    0.000    0.000 
#
# Total GULP energy -155907.509362 kJ/mol
# GULP energy per Si atom -5568.125334 kJ/mol
# Density = 1.889498 g / cm^3
# Si number density = 18.938083 Si / 1000 Ang^3
#
#
#
# Elastic Constant Matrix: (Units=GPa)
#
#
# Indices 1 2 3 4 5 6 
#
# 1 89.1238 23.5506 11.2303 0.0000 -7.8766 0.0000
# 2 23.5506 45.2145 33.9387 0.0000 3.5107 0.0000
# 3 11.2303 33.9387 71.1156 0.0000 -10.7228 0.0000
# 4 0.0000 0.0000 0.0000 8.4968 0.0000 2.3013
# 5 -7.8766 3.5107 -10.7228 0.0000 32.3504 0.0000
# 6 0.0000 0.0000 0.0000 2.3013 0.0000 -9.8342
#
#
#
# Elastic Compliance Matrix: (Units=1/GPa)
#
#
# Indices 1 2 3 4 5 6 
#
# 1 0.014050 -0.010527 0.003677 0.000000 0.005782 0.000000
# 2 -0.010527 0.045488 -0.022291 0.000000 -0.014888 0.000000
# 3 0.003677 -0.022291 0.025914 0.000000 0.011904 0.000000
# 4 0.000000 0.000000 0.000000 0.110677 0.000000 0.025899
# 5 0.005782 -0.014888 0.011904 0.000000 0.037881 0.000000
# 6 0.000000 0.000000 0.000000 0.025899 0.000000 -0.095625
#
#
# Mechanical properties :
#
#
# Convention : Reuss Voigt Hill
#
# Bulk Modulus (GPa) = 36.80569 38.09924 37.45247
# Shear Modulus (GPa) = 24.30480 15.31821 19.81150
#
# Velocity S-wave (km/s) = 3.58632 2.84713 3.23789
# Velocity P-wave (km/s) = 6.05193 5.56504 5.81358
#
# Compressibility (1/GPa) = 0.02716971
#
# Stress axis : x y z
#
# Youngs Moduli (GPa) = 71.17594 21.98402 38.58975
#
# Poissons Ratio (x) = 0.23142 -0.14189
# Poissons Ratio (y) = 0.74926 0.86019
# Poissons Ratio (z) = -0.26171 0.49004
#
# Static dielectric constant tensor:
#      x y z
#    x 1.711010 0.000000 0.019070 
#    y 0.000000 1.632840 0.000000 
#    z 0.019070 0.000000 1.697830 
# 
# From -- ./inp_files/264228.got.cif
#   From: 2010.05.17/outbox.cif.g08.bks.cpg/sg15_133_cif.got.tgz:264228.got - 2010.06.03 18:47:42.
