data_PCOD9262235
_publ_section_title
;
Structure prediction by ZEFSAII (Michael W. Deem and Ramdas Pophale) SiO2 
 PCOD9262235
Probable space group: C 2/C
;
_chemical_formula_sum "Si O2"
_cell_formula_units_Z 64
_cell_length_a 8.135637
_cell_length_b 21.637984
_cell_length_c 20.194010
_cell_angle_alpha 90.000000
_cell_angle_beta 126.770983
_cell_angle_gamma 90.000000
_cell_volume 2847.621228
_symmetry_space_group_name_H-M "C 2/C"
_symmetry_group_IT_number 15
_symmetry_cell_setting 'monoclinic'
loop_
_space_group_symop_operation_xyz
x,y,z
-x,y,1/2-z
-x,-y,-z
x,-y,1/2+z
1/2+x,1/2+y,z
1/2-x,1/2+y,1/2-z
1/2-x,1/2-y,-z
1/2+x,1/2-y,1/2+z
loop_
_atom_site_type_symbol
_atom_site_label
_atom_site_fract_x
_atom_site_fract_y
_atom_site_fract_z
Si Si1 0.463077 0.701478 0.435023
Si Si2 0.203246 0.398617 0.217090
Si Si3 0.158337 0.842864 0.727375
Si Si4 0.747854 0.465488 0.804954
Si Si5 0.597584 0.634663 0.877675
Si Si6 0.376238 0.167241 0.578478
Si Si7 0.015009 0.721999 0.374871
Si Si8 0.979360 0.613479 0.467512
O O1 0.468442 0.661931 0.369609
O O2 0.517754 0.770155 0.422849
O O3 0.637462 0.681527 0.528020
O O4 0.234112 0.695783 0.405566
O O5 0.156827 0.470167 0.193292
O O6 0.305932 0.371696 0.173505
O O7 0.373340 0.394349 0.314952
O O8 0.997458 0.358439 0.170355
O O9 0.268680 0.908811 0.759189
O O10 0.332322 0.790878 0.778638
O O11 0.000000 0.838004 0.750000
O O12 0.500000 0.476165 0.750000
O O13 0.856250 0.437805 0.896629
O O14 0.561813 0.705591 0.889581
O O15 0.774151 0.604438 0.965756
O O16 0.397832 0.119989 0.522319
O O17 0.953920 0.680173 0.423704
#
# Coordination Sequence:
#
# PCOD9262235 Si02
#       8
#     8   8   8   8   8   8   8   8
#     4  11  20  34  55  87 115 157 189 236 301 355
#     4  10  19  35  53  84 112 152 190 257 287 333
#     4  10  22  37  56  86 119 154 194 244 292 349
#     4  10  19  35  55  80 118 143 200 244 293 337
#     4  10  19  32  56  84 115 145 192 239 294 346
#     4  10  21  34  55  83 124 145 193 244 295 355
#     4  11  20  34  61  85 123 151 191 237 295 366
#     4  10  21  36  54  89 115 155 183 249 291 352
#
# _framework density 22.474900000000002
#
# number of rings (size 3 to 8) (size 9 to 14) (size 15 to 20)
#    0.000    1.750    3.750    3.750    1.750    2.000 
#    2.250    0.000    0.000    3.000    6.500    0.000 
#    0.000    0.000    0.000    0.000    0.000    0.000 
#
# Total GULP energy -178707.309696 kJ/mol
# GULP energy per Si atom -5584.603428 kJ/mol
# Density = 2.242375 g / cm^3
# Si number density = 22.474900 Si / 1000 Ang^3
#
#
#
# Elastic Constant Matrix: (Units=GPa)
#
#
# Indices 1 2 3 4 5 6 
#
# 1 65.9916 18.3782 18.9868 0.0000 12.8460 0.0000
# 2 18.3782 68.7366 40.1392 0.0000 13.5671 0.0000
# 3 18.9868 40.1392 147.9978 0.0000 34.4673 0.0000
# 4 0.0000 0.0000 0.0000 20.5003 0.0000 7.1611
# 5 12.8460 13.5671 34.4673 0.0000 40.0003 0.0000
# 6 0.0000 0.0000 0.0000 7.1611 0.0000 8.3000
#
#
#
# Elastic Compliance Matrix: (Units=1/GPa)
#
#
# Indices 1 2 3 4 5 6 
#
# 1 0.017014 -0.003598 -0.000273 0.000000 -0.004008 0.000000
# 2 -0.003598 0.018215 -0.004140 0.000000 -0.001455 0.000000
# 3 -0.000273 -0.004140 0.009467 0.000000 -0.006666 0.000000
# 4 0.000000 0.000000 0.000000 0.069824 0.000000 -0.060244
# 5 -0.004008 -0.001455 -0.006666 0.000000 0.032524 0.000000
# 6 0.000000 0.000000 0.000000 -0.060244 0.000000 0.172460
#
#
# Mechanical properties :
#
#
# Convention : Reuss Voigt Hill
#
# Bulk Modulus (GPa) = 34.87518 48.63717 41.75617
# Shear Modulus (GPa) = 14.48915 27.44156 20.96536
#
# Velocity S-wave (km/s) = 2.54181 3.49805 3.05755
# Velocity P-wave (km/s) = 4.91584 6.16464 5.57532
#
# Compressibility (1/GPa) = 0.02867368
#
# Stress axis : x y z
#
# Youngs Moduli (GPa) = 58.77357 54.89980 105.62989
#
# Poissons Ratio (x) = 0.19755 0.02888
# Poissons Ratio (y) = 0.21149 0.43726
# Poissons Ratio (z) = 0.01607 0.22726
#
# Static dielectric constant tensor:
#      x y z
#    x 1.895000 0.000000 0.018940 
#    y 0.000000 1.809570 0.000000 
#    z 0.018940 0.000000 1.898100 
# 
# From -- ./inp_files/266130.got.cif
#   From: 2010.05.17/outbox.cif.g08.bks.cpg/sg15_134_cif.got.tgz:266130.got - 2010.06.03 18:47:42.
