data_PCOD9262490
_publ_section_title
;
Structure prediction by ZEFSAII (Michael W. Deem and Ramdas Pophale) SiO2 
 PCOD9262490
Probable space group: C 2/C
;
_chemical_formula_sum "Si O2"
_cell_formula_units_Z 40
_cell_length_a 20.441652
_cell_length_b 7.612143
_cell_length_c 14.425254
_cell_angle_alpha 90.000000
_cell_angle_beta 138.985627
_cell_angle_gamma 90.000000
_cell_volume 1473.040238
_symmetry_space_group_name_H-M "C 2/C"
_symmetry_group_IT_number 15
_symmetry_cell_setting 'monoclinic'
loop_
_space_group_symop_operation_xyz
x,y,z
-x,y,1/2-z
-x,-y,-z
x,-y,1/2+z
1/2+x,1/2+y,z
1/2-x,1/2+y,1/2-z
1/2-x,1/2-y,-z
1/2+x,1/2-y,1/2+z
loop_
_atom_site_type_symbol
_atom_site_label
_atom_site_fract_x
_atom_site_fract_y
_atom_site_fract_z
Si Si1 0.494160 0.377070 0.141666
Si Si2 0.852908 0.365282 0.896340
Si Si3 0.695422 0.480555 0.865354
Si Si4 0.204123 0.980274 0.595031
Si Si5 0.468728 0.218139 0.812140
O O1 0.500000 0.293980 0.250000
O O2 0.608146 0.392234 0.230043
O O3 0.479655 0.588452 0.140170
O O4 0.389882 0.348508 0.978105
O O5 0.794877 0.478225 0.913101
O O6 0.807272 0.422593 0.750892
O O7 0.816449 0.169031 0.881768
O O8 0.971344 0.369621 0.040728
O O9 0.644481 0.284389 0.805833
O O10 0.708978 0.524376 0.988113
O O11 0.500000 0.126520 0.750000
#
# Coordination Sequence:
#
# PCOD9262490 Si02
#       5
#     8   8   8   8   8
#     4   6  11  27  46  69  98 125 168 214 233 299
#     4  11  20  32  58  81 107 140 180 227 265 310
#     4   9  16  34  59  75 100 154 183 203 266 328
#     4  10  19  33  52  86 108 131 187 225 255 321
#     4   8  14  30  51  74 103 129 185 209 245 315
#
# _framework density 27.154723000000001
#
# number of rings (size 3 to 8) (size 9 to 14) (size 15 to 20)
#    1.200    2.000    4.000    0.600    0.000    0.800 
#    0.000    2.000    0.000    3.600    0.000    0.000 
#    0.000    0.000    0.000    0.000    0.000    0.000 
#
# Total GULP energy -111357.417183 kJ/mol
# GULP energy per Si atom -5567.870859 kJ/mol
# Density = 2.709292 g / cm^3
# Si number density = 27.154723 Si / 1000 Ang^3
#
#
#
# Elastic Constant Matrix: (Units=GPa)
#
#
# Indices 1 2 3 4 5 6 
#
# 1 86.4724 28.9351 34.4428 0.0000 -13.3960 0.0000
# 2 28.9351 64.3756 24.6592 0.0000 -8.9527 0.0000
# 3 34.4428 24.6592 196.7852 0.0000 -0.1787 0.0000
# 4 0.0000 0.0000 0.0000 23.5630 0.0000 11.7307
# 5 -13.3960 -8.9527 -0.1787 0.0000 19.2210 0.0000
# 6 0.0000 0.0000 0.0000 11.7307 0.0000 38.0242
#
#
#
# Elastic Compliance Matrix: (Units=1/GPa)
#
#
# Indices 1 2 3 4 5 6 
#
# 1 0.015333 -0.004940 -0.002057 0.000000 0.008366 0.000000
# 2 -0.004940 0.019094 -0.001523 0.000000 0.005436 0.000000
# 3 -0.002057 -0.001523 0.005631 0.000000 -0.002091 0.000000
# 4 0.000000 0.000000 0.000000 0.050140 0.000000 -0.015469
# 5 0.008366 0.005436 -0.002091 0.000000 0.060370 0.000000
# 6 0.000000 0.000000 0.000000 -0.015469 0.000000 0.031071
#
#
# Mechanical properties :
#
#
# Convention : Reuss Voigt Hill
#
# Bulk Modulus (GPa) = 43.44685 58.18970 50.81827
# Shear Modulus (GPa) = 24.23052 33.46804 28.84928
#
# Velocity S-wave (km/s) = 2.99040 3.51450 3.26299
# Velocity P-wave (km/s) = 5.28751 6.15990 5.74031
#
# Compressibility (1/GPa) = 0.02301663
#
# Stress axis : x y z
#
# Youngs Moduli (GPa) = 65.21951 52.37309 177.59887
#
# Poissons Ratio (x) = 0.25874 0.36532
# Poissons Ratio (y) = 0.32220 0.27049
# Poissons Ratio (z) = 0.13416 0.07976
#
# Static dielectric constant tensor:
#      x y z
#    x 2.133390 0.000000 0.082990 
#    y 0.000000 2.182980 0.000000 
#    z 0.082990 0.000000 2.275940 
# 
# From -- ./inp_files/177117.got.cif
#   From: 2010.05.17/outbox.cif.g08.bks.cpg/sg15_89_cif.got.tgz:177117.got - 2010.06.03 18:47:42.
