data_PCOD9262877
_publ_section_title
;
Structure prediction by ZEFSAII (Michael W. Deem and Ramdas Pophale) SiO2 
 PCOD9262877
Probable space group: C 2/C
;
_chemical_formula_sum "Si O2"
_cell_formula_units_Z 56
_cell_length_a 26.451480
_cell_length_b 12.113449
_cell_length_c 11.710082
_cell_angle_alpha 90.000000
_cell_angle_beta 133.125037
_cell_angle_gamma 90.000000
_cell_volume 2738.542287
_symmetry_space_group_name_H-M "C 2/C"
_symmetry_group_IT_number 15
_symmetry_cell_setting 'monoclinic'
loop_
_space_group_symop_operation_xyz
x,y,z
-x,y,1/2-z
-x,-y,-z
x,-y,1/2+z
1/2+x,1/2+y,z
1/2-x,1/2+y,1/2-z
1/2-x,1/2-y,-z
1/2+x,1/2-y,1/2+z
loop_
_atom_site_type_symbol
_atom_site_label
_atom_site_fract_x
_atom_site_fract_y
_atom_site_fract_z
Si Si1 0.606478 0.915909 0.328516
Si Si2 0.704593 0.106644 0.537537
Si Si3 0.848385 0.813773 0.176698
Si Si4 0.500000 0.242573 0.750000
Si Si5 0.037379 0.899542 0.991962
Si Si6 0.421487 0.591868 0.576384
Si Si7 0.000000 0.416518 0.750000
Si Si8 0.611749 0.193554 0.587962
O O1 0.570222 0.830404 0.361199
O O2 0.612837 0.858829 0.215022
O O3 0.674792 0.983244 0.472694
O O4 0.547613 0.010349 0.240503
O O5 0.785508 0.126136 0.643350
O O6 0.670929 0.189866 0.390755
O O7 0.678834 0.153103 0.619863
O O8 0.917105 0.824033 0.356765
O O9 0.867539 0.878389 0.091094
O O10 0.508785 0.319432 0.654025
O O11 0.083882 0.967328 0.973896
O O12 0.000000 0.000000 0.000000
O O13 0.500000 0.606219 0.750000
O O14 0.402145 0.675650 0.443842
O O15 0.950061 0.350184 0.589393
#
# Coordination Sequence:
#
# PCOD9262877 Si02
#       8
#     8   8   8   4   8   8   4   8
#     4  10  21  34  56  86 125 153 188 250 309 359
#     4   9  22  41  58  85 116 164 208 238 294 381
#     4  10  22  40  62  83 117 158 206 250 292 372
#     4  11  24  37  56 100 128 147 200 261 320 364
#     4  12  22  38  62  87 121 157 197 257 314 356
#     4  11  20  35  58  88 111 149 205 251 300 368
#     4   9  18  31  50  84 118 151 198 235 290 366
#     4  10  19  33  57  82 117 159 200 242 299 362
#
# _framework density 20.448834999999999
#
# number of rings (size 3 to 8) (size 9 to 14) (size 15 to 20)
#    0.000    1.714    2.857    1.286    0.000    4.571 
#    0.000    2.857    0.000    5.143    0.000    0.000 
#    0.000    0.000    0.000    0.000    0.000    0.000 
#
# Total GULP energy -156106.763397 kJ/mol
# GULP energy per Si atom -5575.241550 kJ/mol
# Density = 2.040229 g / cm^3
# Si number density = 20.448835 Si / 1000 Ang^3
#
#
#
# Elastic Constant Matrix: (Units=GPa)
#
#
# Indices 1 2 3 4 5 6 
#
# 1 95.4870 8.9962 6.9821 0.0000 -2.9276 0.0000
# 2 8.9962 65.6442 3.1399 0.0000 -4.0379 0.0000
# 3 6.9821 3.1399 31.2248 0.0000 -6.5077 0.0000
# 4 0.0000 0.0000 0.0000 21.1449 0.0000 -0.9888
# 5 -2.9276 -4.0379 -6.5077 0.0000 20.8273 0.0000
# 6 0.0000 0.0000 0.0000 -0.9888 0.0000 22.0091
#
#
#
# Elastic Compliance Matrix: (Units=1/GPa)
#
#
# Indices 1 2 3 4 5 6 
#
# 1 0.010774 -0.001338 -0.002153 0.000000 0.000582 0.000000
# 2 -0.001338 0.015612 -0.000726 0.000000 0.002612 0.000000
# 3 -0.002153 -0.000726 0.034751 0.000000 0.010415 0.000000
# 4 0.000000 0.000000 0.000000 0.047392 0.000000 0.002129
# 5 0.000582 0.002612 0.010415 0.000000 0.051856 0.000000
# 6 0.000000 0.000000 0.000000 0.002129 0.000000 0.045531
#
#
# Mechanical properties :
#
#
# Convention : Reuss Voigt Hill
#
# Bulk Modulus (GPa) = 18.97447 25.62138 22.29793
# Shear Modulus (GPa) = 21.55920 24.34545 22.95232
#
# Velocity S-wave (km/s) = 3.25052 3.45418 3.35390
# Velocity P-wave (km/s) = 4.83601 5.33528 5.09177
#
# Compressibility (1/GPa) = 0.05270239
#
# Stress axis : x y z
#
# Youngs Moduli (GPa) = 92.81633 64.05179 28.77622
#
# Poissons Ratio (x) = 0.08568 0.06196
# Poissons Ratio (y) = 0.12416 0.02090
# Poissons Ratio (z) = 0.19986 0.04653
#
# Static dielectric constant tensor:
#      x y z
#    x 1.790600 0.000000 -0.009260 
#    y 0.000000 1.757290 0.000000 
#    z -0.009260 0.000000 1.737950 
# 
# From -- ./inp_files/111154.got.cif
#   From: 2010.05.17/outbox.cif.g08.bks.cpg/sg15_56_cif.got.tgz:111154.got - 2010.06.03 18:47:42.
