data_PCOD9262188
_publ_section_title
;
Structure prediction by ZEFSAII (Michael W. Deem and Ramdas Pophale) SiO2 
 PCOD9262188
Probable space group: C 2/C
;
_chemical_formula_sum "Si O2"
_cell_formula_units_Z 60
_cell_length_a 9.361698
_cell_length_b 16.499226
_cell_length_c 24.877074
_cell_angle_alpha 90.000000
_cell_angle_beta 50.450072
_cell_angle_gamma 90.000000
_cell_volume 2962.861200
_symmetry_space_group_name_H-M "C 2/C"
_symmetry_group_IT_number 15
_symmetry_cell_setting 'monoclinic'
loop_
_space_group_symop_operation_xyz
x,y,z
-x,y,1/2-z
-x,-y,-z
x,-y,1/2+z
1/2+x,1/2+y,z
1/2-x,1/2+y,1/2-z
1/2-x,1/2-y,-z
1/2+x,1/2-y,1/2+z
loop_
_atom_site_type_symbol
_atom_site_label
_atom_site_fract_x
_atom_site_fract_y
_atom_site_fract_z
Si Si1 0.747414 0.940025 0.390547
Si Si2 0.068711 0.194737 0.047946
Si Si3 0.285492 0.546239 0.534723
Si Si4 0.937918 0.666492 0.647758
Si Si5 0.500000 0.113719 0.750000
Si Si6 0.017718 0.584630 0.051835
Si Si7 0.895901 0.073720 0.624908
Si Si8 0.967068 0.237576 0.952757
O O1 0.727044 0.879798 0.344709
O O2 0.602605 0.907913 0.471179
O O3 0.947269 0.949654 0.369907
O O4 0.656865 0.026447 0.400069
O O5 0.956341 0.242232 0.120595
O O6 0.250000 0.250000 0.000000
O O7 0.119594 0.099549 0.035888
O O8 0.984069 0.208631 0.009758
O O9 0.185096 0.462664 0.542118
O O10 0.401455 0.538933 0.562461
O O11 0.115944 0.608977 0.590422
O O12 0.943279 0.664132 0.710707
O O13 0.685082 0.062153 0.693848
O O14 0.956006 0.674605 0.080363
O O15 0.939132 0.169000 0.605354
O O16 0.750000 0.250000 0.000000
#
# Coordination Sequence:
#
# PCOD9262188 Si02
#       8
#     8   8   8   8   4   8   8   8
#     4  10  19  32  55  83 116 142 182 221 283 349
#     4   9  16  29  49  76 112 143 178 226 279 340
#     4   8  18  30  51  82 116 144 174 224 290 341
#     4   9  16  33  51  78 106 146 191 227 280 321
#     4  10  22  36  56  76 106 150 202 250 252 324
#     4  10  19  33  53  87 125 143 168 224 292 356
#     4  10  20  37  56  83 110 151 198 223 282 331
#     4  11  19  34  55  84 120 147 175 228 287 347
#
# _framework density 20.250693999999999
#
# number of rings (size 3 to 8) (size 9 to 14) (size 15 to 20)
#    0.000    2.400    2.667    0.800    1.867    1.067 
#    0.000    0.000    0.000    4.800    0.000    0.000 
#    0.000    0.000    0.000    0.000    0.000    0.000 
#
# Total GULP energy -167110.503700 kJ/mol
# GULP energy per Si atom -5570.350123 kJ/mol
# Density = 2.020460 g / cm^3
# Si number density = 20.250694 Si / 1000 Ang^3
#
#
#
# Elastic Constant Matrix: (Units=GPa)
#
#
# Indices 1 2 3 4 5 6 
#
# 1 131.1301 11.2352 35.4218 0.0000 14.9643 0.0001
# 2 11.2352 95.6315 16.5970 -0.0001 9.3255 0.0000
# 3 35.4218 16.5970 58.8586 -0.0001 6.9973 0.0001
# 4 0.0000 -0.0001 -0.0001 10.3505 0.0000 2.4149
# 5 14.9643 9.3255 6.9973 0.0000 27.5642 -0.0001
# 6 0.0001 0.0000 0.0001 2.4149 -0.0001 23.0032
#
#
#
# Elastic Compliance Matrix: (Units=1/GPa)
#
#
# Indices 1 2 3 4 5 6 
#
# 1 0.009483 0.000182 -0.005299 0.000000 -0.003865 0.000000
# 2 0.000182 0.011248 -0.002905 0.000000 -0.003167 0.000000
# 3 -0.005299 -0.002905 0.021178 0.000000 -0.001517 0.000000
# 4 0.000000 0.000000 0.000000 0.099040 0.000000 -0.010397
# 5 -0.003865 -0.003167 -0.001517 0.000000 0.039834 0.000000
# 6 0.000000 0.000000 0.000000 -0.010397 0.000000 0.044564
#
#
# Mechanical properties :
#
#
# Convention : Reuss Voigt Hill
#
# Bulk Modulus (GPa) = 38.66018 45.79201 42.22610
# Shear Modulus (GPa) = 19.99906 27.00798 23.50352
#
# Velocity S-wave (km/s) = 3.14598 3.65592 3.41049
# Velocity P-wave (km/s) = 5.68581 6.36260 6.03370
#
# Compressibility (1/GPa) = 0.02586641
#
# Stress axis : x y z
#
# Youngs Moduli (GPa) = 105.45446 88.90150 47.21827
#
# Poissons Ratio (x) = -0.01622 0.25020
# Poissons Ratio (y) = -0.01924 0.13717
# Poissons Ratio (z) = 0.55878 0.25827
#
# Static dielectric constant tensor:
#      x y z
#    x 1.840550 0.000000 -0.056120 
#    y 0.000000 1.846360 0.000000 
#    z -0.056120 0.000000 1.813710 
# 
# From -- ./inp_files/289414.got.cif
#   From: 2010.05.17/outbox.cif.g08.bks.cpg/sg15_145_cif.got.tgz:289414.got - 2010.06.03 18:47:42.
