data_PCOD9262722
_publ_section_title
;
Structure prediction by ZEFSAII (Michael W. Deem and Ramdas Pophale) SiO2 
 PCOD9262722
Probable space group: C 2/C
;
_chemical_formula_sum "Si O2"
_cell_formula_units_Z 60
_cell_length_a 15.405146
_cell_length_b 12.970025
_cell_length_c 18.119199
_cell_angle_alpha 90.000000
_cell_angle_beta 50.424431
_cell_angle_gamma 90.000000
_cell_volume 2790.479683
_symmetry_space_group_name_H-M "C 2/C"
_symmetry_group_IT_number 15
_symmetry_cell_setting 'monoclinic'
loop_
_space_group_symop_operation_xyz
x,y,z
-x,y,1/2-z
-x,-y,-z
x,-y,1/2+z
1/2+x,1/2+y,z
1/2-x,1/2+y,1/2-z
1/2-x,1/2-y,-z
1/2+x,1/2-y,1/2+z
loop_
_atom_site_type_symbol
_atom_site_label
_atom_site_fract_x
_atom_site_fract_y
_atom_site_fract_z
Si Si1 0.568837 0.518573 0.820067
Si Si2 0.622224 0.949467 0.785949
Si Si3 0.239168 0.298018 0.086487
Si Si4 0.815477 0.927851 0.436865
Si Si5 0.839516 0.000554 0.579814
Si Si6 0.376211 0.276564 0.283224
Si Si7 0.500000 0.905920 0.250000
Si Si8 0.270916 0.080404 0.127248
O O1 0.442763 0.528350 0.858005
O O2 0.567071 0.487829 0.906955
O O3 0.621121 0.632515 0.778859
O O4 0.651283 0.444204 0.731419
O O5 0.639838 0.832847 0.746930
O O6 0.632953 0.953735 0.867829
O O7 0.730747 0.003374 0.691927
O O8 0.520398 0.014450 0.806898
O O9 0.329564 0.389167 0.046200
O O10 0.111958 0.338436 0.172646
O O11 0.273614 0.202087 0.117941
O O12 0.250000 0.250000 0.000000
O O13 0.805907 0.825605 0.390594
O O14 0.814058 0.920050 0.526814
O O15 0.732890 0.012993 0.445686
O O16 0.500000 0.267124 0.250000
#
# Coordination Sequence:
#
# PCOD9262722 Si02
#       8
#     8   8   8   8   8   8   4   8
#     4   9  19  33  56  85 109 149 195 246 294 359
#     4  10  20  38  58  81 113 156 197 240 300 368
#     4  11  22  38  61  89 122 162 201 250 302 361
#     4  10  19  33  55  82 114 147 192 250 301 351
#     4  10  20  34  53  82 118 146 192 248 300 352
#     4   9  17  32  55  76 101 144 195 233 287 354
#     4  10  24  40  64  88 122 164 204 248 310 370
#     4  10  20  34  58  83 115 151 195 247 296 353
#
# _framework density 21.501678999999999
#
# number of rings (size 3 to 8) (size 9 to 14) (size 15 to 20)
#    0.000    2.133    2.000    2.400    1.867    1.600 
#    0.000    0.667    0.000    0.000    0.000    0.000 
#    0.000    0.000    0.000    0.000    0.000    0.000 
#
# Total GULP energy -167037.224022 kJ/mol
# GULP energy per Si atom -5567.907467 kJ/mol
# Density = 2.145274 g / cm^3
# Si number density = 21.501679 Si / 1000 Ang^3
#
#
#
# Elastic Constant Matrix: (Units=GPa)
#
#
# Indices 1 2 3 4 5 6 
#
# 1 87.0355 21.3966 17.3474 0.0000 36.3539 0.0000
# 2 21.3966 79.1051 -0.0580 0.0000 10.3347 0.0000
# 3 17.3474 -0.0580 61.7540 0.0000 25.5134 0.0000
# 4 0.0000 0.0000 0.0000 17.2727 0.0000 6.0347
# 5 36.3539 10.3347 25.5134 0.0000 34.1424 0.0000
# 6 0.0000 0.0000 0.0000 6.0347 0.0000 25.3106
#
#
#
# Elastic Compliance Matrix: (Units=1/GPa)
#
#
# Indices 1 2 3 4 5 6 
#
# 1 0.022185 -0.002560 0.004636 0.000000 -0.026311 0.000000
# 2 -0.002560 0.013708 0.001910 0.000000 -0.002851 0.000000
# 3 0.004636 0.001910 0.024840 0.000000 -0.024076 0.000000
# 4 0.000000 0.000000 0.000000 0.063156 0.000000 -0.015058
# 5 -0.026311 -0.002851 -0.024076 0.000000 0.076159 0.000000
# 6 0.000000 0.000000 0.000000 -0.015058 0.000000 0.043099
#
#
# Mechanical properties :
#
#
# Convention : Reuss Voigt Hill
#
# Bulk Modulus (GPa) = 14.55519 33.91852 24.23685
# Shear Modulus (GPa) = 19.37416 27.95904 23.66660
#
# Velocity S-wave (km/s) = 3.00501 3.60991 3.32126
# Velocity P-wave (km/s) = 4.33868 5.76058 5.09943
#
# Compressibility (1/GPa) = 0.06870402
#
# Stress axis : x y z
#
# Youngs Moduli (GPa) = 45.07590 72.95214 40.25805
#
# Poissons Ratio (x) = 0.18674 -0.18664
# Poissons Ratio (y) = 0.11538 -0.07688
# Poissons Ratio (z) = -0.20897 -0.13932
#
# Static dielectric constant tensor:
#      x y z
#    x 1.885240 0.000000 0.043680 
#    y 0.000000 1.807130 0.000000 
#    z 0.043680 0.000000 1.873150 
# 
# From -- ./inp_files/210607.got.cif
#   From: 2010.05.17/outbox.cif.g08.bks.cpg/sg15_106_cif.got.tgz:210607.got - 2010.06.03 18:47:42.
