data_PCOD9262384
_publ_section_title
;
Structure prediction by ZEFSAII (Michael W. Deem and Ramdas Pophale) SiO2 
 PCOD9262384
Probable space group: C 2/C
;
_chemical_formula_sum "Si O2"
_cell_formula_units_Z 64
_cell_length_a 12.753331
_cell_length_b 29.423401
_cell_length_c 14.626335
_cell_angle_alpha 90.000000
_cell_angle_beta 142.770725
_cell_angle_gamma 90.000000
_cell_volume 3320.562918
_symmetry_space_group_name_H-M "C 2/C"
_symmetry_group_IT_number 15
_symmetry_cell_setting 'monoclinic'
loop_
_space_group_symop_operation_xyz
x,y,z
-x,y,1/2-z
-x,-y,-z
x,-y,1/2+z
1/2+x,1/2+y,z
1/2-x,1/2+y,1/2-z
1/2-x,1/2-y,-z
1/2+x,1/2-y,1/2+z
loop_
_atom_site_type_symbol
_atom_site_label
_atom_site_fract_x
_atom_site_fract_y
_atom_site_fract_z
Si Si1 0.122250 0.360991 0.013048
Si Si2 0.345358 0.673115 0.836951
Si Si3 0.697639 0.185063 0.108792
Si Si4 0.489448 0.946982 0.474064
Si Si5 0.699661 0.407430 0.904942
Si Si6 0.174028 0.596730 0.822351
Si Si7 0.147007 0.797449 0.431748
Si Si8 0.948856 0.255333 0.319596
O O1 0.263127 0.350598 0.189981
O O2 0.083735 0.414563 0.995959
O O3 0.213874 0.337585 0.990442
O O4 0.945713 0.334809 0.920643
O O5 0.311111 0.635158 0.889295
O O6 0.534459 0.691747 0.943793
O O7 0.212299 0.713336 0.764413
O O8 0.743305 0.145266 0.068967
O O9 0.873066 0.204447 0.275130
O O10 0.605264 0.226170 0.989737
O O11 0.685504 0.931994 0.590740
O O12 0.387273 0.931596 0.309305
O O13 0.500000 0.000000 0.500000
O O14 0.500000 0.410995 0.750000
O O15 0.744614 0.428530 0.034847
O O16 0.000000 0.616878 0.750000
O O17 0.250000 0.750000 0.500000
O O18 0.000000 0.794888 0.250000
O O19 0.000000 0.261482 0.250000
#
# Coordination Sequence:
#
# PCOD9262384 Si02
#       8
#     8   8   8   8   8   8   8   8
#     4   8  17  33  51  73 101 135 178 226 276 331
#     4   9  17  29  49  72  98 138 185 225 265 319
#     4  10  20  31  46  71 105 142 183 224 268 325
#     4   9  18  36  62  85 105 138 181 225 282 349
#     4  10  20  36  55  81 113 146 177 220 280 338
#     4   9  17  34  58  80 107 142 177 215 274 342
#     4  10  19  33  50  70 102 146 191 229 266 315
#     4  11  19  28  42  68 100 135 177 224 266 309
#
# _framework density 19.273841999999998
#
# number of rings (size 3 to 8) (size 9 to 14) (size 15 to 20)
#    0.000    2.500    0.000    4.875    0.000    1.000 
#    0.000    6.250    0.000    5.250    0.000    0.000 
#    0.000    0.000    0.000    0.000    0.000    0.000 
#
# Total GULP energy -178222.584172 kJ/mol
# GULP energy per Si atom -5569.455755 kJ/mol
# Density = 1.922997 g / cm^3
# Si number density = 19.273842 Si / 1000 Ang^3
#
#
#
# Elastic Constant Matrix: (Units=GPa)
#
#
# Indices 1 2 3 4 5 6 
#
# 1 105.4191 39.5234 34.8571 0.0000 21.8716 0.0000
# 2 39.5234 118.1846 34.1314 0.0000 12.8376 0.0000
# 3 34.8571 34.1314 59.1093 0.0000 21.9833 0.0000
# 4 0.0000 0.0000 0.0000 13.7031 0.0000 3.0796
# 5 21.8716 12.8376 21.9833 0.0000 20.7322 0.0000
# 6 0.0000 0.0000 0.0000 3.0796 0.0000 9.3582
#
#
#
# Elastic Compliance Matrix: (Units=1/GPa)
#
#
# Indices 1 2 3 4 5 6 
#
# 1 0.013375 -0.002621 -0.002856 0.000000 -0.009459 0.000000
# 2 -0.002621 0.010668 -0.005261 0.000000 0.001737 0.000000
# 3 -0.002856 -0.005261 0.031880 0.000000 -0.027532 0.000000
# 4 0.000000 0.000000 0.000000 0.078804 0.000000 -0.025933
# 5 -0.009459 0.001737 -0.027532 0.000000 0.086331 0.000000
# 6 0.000000 0.000000 0.000000 -0.025933 0.000000 0.115392
#
#
# Mechanical properties :
#
#
# Convention : Reuss Voigt Hill
#
# Bulk Modulus (GPa) = 29.02965 55.52632 42.27798
# Shear Modulus (GPa) = 13.53513 20.37211 16.95362
#
# Velocity S-wave (km/s) = 2.65288 3.25465 2.96905
# Velocity P-wave (km/s) = 4.94753 6.55709 5.80833
#
# Compressibility (1/GPa) = 0.03444754
#
# Stress axis : x y z
#
# Youngs Moduli (GPa) = 74.76382 93.73505 31.36805
#
# Poissons Ratio (x) = 0.24564 0.08960
# Poissons Ratio (y) = 0.19593 0.16502
# Poissons Ratio (z) = 0.21356 0.49312
#
# Static dielectric constant tensor:
#      x y z
#    x 1.705610 0.000000 -0.023910 
#    y 0.000000 1.691620 0.000000 
#    z -0.023910 0.000000 1.752380 
# 
# From -- ./inp_files/149201.got.cif
#   From: 2010.05.17/outbox.cif.g08.bks.cpg/sg15_75_cif.got.tgz:149201.got - 2010.06.03 18:47:42.
