data_PCOD9262618
_publ_section_title
;
Structure prediction by ZEFSAII (Michael W. Deem and Ramdas Pophale) SiO2 
 PCOD9262618
Probable space group: C 2/C
;
_chemical_formula_sum "Si O2"
_cell_formula_units_Z 56
_cell_length_a 20.177173
_cell_length_b 20.161742
_cell_length_c 8.570440
_cell_angle_alpha 90.000000
_cell_angle_beta 118.948535
_cell_angle_gamma 90.000000
_cell_volume 3050.891438
_symmetry_space_group_name_H-M "C 2/C"
_symmetry_group_IT_number 15
_symmetry_cell_setting 'monoclinic'
loop_
_space_group_symop_operation_xyz
x,y,z
-x,y,1/2-z
-x,-y,-z
x,-y,1/2+z
1/2+x,1/2+y,z
1/2-x,1/2+y,1/2-z
1/2-x,1/2-y,-z
1/2+x,1/2-y,1/2+z
loop_
_atom_site_type_symbol
_atom_site_label
_atom_site_fract_x
_atom_site_fract_y
_atom_site_fract_z
Si Si1 0.737992 0.292437 0.831889
Si Si2 0.834957 0.622356 0.016338
Si Si3 0.178683 0.187247 0.777040
Si Si4 0.901210 0.235181 0.504273
Si Si5 0.044665 0.235558 0.461277
Si Si6 0.439953 0.011628 0.064224
Si Si7 0.131574 0.623580 0.076708
O O1 0.774981 0.253262 0.725051
O O2 0.650428 0.294749 0.692921
O O3 0.786442 0.358629 0.900736
O O4 0.750000 0.250000 0.000000
O O5 0.878818 0.688166 0.008625
O O6 0.870404 0.560812 0.964336
O O7 0.853336 0.611085 0.221223
O O8 0.745757 0.634820 0.881787
O O9 0.130064 0.198726 0.877475
O O10 0.114142 0.184559 0.570055
O O11 0.986440 0.231425 0.540260
O O12 0.080617 0.309975 0.501157
O O13 0.000000 0.225339 0.250000
O O14 0.500000 0.044142 0.250000
O O15 0.406027 0.938467 0.053340
O O16 0.500000 0.000000 0.000000
#
# Coordination Sequence:
#
# PCOD9262618 Si02
#       7
#     8   8   8   8   8   8   8
#     4  10  19  33  54  80 113 142 187 242 292 338
#     4  11  21  38  56  77 114 156 202 234 270 346
#     4  10  20  35  56  81 106 154 194 230 288 353
#     4  11  18  33  58  82 105 151 192 232 288 348
#     4  11  22  33  54  88 122 142 181 240 298 341
#     4  12  25  37  56  82 115 156 201 234 269 327
#     4  11  21  39  54  79 119 157 190 228 285 341
#
# _framework density 18.35529
#
# number of rings (size 3 to 8) (size 9 to 14) (size 15 to 20)
#    0.000    1.143    5.714    4.286    0.000    2.286 
#    0.000    0.000    0.000    0.000    0.000    1.000 
#    0.000    0.000    0.000    0.000    0.000    0.000 
#
# Total GULP energy -155955.981998 kJ/mol
# GULP energy per Si atom -5569.856500 kJ/mol
# Density = 1.831351 g / cm^3
# Si number density = 18.355290 Si / 1000 Ang^3
#
#
#
# Elastic Constant Matrix: (Units=GPa)
#
#
# Indices 1 2 3 4 5 6 
#
# 1 95.8499 35.6035 27.1327 0.0000 18.0967 0.0000
# 2 35.6035 56.7963 15.7139 0.0000 13.9143 0.0000
# 3 27.1327 15.7139 87.2401 0.0000 22.0105 0.0000
# 4 0.0000 0.0000 0.0000 15.5869 0.0000 9.7338
# 5 18.0967 13.9143 22.0105 0.0000 36.7514 0.0000
# 6 0.0000 0.0000 0.0000 9.7338 0.0000 36.2193
#
#
#
# Elastic Compliance Matrix: (Units=1/GPa)
#
#
# Indices 1 2 3 4 5 6 
#
# 1 0.014521 -0.007756 -0.002422 0.000000 -0.002763 0.000000
# 2 -0.007756 0.023830 -0.000668 0.000000 -0.004803 0.000000
# 3 -0.002422 -0.000668 0.014102 0.000000 -0.007000 0.000000
# 4 0.000000 0.000000 0.000000 0.077095 0.000000 -0.020719
# 5 -0.002763 -0.004803 -0.007000 0.000000 0.034582 0.000000
# 6 0.000000 0.000000 0.000000 -0.020719 0.000000 0.033178
#
#
# Mechanical properties :
#
#
# Convention : Reuss Voigt Hill
#
# Bulk Modulus (GPa) = 32.50833 44.08739 38.29786
# Shear Modulus (GPa) = 21.80985 28.47394 25.14189
#
# Velocity S-wave (km/s) = 3.45077 3.94288 3.70501
# Velocity P-wave (km/s) = 5.79881 6.69324 6.26202
#
# Compressibility (1/GPa) = 0.03076135
#
# Stress axis : x y z
#
# Youngs Moduli (GPa) = 68.86486 41.96371 70.90956
#
# Poissons Ratio (x) = 0.32546 0.17175
# Poissons Ratio (y) = 0.53409 0.04740
# Poissons Ratio (z) = 0.16680 0.02805
#
# Static dielectric constant tensor:
#      x y z
#    x 1.709620 0.000000 -0.022070 
#    y 0.000000 1.617840 0.000000 
#    z -0.022070 0.000000 1.718960 
# 
# From -- ./inp_files/49041.got.cif
#   From: 2010.05.17/outbox.cif.g08.bks.cpg/sg15_25_cif.got.tgz:49041.got - 2010.06.03 18:47:42.
