data_PCOD9262543
_publ_section_title
;
Structure prediction by ZEFSAII (Michael W. Deem and Ramdas Pophale) SiO2 
 PCOD9262543
Probable space group: C 2/C
;
_chemical_formula_sum "Si O2"
_cell_formula_units_Z 48
_cell_length_a 22.452915
_cell_length_b 15.605166
_cell_length_c 19.330143
_cell_angle_alpha 90.000000
_cell_angle_beta 22.445378
_cell_angle_gamma 90.000000
_cell_volume 2585.919207
_symmetry_space_group_name_H-M "C 2/C"
_symmetry_group_IT_number 15
_symmetry_cell_setting 'monoclinic'
loop_
_space_group_symop_operation_xyz
x,y,z
-x,y,1/2-z
-x,-y,-z
x,-y,1/2+z
1/2+x,1/2+y,z
1/2-x,1/2+y,1/2-z
1/2-x,1/2-y,-z
1/2+x,1/2-y,1/2+z
loop_
_atom_site_type_symbol
_atom_site_label
_atom_site_fract_x
_atom_site_fract_y
_atom_site_fract_z
Si Si1 0.297999 0.002581 0.113147
Si Si2 0.276788 0.655212 0.712460
Si Si3 0.867305 0.226746 0.313151
Si Si4 0.860462 0.957474 0.861534
Si Si5 0.849243 0.171216 0.184988
Si Si6 0.883914 0.407037 0.257506
O O1 0.209912 0.005570 0.133598
O O2 0.224731 0.077273 0.241216
O O3 0.275010 0.912381 0.174317
O O4 0.476916 0.028745 0.908770
O O5 0.205339 0.749790 0.803353
O O6 0.464145 0.663696 0.511303
O O7 0.213103 0.616390 0.707720
O O8 0.750000 0.250000 0.500000
O O9 0.936548 0.134359 0.256535
O O10 0.790750 0.205590 0.322222
O O11 0.955954 0.315651 0.205773
O O12 0.000000 0.006792 0.750000
O O13 0.725453 0.940337 0.062942
#
# Coordination Sequence:
#
# PCOD9262543 Si02
#       6
#     8   8   8   8   8   8
#     4  11  22  36  56  85 115 151 193 234 281 343
#     4  11  22  37  57  84 114 151 193 236 285 342
#     4   8  16  28  47  75 109 142 171 207 269 347
#     4  10  20  33  51  80 116 152 184 226 284 348
#     4  10  20  35  53  79 116 150 186 232 282 339
#     4  10  19  33  53  81 114 148 183 227 282 347
#
# _framework density 18.562063999999999
#
# number of rings (size 3 to 8) (size 9 to 14) (size 15 to 20)
#    0.000    2.000    0.000    5.500    0.000    6.667 
#    0.000    0.000    0.000    0.000    0.000   16.333 
#    0.000    0.000    0.000    0.000    0.000    0.000 
#
# Total GULP energy -133723.066038 kJ/mol
# GULP energy per Si atom -5571.794418 kJ/mol
# Density = 1.851982 g / cm^3
# Si number density = 18.562064 Si / 1000 Ang^3
#
#
#
# Elastic Constant Matrix: (Units=GPa)
#
#
# Indices 1 2 3 4 5 6 
#
# 1 65.8122 33.6456 32.7139 0.0017 0.6351 -0.0006
# 2 33.6456 73.7127 47.4412 0.0049 -2.7620 -0.0030
# 3 32.7139 47.4412 126.2425 0.0032 -11.2969 -0.0018
# 4 0.0017 0.0049 0.0032 20.6096 -0.0018 6.9616
# 5 0.6351 -2.7620 -11.2969 -0.0018 17.5672 0.0011
# 6 -0.0006 -0.0030 -0.0018 6.9616 0.0011 17.3489
#
#
#
# Elastic Compliance Matrix: (Units=1/GPa)
#
#
# Indices 1 2 3 4 5 6 
#
# 1 0.020562 -0.007757 -0.002747 0.000001 -0.003730 -0.000001
# 2 -0.007757 0.020863 -0.005848 -0.000005 -0.000200 0.000005
# 3 -0.002747 -0.005848 0.011414 0.000001 0.006520 -0.000001
# 4 0.000001 -0.000005 0.000001 0.056129 0.000007 -0.022523
# 5 -0.003730 -0.000200 0.006520 0.000007 0.061221 -0.000006
# 6 -0.000001 0.000005 -0.000001 -0.022523 -0.000006 0.066678
#
#
# Mechanical properties :
#
#
# Convention : Reuss Voigt Hill
#
# Bulk Modulus (GPa) = 49.66468 54.81877 52.24173
# Shear Modulus (GPa) = 18.09743 21.23627 19.66685
#
# Velocity S-wave (km/s) = 3.12584 3.38608 3.25856
# Velocity P-wave (km/s) = 6.31204 6.69956 6.50869
#
# Compressibility (1/GPa) = 0.02013503
#
# Stress axis : x y z
#
# Youngs Moduli (GPa) = 48.63357 47.93146 87.61026
#
# Poissons Ratio (x) = 0.37181 0.24066
# Poissons Ratio (y) = 0.37726 0.51234
# Poissons Ratio (z) = 0.13360 0.28030
#
# Static dielectric constant tensor:
#      x y z
#    x 1.707680 0.000000 -0.033620 
#    y 0.000000 1.670190 0.000000 
#    z -0.033620 0.000000 1.657210 
# 
# From -- ./inp_files/211329.got.cif
#   From: 2010.05.17/outbox.cif.g08.bks.cpg/sg15_106_cif.got.tgz:211329.got - 2010.06.03 18:47:42.
