data_PCOD9262791
_publ_section_title
;
Structure prediction by ZEFSAII (Michael W. Deem and Ramdas Pophale) SiO2 
 PCOD9262791
Probable space group: C 2/C
;
_chemical_formula_sum "Si O2"
_cell_formula_units_Z 24
_cell_length_a 12.825019
_cell_length_b 8.707694
_cell_length_c 17.871714
_cell_angle_alpha 90.000000
_cell_angle_beta 25.472888
_cell_angle_gamma 90.000000
_cell_volume 858.382033
_symmetry_space_group_name_H-M "C 2/C"
_symmetry_group_IT_number 15
_symmetry_cell_setting 'monoclinic'
loop_
_space_group_symop_operation_xyz
x,y,z
-x,y,1/2-z
-x,-y,-z
x,-y,1/2+z
1/2+x,1/2+y,z
1/2-x,1/2+y,1/2-z
1/2-x,1/2-y,-z
1/2+x,1/2-y,1/2+z
loop_
_atom_site_type_symbol
_atom_site_label
_atom_site_fract_x
_atom_site_fract_y
_atom_site_fract_z
Si Si1 0.245739 0.570974 0.436574
Si Si2 0.278573 0.585665 0.067779
Si Si3 0.765609 0.298836 0.181738
O O1 0.500000 0.649438 0.250000
O O2 0.254579 0.540210 0.519498
O O3 0.241869 0.418850 0.384397
O O4 0.997361 0.653260 0.578742
O O5 0.314821 0.617192 0.132481
O O6 0.000000 0.650141 0.250000
O O7 0.509688 0.680042 0.887456
#
# Coordination Sequence:
#
# PCOD9262791 Si02
#       3
#     8   8   8
#     4   9  19  35  54  80 113 146 185 233 281 333
#     4  11  20  34  56  82 112 147 188 232 280 336
#     4  10  19  33  56  81 110 149 186 229 284 334
#
# _framework density 27.959578
#
# number of rings (size 3 to 8) (size 9 to 14) (size 15 to 20)
#    0.000    2.000    0.000    7.000    0.000    1.333 
#    0.000    5.000    0.000    0.000    0.000    0.000 
#    0.000    0.000    0.000    0.000    0.000    0.000 
#
# Total GULP energy -66855.198336 kJ/mol
# GULP energy per Si atom -5571.266528 kJ/mol
# Density = 2.789594 g / cm^3
# Si number density = 27.959578 Si / 1000 Ang^3
#
#
#
# Elastic Constant Matrix: (Units=GPa)
#
#
# Indices 1 2 3 4 5 6 
#
# 1 116.6146 30.0205 57.6162 -0.0173 -4.9268 -0.0077
# 2 30.0205 49.6246 68.8249 -0.0272 -0.1877 -0.0109
# 3 57.6162 68.8249 230.0256 -0.0419 -29.3572 -0.0003
# 4 -0.0173 -0.0272 -0.0419 5.9278 0.0149 16.8769
# 5 -4.9268 -0.1877 -29.3572 0.0149 26.5110 0.0012
# 6 -0.0077 -0.0109 -0.0003 16.8769 0.0012 24.8873
#
#
#
# Elastic Compliance Matrix: (Units=1/GPa)
#
#
# Indices 1 2 3 4 5 6 
#
# 1 0.010366 -0.004770 -0.001080 0.000004 0.000696 -0.000002
# 2 -0.004770 0.040976 -0.012975 -0.000077 -0.014965 0.000069
# 3 -0.001080 -0.012975 0.009856 0.000002 0.010621 -0.000008
# 4 0.000004 -0.000077 0.000002 -0.181259 0.000099 0.122917
# 5 0.000696 -0.014965 0.010621 0.000099 0.049505 -0.000075
# 6 -0.000002 0.000069 -0.000008 0.122917 -0.000075 -0.043173
#
#
# Mechanical properties :
#
#
# Convention : Reuss Voigt Hill
#
# Bulk Modulus (GPa) = 42.46918 78.79868 60.63393
# Shear Modulus (GPa) = -73.28393 27.45210 -22.91592
#
# Velocity S-wave (km/s) = -5.12519 3.13685 -2.86599
# Velocity P-wave (km/s) = 4.44983 6.43149 3.28352
#
# Compressibility (1/GPa) = 0.02354649
#
# Stress axis : x y z
#
# Youngs Moduli (GPa) = 96.46479 24.40461 101.46301
#
# Poissons Ratio (x) = 0.11641 0.10963
# Poissons Ratio (y) = 0.46014 1.31651
# Poissons Ratio (z) = 0.10423 0.31666
#
# Static dielectric constant tensor:
#      x y z
#    x 2.337370 0.000010 -0.002510 
#    y 0.000010 2.348140 0.000010 
#    z -0.002510 0.000010 2.044180 
# 
# From -- ./inp_files/27069.got.cif
#   From: 2010.05.17/outbox.cif.g08.bks.cpg/sg15_14_cif.got.tgz:27069.got - 2010.06.03 18:47:42.
