data_PCOD9262316
_publ_section_title
;
Structure prediction by ZEFSAII (Michael W. Deem and Ramdas Pophale) SiO2 
 PCOD9262316
Probable space group: C 2/C
;
_chemical_formula_sum "Si O2"
_cell_formula_units_Z 56
_cell_length_a 10.818234
_cell_length_b 14.984194
_cell_length_c 17.068507
_cell_angle_alpha 90.000000
_cell_angle_beta 56.722460
_cell_angle_gamma 90.000000
_cell_volume 2313.147177
_symmetry_space_group_name_H-M "C 2/C"
_symmetry_group_IT_number 15
_symmetry_cell_setting 'monoclinic'
loop_
_space_group_symop_operation_xyz
x,y,z
-x,y,1/2-z
-x,-y,-z
x,-y,1/2+z
1/2+x,1/2+y,z
1/2-x,1/2+y,1/2-z
1/2-x,1/2-y,-z
1/2+x,1/2-y,1/2+z
loop_
_atom_site_type_symbol
_atom_site_label
_atom_site_fract_x
_atom_site_fract_y
_atom_site_fract_z
Si Si1 0.759526 0.144844 0.015600
Si Si2 0.687550 0.367924 0.815055
Si Si3 0.438136 0.338418 0.136341
Si Si4 0.342036 0.841771 0.488249
Si Si5 0.935793 0.635373 0.128990
Si Si6 0.923172 0.079984 0.481536
Si Si7 0.387723 0.171807 0.715192
O O1 0.782095 0.138796 0.102117
O O2 0.600310 0.102224 0.055695
O O3 0.750000 0.250000 0.000000
O O4 0.900102 0.115164 0.912672
O O5 0.828245 0.413948 0.726620
O O6 0.524995 0.409396 0.870601
O O7 0.659777 0.274732 0.780751
O O8 0.456287 0.236163 0.156988
O O9 0.276313 0.372987 0.219677
O O10 0.428925 0.340731 0.044474
O O11 0.250000 0.750000 0.500000
O O12 0.351568 0.855218 0.576901
O O13 0.245407 0.920557 0.483384
O O14 0.506123 0.845149 0.395578
O O15 0.000000 0.000000 0.500000
O O16 0.500000 0.160430 0.750000
#
# Coordination Sequence:
#
# PCOD9262316 Si02
#       7
#     8   8   8   8   8   8   8
#     4   9  17  32  50  83 125 156 192 249 325 385
#     4  10  20  32  55  90 118 157 211 259 323 383
#     4   9  18  33  53  85 120 155 203 255 319 377
#     4  12  19  35  59  94 127 153 211 285 327 372
#     4  10  19  32  59  91 116 156 207 276 319 369
#     4  11  22  36  56  85 126 169 197 252 339 408
#     4  11  18  30  59  94 123 151 210 287 333 367
#
# _framework density 24.209441999999999
#
# number of rings (size 3 to 8) (size 9 to 14) (size 15 to 20)
#    0.000    1.714    4.286    3.000    0.000    0.000 
#    0.000    2.143   12.571    3.429   52.000    0.000 
#    0.000    0.000    0.000    0.000    0.000    0.000 
#
# Total GULP energy -155880.241210 kJ/mol
# GULP energy per Si atom -5567.151472 kJ/mol
# Density = 2.415434 g / cm^3
# Si number density = 24.209442 Si / 1000 Ang^3
#
#
#
# Elastic Constant Matrix: (Units=GPa)
#
#
# Indices 1 2 3 4 5 6 
#
# 1 78.2667 7.9516 48.5535 0.0000 -41.9311 0.0000
# 2 7.9516 40.4005 9.9411 0.0000 -12.8266 0.0000
# 3 48.5535 9.9411 180.7480 0.0000 -61.1527 0.0000
# 4 0.0000 0.0000 0.0000 4.9767 0.0000 -4.0509
# 5 -41.9311 -12.8266 -61.1527 0.0000 68.8835 0.0000
# 6 0.0000 0.0000 0.0000 -4.0509 0.0000 27.5327
#
#
#
# Elastic Compliance Matrix: (Units=1/GPa)
#
#
# Indices 1 2 3 4 5 6 
#
# 1 0.019333 -0.000139 -0.001733 0.000000 0.010204 0.000000
# 2 -0.000139 0.026320 0.000313 0.000000 0.005095 0.000000
# 3 -0.001733 0.000313 0.008067 0.000000 0.006164 0.000000
# 4 0.000000 0.000000 0.000000 0.228272 0.000000 0.033586
# 5 0.010204 0.005095 0.006164 0.000000 0.027150 0.000000
# 6 0.000000 0.000000 0.000000 0.033586 0.000000 0.041262
#
#
# Mechanical properties :
#
#
# Convention : Reuss Voigt Hill
#
# Bulk Modulus (GPa) = 19.76240 48.03416 33.89828
# Shear Modulus (GPa) = 13.49935 35.80986 24.65461
#
# Velocity S-wave (km/s) = 2.36393 3.85017 3.19468
# Velocity P-wave (km/s) = 3.95370 6.29676 5.25742
#
# Compressibility (1/GPa) = 0.05060115
#
# Stress axis : x y z
#
# Youngs Moduli (GPa) = 51.72537 37.99414 123.96791
#
# Poissons Ratio (x) = 0.00528 0.21489
# Poissons Ratio (y) = 0.00719 -0.03885
# Poissons Ratio (z) = 0.08966 -0.01191
#
# Static dielectric constant tensor:
#      x y z
#    x 2.003930 0.000000 -0.126830 
#    y 0.000000 2.074530 0.000000 
#    z -0.126830 0.000000 2.131760 
# 
# From -- ./inp_files/199460.got.cif
#   From: 2010.05.17/outbox.cif.g08.bks.cpg/sg15_100_cif.got.tgz:199460.got - 2010.06.03 18:47:42.
