data_PCOD9262377
_publ_section_title
;
Structure prediction by ZEFSAII (Michael W. Deem and Ramdas Pophale) SiO2 
 PCOD9262377
Probable space group: C 2/C
;
_chemical_formula_sum "Si O2"
_cell_formula_units_Z 36
_cell_length_a 13.462599
_cell_length_b 4.763608
_cell_length_c 24.972185
_cell_angle_alpha 90.000000
_cell_angle_beta 120.277045
_cell_angle_gamma 90.000000
_cell_volume 1383.034151
_symmetry_space_group_name_H-M "C 2/C"
_symmetry_group_IT_number 15
_symmetry_cell_setting 'monoclinic'
loop_
_space_group_symop_operation_xyz
x,y,z
-x,y,1/2-z
-x,-y,-z
x,-y,1/2+z
1/2+x,1/2+y,z
1/2-x,1/2+y,1/2-z
1/2-x,1/2-y,-z
1/2+x,1/2-y,1/2+z
loop_
_atom_site_type_symbol
_atom_site_label
_atom_site_fract_x
_atom_site_fract_y
_atom_site_fract_z
Si Si1 0.897721 0.683003 0.422865
Si Si2 0.450609 0.693068 0.167229
Si Si3 0.500000 0.766045 0.750000
Si Si4 0.694855 0.402116 0.207043
Si Si5 0.941373 0.183684 0.049113
O O1 0.941298 0.372538 0.421034
O O2 0.871077 0.721087 0.478017
O O3 0.807960 0.797214 0.354873
O O4 0.014222 0.867964 0.446802
O O5 0.410167 0.474106 0.201601
O O6 0.571669 0.541324 0.184425
O O7 0.388665 0.714420 0.093490
O O8 0.475894 0.998377 0.197276
O O9 0.713705 0.136282 0.251114
#
# Coordination Sequence:
#
# PCOD9262377 Si02
#       5
#     8   8   4   8   8
#     4   9  17  28  45  72  98 128 154 189 253 297
#     4  10  19  33  49  74  97 127 166 203 245 281
#     4  10  20  32  50  70  96 128 170 210 238 272
#     4  11  20  31  49  75 107 132 152 190 247 314
#     4   9  16  29  48  68  98 122 157 209 242 284
#
# _framework density 26.029727000000001
#
# number of rings (size 3 to 8) (size 9 to 14) (size 15 to 20)
#    0.000    2.222    0.000    6.667    0.000    0.000 
#    0.000    0.000    0.000    0.000    0.000   31.111 
#    0.000    0.000    0.000    0.000    0.000    0.000 
#
# Total GULP energy -100406.685575 kJ/mol
# GULP energy per Si atom -5578.149199 kJ/mol
# Density = 2.597048 g / cm^3
# Si number density = 26.029727 Si / 1000 Ang^3
#
#
#
# Elastic Constant Matrix: (Units=GPa)
#
#
# Indices 1 2 3 4 5 6 
#
# 1 43.6071 23.4118 39.8924 0.0000 10.3045 0.0000
# 2 23.4118 166.7115 61.2582 0.0000 3.4965 0.0000
# 3 39.8924 61.2582 274.8632 0.0000 -43.2025 0.0000
# 4 0.0000 0.0000 0.0000 39.1384 0.0000 0.7390
# 5 10.3045 3.4965 -43.2025 0.0000 37.0943 0.0000
# 6 0.0000 0.0000 0.0000 0.7390 0.0000 17.8755
#
#
#
# Elastic Compliance Matrix: (Units=1/GPa)
#
#
# Indices 1 2 3 4 5 6 
#
# 1 0.035229 -0.001755 -0.007631 0.000000 -0.018508 0.000000
# 2 -0.001755 0.006873 -0.001594 0.000000 -0.002017 0.000000
# 3 -0.007631 -0.001594 0.006681 0.000000 0.010051 0.000000
# 4 0.000000 0.000000 0.000000 0.025570 0.000000 -0.001057
# 5 -0.018508 -0.002017 0.010051 0.000000 0.043996 0.000000
# 6 0.000000 0.000000 0.000000 -0.001057 0.000000 0.055986
#
#
# Mechanical properties :
#
#
# Convention : Reuss Voigt Hill
#
# Bulk Modulus (GPa) = 37.28243 81.58962 59.43603
# Shear Modulus (GPa) = 24.36229 42.86295 33.61262
#
# Velocity S-wave (km/s) = 3.06263 4.06235 3.59739
# Velocity P-wave (km/s) = 5.18270 7.30865 6.33549
#
# Compressibility (1/GPa) = 0.02682229
#
# Stress axis : x y z
#
# Youngs Moduli (GPa) = 28.38596 145.49944 149.68471
#
# Poissons Ratio (x) = 0.25537 1.14222
# Poissons Ratio (y) = 0.04982 0.23860
# Poissons Ratio (z) = 0.21661 0.23193
#
# Static dielectric constant tensor:
#      x y z
#    x 2.683850 0.000000 -0.243280 
#    y 0.000000 1.939090 0.000000 
#    z -0.243280 0.000000 2.212450 
# 
# From -- ./inp_files/278425.got.cif
#   From: 2010.05.17/outbox.cif.g08.bks.cpg/sg15_140_cif.got.tgz:278425.got - 2010.06.03 18:47:42.
