data_PCOD9262365
_publ_section_title
;
Structure prediction by ZEFSAII (Michael W. Deem and Ramdas Pophale) SiO2 
 PCOD9262365
Probable space group: C 2/C
;
_chemical_formula_sum "Si O2"
_cell_formula_units_Z 32
_cell_length_a 10.874924
_cell_length_b 30.023336
_cell_length_c 5.157978
_cell_angle_alpha 90.000000
_cell_angle_beta 68.205971
_cell_angle_gamma 90.000000
_cell_volume 1563.716580
_symmetry_space_group_name_H-M "C 2/C"
_symmetry_group_IT_number 15
_symmetry_cell_setting 'monoclinic'
loop_
_space_group_symop_operation_xyz
x,y,z
-x,y,1/2-z
-x,-y,-z
x,-y,1/2+z
1/2+x,1/2+y,z
1/2-x,1/2+y,1/2-z
1/2-x,1/2-y,-z
1/2+x,1/2-y,1/2+z
loop_
_atom_site_type_symbol
_atom_site_label
_atom_site_fract_x
_atom_site_fract_y
_atom_site_fract_z
Si Si1 0.848572 0.018458 0.578146
Si Si2 0.781307 0.173416 0.026894
Si Si3 0.149320 0.121925 0.044932
Si Si4 0.631005 0.758911 0.301948
O O1 0.841631 0.068718 0.486568
O O2 0.786480 0.012735 0.908233
O O3 0.000000 0.000000 0.500000
O O4 0.829071 0.142650 0.754661
O O5 0.666868 0.203345 0.983406
O O6 0.759302 0.143981 0.302883
O O7 0.881847 0.212055 0.039836
O O8 0.000000 0.131552 0.250000
O O9 0.500000 0.770192 0.250000
O O10 0.750000 0.750000 0.000000
#
# Coordination Sequence:
#
# PCOD9262365 Si02
#       4
#     8   8   8   8
#     4  10  19  33  48  80 121 179 192 249 327 382
#     4  11  25  38  59  90 116 171 209 266 309 382
#     4  12  22  34  58  86 130 165 217 254 315 399
#     4  11  25  46  64  90 129 169 218 267 332 374
#
# _framework density 20.464068000000001
#
# number of rings (size 3 to 8) (size 9 to 14) (size 15 to 20)
#    0.000    1.000    5.000    3.000    7.000    3.000 
#    0.000    0.000    0.000    0.000    0.000    0.000 
#    0.000   20.000    0.000    0.000    0.000    0.000 
#
# Total GULP energy -89297.539359 kJ/mol
# GULP energy per Si atom -5581.096210 kJ/mol
# Density = 2.041749 g / cm^3
# Si number density = 20.464068 Si / 1000 Ang^3
#
#
#
# Elastic Constant Matrix: (Units=GPa)
#
#
# Indices 1 2 3 4 5 6 
#
# 1 50.5824 33.0136 24.3037 0.0000 22.9226 0.0000
# 2 33.0136 150.9443 46.9941 0.0000 28.3128 0.0000
# 3 24.3037 46.9941 145.6045 0.0000 34.8158 0.0000
# 4 0.0000 0.0000 0.0000 48.3083 0.0000 10.5571
# 5 22.9226 28.3128 34.8158 0.0000 36.7282 0.0000
# 6 0.0000 0.0000 0.0000 10.5571 0.0000 14.9646
#
#
#
# Elastic Compliance Matrix: (Units=1/GPa)
#
#
# Indices 1 2 3 4 5 6 
#
# 1 0.029025 -0.003442 -0.000048 0.000000 -0.015417 0.000000
# 2 -0.003442 0.008376 -0.001421 0.000000 -0.002962 0.000000
# 3 -0.000048 -0.001421 0.009136 0.000000 -0.007536 0.000000
# 4 0.000000 0.000000 0.000000 0.024473 0.000000 -0.017265
# 5 -0.015417 -0.002962 -0.007536 0.000000 0.046276 0.000000
# 6 0.000000 0.000000 0.000000 -0.017265 0.000000 0.079005
#
#
# Mechanical properties :
#
#
# Convention : Reuss Voigt Hill
#
# Bulk Modulus (GPa) = 27.23496 61.75045 44.49271
# Shear Modulus (GPa) = 22.89907 36.18822 29.54364
#
# Velocity S-wave (km/s) = 3.34876 4.20977 3.80371
# Velocity P-wave (km/s) = 5.31882 7.33963 6.40937
#
# Compressibility (1/GPa) = 0.03671752
#
# Stress axis : x y z
#
# Youngs Moduli (GPa) = 34.45264 119.39547 109.45429
#
# Poissons Ratio (x) = 0.41092 0.00521
# Poissons Ratio (y) = 0.11857 0.15548
# Poissons Ratio (z) = 0.00164 0.16960
#
# Static dielectric constant tensor:
#      x y z
#    x -0.053240 0.000000 1.968560 
#    y 0.000000 1.744210 0.000000 
#    z 1.968560 0.000000 -0.330330 
# 
# From -- ./inp_files/2654.got.cif
#   From: 2010.05.17/outbox.cif.g08.bks.cpg/sg15_2_cif.got.tgz:2654.got - 2010.06.03 18:47:42.
