data_PCOD9262680
_publ_section_title
;
Structure prediction by ZEFSAII (Michael W. Deem and Ramdas Pophale) SiO2 
 PCOD9262680
Probable space group: C 2/C
;
_chemical_formula_sum "Si O2"
_cell_formula_units_Z 48
_cell_length_a 8.216871
_cell_length_b 21.211282
_cell_length_c 15.191137
_cell_angle_alpha 90.000000
_cell_angle_beta 61.546973
_cell_angle_gamma 90.000000
_cell_volume 2327.851662
_symmetry_space_group_name_H-M "C 2/C"
_symmetry_group_IT_number 15
_symmetry_cell_setting 'monoclinic'
loop_
_space_group_symop_operation_xyz
x,y,z
-x,y,1/2-z
-x,-y,-z
x,-y,1/2+z
1/2+x,1/2+y,z
1/2-x,1/2+y,1/2-z
1/2-x,1/2-y,-z
1/2+x,1/2-y,1/2+z
loop_
_atom_site_type_symbol
_atom_site_label
_atom_site_fract_x
_atom_site_fract_y
_atom_site_fract_z
Si Si1 0.407677 0.430111 0.179416
Si Si2 0.193311 0.215638 0.811637
Si Si3 0.905887 0.302814 0.946752
Si Si4 0.962481 0.546020 0.640830
Si Si5 0.726447 0.941677 0.504494
Si Si6 0.542549 0.811849 0.107588
O O1 0.500000 0.443727 0.250000
O O2 0.394969 0.353899 0.175077
O O3 0.202474 0.459146 0.244977
O O4 0.553809 0.451524 0.067580
O O5 0.287785 0.218257 0.883982
O O6 0.357240 0.216905 0.698662
O O7 0.049344 0.272171 0.841705
O O8 0.816831 0.370800 0.951396
O O9 0.014944 0.309458 0.011138
O O10 0.750000 0.250000 0.000000
O O11 0.861539 0.551803 0.571142
O O12 0.113306 0.491567 0.591442
O O13 0.051762 0.614508 0.630964
#
# Coordination Sequence:
#
# PCOD9262680 Si02
#       6
#     8   8   8   8   8   8
#     4   9  16  29  53  80 100 137 186 224 262 324
#     4  10  19  33  55  77 105 145 180 221 269 319
#     4  11  20  31  56  83 111 140 176 222 272 329
#     4   8  16  30  53  72 102 135 177 222 260 313
#     4   9  16  30  50  80 102 134 175 221 268 313
#     4   9  20  35  53  77 104 145 184 221 262 322
#
# _framework density 20.619869000000001
#
# number of rings (size 3 to 8) (size 9 to 14) (size 15 to 20)
#    0.000    2.667    1.667    1.500    0.000    0.000 
#    0.000    0.833   29.333    6.000    0.000    0.000 
#    0.000    0.000    0.000    0.000    0.000    0.000 
#
# Total GULP energy -133835.036066 kJ/mol
# GULP energy per Si atom -5576.459836 kJ/mol
# Density = 2.057294 g / cm^3
# Si number density = 20.619869 Si / 1000 Ang^3
#
#
#
# Elastic Constant Matrix: (Units=GPa)
#
#
# Indices 1 2 3 4 5 6 
#
# 1 32.8725 26.9098 34.4797 0.0000 -8.1747 0.0000
# 2 26.9098 118.8956 89.6749 0.0000 -38.4183 0.0000
# 3 34.4797 89.6749 110.3541 0.0000 -36.8201 0.0000
# 4 0.0000 0.0000 0.0000 35.2351 0.0000 -2.4581
# 5 -8.1747 -38.4183 -36.8201 0.0000 48.4671 0.0000
# 6 0.0000 0.0000 0.0000 -2.4581 0.0000 25.0447
#
#
#
# Elastic Compliance Matrix: (Units=1/GPa)
#
#
# Indices 1 2 3 4 5 6 
#
# 1 0.045891 0.000341 -0.015998 0.000000 -0.004143 0.000000
# 2 0.000341 0.022715 -0.016795 0.000000 0.005304 0.000000
# 3 -0.015998 -0.016795 0.029960 0.000000 0.006749 0.000000
# 4 0.000000 0.000000 0.000000 0.028576 0.000000 0.002805
# 5 -0.004143 0.005304 0.006749 0.000000 0.029265 0.000000
# 6 0.000000 0.000000 0.000000 0.002805 0.000000 0.040204
#
#
# Mechanical properties :
#
#
# Convention : Reuss Voigt Hill
#
# Bulk Modulus (GPa) = 29.70746 62.69456 46.20101
# Shear Modulus (GPa) = 18.33273 29.15324 23.74299
#
# Velocity S-wave (km/s) = 2.98498 3.76419 3.39700
# Velocity P-wave (km/s) = 5.13017 7.02589 6.15149
#
# Compressibility (1/GPa) = 0.03366158
#
# Stress axis : x y z
#
# Youngs Moduli (GPa) = 21.79068 44.02407 33.37791
#
# Poissons Ratio (x) = -0.01500 0.53397
# Poissons Ratio (y) = -0.00742 0.56059
# Poissons Ratio (z) = 0.34860 0.73939
#
# Static dielectric constant tensor:
#      x y z
#    x 1.791090 0.000000 -0.009380 
#    y 0.000000 1.696830 0.000000 
#    z -0.009380 0.000000 1.757870 
# 
# From -- ./inp_files/191972.got.cif
#   From: 2010.05.17/outbox.cif.g08.bks.cpg/sg15_96_cif.got.tgz:191972.got - 2010.06.03 18:47:42.
