data_PCOD9262307
_publ_section_title
;
Structure prediction by ZEFSAII (Michael W. Deem and Ramdas Pophale) SiO2 
 PCOD9262307
Probable space group: C 2/C
;
_chemical_formula_sum "Si O2"
_cell_formula_units_Z 48
_cell_length_a 16.062924
_cell_length_b 21.549577
_cell_length_c 8.140244
_cell_angle_alpha 90.000000
_cell_angle_beta 51.264212
_cell_angle_gamma 90.000000
_cell_volume 2197.948404
_symmetry_space_group_name_H-M "C 2/C"
_symmetry_group_IT_number 15
_symmetry_cell_setting 'monoclinic'
loop_
_space_group_symop_operation_xyz
x,y,z
-x,y,1/2-z
-x,-y,-z
x,-y,1/2+z
1/2+x,1/2+y,z
1/2-x,1/2+y,1/2-z
1/2-x,1/2-y,-z
1/2+x,1/2-y,1/2+z
loop_
_atom_site_type_symbol
_atom_site_label
_atom_site_fract_x
_atom_site_fract_y
_atom_site_fract_z
Si Si1 0.326182 0.906006 0.849131
Si Si2 0.657707 0.796513 0.173955
Si Si3 0.751067 0.480288 0.631335
Si Si4 0.108182 0.061841 0.025064
Si Si5 0.428612 0.202224 0.072621
Si Si6 0.685002 0.329693 0.244781
O O1 0.304136 0.939345 0.704371
O O2 0.419180 0.856215 0.705180
O O3 0.225390 0.863799 0.031648
O O4 0.326968 0.963625 0.974990
O O5 0.547516 0.773295 0.391406
O O6 0.714657 0.831834 0.253219
O O7 0.750000 0.750000 0.000000
O O8 0.617407 0.821374 0.047167
O O9 0.704199 0.440548 0.539542
O O10 0.648157 0.513097 0.840959
O O11 0.000000 0.046110 0.250000
O O12 0.099170 0.127716 0.945080
O O13 0.357782 0.260228 0.221328
#
# Coordination Sequence:
#
# PCOD9262307 Si02
#       6
#     8   8   8   8   8   8
#     4  10  20  38  61  85 122 158 200 255 297 353
#     4   9  20  36  59  86 123 157 191 239 298 364
#     4   9  20  37  56  85 117 164 205 251 292 344
#     4  10  19  32  59  81 120 157 205 247 298 355
#     4  10  20  37  62  88 124 157 199 239 310 364
#     4  10  21  35  58  91 123 155 195 248 302 367
#
# _framework density 21.838546999999998
#
# number of rings (size 3 to 8) (size 9 to 14) (size 15 to 20)
#    0.000    2.333    0.000    2.000    4.667    0.667 
#    0.000    0.000    0.000   34.000    0.000    0.000 
#    0.000    0.000    0.000    0.000    0.000    0.000 
#
# Total GULP energy -133718.944271 kJ/mol
# GULP energy per Si atom -5571.622678 kJ/mol
# Density = 2.178884 g / cm^3
# Si number density = 21.838547 Si / 1000 Ang^3
#
#
#
# Elastic Constant Matrix: (Units=GPa)
#
#
# Indices 1 2 3 4 5 6 
#
# 1 56.1573 34.8516 29.5779 0.0000 0.1097 0.0000
# 2 34.8516 120.0871 55.2208 0.0000 9.1588 0.0000
# 3 29.5779 55.2208 105.1340 0.0000 -2.2445 0.0000
# 4 0.0000 0.0000 0.0000 24.5407 0.0000 14.1172
# 5 0.1097 9.1588 -2.2445 0.0000 25.1135 0.0000
# 6 0.0000 0.0000 0.0000 14.1172 0.0000 8.5407
#
#
#
# Elastic Compliance Matrix: (Units=1/GPa)
#
#
# Indices 1 2 3 4 5 6 
#
# 1 0.022909 -0.005016 -0.003781 0.000000 0.001391 0.000000
# 2 -0.005016 0.012617 -0.005323 0.000000 -0.005055 0.000000
# 3 -0.003781 -0.005323 0.013439 0.000000 0.003159 0.000000
# 4 0.000000 0.000000 0.000000 0.829311 0.000000 -1.370800
# 5 0.001391 -0.005055 0.003159 0.000000 0.041939 0.000000
# 6 0.000000 0.000000 0.000000 -1.370800 0.000000 2.382937
#
#
# Mechanical properties :
#
#
# Convention : Reuss Voigt Hill
#
# Bulk Modulus (GPa) = 48.25408 57.85322 53.05365
# Shear Modulus (GPa) = 1.49777 22.42085 11.95931
#
# Velocity S-wave (km/s) = 0.82905 3.20764 2.34268
# Velocity P-wave (km/s) = 4.80211 6.34566 5.62706
#
# Compressibility (1/GPa) = 0.02072363
#
# Stress axis : x y z
#
# Youngs Moduli (GPa) = 43.65144 79.26085 74.41127
#
# Poissons Ratio (x) = 0.39759 0.28132
# Poissons Ratio (y) = 0.21897 0.39612
# Poissons Ratio (z) = 0.16503 0.42194
#
# Static dielectric constant tensor:
#      x y z
#    x 1.812000 0.000000 0.029140 
#    y 0.000000 1.797500 0.000000 
#    z 0.029140 0.000000 1.817980 
# 
# From -- ./inp_files/50024.got.cif
#   From: 2010.05.17/outbox.cif.g08.bks.cpg/sg15_26_cif.got.tgz:50024.got - 2010.06.03 18:47:42.
