data_PCOD9262965
_publ_section_title
;
Structure prediction by ZEFSAII (Michael W. Deem and Ramdas Pophale) SiO2 
 PCOD9262965
Probable space group: C 2/C
;
_chemical_formula_sum "Si O2"
_cell_formula_units_Z 52
_cell_length_a 8.446337
_cell_length_b 29.714965
_cell_length_c 9.952615
_cell_angle_alpha 90.000000
_cell_angle_beta 123.115116
_cell_angle_gamma 90.000000
_cell_volume 2092.205493
_symmetry_space_group_name_H-M "C 2/C"
_symmetry_group_IT_number 15
_symmetry_cell_setting 'monoclinic'
loop_
_space_group_symop_operation_xyz
x,y,z
-x,y,1/2-z
-x,-y,-z
x,-y,1/2+z
1/2+x,1/2+y,z
1/2-x,1/2+y,1/2-z
1/2-x,1/2-y,-z
1/2+x,1/2-y,1/2+z
loop_
_atom_site_type_symbol
_atom_site_label
_atom_site_fract_x
_atom_site_fract_y
_atom_site_fract_z
Si Si1 0.335371 0.758360 0.393921
Si Si2 0.474747 0.662707 0.441214
Si Si3 0.618172 0.074203 0.680660
Si Si4 0.027794 0.930388 0.966422
Si Si5 0.500000 0.317533 0.250000
Si Si6 0.588260 0.168724 0.932867
Si Si7 0.181408 0.014561 0.924384
O O1 0.250000 0.750000 0.500000
O O2 0.380610 0.709665 0.355311
O O3 0.514659 0.791225 0.491616
O O4 0.164592 0.788021 0.256487
O O5 0.422735 0.613462 0.362609
O O6 0.429377 0.657895 0.582445
O O7 0.690577 0.665893 0.489361
O O8 0.500000 0.053797 0.750000
O O9 0.819862 0.085089 0.847383
O O10 0.512968 0.120381 0.588615
O O11 0.651595 0.039397 0.576123
O O12 0.158840 0.961037 0.931382
O O13 0.867881 0.962812 0.955648
O O14 0.500000 0.183738 0.750000
O O15 0.000000 0.025973 0.750000
#
# Coordination Sequence:
#
# PCOD9262965 Si02
#       7
#     8   8   8   8   4   8   8
#     4  10  22  34  56  84 112 151 183 239 289 338
#     4  11  21  34  60  84 116 148 199 234 292 341
#     4  10  19  33  58  87 114 145 188 247 291 334
#     4  10  19  35  56  87 107 154 194 233 287 352
#     4  10  20  36  56  88 116 146 196 248 286 336
#     4  11  19  36  55  84 117 141 190 242 287 336
#     4   9  21  35  56  79 118 146 192 241 291 345
#
# _framework density 24.854154999999999
#
# number of rings (size 3 to 8) (size 9 to 14) (size 15 to 20)
#    0.000    1.846    4.615    0.462    7.538    0.615 
#    0.000    0.769    0.000    0.000    8.000    0.000 
#    0.000    0.000    0.000    0.000    0.000    0.000 
#
# Total GULP energy -144961.312428 kJ/mol
# GULP energy per Si atom -5575.435093 kJ/mol
# Density = 2.479759 g / cm^3
# Si number density = 24.854155 Si / 1000 Ang^3
#
#
#
# Elastic Constant Matrix: (Units=GPa)
#
#
# Indices 1 2 3 4 5 6 
#
# 1 117.5491 93.9699 15.2569 0.0000 -20.2928 0.0000
# 2 93.9699 166.0991 5.2382 0.0000 -26.5053 0.0000
# 3 15.2569 5.2382 26.8634 0.0000 -12.7079 0.0000
# 4 0.0000 0.0000 0.0000 25.4803 0.0000 -5.7293
# 5 -20.2928 -26.5053 -12.7079 0.0000 34.1889 0.0000
# 6 0.0000 0.0000 0.0000 -5.7293 0.0000 60.0150
#
#
#
# Elastic Compliance Matrix: (Units=1/GPa)
#
#
# Indices 1 2 3 4 5 6 
#
# 1 0.017029 -0.009404 -0.007893 0.000000 -0.000117 0.000000
# 2 -0.009404 0.012109 0.005800 0.000000 0.005962 0.000000
# 3 -0.007893 0.005800 0.049126 0.000000 0.018071 0.000000
# 4 0.000000 0.000000 0.000000 0.040107 0.000000 0.003829
# 5 -0.000117 0.005962 0.018071 0.000000 0.040519 0.000000
# 6 0.000000 0.000000 0.000000 0.003829 0.000000 0.017028
#
#
# Mechanical properties :
#
#
# Convention : Reuss Voigt Hill
#
# Bulk Modulus (GPa) = 18.09284 59.93796 39.01540
# Shear Modulus (GPa) = 23.00599 37.00661 30.00630
#
# Velocity S-wave (km/s) = 3.04573 3.86288 3.47838
# Velocity P-wave (km/s) = 4.43442 6.63807 5.64482
#
# Compressibility (1/GPa) = 0.05527049
#
# Stress axis : x y z
#
# Youngs Moduli (GPa) = 58.72425 82.58295 20.35580
#
# Poissons Ratio (x) = 0.77658 0.16067
# Poissons Ratio (y) = 0.55222 -0.11806
# Poissons Ratio (z) = 0.46350 -0.47897
#
# Static dielectric constant tensor:
#      x y z
#    x 2.011630 0.000000 0.054020 
#    y 0.000000 2.065050 0.000000 
#    z 0.054020 0.000000 2.154300 
# 
# From -- ./inp_files/80871.got.cif
#   From: 2010.05.17/outbox.cif.g08.bks.cpg/sg15_41_cif.got.tgz:80871.got - 2010.06.03 18:47:42.
