data_PCOD9262796
_publ_section_title
;
Structure prediction by ZEFSAII (Michael W. Deem and Ramdas Pophale) SiO2 
 PCOD9262796
Probable space group: C 2/C
;
_chemical_formula_sum "Si O2"
_cell_formula_units_Z 56
_cell_length_a 22.865801
_cell_length_b 21.721811
_cell_length_c 10.321357
_cell_angle_alpha 90.000000
_cell_angle_beta 152.106102
_cell_angle_gamma 90.000000
_cell_volume 2398.350215
_symmetry_space_group_name_H-M "C 2/C"
_symmetry_group_IT_number 15
_symmetry_cell_setting 'monoclinic'
loop_
_space_group_symop_operation_xyz
x,y,z
-x,y,1/2-z
-x,-y,-z
x,-y,1/2+z
1/2+x,1/2+y,z
1/2-x,1/2+y,1/2-z
1/2-x,1/2-y,-z
1/2+x,1/2-y,1/2+z
loop_
_atom_site_type_symbol
_atom_site_label
_atom_site_fract_x
_atom_site_fract_y
_atom_site_fract_z
Si Si1 0.782266 0.418952 0.889631
Si Si2 0.090348 0.694274 0.746256
Si Si3 0.089024 0.325023 0.811921
Si Si4 0.206946 0.811102 0.095700
Si Si5 0.913410 0.075657 0.257168
Si Si6 0.646015 0.560442 0.876150
Si Si7 0.896686 0.533462 0.208919
O O1 0.691402 0.423780 0.835329
O O2 0.691587 0.404658 0.592681
O O3 0.882423 0.366706 0.117935
O O4 0.852302 0.484693 0.012898
O O5 0.187078 0.689758 0.812343
O O6 0.955591 0.697726 0.415009
O O7 0.123933 0.752678 0.897955
O O8 0.064871 0.398750 0.760108
O O9 0.000000 0.297963 0.750000
O O10 0.225497 0.311032 0.133674
O O11 0.130361 0.873875 0.929740
O O12 0.043662 0.090353 0.582591
O O13 0.912659 0.006238 0.201927
O O14 0.773025 0.547416 0.049061
O O15 0.000000 0.500000 0.500000
#
# Coordination Sequence:
#
# PCOD9262796 Si02
#       7
#     8   8   8   8   8   8   8
#     4  10  19  33  56  82 111 143 182 233 281 327
#     4   9  18  33  52  87 109 136 194 232 277 328
#     4  10  20  35  56  81 111 143 183 233 282 332
#     4   9  18  33  58  78 111 148 182 238 276 326
#     4   9  19  36  53  81 109 145 188 222 275 340
#     4  10  21  34  54  81 115 143 178 232 279 332
#     4  11  22  34  54  84 113 146 184 229 279 345
#
# _framework density 23.349384000000001
#
# number of rings (size 3 to 8) (size 9 to 14) (size 15 to 20)
#    0.000    2.286    1.429    1.286    4.000    1.143 
#    0.000    6.429    0.000    5.143    0.000    0.000 
#    0.000    0.000    0.000    0.000    0.000    0.000 
#
# Total GULP energy -156503.409540 kJ/mol
# GULP energy per Si atom -5589.407484 kJ/mol
# Density = 2.329624 g / cm^3
# Si number density = 23.349384 Si / 1000 Ang^3
#
#
#
# Elastic Constant Matrix: (Units=GPa)
#
#
# Indices 1 2 3 4 5 6 
#
# 1 47.5178 -5.6250 13.1510 0.0000 3.2596 0.0000
# 2 -5.6250 58.8347 49.9500 0.0000 -20.3286 0.0000
# 3 13.1510 49.9500 212.3246 0.0000 -36.2820 0.0000
# 4 0.0000 0.0000 0.0000 31.8728 0.0000 -3.1144
# 5 3.2596 -20.3286 -36.2820 0.0000 30.4688 0.0000
# 6 0.0000 0.0000 0.0000 -3.1144 0.0000 4.5212
#
#
#
# Elastic Compliance Matrix: (Units=1/GPa)
#
#
# Indices 1 2 3 4 5 6 
#
# 1 0.022436 0.003279 -0.002759 0.000000 -0.003498 0.000000
# 2 0.003279 0.024661 -0.004084 0.000000 0.011240 0.000000
# 3 -0.002759 -0.004084 0.006812 0.000000 0.005682 0.000000
# 4 0.000000 0.000000 0.000000 0.033639 0.000000 0.023172
# 5 -0.003498 0.011240 0.005682 0.000000 0.047460 0.000000
# 6 0.000000 0.000000 0.000000 0.023172 0.000000 0.237142
#
#
# Mechanical properties :
#
#
# Convention : Reuss Voigt Hill
#
# Bulk Modulus (GPa) = 21.37597 48.18103 34.77850
# Shear Modulus (GPa) = 12.66231 30.78598 21.72414
#
# Velocity S-wave (km/s) = 2.33125 3.63504 3.05355
# Velocity P-wave (km/s) = 4.05229 6.18851 5.23062
#
# Compressibility (1/GPa) = 0.04678151
#
# Stress axis : x y z
#
# Youngs Moduli (GPa) = 44.57073 40.54975 146.79045
#
# Poissons Ratio (x) = -0.13294 0.40494
# Poissons Ratio (y) = -0.14613 0.59949
# Poissons Ratio (z) = 0.12296 0.16561
#
# Static dielectric constant tensor:
#      x y z
#    x 1.967840 0.000000 0.023490 
#    y 0.000000 1.875680 0.000000 
#    z 0.023490 0.000000 1.879220 
# 
# From -- ./inp_files/127497.got.cif
#   From: 2010.05.17/outbox.cif.g08.bks.cpg/sg15_64_cif.got.tgz:127497.got - 2010.06.03 18:47:42.
