data_PCOD9262603
_publ_section_title
;
Structure prediction by ZEFSAII (Michael W. Deem and Ramdas Pophale) SiO2 
 PCOD9262603
Probable space group: C 2/C
;
_chemical_formula_sum "Si O2"
_cell_formula_units_Z 56
_cell_length_a 19.999944
_cell_length_b 13.755172
_cell_length_c 17.375093
_cell_angle_alpha 90.000000
_cell_angle_beta 29.082296
_cell_angle_gamma 90.000000
_cell_volume 2323.360606
_symmetry_space_group_name_H-M "C 2/C"
_symmetry_group_IT_number 15
_symmetry_cell_setting 'monoclinic'
loop_
_space_group_symop_operation_xyz
x,y,z
-x,y,1/2-z
-x,-y,-z
x,-y,1/2+z
1/2+x,1/2+y,z
1/2-x,1/2+y,1/2-z
1/2-x,1/2-y,-z
1/2+x,1/2-y,1/2+z
loop_
_atom_site_type_symbol
_atom_site_label
_atom_site_fract_x
_atom_site_fract_y
_atom_site_fract_z
Si Si1 0.000000 0.200298 0.750000
Si Si2 0.000000 0.535513 0.750000
Si Si3 0.765223 0.632829 0.268466
Si Si4 0.273216 0.453812 0.524547
Si Si5 0.851884 0.043862 0.674016
Si Si6 0.559064 0.776642 0.271967
Si Si7 0.517209 0.726831 0.901232
Si Si8 0.838330 0.852270 0.034208
O O1 0.991518 0.259334 0.679041
O O2 0.129739 0.128900 0.606722
O O3 0.139551 0.475589 0.608423
O O4 0.984089 0.609886 0.693229
O O5 0.769969 0.579267 0.346476
O O6 0.741475 0.552209 0.226157
O O7 0.630696 0.700660 0.414919
O O8 0.900973 0.696418 0.130237
O O9 0.349006 0.556705 0.465225
O O10 0.894301 0.125556 0.692228
O O11 0.793011 0.104731 0.661554
O O12 0.000000 0.000000 0.500000
O O13 0.500000 0.738461 0.250000
O O14 0.721108 0.779477 0.121500
O O15 0.478919 0.704527 0.407362
#
# Coordination Sequence:
#
# PCOD9262603 Si02
#       8
#     4   4   8   8   8   8   8   8
#     4  10  22  34  56  84 108 142 192 231 286 333
#     4   8  18  30  48  74 118 146 180 225 284 329
#     4   9  20  38  60  80 113 146 187 232 281 334
#     4   9  19  33  50  78 108 151 181 231 281 334
#     4   9  20  40  59  80 114 151 193 228 285 343
#     4   9  19  31  50  83 115 146 187 229 283 332
#     4  10  21  39  59  86 111 148 190 238 280 338
#     4  10  19  33  54  79 113 152 189 232 281 344
#
# _framework density 24.103017000000001
#
# number of rings (size 3 to 8) (size 9 to 14) (size 15 to 20)
#    0.429    2.286    0.000    1.286    1.000    6.286 
#    0.000    2.143    0.000    0.000    0.000    0.000 
#    0.000    0.000    0.000    0.000    0.000    0.000 
#
# Total GULP energy -156244.708549 kJ/mol
# GULP energy per Si atom -5580.168162 kJ/mol
# Density = 2.404816 g / cm^3
# Si number density = 24.103017 Si / 1000 Ang^3
#
#
#
# Elastic Constant Matrix: (Units=GPa)
#
#
# Indices 1 2 3 4 5 6 
#
# 1 59.2652 1.7498 -0.6635 0.0000 -8.0990 0.0001
# 2 1.7498 63.3439 13.6944 0.0000 -18.4378 0.0000
# 3 -0.6635 13.6944 15.4691 0.0000 -10.1884 0.0000
# 4 0.0000 0.0000 0.0000 17.7049 0.0000 -7.4094
# 5 -8.0990 -18.4378 -10.1884 0.0000 29.3829 -0.0001
# 6 0.0001 0.0000 0.0000 -7.4094 -0.0001 33.4570
#
#
#
# Elastic Compliance Matrix: (Units=1/GPa)
#
#
# Indices 1 2 3 4 5 6 
#
# 1 0.017860 0.000456 0.004916 0.000000 0.006914 0.000000
# 2 0.000456 0.021150 -0.012804 0.000000 0.008958 0.000000
# 3 0.004916 -0.012804 0.093039 0.000000 0.025581 0.000000
# 4 0.000000 0.000000 0.000000 0.062251 0.000000 0.013786
# 5 0.006914 0.008958 0.025581 0.000000 0.050430 0.000000
# 6 0.000000 0.000000 0.000000 0.013786 0.000000 0.032942
#
#
# Mechanical properties :
#
#
# Convention : Reuss Voigt Hill
#
# Bulk Modulus (GPa) = 8.53358 18.62662 13.58010
# Shear Modulus (GPa) = 15.07852 24.32879 19.70365
#
# Velocity S-wave (km/s) = 2.50389 3.18050 2.86226
# Velocity P-wave (km/s) = 3.45071 4.60783 4.07060
#
# Compressibility (1/GPa) = 0.11718417
#
# Stress axis : x y z
#
# Youngs Moduli (GPa) = 55.99207 47.28201 10.74816
#
# Poissons Ratio (x) = -0.02158 -0.05283
# Poissons Ratio (y) = -0.02555 0.13762
# Poissons Ratio (z) = -0.27523 0.60540
#
# Static dielectric constant tensor:
#      x y z
#    x 1.973320 0.000000 0.014890 
#    y 0.000000 1.974150 0.000000 
#    z 0.014890 0.000000 1.950930 
# 
# From -- ./inp_files/215740.got.cif
#   From: 2010.05.17/outbox.cif.g08.bks.cpg/sg15_108_cif.got.tgz:215740.got - 2010.06.03 18:47:42.
