data_PCOD9262039
_publ_section_title
;
Structure prediction by ZEFSAII (Michael W. Deem and Ramdas Pophale) SiO2 
 PCOD9262039
Probable space group: C 2/C
;
_chemical_formula_sum "Si O2"
_cell_formula_units_Z 64
_cell_length_a 23.886312
_cell_length_b 31.082660
_cell_length_c 5.096260
_cell_angle_alpha 90.000000
_cell_angle_beta 75.300326
_cell_angle_gamma 90.000000
_cell_volume 3659.874664
_symmetry_space_group_name_H-M "C 2/C"
_symmetry_group_IT_number 15
_symmetry_cell_setting 'monoclinic'
loop_
_space_group_symop_operation_xyz
x,y,z
-x,y,1/2-z
-x,-y,-z
x,-y,1/2+z
1/2+x,1/2+y,z
1/2-x,1/2+y,1/2-z
1/2-x,1/2-y,-z
1/2+x,1/2-y,1/2+z
loop_
_atom_site_type_symbol
_atom_site_label
_atom_site_fract_x
_atom_site_fract_y
_atom_site_fract_z
Si Si1 0.905575 0.026278 0.369199
Si Si2 0.942958 0.894589 0.150123
Si Si3 0.339187 0.366057 0.609848
Si Si4 0.765135 0.120726 0.689975
Si Si5 0.730274 0.787019 0.225624
Si Si6 0.460950 0.704020 0.536677
Si Si7 0.846500 0.226328 0.915418
Si Si8 0.765159 0.026582 0.551982
O O1 0.933052 0.069788 0.443172
O O2 0.835546 0.030087 0.470605
O O3 0.921856 0.989535 0.561888
O O4 0.890353 0.893424 0.421708
O O5 0.946238 0.846685 0.023296
O O6 0.000000 0.901793 0.250000
O O7 0.286842 0.375310 0.465100
O O8 0.357897 0.315893 0.578510
O O9 0.319705 0.375589 0.926179
O O10 0.727828 0.162804 0.654398
O O11 0.741312 0.073323 0.660103
O O12 0.785536 0.785657 0.353171
O O13 0.670353 0.769693 0.415454
O O14 0.750000 0.750000 0.000000
O O15 0.500000 0.707711 0.750000
O O16 0.400410 0.728325 0.656190
O O17 0.500000 0.718819 0.250000
O O18 0.749144 0.009177 0.285938
#
# Coordination Sequence:
#
# PCOD9262039 Si02
#       8
#     8   8   8   8   8   8   8   8
#     4  10  22  35  48  62  81 111 152 203 266 312
#     4  10  22  35  49  64  86 113 158 208 257 302
#     4  10  20  32  49  69  89 122 151 197 251 297
#     4  11  20  33  53  70  94 121 157 193 250 300
#     4  10  19  32  52  80 106 132 158 207 269 309
#     4  10  23  38  55  74  95 133 174 206 245 300
#     4   9  20  34  50  76 108 129 163 209 250 309
#     4  10  20  34  50  67  88 121 164 202 239 298
#
# _framework density 17.486937000000001
#
# number of rings (size 3 to 8) (size 9 to 14) (size 15 to 20)
#    0.000    2.000    2.500    0.750    5.250    8.500 
#    0.000    0.000    0.000    0.000    0.000    0.000 
#    0.000    0.000    0.000    0.000    0.000    3.750 
#
# Total GULP energy -178724.160990 kJ/mol
# GULP energy per Si atom -5585.130031 kJ/mol
# Density = 1.744714 g / cm^3
# Si number density = 17.486937 Si / 1000 Ang^3
#
#
#
# Elastic Constant Matrix: (Units=GPa)
#
#
# Indices 1 2 3 4 5 6 
#
# 1 26.4711 17.9380 17.5198 0.0000 -9.2184 0.0000
# 2 17.9380 87.2519 13.9820 0.0000 -14.2284 0.0000
# 3 17.5198 13.9820 61.9956 0.0000 -11.1036 0.0000
# 4 0.0000 0.0000 0.0000 18.1992 0.0000 -2.5307
# 5 -9.2184 -14.2284 -11.1036 0.0000 23.2882 0.0000
# 6 0.0000 0.0000 0.0000 -2.5307 0.0000 11.3060
#
#
#
# Elastic Compliance Matrix: (Units=1/GPa)
#
#
# Indices 1 2 3 4 5 6 
#
# 1 0.054567 -0.007477 -0.011681 0.000000 0.011462 0.000000
# 2 -0.007477 0.013904 -0.000034 0.000000 0.005519 0.000000
# 3 -0.011681 -0.000034 0.020344 0.000000 0.005055 0.000000
# 4 0.000000 0.000000 0.000000 0.056713 0.000000 0.012695
# 5 0.011462 0.005519 0.005055 0.000000 0.053259 0.000000
# 6 0.000000 0.000000 0.000000 0.012695 0.000000 0.091290
#
#
# Mechanical properties :
#
#
# Convention : Reuss Voigt Hill
#
# Bulk Modulus (GPa) = 19.82975 30.51090 25.17033
# Shear Modulus (GPa) = 14.48131 18.97725 16.72928
#
# Velocity S-wave (km/s) = 2.88083 3.29785 3.09637
# Velocity P-wave (km/s) = 4.73603 5.65569 5.21616
#
# Compressibility (1/GPa) = 0.05042928
#
# Stress axis : x y z
#
# Youngs Moduli (GPa) = 18.32621 71.92306 49.15354
#
# Poissons Ratio (x) = 0.53779 0.57417
# Poissons Ratio (y) = 0.13703 0.00168
# Poissons Ratio (z) = 0.21407 0.00246
#
# Static dielectric constant tensor:
#      x y z
#    x 1.603410 0.000000 0.027780 
#    y 0.000000 1.675180 0.000000 
#    z 0.027780 0.000000 1.663840 
# 
# From -- ./inp_files/16559.got.cif
#   From: 2010.05.17/outbox.cif.g08.bks.cpg/sg15_9_cif.got.tgz:16559.got - 2010.06.03 18:47:42.
