data_PCOD9262109
_publ_section_title
;
Structure prediction by ZEFSAII (Michael W. Deem and Ramdas Pophale) SiO2 
 PCOD9262109
Probable space group: C 2/C
;
_chemical_formula_sum "Si O2"
_cell_formula_units_Z 56
_cell_length_a 23.969783
_cell_length_b 5.349049
_cell_length_c 18.648668
_cell_angle_alpha 90.000000
_cell_angle_beta 67.888507
_cell_angle_gamma 90.000000
_cell_volume 2215.194967
_symmetry_space_group_name_H-M "C 2/C"
_symmetry_group_IT_number 15
_symmetry_cell_setting 'monoclinic'
loop_
_space_group_symop_operation_xyz
x,y,z
-x,y,1/2-z
-x,-y,-z
x,-y,1/2+z
1/2+x,1/2+y,z
1/2-x,1/2+y,1/2-z
1/2-x,1/2-y,-z
1/2+x,1/2-y,1/2+z
loop_
_atom_site_type_symbol
_atom_site_label
_atom_site_fract_x
_atom_site_fract_y
_atom_site_fract_z
Si Si1 0.623835 0.763057 0.632244
Si Si2 0.939724 0.733843 0.562458
Si Si3 0.370088 0.423669 0.013052
Si Si4 0.314128 0.524839 0.773922
Si Si5 0.680185 0.974615 0.322666
Si Si6 0.457826 0.968755 0.411102
Si Si7 0.243878 0.498471 0.050761
O O1 0.628545 0.625523 0.552753
O O2 0.637697 0.561949 0.686368
O O3 0.678691 0.960541 0.616513
O O4 0.559770 0.899410 0.654321
O O5 0.880444 0.564860 0.603160
O O6 0.969370 0.657474 0.471893
O O7 0.985022 0.711028 0.606757
O O8 0.913584 0.003966 0.556848
O O9 0.397383 0.182133 0.961993
O O10 0.301746 0.454617 0.073054
O O11 0.320282 0.264154 0.730115
O O12 0.244055 0.536715 0.833680
O O13 0.321570 0.766240 0.719392
O O14 0.250000 0.750000 0.000000
O O15 0.250000 0.250000 0.000000
#
# Coordination Sequence:
#
# PCOD9262109 Si02
#       7
#     8   8   8   8   8   8   8
#     4  10  21  37  58  91 128 159 204 263 313 378
#     4  10  22  39  61  91 125 166 215 258 314 386
#     4  10  20  35  59  90 123 162 203 253 323 373
#     4  10  23  42  68  92 123 166 215 264 319 367
#     4  10  23  44  65  93 122 167 215 264 312 378
#     4  10  21  38  62  90 128 165 206 260 324 379
#     4  10  19  32  53  86 122 156 190 245 314 368
#
# _framework density 25.279944
#
# number of rings (size 3 to 8) (size 9 to 14) (size 15 to 20)
#    0.000    2.000    1.429    1.286    4.000    1.143 
#    2.571    0.714    0.000    0.000    0.000    0.000 
#    0.000    0.000    0.000    0.000    0.000    0.000 
#
# Total GULP energy -156393.396502 kJ/mol
# GULP energy per Si atom -5585.478447 kJ/mol
# Density = 2.522241 g / cm^3
# Si number density = 25.279944 Si / 1000 Ang^3
#
#
#
# Elastic Constant Matrix: (Units=GPa)
#
#
# Indices 1 2 3 4 5 6 
#
# 1 159.0702 23.7250 24.1188 -0.0022 35.9900 -0.0012
# 2 23.7250 126.4657 23.2287 -0.0180 8.0343 -0.0145
# 3 24.1188 23.2287 44.9967 -0.0030 8.2138 -0.0035
# 4 -0.0022 -0.0180 -0.0030 38.0322 -0.0022 1.3644
# 5 35.9900 8.0343 8.2138 -0.0022 28.5542 -0.0009
# 6 -0.0012 -0.0145 -0.0035 1.3644 -0.0009 21.8376
#
#
#
# Elastic Compliance Matrix: (Units=1/GPa)
#
#
# Indices 1 2 3 4 5 6 
#
# 1 0.009187 -0.000552 -0.002696 -0.000001 -0.010648 -0.000001
# 2 -0.000552 0.008810 -0.004144 0.000004 -0.000591 0.000005
# 3 -0.002696 -0.004144 0.026359 0.000000 -0.003019 0.000001
# 4 -0.000001 0.000004 0.000000 0.026353 0.000002 -0.001647
# 5 -0.010648 -0.000591 -0.003019 0.000002 0.049477 0.000001
# 6 -0.000001 0.000005 0.000001 -0.001647 0.000001 0.045896
#
#
# Mechanical properties :
#
#
# Convention : Reuss Voigt Hill
#
# Bulk Modulus (GPa) = 33.81528 52.51974 43.16751
# Shear Modulus (GPa) = 26.21630 34.98213 30.59922
#
# Velocity S-wave (km/s) = 3.22380 3.72397 3.48288
# Velocity P-wave (km/s) = 5.22136 6.26984 5.76947
#
# Compressibility (1/GPa) = 0.02957243
#
# Stress axis : x y z
#
# Youngs Moduli (GPa) = 108.85201 113.51349 37.93768
#
# Poissons Ratio (x) = 0.06264 0.10226
# Poissons Ratio (y) = 0.06007 0.15722
# Poissons Ratio (z) = 0.29342 0.47040
#
# Static dielectric constant tensor:
#      x y z
#    x 2.102060 0.000000 -0.060150 
#    y 0.000000 2.152180 -0.000010 
#    z -0.060150 -0.000010 2.033000 
# 
# From -- ./inp_files/254336.got.cif
#   From: 2010.05.17/outbox.cif.g08.bks.cpg/sg15_128_cif.got.tgz:254336.got - 2010.06.03 18:47:42.
