data_PCOD9262068
_publ_section_title
;
Structure prediction by ZEFSAII (Michael W. Deem and Ramdas Pophale) SiO2 
 PCOD9262068
Probable space group: C 2/C
;
_chemical_formula_sum "Si O2"
_cell_formula_units_Z 56
_cell_length_a 18.567559
_cell_length_b 29.274411
_cell_length_c 10.392934
_cell_angle_alpha 90.000000
_cell_angle_beta 148.218635
_cell_angle_gamma 90.000000
_cell_volume 2975.277212
_symmetry_space_group_name_H-M "C 2/C"
_symmetry_group_IT_number 15
_symmetry_cell_setting 'monoclinic'
loop_
_space_group_symop_operation_xyz
x,y,z
-x,y,1/2-z
-x,-y,-z
x,-y,1/2+z
1/2+x,1/2+y,z
1/2-x,1/2+y,1/2-z
1/2-x,1/2-y,-z
1/2+x,1/2-y,1/2+z
loop_
_atom_site_type_symbol
_atom_site_label
_atom_site_fract_x
_atom_site_fract_y
_atom_site_fract_z
Si Si1 0.163051 0.316953 0.500869
Si Si2 0.833489 0.534787 0.140284
Si Si3 0.887279 0.793125 0.175373
Si Si4 0.221827 0.228295 0.747421
Si Si5 0.658857 0.855915 0.216903
Si Si6 0.165554 0.460039 0.151889
Si Si7 0.330753 0.863702 0.726259
O O1 0.208718 0.266434 0.615729
O O2 0.202356 0.338898 0.425006
O O3 0.199753 0.351335 0.672010
O O4 0.000000 0.314063 0.250000
O O5 0.786247 0.495455 0.166157
O O6 0.797769 0.584777 0.138869
O O7 0.999954 0.534775 0.394273
O O8 0.786967 0.529817 0.921697
O O9 0.910281 0.777452 0.357953
O O10 0.000000 0.813214 0.250000
O O11 0.834166 0.749982 0.013301
O O12 0.764848 0.829461 0.996996
O O13 0.270786 0.180553 0.768146
O O14 0.696229 0.908009 0.239743
O O15 0.492716 0.854234 0.952041
#
# Coordination Sequence:
#
# PCOD9262068 Si02
#       7
#     8   8   8   8   8   8   8
#     4   9  19  32  49  73 102 140 170 204 254 303
#     4   9  17  30  47  72 105 131 168 203 256 317
#     4  10  22  34  51  73  99 133 179 215 257 299
#     4  10  21  33  51  73 101 136 170 217 253 303
#     4  10  19  32  53  75 107 134 172 207 263 314
#     4   9  18  28  47  75 102 137 160 207 259 308
#     4   9  19  34  51  75 103 136 171 212 257 307
#
# _framework density 18.821774000000001
#
# number of rings (size 3 to 8) (size 9 to 14) (size 15 to 20)
#    0.000    2.571    0.000    1.286   10.000    1.143 
#    0.000    0.000    0.000    0.000    0.000    5.000 
#    0.000    0.000    0.000    0.000    0.000    0.000 
#
# Total GULP energy -155959.201369 kJ/mol
# GULP energy per Si atom -5569.971477 kJ/mol
# Density = 1.877894 g / cm^3
# Si number density = 18.821774 Si / 1000 Ang^3
#
#
#
# Elastic Constant Matrix: (Units=GPa)
#
#
# Indices 1 2 3 4 5 6 
#
# 1 92.4386 72.5023 41.3122 0.0000 -42.9611 0.0000
# 2 72.5023 164.6112 45.6631 0.0000 -39.7652 0.0000
# 3 41.3122 45.6631 44.5183 0.0000 -31.2582 0.0000
# 4 0.0000 0.0000 0.0000 21.8808 0.0000 -4.3614
# 5 -42.9611 -39.7652 -31.2582 0.0000 31.9964 0.0000
# 6 0.0000 0.0000 0.0000 -4.3614 0.0000 27.7932
#
#
#
# Elastic Compliance Matrix: (Units=1/GPa)
#
#
# Indices 1 2 3 4 5 6 
#
# 1 0.031899 -0.005541 0.004202 0.000000 0.040049 0.000000
# 2 -0.005541 0.009901 -0.005087 0.000000 -0.000104 0.000000
# 3 0.004202 -0.005087 0.074202 0.000000 0.071809 0.000000
# 4 0.000000 0.000000 0.000000 0.047178 0.000000 0.007403
# 5 0.040049 -0.000104 0.071809 0.000000 0.155050 0.000000
# 6 0.000000 0.000000 0.000000 0.007403 0.000000 0.037142
#
#
# Mechanical properties :
#
#
# Convention : Reuss Voigt Hill
#
# Bulk Modulus (GPa) = 9.69465 68.94704 39.32085
# Shear Modulus (GPa) = 12.41904 25.80676 19.11290
#
# Velocity S-wave (km/s) = 2.57149 3.70687 3.19010
# Velocity P-wave (km/s) = 3.73881 7.41837 5.87413
#
# Compressibility (1/GPa) = 0.10314968
#
# Stress axis : x y z
#
# Youngs Moduli (GPa) = 31.34933 100.99574 13.47668
#
# Poissons Ratio (x) = 0.55957 -0.05662
# Poissons Ratio (y) = 0.17369 0.06856
# Poissons Ratio (z) = -0.13172 0.51379
#
# Static dielectric constant tensor:
#      x y z
#    x 1.760760 0.000000 -0.023690 
#    y 0.000000 1.634760 0.000000 
#    z -0.023690 0.000000 1.700860 
# 
# From -- ./inp_files/52670.got.cif
#   From: 2010.05.17/outbox.cif.g08.bks.cpg/sg15_27_cif.got.tgz:52670.got - 2010.06.03 18:47:42.
