data_PCOD9262317
_publ_section_title
;
Structure prediction by ZEFSAII (Michael W. Deem and Ramdas Pophale) SiO2 
 PCOD9262317
Probable space group: C 2/C
;
_chemical_formula_sum "Si O2"
_cell_formula_units_Z 60
_cell_length_a 24.437804
_cell_length_b 19.375735
_cell_length_c 20.553585
_cell_angle_alpha 90.000000
_cell_angle_beta 160.399921
_cell_angle_gamma 90.000000
_cell_volume 3264.671266
_symmetry_space_group_name_H-M "C 2/C"
_symmetry_group_IT_number 15
_symmetry_cell_setting 'monoclinic'
loop_
_space_group_symop_operation_xyz
x,y,z
-x,y,1/2-z
-x,-y,-z
x,-y,1/2+z
1/2+x,1/2+y,z
1/2-x,1/2+y,1/2-z
1/2-x,1/2-y,-z
1/2+x,1/2-y,1/2+z
loop_
_atom_site_type_symbol
_atom_site_label
_atom_site_fract_x
_atom_site_fract_y
_atom_site_fract_z
Si Si1 0.484511 0.342769 0.987897
Si Si2 0.500000 0.470391 0.250000
Si Si3 0.860298 0.307791 0.386362
Si Si4 0.729359 0.666804 0.362633
Si Si5 0.614599 0.789161 0.940373
Si Si6 0.525200 0.352669 0.174534
Si Si7 0.078490 0.320425 0.187751
Si Si8 0.683200 0.605184 0.449936
O O1 0.667901 0.323054 0.173007
O O2 0.490658 0.380337 0.063321
O O3 0.393164 0.272538 0.908078
O O4 0.388778 0.373471 0.819901
O O5 0.519901 0.418993 0.212946
O O6 0.651484 0.523543 0.420480
O O7 0.926771 0.321202 0.534047
O O8 0.930852 0.340186 0.399195
O O9 0.646480 0.742513 0.274438
O O10 0.745804 0.630088 0.450161
O O11 0.903201 0.675180 0.523994
O O12 0.500000 0.805747 0.750000
O O13 0.596307 0.706757 0.933686
O O14 0.798541 0.813754 0.130643
O O15 0.203713 0.368496 0.366189
O O16 0.500000 0.636328 0.250000
#
# Coordination Sequence:
#
# PCOD9262317 Si02
#       8
#     8   4   8   8   8   8   8   8
#     4   9  17  30  53  83 121 144 185 227 294 345
#     4  10  24  40  58  78 116 160 204 222 294 340
#     4   9  17  29  49  85 122 147 173 234 295 337
#     4  11  20  34  58  92 113 147 189 248 295 335
#     4  10  19  32  59  92 121 142 190 241 289 339
#     4  10  20  37  58  92 115 155 185 240 289 345
#     4  11  20  34  58  88 120 145 188 243 297 339
#     4  10  22  38  57  74 111 158 198 236 275 345
#
# _framework density 18.378574
#
# number of rings (size 3 to 8) (size 9 to 14) (size 15 to 20)
#    0.400    1.600    0.667    6.000    0.000    1.067 
#    0.000    2.000    0.000    0.800    0.000    0.000 
#    0.000    0.000    0.000    0.000    0.000    0.000 
#
# Total GULP energy -167059.519780 kJ/mol
# GULP energy per Si atom -5568.650659 kJ/mol
# Density = 1.833674 g / cm^3
# Si number density = 18.378574 Si / 1000 Ang^3
#
#
#
# Elastic Constant Matrix: (Units=GPa)
#
#
# Indices 1 2 3 4 5 6 
#
# 1 211.1650 71.1352 61.4552 0.0017 -6.4133 -0.0090
# 2 71.1352 71.5899 28.7685 0.0001 -1.0265 -0.0027
# 3 61.4552 28.7685 70.7848 0.0010 -2.1515 -0.0056
# 4 0.0017 0.0001 0.0010 10.9367 -0.0002 11.1008
# 5 -6.4133 -1.0265 -2.1515 -0.0002 38.9547 -0.0041
# 6 -0.0090 -0.0027 -0.0056 11.1008 -0.0041 -27.4822
#
#
#
# Elastic Compliance Matrix: (Units=1/GPa)
#
#
# Indices 1 2 3 4 5 6 
#
# 1 0.008215 -0.006328 -0.004532 0.000000 0.000935 -0.000001
# 2 -0.006328 0.021570 -0.003293 0.000000 -0.000655 0.000001
# 3 -0.004532 -0.003293 0.019407 0.000001 0.000239 -0.000002
# 4 0.000000 0.000000 0.000001 0.064848 0.000003 0.026194
# 5 0.000935 -0.000655 0.000239 0.000003 0.025821 -0.000003
# 6 -0.000001 0.000001 -0.000002 0.026194 -0.000003 -0.025807
#
#
# Mechanical properties :
#
#
# Convention : Reuss Voigt Hill
#
# Bulk Modulus (GPa) = 47.87571 75.13973 61.50772
# Shear Modulus (GPa) = 33.48501 17.29389 25.38945
#
# Velocity S-wave (km/s) = 4.27307 3.07087 3.72085
# Velocity P-wave (km/s) = 7.10294 7.31757 7.21106
#
# Compressibility (1/GPa) = 0.02088742
#
# Stress axis : x y z
#
# Youngs Moduli (GPa) = 121.73491 46.36089 51.52755
#
# Poissons Ratio (x) = 0.29337 0.23350
# Poissons Ratio (y) = 0.77033 0.16966
# Poissons Ratio (z) = 0.55166 0.15264
#
# Static dielectric constant tensor:
#      x y z
#    x 1.690170 0.000000 -0.035830 
#    y 0.000000 1.604180 0.000000 
#    z -0.035830 0.000000 1.656740 
# 
# From -- ./inp_files/256128.got.cif
#   From: 2010.05.17/outbox.cif.g08.bks.cpg/sg15_129_cif.got.tgz:256128.got - 2010.06.03 18:47:42.
