data_PCOD9262802
_publ_section_title
;
Structure prediction by ZEFSAII (Michael W. Deem and Ramdas Pophale) SiO2 
 PCOD9262802
Probable space group: C 2/C
;
_chemical_formula_sum "Si O2"
_cell_formula_units_Z 64
_cell_length_a 9.695552
_cell_length_b 19.530547
_cell_length_c 22.461999
_cell_angle_alpha 90.000000
_cell_angle_beta 50.045988
_cell_angle_gamma 90.000000
_cell_volume 3260.480255
_symmetry_space_group_name_H-M "C 2/C"
_symmetry_group_IT_number 15
_symmetry_cell_setting 'monoclinic'
loop_
_space_group_symop_operation_xyz
x,y,z
-x,y,1/2-z
-x,-y,-z
x,-y,1/2+z
1/2+x,1/2+y,z
1/2-x,1/2+y,1/2-z
1/2-x,1/2-y,-z
1/2+x,1/2-y,1/2+z
loop_
_atom_site_type_symbol
_atom_site_label
_atom_site_fract_x
_atom_site_fract_y
_atom_site_fract_z
Si Si1 0.705035 0.782950 0.949090
Si Si2 0.395974 0.559822 0.091617
Si Si3 0.173572 0.495362 0.877949
Si Si4 0.172096 0.344198 0.160494
Si Si5 0.031334 0.091302 0.554673
Si Si6 0.901374 0.386880 0.014243
Si Si7 0.028757 0.896539 0.673797
Si Si8 0.959923 0.480257 0.330339
O O1 0.753672 0.724246 0.888774
O O2 0.836569 0.845502 0.897051
O O3 0.750000 0.750000 0.000000
O O4 0.507731 0.816835 0.997327
O O5 0.519248 0.491447 0.062685
O O6 0.383375 0.591319 0.161395
O O7 0.204490 0.532993 0.120063
O O8 0.473685 0.605072 0.015614
O O9 0.138739 0.569076 0.915723
O O10 0.366283 0.467246 0.842722
O O11 0.132075 0.498839 0.819954
O O12 0.030126 0.439479 0.942095
O O13 0.352744 0.379908 0.136318
O O14 0.105374 0.403993 0.133655
O O15 0.000000 0.329945 0.250000
O O16 0.213637 0.120120 0.531686
O O17 0.000000 0.870469 0.750000
O O18 0.000000 0.474817 0.250000
#
# Coordination Sequence:
#
# PCOD9262802 Si02
#       8
#     8   8   8   8   8   8   8   8
#     4  11  23  39  60  82 113 161 212 250 293 356
#     4  10  19  33  57  90 125 153 199 245 312 378
#     4  10  19  34  55  88 123 148 192 247 311 367
#     4  10  22  38  57  81 115 157 204 244 295 361
#     4  10  19  35  61  89 121 160 199 255 309 369
#     4  10  20  34  60  88 119 153 198 259 306 353
#     4  11  22  36  58  88 122 158 197 251 314 370
#     4  10  19  33  56  82 117 159 192 242 308 371
#
# _framework density 19.629010000000001
#
# number of rings (size 3 to 8) (size 9 to 14) (size 15 to 20)
#    0.000    1.750    2.500    2.625    0.000    0.500 
#    0.000    0.000    0.000    0.000    3.250    1.750 
#    0.000    0.000    0.000    0.000    0.000    0.000 
#
# Total GULP energy -178250.221496 kJ/mol
# GULP energy per Si atom -5570.319422 kJ/mol
# Density = 1.958433 g / cm^3
# Si number density = 19.629010 Si / 1000 Ang^3
#
#
#
# Elastic Constant Matrix: (Units=GPa)
#
#
# Indices 1 2 3 4 5 6 
#
# 1 121.3899 37.5294 46.5718 0.0002 12.1476 -0.0003
# 2 37.5294 64.9188 29.0147 0.0001 -1.5051 -0.0001
# 3 46.5718 29.0147 92.2100 0.0003 6.2341 -0.0002
# 4 0.0002 0.0001 0.0003 30.4567 -0.0002 -5.8344
# 5 12.1476 -1.5051 6.2341 -0.0002 36.1108 0.0002
# 6 -0.0003 -0.0001 -0.0002 -5.8344 0.0002 18.5080
#
#
#
# Elastic Compliance Matrix: (Units=1/GPa)
#
#
# Indices 1 2 3 4 5 6 
#
# 1 0.011706 -0.005013 -0.004102 0.000000 -0.003439 0.000000
# 2 -0.005013 0.020181 -0.004036 0.000000 0.003224 0.000000
# 3 -0.004102 -0.004036 0.014271 0.000000 -0.001252 0.000000
# 4 0.000000 0.000000 0.000000 0.034944 0.000000 0.011016
# 5 -0.003439 0.003224 -0.001252 0.000000 0.029200 0.000000
# 6 0.000000 0.000000 0.000000 0.011016 0.000000 0.057503
#
#
# Mechanical properties :
#
#
# Convention : Reuss Voigt Hill
#
# Bulk Modulus (GPa) = 50.36589 56.08336 53.22462
# Shear Modulus (GPa) = 24.90962 28.04195 26.47578
#
# Velocity S-wave (km/s) = 3.56620 3.78378 3.67660
# Velocity P-wave (km/s) = 6.53235 6.90818 6.72289
#
# Compressibility (1/GPa) = 0.01985471
#
# Stress axis : x y z
#
# Youngs Moduli (GPa) = 85.42777 49.55239 70.07090
#
# Poissons Ratio (x) = 0.24843 0.28744
# Poissons Ratio (y) = 0.42828 0.28280
# Poissons Ratio (z) = 0.35044 0.19999
#
# Static dielectric constant tensor:
#      x y z
#    x 1.725790 0.000000 -0.004570 
#    y 0.000000 1.708510 0.000000 
#    z -0.004570 0.000000 1.776900 
# 
# From -- ./inp_files/233836.got.cif
#   From: 2010.05.17/outbox.cif.g08.bks.cpg/sg15_117_cif.got.tgz:233836.got - 2010.06.03 18:47:42.
