data_PCOD9262650
_publ_section_title
;
Structure prediction by ZEFSAII (Michael W. Deem and Ramdas Pophale) SiO2 
 PCOD9262650
Probable space group: C 2/C
;
_chemical_formula_sum "Si O2"
_cell_formula_units_Z 56
_cell_length_a 23.497136
_cell_length_b 18.718986
_cell_length_c 7.682159
_cell_angle_alpha 90.000000
_cell_angle_beta 48.095086
_cell_angle_gamma 90.000000
_cell_volume 2514.790868
_symmetry_space_group_name_H-M "C 2/C"
_symmetry_group_IT_number 15
_symmetry_cell_setting 'monoclinic'
loop_
_space_group_symop_operation_xyz
x,y,z
-x,y,1/2-z
-x,-y,-z
x,-y,1/2+z
1/2+x,1/2+y,z
1/2-x,1/2+y,1/2-z
1/2-x,1/2-y,-z
1/2+x,1/2-y,1/2+z
loop_
_atom_site_type_symbol
_atom_site_label
_atom_site_fract_x
_atom_site_fract_y
_atom_site_fract_z
Si Si1 0.388042 0.608171 0.803037
Si Si2 0.296286 0.028097 0.614428
Si Si3 0.551087 0.940098 0.494519
Si Si4 0.965788 0.831790 0.623207
Si Si5 0.719532 0.117907 0.211897
Si Si6 0.082724 0.313926 0.173612
Si Si7 0.132272 0.950653 0.545966
O O1 0.461905 0.658560 0.651044
O O2 0.394189 0.532636 0.889881
O O3 0.382043 0.580088 0.616613
O O4 0.307033 0.644235 0.016100
O O5 0.376020 0.030497 0.551941
O O6 0.298062 0.075093 0.434216
O O7 0.279718 0.943428 0.640735
O O8 0.223652 0.053934 0.875355
O O9 0.579589 0.881574 0.304220
O O10 0.500000 0.000000 0.500000
O O11 0.500000 0.906049 0.750000
O O12 0.916774 0.759521 0.718260
O O13 0.912486 0.901324 0.727337
O O14 0.000000 0.831007 0.750000
O O15 0.653667 0.174182 0.396817
O O16 0.000000 0.315804 0.250000
#
# Coordination Sequence:
#
# PCOD9262650 Si02
#       7
#     8   8   8   8   8   8   8
#     4   9  18  34  59  87 112 141 183 228 276 332
#     4  10  19  33  54  84 112 137 183 234 276 327
#     4  12  23  36  55  79 107 146 190 232 274 322
#     4   9  19  37  56  80 112 147 185 225 274 337
#     4  10  19  33  56  84 111 143 181 230 281 327
#     4  11  22  37  55  77 110 151 188 227 274 329
#     4   9  18  34  58  85 111 141 178 228 280 330
#
# _framework density 22.268252
#
# number of rings (size 3 to 8) (size 9 to 14) (size 15 to 20)
#    0.000    2.000    0.000    5.143    0.000    1.143 
#    0.000   15.000    0.000    0.000    0.000    0.000 
#    0.000    0.000    0.000    0.000    0.000    0.000 
#
# Total GULP energy -156238.824967 kJ/mol
# GULP energy per Si atom -5579.958035 kJ/mol
# Density = 2.221757 g / cm^3
# Si number density = 22.268252 Si / 1000 Ang^3
#
#
#
# Elastic Constant Matrix: (Units=GPa)
#
#
# Indices 1 2 3 4 5 6 
#
# 1 68.5703 22.9808 45.2445 0.0000 1.7077 0.0000
# 2 22.9808 78.2227 67.5245 0.0000 -16.0252 0.0000
# 3 45.2445 67.5245 174.2629 0.0000 -39.5358 0.0000
# 4 0.0000 0.0000 0.0000 14.5154 0.0000 3.1245
# 5 1.7077 -16.0252 -39.5358 0.0000 29.5052 0.0000
# 6 0.0000 0.0000 0.0000 3.1245 0.0000 11.2036
#
#
#
# Elastic Compliance Matrix: (Units=1/GPa)
#
#
# Indices 1 2 3 4 5 6 
#
# 1 0.020332 -0.002290 -0.007099 0.000000 -0.011933 0.000000
# 2 -0.002290 0.019476 -0.006497 0.000000 0.002004 0.000000
# 3 -0.007099 -0.006497 0.013494 0.000000 0.014963 0.000000
# 4 0.000000 0.000000 0.000000 0.073292 0.000000 -0.020440
# 5 -0.011933 0.002004 0.014963 0.000000 0.055722 0.000000
# 6 0.000000 0.000000 0.000000 -0.020440 0.000000 0.094958
#
#
# Mechanical properties :
#
#
# Convention : Reuss Voigt Hill
#
# Bulk Modulus (GPa) = 46.44704 65.83950 56.14327
# Shear Modulus (GPa) = 15.81161 23.39857 19.60509
#
# Velocity S-wave (km/s) = 2.66757 3.24506 2.97038
# Velocity P-wave (km/s) = 5.51282 6.60842 6.08533
#
# Compressibility (1/GPa) = 0.02152990
#
# Stress axis : x y z
#
# Youngs Moduli (GPa) = 49.18308 51.34448 74.10682
#
# Poissons Ratio (x) = 0.11758 0.52607
# Poissons Ratio (y) = 0.11263 0.48151
# Poissons Ratio (z) = 0.34914 0.33361
#
# Static dielectric constant tensor:
#      x y z
#    x 0.776310 0.000000 -0.570450 
#    y 0.000000 1.850840 0.000000 
#    z -0.570450 0.000000 1.596720 
# 
# From -- ./inp_files/67143.got.cif
#   From: 2010.05.17/outbox.cif.g08.bks.cpg/sg15_34_cif.got.tgz:67143.got - 2010.06.03 18:47:42.
