data_PCOD9262995
_publ_section_title
;
Structure prediction by ZEFSAII (Michael W. Deem and Ramdas Pophale) SiO2 
 PCOD9262995
Probable space group: C 2/C
;
_chemical_formula_sum "Si O2"
_cell_formula_units_Z 64
_cell_length_a 29.592835
_cell_length_b 9.029229
_cell_length_c 14.385641
_cell_angle_alpha 90.000000
_cell_angle_beta 54.374540
_cell_angle_gamma 90.000000
_cell_volume 3124.442946
_symmetry_space_group_name_H-M "C 2/C"
_symmetry_group_IT_number 15
_symmetry_cell_setting 'monoclinic'
loop_
_space_group_symop_operation_xyz
x,y,z
-x,y,1/2-z
-x,-y,-z
x,-y,1/2+z
1/2+x,1/2+y,z
1/2-x,1/2+y,1/2-z
1/2-x,1/2-y,-z
1/2+x,1/2-y,1/2+z
loop_
_atom_site_type_symbol
_atom_site_label
_atom_site_fract_x
_atom_site_fract_y
_atom_site_fract_z
Si Si1 0.630009 0.488614 0.997090
Si Si2 0.978418 0.595642 0.111272
Si Si3 0.860432 0.411565 0.840737
Si Si4 0.943552 0.091568 0.568986
Si Si5 0.902395 0.650964 0.480225
Si Si6 0.273517 0.586732 0.262723
Si Si7 0.683936 0.916897 0.269019
Si Si8 0.654315 0.440199 0.175720
O O1 0.601024 0.327413 0.028972
O O2 0.645628 0.513590 0.085362
O O3 0.587880 0.595735 0.992702
O O4 0.684767 0.469539 0.868717
O O5 0.923107 0.551127 0.231894
O O6 0.960565 0.750797 0.087653
O O7 0.033629 0.609321 0.106884
O O8 0.000000 0.500000 0.000000
O O9 0.863469 0.419960 0.947826
O O10 0.821832 0.519504 0.827511
O O11 0.845137 0.239210 0.835871
O O12 0.898409 0.024119 0.694893
O O13 0.000000 0.000000 0.500000
O O14 0.875901 0.612874 0.611587
O O15 0.283403 0.761577 0.263885
O O16 0.214022 0.540131 0.295847
O O17 0.292413 0.501256 0.333167
#
# Coordination Sequence:
#
# PCOD9262995 Si02
#       8
#     8   8   8   8   8   8   8   8
#     4   9  19  38  60  84 113 150 194 231 275 336
#     4  11  20  35  58  84 120 151 183 229 280 333
#     4  10  21  37  60  86 112 151 192 232 276 342
#     4  10  19  33  59  84 116 153 190 225 272 334
#     4  10  20  37  61  83 114 153 189 231 282 334
#     4  10  22  39  61  82 112 150 185 242 286 337
#     4  11  22  40  60  82 114 147 191 237 288 338
#     4   9  20  37  59  86 113 147 192 234 279 333
#
# _framework density 20.483651999999999
#
# number of rings (size 3 to 8) (size 9 to 14) (size 15 to 20)
#    0.000    2.000    2.500    1.125    0.000    1.500 
#    2.250    5.000    2.750    0.000    0.000    0.000 
#    0.000    0.000    0.000    0.000    0.000    0.000 
#
# Total GULP energy -178557.462236 kJ/mol
# GULP energy per Si atom -5579.920695 kJ/mol
# Density = 2.043703 g / cm^3
# Si number density = 20.483652 Si / 1000 Ang^3
#
#
#
# Elastic Constant Matrix: (Units=GPa)
#
#
# Indices 1 2 3 4 5 6 
#
# 1 87.4959 24.7245 6.0283 0.0000 26.0341 0.0000
# 2 24.7245 29.7166 10.0959 0.0000 3.9610 0.0000
# 3 6.0283 10.0959 41.4419 0.0000 30.4043 0.0000
# 4 0.0000 0.0000 0.0000 20.0279 0.0000 -1.3510
# 5 26.0341 3.9610 30.4043 0.0000 36.9718 0.0000
# 6 0.0000 0.0000 0.0000 -1.3510 0.0000 24.0611
#
#
#
# Elastic Compliance Matrix: (Units=1/GPa)
#
#
# Indices 1 2 3 4 5 6 
#
# 1 0.040956 -0.043877 0.056575 0.000000 -0.070664 0.000000
# 2 -0.043877 0.084818 -0.076340 0.000000 0.084589 0.000000
# 3 0.056575 -0.076340 0.145526 0.000000 -0.151335 0.000000
# 4 0.000000 0.000000 0.000000 0.050120 0.000000 0.002814
# 5 -0.070664 0.084589 -0.151335 0.000000 0.192196 0.000000
# 6 0.000000 0.000000 0.000000 0.002814 0.000000 0.041719
#
#
# Mechanical properties :
#
#
# Convention : Reuss Voigt Hill
#
# Bulk Modulus (GPa) = 6.94369 26.70574 16.82471
# Shear Modulus (GPa) = 6.84346 24.06586 15.45466
#
# Velocity S-wave (km/s) = 1.82981 3.43137 2.74977
# Velocity P-wave (km/s) = 2.80383 5.36330 4.27940
#
# Compressibility (1/GPa) = 0.14401571
#
# Stress axis : x y z
#
# Youngs Moduli (GPa) = 24.41656 11.78996 6.87161
#
# Poissons Ratio (x) = 0.51731 -0.38876
# Poissons Ratio (y) = 1.07133 0.52458
# Poissons Ratio (z) = -1.38136 0.90004
#
# Static dielectric constant tensor:
#      x y z
#    x 1.752810 0.000000 0.000160 
#    y 0.000000 1.705740 0.000000 
#    z 0.000160 0.000000 1.734070 
# 
# From -- ./inp_files/176575.got.cif
#   From: 2010.05.17/outbox.cif.g08.bks.cpg/sg15_89_cif.got.tgz:176575.got - 2010.06.03 18:47:42.
