data_PCOD9262723
_publ_section_title
;
Structure prediction by ZEFSAII (Michael W. Deem and Ramdas Pophale) SiO2 
 PCOD9262723
Probable space group: C 2/C
;
_chemical_formula_sum "Si O2"
_cell_formula_units_Z 48
_cell_length_a 22.648831
_cell_length_b 14.242704
_cell_length_c 15.098594
_cell_angle_alpha 90.000000
_cell_angle_beta 151.479741
_cell_angle_gamma 90.000000
_cell_volume 2325.521466
_symmetry_space_group_name_H-M "C 2/C"
_symmetry_group_IT_number 15
_symmetry_cell_setting 'monoclinic'
loop_
_space_group_symop_operation_xyz
x,y,z
-x,y,1/2-z
-x,-y,-z
x,-y,1/2+z
1/2+x,1/2+y,z
1/2-x,1/2+y,1/2-z
1/2-x,1/2-y,-z
1/2+x,1/2-y,1/2+z
loop_
_atom_site_type_symbol
_atom_site_label
_atom_site_fract_x
_atom_site_fract_y
_atom_site_fract_z
Si Si1 0.058683 0.813520 0.232229
Si Si2 0.318661 0.243536 0.856375
Si Si3 0.635139 0.922123 0.419034
Si Si4 0.320302 0.130234 0.035436
Si Si5 0.354683 0.910567 0.864434
Si Si6 0.344791 0.099182 0.744029
O O1 0.173869 0.877403 0.358910
O O2 0.119501 0.710232 0.324595
O O3 0.000000 0.839661 0.250000
O O4 0.944752 0.803602 0.015746
O O5 0.340209 0.168080 0.962726
O O6 0.212091 0.313574 0.747919
O O7 0.295336 0.183944 0.738538
O O8 0.500000 0.876299 0.250000
O O9 0.685473 0.924124 0.585139
O O10 0.699503 0.885116 0.415331
O O11 0.618883 0.030859 0.369565
O O12 0.314660 0.998639 0.750652
O O13 0.503731 0.900531 0.056020
#
# Coordination Sequence:
#
# PCOD9262723 Si02
#       6
#     8   8   8   8   8   8
#     4   9  20  30  51  83 113 148 182 236 300 340
#     4  11  20  36  56  84 118 148 192 237 290 344
#     4  10  20  36  57  84 113 146 197 238 278 338
#     4  10  19  33  55  82 115 144 186 247 288 339
#     4  10  22  37  59  87 115 150 195 240 285 343
#     4  10  22  36  60  86 113 154 193 238 288 342
#
# _framework density 20.640532
#
# number of rings (size 3 to 8) (size 9 to 14) (size 15 to 20)
#    0.000    2.000    1.667    2.500   11.667    0.667 
#    0.000    0.833    0.000    0.000    0.000    0.000 
#    0.000    0.000    0.000    0.000    0.000    0.000 
#
# Total GULP energy -133843.557461 kJ/mol
# GULP energy per Si atom -5576.814894 kJ/mol
# Density = 2.059355 g / cm^3
# Si number density = 20.640532 Si / 1000 Ang^3
#
#
#
# Elastic Constant Matrix: (Units=GPa)
#
#
# Indices 1 2 3 4 5 6 
#
# 1 113.8423 19.4678 24.6394 0.0000 -12.8487 0.0000
# 2 19.4678 38.2196 -2.7716 0.0000 -0.4044 0.0000
# 3 24.6394 -2.7716 22.6658 0.0000 -0.7933 0.0000
# 4 0.0000 0.0000 0.0000 11.9014 0.0000 -2.5544
# 5 -12.8487 -0.4044 -0.7933 0.0000 40.4533 0.0000
# 6 0.0000 0.0000 0.0000 -2.5544 0.0000 22.0011
#
#
#
# Elastic Compliance Matrix: (Units=1/GPa)
#
#
# Indices 1 2 3 4 5 6 
#
# 1 0.014217 -0.008383 -0.016337 0.000000 0.004112 0.000000
# 2 -0.008383 0.031346 0.012873 0.000000 -0.002097 0.000000
# 3 -0.016337 0.012873 0.063319 0.000000 -0.003818 0.000000
# 4 0.000000 0.000000 0.000000 0.086171 0.000000 0.010005
# 5 0.004112 -0.002097 -0.003818 0.000000 0.025930 0.000000
# 6 0.000000 0.000000 0.000000 0.010005 0.000000 0.046614
#
#
# Mechanical properties :
#
#
# Convention : Reuss Voigt Hill
#
# Bulk Modulus (GPa) = 11.73871 28.59986 20.16928
# Shear Modulus (GPa) = 15.64028 23.76398 19.70213
#
# Velocity S-wave (km/s) = 2.75570 3.39680 3.09291
# Velocity P-wave (km/s) = 3.97804 5.41023 4.74844
#
# Compressibility (1/GPa) = 0.08518824
#
# Stress axis : x y z
#
# Youngs Moduli (GPa) = 70.33588 31.90206 15.79308
#
# Poissons Ratio (x) = 0.26744 0.25801
# Poissons Ratio (y) = 0.58963 -0.20330
# Poissons Ratio (z) = 1.14905 -0.41067
#
# Static dielectric constant tensor:
#      x y z
#    x 1.816990 0.000000 -0.019010 
#    y 0.000000 1.729390 0.000000 
#    z -0.019010 0.000000 1.767850 
# 
# From -- ./inp_files/113540.got.cif
#   From: 2010.05.17/outbox.cif.g08.bks.cpg/sg15_57_cif.got.tgz:113540.got - 2010.06.03 18:47:42.
