data_PCOD9262386
_publ_section_title
;
Structure prediction by ZEFSAII (Michael W. Deem and Ramdas Pophale) SiO2 
 PCOD9262386
Probable space group: C 2/C
;
_chemical_formula_sum "Si O2"
_cell_formula_units_Z 64
_cell_length_a 24.138299
_cell_length_b 25.240179
_cell_length_c 11.545625
_cell_angle_alpha 90.000000
_cell_angle_beta 146.010925
_cell_angle_gamma 90.000000
_cell_volume 3932.379250
_symmetry_space_group_name_H-M "C 2/C"
_symmetry_group_IT_number 15
_symmetry_cell_setting 'monoclinic'
loop_
_space_group_symop_operation_xyz
x,y,z
-x,y,1/2-z
-x,-y,-z
x,-y,1/2+z
1/2+x,1/2+y,z
1/2-x,1/2+y,1/2-z
1/2-x,1/2-y,-z
1/2+x,1/2-y,1/2+z
loop_
_atom_site_type_symbol
_atom_site_label
_atom_site_fract_x
_atom_site_fract_y
_atom_site_fract_z
Si Si1 0.191078 0.726041 0.573472
Si Si2 0.116238 0.559979 0.206228
Si Si3 0.901196 0.361146 0.006589
Si Si4 0.122733 0.559913 0.692786
Si Si5 0.617765 0.112741 0.450311
Si Si6 0.398712 0.762624 0.838888
Si Si7 0.290993 0.165101 0.541662
Si Si8 0.114090 0.231174 0.175199
O O1 0.176865 0.665236 0.585384
O O2 0.305847 0.739335 0.749040
O O3 0.137189 0.729932 0.355439
O O4 0.139910 0.761928 0.583452
O O5 0.147407 0.589329 0.143042
O O6 0.150810 0.499582 0.275622
O O7 0.144530 0.592165 0.369823
O O8 0.995750 0.562864 0.990032
O O9 0.924246 0.318077 0.946734
O O10 0.829032 0.336455 0.975936
O O11 0.000000 0.375319 0.250000
O O12 0.134698 0.568403 0.576296
O O13 0.178779 0.608510 0.851765
O O14 0.500000 0.125804 0.250000
O O15 0.498446 0.728601 0.003953
O O16 0.176960 0.183281 0.338875
O O17 0.346376 0.213550 0.701326
#
# Coordination Sequence:
#
# PCOD9262386 Si02
#       8
#     8   8   8   8   8   8   8   8
#     4  11  21  34  54  76 107 140 178 216 266 317
#     4  10  21  31  50  72 103 140 173 212 265 315
#     4  12  20  33  50  74 110 144 169 213 262 318
#     4  10  20  33  48  74 102 137 177 214 256 323
#     4  10  19  33  50  71 104 139 171 213 263 315
#     4  11  22  35  52  79 107 141 180 217 260 320
#     4  11  22  33  51  74 109 139 175 208 265 316
#     4  11  21  36  53  77 106 146 175 217 262 318
#
# _framework density 16.275134999999999
#
# number of rings (size 3 to 8) (size 9 to 14) (size 15 to 20)
#    0.000    1.250    6.250    1.125    1.750    0.500 
#    0.000    0.000    0.000    0.000    0.000    0.875 
#    3.750    0.000    0.000    0.000    0.000    0.000 
#
# Total GULP energy -178430.684216 kJ/mol
# GULP energy per Si atom -5575.958882 kJ/mol
# Density = 1.623809 g / cm^3
# Si number density = 16.275135 Si / 1000 Ang^3
#
#
#
# Elastic Constant Matrix: (Units=GPa)
#
#
# Indices 1 2 3 4 5 6 
#
# 1 62.7443 14.9391 25.4231 0.0000 -10.0522 0.0000
# 2 14.9391 77.6924 27.5432 0.0000 -6.3275 0.0000
# 3 25.4231 27.5432 59.0230 0.0000 1.2943 0.0000
# 4 0.0000 0.0000 0.0000 25.5805 0.0000 -2.4099
# 5 -10.0522 -6.3275 1.2943 0.0000 24.9627 0.0000
# 6 0.0000 0.0000 0.0000 -2.4099 0.0000 15.2375
#
#
#
# Elastic Compliance Matrix: (Units=1/GPa)
#
#
# Indices 1 2 3 4 5 6 
#
# 1 0.021151 -0.000042 -0.009288 0.000000 0.008988 0.000000
# 2 -0.000042 0.015895 -0.007496 0.000000 0.004401 0.000000
# 3 -0.009288 -0.007496 0.024593 0.000000 -0.006915 0.000000
# 4 0.000000 0.000000 0.000000 0.039684 0.000000 0.006276
# 5 0.008988 0.004401 -0.006915 0.000000 0.045153 0.000000
# 6 0.000000 0.000000 0.000000 0.006276 0.000000 0.066620
#
#
# Mechanical properties :
#
#
# Convention : Reuss Voigt Hill
#
# Bulk Modulus (GPa) = 35.73076 37.25226 36.49151
# Shear Modulus (GPa) = 19.52539 21.92642 20.72591
#
# Velocity S-wave (km/s) = 3.46744 3.67445 3.57244
# Velocity P-wave (km/s) = 6.16706 6.39851 6.28385
#
# Compressibility (1/GPa) = 0.02798709
#
# Stress axis : x y z
#
# Youngs Moduli (GPa) = 47.27900 62.91212 40.66252
#
# Poissons Ratio (x) = 0.00266 0.37766
# Poissons Ratio (y) = 0.00200 0.30480
# Poissons Ratio (z) = 0.43912 0.47158
#
# Static dielectric constant tensor:
#      x y z
#    x 1.574730 0.000000 -0.016710 
#    y 0.000000 1.546180 0.000000 
#    z -0.016710 0.000000 1.551050 
# 
# From -- ./inp_files/120257.got.cif
#   From: 2010.05.17/outbox.cif.g08.bks.cpg/sg15_61_cif.got.tgz:120257.got - 2010.06.03 18:47:42.
