data_PCOD9262787
_publ_section_title
;
Structure prediction by ZEFSAII (Michael W. Deem and Ramdas Pophale) SiO2 
 PCOD9262787
Probable space group: C 2/C
;
_chemical_formula_sum "Si O2"
_cell_formula_units_Z 48
_cell_length_a 11.436963
_cell_length_b 12.405180
_cell_length_c 16.480485
_cell_angle_alpha 90.000000
_cell_angle_beta 83.839281
_cell_angle_gamma 90.000000
_cell_volume 2324.707704
_symmetry_space_group_name_H-M "C 2/C"
_symmetry_group_IT_number 15
_symmetry_cell_setting 'monoclinic'
loop_
_space_group_symop_operation_xyz
x,y,z
-x,y,1/2-z
-x,-y,-z
x,-y,1/2+z
1/2+x,1/2+y,z
1/2-x,1/2+y,1/2-z
1/2-x,1/2-y,-z
1/2+x,1/2-y,1/2+z
loop_
_atom_site_type_symbol
_atom_site_label
_atom_site_fract_x
_atom_site_fract_y
_atom_site_fract_z
Si Si1 0.853437 0.342127 0.087127
Si Si2 0.913701 0.342700 0.526428
Si Si3 0.625701 0.859492 0.229629
Si Si4 0.282679 0.610570 0.059295
Si Si5 0.800329 0.867822 0.077025
Si Si6 0.543278 0.910000 0.665417
O O1 0.831065 0.372532 0.181675
O O2 0.858624 0.212423 0.078363
O O3 0.753399 0.383922 0.032840
O O4 0.980870 0.373775 0.041934
O O5 0.903444 0.215818 0.549343
O O6 0.792809 0.368405 0.490333
O O7 0.939601 0.404910 0.607697
O O8 0.500000 0.797913 0.250000
O O9 0.726942 0.822257 0.160304
O O10 0.586909 0.972586 0.191341
O O11 0.330783 0.494198 0.082911
O O12 0.157938 0.634824 0.112989
O O13 0.500000 0.852272 0.750000
#
# Coordination Sequence:
#
# PCOD9262787 Si02
#       6
#     8   8   8   8   8   8
#     4  10  20  37  57  81 111 146 186 227 268 333
#     4  10  21  36  55  80 116 142 184 226 274 329
#     4  10  19  33  56  81 106 140 185 231 271 312
#     4   9  21  36  56  79 110 151 182 219 281 325
#     4  10  21  36  54  84 110 149 180 226 276 324
#     4   9  20  33  54  83 105 142 181 230 274 312
#
# _framework density 20.647758
#
# number of rings (size 3 to 8) (size 9 to 14) (size 15 to 20)
#    0.000    2.333    1.667    0.000    7.000    2.667 
#    0.000    0.000    0.000    1.000    0.000    0.000 
#    0.000    0.000    0.000    0.000    0.000    0.000 
#
# Total GULP energy -133744.966535 kJ/mol
# GULP energy per Si atom -5572.706939 kJ/mol
# Density = 2.060076 g / cm^3
# Si number density = 20.647758 Si / 1000 Ang^3
#
#
#
# Elastic Constant Matrix: (Units=GPa)
#
#
# Indices 1 2 3 4 5 6 
#
# 1 23.3486 9.1473 28.2826 0.0000 3.7420 0.0000
# 2 9.1473 94.8771 23.8572 0.0000 2.1148 0.0000
# 3 28.2826 23.8572 172.2885 0.0000 9.1251 0.0000
# 4 0.0000 0.0000 0.0000 18.6716 0.0000 -2.7603
# 5 3.7420 2.1148 9.1251 0.0000 23.0605 0.0000
# 6 0.0000 0.0000 0.0000 -2.7603 0.0000 17.7226
#
#
#
# Elastic Compliance Matrix: (Units=1/GPa)
#
#
# Indices 1 2 3 4 5 6 
#
# 1 0.054965 -0.003090 -0.008312 0.000000 -0.005347 0.000000
# 2 -0.003090 0.011098 -0.001024 0.000000 -0.000111 0.000000
# 3 -0.008312 -0.001024 0.007389 0.000000 -0.001481 0.000000
# 4 0.000000 0.000000 0.000000 0.054819 0.000000 0.008538
# 5 -0.005347 -0.000111 -0.001481 0.000000 0.044828 0.000000
# 6 0.000000 0.000000 0.000000 0.008538 0.000000 0.057755
#
#
# Mechanical properties :
#
#
# Convention : Reuss Voigt Hill
#
# Bulk Modulus (GPa) = 20.57593 45.89872 33.23733
# Shear Modulus (GPa) = 18.38876 27.17275 22.78076
#
# Velocity S-wave (km/s) = 2.98752 3.63163 3.32521
# Velocity P-wave (km/s) = 4.67838 6.31368 5.55652
#
# Compressibility (1/GPa) = 0.04860047
#
# Stress axis : x y z
#
# Youngs Moduli (GPa) = 18.19343 90.10848 135.33874
#
# Poissons Ratio (x) = 0.27844 1.12492
# Poissons Ratio (y) = 0.05622 0.13853
# Poissons Ratio (z) = 0.15122 0.09223
#
# Static dielectric constant tensor:
#      x y z
#    x 1.804610 0.000000 -0.039730 
#    y 0.000000 1.803280 0.000000 
#    z -0.039730 0.000000 1.804870 
# 
# From -- ./inp_files/143620.got.cif
#   From: 2010.05.17/outbox.cif.g08.bks.cpg/sg15_72_cif.got.tgz:143620.got - 2010.06.03 18:47:42.
