data_PCOD9262319
_publ_section_title
;
Structure prediction by ZEFSAII (Michael W. Deem and Ramdas Pophale) SiO2 
 PCOD9262319
Probable space group: C 2/C
;
_chemical_formula_sum "Si O2"
_cell_formula_units_Z 40
_cell_length_a 19.248704
_cell_length_b 6.035238
_cell_length_c 14.665635
_cell_angle_alpha 90.000000
_cell_angle_beta 110.445990
_cell_angle_gamma 90.000000
_cell_volume 1596.383526
_symmetry_space_group_name_H-M "C 2/C"
_symmetry_group_IT_number 15
_symmetry_cell_setting 'monoclinic'
loop_
_space_group_symop_operation_xyz
x,y,z
-x,y,1/2-z
-x,-y,-z
x,-y,1/2+z
1/2+x,1/2+y,z
1/2-x,1/2+y,1/2-z
1/2-x,1/2-y,-z
1/2+x,1/2-y,1/2+z
loop_
_atom_site_type_symbol
_atom_site_label
_atom_site_fract_x
_atom_site_fract_y
_atom_site_fract_z
Si Si1 0.656393 0.989030 0.145427
Si Si2 0.292083 0.740764 0.661834
Si Si3 0.971272 0.813511 0.420213
Si Si4 0.066558 0.480718 0.852669
Si Si5 0.904250 0.869580 0.743569
O O1 0.706555 0.128255 0.241132
O O2 0.601884 0.178208 0.082372
O O3 0.707085 0.830942 0.105531
O O4 0.609633 0.824092 0.188957
O O5 0.351456 0.884075 0.630815
O O6 0.331149 0.502952 0.684818
O O7 0.034964 0.635535 0.427459
O O8 0.950077 0.944987 0.318031
O O9 0.000000 0.000000 0.500000
O O10 0.070723 0.743981 0.836915
O O11 0.000000 0.426425 0.750000
#
# Coordination Sequence:
#
# PCOD9262319 Si02
#       5
#     8   8   8   8   8
#     4  10  19  34  59  91 120 163 209 256 318 365
#     4  10  19  32  59  94 118 153 216 268 301 362
#     4  11  25  41  60  94 132 165 203 256 327 384
#     4  11  21  35  60  94 115 162 214 257 311 363
#     4  10  20  35  63  85 123 156 210 262 297 371
#
# _framework density 25.056636999999998
#
# number of rings (size 3 to 8) (size 9 to 14) (size 15 to 20)
#    0.000    1.600    8.000    0.000    2.800    0.800 
#    0.000    1.000    0.000    2.400    0.000    0.000 
#    0.000    0.000    0.000    0.000    0.000    0.000 
#
# Total GULP energy -111566.834853 kJ/mol
# GULP energy per Si atom -5578.341743 kJ/mol
# Density = 2.499961 g / cm^3
# Si number density = 25.056637 Si / 1000 Ang^3
#
#
#
# Elastic Constant Matrix: (Units=GPa)
#
#
# Indices 1 2 3 4 5 6 
#
# 1 142.9093 39.7356 18.4399 0.0000 8.0114 0.0000
# 2 39.7356 121.9124 19.4605 0.0000 10.7852 0.0000
# 3 18.4399 19.4605 44.3913 0.0000 2.4961 0.0000
# 4 0.0000 0.0000 0.0000 50.5716 0.0000 7.4090
# 5 8.0114 10.7852 2.4961 0.0000 11.2747 0.0000
# 6 0.0000 0.0000 0.0000 7.4090 0.0000 59.3887
#
#
#
# Elastic Compliance Matrix: (Units=1/GPa)
#
#
# Indices 1 2 3 4 5 6 
#
# 1 0.008023 -0.001956 -0.002288 0.000000 -0.003323 0.000000
# 2 -0.001956 0.010005 -0.003153 0.000000 -0.007483 0.000000
# 3 -0.002288 -0.003153 0.024909 0.000000 -0.000872 0.000000
# 4 0.000000 0.000000 0.000000 0.020142 0.000000 -0.002513
# 5 -0.003323 -0.007483 -0.000872 0.000000 0.098407 0.000000
# 6 0.000000 0.000000 0.000000 -0.002513 0.000000 0.017152
#
#
# Mechanical properties :
#
#
# Convention : Reuss Voigt Hill
#
# Bulk Modulus (GPa) = 35.53311 51.60942 43.57127
# Shear Modulus (GPa) = 24.65326 39.68547 32.16936
#
# Velocity S-wave (km/s) = 3.14012 3.98405 3.58699
# Velocity P-wave (km/s) = 5.23059 6.46571 5.88067
#
# Compressibility (1/GPa) = 0.02814277
#
# Stress axis : x y z
#
# Youngs Moduli (GPa) = 124.64498 99.94647 40.14636
#
# Poissons Ratio (x) = 0.19546 0.09187
# Poissons Ratio (y) = 0.24376 0.12658
# Poissons Ratio (z) = 0.28524 0.31514
#
# Static dielectric constant tensor:
#      x y z
#    x 2.103120 0.000000 0.023200 
#    y 0.000000 1.935920 0.000000 
#    z 0.023200 0.000000 2.150350 
# 
# From -- ./inp_files/212592.got.cif
#   From: 2010.05.17/outbox.cif.g08.bks.cpg/sg15_107_cif.got.tgz:212592.got - 2010.06.03 18:47:42.
