data_PCOD9262094
_publ_section_title
;
Structure prediction by ZEFSAII (Michael W. Deem and Ramdas Pophale) SiO2 
 PCOD9262094
Probable space group: C 2/C
;
_chemical_formula_sum "Si O2"
_cell_formula_units_Z 56
_cell_length_a 8.295006
_cell_length_b 26.967074
_cell_length_c 15.288248
_cell_angle_alpha 90.000000
_cell_angle_beta 123.400770
_cell_angle_gamma 90.000000
_cell_volume 2855.037007
_symmetry_space_group_name_H-M "C 2/C"
_symmetry_group_IT_number 15
_symmetry_cell_setting 'monoclinic'
loop_
_space_group_symop_operation_xyz
x,y,z
-x,y,1/2-z
-x,-y,-z
x,-y,1/2+z
1/2+x,1/2+y,z
1/2-x,1/2+y,1/2-z
1/2-x,1/2-y,-z
1/2+x,1/2-y,1/2+z
loop_
_atom_site_type_symbol
_atom_site_label
_atom_site_fract_x
_atom_site_fract_y
_atom_site_fract_z
Si Si1 0.119492 0.051622 0.370511
Si Si2 0.318239 0.438360 0.133454
Si Si3 0.173355 0.323780 0.927047
Si Si4 0.456806 0.127278 0.514216
Si Si5 0.498855 0.718769 0.847526
Si Si6 0.689068 0.163317 0.861382
Si Si7 0.051716 0.095185 0.017690
O O1 0.286254 0.089600 0.443694
O O2 0.986120 0.055297 0.417653
O O3 0.000000 0.067746 0.250000
O O4 0.204998 0.997735 0.372971
O O5 0.500000 0.426943 0.250000
O O6 0.135433 0.405076 0.105022
O O7 0.361006 0.426363 0.045046
O O8 0.296699 0.362085 0.905061
O O9 0.068195 0.275522 0.859135
O O10 0.018680 0.351311 0.940085
O O11 0.334933 0.305851 0.044661
O O12 0.392038 0.169595 0.563873
O O13 0.500000 0.697084 0.750000
O O14 0.301617 0.706674 0.841707
O O15 0.500000 0.148738 0.750000
O O16 0.852319 0.121291 0.925920
#
# Coordination Sequence:
#
# PCOD9262094 Si02
#       7
#     8   8   8   8   8   8   8
#     4  10  21  35  52  78 112 147 181 219 263 317
#     4  10  19  34  57  82 108 141 180 223 272 324
#     4   9  20  36  54  75 100 137 179 217 264 326
#     4  10  20  35  54  78 109 140 177 223 271 321
#     4  10  20  35  54  75 102 136 175 221 272 325
#     4  10  19  32  53  81 106 132 172 226 279 325
#     4   9  19  35  55  77 107 143 180 221 266 321
#
# _framework density 19.614456000000001
#
# number of rings (size 3 to 8) (size 9 to 14) (size 15 to 20)
#    0.000    2.286    0.000    2.571    0.000    5.714 
#    0.000    5.714    0.000   12.000    0.000    0.000 
#    0.000    0.000    0.000    0.000    0.000    0.000 
#
# Total GULP energy -155941.933110 kJ/mol
# GULP energy per Si atom -5569.354754 kJ/mol
# Density = 1.956981 g / cm^3
# Si number density = 19.614456 Si / 1000 Ang^3
#
#
#
# Elastic Constant Matrix: (Units=GPa)
#
#
# Indices 1 2 3 4 5 6 
#
# 1 82.6035 12.4422 28.0848 0.0000 3.2946 0.0000
# 2 12.4422 50.6105 13.9767 0.0000 6.2671 0.0000
# 3 28.0848 13.9767 77.6934 0.0000 -0.4266 0.0000
# 4 0.0000 0.0000 0.0000 -28.3695 0.0000 -15.5321
# 5 3.2946 6.2671 -0.4266 0.0000 18.1945 0.0000
# 6 0.0000 0.0000 0.0000 -15.5321 0.0000 12.7673
#
#
#
# Elastic Compliance Matrix: (Units=1/GPa)
#
#
# Indices 1 2 3 4 5 6 
#
# 1 0.014092 -0.001900 -0.004763 0.000000 -0.002009 0.000000
# 2 -0.001900 0.022050 -0.003320 0.000000 -0.007329 0.000000
# 3 -0.004763 -0.003320 0.015203 0.000000 0.002363 0.000000
# 4 0.000000 0.000000 0.000000 -0.021157 0.000000 -0.025739
# 5 -0.002009 -0.007329 0.002363 0.000000 0.057905 0.000000
# 6 0.000000 0.000000 0.000000 -0.025739 0.000000 0.047012
#
#
# Mechanical properties :
#
#
# Convention : Reuss Voigt Hill
#
# Bulk Modulus (GPa) = 31.86910 35.54610 33.70760
# Shear Modulus (GPa) = 30.20565 10.94538 20.57551
#
# Velocity S-wave (km/s) = 3.92850 2.36482 3.24234
# Velocity P-wave (km/s) = 6.07129 5.06145 5.58922
#
# Compressibility (1/GPa) = 0.03137836
#
# Stress axis : x y z
#
# Youngs Moduli (GPa) = 70.96317 45.35081 65.77587
#
# Poissons Ratio (x) = 0.08618 0.31330
# Poissons Ratio (y) = 0.13485 0.21838
# Poissons Ratio (z) = 0.33801 0.15057
#
# Static dielectric constant tensor:
#      x y z
#    x 1.751070 0.000000 -0.015180 
#    y 0.000000 1.718770 0.000000 
#    z -0.015180 0.000000 1.711170 
# 
# From -- ./inp_files/138680.got.cif
#   From: 2010.05.17/outbox.cif.g08.bks.cpg/sg15_70_cif.got.tgz:138680.got - 2010.06.03 18:47:42.
