data_PCOD9262502
_publ_section_title
;
Structure prediction by ZEFSAII (Michael W. Deem and Ramdas Pophale) SiO2 
 PCOD9262502
Probable space group: C 2/C
;
_chemical_formula_sum "Si O2"
_cell_formula_units_Z 48
_cell_length_a 5.191154
_cell_length_b 30.408668
_cell_length_c 13.590810
_cell_angle_alpha 90.000000
_cell_angle_beta 115.268173
_cell_angle_gamma 90.000000
_cell_volume 1940.120441
_symmetry_space_group_name_H-M "C 2/C"
_symmetry_group_IT_number 15
_symmetry_cell_setting 'monoclinic'
loop_
_space_group_symop_operation_xyz
x,y,z
-x,y,1/2-z
-x,-y,-z
x,-y,1/2+z
1/2+x,1/2+y,z
1/2-x,1/2+y,1/2-z
1/2-x,1/2-y,-z
1/2+x,1/2-y,1/2+z
loop_
_atom_site_type_symbol
_atom_site_label
_atom_site_fract_x
_atom_site_fract_y
_atom_site_fract_z
Si Si1 0.288586 0.567511 0.636766
Si Si2 0.913392 0.247104 0.422828
Si Si3 0.068028 0.659003 0.593070
Si Si4 0.228514 0.531020 0.879145
Si Si5 0.409144 0.652807 0.446978
Si Si6 0.333634 0.437565 0.824380
O O1 0.500000 0.545225 0.750000
O O2 0.201992 0.615493 0.661873
O O3 0.515144 0.566030 0.585818
O O4 0.993277 0.542571 0.570173
O O5 0.750000 0.250000 0.500000
O O6 0.838669 0.292602 0.355383
O O7 0.857591 0.197886 0.375929
O O8 0.250000 0.250000 0.500000
O O9 0.177034 0.653132 0.497386
O O10 0.727524 0.657177 0.543229
O O11 0.359083 0.482563 0.891397
O O12 0.000000 0.536006 0.750000
O O13 0.408772 0.609188 0.382921
O O14 0.500000 0.443307 0.750000
O O15 0.000000 0.435120 0.750000
#
# Coordination Sequence:
#
# PCOD9262502 Si02
#       6
#     8   8   8   8   8   8
#     4  10  19  33  53  76 102 135 173 210 249 301
#     4   8  16  31  52  72  99 137 169 195 247 317
#     4  10  19  34  54  78 105 137 171 210 255 306
#     4   9  18  33  51  71  99 138 174 201 249 316
#     4  10  20  35  54  78 104 135 173 213 256 306
#     4  11  21  36  56  77 101 136 176 215 255 304
#
# _framework density 24.740732000000001
#
# number of rings (size 3 to 8) (size 9 to 14) (size 15 to 20)
#    0.000    2.333    0.000    4.500    0.000    0.000 
#    0.000    5.833    0.000    3.000    0.000    0.000 
#    0.000    0.000    0.000    0.000    0.000    0.000 
#
# Total GULP energy -133913.974001 kJ/mol
# GULP energy per Si atom -5579.748917 kJ/mol
# Density = 2.468442 g / cm^3
# Si number density = 24.740732 Si / 1000 Ang^3
#
#
#
# Elastic Constant Matrix: (Units=GPa)
#
#
# Indices 1 2 3 4 5 6 
#
# 1 174.1929 27.9345 8.6182 0.0000 19.9924 0.0000
# 2 27.9345 222.2309 24.2939 0.0000 -0.9673 0.0000
# 3 8.6182 24.2939 22.7819 0.0000 -2.2509 0.0000
# 4 0.0000 0.0000 0.0000 18.8270 0.0000 3.8876
# 5 19.9924 -0.9673 -2.2509 0.0000 19.9924 0.0000
# 6 0.0000 0.0000 0.0000 3.8876 0.0000 36.4467
#
#
#
# Elastic Compliance Matrix: (Units=1/GPa)
#
#
# Indices 1 2 3 4 5 6 
#
# 1 0.006782 -0.000596 -0.002633 0.000000 -0.007108 0.000000
# 2 -0.000596 0.005149 -0.005240 0.000000 0.000255 0.000000
# 3 -0.002633 -0.005240 0.051283 0.000000 0.008153 0.000000
# 4 0.000000 0.000000 0.000000 0.054311 0.000000 -0.005793
# 5 -0.007108 0.000255 0.008153 0.000000 0.058057 0.000000
# 6 0.000000 0.000000 0.000000 -0.005793 0.000000 0.028055
#
#
# Mechanical properties :
#
#
# Convention : Reuss Voigt Hill
#
# Bulk Modulus (GPa) = 21.60854 60.09990 40.85422
# Shear Modulus (GPa) = 21.18642 38.94383 30.06512
#
# Velocity S-wave (km/s) = 2.92950 3.97177 3.48976
# Velocity P-wave (km/s) = 4.49395 6.73631 5.72597
#
# Compressibility (1/GPa) = 0.04627801
#
# Stress axis : x y z
#
# Youngs Moduli (GPa) = 147.44302 194.22688 19.49945
#
# Poissons Ratio (x) = 0.11570 0.05134
# Poissons Ratio (y) = 0.08783 0.10217
# Poissons Ratio (z) = 0.38818 1.01771
#
# Static dielectric constant tensor:
#      x y z
#    x 2.064940 0.000000 -0.118530 
#    y 0.000000 2.075620 0.000000 
#    z -0.118530 0.000000 2.055890 
# 
# From -- ./inp_files/228386.got.cif
#   From: 2010.05.17/outbox.cif.g08.bks.cpg/sg15_115_cif.got.tgz:228386.got - 2010.06.03 18:47:42.
