data_PCOD9262170
_publ_section_title
;
Structure prediction by ZEFSAII (Michael W. Deem and Ramdas Pophale) SiO2 
 PCOD9262170
Probable space group: C 2/C
;
_chemical_formula_sum "Si O2"
_cell_formula_units_Z 44
_cell_length_a 6.392856
_cell_length_b 25.015577
_cell_length_c 19.247684
_cell_angle_alpha 90.000000
_cell_angle_beta 39.578949
_cell_angle_gamma 90.000000
_cell_volume 1961.188686
_symmetry_space_group_name_H-M "C 2/C"
_symmetry_group_IT_number 15
_symmetry_cell_setting 'monoclinic'
loop_
_space_group_symop_operation_xyz
x,y,z
-x,y,1/2-z
-x,-y,-z
x,-y,1/2+z
1/2+x,1/2+y,z
1/2-x,1/2+y,1/2-z
1/2-x,1/2-y,-z
1/2+x,1/2-y,1/2+z
loop_
_atom_site_type_symbol
_atom_site_label
_atom_site_fract_x
_atom_site_fract_y
_atom_site_fract_z
Si Si1 0.707273 0.419017 0.933709
Si Si2 0.834384 0.020503 0.647766
Si Si3 0.000000 0.959051 0.250000
Si Si4 0.231214 0.228348 0.925697
Si Si5 0.541916 0.826603 0.559134
Si Si6 0.516023 0.130871 0.580939
O O1 0.775547 0.468978 0.867363
O O2 0.988085 0.376719 0.881175
O O3 0.577866 0.445139 0.038739
O O4 0.393108 0.388771 0.981485
O O5 0.500000 0.052213 0.750000
O O6 0.984113 0.007274 0.683940
O O7 0.698045 0.918855 0.340023
O O8 0.491208 0.179893 0.861745
O O9 0.234549 0.280908 0.876865
O O10 0.250000 0.250000 0.000000
O O11 0.880257 0.201626 0.997259
O O12 0.586593 0.848801 0.469075
#
# Coordination Sequence:
#
# PCOD9262170 Si02
#       6
#     8   8   4   8   8   8
#     4  10  21  36  58  83 115 155 200 240 301 355
#     4  11  23  38  54  84 118 156 199 248 292 358
#     4  12  22  34  54  84 130 154 200 252 302 342
#     4   8  16  30  53  86 111 138 192 233 300 361
#     4   9  16  32  56  86 109 145 189 244 290 359
#     4  10  19  32  54  87 115 153 191 246 299 356
#
# _framework density 22.435372000000001
#
# number of rings (size 3 to 8) (size 9 to 14) (size 15 to 20)
#    0.000    2.182    3.636    0.000    0.000    2.182 
#    0.000    0.000    0.000    0.000  108.727    0.000 
#    0.000    0.000    0.000    0.000    0.000    0.000 
#
# Total GULP energy -122609.542725 kJ/mol
# GULP energy per Si atom -5573.161033 kJ/mol
# Density = 2.238431 g / cm^3
# Si number density = 22.435372 Si / 1000 Ang^3
#
#
#
# Elastic Constant Matrix: (Units=GPa)
#
#
# Indices 1 2 3 4 5 6 
#
# 1 126.5263 43.3763 23.8033 0.0001 33.8640 0.0001
# 2 43.3763 103.7365 9.3941 0.0001 12.3988 -0.0001
# 3 23.8033 9.3941 46.8659 0.0000 16.0215 0.0014
# 4 0.0001 0.0001 0.0000 3.6117 0.0000 3.9149
# 5 33.8640 12.3988 16.0215 0.0000 25.4547 -0.0002
# 6 0.0001 -0.0001 0.0014 3.9149 -0.0002 79.3727
#
#
#
# Elastic Compliance Matrix: (Units=1/GPa)
#
#
# Indices 1 2 3 4 5 6 
#
# 1 0.013520 -0.003708 -0.000755 0.000000 -0.015706 0.000000
# 2 -0.003708 0.011260 -0.000236 0.000000 -0.000403 0.000000
# 3 -0.000755 -0.000236 0.027249 0.000001 -0.016032 -0.000001
# 4 0.000000 0.000000 0.000001 0.292518 -0.000001 -0.014428
# 5 -0.015706 -0.000403 -0.016032 -0.000001 0.070467 0.000001
# 6 0.000000 0.000000 -0.000001 -0.014428 0.000001 0.013310
#
#
# Mechanical properties :
#
#
# Convention : Reuss Voigt Hill
#
# Bulk Modulus (GPa) = 23.45655 47.80845 35.63250
# Shear Modulus (GPa) = 11.06364 35.05815 23.06090
#
# Velocity S-wave (km/s) = 2.22307 3.95730 3.20954
# Velocity P-wave (km/s) = 4.13125 6.49892 5.44533
#
# Compressibility (1/GPa) = 0.04263202
#
# Stress axis : x y z
#
# Youngs Moduli (GPa) = 73.96392 88.81190 36.69911
#
# Poissons Ratio (x) = 0.32930 0.02769
# Poissons Ratio (y) = 0.27424 0.00866
# Poissons Ratio (z) = 0.05581 0.02095
#
# Static dielectric constant tensor:
#      x y z
#    x 1.877400 0.000000 -0.015780 
#    y 0.000000 1.907320 0.000000 
#    z -0.015780 0.000000 1.903690 
# 
# From -- ./inp_files/129337.got.cif
#   From: 2010.05.17/outbox.cif.g08.bks.cpg/sg15_65_cif.got.tgz:129337.got - 2010.06.03 18:47:42.
