data_PCOD9262180
_publ_section_title
;
Structure prediction by ZEFSAII (Michael W. Deem and Ramdas Pophale) SiO2 
 PCOD9262180
Probable space group: C 2/C
;
_chemical_formula_sum "Si O2"
_cell_formula_units_Z 48
_cell_length_a 7.364865
_cell_length_b 16.265631
_cell_length_c 19.231893
_cell_angle_alpha 90.000000
_cell_angle_beta 78.606603
_cell_angle_gamma 90.000000
_cell_volume 2258.468623
_symmetry_space_group_name_H-M "C 2/C"
_symmetry_group_IT_number 15
_symmetry_cell_setting 'monoclinic'
loop_
_space_group_symop_operation_xyz
x,y,z
-x,y,1/2-z
-x,-y,-z
x,-y,1/2+z
1/2+x,1/2+y,z
1/2-x,1/2+y,1/2-z
1/2-x,1/2-y,-z
1/2+x,1/2-y,1/2+z
loop_
_atom_site_type_symbol
_atom_site_label
_atom_site_fract_x
_atom_site_fract_y
_atom_site_fract_z
Si Si1 0.605074 0.310797 0.043831
Si Si2 0.825344 0.062266 0.711682
Si Si3 0.302617 0.261459 0.172732
Si Si4 0.800767 0.883162 0.724797
Si Si5 0.062478 0.157925 0.088727
Si Si6 0.587137 0.516926 0.568066
O O1 0.496560 0.278101 0.119201
O O2 0.699593 0.398712 0.054647
O O3 0.750000 0.250000 0.000000
O O4 0.462247 0.324243 0.990521
O O5 0.736010 0.151952 0.710874
O O6 0.000000 0.072481 0.750000
O O7 0.918343 0.041166 0.630887
O O8 0.724774 0.976250 0.737517
O O9 0.308634 0.189161 0.229024
O O10 0.164236 0.228392 0.123687
O O11 0.000000 0.885942 0.750000
O O12 0.864350 0.858679 0.641894
O O13 0.167776 0.069597 0.087798
O O14 0.500000 0.500000 0.500000
#
# Coordination Sequence:
#
# PCOD9262180 Si02
#       6
#     8   8   8   8   8   8
#     4  10  20  33  52  80 109 138 175 218 264 316
#     4   9  17  30  51  78 105 138 177 216 268 331
#     4  10  19  32  55  81 104 139 180 220 267 319
#     4   8  16  31  52  75  99 133 178 221 261 312
#     4   9  17  34  56  75 101 137 179 220 260 318
#     4   8  16  32  54  75 100 141 182 211 256 326
#
# _framework density 21.253340000000001
#
# number of rings (size 3 to 8) (size 9 to 14) (size 15 to 20)
#    0.000    3.000    0.000    1.500    0.000    2.667 
#    0.000    0.833    0.000   41.000    0.000    0.000 
#    0.000    0.000    0.000    0.000    0.000    0.000 
#
# Total GULP energy -133617.374880 kJ/mol
# GULP energy per Si atom -5567.390620 kJ/mol
# Density = 2.120497 g / cm^3
# Si number density = 21.253340 Si / 1000 Ang^3
#
#
#
# Elastic Constant Matrix: (Units=GPa)
#
#
# Indices 1 2 3 4 5 6 
#
# 1 28.4231 31.2665 3.8571 0.0000 -1.2386 0.0000
# 2 31.2665 218.8206 49.2217 0.0000 -13.1314 0.0000
# 3 3.8571 49.2217 101.2214 0.0000 0.1182 0.0000
# 4 0.0000 0.0000 0.0000 42.4348 0.0000 2.3082
# 5 -1.2386 -13.1314 0.1182 0.0000 20.1617 0.0000
# 6 0.0000 0.0000 0.0000 2.3082 0.0000 16.6280
#
#
#
# Elastic Compliance Matrix: (Units=1/GPa)
#
#
# Indices 1 2 3 4 5 6 
#
# 1 0.041991 -0.006443 0.001535 0.000000 -0.001626 0.000000
# 2 -0.006443 0.006357 -0.002850 0.000000 0.003762 0.000000
# 3 0.001535 -0.002850 0.011209 0.000000 -0.001828 0.000000
# 4 0.000000 0.000000 0.000000 0.023745 0.000000 -0.003296
# 5 -0.001626 0.003762 -0.001828 0.000000 0.051960 0.000000
# 6 0.000000 0.000000 0.000000 -0.003296 0.000000 0.060597
#
#
# Mechanical properties :
#
#
# Convention : Reuss Voigt Hill
#
# Bulk Modulus (GPa) = 22.70627 57.46174 40.08401
# Shear Modulus (GPa) = 22.11844 33.45289 27.78566
#
# Velocity S-wave (km/s) = 3.22949 3.97168 3.61966
# Velocity P-wave (km/s) = 4.96115 6.93740 6.03078
#
# Compressibility (1/GPa) = 0.04404069
#
# Stress axis : x y z
#
# Youngs Moduli (GPa) = 23.81471 157.29636 89.21361
#
# Poissons Ratio (x) = 1.01342 -0.13692
# Poissons Ratio (y) = 0.15343 0.25429
# Poissons Ratio (z) = -0.03655 0.44835
#
# Static dielectric constant tensor:
#      x y z
#    x 1.781840 0.000000 -0.004360 
#    y 0.000000 1.886590 0.000000 
#    z -0.004360 0.000000 1.785670 
# 
# From -- ./inp_files/231081.got.cif
#   From: 2010.05.17/outbox.cif.g08.bks.cpg/sg15_116_cif.got.tgz:231081.got - 2010.06.03 18:47:42.
