data_PCOD9262157
_publ_section_title
;
Structure prediction by ZEFSAII (Michael W. Deem and Ramdas Pophale) SiO2 
 PCOD9262157
Probable space group: C 2/C
;
_chemical_formula_sum "Si O2"
_cell_formula_units_Z 48
_cell_length_a 13.678201
_cell_length_b 16.782816
_cell_length_c 13.888589
_cell_angle_alpha 90.000000
_cell_angle_beta 38.218440
_cell_angle_gamma 90.000000
_cell_volume 1972.444892
_symmetry_space_group_name_H-M "C 2/C"
_symmetry_group_IT_number 15
_symmetry_cell_setting 'monoclinic'
loop_
_space_group_symop_operation_xyz
x,y,z
-x,y,1/2-z
-x,-y,-z
x,-y,1/2+z
1/2+x,1/2+y,z
1/2-x,1/2+y,1/2-z
1/2-x,1/2-y,-z
1/2+x,1/2-y,1/2+z
loop_
_atom_site_type_symbol
_atom_site_label
_atom_site_fract_x
_atom_site_fract_y
_atom_site_fract_z
Si Si1 0.387300 0.254061 0.746971
Si Si2 0.936871 0.894575 0.551900
Si Si3 0.867127 0.334099 0.772796
Si Si4 0.906434 0.654487 0.019838
Si Si5 0.655205 0.482845 0.696562
Si Si6 0.357925 0.654499 0.782740
O O1 0.500000 0.266875 0.750000
O O2 0.207201 0.269788 0.915304
O O3 0.435226 0.170309 0.661977
O O4 0.201467 0.420587 0.926023
O O5 0.778687 0.894403 0.608597
O O6 0.919270 0.968790 0.638727
O O7 0.913503 0.822728 0.647271
O O8 0.072307 0.864092 0.376707
O O9 0.934482 0.344323 0.612528
O O10 0.793941 0.244171 0.836783
O O11 0.000000 0.343407 0.750000
O O12 0.500000 0.471512 0.750000
O O13 0.725466 0.571213 0.629086
O O14 0.500000 0.657755 0.750000
#
# Coordination Sequence:
#
# PCOD9262157 Si02
#       6
#     8   8   8   8   8   8
#     4  10  19  32  54  83 116 146 186 237 280 333
#     4  10  19  34  53  83 110 146 190 237 280 329
#     4   9  19  33  52  82 110 145 187 232 283 332
#     4  10  19  35  53  85 114 151 191 234 284 329
#     4   9  19  34  55  82 109 144 188 235 281 335
#     4  10  19  33  53  81 107 142 191 231 283 326
#
# _framework density 24.335280000000001
#
# number of rings (size 3 to 8) (size 9 to 14) (size 15 to 20)
#    0.000    2.667    1.667    3.000    0.000    2.667 
#    0.000    0.000    0.000    4.000    8.667    5.833 
#    0.000    0.000    0.000    0.000    0.000    0.000 
#
# Total GULP energy -133947.429509 kJ/mol
# GULP energy per Si atom -5581.142896 kJ/mol
# Density = 2.427989 g / cm^3
# Si number density = 24.335280 Si / 1000 Ang^3
#
#
#
# Elastic Constant Matrix: (Units=GPa)
#
#
# Indices 1 2 3 4 5 6 
#
# 1 165.6076 32.8597 23.6260 0.0004 1.9845 -0.0002
# 2 32.8597 52.3307 -10.9775 0.0002 2.2279 -0.0002
# 3 23.6260 -10.9775 47.9796 0.0009 4.6424 -0.0010
# 4 0.0004 0.0002 0.0009 7.2479 -0.0007 14.4415
# 5 1.9845 2.2279 4.6424 -0.0007 27.9705 0.0006
# 6 -0.0002 -0.0002 -0.0010 14.4415 0.0006 -1.4967
#
#
#
# Elastic Compliance Matrix: (Units=1/GPa)
#
#
# Indices 1 2 3 4 5 6 
#
# 1 0.008046 -0.006235 -0.005469 0.000000 0.000833 0.000000
# 2 -0.006235 0.025064 0.009101 0.000001 -0.003065 -0.000001
# 3 -0.005469 0.009101 0.026069 0.000002 -0.004664 -0.000003
# 4 0.000000 0.000001 0.000002 0.006821 -0.000002 0.065821
# 5 0.000833 -0.003065 -0.004664 -0.000002 0.036711 0.000003
# 6 0.000000 -0.000001 -0.000003 0.065821 0.000003 -0.033034
#
#
# Mechanical properties :
#
#
# Convention : Reuss Voigt Hill
#
# Bulk Modulus (GPa) = 18.52779 39.65937 29.09358
# Shear Modulus (GPa) = 53.83713 21.43833 37.63773
#
# Velocity S-wave (km/s) = 4.70862 2.97131 3.93699
# Velocity P-wave (km/s) = 6.09849 5.30132 5.71382
#
# Compressibility (1/GPa) = 0.05397299
#
# Stress axis : x y z
#
# Youngs Moduli (GPa) = 124.28987 39.89808 38.36011
#
# Poissons Ratio (x) = 0.24876 0.20979
# Poissons Ratio (y) = 0.77492 -0.34912
# Poissons Ratio (z) = 0.67974 -0.36312
#
# Static dielectric constant tensor:
#      x y z
#    x 1.938260 0.000000 -0.021380 
#    y 0.000000 2.034290 0.000000 
#    z -0.021380 0.000000 2.001130 
# 
# From -- ./inp_files/155082.got.cif
#   From: 2010.05.17/outbox.cif.g08.bks.cpg/sg15_78_cif.got.tgz:155082.got - 2010.06.03 18:47:42.
