data_PCOD9262825
_publ_section_title
;
Structure prediction by ZEFSAII (Michael W. Deem and Ramdas Pophale) SiO2 
 PCOD9262825
Probable space group: C 2/C
;
_chemical_formula_sum "Si O2"
_cell_formula_units_Z 56
_cell_length_a 13.642199
_cell_length_b 30.204634
_cell_length_c 5.663039
_cell_angle_alpha 90.000000
_cell_angle_beta 100.061833
_cell_angle_gamma 90.000000
_cell_volume 2297.608698
_symmetry_space_group_name_H-M "C 2/C"
_symmetry_group_IT_number 15
_symmetry_cell_setting 'monoclinic'
loop_
_space_group_symop_operation_xyz
x,y,z
-x,y,1/2-z
-x,-y,-z
x,-y,1/2+z
1/2+x,1/2+y,z
1/2-x,1/2+y,1/2-z
1/2-x,1/2-y,-z
1/2+x,1/2-y,1/2+z
loop_
_atom_site_type_symbol
_atom_site_label
_atom_site_fract_x
_atom_site_fract_y
_atom_site_fract_z
Si Si1 0.338430 0.258247 0.775308
Si Si2 0.112784 0.983640 0.239226
Si Si3 0.185988 0.664539 0.080301
Si Si4 0.327509 0.613181 0.803476
Si Si5 0.134050 0.400549 0.931190
Si Si6 0.000000 0.643112 0.750000
Si Si7 0.136284 0.212060 0.717270
Si Si8 0.000000 0.475198 0.750000
O O1 0.256588 0.298483 0.721509
O O2 0.258098 0.218045 0.756043
O O3 0.393690 0.267092 0.548724
O O4 0.392812 0.264697 0.048781
O O5 0.110514 0.931780 0.161073
O O6 0.000000 0.999055 0.250000
O O7 0.158023 0.992269 0.523651
O O8 0.126820 0.641522 0.263302
O O9 0.259931 0.627624 0.999433
O O10 0.091496 0.673678 0.871142
O O11 0.244943 0.601137 0.574798
O O12 0.383488 0.659579 0.776090
O O13 0.098539 0.444613 0.791199
O O14 0.054723 0.390649 0.099345
O O15 0.000000 0.500000 0.500000
#
# Coordination Sequence:
#
# PCOD9262825 Si02
#       8
#     8   8   8   8   8   4   8   4
#     4   9  17  30  51  82 121 148 192 233 286 337
#     4  10  24  45  66  90 118 150 189 244 315 378
#     4  10  19  33  56  85 115 162 201 250 279 341
#     4  10  22  35  63  90 116 149 202 245 298 355
#     4  11  21  37  55  79 114 154 206 242 287 345
#     4  10  19  34  54  76 116 164 206 240 278 331
#     4   9  17  31  51  86 116 149 182 238 291 346
#     4  12  27  40  52  70 112 160 192 240 298 329
#
# _framework density 24.373166999999999
#
# number of rings (size 3 to 8) (size 9 to 14) (size 15 to 20)
#    0.000    2.000    2.857    0.429    4.000    1.143 
#    0.000    0.000    0.000    1.714    5.571    0.000 
#    0.000    0.000    0.000    0.000    0.000    0.000 
#
# Total GULP energy -155998.904633 kJ/mol
# GULP energy per Si atom -5571.389451 kJ/mol
# Density = 2.431769 g / cm^3
# Si number density = 24.373167 Si / 1000 Ang^3
#
#
#
# Elastic Constant Matrix: (Units=GPa)
#
#
# Indices 1 2 3 4 5 6 
#
# 1 62.5660 3.4942 21.5515 0.0000 -9.4304 0.0000
# 2 3.4942 122.0366 30.1013 0.0000 -6.0881 0.0000
# 3 21.5515 30.1013 154.4995 0.0000 -10.6712 0.0000
# 4 0.0000 0.0000 0.0000 37.2170 0.0000 16.1545
# 5 -9.4304 -6.0881 -10.6712 0.0000 20.6732 0.0000
# 6 0.0000 0.0000 0.0000 16.1545 0.0000 19.8905
#
#
#
# Elastic Compliance Matrix: (Units=1/GPa)
#
#
# Indices 1 2 3 4 5 6 
#
# 1 0.017746 0.000354 -0.002051 0.000000 0.007141 0.000000
# 2 0.000354 0.008675 -0.001609 0.000000 0.001886 0.000000
# 3 -0.002051 -0.001609 0.007233 0.000000 0.002324 0.000000
# 4 0.000000 0.000000 0.000000 0.041499 0.000000 -0.033705
# 5 0.007141 0.001886 0.002324 0.000000 0.053384 0.000000
# 6 0.000000 0.000000 0.000000 -0.033705 0.000000 0.077649
#
#
# Mechanical properties :
#
#
# Convention : Reuss Voigt Hill
#
# Bulk Modulus (GPa) = 36.98087 49.93291 43.45689
# Shear Modulus (GPa) = 22.54149 34.48649 28.51399
#
# Velocity S-wave (km/s) = 3.04443 3.76565 3.42408
# Velocity P-wave (km/s) = 5.25012 6.27998 5.78800
#
# Compressibility (1/GPa) = 0.02704101
#
# Stress axis : x y z
#
# Youngs Moduli (GPa) = 56.35006 115.27184 138.26104
#
# Poissons Ratio (x) = -0.04081 0.28361
# Poissons Ratio (y) = -0.01995 0.22251
# Poissons Ratio (z) = 0.11559 0.18551
#
# Static dielectric constant tensor:
#      x y z
#    x 1.838910 0.000000 -0.026680 
#    y 0.000000 2.161520 0.000000 
#    z -0.026680 0.000000 2.021210 
# 
# From -- ./inp_files/9110.got.cif
#   From: 2010.05.17/outbox.cif.g08.bks.cpg/sg15_5_cif.got.tgz:9110.got - 2010.06.03 18:47:42.
