data_PCOD9262463
_publ_section_title
;
Structure prediction by ZEFSAII (Michael W. Deem and Ramdas Pophale) SiO2 
 PCOD9262463
Probable space group: C 2/C
;
_chemical_formula_sum "Si O2"
_cell_formula_units_Z 64
_cell_length_a 24.981011
_cell_length_b 7.269790
_cell_length_c 20.520944
_cell_angle_alpha 90.000000
_cell_angle_beta 131.288106
_cell_angle_gamma 90.000000
_cell_volume 2800.277388
_symmetry_space_group_name_H-M "C 2/C"
_symmetry_group_IT_number 15
_symmetry_cell_setting 'monoclinic'
loop_
_space_group_symop_operation_xyz
x,y,z
-x,y,1/2-z
-x,-y,-z
x,-y,1/2+z
1/2+x,1/2+y,z
1/2-x,1/2+y,1/2-z
1/2-x,1/2-y,-z
1/2+x,1/2-y,1/2+z
loop_
_atom_site_type_symbol
_atom_site_label
_atom_site_fract_x
_atom_site_fract_y
_atom_site_fract_z
Si Si1 0.083245 0.267480 0.819525
Si Si2 0.662630 0.206813 0.513078
Si Si3 0.196084 0.278812 0.655297
Si Si4 0.849719 0.278977 0.259696
Si Si5 0.188884 0.277297 0.505500
Si Si6 0.809265 0.708514 0.204913
Si Si7 0.576563 0.903724 0.059474
Si Si8 0.579957 0.783579 0.317359
O O1 0.128195 0.219513 0.791480
O O2 0.081447 0.492628 0.819601
O O3 0.000000 0.210687 0.750000
O O4 0.131615 0.212060 0.920815
O O5 0.733675 0.277553 0.606711
O O6 0.684506 0.996138 0.513917
O O7 0.596294 0.206797 0.510193
O O8 0.279302 0.330531 0.721992
O O9 0.191342 0.188380 0.579317
O O10 0.187808 0.199557 0.721259
O O11 0.137066 0.437883 0.606454
O O12 0.825031 0.492305 0.230690
O O13 0.907749 0.284791 0.363516
O O14 0.878968 0.220770 0.213719
O O15 0.250000 0.250000 0.500000
O O16 0.117291 0.218592 0.412433
O O17 0.500000 0.000000 0.000000
O O18 0.500000 0.722205 0.250000
#
# Coordination Sequence:
#
# PCOD9262463 Si02
#       8
#     8   8   8   8   8   8   8   8
#     4   9  19  32  52  78 106 137 179 237 281 322
#     4  10  20  34  54  82 109 143 186 229 283 342
#     4  10  20  34  52  81 112 146 183 236 287 343
#     4  10  19  34  55  80 114 147 184 236 289 346
#     4  10  19  33  52  79 109 144 180 229 281 336
#     4  10  20  35  53  81 108 146 188 228 282 349
#     4  10  22  33  56  86 113 145 190 241 288 340
#     4   9  18  30  50  78 110 137 179 229 284 330
#
# _framework density 22.854876999999998
#
# number of rings (size 3 to 8) (size 9 to 14) (size 15 to 20)
#    0.000    2.250    2.500    0.375   10.500    0.000 
#    0.000    0.000    0.000    1.500    6.500    0.000 
#    0.000    0.000    0.000    0.000    0.000    0.000 
#
# Total GULP energy -178514.968314 kJ/mol
# GULP energy per Si atom -5578.592760 kJ/mol
# Density = 2.280286 g / cm^3
# Si number density = 22.854877 Si / 1000 Ang^3
#
#
#
# Elastic Constant Matrix: (Units=GPa)
#
#
# Indices 1 2 3 4 5 6 
#
# 1 171.1775 10.9980 101.9616 0.0000 -26.0705 0.0000
# 2 10.9980 70.0116 7.5039 0.0001 -5.4054 -0.0001
# 3 101.9616 7.5039 178.8293 0.0000 -25.5182 0.0000
# 4 0.0000 0.0001 0.0000 10.0299 0.0000 11.3442
# 5 -26.0705 -5.4054 -25.5182 0.0000 51.3446 0.0000
# 6 0.0000 -0.0001 0.0000 11.3442 0.0000 5.6333
#
#
#
# Elastic Compliance Matrix: (Units=1/GPa)
#
#
# Indices 1 2 3 4 5 6 
#
# 1 0.009108 -0.000746 -0.004857 0.000000 0.002132 0.000000
# 2 -0.000746 0.014490 -0.000021 0.000000 0.001137 0.000000
# 3 -0.004857 -0.000021 0.008621 0.000000 0.001816 0.000000
# 4 0.000000 0.000000 0.000000 -0.078036 0.000000 0.157146
# 5 0.002132 0.001137 0.001816 0.000000 0.021581 0.000000
# 6 0.000000 0.000000 0.000000 0.157146 0.000000 -0.138939
#
#
# Mechanical properties :
#
#
# Convention : Reuss Voigt Hill
#
# Bulk Modulus (GPa) = 47.68188 73.43838 60.56013
# Shear Modulus (GPa) = -34.49797 33.37188 -0.56304
#
# Velocity S-wave (km/s) = -3.88936 3.82536 -0.49688
# Velocity P-wave (km/s) = 0.85947 7.19120 5.12113
#
# Compressibility (1/GPa) = 0.02097233
#
# Stress axis : x y z
#
# Youngs Moduli (GPa) = 109.79601 69.01097 115.98924
#
# Poissons Ratio (x) = 0.05145 0.56341
# Poissons Ratio (y) = 0.08185 0.00241
# Poissons Ratio (z) = 0.53333 0.00143
#
# Static dielectric constant tensor:
#      x y z
#    x 1.809980 0.000000 -0.031190 
#    y 0.000000 1.949890 0.000000 
#    z -0.031190 0.000000 1.858240 
# 
# From -- ./inp_files/255361.got.cif
#   From: 2010.05.17/outbox.cif.g08.bks.cpg/sg15_128_cif.got.tgz:255361.got - 2010.06.03 18:47:42.
