data_PCOD9262988
_publ_section_title
;
Structure prediction by ZEFSAII (Michael W. Deem and Ramdas Pophale) SiO2 
 PCOD9262988
Probable space group: C 2/C
;
_chemical_formula_sum "Si O2"
_cell_formula_units_Z 56
_cell_length_a 25.729543
_cell_length_b 14.058183
_cell_length_c 13.735291
_cell_angle_alpha 90.000000
_cell_angle_beta 150.613503
_cell_angle_gamma 90.000000
_cell_volume 2437.888220
_symmetry_space_group_name_H-M "C 2/C"
_symmetry_group_IT_number 15
_symmetry_cell_setting 'monoclinic'
loop_
_space_group_symop_operation_xyz
x,y,z
-x,y,1/2-z
-x,-y,-z
x,-y,1/2+z
1/2+x,1/2+y,z
1/2-x,1/2+y,1/2-z
1/2-x,1/2-y,-z
1/2+x,1/2-y,1/2+z
loop_
_atom_site_type_symbol
_atom_site_label
_atom_site_fract_x
_atom_site_fract_y
_atom_site_fract_z
Si Si1 0.492478 0.332499 0.853224
Si Si2 0.121500 0.981052 0.553685
Si Si3 0.216327 0.423166 0.062984
Si Si4 0.457978 0.205522 0.287492
Si Si5 0.827349 0.106708 0.556137
Si Si6 0.362261 0.290216 0.812305
Si Si7 0.302465 0.229308 0.296715
O O1 0.500000 0.334389 0.750000
O O2 0.384842 0.312119 0.736267
O O3 0.548963 0.432476 0.972359
O O4 0.574191 0.247594 0.010118
O O5 0.242331 0.004415 0.787301
O O6 0.114836 0.961726 0.426881
O O7 0.091850 0.883060 0.556824
O O8 0.247551 0.323102 0.162933
O O9 0.102834 0.394017 0.831222
O O10 0.286608 0.447360 0.083528
O O11 0.500000 0.233731 0.250000
O O12 0.558957 0.206416 0.523138
O O13 0.381907 0.296002 0.185695
O O14 0.734393 0.146421 0.334858
O O15 0.247906 0.278817 0.676910
#
# Coordination Sequence:
#
# PCOD9262988 Si02
#       7
#     8   8   8   8   8   8   8
#     4  11  24  35  55  86 122 155 193 238 300 364
#     4  10  22  34  52  87 127 146 188 237 312 355
#     4  10  19  34  55  86 120 152 191 247 295 353
#     4  11  17  32  61  87 107 147 203 248 284 344
#     4  10  19  33  59  80 118 151 191 243 302 344
#     4  11  21  37  61  86 118 155 197 253 291 352
#     4   9  19  38  54  86 115 151 204 248 287 342
#
# _framework density 22.970700000000001
#
# number of rings (size 3 to 8) (size 9 to 14) (size 15 to 20)
#    0.000    1.714    4.286    4.714    4.000    0.571 
#    0.000    0.000    0.000    4.286    0.000    0.000 
#    0.000    0.000    0.000    0.000    0.000    0.000 
#
# Total GULP energy -155966.873800 kJ/mol
# GULP energy per Si atom -5570.245493 kJ/mol
# Density = 2.291842 g / cm^3
# Si number density = 22.970700 Si / 1000 Ang^3
#
#
#
# Elastic Constant Matrix: (Units=GPa)
#
#
# Indices 1 2 3 4 5 6 
#
# 1 149.3248 10.6430 -8.8156 0.0000 -8.0862 0.0000
# 2 10.6430 42.3216 19.1850 0.0000 -0.4177 0.0000
# 3 -8.8156 19.1850 23.6337 0.0000 -2.8437 0.0000
# 4 0.0000 0.0000 0.0000 24.5404 0.0000 2.5713
# 5 -8.0862 -0.4177 -2.8437 0.0000 26.1922 0.0000
# 6 0.0000 0.0000 0.0000 2.5713 0.0000 14.4417
#
#
#
# Elastic Compliance Matrix: (Units=1/GPa)
#
#
# Indices 1 2 3 4 5 6 
#
# 1 0.007693 -0.005340 0.007579 0.000000 0.003113 0.000000
# 2 -0.005340 0.041286 -0.036097 0.000000 -0.004909 0.000000
# 3 0.007579 -0.036097 0.075642 0.000000 0.009977 0.000000
# 4 0.000000 0.000000 0.000000 0.041524 0.000000 -0.007393
# 5 0.003113 -0.004909 0.009977 0.000000 0.040145 0.000000
# 6 0.000000 0.000000 0.000000 -0.007393 0.000000 0.070560
#
#
# Mechanical properties :
#
#
# Convention : Reuss Voigt Hill
#
# Bulk Modulus (GPa) = 17.57285 28.58941 23.08113
# Shear Modulus (GPa) = 13.75383 25.98607 19.86995
#
# Velocity S-wave (km/s) = 2.44960 3.36708 2.94430
# Velocity P-wave (km/s) = 3.95821 5.25256 4.65064
#
# Compressibility (1/GPa) = 0.05690597
#
# Stress axis : x y z
#
# Youngs Moduli (GPa) = 129.98217 24.22115 13.22013
#
# Poissons Ratio (x) = 0.12933 -0.10019
# Poissons Ratio (y) = 0.69404 0.47721
# Poissons Ratio (z) = -0.98510 0.87431
#
# Static dielectric constant tensor:
#      x y z
#    x 1.910410 0.000000 0.017980 
#    y 0.000000 1.883560 0.000000 
#    z 0.017980 0.000000 2.042140 
# 
# From -- ./inp_files/178411.got.cif
#   From: 2010.05.17/outbox.cif.g08.bks.cpg/sg15_90_cif.got.tgz:178411.got - 2010.06.03 18:47:42.
