data_PCOD9262312
_publ_section_title
;
Structure prediction by ZEFSAII (Michael W. Deem and Ramdas Pophale) SiO2 
 PCOD9262312
Probable space group: C 2/C
;
_chemical_formula_sum "Si O2"
_cell_formula_units_Z 40
_cell_length_a 19.050670
_cell_length_b 5.508324
_cell_length_c 14.653107
_cell_angle_alpha 90.000000
_cell_angle_beta 113.768164
_cell_angle_gamma 90.000000
_cell_volume 1407.238650
_symmetry_space_group_name_H-M "C 2/C"
_symmetry_group_IT_number 15
_symmetry_cell_setting 'monoclinic'
loop_
_space_group_symop_operation_xyz
x,y,z
-x,y,1/2-z
-x,-y,-z
x,-y,1/2+z
1/2+x,1/2+y,z
1/2-x,1/2+y,1/2-z
1/2-x,1/2-y,-z
1/2+x,1/2-y,1/2+z
loop_
_atom_site_type_symbol
_atom_site_label
_atom_site_fract_x
_atom_site_fract_y
_atom_site_fract_z
Si Si1 0.262221 0.102427 0.704067
Si Si2 0.394589 0.605854 0.973983
Si Si3 0.750000 0.750000 0.000000
Si Si4 0.369489 0.574942 0.167052
Si Si5 0.000000 0.263720 0.750000
Si Si6 0.921232 0.400104 0.524648
O O1 0.237129 0.345326 0.745322
O O2 0.197318 0.070951 0.591759
O O3 0.342555 0.186005 0.704705
O O4 0.405370 0.629386 0.087999
O O5 0.430655 0.347634 0.970329
O O6 0.422855 0.868289 0.958966
O O7 0.704951 0.581945 0.898872
O O8 0.666745 0.876165 0.985004
O O9 0.430621 0.408779 0.249151
O O10 0.030182 0.395984 0.856329
#
# Coordination Sequence:
#
# PCOD9262312 Si02
#       6
#     8   8   4   8   4   8
#     4  12  26  39  61  96 132 162 206 267 320 371
#     4  10  21  38  63  87 116 166 206 259 300 366
#     4   8  16  30  60  88 106 154 194 258 290 348
#     4  10  21  39  68  93 128 159 218 259 315 370
#     4   8  20  36  62 100 120 158 206 280 298 360
#     4  10  19  32  59  89 124 145 201 254 317 349
#
# _framework density 28.424461000000001
#
# number of rings (size 3 to 8) (size 9 to 14) (size 15 to 20)
#    0.000    2.400    2.000    1.800    5.600    6.400 
#    0.000    0.000    0.000   16.800    0.000    0.000 
#    0.000    0.000    0.000    0.000    0.000    0.000 
#
# Total GULP energy -111589.624478 kJ/mol
# GULP energy per Si atom -5579.481224 kJ/mol
# Density = 2.835977 g / cm^3
# Si number density = 28.424461 Si / 1000 Ang^3
#
#
#
# Elastic Constant Matrix: (Units=GPa)
#
#
# Indices 1 2 3 4 5 6 
#
# 1 90.5777 34.5561 36.4409 0.0000 14.3101 0.0000
# 2 34.5561 125.4818 38.4809 0.0000 3.3681 0.0000
# 3 36.4409 38.4809 136.2570 0.0000 42.1465 0.0000
# 4 0.0000 0.0000 0.0000 42.2871 0.0000 -4.1454
# 5 14.3101 3.3681 42.1465 0.0000 55.2133 0.0000
# 6 0.0000 0.0000 0.0000 -4.1454 0.0000 54.5288
#
#
#
# Elastic Compliance Matrix: (Units=1/GPa)
#
#
# Indices 1 2 3 4 5 6 
#
# 1 0.013310 -0.002933 -0.002251 0.000000 -0.001552 0.000000
# 2 -0.002933 0.009505 -0.002560 0.000000 0.002135 0.000000
# 3 -0.002251 -0.002560 0.011043 0.000000 -0.007690 0.000000
# 4 0.000000 0.000000 0.000000 0.023825 0.000000 0.001811
# 5 -0.001552 0.002135 -0.007690 0.000000 0.024254 0.000000
# 6 0.000000 0.000000 0.000000 0.001811 0.000000 0.018477
#
#
# Mechanical properties :
#
#
# Convention : Reuss Voigt Hill
#
# Bulk Modulus (GPa) = 54.44077 63.47468 58.95773
# Shear Modulus (GPa) = 40.97501 46.59510 43.78505
#
# Velocity S-wave (km/s) = 3.80088 4.05317 3.92905
# Velocity P-wave (km/s) = 6.20134 6.65460 6.43197
#
# Compressibility (1/GPa) = 0.01836859
#
# Stress axis : x y z
#
# Youngs Moduli (GPa) = 75.12970 105.20870 90.55799
#
# Poissons Ratio (x) = 0.30863 0.20385
# Poissons Ratio (y) = 0.22039 0.23184
# Poissons Ratio (z) = 0.16912 0.26934
#
# Static dielectric constant tensor:
#      x y z
#    x 9.034850 0.000000 -4.229150 
#    y 0.000000 2.524060 0.000000 
#    z -4.229150 0.000000 4.726510 
# 
# From -- ./inp_files/221052.got.cif
#   From: 2010.05.17/outbox.cif.g08.bks.cpg/sg15_111_cif.got.tgz:221052.got - 2010.06.03 18:47:42.
