data_PCOD9262340
_publ_section_title
;
Structure prediction by ZEFSAII (Michael W. Deem and Ramdas Pophale) SiO2 
 PCOD9262340
Probable space group: C 2/C
;
_chemical_formula_sum "Si O2"
_cell_formula_units_Z 48
_cell_length_a 8.089598
_cell_length_b 30.088759
_cell_length_c 15.786773
_cell_angle_alpha 90.000000
_cell_angle_beta 34.748264
_cell_angle_gamma 90.000000
_cell_volume 2190.170882
_symmetry_space_group_name_H-M "C 2/C"
_symmetry_group_IT_number 15
_symmetry_cell_setting 'monoclinic'
loop_
_space_group_symop_operation_xyz
x,y,z
-x,y,1/2-z
-x,-y,-z
x,-y,1/2+z
1/2+x,1/2+y,z
1/2-x,1/2+y,1/2-z
1/2-x,1/2-y,-z
1/2+x,1/2-y,1/2+z
loop_
_atom_site_type_symbol
_atom_site_label
_atom_site_fract_x
_atom_site_fract_y
_atom_site_fract_z
Si Si1 0.658265 0.460900 0.093836
Si Si2 0.728090 0.556629 0.081048
Si Si3 0.323256 0.148151 0.956417
Si Si4 0.302658 0.306243 0.571203
Si Si5 0.470185 0.365610 0.160088
Si Si6 0.205078 0.729022 0.425892
O O1 0.500000 0.466625 0.250000
O O2 0.655725 0.511118 0.060445
O O3 0.521464 0.416922 0.110094
O O4 0.982823 0.450089 0.985389
O O5 0.500000 0.567448 0.250000
O O6 0.771554 0.597266 0.000431
O O7 0.342169 0.177499 0.034173
O O8 0.048588 0.167194 0.021537
O O9 0.642214 0.150951 0.780344
O O10 0.305932 0.333928 0.482866
O O11 0.439381 0.257253 0.500781
O O12 0.000000 0.304705 0.750000
O O13 0.500000 0.364990 0.250000
O O14 0.500000 0.735572 0.250000
O O15 0.250000 0.750000 0.500000
#
# Coordination Sequence:
#
# PCOD9262340 Si02
#       6
#     8   8   8   8   8   8
#     4   9  18  36  57  94 130 168 218 265 319 391
#     4  10  19  32  62  94 131 167 216 271 322 381
#     4  11  22  41  67  94 127 176 219 267 325 392
#     4  11  26  44  63  96 137 172 214 275 331 384
#     4  11  22  42  68  94 129 175 222 262 321 395
#     4  10  22  43  66  91 126 168 216 261 323 383
#
# _framework density 21.916098999999999
#
# number of rings (size 3 to 8) (size 9 to 14) (size 15 to 20)
#    0.000    1.667    3.333    3.000    2.333    3.333 
#    0.000    5.833    0.000    0.000    0.000    0.000 
#    0.000    0.000    0.000    0.000    0.000    0.000 
#
# Total GULP energy -133954.952729 kJ/mol
# GULP energy per Si atom -5581.456364 kJ/mol
# Density = 2.186622 g / cm^3
# Si number density = 21.916099 Si / 1000 Ang^3
#
#
#
# Elastic Constant Matrix: (Units=GPa)
#
#
# Indices 1 2 3 4 5 6 
#
# 1 61.2859 26.6335 17.8022 0.0000 -2.9890 0.0000
# 2 26.6335 159.9972 42.0756 0.0000 8.6641 0.0000
# 3 17.8022 42.0756 185.0217 0.0000 -11.1496 0.0000
# 4 0.0000 0.0000 0.0000 19.9501 0.0000 -16.5533
# 5 -2.9890 8.6641 -11.1496 0.0000 28.1154 0.0000
# 6 0.0000 0.0000 0.0000 -16.5533 0.0000 0.1022
#
#
#
# Elastic Compliance Matrix: (Units=1/GPa)
#
#
# Indices 1 2 3 4 5 6 
#
# 1 0.017955 -0.002876 -0.000927 0.000000 0.002428 0.000000
# 2 -0.002876 0.007317 -0.001579 0.000000 -0.003187 0.000000
# 3 -0.000927 -0.001579 0.006020 0.000000 0.002776 0.000000
# 4 0.000000 0.000000 0.000000 -0.000376 0.000000 -0.060864
# 5 0.002428 -0.003187 0.002776 0.000000 0.037908 0.000000
# 6 0.000000 0.000000 0.000000 -0.060864 0.000000 -0.073353
#
#
# Mechanical properties :
#
#
# Convention : Reuss Voigt Hill
#
# Bulk Modulus (GPa) = 48.71784 64.36973 56.54379
# Shear Modulus (GPa) = 382.30003 30.95312 206.62658
#
# Velocity S-wave (km/s) = 13.22183 3.76220 9.72036
# Velocity P-wave (km/s) = 15.98019 6.95032 12.32220
#
# Compressibility (1/GPa) = 0.02052636
#
# Stress axis : x y z
#
# Youngs Moduli (GPa) = 55.69573 136.67207 166.10313
#
# Poissons Ratio (x) = 0.39313 0.15400
# Poissons Ratio (y) = 0.16020 0.26231
# Poissons Ratio (z) = 0.05164 0.21583
#
# Static dielectric constant tensor:
#      x y z
#    x 1.883220 0.000000 0.022450 
#    y 0.000000 1.885460 0.000000 
#    z 0.022450 0.000000 1.728470 
# 
# From -- ./inp_files/194146.got.cif
#   From: 2010.05.17/outbox.cif.g08.bks.cpg/sg15_98_cif.got.tgz:194146.got - 2010.06.03 18:47:42.
