data_PCOD9262479
_publ_section_title
;
Structure prediction by ZEFSAII (Michael W. Deem and Ramdas Pophale) SiO2 
 PCOD9262479
Probable space group: C 2/C
;
_chemical_formula_sum "Si O2"
_cell_formula_units_Z 48
_cell_length_a 14.949112
_cell_length_b 18.309875
_cell_length_c 14.577779
_cell_angle_alpha 90.000000
_cell_angle_beta 139.752051
_cell_angle_gamma 90.000000
_cell_volume 2578.039883
_symmetry_space_group_name_H-M "C 2/C"
_symmetry_group_IT_number 15
_symmetry_cell_setting 'monoclinic'
loop_
_space_group_symop_operation_xyz
x,y,z
-x,y,1/2-z
-x,-y,-z
x,-y,1/2+z
1/2+x,1/2+y,z
1/2-x,1/2+y,1/2-z
1/2-x,1/2-y,-z
1/2+x,1/2-y,1/2+z
loop_
_atom_site_type_symbol
_atom_site_label
_atom_site_fract_x
_atom_site_fract_y
_atom_site_fract_z
Si Si1 0.553349 0.022982 0.688263
Si Si2 0.201385 0.270943 0.700210
Si Si3 0.239309 0.900133 0.610658
Si Si4 0.953240 0.677796 0.912681
Si Si5 0.664987 0.096925 0.520110
Si Si6 0.946886 0.139174 0.808878
O O1 0.500000 0.034307 0.750000
O O2 0.567223 0.100433 0.651469
O O3 0.694089 0.975553 0.801600
O O4 0.436007 0.971940 0.550328
O O5 0.224880 0.336371 0.790270
O O6 0.349841 0.237327 0.791390
O O7 0.113914 0.205943 0.680066
O O8 0.111269 0.298550 0.544365
O O9 0.313534 0.886488 0.570344
O O10 0.075861 0.898104 0.460951
O O11 0.904038 0.663858 0.979637
O O12 0.816277 0.087182 0.683424
O O13 0.000000 0.164911 0.750000
#
# Coordination Sequence:
#
# PCOD9262479 Si02
#       6
#     8   8   8   8   8   8
#     4  10  21  38  59  76 102 143 186 223 261 311
#     4  11  21  32  53  79 116 143 175 211 268 319
#     4  10  19  33  52  82 111 146 171 215 264 322
#     4  11  22  36  53  81 108 141 181 220 265 318
#     4   9  19  32  54  80 111 139 176 212 264 318
#     4   9  19  30  48  79 116 142 167 208 265 326
#
# _framework density 18.618796
#
# number of rings (size 3 to 8) (size 9 to 14) (size 15 to 20)
#    0.000    2.000    3.333    0.500    2.333    2.000 
#    0.000    5.833    0.000    0.000    0.000    0.000 
#    0.000    0.000    0.000    0.000    0.000    0.000 
#
# Total GULP energy -133891.059157 kJ/mol
# GULP energy per Si atom -5578.794132 kJ/mol
# Density = 1.857642 g / cm^3
# Si number density = 18.618796 Si / 1000 Ang^3
#
#
#
# Elastic Constant Matrix: (Units=GPa)
#
#
# Indices 1 2 3 4 5 6 
#
# 1 11.2399 5.7261 16.5305 0.0000 3.4155 0.0000
# 2 5.7261 82.1812 64.9213 0.0000 -0.3364 0.0000
# 3 16.5305 64.9213 148.1129 0.0000 24.2986 0.0000
# 4 0.0000 0.0000 0.0000 19.5375 0.0000 2.6845
# 5 3.4155 -0.3364 24.2986 0.0000 15.6098 0.0000
# 6 0.0000 0.0000 0.0000 2.6845 0.0000 16.5977
#
#
#
# Elastic Compliance Matrix: (Units=1/GPa)
#
#
# Indices 1 2 3 4 5 6 
#
# 1 0.107118 0.002112 -0.012145 0.000000 -0.004488 0.000000
# 2 0.002112 0.023115 -0.013931 0.000000 0.021722 0.000000
# 3 -0.012145 -0.013931 0.018569 0.000000 -0.026547 0.000000
# 4 0.000000 0.000000 0.000000 0.052347 0.000000 -0.008467
# 5 -0.004488 0.021722 -0.026547 0.000000 0.106837 0.000000
# 6 0.000000 0.000000 0.000000 -0.008467 0.000000 0.061619
#
#
# Mechanical properties :
#
#
# Convention : Reuss Voigt Hill
#
# Bulk Modulus (GPa) = 9.91333 46.20996 28.06165
# Shear Modulus (GPa) = 11.08261 20.63941 15.86101
#
# Velocity S-wave (km/s) = 2.44240 3.33306 2.92187
# Velocity P-wave (km/s) = 3.64550 6.29963 5.14660
#
# Compressibility (1/GPa) = 0.10087429
#
# Stress axis : x y z
#
# Youngs Moduli (GPa) = 9.33549 43.26124 53.85409
#
# Poissons Ratio (x) = -0.09137 0.65404
# Poissons Ratio (y) = -0.01972 0.75026
# Poissons Ratio (z) = 0.11338 0.60269
#
# Static dielectric constant tensor:
#      x y z
#    x 1.661260 0.000000 0.010360 
#    y 0.000000 1.612960 0.000000 
#    z 0.010360 0.000000 1.695670 
# 
# From -- ./inp_files/48703.got.cif
#   From: 2010.05.17/outbox.cif.g08.bks.cpg/sg15_25_cif.got.tgz:48703.got - 2010.06.03 18:47:42.
