data_PCOD9262252
_publ_section_title
;
Structure prediction by ZEFSAII (Michael W. Deem and Ramdas Pophale) SiO2 
 PCOD9262252
Probable space group: C 2/C
;
_chemical_formula_sum "Si O2"
_cell_formula_units_Z 44
_cell_length_a 27.561337
_cell_length_b 13.578205
_cell_length_c 8.516827
_cell_angle_alpha 90.000000
_cell_angle_beta 142.459015
_cell_angle_gamma 90.000000
_cell_volume 1942.102546
_symmetry_space_group_name_H-M "C 2/C"
_symmetry_group_IT_number 15
_symmetry_cell_setting 'monoclinic'
loop_
_space_group_symop_operation_xyz
x,y,z
-x,y,1/2-z
-x,-y,-z
x,-y,1/2+z
1/2+x,1/2+y,z
1/2-x,1/2+y,1/2-z
1/2-x,1/2-y,-z
1/2+x,1/2-y,1/2+z
loop_
_atom_site_type_symbol
_atom_site_label
_atom_site_fract_x
_atom_site_fract_y
_atom_site_fract_z
Si Si1 0.778192 0.902737 0.705141
Si Si2 0.391351 0.347512 0.226402
Si Si3 0.500000 0.730494 0.750000
Si Si4 0.091042 0.390998 0.182011
Si Si5 0.500000 0.330654 0.750000
Si Si6 0.868422 0.060938 0.129339
Si Si7 0.500000 0.945335 0.250000
O O1 0.685266 0.895399 0.438558
O O2 0.822475 0.883219 0.652109
O O3 0.805947 0.010533 0.844916
O O4 0.806109 0.833785 0.924309
O O5 0.447853 0.337240 0.223720
O O6 0.431523 0.282735 0.463680
O O7 0.398537 0.461440 0.292930
O O8 0.442581 0.799735 0.501796
O O9 0.051515 0.389592 0.252273
O O10 0.058911 0.485530 0.003409
O O11 0.440125 0.385542 0.721842
#
# Coordination Sequence:
#
# PCOD9262252 Si02
#       7
#     8   8   4   8   4   8   4
#     4  10  20  34  57  87 118 149 194 246 296 318
#     4  10  21  34  53  85 118 159 188 234 282 361
#     4  11  23  40  58  83 123 160 198 222 299 355
#     4  10  21  39  64  87 115 151 189 255 282 355
#     4  12  19  33  57  83 120 156 202 234 290 331
#     4  10  19  32  56  88 116 154 194 249 276 342
#     4   9  20  39  65  92 105 146 208 238 299 326
#
# _framework density 22.655859
#
# number of rings (size 3 to 8) (size 9 to 14) (size 15 to 20)
#    1.091    0.727    1.818    3.273    0.000    1.455 
#    0.000    0.000    0.000    3.273    0.000    0.000 
#    0.000    0.000    0.000    0.000    0.000    0.000 
#
# Total GULP energy -122513.316427 kJ/mol
# GULP energy per Si atom -5568.787110 kJ/mol
# Density = 2.260429 g / cm^3
# Si number density = 22.655859 Si / 1000 Ang^3
#
#
#
# Elastic Constant Matrix: (Units=GPa)
#
#
# Indices 1 2 3 4 5 6 
#
# 1 139.9936 22.4114 80.7876 0.0000 -8.5820 0.0000
# 2 22.4114 25.6343 14.8813 0.0000 3.5198 0.0000
# 3 80.7876 14.8813 205.5258 0.0000 14.0749 0.0000
# 4 0.0000 0.0000 0.0000 3.0183 0.0000 -0.7834
# 5 -8.5820 3.5198 14.0749 0.0000 39.8068 0.0000
# 6 0.0000 0.0000 0.0000 -0.7834 0.0000 -11.5087
#
#
#
# Elastic Compliance Matrix: (Units=1/GPa)
#
#
# Indices 1 2 3 4 5 6 
#
# 1 0.011038 -0.007905 -0.004076 0.000000 0.004520 0.000000
# 2 -0.007905 0.046651 0.000132 0.000000 -0.005876 0.000000
# 3 -0.004076 0.000132 0.006681 0.000000 -0.003253 0.000000
# 4 0.000000 0.000000 0.000000 0.325558 0.000000 -0.022162
# 5 0.004520 -0.005876 -0.003253 0.000000 0.027765 0.000000
# 6 0.000000 0.000000 0.000000 -0.022162 0.000000 -0.085382
#
#
# Mechanical properties :
#
#
# Convention : Reuss Voigt Hill
#
# Bulk Modulus (GPa) = 24.58664 67.47937 46.03300
# Shear Modulus (GPa) = 13.52938 23.13484 18.33211
#
# Velocity S-wave (km/s) = 2.44636 3.19900 2.84765
# Velocity P-wave (km/s) = 4.34227 6.59499 5.58342
#
# Compressibility (1/GPa) = 0.04067250
#
# Stress axis : x y z
#
# Youngs Moduli (GPa) = 90.59763 21.43561 149.67958
#
# Poissons Ratio (x) = 0.16944 0.61008
# Poissons Ratio (y) = 0.71613 -0.01970
# Poissons Ratio (z) = 0.36927 -0.00282
#
# Static dielectric constant tensor:
#      x y z
#    x 2.127400 0.000000 0.277150 
#    y 0.000000 1.903040 0.000000 
#    z 0.277150 0.000000 2.205970 
# 
# From -- ./inp_files/56008.got.cif
#   From: 2010.05.17/outbox.cif.g08.bks.cpg/sg15_29_cif.got.tgz:56008.got - 2010.06.03 18:47:42.
