data_PCOD9262849
_publ_section_title
;
Structure prediction by ZEFSAII (Michael W. Deem and Ramdas Pophale) SiO2 
 PCOD9262849
Probable space group: C 2/C
;
_chemical_formula_sum "Si O2"
_cell_formula_units_Z 64
_cell_length_a 8.990757
_cell_length_b 26.724609
_cell_length_c 13.213061
_cell_angle_alpha 90.000000
_cell_angle_beta 85.405281
_cell_angle_gamma 90.000000
_cell_volume 3164.558331
_symmetry_space_group_name_H-M "C 2/C"
_symmetry_group_IT_number 15
_symmetry_cell_setting 'monoclinic'
loop_
_space_group_symop_operation_xyz
x,y,z
-x,y,1/2-z
-x,-y,-z
x,-y,1/2+z
1/2+x,1/2+y,z
1/2-x,1/2+y,1/2-z
1/2-x,1/2-y,-z
1/2+x,1/2-y,1/2+z
loop_
_atom_site_type_symbol
_atom_site_label
_atom_site_fract_x
_atom_site_fract_y
_atom_site_fract_z
Si Si1 0.123357 0.432214 0.999812
Si Si2 0.216403 0.107378 0.327907
Si Si3 0.614788 0.848723 0.484127
Si Si4 0.916440 0.514971 0.345694
Si Si5 0.140031 0.800904 0.682014
Si Si6 0.461280 0.230739 0.137246
Si Si7 0.936769 0.882590 0.954997
Si Si8 0.919774 0.842566 0.359878
O O1 0.275324 0.406191 0.960169
O O2 0.006371 0.389943 0.042268
O O3 0.037178 0.458730 0.912346
O O4 0.161569 0.474202 0.080288
O O5 0.292500 0.131439 0.423312
O O6 0.314495 0.058487 0.303140
O O7 0.198484 0.150977 0.245406
O O8 0.051475 0.091620 0.371941
O O9 0.524630 0.802781 0.541527
O O10 0.740633 0.841768 0.390526
O O11 0.000000 0.488269 0.250000
O O12 0.281745 0.767652 0.648886
O O13 0.075944 0.825757 0.584614
O O14 0.000000 0.778003 0.750000
O O15 0.500000 0.210965 0.250000
O O16 0.531501 0.285220 0.125441
O O17 0.007727 0.879222 0.061244
O O18 0.000000 0.856036 0.250000
#
# Coordination Sequence:
#
# PCOD9262849 Si02
#       8
#     8   8   8   8   8   8   8   8
#     4  10  21  36  58  87 110 147 194 236 285 340
#     4   9  19  33  58  86 113 148 179 233 295 345
#     4  10  19  37  60  80 113 156 189 234 284 342
#     4  10  21  35  56  85 117 143 189 238 280 345
#     4  10  19  33  56  89 117 143 185 243 303 345
#     4  11  20  35  61  88 112 151 194 239 288 344
#     4  10  20  37  57  80 115 154 186 234 291 340
#     4  10  24  40  53  80 115 156 204 234 272 347
#
# _framework density 20.223991999999999
#
# number of rings (size 3 to 8) (size 9 to 14) (size 15 to 20)
#    0.000    2.000    2.500    1.125    1.750    2.000 
#    0.000    0.000    0.000    2.250    0.000    0.000 
#    0.000    0.000    0.000    0.000    0.000    0.000 
#
# Total GULP energy -178373.725677 kJ/mol
# GULP energy per Si atom -5574.178927 kJ/mol
# Density = 2.017796 g / cm^3
# Si number density = 20.223992 Si / 1000 Ang^3
#
#
#
# Elastic Constant Matrix: (Units=GPa)
#
#
# Indices 1 2 3 4 5 6 
#
# 1 90.9972 7.7472 4.1005 0.0000 -29.9586 0.0000
# 2 7.7472 29.7078 9.5359 0.0000 -11.5421 0.0000
# 3 4.1005 9.5359 57.8444 0.0000 -20.6447 0.0000
# 4 0.0000 0.0000 0.0000 6.0365 0.0000 -0.3994
# 5 -29.9586 -11.5421 -20.6447 0.0000 30.0854 0.0000
# 6 0.0000 0.0000 0.0000 -0.3994 0.0000 5.7912
#
#
#
# Elastic Compliance Matrix: (Units=1/GPa)
#
#
# Indices 1 2 3 4 5 6 
#
# 1 0.018324 0.002280 0.006820 0.000000 0.023801 0.000000
# 2 0.002280 0.039935 -0.000618 0.000000 0.017167 0.000000
# 3 0.006820 -0.000618 0.025487 0.000000 0.024043 0.000000
# 4 0.000000 0.000000 0.000000 0.166418 0.000000 0.011476
# 5 0.023801 0.017167 0.024043 0.000000 0.080024 0.000000
# 6 0.000000 0.000000 0.000000 0.011476 0.000000 0.173466
#
#
# Mechanical properties :
#
#
# Convention : Reuss Voigt Hill
#
# Bulk Modulus (GPa) = 9.92965 24.59072 17.26019
# Shear Modulus (GPa) = 9.61057 18.86036 14.23546
#
# Velocity S-wave (km/s) = 2.18229 3.05712 2.65597
# Velocity P-wave (km/s) = 3.35713 4.96456 4.23776
#
# Compressibility (1/GPa) = 0.10070849
#
# Stress axis : x y z
#
# Youngs Moduli (GPa) = 54.57368 25.04085 39.23515
#
# Poissons Ratio (x) = -0.05708 -0.26758
# Poissons Ratio (y) = -0.12441 0.02426
# Poissons Ratio (z) = -0.37218 0.01548
#
# Static dielectric constant tensor:
#      x y z
#    x 1.745640 0.000000 0.001930 
#    y 0.000000 1.703290 0.000000 
#    z 0.001930 0.000000 1.736820 
# 
# From -- ./inp_files/138598.got.cif
#   From: 2010.05.17/outbox.cif.g08.bks.cpg/sg15_70_cif.got.tgz:138598.got - 2010.06.03 18:47:42.
