data_PCOD9262118
_publ_section_title
;
Structure prediction by ZEFSAII (Michael W. Deem and Ramdas Pophale) SiO2 
 PCOD9262118
Probable space group: C 2/C
;
_chemical_formula_sum "Si O2"
_cell_formula_units_Z 40
_cell_length_a 12.991432
_cell_length_b 19.098978
_cell_length_c 12.914402
_cell_angle_alpha 90.000000
_cell_angle_beta 143.273958
_cell_angle_gamma 90.000000
_cell_volume 1916.174329
_symmetry_space_group_name_H-M "C 2/C"
_symmetry_group_IT_number 15
_symmetry_cell_setting 'monoclinic'
loop_
_space_group_symop_operation_xyz
x,y,z
-x,y,1/2-z
-x,-y,-z
x,-y,1/2+z
1/2+x,1/2+y,z
1/2-x,1/2+y,1/2-z
1/2-x,1/2-y,-z
1/2+x,1/2-y,1/2+z
loop_
_atom_site_type_symbol
_atom_site_label
_atom_site_fract_x
_atom_site_fract_y
_atom_site_fract_z
Si Si1 0.823060 0.857229 0.988504
Si Si2 0.000000 0.256959 0.750000
Si Si3 0.415152 0.583616 0.345256
Si Si4 0.756055 0.675403 0.638593
Si Si5 0.500000 0.466104 0.250000
Si Si6 0.126107 0.324506 0.504000
O O1 0.965751 0.797131 0.127794
O O2 0.842932 0.914158 0.095641
O O3 0.655526 0.809437 0.853770
O O4 0.844742 0.904151 0.904096
O O5 0.601471 0.620701 0.504759
O O6 0.450931 0.512869 0.310056
O O7 0.266530 0.621744 0.159416
O O8 0.830685 0.681763 0.582648
O O9 0.672427 0.750728 0.594178
O O10 0.921601 0.659628 0.844333
#
# Coordination Sequence:
#
# PCOD9262118 Si02
#       6
#     8   4   8   8   4   8
#     4  10  24  44  75  93 129 177 221 275 339 380
#     4   9  22  50  70 100 125 160 234 294 311 388
#     4  12  22  40  67  96 133 179 213 269 335 398
#     4  10  19  32  54  88 137 171 212 270 326 382
#     4  11  24  48  60  96 143 178 214 264 325 412
#     4  10  19  32  53  90 134 174 210 270 328 378
#
# _framework density 20.874925999999999
#
# number of rings (size 3 to 8) (size 9 to 14) (size 15 to 20)
#    0.000    1.600    4.000    0.600    2.800    0.000 
#   10.800    1.000    0.000    0.000    0.000    0.000 
#    0.000    0.000    0.000    0.000    0.000    0.000 
#
# Total GULP energy -111377.050627 kJ/mol
# GULP energy per Si atom -5568.852531 kJ/mol
# Density = 2.082741 g / cm^3
# Si number density = 20.874926 Si / 1000 Ang^3
#
#
#
# Elastic Constant Matrix: (Units=GPa)
#
#
# Indices 1 2 3 4 5 6 
#
# 1 49.7967 33.2416 22.9917 0.0000 -8.8411 0.0000
# 2 33.2416 131.8045 65.6112 0.0000 -1.1719 0.0000
# 3 22.9917 65.6112 158.2534 0.0000 25.8019 0.0000
# 4 0.0000 0.0000 0.0000 18.0614 0.0000 20.1766
# 5 -8.8411 -1.1719 25.8019 0.0000 17.1853 0.0000
# 6 0.0000 0.0000 0.0000 20.1766 0.0000 -8.7404
#
#
#
# Elastic Compliance Matrix: (Units=1/GPa)
#
#
# Indices 1 2 3 4 5 6 
#
# 1 0.030621 -0.003983 -0.007046 0.000000 0.026060 0.000000
# 2 -0.003983 0.011185 -0.005096 0.000000 0.006365 0.000000
# 3 -0.007046 -0.005096 0.013378 0.000000 -0.024058 0.000000
# 4 0.000000 0.000000 0.000000 0.015471 0.000000 0.035713
# 5 0.026060 0.006365 -0.024058 0.000000 0.108151 0.000000
# 6 0.000000 0.000000 0.000000 0.035713 0.000000 -0.031970
#
#
# Mechanical properties :
#
#
# Convention : Reuss Voigt Hill
#
# Bulk Modulus (GPa) = 43.60676 64.83817 54.22246
# Shear Modulus (GPa) = 26.77627 19.83529 23.30578
#
# Velocity S-wave (km/s) = 3.58537 3.08587 3.34495
# Velocity P-wave (km/s) = 6.17047 6.62001 6.39919
#
# Compressibility (1/GPa) = 0.02293223
#
# Stress axis : x y z
#
# Youngs Moduli (GPa) = 32.65740 89.40418 74.74908
#
# Poissons Ratio (x) = 0.35614 0.52669
# Poissons Ratio (y) = 0.13009 0.38095
# Poissons Ratio (z) = 0.23011 0.45564
#
# Static dielectric constant tensor:
#      x y z
#    x 1.775200 0.000000 -0.035000 
#    y 0.000000 1.733350 0.000000 
#    z -0.035000 0.000000 1.728390 
# 
# From -- ./inp_files/155626.got.cif
#   From: 2010.05.17/outbox.cif.g08.bks.cpg/sg15_78_cif.got.tgz:155626.got - 2010.06.03 18:47:42.
