data_PCOD9262295
_publ_section_title
;
Structure prediction by ZEFSAII (Michael W. Deem and Ramdas Pophale) SiO2 
 PCOD9262295
Probable space group: C 2/C
;
_chemical_formula_sum "Si O2"
_cell_formula_units_Z 60
_cell_length_a 30.963810
_cell_length_b 14.012296
_cell_length_c 13.686841
_cell_angle_alpha 90.000000
_cell_angle_beta 147.731600
_cell_angle_gamma 90.000000
_cell_volume 3170.410673
_symmetry_space_group_name_H-M "C 2/C"
_symmetry_group_IT_number 15
_symmetry_cell_setting 'monoclinic'
loop_
_space_group_symop_operation_xyz
x,y,z
-x,y,1/2-z
-x,-y,-z
x,-y,1/2+z
1/2+x,1/2+y,z
1/2-x,1/2+y,1/2-z
1/2-x,1/2-y,-z
1/2+x,1/2-y,1/2+z
loop_
_atom_site_type_symbol
_atom_site_label
_atom_site_fract_x
_atom_site_fract_y
_atom_site_fract_z
Si Si1 0.325789 0.447777 0.440361
Si Si2 0.005135 0.093493 0.944413
Si Si3 0.438013 0.793404 0.479785
Si Si4 0.320030 0.637319 0.546739
Si Si5 0.276937 0.855179 0.084284
Si Si6 0.740702 0.041099 0.576045
Si Si7 0.500000 0.480095 0.750000
Si Si8 0.386391 0.824957 0.605264
O O1 0.310547 0.557076 0.445380
O O2 0.272231 0.385181 0.411860
O O3 0.302527 0.440473 0.282800
O O4 0.421309 0.425082 0.636920
O O5 0.912354 0.125240 0.759132
O O6 0.032858 0.051218 0.894535
O O7 0.058105 0.187552 0.061145
O O8 0.000000 0.000000 0.000000
O O9 0.372470 0.853370 0.294033
O O10 0.408030 0.797265 0.535332
O O11 0.531877 0.823243 0.673284
O O12 0.262247 0.607139 0.524165
O O13 0.320592 0.744991 0.510780
O O14 0.250000 0.750000 0.000000
O O15 0.258704 0.934503 0.966660
O O16 0.655670 0.073520 0.459583
#
# Coordination Sequence:
#
# PCOD9262295 Si02
#       8
#     8   8   8   8   8   8   4   8
#     4  10  21  38  57  90 122 157 195 252 308 366
#     4  10  19  32  58  90 119 155 187 242 304 364
#     4  10  21  38  61  87 120 156 206 247 294 364
#     4   9  20  33  56  89 116 150 199 245 303 357
#     4  11  26  40  60  91 124 160 201 253 313 369
#     4  11  22  38  60  87 119 161 203 253 304 357
#     4  10  20  32  56  84 116 148 196 238 300 360
#     4  10  20  39  63  86 115 161 207 250 294 354
#
# _framework density 18.924993000000001
#
# number of rings (size 3 to 8) (size 9 to 14) (size 15 to 20)
#    0.000    1.867    1.333    3.600    9.333    0.533 
#    0.000    0.000    0.000    1.600    0.000    0.000 
#    0.000    0.000    0.000    0.000    0.000    0.000 
#
# Total GULP energy -167118.241791 kJ/mol
# GULP energy per Si atom -5570.608060 kJ/mol
# Density = 1.888192 g / cm^3
# Si number density = 18.924993 Si / 1000 Ang^3
#
#
#
# Elastic Constant Matrix: (Units=GPa)
#
#
# Indices 1 2 3 4 5 6 
#
# 1 59.4666 19.1045 -1.6104 0.0000 -1.0660 0.0000
# 2 19.1045 62.4917 5.6473 0.0000 5.5356 0.0000
# 3 -1.6104 5.6473 54.7681 0.0000 5.8270 0.0000
# 4 0.0000 0.0000 0.0000 23.2212 0.0000 7.7107
# 5 -1.0660 5.5356 5.8270 0.0000 27.2450 0.0000
# 6 0.0000 0.0000 0.0000 7.7107 0.0000 22.7564
#
#
#
# Elastic Compliance Matrix: (Units=1/GPa)
#
#
# Indices 1 2 3 4 5 6 
#
# 1 0.018799 -0.005990 0.000985 0.000000 0.001742 0.000000
# 2 -0.005990 0.018304 -0.001681 0.000000 -0.003594 0.000000
# 3 0.000985 -0.001681 0.018850 0.000000 -0.003651 0.000000
# 4 0.000000 0.000000 0.000000 0.048524 0.000000 -0.016442
# 5 0.001742 -0.003594 -0.003651 0.000000 0.038283 0.000000
# 6 0.000000 0.000000 0.000000 -0.016442 0.000000 0.049515
#
#
# Mechanical properties :
#
#
# Convention : Reuss Voigt Hill
#
# Bulk Modulus (GPa) = 23.48563 24.77878 24.13221
# Shear Modulus (GPa) = 22.74391 24.88353 23.81372
#
# Velocity S-wave (km/s) = 3.47045 3.63002 3.55113
# Velocity P-wave (km/s) = 5.33812 5.53994 5.43997
#
# Compressibility (1/GPa) = 0.04257923
#
# Stress axis : x y z
#
# Youngs Moduli (GPa) = 53.19564 54.63379 53.05155
#
# Poissons Ratio (x) = 0.32727 -0.05226
# Poissons Ratio (y) = 0.31866 0.08919
# Poissons Ratio (z) = -0.05240 0.09185
#
# Static dielectric constant tensor:
#      x y z
#    x 1.695500 0.000000 -0.002940 
#    y 0.000000 1.691960 0.000000 
#    z -0.002940 0.000000 1.686980 
# 
# From -- ./inp_files/182339.got.cif
#   From: 2010.05.17/outbox.cif.g08.bks.cpg/sg15_92_cif.got.tgz:182339.got - 2010.06.03 18:47:42.
