data_PCOD9262154
_publ_section_title
;
Structure prediction by ZEFSAII (Michael W. Deem and Ramdas Pophale) SiO2 
 PCOD9262154
Probable space group: C 2/C
;
_chemical_formula_sum "Si O2"
_cell_formula_units_Z 56
_cell_length_a 26.941038
_cell_length_b 10.403841
_cell_length_c 9.252077
_cell_angle_alpha 90.000000
_cell_angle_beta 98.603793
_cell_angle_gamma 90.000000
_cell_volume 2564.083828
_symmetry_space_group_name_H-M "C 2/C"
_symmetry_group_IT_number 15
_symmetry_cell_setting 'monoclinic'
loop_
_space_group_symop_operation_xyz
x,y,z
-x,y,1/2-z
-x,-y,-z
x,-y,1/2+z
1/2+x,1/2+y,z
1/2-x,1/2+y,1/2-z
1/2-x,1/2-y,-z
1/2+x,1/2-y,1/2+z
loop_
_atom_site_type_symbol
_atom_site_label
_atom_site_fract_x
_atom_site_fract_y
_atom_site_fract_z
Si Si1 0.269022 0.594144 0.348448
Si Si2 0.949321 0.731378 0.309667
Si Si3 0.122704 0.938831 0.570886
Si Si4 0.492985 0.864186 0.418985
Si Si5 0.111500 0.331009 0.964630
Si Si6 0.057221 0.972367 0.795414
Si Si7 0.285748 0.891866 0.370443
O O1 0.321790 0.515487 0.368377
O O2 0.278295 0.744533 0.305541
O O3 0.230903 0.507933 0.239594
O O4 0.248513 0.601074 0.501841
O O5 0.906533 0.649332 0.208935
O O6 0.943431 0.879461 0.261001
O O7 0.000000 0.688851 0.250000
O O8 0.963100 0.718056 0.483179
O O9 0.132547 0.813808 0.478406
O O10 0.082748 0.021188 0.462651
O O11 0.095213 0.902021 0.706411
O O12 0.500000 0.867721 0.250000
O O13 0.437764 0.827250 0.454395
O O14 0.500000 0.000000 0.500000
O O15 0.156702 0.410796 0.051069
O O16 0.000000 0.926339 0.750000
#
# Coordination Sequence:
#
# PCOD9262154 Si02
#       7
#     8   8   8   8   8   8   8
#     4  10  22  41  63  89 119 157 197 253 310 358
#     4   8  17  35  54  77 112 150 187 227 278 341
#     4  10  20  35  56  81 117 150 186 235 292 348
#     4  11  22  36  55  79 112 147 184 229 282 345
#     4   9  20  38  56  80 113 153 192 238 290 343
#     4  10  19  32  54  83 113 150 187 227 278 343
#     4  10  22  41  64  88 119 156 205 254 304 360
#
# _framework density 21.840157999999999
#
# number of rings (size 3 to 8) (size 9 to 14) (size 15 to 20)
#    0.000    2.286    0.000    3.429    0.000    5.714 
#    0.000    0.000    0.000    0.000    0.000    0.000 
#    0.000    0.000    0.000    0.000    0.000    0.000 
#
# Total GULP energy -155986.525866 kJ/mol
# GULP energy per Si atom -5570.947352 kJ/mol
# Density = 2.179045 g / cm^3
# Si number density = 21.840158 Si / 1000 Ang^3
#
#
#
# Elastic Constant Matrix: (Units=GPa)
#
#
# Indices 1 2 3 4 5 6 
#
# 1 100.9777 6.6942 51.0886 0.0000 30.6505 0.0000
# 2 6.6942 75.9446 25.4346 0.0000 17.5430 0.0000
# 3 51.0886 25.4346 136.4983 0.0000 15.5957 0.0000
# 4 0.0000 0.0000 0.0000 1943.0742 0.0000 386.6161
# 5 30.6505 17.5430 15.5957 0.0000 40.8901 0.0000
# 6 0.0000 0.0000 0.0000 386.6161 0.0000 101.4627
#
#
#
# Elastic Compliance Matrix: (Units=1/GPa)
#
#
# Indices 1 2 3 4 5 6 
#
# 1 0.015654 0.002885 -0.005138 0.000000 -0.011012 0.000000
# 2 0.002885 0.015746 -0.003131 0.000000 -0.007724 0.000000
# 3 -0.005138 -0.003131 0.009660 0.000000 0.001511 0.000000
# 4 0.000000 0.000000 0.000000 0.002128 0.000000 -0.008109
# 5 -0.011012 -0.007724 0.001511 0.000000 0.035448 0.000000
# 6 0.000000 0.000000 0.000000 -0.008109 0.000000 0.040755
#
#
# Mechanical properties :
#
#
# Convention : Reuss Voigt Hill
#
# Bulk Modulus (GPa) = 33.01364 53.31727 43.16546
# Shear Modulus (GPa) = 35.64875 432.43229 234.04052
#
# Velocity S-wave (km/s) = 4.04450 14.08647 10.36307
# Velocity P-wave (km/s) = 6.07943 17.00108 12.76707
#
# Compressibility (1/GPa) = 0.03029051
#
# Stress axis : x y z
#
# Youngs Moduli (GPa) = 63.88065 63.50808 103.51773
#
# Poissons Ratio (x) = -0.18321 0.53192
# Poissons Ratio (y) = -0.18428 0.32415
# Poissons Ratio (z) = 0.32824 0.19886
#
# Static dielectric constant tensor:
#      x y z
#    x 1.951010 0.000000 0.152410 
#    y 0.000000 1.891950 0.000000 
#    z 0.152410 0.000000 1.916160 
# 
# From -- ./inp_files/65538.got.cif
#   From: 2010.05.17/outbox.cif.g08.bks.cpg/sg15_33_cif.got.tgz:65538.got - 2010.06.03 18:47:42.
