data_PCOD9262001
_publ_section_title
;
Structure prediction by ZEFSAII (Michael W. Deem and Ramdas Pophale) SiO2 
 PCOD9262001
Probable space group: C 2/C
;
_chemical_formula_sum "Si O2"
_cell_formula_units_Z 56
_cell_length_a 21.217120
_cell_length_b 28.214046
_cell_length_c 5.194473
_cell_angle_alpha 90.000000
_cell_angle_beta 106.701143
_cell_angle_gamma 90.000000
_cell_volume 2978.349977
_symmetry_space_group_name_H-M "C 2/C"
_symmetry_group_IT_number 15
_symmetry_cell_setting 'monoclinic'
loop_
_space_group_symop_operation_xyz
x,y,z
-x,y,1/2-z
-x,-y,-z
x,-y,1/2+z
1/2+x,1/2+y,z
1/2-x,1/2+y,1/2-z
1/2-x,1/2-y,-z
1/2+x,1/2-y,1/2+z
loop_
_atom_site_type_symbol
_atom_site_label
_atom_site_fract_x
_atom_site_fract_y
_atom_site_fract_z
Si Si1 0.754089 0.513755 0.077686
Si Si2 0.393448 0.526738 0.074192
Si Si3 0.745210 0.674790 0.629190
Si Si4 0.142903 0.746648 0.804104
Si Si5 0.569057 0.272847 0.198447
Si Si6 0.792428 0.119407 0.407924
Si Si7 0.569086 0.616613 0.701058
O O1 0.792482 0.500911 0.374629
O O2 0.686155 0.481796 0.006842
O O3 0.733977 0.567867 0.053851
O O4 0.417475 0.490532 0.879569
O O5 0.412551 0.578680 0.997975
O O6 0.816645 0.698399 0.688376
O O7 0.693290 0.715456 0.488661
O O8 0.732084 0.634864 0.399892
O O9 0.730869 0.655601 0.897257
O O10 0.119401 0.764930 0.496459
O O11 0.087527 0.744501 0.961557
O O12 0.500000 0.260494 0.250000
O O13 0.565853 0.328434 0.112210
O O14 0.871218 0.115504 0.524610
O O15 0.500000 0.604600 0.750000
#
# Coordination Sequence:
#
# PCOD9262001 Si02
#       7
#     8   8   8   8   8   8   8
#     4  10  19  32  52  68  96 132 178 223 264 319
#     4  10  21  35  48  65  92 130 180 226 272 313
#     4  11  23  35  58  76 100 139 170 235 264 313
#     4  11  21  39  56  79 104 130 181 212 275 331
#     4  11  23  38  58  80 108 138 171 225 277 323
#     4  12  21  37  52  75 101 134 184 228 276 314
#     4  11  23  36  51  72 101 138 182 237 276 312
#
# _framework density 18.802356
#
# number of rings (size 3 to 8) (size 9 to 14) (size 15 to 20)
#    0.000    1.143    5.714    2.143    2.000    4.000 
#    0.000    3.571    0.000    0.000    0.000    0.000 
#    0.000    0.000    0.000    0.000    0.000  180.000 
#
# Total GULP energy -156447.512722 kJ/mol
# GULP energy per Si atom -5587.411169 kJ/mol
# Density = 1.875956 g / cm^3
# Si number density = 18.802356 Si / 1000 Ang^3
#
#
#
# Elastic Constant Matrix: (Units=GPa)
#
#
# Indices 1 2 3 4 5 6 
#
# 1 58.3839 35.5853 23.0564 0.0000 -11.5779 0.0000
# 2 35.5853 56.6708 12.6815 0.0000 -2.1991 0.0000
# 3 23.0564 12.6815 74.6202 0.0000 -22.6495 0.0000
# 4 0.0000 0.0000 0.0000 21.8525 0.0000 -9.2999
# 5 -11.5779 -2.1991 -22.6495 0.0000 20.1803 0.0000
# 6 0.0000 0.0000 0.0000 -9.2999 0.0000 19.2998
#
#
#
# Elastic Compliance Matrix: (Units=1/GPa)
#
#
# Indices 1 2 3 4 5 6 
#
# 1 0.032732 -0.019427 -0.002661 0.000000 0.013675 0.000000
# 2 -0.019427 0.029943 -0.002243 0.000000 -0.010400 0.000000
# 3 -0.002661 -0.002243 0.021335 0.000000 0.022175 0.000000
# 4 0.000000 0.000000 0.000000 0.057567 0.000000 0.027739
# 5 0.013675 -0.010400 0.022175 0.000000 0.081154 0.000000
# 6 0.000000 0.000000 0.000000 0.027739 0.000000 0.065181
#
#
# Mechanical properties :
#
#
# Convention : Reuss Voigt Hill
#
# Bulk Modulus (GPa) = 28.29022 36.92459 32.60741
# Shear Modulus (GPa) = 14.35314 20.15662 17.25488
#
# Velocity S-wave (km/s) = 2.76591 3.27773 3.03264
# Velocity P-wave (km/s) = 5.02783 5.83143 5.44448
#
# Compressibility (1/GPa) = 0.03534790
#
# Stress axis : x y z
#
# Youngs Moduli (GPa) = 30.55147 33.39693 46.87058
#
# Poissons Ratio (x) = 0.64880 0.12473
# Poissons Ratio (y) = 0.59352 0.10512
# Poissons Ratio (z) = 0.08130 0.07490
#
# Static dielectric constant tensor:
#      x y z
#    x 1.672440 0.000000 -0.030820 
#    y 0.000000 1.670200 0.000000 
#    z -0.030820 0.000000 1.742100 
# 
# From -- ./inp_files/13931.got.cif
#   From: 2010.05.17/outbox.cif.g08.bks.cpg/sg15_7_cif.got.tgz:13931.got - 2010.06.03 18:47:42.
