data_PCOD9262305
_publ_section_title
;
Structure prediction by ZEFSAII (Michael W. Deem and Ramdas Pophale) SiO2 
 PCOD9262305
Probable space group: C 2/C
;
_chemical_formula_sum "Si O2"
_cell_formula_units_Z 36
_cell_length_a 13.237966
_cell_length_b 19.501691
_cell_length_c 8.902676
_cell_angle_alpha 90.000000
_cell_angle_beta 124.225449
_cell_angle_gamma 90.000000
_cell_volume 1900.337610
_symmetry_space_group_name_H-M "C 2/C"
_symmetry_group_IT_number 15
_symmetry_cell_setting 'monoclinic'
loop_
_space_group_symop_operation_xyz
x,y,z
-x,y,1/2-z
-x,-y,-z
x,-y,1/2+z
1/2+x,1/2+y,z
1/2-x,1/2+y,1/2-z
1/2-x,1/2-y,-z
1/2+x,1/2-y,1/2+z
loop_
_atom_site_type_symbol
_atom_site_label
_atom_site_fract_x
_atom_site_fract_y
_atom_site_fract_z
Si Si1 0.000000 0.715403 0.750000
Si Si2 0.724699 0.997732 0.071075
Si Si3 0.331695 0.901440 0.227003
Si Si4 0.058080 0.848285 0.954342
Si Si5 0.896090 0.055025 0.460929
O O1 0.909335 0.665891 0.762628
O O2 0.935428 0.767872 0.579411
O O3 0.650862 0.940592 0.101567
O O4 0.788028 0.045536 0.249343
O O5 0.833837 0.962428 0.066623
O O6 0.650281 0.044519 0.893508
O O7 0.188861 0.880308 0.096711
O O8 0.000000 0.877936 0.750000
O O9 0.962001 0.871958 0.999548
O O10 0.000000 0.000000 0.500000
#
# Coordination Sequence:
#
# PCOD9262305 Si02
#       5
#     4   8   8   8   8
#     4  10  24  38  52  74 116 158 184 200 260 354
#     4  10  20  29  58  83 113 132 177 238 272 312
#     4  11  21  37  55  84 107 145 183 226 270 316
#     4  10  19  32  59  81 104 139 178 227 268 319
#     4  11  16  30  53  92 108 128 171 237 289 300
#
# _framework density 18.944002999999999
#
# number of rings (size 3 to 8) (size 9 to 14) (size 15 to 20)
#    0.667    0.889    6.667    1.333    0.000    0.889 
#    0.000    1.111    0.000    5.333    0.000    0.000 
#    0.000    0.000    0.000    0.000    0.000    0.000 
#
# Total GULP energy -100351.774885 kJ/mol
# GULP energy per Si atom -5575.098605 kJ/mol
# Density = 1.890089 g / cm^3
# Si number density = 18.944003 Si / 1000 Ang^3
#
#
#
# Elastic Constant Matrix: (Units=GPa)
#
#
# Indices 1 2 3 4 5 6 
#
# 1 38.5241 32.7386 13.6675 0.0000 -10.8415 0.0000
# 2 32.7386 113.1810 22.0523 0.0000 -20.6404 0.0000
# 3 13.6675 22.0523 57.1539 0.0000 -20.4244 0.0000
# 4 0.0000 0.0000 0.0000 2.8185 0.0000 -6.2223
# 5 -10.8415 -20.6404 -20.4244 0.0000 19.0799 0.0000
# 6 0.0000 0.0000 0.0000 -6.2223 0.0000 42.7543
#
#
#
# Elastic Compliance Matrix: (Units=1/GPa)
#
#
# Indices 1 2 3 4 5 6 
#
# 1 0.036519 -0.008446 -0.002144 0.000000 0.009318 0.000000
# 2 -0.008446 0.012960 0.000509 0.000000 0.009766 0.000000
# 3 -0.002144 0.000509 0.028462 0.000000 0.029800 0.000000
# 4 0.000000 0.000000 0.000000 0.522762 0.000000 0.076080
# 5 0.009318 0.009766 0.029800 0.000000 0.100171 0.000000
# 6 0.000000 0.000000 0.000000 0.076080 0.000000 0.034462
#
#
# Mechanical properties :
#
#
# Convention : Reuss Voigt Hill
#
# Bulk Modulus (GPa) = 17.30731 38.41953 27.86342
# Shear Modulus (GPa) = 6.45363 22.29058 14.37210
#
# Velocity S-wave (km/s) = 1.84772 3.43396 2.75737
# Velocity P-wave (km/s) = 3.70243 6.00395 4.98775
#
# Compressibility (1/GPa) = 0.05777906
#
# Stress axis : x y z
#
# Youngs Moduli (GPa) = 27.38333 77.15844 35.13420
#
# Poissons Ratio (x) = 0.65170 0.07533
# Poissons Ratio (y) = 0.23129 -0.01789
# Poissons Ratio (z) = 0.05871 -0.03928
#
# Static dielectric constant tensor:
#      x y z
#    x 1.678880 0.000000 -0.001450 
#    y 0.000000 1.678850 0.000000 
#    z -0.001450 0.000000 1.678100 
# 
# From -- ./inp_files/28727.got.cif
#   From: 2010.05.17/outbox.cif.g08.bks.cpg/sg15_15_cif.got.tgz:28727.got - 2010.06.03 18:47:42.
