data_PCOD9262067
_publ_section_title
;
Structure prediction by ZEFSAII (Michael W. Deem and Ramdas Pophale) SiO2 
 PCOD9262067
Probable space group: C 2/C
;
_chemical_formula_sum "Si O2"
_cell_formula_units_Z 64
_cell_length_a 17.490391
_cell_length_b 18.875950
_cell_length_c 12.151573
_cell_angle_alpha 90.000000
_cell_angle_beta 49.439709
_cell_angle_gamma 90.000000
_cell_volume 3047.864272
_symmetry_space_group_name_H-M "C 2/C"
_symmetry_group_IT_number 15
_symmetry_cell_setting 'monoclinic'
loop_
_space_group_symop_operation_xyz
x,y,z
-x,y,1/2-z
-x,-y,-z
x,-y,1/2+z
1/2+x,1/2+y,z
1/2-x,1/2+y,1/2-z
1/2-x,1/2-y,-z
1/2+x,1/2-y,1/2+z
loop_
_atom_site_type_symbol
_atom_site_label
_atom_site_fract_x
_atom_site_fract_y
_atom_site_fract_z
Si Si1 0.687532 0.089117 0.839830
Si Si2 0.794732 0.489078 0.876834
Si Si3 0.700220 0.635312 0.563682
Si Si4 0.384958 0.267555 0.873539
Si Si5 0.031417 0.399117 0.892221
Si Si6 0.098288 0.399453 0.084940
Si Si7 0.244519 0.270412 0.193940
Si Si8 0.368813 0.227584 0.293643
O O1 0.775832 0.099660 0.842883
O O2 0.672637 0.166051 0.798583
O O3 0.719279 0.035244 0.717868
O O4 0.581320 0.071883 0.995571
O O5 0.896187 0.445021 0.752945
O O6 0.817424 0.544567 0.954215
O O7 0.706122 0.431683 0.977451
O O8 0.617921 0.696165 0.660838
O O9 0.800084 0.680660 0.438772
O O10 0.500000 0.287493 0.750000
O O11 0.379948 0.182468 0.903151
O O12 0.322253 0.280233 0.820677
O O13 0.330073 0.299884 0.030921
O O14 0.038721 0.319402 0.836293
O O15 0.073870 0.400795 0.977819
O O16 0.000000 0.417615 0.250000
O O17 0.298823 0.238994 0.249969
#
# Coordination Sequence:
#
# PCOD9262067 Si02
#       8
#     8   8   8   8   8   8   8   8
#     4  11  20  32  48  79 108 136 177 218 265 328
#     4  11  21  30  47  72 110 145 176 211 266 333
#     4   9  21  35  49  69 105 144 182 221 257 315
#     4  10  19  33  51  77 110 142 176 216 260 320
#     4  11  21  31  50  72 108 149 178 217 264 321
#     4  11  19  30  46  72 107 141 169 210 261 331
#     4  10  19  32  53  74 106 142 176 219 263 310
#     4   9  19  36  50  66  99 148 185 220 253 295
#
# _framework density 20.99831
#
# number of rings (size 3 to 8) (size 9 to 14) (size 15 to 20)
#    0.000    1.750    3.750    1.875    1.750    1.500 
#    0.000    0.000    0.000    0.000    0.000    0.000 
#   18.750    7.250    0.000    0.000    0.000    0.000 
#
# Total GULP energy -178540.696199 kJ/mol
# GULP energy per Si atom -5579.396756 kJ/mol
# Density = 2.095052 g / cm^3
# Si number density = 20.998310 Si / 1000 Ang^3
#
#
#
# Elastic Constant Matrix: (Units=GPa)
#
#
# Indices 1 2 3 4 5 6 
#
# 1 38.5288 7.8882 25.0203 0.0000 2.8677 0.0000
# 2 7.8882 83.2112 21.4673 0.0000 11.2738 0.0000
# 3 25.0203 21.4673 80.8487 0.0000 9.8487 0.0000
# 4 0.0000 0.0000 0.0000 41.0455 0.0000 6.1558
# 5 2.8677 11.2738 9.8487 0.0000 25.6861 0.0000
# 6 0.0000 0.0000 0.0000 6.1558 0.0000 16.7566
#
#
#
# Elastic Compliance Matrix: (Units=1/GPa)
#
#
# Indices 1 2 3 4 5 6 
#
# 1 0.032508 -0.000571 -0.009962 0.000000 0.000441 0.000000
# 2 -0.000571 0.013442 -0.002813 0.000000 -0.004757 0.000000
# 3 -0.009962 -0.002813 0.016693 0.000000 -0.004054 0.000000
# 4 0.000000 0.000000 0.000000 0.025784 0.000000 -0.009472
# 5 0.000441 -0.004757 -0.004054 0.000000 0.042525 0.000000
# 6 0.000000 0.000000 0.000000 -0.009472 0.000000 0.063158
#
#
# Mechanical properties :
#
#
# Convention : Reuss Voigt Hill
#
# Bulk Modulus (GPa) = 27.81673 34.59340 31.20506
# Shear Modulus (GPa) = 21.47900 26.57848 24.02874
#
# Velocity S-wave (km/s) = 3.20174 3.56159 3.38645
# Velocity P-wave (km/s) = 5.19077 5.78129 5.49397
#
# Compressibility (1/GPa) = 0.03594959
#
# Stress axis : x y z
#
# Youngs Moduli (GPa) = 30.76145 74.39368 59.90711
#
# Poissons Ratio (x) = 0.04250 0.59682
# Poissons Ratio (y) = 0.01758 0.16851
# Poissons Ratio (z) = 0.30646 0.20926
#
# Static dielectric constant tensor:
#      x y z
#    x 1.771030 0.000000 0.019460 
#    y 0.000000 1.834340 0.000000 
#    z 0.019460 0.000000 1.792040 
# 
# From -- ./inp_files/107490.got.cif
#   From: 2010.05.17/outbox.cif.g08.bks.cpg/sg15_54_cif.got.tgz:107490.got - 2010.06.03 18:47:42.
