data_PCOD9262807
_publ_section_title
;
Structure prediction by ZEFSAII (Michael W. Deem and Ramdas Pophale) SiO2 
 PCOD9262807
Probable space group: C 2/C
;
_chemical_formula_sum "Si O2"
_cell_formula_units_Z 52
_cell_length_a 13.911673
_cell_length_b 19.387333
_cell_length_c 9.369232
_cell_angle_alpha 90.000000
_cell_angle_beta 68.085863
_cell_angle_gamma 90.000000
_cell_volume 2344.388971
_symmetry_space_group_name_H-M "C 2/C"
_symmetry_group_IT_number 15
_symmetry_cell_setting 'monoclinic'
loop_
_space_group_symop_operation_xyz
x,y,z
-x,y,1/2-z
-x,-y,-z
x,-y,1/2+z
1/2+x,1/2+y,z
1/2-x,1/2+y,1/2-z
1/2-x,1/2-y,-z
1/2+x,1/2-y,1/2+z
loop_
_atom_site_type_symbol
_atom_site_label
_atom_site_fract_x
_atom_site_fract_y
_atom_site_fract_z
Si Si1 0.658920 0.824820 0.665093
Si Si2 0.569255 0.945846 0.053456
Si Si3 0.899627 0.984895 0.650385
Si Si4 0.999701 0.297445 0.992344
Si Si5 0.096925 0.834538 0.915301
Si Si6 0.825311 0.521350 0.270769
Si Si7 0.000000 0.901369 0.250000
O O1 0.595794 0.788624 0.828633
O O2 0.602878 0.804556 0.550064
O O3 0.782063 0.817888 0.617707
O O4 0.636854 0.906739 0.684551
O O5 0.527783 0.868688 0.055164
O O6 0.671899 0.960764 0.899055
O O7 0.500000 0.000000 0.000000
O O8 0.602845 0.964205 0.195396
O O9 0.903987 0.903316 0.682053
O O10 0.792408 0.994271 0.628296
O O11 0.907996 0.045319 0.761261
O O12 0.000000 0.000000 0.500000
O O13 0.969282 0.230696 0.100226
O O14 0.040411 0.856788 0.095137
#
# Coordination Sequence:
#
# PCOD9262807 Si02
#       7
#     8   8   8   8   8   8   4
#     4   9  18  33  52  85 116 153 201 252 306 354
#     4  11  21  36  58  88 124 164 204 253 306 375
#     4   9  21  36  58  86 115 151 202 258 311 360
#     4  10  19  33  56  83 120 157 195 253 304 362
#     4  10  20  35  55  88 115 151 205 250 309 369
#     4  10  21  35  59  89 120 160 208 254 312 370
#     4  10  20  36  62  86 112 154 200 256 312 364
#
# _framework density 22.180620000000001
#
# number of rings (size 3 to 8) (size 9 to 14) (size 15 to 20)
#    0.000    2.154    1.538    1.846    6.462    0.000 
#    0.000    1.538    3.385    3.692    0.000    0.000 
#    0.000    0.000    0.000    0.000    0.000    0.000 
#
# Total GULP energy -144868.745829 kJ/mol
# GULP energy per Si atom -5571.874840 kJ/mol
# Density = 2.213014 g / cm^3
# Si number density = 22.180620 Si / 1000 Ang^3
#
#
#
# Elastic Constant Matrix: (Units=GPa)
#
#
# Indices 1 2 3 4 5 6 
#
# 1 94.5177 59.4278 23.6514 0.0000 -18.3593 0.0000
# 2 59.4278 135.3928 27.4430 0.0000 -4.4151 0.0000
# 3 23.6514 27.4430 44.7789 0.0000 2.9580 0.0000
# 4 0.0000 0.0000 0.0000 18.9808 0.0000 -4.6234
# 5 -18.3593 -4.4151 2.9580 0.0000 35.9350 0.0000
# 6 0.0000 0.0000 0.0000 -4.6234 0.0000 26.8418
#
#
#
# Elastic Compliance Matrix: (Units=1/GPa)
#
#
# Indices 1 2 3 4 5 6 
#
# 1 0.017765 -0.006269 -0.006123 0.000000 0.008810 0.000000
# 2 -0.006269 0.010724 -0.003153 0.000000 -0.001626 0.000000
# 3 -0.006123 -0.003153 0.027883 0.000000 -0.005811 0.000000
# 4 0.000000 0.000000 0.000000 0.054992 0.000000 0.009472
# 5 0.008810 -0.001626 -0.005811 0.000000 0.032608 0.000000
# 6 0.000000 0.000000 0.000000 0.009472 0.000000 0.038887
#
#
# Mechanical properties :
#
#
# Convention : Reuss Voigt Hill
#
# Bulk Modulus (GPa) = 39.55699 55.08150 47.31924
# Shear Modulus (GPa) = 22.48437 27.29600 24.89018
#
# Velocity S-wave (km/s) = 3.18731 3.51183 3.35350
# Velocity P-wave (km/s) = 5.60518 6.42892 6.03113
#
# Compressibility (1/GPa) = 0.02527998
#
# Stress axis : x y z
#
# Youngs Moduli (GPa) = 56.28940 93.25001 35.86477
#
# Poissons Ratio (x) = 0.58461 0.21960
# Poissons Ratio (y) = 0.35290 0.11310
# Poissons Ratio (z) = 0.34467 0.29406
#
# Static dielectric constant tensor:
#      x y z
#    x 1.898170 0.000000 -0.051690 
#    y 0.000000 1.845970 0.000000 
#    z -0.051690 0.000000 2.074910 
# 
# From -- ./inp_files/99330.got.cif
#   From: 2010.05.17/outbox.cif.g08.bks.cpg/sg15_50_cif.got.tgz:99330.got - 2010.06.03 18:47:42.
