data_PCOD9262168
_publ_section_title
;
Structure prediction by ZEFSAII (Michael W. Deem and Ramdas Pophale) SiO2 
 PCOD9262168
Probable space group: C 2/C
;
_chemical_formula_sum "Si O2"
_cell_formula_units_Z 52
_cell_length_a 16.426391
_cell_length_b 17.663658
_cell_length_c 9.391867
_cell_angle_alpha 90.000000
_cell_angle_beta 105.598998
_cell_angle_gamma 90.000000
_cell_volume 2624.680552
_symmetry_space_group_name_H-M "C 2/C"
_symmetry_group_IT_number 15
_symmetry_cell_setting 'monoclinic'
loop_
_space_group_symop_operation_xyz
x,y,z
-x,y,1/2-z
-x,-y,-z
x,-y,1/2+z
1/2+x,1/2+y,z
1/2-x,1/2+y,1/2-z
1/2-x,1/2-y,-z
1/2+x,1/2-y,1/2+z
loop_
_atom_site_type_symbol
_atom_site_label
_atom_site_fract_x
_atom_site_fract_y
_atom_site_fract_z
Si Si1 0.966836 0.620790 0.967989
Si Si2 0.227598 0.935315 0.570423
Si Si3 0.000000 0.264291 0.250000
Si Si4 0.109364 0.460367 0.655773
Si Si5 0.787978 0.333987 0.351545
Si Si6 0.267195 0.907192 0.033278
Si Si7 0.325412 0.317143 0.742294
O O1 0.015034 0.678209 0.887066
O O2 0.933040 0.543476 0.875434
O O3 0.880483 0.662233 0.966677
O O4 0.030764 0.595791 0.118661
O O5 0.320116 0.946649 0.691014
O O6 0.232055 0.883568 0.431712
O O7 0.171309 0.891574 0.658257
O O8 0.204380 0.021421 0.523860
O O9 0.083510 0.216457 0.254780
O O10 0.158121 0.442139 0.529820
O O11 0.790973 0.374785 0.198564
O O12 0.773338 0.246375 0.307307
O O13 0.224742 0.841220 0.921752
#
# Coordination Sequence:
#
# PCOD9262168 Si02
#       7
#     8   8   4   8   8   8   8
#     4  10  19  32  54  85 126 158 191 235 279 367
#     4  11  21  37  57  89 120 152 202 249 293 343
#     4  10  22  40  60  84 114 160 200 240 308 356
#     4  10  20  32  55  88 124 159 194 229 291 353
#     4  11  20  35  55  86 121 161 195 238 294 352
#     4  11  20  38  57  85 113 159 206 239 289 359
#     4  10  23  39  60  81 114 152 203 254 297 354
#
# _framework density 19.811934000000001
#
# number of rings (size 3 to 8) (size 9 to 14) (size 15 to 20)
#    0.000    1.538    3.077    3.692    0.000    1.846 
#    0.000    0.769    0.000    2.769    0.000    0.000 
#    0.000    0.000    0.000    0.000    0.000    0.000 
#
# Total GULP energy -145003.789842 kJ/mol
# GULP energy per Si atom -5577.068840 kJ/mol
# Density = 1.976684 g / cm^3
# Si number density = 19.811934 Si / 1000 Ang^3
#
#
#
# Elastic Constant Matrix: (Units=GPa)
#
#
# Indices 1 2 3 4 5 6 
#
# 1 52.1911 28.8393 27.5873 0.0000 -1.7802 0.0000
# 2 28.8393 99.4187 16.4416 0.0000 6.4011 0.0000
# 3 27.5873 16.4416 74.4591 0.0000 -7.1852 0.0000
# 4 0.0000 0.0000 0.0000 38.7214 0.0000 -1.0128
# 5 -1.7802 6.4011 -7.1852 0.0000 19.9038 0.0000
# 6 0.0000 0.0000 0.0000 -1.0128 0.0000 36.6906
#
#
#
# Elastic Compliance Matrix: (Units=1/GPa)
#
#
# Indices 1 2 3 4 5 6 
#
# 1 0.027388 -0.006629 -0.008539 0.000000 0.001499 0.000000
# 2 -0.006629 0.012419 -0.000755 0.000000 -0.004860 0.000000
# 3 -0.008539 -0.000755 0.017313 0.000000 0.005729 0.000000
# 4 0.000000 0.000000 0.000000 0.025844 0.000000 0.000713
# 5 0.001499 -0.004860 0.005729 0.000000 0.054007 0.000000
# 6 0.000000 0.000000 0.000000 0.000713 0.000000 0.027275
#
#
# Mechanical properties :
#
#
# Convention : Reuss Voigt Hill
#
# Bulk Modulus (GPa) = 39.56570 41.31170 40.43870
# Shear Modulus (GPa) = 24.44777 29.27652 26.86214
#
# Velocity S-wave (km/s) = 3.51663 3.84828 3.68619
# Velocity P-wave (km/s) = 6.04177 6.37518 6.21071
#
# Compressibility (1/GPa) = 0.02527442
#
# Stress axis : x y z
#
# Youngs Moduli (GPa) = 36.51229 80.52035 57.75844
#
# Poissons Ratio (x) = 0.53378 0.49319
# Poissons Ratio (y) = 0.24204 0.04362
# Poissons Ratio (z) = 0.31177 0.06081
#
# Static dielectric constant tensor:
#      x y z
#    x 1.729460 0.000000 -0.048830 
#    y 0.000000 1.747310 0.000000 
#    z -0.048830 0.000000 1.732510 
# 
# From -- ./inp_files/48653.got.cif
#   From: 2010.05.17/outbox.cif.g08.bks.cpg/sg15_25_cif.got.tgz:48653.got - 2010.06.03 18:47:42.
