data_PCOD9262593
_publ_section_title
;
Structure prediction by ZEFSAII (Michael W. Deem and Ramdas Pophale) SiO2 
 PCOD9262593
Probable space group: C 2/C
;
_chemical_formula_sum "Si O2"
_cell_formula_units_Z 64
_cell_length_a 12.797620
_cell_length_b 28.315088
_cell_length_c 9.680585
_cell_angle_alpha 90.000000
_cell_angle_beta 96.642141
_cell_angle_gamma 90.000000
_cell_volume 3484.367068
_symmetry_space_group_name_H-M "C 2/C"
_symmetry_group_IT_number 15
_symmetry_cell_setting 'monoclinic'
loop_
_space_group_symop_operation_xyz
x,y,z
-x,y,1/2-z
-x,-y,-z
x,-y,1/2+z
1/2+x,1/2+y,z
1/2-x,1/2+y,1/2-z
1/2-x,1/2-y,-z
1/2+x,1/2-y,1/2+z
loop_
_atom_site_type_symbol
_atom_site_label
_atom_site_fract_x
_atom_site_fract_y
_atom_site_fract_z
Si Si1 0.622413 0.600857 0.526817
Si Si2 0.619401 0.855216 0.727948
Si Si3 0.266924 0.301420 0.941858
Si Si4 0.878511 0.235707 0.192193
Si Si5 0.879745 0.973277 0.261197
Si Si6 0.888264 0.887865 0.053918
Si Si7 0.192947 0.925531 0.748517
Si Si8 0.229507 0.680860 0.970437
O O1 0.628940 0.547932 0.586951
O O2 0.513471 0.620884 0.570006
O O3 0.626775 0.597699 0.362539
O O4 0.723062 0.632419 0.580670
O O5 0.500000 0.865164 0.750000
O O6 0.662122 0.823693 0.861716
O O7 0.692594 0.901631 0.733091
O O8 0.648620 0.829020 0.586392
O O9 0.336375 0.293416 0.816034
O O10 0.250000 0.250000 0.000000
O O11 0.323899 0.339173 0.049188
O O12 0.824092 0.286188 0.152333
O O13 0.000000 0.241862 0.250000
O O14 0.833234 0.206569 0.052970
O O15 0.861339 0.927432 0.162809
O O16 0.000000 0.988639 0.250000
O O17 0.807540 0.018453 0.231713
O O18 0.860032 0.911764 0.903429
#
# Coordination Sequence:
#
# PCOD9262593 Si02
#       8
#     8   8   8   8   8   8   8   8
#     4  10  19  33  54  78 114 141 174 224 284 335
#     4   9  20  38  56  77 108 146 187 231 276 323
#     4  10  22  35  53  81 108 145 185 224 278 328
#     4  10  20  35  56  78 104 144 190 229 272 327
#     4  10  20  32  53  87 115 140 172 230 295 335
#     4  10  20  34  53  82 114 145 178 227 279 340
#     4  10  19  34  58  80 105 146 186 222 278 347
#     4   9  20  35  54  80 106 143 188 232 271 331
#
# _framework density 18.367754000000001
#
# number of rings (size 3 to 8) (size 9 to 14) (size 15 to 20)
#    0.000    2.250    0.000    3.375    3.500    2.000 
#    2.250    0.000    0.000   12.750    0.000    0.000 
#    0.000    0.000    0.000    0.000    0.000    0.000 
#
# Total GULP energy -178352.645397 kJ/mol
# GULP energy per Si atom -5573.520169 kJ/mol
# Density = 1.832595 g / cm^3
# Si number density = 18.367754 Si / 1000 Ang^3
#
#
#
# Elastic Constant Matrix: (Units=GPa)
#
#
# Indices 1 2 3 4 5 6 
#
# 1 89.3430 41.9293 19.4713 0.0000 7.0532 0.0000
# 2 41.9293 103.3152 20.0341 0.0000 -1.7767 0.0000
# 3 19.4713 20.0341 44.5837 0.0000 5.0324 0.0000
# 4 0.0000 0.0000 0.0000 24.3126 0.0000 -1.6973
# 5 7.0532 -1.7767 5.0324 0.0000 14.3817 0.0000
# 6 0.0000 0.0000 0.0000 -1.6973 0.0000 14.8011
#
#
#
# Elastic Compliance Matrix: (Units=1/GPa)
#
#
# Indices 1 2 3 4 5 6 
#
# 1 0.015088 -0.005605 -0.003287 0.000000 -0.006942 0.000000
# 2 -0.005605 0.012820 -0.003958 0.000000 0.005718 0.000000
# 3 -0.003287 -0.003958 0.026566 0.000000 -0.008173 0.000000
# 4 0.000000 0.000000 0.000000 0.041463 0.000000 0.004755
# 5 -0.006942 0.005718 -0.008173 0.000000 0.076503 0.000000
# 6 0.000000 0.000000 0.000000 0.004755 0.000000 0.068108
#
#
# Mechanical properties :
#
#
# Convention : Reuss Voigt Hill
#
# Bulk Modulus (GPa) = 34.75444 44.45682 39.60563
# Shear Modulus (GPa) = 18.12647 21.08624 19.60636
#
# Velocity S-wave (km/s) = 3.14485 3.39190 3.27070
# Velocity P-wave (km/s) = 5.67003 6.29255 5.98939
#
# Compressibility (1/GPa) = 0.02877330
#
# Stress axis : x y z
#
# Youngs Moduli (GPa) = 66.27884 78.00457 37.64146
#
# Poissons Ratio (x) = 0.43723 0.12373
# Poissons Ratio (y) = 0.37150 0.14899
# Poissons Ratio (z) = 0.21786 0.30875
#
# Static dielectric constant tensor:
#      x y z
#    x 1.647400 0.000000 0.005270 
#    y 0.000000 1.707620 0.000000 
#    z 0.005270 0.000000 1.673240 
# 
# From -- ./inp_files/35692.got.cif
#   From: 2010.05.17/outbox.cif.g08.bks.cpg/sg15_18_cif.got.tgz:35692.got - 2010.06.03 18:47:42.
