data_PCOD9262401
_publ_section_title
;
Structure prediction by ZEFSAII (Michael W. Deem and Ramdas Pophale) SiO2 
 PCOD9262401
Probable space group: C 2/C
;
_chemical_formula_sum "Si O2"
_cell_formula_units_Z 32
_cell_length_a 13.559319
_cell_length_b 7.005543
_cell_length_c 15.144928
_cell_angle_alpha 90.000000
_cell_angle_beta 121.803083
_cell_angle_gamma 90.000000
_cell_volume 1222.634087
_symmetry_space_group_name_H-M "C 2/C"
_symmetry_group_IT_number 15
_symmetry_cell_setting 'monoclinic'
loop_
_space_group_symop_operation_xyz
x,y,z
-x,y,1/2-z
-x,-y,-z
x,-y,1/2+z
1/2+x,1/2+y,z
1/2-x,1/2+y,1/2-z
1/2-x,1/2-y,-z
1/2+x,1/2-y,1/2+z
loop_
_atom_site_type_symbol
_atom_site_label
_atom_site_fract_x
_atom_site_fract_y
_atom_site_fract_z
Si Si1 0.477877 0.361601 0.387214
Si Si2 0.828922 0.851083 0.871030
Si Si3 0.897800 0.485424 0.650888
Si Si4 0.134873 0.441456 0.559695
O O1 0.586249 0.394122 0.504720
O O2 0.411593 0.559310 0.333917
O O3 0.538834 0.211765 0.350770
O O4 0.371511 0.247863 0.385765
O O5 0.705337 0.941822 0.831501
O O6 0.806769 0.623759 0.867547
O O7 0.845194 0.574148 0.535733
O O8 0.000000 0.594876 0.750000
O O9 0.000000 0.500000 0.500000
#
# Coordination Sequence:
#
# PCOD9262401 Si02
#       4
#     8   8   8   8
#     4   9  18  35  56  78  95 144 187 207 260 317
#     4   9  17  33  57  72 101 138 177 218 253 315
#     4  10  19  33  50  81 113 133 170 225 272 311
#     4   8  16  33  56  74  98 138 179 214 249 313
#
# _framework density 26.172999000000001
#
# number of rings (size 3 to 8) (size 9 to 14) (size 15 to 20)
#    0.000    3.500    0.000    3.000    0.000    1.000 
#   13.500    5.000    0.000   40.500    0.000    0.000 
#    0.000    0.000    0.000    0.000    0.000    0.000 
#
# Total GULP energy -89130.110862 kJ/mol
# GULP energy per Si atom -5570.631929 kJ/mol
# Density = 2.611343 g / cm^3
# Si number density = 26.172999 Si / 1000 Ang^3
#
#
#
# Elastic Constant Matrix: (Units=GPa)
#
#
# Indices 1 2 3 4 5 6 
#
# 1 112.0269 45.3521 36.8046 0.0000 17.8055 0.0000
# 2 45.3521 81.0329 32.3816 0.0000 6.0916 0.0000
# 3 36.8046 32.3816 82.8147 0.0000 -0.8843 0.0000
# 4 0.0000 0.0000 0.0000 14.1518 0.0000 -5.0900
# 5 17.8055 6.0916 -0.8843 0.0000 28.6483 0.0000
# 6 0.0000 0.0000 0.0000 -5.0900 0.0000 16.3636
#
#
#
# Elastic Compliance Matrix: (Units=1/GPa)
#
#
# Indices 1 2 3 4 5 6 
#
# 1 0.013639 -0.005476 -0.004000 0.000000 -0.007436 0.000000
# 2 -0.005476 0.017141 -0.004273 0.000000 -0.000373 0.000000
# 3 -0.004000 -0.004273 0.015565 0.000000 0.003875 0.000000
# 4 0.000000 0.000000 0.000000 0.079564 0.000000 0.024749
# 5 -0.007436 -0.000373 0.003875 0.000000 0.039727 0.000000
# 6 0.000000 0.000000 0.000000 0.024749 0.000000 0.068809
#
#
# Mechanical properties :
#
#
# Convention : Reuss Voigt Hill
#
# Bulk Modulus (GPa) = 53.05617 56.10568 54.58092
# Shear Modulus (GPa) = 18.64106 22.58849 20.61478
#
# Velocity S-wave (km/s) = 2.67165 2.94095 2.80953
# Velocity P-wave (km/s) = 5.46189 5.74589 5.60569
#
# Compressibility (1/GPa) = 0.01884795
#
# Stress axis : x y z
#
# Youngs Moduli (GPa) = 73.31720 58.33969 64.24783
#
# Poissons Ratio (x) = 0.31948 0.25697
# Poissons Ratio (y) = 0.40150 0.27450
# Poissons Ratio (z) = 0.29325 0.24926
#
# Static dielectric constant tensor:
#      x y z
#    x 2.010680 0.000000 -0.090760 
#    y 0.000000 2.335560 0.000000 
#    z -0.090760 0.000000 2.201420 
# 
# From -- ./inp_files/202069.got.cif
#   From: 2010.05.17/outbox.cif.g08.bks.cpg/sg15_102_cif.got.tgz:202069.got - 2010.06.03 18:47:42.
