data_PCOD9262128
_publ_section_title
;
Structure prediction by ZEFSAII (Michael W. Deem and Ramdas Pophale) SiO2 
 PCOD9262128
Probable space group: C 2/C
;
_chemical_formula_sum "Si O2"
_cell_formula_units_Z 56
_cell_length_a 25.886388
_cell_length_b 11.132440
_cell_length_c 24.374651
_cell_angle_alpha 90.000000
_cell_angle_beta 160.189884
_cell_angle_gamma 90.000000
_cell_volume 2380.548119
_symmetry_space_group_name_H-M "C 2/C"
_symmetry_group_IT_number 15
_symmetry_cell_setting 'monoclinic'
loop_
_space_group_symop_operation_xyz
x,y,z
-x,y,1/2-z
-x,-y,-z
x,-y,1/2+z
1/2+x,1/2+y,z
1/2-x,1/2+y,1/2-z
1/2-x,1/2-y,-z
1/2+x,1/2-y,1/2+z
loop_
_atom_site_type_symbol
_atom_site_label
_atom_site_fract_x
_atom_site_fract_y
_atom_site_fract_z
Si Si1 0.242127 0.489900 0.233078
Si Si2 0.818652 0.421849 0.648460
Si Si3 0.490751 0.693313 0.856273
Si Si4 0.483105 0.192322 0.462618
Si Si5 0.276948 0.365492 0.383259
Si Si6 0.914398 0.152547 0.330422
Si Si7 0.824821 0.876000 0.095244
O O1 0.111363 0.406587 0.076827
O O2 0.292799 0.416755 0.336982
O O3 0.362722 0.533592 0.309708
O O4 0.169126 0.615277 0.181275
O O5 0.659894 0.358798 0.512960
O O6 0.954417 0.326174 0.793217
O O7 0.835758 0.542479 0.700149
O O8 0.780121 0.459295 0.547249
O O9 0.355339 0.618756 0.690512
O O10 0.471407 0.715603 0.901281
O O11 0.527001 0.254870 0.563469
O O12 0.221187 0.229702 0.330450
O O13 0.450323 0.372479 0.576583
O O14 0.000000 0.880872 0.250000
O O15 0.750000 0.750000 0.000000
#
# Coordination Sequence:
#
# PCOD9262128 Si02
#       7
#     8   8   8   8   8   8   8
#     4  10  20  35  49  73 109 152 193 227 267 322
#     4  10  20  34  53  81 110 142 178 221 288 339
#     4  10  19  32  54  79 108 141 178 222 279 338
#     4  10  20  32  51  75 109 149 190 228 274 320
#     4  11  22  36  54  76 108 154 193 231 271 326
#     4  11  22  36  52  74 112 153 195 231 266 318
#     4   8  16  31  50  76 106 132 163 216 278 337
#
# _framework density 23.523993000000001
#
# number of rings (size 3 to 8) (size 9 to 14) (size 15 to 20)
#    0.000    2.000    2.857    1.286    0.000    1.143 
#    0.000    0.000    0.000    0.000    0.000    9.000 
#    0.000   10.286    0.000    0.000    0.000    0.000 
#
# Total GULP energy -156287.747644 kJ/mol
# GULP energy per Si atom -5581.705273 kJ/mol
# Density = 2.347045 g / cm^3
# Si number density = 23.523993 Si / 1000 Ang^3
#
#
#
# Elastic Constant Matrix: (Units=GPa)
#
#
# Indices 1 2 3 4 5 6 
#
# 1 28.8728 8.5202 1.3827 -0.0009 -7.8539 -0.0006
# 2 8.5202 73.8904 1.1865 0.0108 10.5532 0.0048
# 3 1.3827 1.1865 44.5837 0.0059 3.9539 0.0037
# 4 -0.0009 0.0108 0.0059 30.4896 0.0018 13.4178
# 5 -7.8539 10.5532 3.9539 0.0018 23.8218 0.0004
# 6 -0.0006 0.0048 0.0037 13.4178 0.0004 16.0753
#
#
#
# Elastic Compliance Matrix: (Units=1/GPa)
#
#
# Indices 1 2 3 4 5 6 
#
# 1 0.041621 -0.007237 -0.002638 0.000003 0.017366 0.000002
# 2 -0.007237 0.015708 0.000645 -0.000005 -0.009452 -0.000001
# 3 -0.002638 0.000645 0.022934 -0.000003 -0.004962 -0.000003
# 4 0.000003 -0.000005 -0.000003 0.051840 0.000000 -0.043270
# 5 0.017366 -0.009452 -0.004962 0.000000 0.052715 0.000003
# 6 0.000002 -0.000001 -0.000003 -0.043270 0.000003 0.098324
#
#
# Mechanical properties :
#
#
# Convention : Reuss Voigt Hill
#
# Bulk Modulus (GPa) = 16.18096 18.83619 17.50857
# Shear Modulus (GPa) = 15.51812 23.16115 19.33964
#
# Velocity S-wave (km/s) = 2.57119 3.14120 2.87038
# Velocity P-wave (km/s) = 3.96335 4.60226 4.29470
#
# Compressibility (1/GPa) = 0.06180104
#
# Stress axis : x y z
#
# Youngs Moduli (GPa) = 24.02661 63.66338 43.60251
#
# Poissons Ratio (x) = 0.46074 0.11504
# Poissons Ratio (y) = 0.17388 -0.02811
# Poissons Ratio (z) = 0.06339 -0.04104
#
# Static dielectric constant tensor:
#      x y z
#    x 2.010100 0.000000 -0.020160 
#    y 0.000000 1.902750 0.000000 
#    z -0.020160 0.000000 1.970050 
# 
# From -- ./inp_files/304279.got.cif
#   From: 2010.05.17/outbox.cif.g08.bks.cpg/sg15_153_cif.got.tgz:304279.got - 2010.06.03 18:47:42.
