data_PCOD9262413
_publ_section_title
;
Structure prediction by ZEFSAII (Michael W. Deem and Ramdas Pophale) SiO2 
 PCOD9262413
Probable space group: C 2/C
;
_chemical_formula_sum "Si O2"
_cell_formula_units_Z 56
_cell_length_a 15.632908
_cell_length_b 7.105564
_cell_length_c 19.905213
_cell_angle_alpha 90.000000
_cell_angle_beta 66.825965
_cell_angle_gamma 90.000000
_cell_volume 2032.679568
_symmetry_space_group_name_H-M "C 2/C"
_symmetry_group_IT_number 15
_symmetry_cell_setting 'monoclinic'
loop_
_space_group_symop_operation_xyz
x,y,z
-x,y,1/2-z
-x,-y,-z
x,-y,1/2+z
1/2+x,1/2+y,z
1/2-x,1/2+y,1/2-z
1/2-x,1/2-y,-z
1/2+x,1/2-y,1/2+z
loop_
_atom_site_type_symbol
_atom_site_label
_atom_site_fract_x
_atom_site_fract_y
_atom_site_fract_z
Si Si1 0.580374 0.209096 0.049708
Si Si2 0.898062 0.048206 0.298055
Si Si3 0.749188 0.652589 0.256796
Si Si4 0.392587 0.737914 0.102924
Si Si5 0.893070 0.838314 0.939194
Si Si6 0.403563 0.897579 0.813301
Si Si7 0.866507 0.789354 0.093743
O O1 0.601915 0.432515 0.052361
O O2 0.611114 0.077774 0.102206
O O3 0.468785 0.203275 0.077003
O O4 0.621005 0.160849 0.964213
O O5 0.837104 0.047943 0.250876
O O6 0.860118 0.169255 0.372167
O O7 0.000000 0.121952 0.250000
O O8 0.909899 0.830044 0.311519
O O9 0.687453 0.799268 0.321140
O O10 0.819114 0.561086 0.289350
O O11 0.804888 0.721718 0.174580
O O12 0.500497 0.741466 0.090968
O O13 0.375925 0.515259 0.096655
O O14 0.844297 0.760497 0.021375
O O15 0.500000 0.964324 0.750000
#
# Coordination Sequence:
#
# PCOD9262413 Si02
#       7
#     8   8   8   8   8   8   8
#     4   8  15  31  52  69  97 133 165 206 250 289
#     4  10  19  33  51  74 103 133 167 207 250 295
#     4  12  20  26  50  82 104 126 166 214 250 294
#     4   9  17  30  49  76 101 128 166 208 249 293
#     4   8  15  31  52  69  97 133 165 206 250 289
#     4  10  19  33  51  74 103 133 167 207 250 295
#     4   9  17  30  49  76 101 128 166 208 249 293
#
# _framework density 27.549841000000001
#
# number of rings (size 3 to 8) (size 9 to 14) (size 15 to 20)
#    0.000    2.571    2.857    2.571    0.000    1.143 
#    0.000    0.000    0.000    3.429    0.000   16.000 
#    0.000    0.000    0.000    0.000    0.000    0.000 
#
# Total GULP energy -156654.565322 kJ/mol
# GULP energy per Si atom -5594.805904 kJ/mol
# Density = 2.748714 g / cm^3
# Si number density = 27.549841 Si / 1000 Ang^3
#
#
#
# Elastic Constant Matrix: (Units=GPa)
#
#
# Indices 1 2 3 4 5 6 
#
# 1 86.5867 1.2779 72.1628 0.0000 16.6503 0.0000
# 2 1.2779 92.4076 -10.1991 -0.0001 9.1289 -0.0001
# 3 72.1628 -10.1991 222.4451 0.0001 20.2916 0.0001
# 4 0.0000 -0.0001 0.0001 26.4898 0.0000 6.2231
# 5 16.6503 9.1289 20.2916 0.0000 59.5337 0.0000
# 6 0.0000 -0.0001 0.0001 6.2231 0.0000 27.6844
#
#
#
# Elastic Compliance Matrix: (Units=1/GPa)
#
#
# Indices 1 2 3 4 5 6 
#
# 1 0.016305 -0.000512 -0.005061 0.000000 -0.002757 0.000000
# 2 -0.000512 0.011104 0.000844 0.000000 -0.001847 0.000000
# 3 -0.005061 0.000844 0.006253 0.000000 -0.000845 0.000000
# 4 0.000000 0.000000 0.000000 0.039855 0.000000 -0.008959
# 5 -0.002757 -0.001847 -0.000845 0.000000 0.018139 0.000000
# 6 0.000000 0.000000 0.000000 -0.008959 0.000000 0.038135
#
#
# Mechanical properties :
#
#
# Convention : Reuss Voigt Hill
#
# Bulk Modulus (GPa) = 41.31662 58.65806 49.98734
# Shear Modulus (GPa) = 33.93987 45.28812 39.61399
#
# Velocity S-wave (km/s) = 3.51371 4.05885 3.79608
# Velocity P-wave (km/s) = 5.61170 6.58054 6.11534
#
# Compressibility (1/GPa) = 0.02420334
#
# Stress axis : x y z
#
# Youngs Moduli (GPa) = 61.33064 90.05529 159.91678
#
# Poissons Ratio (x) = 0.04609 0.80942
# Poissons Ratio (y) = 0.03139 -0.13492
# Poissons Ratio (z) = 0.31042 -0.07598
#
# Static dielectric constant tensor:
#      x y z
#    x 2.048890 0.000000 -0.008140 
#    y 0.000000 2.244730 0.000000 
#    z -0.008140 0.000000 2.177040 
# 
# From -- ./inp_files/243329.got.cif
#   From: 2010.05.17/outbox.cif.g08.bks.cpg/sg15_122_cif.got.tgz:243329.got - 2010.06.03 18:47:42.
