data_PCOD9262145
_publ_section_title
;
Structure prediction by ZEFSAII (Michael W. Deem and Ramdas Pophale) SiO2 
 PCOD9262145
Probable space group: C 2/C
;
_chemical_formula_sum "Si O2"
_cell_formula_units_Z 44
_cell_length_a 27.274225
_cell_length_b 17.342954
_cell_length_c 14.914783
_cell_angle_alpha 90.000000
_cell_angle_beta 159.903056
_cell_angle_gamma 90.000000
_cell_volume 2424.140157
_symmetry_space_group_name_H-M "C 2/C"
_symmetry_group_IT_number 15
_symmetry_cell_setting 'monoclinic'
loop_
_space_group_symop_operation_xyz
x,y,z
-x,y,1/2-z
-x,-y,-z
x,-y,1/2+z
1/2+x,1/2+y,z
1/2-x,1/2+y,1/2-z
1/2-x,1/2-y,-z
1/2+x,1/2-y,1/2+z
loop_
_atom_site_type_symbol
_atom_site_label
_atom_site_fract_x
_atom_site_fract_y
_atom_site_fract_z
Si Si1 0.460286 0.080991 0.029493
Si Si2 0.475785 0.905910 0.065165
Si Si3 0.255438 0.213623 0.275581
Si Si4 0.215504 0.831264 0.893517
Si Si5 0.000000 0.297105 0.750000
Si Si6 0.862101 0.131602 0.055621
O O1 0.513004 0.146440 0.187194
O O2 0.473832 0.994930 0.090501
O O3 0.537777 0.090730 0.066579
O O4 0.291424 0.093426 0.722839
O O5 0.633555 0.873998 0.354788
O O6 0.361326 0.849431 0.914825
O O7 0.166540 0.180438 0.208117
O O8 0.342197 0.285338 0.470272
O O9 0.141694 0.246982 0.010153
O O10 0.250000 0.750000 0.000000
O O11 0.116448 0.866799 0.800015
O O12 0.000000 0.092948 0.250000
#
# Coordination Sequence:
#
# PCOD9262145 Si02
#       6
#     8   8   8   8   4   8
#     4   9  21  36  53  80 115 148 179 227 280 337
#     4  10  19  35  58  82 105 145 195 224 271 331
#     4  10  19  32  54  82 104 148 184 228 274 327
#     4   9  17  30  54  86 105 127 189 240 256 319
#     4  10  22  36  48  78 126 144 176 230 286 326
#     4   9  17  33  54  79 109 141 179 230 281 312
#
# _framework density 18.150765
#
# number of rings (size 3 to 8) (size 9 to 14) (size 15 to 20)
#    0.000    2.545    0.000    3.818    2.545    0.727 
#    1.636    1.818    0.000    1.091    0.000    0.000 
#    0.000    0.000    0.000    0.000    0.000    0.000 
#
# Total GULP energy -122498.333736 kJ/mol
# GULP energy per Si atom -5568.106079 kJ/mol
# Density = 1.810945 g / cm^3
# Si number density = 18.150765 Si / 1000 Ang^3
#
#
#
# Elastic Constant Matrix: (Units=GPa)
#
#
# Indices 1 2 3 4 5 6 
#
# 1 108.6722 29.0314 36.3907 0.0000 10.2295 0.0000
# 2 29.0314 85.3430 19.5164 0.0000 9.7460 0.0000
# 3 36.3907 19.5164 50.5548 0.0000 2.3221 0.0000
# 4 0.0000 0.0000 0.0000 17.6810 0.0000 7.6218
# 5 10.2295 9.7460 2.3221 0.0000 27.1126 0.0000
# 6 0.0000 0.0000 0.0000 7.6218 0.0000 20.2598
#
#
#
# Elastic Compliance Matrix: (Units=1/GPa)
#
#
# Indices 1 2 3 4 5 6 
#
# 1 0.012856 -0.002090 -0.008291 0.000000 -0.003389 0.000000
# 2 -0.002090 0.013689 -0.003605 0.000000 -0.003824 0.000000
# 3 -0.008291 -0.003605 0.027044 0.000000 0.002108 0.000000
# 4 0.000000 0.000000 0.000000 0.067505 0.000000 -0.025396
# 5 -0.003389 -0.003824 0.002108 0.000000 0.039356 0.000000
# 6 0.000000 0.000000 0.000000 -0.025396 0.000000 0.058913
#
#
# Mechanical properties :
#
#
# Convention : Reuss Voigt Hill
#
# Bulk Modulus (GPa) = 39.03720 46.04967 42.54343
# Shear Modulus (GPa) = 19.54087 23.65277 21.59682
#
# Velocity S-wave (km/s) = 3.28470 3.61380 3.45317
# Velocity P-wave (km/s) = 5.99496 6.54511 6.27607
#
# Compressibility (1/GPa) = 0.02561659
#
# Stress axis : x y z
#
# Youngs Moduli (GPa) = 77.78529 73.04950 36.97730
#
# Poissons Ratio (x) = 0.15268 0.30660
# Poissons Ratio (y) = 0.16258 0.13329
# Poissons Ratio (z) = 0.64495 0.26331
#
# Static dielectric constant tensor:
#      x y z
#    x 1.690310 0.000000 -0.010480 
#    y 0.000000 1.651430 0.000000 
#    z -0.010480 0.000000 1.600090 
# 
# From -- ./inp_files/135583.got.cif
#   From: 2010.05.17/outbox.cif.g08.bks.cpg/sg15_68_cif.got.tgz:135583.got - 2010.06.03 18:47:42.
