data_PCOD9262949
_publ_section_title
;
Structure prediction by ZEFSAII (Michael W. Deem and Ramdas Pophale) SiO2 
 PCOD9262949
Probable space group: C 2/C
;
_chemical_formula_sum "Si O2"
_cell_formula_units_Z 48
_cell_length_a 8.450850
_cell_length_b 22.361293
_cell_length_c 10.736829
_cell_angle_alpha 90.000000
_cell_angle_beta 81.395871
_cell_angle_gamma 90.000000
_cell_volume 2006.124615
_symmetry_space_group_name_H-M "C 2/C"
_symmetry_group_IT_number 15
_symmetry_cell_setting 'monoclinic'
loop_
_space_group_symop_operation_xyz
x,y,z
-x,y,1/2-z
-x,-y,-z
x,-y,1/2+z
1/2+x,1/2+y,z
1/2-x,1/2+y,1/2-z
1/2-x,1/2-y,-z
1/2+x,1/2-y,1/2+z
loop_
_atom_site_type_symbol
_atom_site_label
_atom_site_fract_x
_atom_site_fract_y
_atom_site_fract_z
Si Si1 0.145695 0.764665 0.305380
Si Si2 0.226836 0.387720 0.307073
Si Si3 0.274766 0.494763 0.472803
Si Si4 0.052619 0.075339 0.379224
Si Si5 0.394364 0.103675 0.959636
Si Si6 0.121674 0.808435 0.583479
O O1 0.176188 0.826600 0.226306
O O2 0.094481 0.776646 0.454550
O O3 0.318545 0.733677 0.311101
O O4 0.000000 0.732947 0.250000
O O5 0.304784 0.446510 0.360030
O O6 0.168332 0.403287 0.175092
O O7 0.075733 0.376188 0.416103
O O8 0.413553 0.544735 0.477379
O O9 0.283174 0.452291 0.593197
O O10 0.127568 0.539539 0.472257
O O11 0.025549 0.145906 0.385446
O O12 0.000000 0.056061 0.250000
O O13 0.280780 0.150464 0.042741
#
# Coordination Sequence:
#
# PCOD9262949 Si02
#       6
#     8   8   8   8   8   8
#     4  10  20  38  60  81 110 157 203 243 288 343
#     4  10  19  34  58  86 109 154 192 228 289 363
#     4  10  19  33  58  84 116 146 185 240 286 358
#     4  10  20  35  54  84 112 148 188 235 297 343
#     4   9  19  35  55  83 120 147 182 235 304 344
#     4   9  20  39  55  79 119 150 189 254 292 330
#
# _framework density 23.926729999999999
#
# number of rings (size 3 to 8) (size 9 to 14) (size 15 to 20)
#    0.000    2.333    0.000    2.500    0.000    3.333 
#   12.000    0.833    7.333    0.000    0.000    0.000 
#    0.000    0.000    0.000    0.000    0.000    0.000 
#
# Total GULP energy -133677.552132 kJ/mol
# GULP energy per Si atom -5569.898006 kJ/mol
# Density = 2.387227 g / cm^3
# Si number density = 23.926730 Si / 1000 Ang^3
#
#
#
# Elastic Constant Matrix: (Units=GPa)
#
#
# Indices 1 2 3 4 5 6 
#
# 1 46.1720 14.7474 13.3721 0.0000 7.7482 0.0000
# 2 14.7474 97.3975 24.0515 0.0000 4.1364 0.0000
# 3 13.3721 24.0515 48.3586 0.0000 13.5191 0.0000
# 4 0.0000 0.0000 0.0000 40.6451 0.0000 -3.4421
# 5 7.7482 4.1364 13.5191 0.0000 32.9395 0.0000
# 6 0.0000 0.0000 0.0000 -3.4421 0.0000 23.0525
#
#
#
# Elastic Compliance Matrix: (Units=1/GPa)
#
#
# Indices 1 2 3 4 5 6 
#
# 1 0.024340 -0.002415 -0.004534 0.000000 -0.003561 0.000000
# 2 -0.002415 0.011976 -0.005679 0.000000 0.001395 0.000000
# 3 -0.004534 -0.005679 0.027404 0.000000 -0.009467 0.000000
# 4 0.000000 0.000000 0.000000 0.024918 0.000000 0.003721
# 5 -0.003561 0.001395 -0.009467 0.000000 0.034907 0.000000
# 6 0.000000 0.000000 0.000000 0.003721 0.000000 0.043935
#
#
# Mechanical properties :
#
#
# Convention : Reuss Voigt Hill
#
# Bulk Modulus (GPa) = 25.99741 32.91893 29.45817
# Shear Modulus (GPa) = 24.32432 28.64454 26.48443
#
# Velocity S-wave (km/s) = 3.19190 3.46378 3.33062
# Velocity P-wave (km/s) = 4.94705 5.45757 5.20857
#
# Compressibility (1/GPa) = 0.03846537
#
# Stress axis : x y z
#
# Youngs Moduli (GPa) = 41.08445 83.50148 36.49162
#
# Poissons Ratio (x) = 0.20162 0.16545
# Poissons Ratio (y) = 0.09920 0.20722
# Poissons Ratio (z) = 0.18628 0.47416
#
# Static dielectric constant tensor:
#      x y z
#    x 2.037140 0.000000 -0.050130 
#    y 0.000000 1.987270 0.000000 
#    z -0.050130 0.000000 1.986500 
# 
# From -- ./inp_files/79286.got.cif
#   From: 2010.05.17/outbox.cif.g08.bks.cpg/sg15_40_cif.got.tgz:79286.got - 2010.06.03 18:47:42.
