data_PCOD9262112
_publ_section_title
;
Structure prediction by ZEFSAII (Michael W. Deem and Ramdas Pophale) SiO2 
 PCOD9262112
Probable space group: C 2/C
;
_chemical_formula_sum "Si O2"
_cell_formula_units_Z 56
_cell_length_a 7.107766
_cell_length_b 13.529403
_cell_length_c 29.839905
_cell_angle_alpha 90.000000
_cell_angle_beta 117.335849
_cell_angle_gamma 90.000000
_cell_volume 2549.080577
_symmetry_space_group_name_H-M "C 2/C"
_symmetry_group_IT_number 15
_symmetry_cell_setting 'monoclinic'
loop_
_space_group_symop_operation_xyz
x,y,z
-x,y,1/2-z
-x,-y,-z
x,-y,1/2+z
1/2+x,1/2+y,z
1/2-x,1/2+y,1/2-z
1/2-x,1/2-y,-z
1/2+x,1/2-y,1/2+z
loop_
_atom_site_type_symbol
_atom_site_label
_atom_site_fract_x
_atom_site_fract_y
_atom_site_fract_z
Si Si1 0.309848 0.192468 0.551497
Si Si2 0.947525 0.463608 0.376013
Si Si3 0.614967 0.628107 0.953457
Si Si4 0.383292 0.668211 0.373308
Si Si5 0.153987 0.959059 0.147802
Si Si6 0.350550 0.858481 0.564739
Si Si7 0.564352 0.661614 0.807817
O O1 0.250000 0.250000 0.500000
O O2 0.492451 0.109394 0.575629
O O3 0.099162 0.134842 0.541048
O O4 0.397404 0.272340 0.597324
O O5 0.133656 0.448281 0.358917
O O6 0.962525 0.575499 0.394757
O O7 0.731604 0.428271 0.330686
O O8 0.553131 0.558732 0.906118
O O9 0.634491 0.740728 0.938305
O O10 0.795353 0.604353 0.008825
O O11 0.365985 0.573018 0.339946
O O12 0.333404 0.628722 0.418246
O O13 0.195066 0.744218 0.340445
O O14 0.131092 0.875601 0.183109
O O15 0.500000 0.678542 0.750000
#
# Coordination Sequence:
#
# PCOD9262112 Si02
#       7
#     8   8   8   8   8   8   8
#     4  10  19  32  53  86 124 162 204 244 292 378
#     4   9  23  38  60  92 122 160 215 254 308 383
#     4  10  20  33  57  89 130 173 193 246 308 366
#     4  10  21  39  61  89 120 161 207 252 311 371
#     4  10  22  41  65  91 126 163 205 254 316 377
#     4  10  19  35  56  91 127 162 204 241 303 376
#     4  11  24  47  65  88 121 158 210 279 322 368
#
# _framework density 21.968706000000001
#
# number of rings (size 3 to 8) (size 9 to 14) (size 15 to 20)
#    0.000    2.000    2.857    0.000    4.000    2.286 
#    5.143    1.429    0.000    0.000    0.000    0.000 
#    0.000    0.000    0.000    0.000    0.000    0.000 
#
# Total GULP energy -156142.379110 kJ/mol
# GULP energy per Si atom -5576.513540 kJ/mol
# Density = 2.191870 g / cm^3
# Si number density = 21.968706 Si / 1000 Ang^3
#
#
#
# Elastic Constant Matrix: (Units=GPa)
#
#
# Indices 1 2 3 4 5 6 
#
# 1 38.6960 8.1305 17.5937 0.0000 1.1459 0.0000
# 2 8.1305 79.2299 16.1581 0.0000 -9.6997 0.0000
# 3 17.5937 16.1581 87.4243 0.0000 -18.5498 0.0000
# 4 0.0000 0.0000 0.0000 11.5395 0.0000 0.9019
# 5 1.1459 -9.6997 -18.5498 0.0000 17.1285 0.0000
# 6 0.0000 0.0000 0.0000 0.9019 0.0000 28.2978
#
#
#
# Elastic Compliance Matrix: (Units=1/GPa)
#
#
# Indices 1 2 3 4 5 6 
#
# 1 0.030634 -0.003010 -0.008316 0.000000 -0.012760 0.000000
# 2 -0.003010 0.013945 -0.000329 0.000000 0.007742 0.000000
# 3 -0.008316 -0.000329 0.017205 0.000000 0.019003 0.000000
# 4 0.000000 0.000000 0.000000 0.086875 0.000000 -0.002769
# 5 -0.012760 0.007742 0.019003 0.000000 0.084200 0.000000
# 6 0.000000 0.000000 0.000000 -0.002769 0.000000 0.035427
#
#
# Mechanical properties :
#
#
# Convention : Reuss Voigt Hill
#
# Bulk Modulus (GPa) = 25.99140 32.12386 29.05763
# Shear Modulus (GPa) = 16.42471 22.29103 19.35787
#
# Velocity S-wave (km/s) = 2.73727 3.18885 2.97165
# Velocity P-wave (km/s) = 4.67408 5.31156 5.00298
#
# Compressibility (1/GPa) = 0.03847426
#
# Stress axis : x y z
#
# Youngs Moduli (GPa) = 32.64381 71.70881 58.12332
#
# Poissons Ratio (x) = 0.21583 0.48335
# Poissons Ratio (y) = 0.09825 0.01912
# Poissons Ratio (z) = 0.27147 0.02359
#
# Static dielectric constant tensor:
#      x y z
#    x 1.917700 0.000000 -0.022090 
#    y 0.000000 1.870240 0.000000 
#    z -0.022090 0.000000 1.791490 
# 
# From -- ./inp_files/288666.got.cif
#   From: 2010.05.17/outbox.cif.g08.bks.cpg/sg15_145_cif.got.tgz:288666.got - 2010.06.03 18:47:42.
