data_PCOD9262189
_publ_section_title
;
Structure prediction by ZEFSAII (Michael W. Deem and Ramdas Pophale) SiO2 
 PCOD9262189
Probable space group: C 2/C
;
_chemical_formula_sum "Si O2"
_cell_formula_units_Z 64
_cell_length_a 14.236061
_cell_length_b 10.893345
_cell_length_c 29.720090
_cell_angle_alpha 90.000000
_cell_angle_beta 135.935461
_cell_angle_gamma 90.000000
_cell_volume 3205.372450
_symmetry_space_group_name_H-M "C 2/C"
_symmetry_group_IT_number 15
_symmetry_cell_setting 'monoclinic'
loop_
_space_group_symop_operation_xyz
x,y,z
-x,y,1/2-z
-x,-y,-z
x,-y,1/2+z
1/2+x,1/2+y,z
1/2-x,1/2+y,1/2-z
1/2-x,1/2-y,-z
1/2+x,1/2-y,1/2+z
loop_
_atom_site_type_symbol
_atom_site_label
_atom_site_fract_x
_atom_site_fract_y
_atom_site_fract_z
Si Si1 0.373211 0.154598 0.040737
Si Si2 0.885601 0.336152 0.241119
Si Si3 0.210137 0.294890 0.799041
Si Si4 0.831785 0.663256 0.377077
Si Si5 0.050460 0.893342 0.677196
Si Si6 0.415225 0.218203 0.153075
Si Si7 0.284309 0.512623 0.583751
Si Si8 0.263852 0.958111 0.286637
O O1 0.512241 0.203332 0.066166
O O2 0.399804 0.138317 0.102858
O O3 0.250000 0.250000 0.000000
O O4 0.322714 0.043890 0.992017
O O5 0.767912 0.274971 0.170181
O O6 0.956594 0.222831 0.292143
O O7 0.826048 0.418604 0.260396
O O8 0.000000 0.397081 0.250000
O O9 0.329000 0.369049 0.816141
O O10 0.167120 0.336298 0.833315
O O11 0.271011 0.157940 0.821400
O O12 0.072780 0.281745 0.722296
O O13 0.779091 0.574448 0.399043
O O14 0.827904 0.574702 0.332189
O O15 0.107980 0.004559 0.726822
O O16 0.910039 0.933611 0.608545
O O17 0.349881 0.355203 0.121892
#
# Coordination Sequence:
#
# PCOD9262189 Si02
#       8
#     8   8   8   8   8   8   8   8
#     4  10  23  38  58  84 113 154 203 246 276 335
#     4  10  20  34  55  86 120 144 181 242 298 344
#     4  10  19  33  59  83 120 142 185 238 301 351
#     4  11  21  37  58  87 113 151 198 237 288 351
#     4  10  20  33  53  86 109 151 184 234 287 349
#     4  10  19  36  56  84 112 153 188 240 295 347
#     4  11  20  35  61  79 113 151 200 237 286 336
#     4  10  19  32  55  83 120 144 178 239 291 345
#
# _framework density 19.966479
#
# number of rings (size 3 to 8) (size 9 to 14) (size 15 to 20)
#    0.000    1.750    3.750    2.625    1.750    0.000 
#    4.500    0.625    0.000    6.000    0.000    0.000 
#    0.000    0.000    0.000    0.000    0.000    0.000 
#
# Total GULP energy -178343.371544 kJ/mol
# GULP energy per Si atom -5573.230361 kJ/mol
# Density = 1.992103 g / cm^3
# Si number density = 19.966479 Si / 1000 Ang^3
#
#
#
# Elastic Constant Matrix: (Units=GPa)
#
#
# Indices 1 2 3 4 5 6 
#
# 1 115.6476 14.9949 36.2293 0.0000 3.0420 0.0000
# 2 14.9949 34.6945 -0.1972 0.0000 1.8532 0.0000
# 3 36.2293 -0.1972 65.1804 0.0000 6.6077 0.0000
# 4 0.0000 0.0000 0.0000 10.9007 0.0000 1.2598
# 5 3.0420 1.8532 6.6077 0.0000 35.6122 0.0000
# 6 0.0000 0.0000 0.0000 1.2598 0.0000 20.0252
#
#
#
# Elastic Compliance Matrix: (Units=1/GPa)
#
#
# Indices 1 2 3 4 5 6 
#
# 1 0.011252 -0.004924 -0.006316 0.000000 0.000467 0.000000
# 2 -0.004924 0.031062 0.003009 0.000000 -0.001754 0.000000
# 3 -0.006316 0.003009 0.019184 0.000000 -0.003177 0.000000
# 4 0.000000 0.000000 0.000000 0.092409 0.000000 -0.005813
# 5 0.000467 -0.001754 -0.003177 0.000000 0.028721 0.000000
# 6 0.000000 0.000000 0.000000 -0.005813 0.000000 0.050303
#
#
# Mechanical properties :
#
#
# Convention : Reuss Voigt Hill
#
# Bulk Modulus (GPa) = 22.20518 35.28626 28.74572
# Shear Modulus (GPa) = 18.91038 24.27401 21.59219
#
# Velocity S-wave (km/s) = 3.08085 3.49053 3.29207
# Velocity P-wave (km/s) = 4.87861 5.82719 5.37387
#
# Compressibility (1/GPa) = 0.04503454
#
# Stress axis : x y z
#
# Youngs Moduli (GPa) = 88.87424 32.19378 52.12681
#
# Poissons Ratio (x) = 0.15852 0.32925
# Poissons Ratio (y) = 0.43761 -0.15683
# Poissons Ratio (z) = 0.56136 -0.09686
#
# Static dielectric constant tensor:
#      x y z
#    x 1.723730 0.000000 0.000770 
#    y 0.000000 1.741330 0.000000 
#    z 0.000770 0.000000 1.761200 
# 
# From -- ./inp_files/313600.got.cif
#   From: 2010.05.17/outbox.cif.g08.bks.cpg/sg15_157_cif.got.tgz:313600.got - 2010.06.03 18:47:42.
