data_PCOD9262098
_publ_section_title
;
Structure prediction by ZEFSAII (Michael W. Deem and Ramdas Pophale) SiO2 
 PCOD9262098
Probable space group: C 2/C
;
_chemical_formula_sum "Si O2"
_cell_formula_units_Z 56
_cell_length_a 24.093965
_cell_length_b 14.863354
_cell_length_c 8.725842
_cell_angle_alpha 90.000000
_cell_angle_beta 111.232846
_cell_angle_gamma 90.000000
_cell_volume 2912.745650
_symmetry_space_group_name_H-M "C 2/C"
_symmetry_group_IT_number 15
_symmetry_cell_setting 'monoclinic'
loop_
_space_group_symop_operation_xyz
x,y,z
-x,y,1/2-z
-x,-y,-z
x,-y,1/2+z
1/2+x,1/2+y,z
1/2-x,1/2+y,1/2-z
1/2-x,1/2-y,-z
1/2+x,1/2-y,1/2+z
loop_
_atom_site_type_symbol
_atom_site_label
_atom_site_fract_x
_atom_site_fract_y
_atom_site_fract_z
Si Si1 0.888163 0.777585 0.453709
Si Si2 0.000000 0.099973 0.065451
Si Si3 0.611837 0.722415 0.177383
Si Si4 0.220943 0.904298 0.786820
Si Si5 0.646727 0.095576 0.214474
Si Si6 0.779057 0.095702 0.844934
Si Si7 0.853273 0.404424 0.421019
O O1 0.941692 0.843494 0.461719
O O2 0.889866 0.766222 0.639866
O O3 0.890899 0.680697 0.378594
O O4 0.825988 0.826855 0.352880
O O5 0.000000 0.093662 0.250000
O O6 0.058308 0.156506 0.078335
O O7 0.000000 0.000000 0.000000
O O8 0.674012 0.673145 0.200903
O O9 0.609101 0.819303 0.096795
O O10 0.286266 0.889508 0.782961
O O11 0.199248 1.000000 0.699248
O O12 0.225732 0.909686 0.975732
O O13 0.648850 0.090010 0.398850
O O14 0.626174 0.000000 0.126174
O O15 0.713734 0.110492 0.710429
#
# Coordination Sequence:
#
# PCOD9262098 Si02
#       7
#     8   8   8   8   8   8   8
#     4  10  21  37  56  80 111 147 184 224 271 319
#     4  10  22  40  61  84 113 146 181 224 268 316
#     4  10  21  37  56  80 111 147 184 224 271 319
#     4  10  19  32  53  81 114 147 180 222 271 324
#     4  11  22  36  56  81 110 143 181 226 274 327
#     4  10  19  32  53  81 114 147 180 222 271 324
#     4  11  22  36  56  81 110 143 181 226 274 327
#
# _framework density 19.225847000000002
#
# number of rings (size 3 to 8) (size 9 to 14) (size 15 to 20)
#    0.000    1.714    0.000    6.857    0.000    6.857 
#    0.000    0.714    0.000    0.000    0.000    0.000 
#    0.000    0.000    0.000    0.000    0.000    0.000 
#
# Total GULP energy -156499.971773 kJ/mol
# GULP energy per Si atom -5589.284706 kJ/mol
# Density = 1.918209 g / cm^3
# Si number density = 19.225847 Si / 1000 Ang^3
#
#
#
# Elastic Constant Matrix: (Units=GPa)
#
#
# Indices 1 2 3 4 5 6 
#
# 1 46.5554 63.5192 25.3889 0.0000 -4.2679 0.0000
# 2 63.5192 197.1803 61.9659 0.0000 0.6989 0.0000
# 3 25.3889 61.9659 66.3131 0.0000 -4.6221 0.0000
# 4 0.0000 0.0000 0.0000 37.3301 0.0000 -2.4520
# 5 -4.2679 0.6989 -4.6221 0.0000 15.4852 0.0000
# 6 0.0000 0.0000 0.0000 -2.4520 0.0000 31.8806
#
#
#
# Elastic Compliance Matrix: (Units=1/GPa)
#
#
# Indices 1 2 3 4 5 6 
#
# 1 0.040929 -0.012081 -0.003632 0.000000 0.010741 0.000000
# 2 -0.012081 0.010833 -0.005886 0.000000 -0.005575 0.000000
# 3 -0.003632 -0.005886 0.022385 0.000000 0.005946 0.000000
# 4 0.000000 0.000000 0.000000 0.026924 0.000000 0.002071
# 5 0.010741 -0.005575 0.005946 0.000000 0.069565 0.000000
# 6 0.000000 0.000000 0.000000 0.002071 0.000000 0.031526
#
#
# Mechanical properties :
#
#
# Convention : Reuss Voigt Hill
#
# Bulk Modulus (GPa) = 32.31220 67.97742 50.14481
# Shear Modulus (GPa) = 19.55602 27.55083 23.55342
#
# Velocity S-wave (km/s) = 3.19278 3.78962 3.50393
# Velocity P-wave (km/s) = 5.51678 7.38799 6.51986
#
# Compressibility (1/GPa) = 0.03094806
#
# Stress axis : x y z
#
# Youngs Moduli (GPa) = 24.43267 92.31262 44.67297
#
# Poissons Ratio (x) = 1.11526 0.16226
# Poissons Ratio (y) = 0.29518 0.26293
# Poissons Ratio (z) = 0.08874 0.54332
#
# Static dielectric constant tensor:
#      x y z
#    x 1.661380 0.000000 0.005900 
#    y 0.000000 1.673990 0.000000 
#    z 0.005900 0.000000 1.648280 
# 
# From -- ./inp_files/61621.got.cif
#   From: 2010.05.17/outbox.cif.g08.bks.cpg/sg15_31_cif.got.tgz:61621.got - 2010.06.03 18:47:42.
