data_PCOD9262028
_publ_section_title
;
Structure prediction by ZEFSAII (Michael W. Deem and Ramdas Pophale) SiO2 
 PCOD9262028
Probable space group: C 2/C
;
_chemical_formula_sum "Si O2"
_cell_formula_units_Z 48
_cell_length_a 9.354917
_cell_length_b 19.372258
_cell_length_c 20.127844
_cell_angle_alpha 90.000000
_cell_angle_beta 138.761449
_cell_angle_gamma 90.000000
_cell_volume 2404.538411
_symmetry_space_group_name_H-M "C 2/C"
_symmetry_group_IT_number 15
_symmetry_cell_setting 'monoclinic'
loop_
_space_group_symop_operation_xyz
x,y,z
-x,y,1/2-z
-x,-y,-z
x,-y,1/2+z
1/2+x,1/2+y,z
1/2-x,1/2+y,1/2-z
1/2-x,1/2-y,-z
1/2+x,1/2-y,1/2+z
loop_
_atom_site_type_symbol
_atom_site_label
_atom_site_fract_x
_atom_site_fract_y
_atom_site_fract_z
Si Si1 0.678805 0.774413 0.254326
Si Si2 0.406150 0.413024 0.529970
Si Si3 0.484517 0.835823 0.821865
Si Si4 0.671914 0.018956 0.353925
Si Si5 0.587134 0.189850 0.965400
Si Si6 0.555736 0.292646 0.479783
O O1 0.500000 0.775859 0.250000
O O2 0.587134 0.810750 0.155932
O O3 0.900020 0.805098 0.362484
O O4 0.756130 0.695753 0.265207
O O5 0.275464 0.471178 0.444875
O O6 0.636280 0.449100 0.625048
O O7 0.238692 0.377662 0.522258
O O8 0.477402 0.352256 0.504257
O O9 0.500000 0.813030 0.750000
O O10 0.539512 0.916865 0.839150
O O11 0.686609 0.803433 0.932747
O O12 0.500000 0.977738 0.250000
O O13 0.750000 0.250000 0.000000
O O14 0.492081 0.219796 0.000139
#
# Coordination Sequence:
#
# PCOD9262028 Si02
#       6
#     8   8   8   8   8   8
#     4  12  21  31  56  84 103 145 176 217 271 317
#     4   9  18  32  49  80 107 132 183 220 266 310
#     4  10  20  36  52  76 115 140 175 216 273 318
#     4   9  19  30  51  73 106 146 173 223 264 309
#     4  10  19  32  52  78 112 133 169 226 266 313
#     4  10  20  34  53  81 109 138 173 223 272 319
#
# _framework density 19.962251999999999
#
# number of rings (size 3 to 8) (size 9 to 14) (size 15 to 20)
#    0.000    2.000    5.000    0.500    4.667    0.000 
#    0.000    0.000    0.000    1.000    4.333    0.000 
#    0.000    0.000    0.000    0.000    0.000    0.000 
#
# Total GULP energy -133637.828820 kJ/mol
# GULP energy per Si atom -5568.242867 kJ/mol
# Density = 1.991682 g / cm^3
# Si number density = 19.962252 Si / 1000 Ang^3
#
#
#
# Elastic Constant Matrix: (Units=GPa)
#
#
# Indices 1 2 3 4 5 6 
#
# 1 51.2894 19.0469 14.6781 -0.0002 1.0981 -0.0001
# 2 19.0469 37.3423 13.2480 -0.0002 13.6421 0.0000
# 3 14.6781 13.2480 132.5882 -0.0007 6.7616 -0.0002
# 4 -0.0002 -0.0002 -0.0007 27.6522 -0.0002 10.1100
# 5 1.0981 13.6421 6.7616 -0.0002 25.4752 -0.0001
# 6 -0.0001 0.0000 -0.0002 10.1100 -0.0001 12.6951
#
#
#
# Elastic Compliance Matrix: (Units=1/GPa)
#
#
# Indices 1 2 3 4 5 6 
#
# 1 0.025422 -0.015082 -0.001686 0.000000 0.007428 0.000000
# 2 -0.015082 0.043045 -0.001509 0.000000 -0.022000 0.000000
# 3 -0.001686 -0.001509 0.007942 0.000000 -0.001227 0.000000
# 4 0.000000 0.000000 0.000000 0.051018 0.000000 -0.040629
# 5 0.007428 -0.022000 -0.001227 0.000000 0.051041 0.000000
# 6 0.000000 0.000000 0.000000 -0.040629 0.000000 0.111127
#
#
# Mechanical properties :
#
#
# Convention : Reuss Voigt Hill
#
# Bulk Modulus (GPa) = 25.09206 35.01843 30.05525
# Shear Modulus (GPa) = 14.73042 24.78095 19.75568
#
# Velocity S-wave (km/s) = 2.71940 3.52716 3.14929
# Velocity P-wave (km/s) = 4.73891 5.84536 5.32097
#
# Compressibility (1/GPa) = 0.03985324
#
# Stress axis : x y z
#
# Youngs Moduli (GPa) = 39.33659 23.23162 125.90965
#
# Poissons Ratio (x) = 0.35038 0.21230
# Poissons Ratio (y) = 0.59328 0.19005
# Poissons Ratio (z) = 0.06633 0.03507
#
# Static dielectric constant tensor:
#      x y z
#    x 1.800750 0.000000 -0.011120 
#    y 0.000000 1.740270 0.000000 
#    z -0.011120 0.000000 1.781770 
# 
# From -- ./inp_files/233980.got.cif
#   From: 2010.05.17/outbox.cif.g08.bks.cpg/sg15_117_cif.got.tgz:233980.got - 2010.06.03 18:47:42.
