data_PCOD9262576
_publ_section_title
;
Structure prediction by ZEFSAII (Michael W. Deem and Ramdas Pophale) SiO2 
 PCOD9262576
Probable space group: C 2/C
;
_chemical_formula_sum "Si O2"
_cell_formula_units_Z 56
_cell_length_a 27.614615
_cell_length_b 5.277525
_cell_length_c 27.852441
_cell_angle_alpha 90.000000
_cell_angle_beta 129.527881
_cell_angle_gamma 90.000000
_cell_volume 3130.864797
_symmetry_space_group_name_H-M "C 2/C"
_symmetry_group_IT_number 15
_symmetry_cell_setting 'monoclinic'
loop_
_space_group_symop_operation_xyz
x,y,z
-x,y,1/2-z
-x,-y,-z
x,-y,1/2+z
1/2+x,1/2+y,z
1/2-x,1/2+y,1/2-z
1/2-x,1/2-y,-z
1/2+x,1/2-y,1/2+z
loop_
_atom_site_type_symbol
_atom_site_label
_atom_site_fract_x
_atom_site_fract_y
_atom_site_fract_z
Si Si1 0.950846 0.292399 0.791291
Si Si2 0.477168 0.709844 0.180733
Si Si3 0.321542 0.801309 0.762076
Si Si4 0.752441 0.834226 0.421268
Si Si5 0.752801 0.697051 0.315111
Si Si6 0.192449 0.057310 0.957613
Si Si7 0.876475 0.419038 0.647263
O O1 0.892734 0.267443 0.790574
O O2 0.919904 0.315378 0.717855
O O3 0.985564 0.558837 0.820489
O O4 0.998420 0.056282 0.824545
O O5 0.500000 0.696540 0.250000
O O6 0.407506 0.829333 0.143461
O O7 0.281884 0.571253 0.713697
O O8 0.307756 0.787722 0.810281
O O9 0.294750 0.072758 0.727837
O O10 0.772574 0.733946 0.382496
O O11 0.718484 0.628177 0.433283
O O12 0.808992 0.932285 0.490655
O O13 0.693563 0.027383 0.376738
O O14 0.133968 0.212472 0.900709
O O15 0.250000 0.250000 0.000000
#
# Coordination Sequence:
#
# PCOD9262576 Si02
#       7
#     8   8   8   8   8   8   8
#     4  11  20  33  49  73 107 140 172 211 255 311
#     4  10  22  31  47  75 101 139 179 202 257 318
#     4  10  20  33  51  76 104 140 177 210 262 320
#     4  10  19  33  54  76 107 141 173 220 269 318
#     4  10  20  33  52  77 103 139 175 212 267 317
#     4   9  20  33  50  78 104 137 183 210 271 322
#     4  10  20  32  52  70 109 141 171 222 262 310
#
# _framework density 17.886431999999999
#
# number of rings (size 3 to 8) (size 9 to 14) (size 15 to 20)
#    0.000    2.000    1.429    3.000   10.000    0.000 
#    0.000    0.000    0.000    0.000    0.000    2.000 
#    0.000    0.000    0.000    0.000    0.000    0.000 
#
# Total GULP energy -156036.172738 kJ/mol
# GULP energy per Si atom -5572.720455 kJ/mol
# Density = 1.784572 g / cm^3
# Si number density = 17.886432 Si / 1000 Ang^3
#
#
#
# Elastic Constant Matrix: (Units=GPa)
#
#
# Indices 1 2 3 4 5 6 
#
# 1 99.6124 13.8271 17.5411 0.0050 -7.2005 -0.0008
# 2 13.8271 87.1428 6.7558 0.0023 6.5298 0.0185
# 3 17.5411 6.7558 62.8636 0.0061 -14.8041 0.0003
# 4 0.0050 0.0023 0.0061 20.2227 0.0016 0.8155
# 5 -7.2005 6.5298 -14.8041 0.0016 26.2208 0.0016
# 6 -0.0008 0.0185 0.0003 0.8155 0.0016 13.7452
#
#
#
# Elastic Compliance Matrix: (Units=1/GPa)
#
#
# Indices 1 2 3 4 5 6 
#
# 1 0.010838 -0.001692 -0.002355 -0.000002 0.002068 0.000003
# 2 -0.001692 0.012238 -0.001926 0.000001 -0.004600 -0.000016
# 3 -0.002355 -0.001926 0.019298 -0.000006 0.010729 0.000001
# 4 -0.000002 0.000001 -0.000006 0.049568 -0.000007 -0.002941
# 5 0.002068 -0.004600 0.010729 -0.000007 0.045908 0.000001
# 6 0.000003 -0.000016 0.000001 -0.002941 0.000001 0.072927
#
#
# Mechanical properties :
#
#
# Convention : Reuss Voigt Hill
#
# Bulk Modulus (GPa) = 32.86583 36.20741 34.53662
# Shear Modulus (GPa) = 21.47149 26.13741 23.80445
#
# Velocity S-wave (km/s) = 3.46849 3.82684 3.65206
# Velocity P-wave (km/s) = 5.86985 6.30977 6.09378
#
# Compressibility (1/GPa) = 0.03042674
#
# Stress axis : x y z
#
# Youngs Moduli (GPa) = 92.26777 81.71324 51.81825
#
# Poissons Ratio (x) = 0.13826 0.12205
# Poissons Ratio (y) = 0.15612 0.09982
# Poissons Ratio (z) = 0.21733 0.15740
#
# Static dielectric constant tensor:
#      x y z
#    x 1.638010 -0.000010 0.036000 
#    y -0.000010 1.700330 0.000000 
#    z 0.036000 0.000000 1.650220 
# 
# From -- ./inp_files/282908.got.cif
#   From: 2010.05.17/outbox.cif.g08.bks.cpg/sg15_142_cif.got.tgz:282908.got - 2010.06.03 18:47:42.
