data_PCOD9262166
_publ_section_title
;
Structure prediction by ZEFSAII (Michael W. Deem and Ramdas Pophale) SiO2 
 PCOD9262166
Probable space group: C 2/C
;
_chemical_formula_sum "Si O2"
_cell_formula_units_Z 56
_cell_length_a 14.429220
_cell_length_b 17.563643
_cell_length_c 9.390705
_cell_angle_alpha 90.000000
_cell_angle_beta 84.540233
_cell_angle_gamma 90.000000
_cell_volume 2369.086337
_symmetry_space_group_name_H-M "C 2/C"
_symmetry_group_IT_number 15
_symmetry_cell_setting 'monoclinic'
loop_
_space_group_symop_operation_xyz
x,y,z
-x,y,1/2-z
-x,-y,-z
x,-y,1/2+z
1/2+x,1/2+y,z
1/2-x,1/2+y,1/2-z
1/2-x,1/2-y,-z
1/2+x,1/2-y,1/2+z
loop_
_atom_site_type_symbol
_atom_site_label
_atom_site_fract_x
_atom_site_fract_y
_atom_site_fract_z
Si Si1 0.397185 0.036681 0.151186
Si Si2 0.957926 0.623617 0.530757
Si Si3 0.091607 0.179320 0.808172
Si Si4 0.725048 0.980255 0.104667
Si Si5 0.432667 0.497640 0.142749
Si Si6 0.788251 0.323533 0.207040
Si Si7 0.427835 0.734877 0.369002
O O1 0.448042 0.955946 0.117238
O O2 0.350090 0.035806 0.311475
O O3 0.472691 0.100603 0.106613
O O4 0.312065 0.037348 0.048187
O O5 0.852924 0.657228 0.561746
O O6 0.019097 0.687185 0.599599
O O7 0.084146 0.088229 0.800884
O O8 0.182254 0.201249 0.705510
O O9 0.000000 0.213644 0.750000
O O10 0.095783 0.196986 0.976314
O O11 0.827258 0.017684 0.108317
O O12 0.717695 0.901219 0.195739
O O13 0.500000 0.535432 0.250000
O O14 0.500000 0.500000 0.000000
O O15 0.837827 0.258864 0.293500
O O16 0.500000 0.695031 0.250000
#
# Coordination Sequence:
#
# PCOD9262166 Si02
#       7
#     8   8   8   8   8   8   8
#     4  10  19  32  54  85 120 148 184 236 292 355
#     4   9  19  32  56  83 116 148 184 232 290 342
#     4  10  22  39  59  84 114 152 194 243 289 333
#     4  10  19  33  55  86 114 151 190 232 291 346
#     4  10  21  38  60  82 115 153 193 241 287 336
#     4   9  18  35  61  80 109 155 196 223 285 354
#     4  10  19  37  60  84 113 155 198 234 282 350
#
# _framework density 23.637803999999999
#
# number of rings (size 3 to 8) (size 9 to 14) (size 15 to 20)
#    0.000    2.286    1.429    1.286    2.000    3.429 
#    2.571    2.857    3.143    0.000    0.000    0.000 
#    0.000    0.000    0.000    0.000    0.000    0.000 
#
# Total GULP energy -156127.590918 kJ/mol
# GULP energy per Si atom -5575.985390 kJ/mol
# Density = 2.358400 g / cm^3
# Si number density = 23.637804 Si / 1000 Ang^3
#
#
#
# Elastic Constant Matrix: (Units=GPa)
#
#
# Indices 1 2 3 4 5 6 
#
# 1 205.4124 17.6812 52.9453 0.0000 -24.8510 0.0000
# 2 17.6812 53.4421 -6.5510 0.0000 3.2782 0.0000
# 3 52.9453 -6.5510 87.9508 0.0000 -5.4351 0.0000
# 4 0.0000 0.0000 0.0000 -22.9600 0.0000 10.4041
# 5 -24.8510 3.2782 -5.4351 0.0000 35.2474 0.0000
# 6 0.0000 0.0000 0.0000 10.4041 0.0000 -11.9672
#
#
#
# Elastic Compliance Matrix: (Units=1/GPa)
#
#
# Indices 1 2 3 4 5 6 
#
# 1 0.006675 -0.002963 -0.003969 0.000000 0.004370 0.000000
# 2 -0.002963 0.020284 0.003078 0.000000 -0.003501 0.000000
# 3 -0.003969 0.003078 0.013931 0.000000 -0.000936 0.000000
# 4 0.000000 0.000000 0.000000 -0.071866 0.000000 -0.062479
# 5 0.004370 -0.003501 -0.000936 0.000000 0.031633 0.000000
# 6 0.000000 0.000000 0.000000 -0.062479 0.000000 -0.137880
#
#
# Mechanical properties :
#
#
# Convention : Reuss Voigt Hill
#
# Bulk Modulus (GPa) = 30.13641 52.77291 41.45466
# Shear Modulus (GPa) = -42.21029 18.91269 -11.64880
#
# Velocity S-wave (km/s) = -4.23035 2.83168 -2.22233
# Velocity P-wave (km/s) = 3.32930 5.75024 3.31520
#
# Compressibility (1/GPa) = 0.03318246
#
# Stress axis : x y z
#
# Youngs Moduli (GPa) = 149.81423 49.29947 71.78427
#
# Poissons Ratio (x) = 0.14607 0.28490
# Poissons Ratio (y) = 0.44389 -0.22097
# Poissons Ratio (z) = 0.59460 -0.15175
#
# Static dielectric constant tensor:
#      x y z
#    x 2.014440 0.000000 0.089820 
#    y 0.000000 1.973660 0.000000 
#    z 0.089820 0.000000 2.062710 
# 
# From -- ./inp_files/42119.got.cif
#   From: 2010.05.17/outbox.cif.g08.bks.cpg/sg15_22_cif.got.tgz:42119.got - 2010.06.03 18:47:42.
