data_PCOD9262346
_publ_section_title
;
Structure prediction by ZEFSAII (Michael W. Deem and Ramdas Pophale) SiO2 
 PCOD9262346
Probable space group: C 2/C
;
_chemical_formula_sum "Si O2"
_cell_formula_units_Z 60
_cell_length_a 24.735966
_cell_length_b 9.741862
_cell_length_c 18.093785
_cell_angle_alpha 90.000000
_cell_angle_beta 146.460738
_cell_angle_gamma 90.000000
_cell_volume 2409.012549
_symmetry_space_group_name_H-M "C 2/C"
_symmetry_group_IT_number 15
_symmetry_cell_setting 'monoclinic'
loop_
_space_group_symop_operation_xyz
x,y,z
-x,y,1/2-z
-x,-y,-z
x,-y,1/2+z
1/2+x,1/2+y,z
1/2-x,1/2+y,1/2-z
1/2-x,1/2-y,-z
1/2+x,1/2-y,1/2+z
loop_
_atom_site_type_symbol
_atom_site_label
_atom_site_fract_x
_atom_site_fract_y
_atom_site_fract_z
Si Si1 0.108441 0.661289 0.480108
Si Si2 0.568180 0.395104 0.632910
Si Si3 0.274640 0.072066 0.301727
Si Si4 0.953593 0.055626 0.614760
Si Si5 0.046851 0.354726 0.578786
Si Si6 0.129038 0.321038 0.315946
Si Si7 0.683455 0.697493 0.531583
Si Si8 0.000000 0.499718 0.750000
O O1 0.180176 0.570262 0.612831
O O2 0.091085 0.588710 0.381907
O O3 0.123693 0.822031 0.486231
O O4 0.999806 0.664257 0.393758
O O5 0.656940 0.433621 0.677954
O O6 0.521595 0.528998 0.619166
O O7 0.498914 0.273503 0.520650
O O8 0.613970 0.320175 0.756392
O O9 0.338220 0.117779 0.302978
O O10 0.303537 0.199230 0.387277
O O11 0.000000 0.078602 0.750000
O O12 0.901953 0.909082 0.558893
O O13 0.000000 0.500000 0.500000
O O14 0.216822 0.386077 0.370117
O O15 0.163565 0.289764 0.437570
O O16 0.031659 0.406001 0.217222
#
# Coordination Sequence:
#
# PCOD9262346 Si02
#       8
#     8   8   8   8   8   8   8   4
#     4  11  25  42  63  95 138 178 218 278 344 392
#     4  11  22  40  71 100 129 183 227 274 338 409
#     4  10  21  44  70  96 130 177 232 278 332 405
#     4  12  23  40  60  98 137 176 220 274 337 398
#     4  10  22  45  68  96 133 172 226 288 334 403
#     4  10  19  32  64  96 118 167 229 268 329 395
#     4  10  19  35  61  92 127 165 219 276 324 394
#     4  12  20  38  64  94 134 176 214 280 350 392
#
# _framework density 24.906471
#
# number of rings (size 3 to 8) (size 9 to 14) (size 15 to 20)
#    0.000    1.333    4.667    2.400    0.000    0.533 
#    7.200    4.000    0.000    0.000    0.000    0.000 
#    0.000    0.000    0.000    0.000    0.000    0.000 
#
# Total GULP energy -167449.383019 kJ/mol
# GULP energy per Si atom -5581.646101 kJ/mol
# Density = 2.484978 g / cm^3
# Si number density = 24.906471 Si / 1000 Ang^3
#
#
#
# Elastic Constant Matrix: (Units=GPa)
#
#
# Indices 1 2 3 4 5 6 
#
# 1 91.9522 37.2257 35.5344 0.0000 21.1866 0.0000
# 2 37.2257 104.3347 37.0377 0.0000 3.0183 0.0000
# 3 35.5344 37.0377 80.2607 0.0000 13.9610 0.0000
# 4 0.0000 0.0000 0.0000 31.6785 0.0000 -12.8833
# 5 21.1866 3.0183 13.9610 0.0000 37.8658 0.0000
# 6 0.0000 0.0000 0.0000 -12.8833 0.0000 9.0916
#
#
#
# Elastic Compliance Matrix: (Units=1/GPa)
#
#
# Indices 1 2 3 4 5 6 
#
# 1 0.015587 -0.003995 -0.003842 0.000000 -0.006986 0.000000
# 2 -0.003995 0.012530 -0.004518 0.000000 0.002903 0.000000
# 3 -0.003842 -0.004518 0.016892 0.000000 -0.003718 0.000000
# 4 0.000000 0.000000 0.000000 0.074504 0.000000 0.105576
# 5 -0.006986 0.002903 -0.003718 0.000000 0.031458 0.000000
# 6 0.000000 0.000000 0.000000 0.105576 0.000000 0.259599
#
#
# Mechanical properties :
#
#
# Convention : Reuss Voigt Hill
#
# Bulk Modulus (GPa) = 49.26560 55.12702 52.19631
# Shear Modulus (GPa) = 11.31103 26.84384 19.07743
#
# Velocity S-wave (km/s) = 2.13337 3.28653 2.77061
# Velocity P-wave (km/s) = 5.08837 6.04842 5.58905
#
# Compressibility (1/GPa) = 0.02029814
#
# Stress axis : x y z
#
# Youngs Moduli (GPa) = 64.15555 79.80857 59.19901
#
# Poissons Ratio (x) = 0.31886 0.22744
# Poissons Ratio (y) = 0.25632 0.26747
# Poissons Ratio (z) = 0.24649 0.36059
#
# Static dielectric constant tensor:
#      x y z
#    x 2.048750 0.000000 0.075880 
#    y 0.000000 1.990000 0.000000 
#    z 0.075880 0.000000 2.041170 
# 
# From -- ./inp_files/255194.got.cif
#   From: 2010.05.17/outbox.cif.g08.bks.cpg/sg15_128_cif.got.tgz:255194.got - 2010.06.03 18:47:42.
