data_PCOD9262040
_publ_section_title
;
Structure prediction by ZEFSAII (Michael W. Deem and Ramdas Pophale) SiO2 
 PCOD9262040
Probable space group: C 2/C
;
_chemical_formula_sum "Si O2"
_cell_formula_units_Z 40
_cell_length_a 13.622412
_cell_length_b 8.941689
_cell_length_c 15.031060
_cell_angle_alpha 90.000000
_cell_angle_beta 55.517741
_cell_angle_gamma 90.000000
_cell_volume 1509.208652
_symmetry_space_group_name_H-M "C 2/C"
_symmetry_group_IT_number 15
_symmetry_cell_setting 'monoclinic'
loop_
_space_group_symop_operation_xyz
x,y,z
-x,y,1/2-z
-x,-y,-z
x,-y,1/2+z
1/2+x,1/2+y,z
1/2-x,1/2+y,1/2-z
1/2-x,1/2-y,-z
1/2+x,1/2-y,1/2+z
loop_
_atom_site_type_symbol
_atom_site_label
_atom_site_fract_x
_atom_site_fract_y
_atom_site_fract_z
Si Si1 0.601238 0.837352 0.250377
Si Si2 0.195680 0.002995 0.938396
Si Si3 0.972483 0.914251 0.139364
Si Si4 0.952285 0.426525 0.935425
Si Si5 0.245644 0.178300 0.644818
O O1 0.500000 0.741206 0.250000
O O2 0.703610 0.872729 0.125673
O O3 0.519254 0.976218 0.327193
O O4 0.675822 0.802437 0.303482
O O5 0.262930 0.844799 0.889529
O O6 0.117980 0.109061 0.732862
O O7 0.094906 0.004754 0.065297
O O8 0.009265 0.744881 0.094384
O O9 0.885507 0.979464 0.108522
O O10 0.000000 0.500000 0.000000
O O11 0.813806 0.419310 0.035496
#
# Coordination Sequence:
#
# PCOD9262040 Si02
#       5
#     8   8   8   8   8
#     4  10  19  32  52  80 107 133 168 221 267 299
#     4   9  17  30  52  76 100 137 177 213 251 309
#     4   9  16  29  51  76  96 129 186 212 241 297
#     4   9  17  30  51  76 101 134 175 206 246 313
#     4   9  17  31  53  76  98 139 179 211 245 315
#
# _framework density 26.503957
#
# number of rings (size 3 to 8) (size 9 to 14) (size 15 to 20)
#    0.000    2.800    2.000    0.000    0.000    0.000 
#    0.000    4.000    0.000   60.000    0.000    0.000 
#    0.000    0.000    0.000    0.000    0.000    0.000 
#
# Total GULP energy -111586.801024 kJ/mol
# GULP energy per Si atom -5579.340051 kJ/mol
# Density = 2.644363 g / cm^3
# Si number density = 26.503957 Si / 1000 Ang^3
#
#
#
# Elastic Constant Matrix: (Units=GPa)
#
#
# Indices 1 2 3 4 5 6 
#
# 1 145.2821 2.4753 64.4060 0.0000 -11.1611 0.0000
# 2 2.4753 37.5749 46.5189 0.0000 0.1854 0.0000
# 3 64.4060 46.5189 265.5042 0.0000 -14.9536 0.0000
# 4 0.0000 0.0000 0.0000 32.0393 0.0000 0.1680
# 5 -11.1611 0.1854 -14.9536 0.0000 56.0824 0.0000
# 6 0.0000 0.0000 0.0000 0.1680 0.0000 7.5481
#
#
#
# Elastic Compliance Matrix: (Units=1/GPa)
#
#
# Indices 1 2 3 4 5 6 
#
# 1 0.007924 0.002280 -0.002267 0.000000 0.000965 0.000000
# 2 0.002280 0.034807 -0.006734 0.000000 -0.001457 0.000000
# 3 -0.002267 -0.006734 0.005555 0.000000 0.001052 0.000000
# 4 0.000000 0.000000 0.000000 0.031215 0.000000 -0.000695
# 5 0.000965 -0.001457 0.001052 0.000000 0.018308 0.000000
# 6 0.000000 0.000000 0.000000 -0.000695 0.000000 0.132500
#
#
# Mechanical properties :
#
#
# Convention : Reuss Voigt Hill
#
# Bulk Modulus (GPa) = 28.69890 75.01796 51.85843
# Shear Modulus (GPa) = 19.57976 41.46469 30.52222
#
# Velocity S-wave (km/s) = 2.72094 3.95963 3.39722
# Velocity P-wave (km/s) = 4.55226 7.01932 5.91582
#
# Compressibility (1/GPa) = 0.03484454
#
# Stress axis : x y z
#
# Youngs Moduli (GPa) = 126.20601 28.72983 180.00199
#
# Poissons Ratio (x) = -0.06551 0.40811
# Poissons Ratio (y) = -0.28778 1.21208
# Poissons Ratio (z) = 0.28614 0.19346
#
# Static dielectric constant tensor:
#      x y z
#    x 2.217190 0.000000 -0.003890 
#    y 0.000000 2.003610 0.000000 
#    z -0.003890 0.000000 2.022740 
# 
# From -- ./inp_files/243227.got.cif
#   From: 2010.05.17/outbox.cif.g08.bks.cpg/sg15_122_cif.got.tgz:243227.got - 2010.06.03 18:47:42.
