data_PCOD9262952
_publ_section_title
;
Structure prediction by ZEFSAII (Michael W. Deem and Ramdas Pophale) SiO2 
 PCOD9262952
Probable space group: C 2/C
;
_chemical_formula_sum "Si O2"
_cell_formula_units_Z 64
_cell_length_a 27.170078
_cell_length_b 18.207900
_cell_length_c 17.910854
_cell_angle_alpha 90.000000
_cell_angle_beta 159.673187
_cell_angle_gamma 90.000000
_cell_volume 3077.974383
_symmetry_space_group_name_H-M "C 2/C"
_symmetry_group_IT_number 15
_symmetry_cell_setting 'monoclinic'
loop_
_space_group_symop_operation_xyz
x,y,z
-x,y,1/2-z
-x,-y,-z
x,-y,1/2+z
1/2+x,1/2+y,z
1/2-x,1/2+y,1/2-z
1/2-x,1/2-y,-z
1/2+x,1/2-y,1/2+z
loop_
_atom_site_type_symbol
_atom_site_label
_atom_site_fract_x
_atom_site_fract_y
_atom_site_fract_z
Si Si1 0.962798 0.884764 0.810258
Si Si2 0.570333 0.536628 0.672499
Si Si3 0.153460 0.521464 0.186402
Si Si4 0.879461 0.682345 0.521432
Si Si5 0.544194 0.173473 0.039447
Si Si6 0.447821 0.316982 0.952813
Si Si7 0.645816 0.991501 0.496214
Si Si8 0.228690 0.116923 0.591833
O O1 0.958760 0.851874 0.886070
O O2 0.827447 0.861499 0.569190
O O3 0.956920 0.973727 0.805427
O O4 0.106836 0.859528 0.975549
O O5 0.500000 0.500000 0.500000
O O6 0.498809 0.616602 0.579244
O O7 0.733516 0.533698 0.878483
O O8 0.261515 0.471002 0.384374
O O9 0.158942 0.501264 0.105406
O O10 0.000000 0.500000 0.000000
O O11 0.158844 0.608326 0.209968
O O12 0.716814 0.708336 0.277387
O O13 0.849999 0.597415 0.505365
O O14 0.000000 0.711051 0.750000
O O15 0.950716 0.687813 0.541821
O O16 0.551995 0.246982 0.099140
O O17 0.386135 0.143852 0.830660
O O18 0.500000 0.014655 0.250000
#
# Coordination Sequence:
#
# PCOD9262952 Si02
#       8
#     8   8   8   8   8   8   8   8
#     4  10  21  34  57  84 111 149 184 235 276 342
#     4  10  19  35  57  80 112 148 193 232 278 328
#     4   9  19  35  56  78 110 144 185 232 280 330
#     4  10  20  33  53  79 111 149 188 226 276 337
#     4  10  23  35  53  80 113 153 181 227 282 344
#     4  11  22  37  54  81 117 153 186 225 282 344
#     4  10  19  33  58  85 109 143 194 243 277 323
#     4  10  21  37  55  84 116 143 188 229 290 330
#
# _framework density 20.792895000000001
#
# number of rings (size 3 to 8) (size 9 to 14) (size 15 to 20)
#    0.000    2.000    2.500    2.250    8.750    2.000 
#    0.000    0.000    0.000    0.750    3.250    0.000 
#    0.000    0.000    0.000    0.000    0.000    0.000 
#
# Total GULP energy -178243.505971 kJ/mol
# GULP energy per Si atom -5570.109562 kJ/mol
# Density = 2.074557 g / cm^3
# Si number density = 20.792895 Si / 1000 Ang^3
#
#
#
# Elastic Constant Matrix: (Units=GPa)
#
#
# Indices 1 2 3 4 5 6 
#
# 1 41.0864 5.5950 3.0510 0.0000 18.1081 0.0000
# 2 5.5950 90.1917 12.5665 0.0000 6.5098 0.0000
# 3 3.0510 12.5665 70.8726 0.0000 18.4885 0.0000
# 4 0.0000 0.0000 0.0000 17.1856 0.0000 7.4385
# 5 18.1081 6.5098 18.4885 0.0000 24.9080 0.0000
# 6 0.0000 0.0000 0.0000 7.4385 0.0000 21.1042
#
#
#
# Elastic Compliance Matrix: (Units=1/GPa)
#
#
# Indices 1 2 3 4 5 6 
#
# 1 0.038500 -0.000999 0.007135 0.000000 -0.033024 0.000000
# 2 -0.000999 0.011462 -0.001733 0.000000 -0.000983 0.000000
# 3 0.007135 -0.001733 0.019030 0.000000 -0.018859 0.000000
# 4 0.000000 0.000000 0.000000 0.068663 0.000000 -0.024201
# 5 -0.033024 -0.000983 -0.018859 0.000000 0.078412 0.000000
# 6 0.000000 0.000000 0.000000 -0.024201 0.000000 0.055914
#
#
# Mechanical properties :
#
#
# Convention : Reuss Voigt Hill
#
# Bulk Modulus (GPa) = 12.85385 27.17509 20.01447
# Shear Modulus (GPa) = 17.29460 24.70210 20.99835
#
# Velocity S-wave (km/s) = 2.88715 3.45049 3.18131
# Velocity P-wave (km/s) = 4.16046 5.38259 4.81049
#
# Compressibility (1/GPa) = 0.07779773
#
# Stress axis : x y z
#
# Youngs Moduli (GPa) = 25.97400 87.24592 52.54936
#
# Poissons Ratio (x) = 0.08714 -0.37493
# Poissons Ratio (y) = 0.02594 0.09106
# Poissons Ratio (z) = -0.18532 0.15118
#
# Static dielectric constant tensor:
#      x y z
#    x 1.731220 0.000000 0.008330 
#    y 0.000000 1.883490 0.000000 
#    z 0.008330 0.000000 1.671170 
# 
# From -- ./inp_files/259525.got.cif
#   From: 2010.05.17/outbox.cif.g08.bks.cpg/sg15_130_cif.got.tgz:259525.got - 2010.06.03 18:47:42.
