data_PCOD9262470
_publ_section_title
;
Structure prediction by ZEFSAII (Michael W. Deem and Ramdas Pophale) SiO2 
 PCOD9262470
Probable space group: C 2/C
;
_chemical_formula_sum "Si O2"
_cell_formula_units_Z 52
_cell_length_a 18.119924
_cell_length_b 8.572117
_cell_length_c 18.331575
_cell_angle_alpha 90.000000
_cell_angle_beta 132.878200
_cell_angle_gamma 90.000000
_cell_volume 2086.559615
_symmetry_space_group_name_H-M "C 2/C"
_symmetry_group_IT_number 15
_symmetry_cell_setting 'monoclinic'
loop_
_space_group_symop_operation_xyz
x,y,z
-x,y,1/2-z
-x,-y,-z
x,-y,1/2+z
1/2+x,1/2+y,z
1/2-x,1/2+y,1/2-z
1/2-x,1/2-y,-z
1/2+x,1/2-y,1/2+z
loop_
_atom_site_type_symbol
_atom_site_label
_atom_site_fract_x
_atom_site_fract_y
_atom_site_fract_z
Si Si1 0.643125 0.800775 0.594218
Si Si2 0.726271 0.924749 0.514606
Si Si3 0.940894 0.493100 0.341249
Si Si4 0.500000 0.849628 0.750000
Si Si5 0.728466 0.478890 0.610276
Si Si6 0.641134 0.673455 0.175802
Si Si7 0.408179 0.539997 0.734056
O O1 0.640693 0.902964 0.518551
O O2 0.567136 0.877786 0.600674
O O3 0.650671 0.622876 0.571589
O O4 0.751648 0.810214 0.709883
O O5 0.750000 0.750000 0.500000
O O6 0.738522 0.030082 0.451008
O O7 0.813144 0.984388 0.626158
O O8 0.832224 0.495003 0.224311
O O9 0.934147 0.316074 0.364127
O O10 0.020192 0.539383 0.331942
O O11 0.421798 0.724482 0.731624
O O12 0.670924 0.339401 0.611421
O O13 0.595618 0.520960 0.185962
O O14 0.500000 0.466414 0.750000
#
# Coordination Sequence:
#
# PCOD9262470 Si02
#       7
#     8   8   8   4   8   8   8
#     4   8  16  31  53  77 110 137 179 225 278 327
#     4   9  17  34  59  87 111 138 183 239 280 317
#     4  10  19  33  52  81 108 147 184 230 270 328
#     4  10  22  34  54  74 114 150 188 216 274 336
#     4   9  17  31  57  82 104 136 188 232 277 314
#     4   9  17  31  53  81 104 138 189 233 265 325
#     4   9  20  36  56  80 109 148 185 216 277 345
#
# _framework density 24.921406999999999
#
# number of rings (size 3 to 8) (size 9 to 14) (size 15 to 20)
#    0.462    2.462    0.000    1.846    1.077    3.692 
#    0.000    3.846    0.000    1.846    0.000    0.000 
#    0.000    0.000    0.000    0.000    0.000    0.000 
#
# Total GULP energy -144923.424569 kJ/mol
# GULP energy per Si atom -5573.977868 kJ/mol
# Density = 2.486469 g / cm^3
# Si number density = 24.921407 Si / 1000 Ang^3
#
#
#
# Elastic Constant Matrix: (Units=GPa)
#
#
# Indices 1 2 3 4 5 6 
#
# 1 116.9770 37.2260 44.0522 0.0000 -54.0688 0.0000
# 2 37.2260 80.8916 23.1284 0.0000 -12.8673 0.0000
# 3 44.0522 23.1284 94.8316 0.0000 -36.2940 0.0000
# 4 0.0000 0.0000 0.0000-1096.6258 0.0000 1252.4645
# 5 -54.0688 -12.8673 -36.2940 0.0000 51.0830 0.0000
# 6 0.0000 0.0000 0.0000 1252.4645 0.0000-1388.3231
#
#
#
# Elastic Compliance Matrix: (Units=1/GPa)
#
#
# Indices 1 2 3 4 5 6 
#
# 1 0.019032 -0.005715 -0.000396 0.000000 0.018424 0.000000
# 2 -0.005715 0.015082 -0.002589 0.000000 -0.004089 0.000000
# 3 -0.000396 -0.002589 0.015040 0.000000 0.009614 0.000000
# 4 0.000000 0.000000 0.000000 0.030053 0.000000 0.027112
# 5 0.018424 -0.004089 0.009614 0.000000 0.044878 0.000000
# 6 0.000000 0.000000 0.000000 0.027112 0.000000 0.023738
#
#
# Mechanical properties :
#
#
# Convention : Reuss Voigt Hill
#
# Bulk Modulus (GPa) = 31.49085 55.72371 43.60728
# Shear Modulus (GPa) = 28.44035 -474.22028 -222.88996
#
# Velocity S-wave (km/s) = 3.38183 -13.80940 -9.46738
# Velocity P-wave (km/s) = 5.28323 15.22687 10.09814
#
# Compressibility (1/GPa) = 0.03175525
#
# Stress axis : x y z
#
# Youngs Moduli (GPa) = 52.54241 66.30518 66.48945
#
# Poissons Ratio (x) = 0.37891 0.02634
# Poissons Ratio (y) = 0.30026 0.17211
# Poissons Ratio (z) = 0.02082 0.17163
#
# Static dielectric constant tensor:
#      x y z
#    x 2.038380 0.000000 0.060630 
#    y 0.000000 1.467900 0.000000 
#    z 0.060630 0.000000 1.985030 
# 
# From -- ./inp_files/213515.got.cif
#   From: 2010.05.17/outbox.cif.g08.bks.cpg/sg15_107_cif.got.tgz:213515.got - 2010.06.03 18:47:42.
