data_PCOD9262251
_publ_section_title
;
Structure prediction by ZEFSAII (Michael W. Deem and Ramdas Pophale) SiO2 
 PCOD9262251
Probable space group: C 2/C
;
_chemical_formula_sum "Si O2"
_cell_formula_units_Z 44
_cell_length_a 16.492318
_cell_length_b 16.868143
_cell_length_c 13.369582
_cell_angle_alpha 90.000000
_cell_angle_beta 36.989446
_cell_angle_gamma 90.000000
_cell_volume 2237.812251
_symmetry_space_group_name_H-M "C 2/C"
_symmetry_group_IT_number 15
_symmetry_cell_setting 'monoclinic'
loop_
_space_group_symop_operation_xyz
x,y,z
-x,y,1/2-z
-x,-y,-z
x,-y,1/2+z
1/2+x,1/2+y,z
1/2-x,1/2+y,1/2-z
1/2-x,1/2-y,-z
1/2+x,1/2-y,1/2+z
loop_
_atom_site_type_symbol
_atom_site_label
_atom_site_fract_x
_atom_site_fract_y
_atom_site_fract_z
Si Si1 0.063777 0.753669 0.432619
Si Si2 0.566182 0.946472 0.288981
Si Si3 0.530575 0.588020 0.435536
Si Si4 0.816922 0.277292 0.318449
Si Si5 0.842598 0.406161 0.677892
Si Si6 0.000000 0.157406 0.250000
O O1 0.174563 0.755665 0.411570
O O2 0.110853 0.678659 0.321585
O O3 0.045664 0.845581 0.421187
O O4 0.920820 0.733886 0.622939
O O5 0.500000 0.969959 0.250000
O O6 0.658312 0.869021 0.178697
O O7 0.446899 0.923003 0.484206
O O8 0.644527 0.019826 0.260400
O O9 0.500000 0.500000 0.500000
O O10 0.690941 0.599337 0.287739
O O11 0.487159 0.605476 0.363289
O O12 0.876014 0.216222 0.342216
#
# Coordination Sequence:
#
# PCOD9262251 Si02
#       6
#     8   8   8   8   8   4
#     4  10  19  36  56  81 122 154 189 240 291 352
#     4  10  21  36  62  86 118 152 194 245 305 349
#     4  11  23  37  58  89 122 159 197 244 299 350
#     4  10  19  32  56  88 114 148 187 241 301 344
#     4  10  21  38  55  89 119 153 200 241 290 366
#     4  10  20  36  58  88 124 148 192 248 290 360
#
# _framework density 19.66206
#
# number of rings (size 3 to 8) (size 9 to 14) (size 15 to 20)
#    0.000    1.818    4.545    1.091    0.000    7.273 
#    0.000    0.000    2.000    1.091    0.000    0.000 
#    0.000    0.000    0.000    0.000    0.000    0.000 
#
# Total GULP energy -122645.886439 kJ/mol
# GULP energy per Si atom -5574.813020 kJ/mol
# Density = 1.961731 g / cm^3
# Si number density = 19.662060 Si / 1000 Ang^3
#
#
#
# Elastic Constant Matrix: (Units=GPa)
#
#
# Indices 1 2 3 4 5 6 
#
# 1 57.7369 48.5296 0.3667 0.0000 0.5364 0.0000
# 2 48.5296 193.2166 27.8490 0.0000 4.0558 0.0000
# 3 0.3667 27.8490 24.4520 -0.0001 -8.2006 0.0000
# 4 0.0000 0.0000 -0.0001 36.0050 0.0000 -0.9460
# 5 0.5364 4.0558 -8.2006 0.0000 22.0371 0.0000
# 6 0.0000 0.0000 0.0000 -0.9460 0.0000 40.7102
#
#
#
# Elastic Compliance Matrix: (Units=1/GPa)
#
#
# Indices 1 2 3 4 5 6 
#
# 1 0.023371 -0.007318 0.009420 0.000000 0.004284 0.000000
# 2 -0.007318 0.008862 -0.011963 0.000000 -0.005905 0.000000
# 3 0.009420 -0.011963 0.062891 0.000000 0.025376 0.000000
# 4 0.000000 0.000000 0.000000 0.027791 0.000000 0.000646
# 5 0.004284 -0.005905 0.025376 0.000000 0.055803 0.000000
# 6 0.000000 0.000000 0.000000 0.000646 0.000000 0.024579
#
#
# Mechanical properties :
#
#
# Convention : Reuss Voigt Hill
#
# Bulk Modulus (GPa) = 13.26220 47.65512 30.45866
# Shear Modulus (GPa) = 20.14888 32.99446 26.57167
#
# Velocity S-wave (km/s) = 3.20466 4.10088 3.68015
# Velocity P-wave (km/s) = 4.52248 6.83467 5.79506
#
# Compressibility (1/GPa) = 0.07540226
#
# Stress axis : x y z
#
# Youngs Moduli (GPa) = 42.78784 112.84395 15.90055
#
# Poissons Ratio (x) = 0.82577 -0.14979
# Poissons Ratio (y) = 0.31311 0.19023
# Poissons Ratio (z) = -0.40308 1.35000
#
# Static dielectric constant tensor:
#      x y z
#    x 1.648600 0.000000 0.011730 
#    y 0.000000 1.786090 0.000000 
#    z 0.011730 0.000000 1.804300 
# 
# From -- ./inp_files/154713.got.cif
#   From: 2010.05.17/outbox.cif.g08.bks.cpg/sg15_78_cif.got.tgz:154713.got - 2010.06.03 18:47:42.
