data_PCOD9262519
_publ_section_title
;
Structure prediction by ZEFSAII (Michael W. Deem and Ramdas Pophale) SiO2 
 PCOD9262519
Probable space group: C 2/C
;
_chemical_formula_sum "Si O2"
_cell_formula_units_Z 56
_cell_length_a 20.507036
_cell_length_b 15.224520
_cell_length_c 8.632904
_cell_angle_alpha 90.000000
_cell_angle_beta 96.676534
_cell_angle_gamma 90.000000
_cell_volume 2676.998630
_symmetry_space_group_name_H-M "C 2/C"
_symmetry_group_IT_number 15
_symmetry_cell_setting 'monoclinic'
loop_
_space_group_symop_operation_xyz
x,y,z
-x,y,1/2-z
-x,-y,-z
x,-y,1/2+z
1/2+x,1/2+y,z
1/2-x,1/2+y,1/2-z
1/2-x,1/2-y,-z
1/2+x,1/2-y,1/2+z
loop_
_atom_site_type_symbol
_atom_site_label
_atom_site_fract_x
_atom_site_fract_y
_atom_site_fract_z
Si Si1 0.812867 0.455689 0.571257
Si Si2 0.387965 0.381802 0.824317
Si Si3 0.209540 0.621734 0.775407
Si Si4 0.066389 0.308868 0.187990
Si Si5 0.457894 0.066867 0.090005
Si Si6 0.748001 0.792741 0.825677
Si Si7 0.050776 0.031604 0.881195
O O1 0.773430 0.542903 0.605533
O O2 0.793949 0.423983 0.394916
O O3 0.889110 0.479180 0.608371
O O4 0.803594 0.371333 0.680052
O O5 0.432364 0.295885 0.813475
O O6 0.314346 0.344361 0.797351
O O7 0.411829 0.455860 0.708015
O O8 0.397660 0.414606 0.003606
O O9 0.135544 0.659256 0.778619
O O10 0.256659 0.706568 0.783036
O O11 0.000000 0.341194 0.250000
O O12 0.062742 0.348644 0.015326
O O13 0.500000 0.090501 0.250000
O O14 0.500000 0.000000 0.000000
O O15 0.750000 0.750000 0.000000
O O16 0.000000 0.079133 0.750000
O O17 0.000000 0.000000 0.000000
#
# Coordination Sequence:
#
# PCOD9262519 Si02
#       7
#     8   8   8   8   8   8   8
#     4  10  19  35  56  77 106 143 174 221 275 316
#     4  10  20  35  57  83 110 149 190 232 282 335
#     4   9  19  34  55  77 102 139 180 219 267 325
#     4  10  19  33  53  78 110 143 176 221 276 331
#     4  11  21  34  54  82 109 138 180 224 273 337
#     4   9  20  37  55  78 110 146 189 226 270 334
#     4   9  18  34  56  83 112 142 183 231 281 338
#
# _framework density 20.918949000000001
#
# number of rings (size 3 to 8) (size 9 to 14) (size 15 to 20)
#    0.000    2.286    0.000    5.143    0.000    2.857 
#    0.000    0.714    0.000   17.143    0.000    0.000 
#    0.000    0.000    0.000    0.000    0.000    0.000 
#
# Total GULP energy -156023.721176 kJ/mol
# GULP energy per Si atom -5572.275756 kJ/mol
# Density = 2.087134 g / cm^3
# Si number density = 20.918949 Si / 1000 Ang^3
#
#
#
# Elastic Constant Matrix: (Units=GPa)
#
#
# Indices 1 2 3 4 5 6 
#
# 1 48.1224 23.8151 10.2242 0.0000 -22.9759 0.0000
# 2 23.8151 126.5043 19.3759 0.0000 -15.3433 0.0000
# 3 10.2242 19.3759 39.9379 0.0000 -7.6358 0.0000
# 4 0.0000 0.0000 0.0000 29.5799 0.0000 -13.6325
# 5 -22.9759 -15.3433 -7.6358 0.0000 21.1250 0.0000
# 6 0.0000 0.0000 0.0000 -13.6325 0.0000 27.1682
#
#
#
# Elastic Compliance Matrix: (Units=1/GPa)
#
#
# Indices 1 2 3 4 5 6 
#
# 1 0.044128 -0.002568 -0.001323 0.000000 0.045651 0.000000
# 2 -0.002568 0.009223 -0.003298 0.000000 0.002713 0.000000
# 3 -0.001323 -0.003298 0.028193 0.000000 0.006356 0.000000
# 4 0.000000 0.000000 0.000000 0.043977 0.000000 0.022067
# 5 0.045651 0.002713 0.006356 0.000000 0.101257 0.000000
# 6 0.000000 0.000000 0.000000 0.022067 0.000000 0.047880
#
#
# Mechanical properties :
#
#
# Convention : Reuss Voigt Hill
#
# Bulk Modulus (GPa) = 14.88856 35.71058 25.29957
# Shear Modulus (GPa) = 16.05527 26.31791 21.18659
#
# Velocity S-wave (km/s) = 2.77338 3.55080 3.18590
# Velocity P-wave (km/s) = 4.16992 5.82400 5.06494
#
# Compressibility (1/GPa) = 0.06716566
#
# Stress axis : x y z
#
# Youngs Moduli (GPa) = 22.66116 108.42988 35.46995
#
# Poissons Ratio (x) = 0.27843 0.04693
# Poissons Ratio (y) = 0.05819 0.11699
# Poissons Ratio (z) = 0.02998 0.35762
#
# Static dielectric constant tensor:
#      x y z
#    x 1.818680 0.000000 -0.027920 
#    y 0.000000 1.778090 0.000000 
#    z -0.027920 0.000000 1.780480 
# 
# From -- ./inp_files/55641.got.cif
#   From: 2010.05.17/outbox.cif.g08.bks.cpg/sg15_28_cif.got.tgz:55641.got - 2010.06.03 18:47:42.
