data_PCOD9262056
_publ_section_title
;
Structure prediction by ZEFSAII (Michael W. Deem and Ramdas Pophale) SiO2 
 PCOD9262056
Probable space group: C 2/C
;
_chemical_formula_sum "Si O2"
_cell_formula_units_Z 36
_cell_length_a 14.648156
_cell_length_b 15.864932
_cell_length_c 14.136016
_cell_angle_alpha 90.000000
_cell_angle_beta 29.687742
_cell_angle_gamma 90.000000
_cell_volume 1627.019262
_symmetry_space_group_name_H-M "C 2/C"
_symmetry_group_IT_number 15
_symmetry_cell_setting 'monoclinic'
loop_
_space_group_symop_operation_xyz
x,y,z
-x,y,1/2-z
-x,-y,-z
x,-y,1/2+z
1/2+x,1/2+y,z
1/2-x,1/2+y,1/2-z
1/2-x,1/2-y,-z
1/2+x,1/2-y,1/2+z
loop_
_atom_site_type_symbol
_atom_site_label
_atom_site_fract_x
_atom_site_fract_y
_atom_site_fract_z
Si Si1 0.091270 0.453803 0.272140
Si Si2 0.500000 0.806812 0.750000
Si Si3 0.501296 0.488930 0.861132
Si Si4 0.847058 0.397502 0.642388
Si Si5 0.861967 0.168515 0.012985
O O1 0.065850 0.541815 0.354216
O O2 0.000000 0.455362 0.250000
O O3 0.997014 0.384805 0.425753
O O4 0.311024 0.445896 0.065723
O O5 0.692054 0.852970 0.594073
O O6 0.460761 0.746632 0.875482
O O7 0.500000 0.484494 0.750000
O O8 0.682971 0.448617 0.739752
O O9 0.489101 0.586823 0.901453
O O10 0.739043 0.323841 0.795166
#
# Coordination Sequence:
#
# PCOD9262056 Si02
#       5
#     8   4   8   8   8
#     4  10  19  32  52  83 115 152 184 229 298 348
#     4  10  22  38  56  82 112 164 196 230 292 340
#     4  11  20  35  57  84 123 153 185 240 300 345
#     4  10  22  35  54  87 118 155 191 239 304 345
#     4  10  21  37  54  82 115 153 198 234 283 354
#
# _framework density 22.126351
#
# number of rings (size 3 to 8) (size 9 to 14) (size 15 to 20)
#    0.000    1.778    3.333    2.667    6.222    0.000 
#    8.000    0.000    0.000    0.000    0.000    4.667 
#    0.000    0.000    0.000    0.000    0.000    0.000 
#
# Total GULP energy -100437.788755 kJ/mol
# GULP energy per Si atom -5579.877153 kJ/mol
# Density = 2.207599 g / cm^3
# Si number density = 22.126351 Si / 1000 Ang^3
#
#
#
# Elastic Constant Matrix: (Units=GPa)
#
#
# Indices 1 2 3 4 5 6 
#
# 1 106.7600 3.7847 20.2262 -0.0004 17.3708 -0.0022
# 2 3.7847 16.0966 10.3177 -0.0145 5.6596 0.0055
# 3 20.2262 10.3177 124.5799 -0.0110 32.5283 0.0030
# 4 -0.0004 -0.0145 -0.0110 7.6246 0.0053 -8.7372
# 5 17.3708 5.6596 32.5283 0.0053 56.7376 -0.0001
# 6 -0.0022 0.0055 0.0030 -8.7372 -0.0001 11.0557
#
#
#
# Elastic Compliance Matrix: (Units=1/GPa)
#
#
# Indices 1 2 3 4 5 6 
#
# 1 0.009968 -0.000904 -0.000906 0.000023 -0.002442 0.000021
# 2 -0.000904 0.066485 -0.004351 0.000906 -0.003860 0.000683
# 3 -0.000906 -0.004351 0.009818 0.000090 -0.004918 0.000070
# 4 0.000023 0.000906 0.000090 1.389346 -0.000278 1.097982
# 5 -0.002442 -0.003860 -0.004918 -0.000278 0.021577 -0.000217
# 6 0.000021 0.000683 0.000070 1.097982 -0.000217 0.958173
#
#
# Mechanical properties :
#
#
# Convention : Reuss Voigt Hill
#
# Bulk Modulus (GPa) = 13.52303 35.12152 24.32228
# Shear Modulus (GPa) = 2.00615 29.29078 15.64846
#
# Velocity S-wave (km/s) = 0.95323 3.64235 2.66227
# Velocity P-wave (km/s) = 2.70860 5.79625 4.52400
#
# Compressibility (1/GPa) = 0.07394793
#
# Stress axis : x y z
#
# Youngs Moduli (GPa) = 100.32265 15.04105 101.84919
#
# Poissons Ratio (x) = 0.01360 0.09225
# Poissons Ratio (y) = 0.09073 0.44319
# Poissons Ratio (z) = 0.09087 0.06545
#
# Static dielectric constant tensor:
#      x y z
#    x 1.831720 0.000000 0.040190 
#    y 0.000000 1.834270 0.000010 
#    z 0.040190 0.000010 1.888590 
# 
# From -- ./inp_files/155032.got.cif
#   From: 2010.05.17/outbox.cif.g08.bks.cpg/sg15_78_cif.got.tgz:155032.got - 2010.06.03 18:47:42.
