data_PCOD9262208
_publ_section_title
;
Structure prediction by ZEFSAII (Michael W. Deem and Ramdas Pophale) SiO2 
 PCOD9262208
Probable space group: C 2/C
;
_chemical_formula_sum "Si O2"
_cell_formula_units_Z 60
_cell_length_a 18.565942
_cell_length_b 13.612543
_cell_length_c 22.907025
_cell_angle_alpha 90.000000
_cell_angle_beta 155.018625
_cell_angle_gamma 90.000000
_cell_volume 2444.951924
_symmetry_space_group_name_H-M "C 2/C"
_symmetry_group_IT_number 15
_symmetry_cell_setting 'monoclinic'
loop_
_space_group_symop_operation_xyz
x,y,z
-x,y,1/2-z
-x,-y,-z
x,-y,1/2+z
1/2+x,1/2+y,z
1/2-x,1/2+y,1/2-z
1/2-x,1/2-y,-z
1/2+x,1/2-y,1/2+z
loop_
_atom_site_type_symbol
_atom_site_label
_atom_site_fract_x
_atom_site_fract_y
_atom_site_fract_z
Si Si1 0.635396 0.790986 0.026639
Si Si2 0.500000 0.011242 0.750000
Si Si3 0.637832 0.022246 0.022908
Si Si4 0.931792 0.992485 0.815480
Si Si5 0.482430 0.623984 0.970643
Si Si6 0.499404 0.691878 0.816679
Si Si7 0.714086 0.634660 0.475126
Si Si8 0.697348 0.002195 0.284478
O O1 0.631380 0.904705 0.008127
O O2 0.805727 0.779883 0.189975
O O3 0.491939 0.736631 0.959282
O O4 0.625310 0.736173 0.956845
O O5 0.360371 0.079321 0.618208
O O6 0.404554 0.958688 0.733459
O O7 0.733821 0.029113 0.155464
O O8 0.757696 0.085752 0.068023
O O9 0.441135 0.042817 0.862088
O O10 0.006287 0.073952 0.824637
O O11 0.958686 0.056952 0.894121
O O12 0.040658 0.896474 0.880525
O O13 0.322315 0.589764 0.890703
O O14 0.665095 0.587204 0.130056
O O15 0.500000 0.723382 0.750000
O O16 0.750000 0.750000 0.500000
#
# Coordination Sequence:
#
# PCOD9262208 Si02
#       8
#     8   4   8   8   8   8   8   8
#     4  10  20  36  57  91 128 169 209 256 320 396
#     4  10  22  42  68  94 120 166 226 272 322 392
#     4  10  22  39  63  93 132 166 216 272 327 390
#     4  10  20  38  61  91 129 169 205 272 333 386
#     4  10  21  39  67  92 133 174 216 265 335 396
#     4  10  19  32  55  89 129 166 207 249 320 387
#     4  11  23  39  65  91 129 169 222 275 331 388
#     4  10  21  42  65  94 129 171 220 274 322 395
#
# _framework density 24.540358999999999
#
# number of rings (size 3 to 8) (size 9 to 14) (size 15 to 20)
#    0.000    1.867    1.333    3.200    1.867    1.600 
#    6.000    2.667   17.600    0.000    0.000    0.000 
#    0.000    0.000    0.000    0.000    0.000    0.000 
#
# Total GULP energy -167198.847763 kJ/mol
# GULP energy per Si atom -5573.294925 kJ/mol
# Density = 2.448450 g / cm^3
# Si number density = 24.540359 Si / 1000 Ang^3
#
#
#
# Elastic Constant Matrix: (Units=GPa)
#
#
# Indices 1 2 3 4 5 6 
#
# 1 64.5930 12.2995 1.8295 0.0005 9.9533 0.0003
# 2 12.2995 115.7720 2.2775 -0.0094 10.2583 -0.0002
# 3 1.8295 2.2775 126.7252 -0.0100 -8.2399 0.0002
# 4 0.0005 -0.0094 -0.0100 15.8274 -0.0011 1.9360
# 5 9.9533 10.2583 -8.2399 -0.0011 34.5260 0.0005
# 6 0.0003 -0.0002 0.0002 1.9360 0.0005 32.5495
#
#
#
# Elastic Compliance Matrix: (Units=1/GPa)
#
#
# Indices 1 2 3 4 5 6 
#
# 1 0.016439 -0.001341 -0.000503 -0.000002 -0.004461 0.000000
# 2 -0.001341 0.008995 -0.000296 0.000005 -0.002356 0.000000
# 3 -0.000503 -0.000296 0.008044 0.000005 0.002153 0.000000
# 4 -0.000002 0.000005 0.000005 0.063645 0.000002 -0.003785
# 5 -0.004461 -0.002356 0.002153 0.000002 0.031463 -0.000001
# 6 0.000000 0.000000 0.000000 -0.003785 -0.000001 0.030948
#
#
# Mechanical properties :
#
#
# Convention : Reuss Voigt Hill
#
# Bulk Modulus (GPa) = 34.25021 37.76701 36.00861
# Shear Modulus (GPa) = 28.81096 35.95949 32.38523
#
# Velocity S-wave (km/s) = 3.43012 3.83210 3.63667
# Velocity P-wave (km/s) = 5.44744 5.91635 5.68673
#
# Compressibility (1/GPa) = 0.02919690
#
# Stress axis : x y z
#
# Youngs Moduli (GPa) = 60.83264 111.17575 124.32198
#
# Poissons Ratio (x) = 0.14912 0.06256
# Poissons Ratio (y) = 0.08159 0.03674
# Poissons Ratio (z) = 0.03061 0.03285
#
# Static dielectric constant tensor:
#      x y z
#    x 2.129200 0.000000 0.023690 
#    y 0.000000 1.961040 -0.000050 
#    z 0.023690 -0.000050 2.223330 
# 
# From -- ./inp_files/318894.got.cif
#   From: 2010.05.17/outbox.cif.g08.bks.cpg/sg15_160_cif.got.tgz:318894.got - 2010.06.03 18:47:42.
