data_PCOD9262388
_publ_section_title
;
Structure prediction by ZEFSAII (Michael W. Deem and Ramdas Pophale) SiO2 
 PCOD9262388
Probable space group: C 2/C
;
_chemical_formula_sum "Si O2"
_cell_formula_units_Z 48
_cell_length_a 11.606748
_cell_length_b 20.727267
_cell_length_c 17.594544
_cell_angle_alpha 90.000000
_cell_angle_beta 147.367137
_cell_angle_gamma 90.000000
_cell_volume 2282.568961
_symmetry_space_group_name_H-M "C 2/C"
_symmetry_group_IT_number 15
_symmetry_cell_setting 'monoclinic'
loop_
_space_group_symop_operation_xyz
x,y,z
-x,y,1/2-z
-x,-y,-z
x,-y,1/2+z
1/2+x,1/2+y,z
1/2-x,1/2+y,1/2-z
1/2-x,1/2-y,-z
1/2+x,1/2-y,1/2+z
loop_
_atom_site_type_symbol
_atom_site_label
_atom_site_fract_x
_atom_site_fract_y
_atom_site_fract_z
Si Si1 0.389200 0.933973 0.967354
Si Si2 0.990797 0.269170 0.658628
Si Si3 0.244424 0.887662 0.743638
Si Si4 0.464098 0.570975 0.513443
Si Si5 0.836273 0.127155 0.728781
Si Si6 0.921872 0.492359 0.629070
O O1 0.590181 0.885650 0.073667
O O2 0.330118 0.955598 0.019566
O O3 0.206358 0.907903 0.809775
O O4 0.500000 0.000000 0.000000
O O5 0.750000 0.250000 0.500000
O O6 0.000000 0.294822 0.750000
O O7 0.112104 0.323433 0.678413
O O8 0.116413 0.201898 0.730681
O O9 0.068272 0.884049 0.578625
O O10 0.384701 0.949515 0.794966
O O11 0.500000 0.500000 0.500000
O O12 0.624429 0.591616 0.668758
O O13 0.247504 0.562235 0.441467
O O14 0.000000 0.107185 0.750000
O O15 0.000000 0.525352 0.750000
#
# Coordination Sequence:
#
# PCOD9262388 Si02
#       6
#     8   8   8   8   8   8
#     4  10  19  33  50  72 101 137 171 206 254 308
#     4  11  20  32  50  76 108 143 171 205 259 321
#     4  10  19  33  50  73 106 137 164 203 258 316
#     4  11  21  33  51  76 102 132 172 218 264 309
#     4  11  21  32  50  78 107 134 170 212 256 315
#     4   9  17  31  50  71  99 133 166 208 258 311
#
# _framework density 21.028938
#
# number of rings (size 3 to 8) (size 9 to 14) (size 15 to 20)
#    0.000    1.667    0.000   10.500    0.000    0.000 
#    0.000    0.000    0.000    0.000    0.000   12.833 
#    0.000    0.000    0.000    0.000    0.000    0.000 
#
# Total GULP energy -133764.941185 kJ/mol
# GULP energy per Si atom -5573.539216 kJ/mol
# Density = 2.098107 g / cm^3
# Si number density = 21.028938 Si / 1000 Ang^3
#
#
#
# Elastic Constant Matrix: (Units=GPa)
#
#
# Indices 1 2 3 4 5 6 
#
# 1 38.6936 13.6491 22.1167 -0.0006 -19.6216 0.0001
# 2 13.6491 87.3673 23.2096 -0.0011 -10.9024 -0.0006
# 3 22.1167 23.2096 106.2549 -0.0025 -25.7004 -0.0008
# 4 -0.0006 -0.0011 -0.0025 31.7103 -0.0014 -5.3505
# 5 -19.6216 -10.9024 -25.7004 -0.0014 35.7693 -0.0003
# 6 0.0001 -0.0006 -0.0008 -5.3505 -0.0003 23.0043
#
#
#
# Elastic Compliance Matrix: (Units=1/GPa)
#
#
# Indices 1 2 3 4 5 6 
#
# 1 0.037432 -0.002882 -0.002914 0.000001 0.017561 0.000000
# 2 -0.002882 0.012514 -0.001929 0.000000 0.000848 0.000000
# 3 -0.002914 -0.001929 0.011995 0.000001 0.006432 0.000001
# 4 0.000001 0.000000 0.000001 0.032824 0.000003 0.007634
# 5 0.017561 0.000848 0.006432 0.000003 0.042470 0.000001
# 6 0.000000 0.000000 0.000001 0.007634 0.000001 0.045246
#
#
# Mechanical properties :
#
#
# Convention : Reuss Voigt Hill
#
# Bulk Modulus (GPa) = 21.50950 38.91853 30.21401
# Shear Modulus (GPa) = 23.42714 29.65280 26.53997
#
# Velocity S-wave (km/s) = 3.34135 3.75920 3.55641
# Velocity P-wave (km/s) = 5.01367 6.11469 5.59134
#
# Compressibility (1/GPa) = 0.04649108
#
# Stress axis : x y z
#
# Youngs Moduli (GPa) = 26.71525 79.90848 83.36866
#
# Poissons Ratio (x) = 0.23032 0.24295
# Poissons Ratio (y) = 0.07700 0.16079
# Poissons Ratio (z) = 0.07785 0.15411
#
# Static dielectric constant tensor:
#      x y z
#    x 1.936630 0.000000 -0.029840 
#    y 0.000000 1.716180 0.000000 
#    z -0.029840 0.000000 1.915940 
# 
# From -- ./inp_files/200882.got.cif
#   From: 2010.05.17/outbox.cif.g08.bks.cpg/sg15_101_cif.got.tgz:200882.got - 2010.06.03 18:47:42.
