data_PCOD9262408
_publ_section_title
;
Structure prediction by ZEFSAII (Michael W. Deem and Ramdas Pophale) SiO2 
 PCOD9262408
Probable space group: C 2/C
;
_chemical_formula_sum "Si O2"
_cell_formula_units_Z 48
_cell_length_a 5.651902
_cell_length_b 14.205876
_cell_length_c 26.410738
_cell_angle_alpha 90.000000
_cell_angle_beta 115.340826
_cell_angle_gamma 90.000000
_cell_volume 1916.482474
_symmetry_space_group_name_H-M "C 2/C"
_symmetry_group_IT_number 15
_symmetry_cell_setting 'monoclinic'
loop_
_space_group_symop_operation_xyz
x,y,z
-x,y,1/2-z
-x,-y,-z
x,-y,1/2+z
1/2+x,1/2+y,z
1/2-x,1/2+y,1/2-z
1/2-x,1/2-y,-z
1/2+x,1/2-y,1/2+z
loop_
_atom_site_type_symbol
_atom_site_label
_atom_site_fract_x
_atom_site_fract_y
_atom_site_fract_z
Si Si1 0.868305 0.676886 0.684152
Si Si2 0.813318 0.464934 0.656658
Si Si3 0.055623 0.601530 0.027811
Si Si4 0.718916 0.690499 0.859459
Si Si5 0.093686 0.164162 0.046842
Si Si6 0.810241 0.963862 0.655119
O O1 0.802160 0.577820 0.651079
O O2 0.585306 0.722518 0.668743
O O3 0.000000 0.656073 0.750000
O O4 0.089671 0.722517 0.668743
O O5 0.692073 0.415737 0.596035
O O6 0.616904 0.441997 0.684202
O O7 0.119910 0.441997 0.684202
O O8 0.283330 0.648471 0.014861
O O9 0.190915 0.588732 0.095456
O O10 0.776116 0.648471 0.014861
O O11 0.000000 0.500000 0.000000
O O12 0.839723 0.737932 0.919862
O O13 0.713479 0.576824 0.856741
#
# Coordination Sequence:
#
# PCOD9262408 Si02
#       6
#     8   8   8   8   8   8
#     4  10  19  33  51  72  96 126 160 198 240 287
#     4   8  16  30  49  67  90 125 162 189 226 290
#     4  10  19  33  51  73  99 130 168 210 245 284
#     4  10  19  33  52  73  99 130 162 198 247 303
#     4  10  19  33  52  73  97 130 166 200 245 297
#     4   8  16  30  48  68  94 129 161 189 236 297
#
# _framework density 25.045884000000001
#
# number of rings (size 3 to 8) (size 9 to 14) (size 15 to 20)
#    0.000    2.667    0.000    2.000    0.000    0.000 
#    0.000    3.333    0.000    0.000    0.000    0.000 
#    0.000    0.000    0.000    0.000    0.000    0.000 
#
# Total GULP energy -133938.993631 kJ/mol
# GULP energy per Si atom -5580.791401 kJ/mol
# Density = 2.498888 g / cm^3
# Si number density = 25.045884 Si / 1000 Ang^3
#
#
#
# Elastic Constant Matrix: (Units=GPa)
#
#
# Indices 1 2 3 4 5 6 
#
# 1 359.2033 33.1434 47.3119 0.0000 -20.3530 -0.0001
# 2 33.1434 123.2460 33.4267 0.0000 0.0236 0.0000
# 3 47.3119 33.4267 65.7764 0.0000 -3.0223 0.0000
# 4 0.0000 0.0000 0.0000 -33.0772 0.0000 5.0820
# 5 -20.3530 0.0236 -3.0223 0.0000 29.5826 -0.0001
# 6 -0.0001 0.0000 0.0000 5.0820 -0.0001 -96.8446
#
#
#
# Elastic Compliance Matrix: (Units=1/GPa)
#
#
# Indices 1 2 3 4 5 6 
#
# 1 0.003195 -0.000303 -0.002053 0.000000 0.001989 0.000000
# 2 -0.000303 0.009447 -0.004615 0.000000 -0.000687 0.000000
# 3 -0.002053 -0.004615 0.019049 0.000000 0.000538 0.000000
# 4 0.000000 0.000000 0.000000 -0.030478 0.000000 -0.001599
# 5 0.001989 -0.000687 0.000538 0.000000 0.035227 0.000000
# 6 0.000000 0.000000 0.000000 -0.001599 0.000000 -0.010410
#
#
# Mechanical properties :
#
#
# Convention : Reuss Voigt Hill
#
# Bulk Modulus (GPa) = 56.33540 86.22105 71.27823
# Shear Modulus (GPa) = 108.96057 8.88842 58.92449
#
# Velocity S-wave (km/s) = 6.60294 1.88588 4.85569
# Velocity P-wave (km/s) = 8.98184 6.26435 7.74324
#
# Compressibility (1/GPa) = 0.01775083
#
# Stress axis : x y z
#
# Youngs Moduli (GPa) = 312.99478 105.85391 52.49526
#
# Poissons Ratio (x) = 0.03205 0.10776
# Poissons Ratio (y) = 0.09478 0.24224
# Poissons Ratio (z) = 0.64252 0.48847
#
# Static dielectric constant tensor:
#      x y z
#    x 2.064820 0.000000 -0.015590 
#    y 0.000000 1.966620 0.000000 
#    z -0.015590 0.000000 1.869130 
# 
# From -- ./inp_files/260645.got.cif
#   From: 2010.05.17/outbox.cif.g08.bks.cpg/sg15_131_cif.got.tgz:260645.got - 2010.06.03 18:47:42.
