data_PCOD9262347
_publ_section_title
;
Structure prediction by ZEFSAII (Michael W. Deem and Ramdas Pophale) SiO2 
 PCOD9262347
Probable space group: C 2/C
;
_chemical_formula_sum "Si O2"
_cell_formula_units_Z 56
_cell_length_a 18.137017
_cell_length_b 7.716613
_cell_length_c 14.597798
_cell_angle_alpha 90.000000
_cell_angle_beta 90.075806
_cell_angle_gamma 90.000000
_cell_volume 2043.052609
_symmetry_space_group_name_H-M "C 2/C"
_symmetry_group_IT_number 15
_symmetry_cell_setting 'monoclinic'
loop_
_space_group_symop_operation_xyz
x,y,z
-x,y,1/2-z
-x,-y,-z
x,-y,1/2+z
1/2+x,1/2+y,z
1/2-x,1/2+y,1/2-z
1/2-x,1/2-y,-z
1/2+x,1/2-y,1/2+z
loop_
_atom_site_type_symbol
_atom_site_label
_atom_site_fract_x
_atom_site_fract_y
_atom_site_fract_z
Si Si1 0.624539 0.086068 0.468141
Si Si2 0.643896 0.407829 0.037297
Si Si3 0.992022 0.266352 0.022956
Si Si4 0.730402 0.056447 0.099673
Si Si5 0.179923 0.633808 0.276700
Si Si6 0.088311 0.025854 0.738976
Si Si7 0.928966 0.349497 0.289144
O O1 0.559899 0.226374 0.451777
O O2 0.678783 0.071944 0.381255
O O3 0.568175 0.923565 0.479738
O O4 0.676754 0.094905 0.557361
O O5 0.687461 0.229662 0.064756
O O6 0.622149 0.486092 0.135294
O O7 0.564156 0.385981 0.991583
O O8 0.696565 0.481408 0.958897
O O9 0.038239 0.288687 0.114788
O O10 0.747771 0.111144 0.205985
O O11 0.139951 0.819208 0.276406
O O12 0.131762 0.493543 0.221320
O O13 0.000000 0.072234 0.750000
O O14 0.089133 0.823434 0.768491
O O15 0.000000 0.446597 0.250000
#
# Coordination Sequence:
#
# PCOD9262347 Si02
#       7
#     8   8   8   8   8   8   8
#     4  10  19  32  64  96 120 168 229 270 327 412
#     4   9  19  37  59  84 131 168 205 280 327 399
#     4  10  19  33  60  95 125 167 217 268 348 398
#     4   9  19  37  62  92 121 175 224 255 338 405
#     4  11  20  38  65  88 128 170 214 279 330 391
#     4  10  22  36  59  93 123 164 211 263 337 394
#     4  11  21  36  58  93 130 161 206 281 334 391
#
# _framework density 27.409965
#
# number of rings (size 3 to 8) (size 9 to 14) (size 15 to 20)
#    0.000    2.000    2.857    1.286    2.000    0.571 
#    0.000    3.571    3.143    0.000    0.000    0.000 
#    0.000    0.000    0.000    0.000    0.000    0.000 
#
# Total GULP energy -156028.506657 kJ/mol
# GULP energy per Si atom -5572.446666 kJ/mol
# Density = 2.734758 g / cm^3
# Si number density = 27.409965 Si / 1000 Ang^3
#
#
#
# Elastic Constant Matrix: (Units=GPa)
#
#
# Indices 1 2 3 4 5 6 
#
# 1 128.0697 24.0708 31.3219 0.0000 -26.0045 0.0000
# 2 24.0708 95.2651 -3.5414 0.0000 5.6020 0.0000
# 3 31.3219 -3.5414 114.0098 0.0000 -21.0073 0.0000
# 4 0.0000 0.0000 0.0000 16.1912 0.0000 -5.6719
# 5 -26.0045 5.6020 -21.0073 0.0000 35.3078 0.0000
# 6 0.0000 0.0000 0.0000 -5.6719 0.0000 5.4782
#
#
#
# Elastic Compliance Matrix: (Units=1/GPa)
#
#
# Indices 1 2 3 4 5 6 
#
# 1 0.010204 -0.003052 -0.001600 0.000000 0.007048 0.000000
# 2 -0.003052 0.011509 0.000500 0.000000 -0.003776 0.000000
# 3 -0.001600 0.000500 0.010102 0.000000 0.004753 0.000000
# 4 0.000000 0.000000 0.000000 0.096911 0.000000 0.100338
# 5 0.007048 -0.003776 0.004753 0.000000 0.036940 0.000000
# 6 0.000000 0.000000 0.000000 0.100338 0.000000 0.286427
#
#
# Mechanical properties :
#
#
# Convention : Reuss Voigt Hill
#
# Bulk Modulus (GPa) = 42.53169 49.00527 45.76848
# Shear Modulus (GPa) = 10.67842 30.42833 20.55338
#
# Velocity S-wave (km/s) = 1.97592 3.33546 2.74131
# Velocity P-wave (km/s) = 4.55590 5.72286 5.17240
#
# Compressibility (1/GPa) = 0.02351188
#
# Stress axis : x y z
#
# Youngs Moduli (GPa) = 97.99865 86.88932 98.99097
#
# Poissons Ratio (x) = 0.26521 0.15834
# Poissons Ratio (y) = 0.29912 -0.04952
# Poissons Ratio (z) = 0.15675 -0.04346
#
# Static dielectric constant tensor:
#      x y z
#    x 0.227910 0.000000 0.559680 
#    y 0.000000 2.410950 0.000000 
#    z 0.559680 0.000000 2.147250 
# 
# From -- ./inp_files/166644.got.cif
#   From: 2010.05.17/outbox.cif.g08.bks.cpg/sg15_84_cif.got.tgz:166644.got - 2010.06.03 18:47:42.
