data_PCOD9262999
_publ_section_title
;
Structure prediction by ZEFSAII (Michael W. Deem and Ramdas Pophale) SiO2 
 PCOD9262999
Probable space group: C 2/C
;
_chemical_formula_sum "Si O2"
_cell_formula_units_Z 56
_cell_length_a 16.877412
_cell_length_b 8.513578
_cell_length_c 26.958472
_cell_angle_alpha 90.000000
_cell_angle_beta 47.251494
_cell_angle_gamma 90.000000
_cell_volume 2844.530228
_symmetry_space_group_name_H-M "C 2/C"
_symmetry_group_IT_number 15
_symmetry_cell_setting 'monoclinic'
loop_
_space_group_symop_operation_xyz
x,y,z
-x,y,1/2-z
-x,-y,-z
x,-y,1/2+z
1/2+x,1/2+y,z
1/2-x,1/2+y,1/2-z
1/2-x,1/2-y,-z
1/2+x,1/2-y,1/2+z
loop_
_atom_site_type_symbol
_atom_site_label
_atom_site_fract_x
_atom_site_fract_y
_atom_site_fract_z
Si Si1 0.007193 0.760766 0.008151
Si Si2 0.870689 0.800943 0.718319
Si Si3 0.528482 0.033730 0.555063
Si Si4 0.108547 0.013892 0.385754
Si Si5 0.479655 0.023550 0.827789
Si Si6 0.337169 0.119628 0.302584
Si Si7 0.272161 0.923636 0.179256
O O1 0.937391 0.678520 0.994183
O O2 0.079940 0.878852 0.945773
O O3 0.066934 0.621683 0.011150
O O4 0.942285 0.850036 0.078264
O O5 0.958830 0.690250 0.707631
O O6 0.794596 0.682114 0.719061
O O7 0.927338 0.903872 0.650100
O O8 0.798943 0.922431 0.780155
O O9 0.558613 0.034608 0.599491
O O10 0.395466 0.037485 0.610685
O O11 0.236351 0.014867 0.329699
O O12 0.573793 0.894173 0.778636
O O13 0.389784 0.963811 0.827930
O O14 0.293539 0.297564 0.326398
#
# Coordination Sequence:
#
# PCOD9262999 Si02
#       7
#     8   8   8   8   8   8   8
#     4  10  20  32  58  82 112 142 188 244 266 326
#     4  10  19  33  59  87 109 145 195 240 287 333
#     4  10  19  35  56  83 110 143 193 232 281 325
#     4  10  19  35  56  83 110 143 193 232 281 325
#     4  10  21  38  56  78 116 151 180 233 292 339
#     4  10  21  38  56  78 116 151 180 233 292 339
#     4  10  19  33  59  87 109 145 195 240 287 333
#
# _framework density 19.686907000000001
#
# number of rings (size 3 to 8) (size 9 to 14) (size 15 to 20)
#    0.000    2.000    4.286    3.429    6.000    0.000 
#    0.000    4.286    0.000    0.000    0.000    0.000 
#    0.000    0.000    0.000    0.000    0.000    0.000 
#
# Total GULP energy -155868.325660 kJ/mol
# GULP energy per Si atom -5566.725916 kJ/mol
# Density = 1.964210 g / cm^3
# Si number density = 19.686907 Si / 1000 Ang^3
#
#
#
# Elastic Constant Matrix: (Units=GPa)
#
#
# Indices 1 2 3 4 5 6 
#
# 1 67.0588 30.4231 7.4534 -0.0002 14.8994 -0.0002
# 2 30.4231 80.5257 13.6692 -0.0003 5.5758 -0.0001
# 3 7.4534 13.6692 38.1532 0.0001 11.7038 0.0001
# 4 -0.0002 -0.0003 0.0001 41.0434 -0.0001 5.4658
# 5 14.8994 5.5758 11.7038 -0.0001 20.9922 -0.0001
# 6 -0.0002 -0.0001 0.0001 5.4658 -0.0001 30.4095
#
#
#
# Elastic Compliance Matrix: (Units=1/GPa)
#
#
# Indices 1 2 3 4 5 6 
#
# 1 0.021283 -0.007539 0.003092 0.000000 -0.014827 0.000000
# 2 -0.007539 0.015912 -0.005517 0.000000 0.004200 0.000000
# 3 0.003092 -0.005517 0.033543 0.000000 -0.019430 0.000000
# 4 0.000000 0.000000 0.000000 0.024962 0.000000 -0.004487
# 5 -0.014827 0.004200 -0.019430 0.000000 0.067878 0.000000
# 6 0.000000 0.000000 0.000000 -0.004487 0.000000 0.033691
#
#
# Mechanical properties :
#
#
# Convention : Reuss Voigt Hill
#
# Bulk Modulus (GPa) = 19.68094 32.09211 25.88653
# Shear Modulus (GPa) = 21.35528 27.43516 24.39522
#
# Velocity S-wave (km/s) = 3.29712 3.73711 3.52399
# Velocity P-wave (km/s) = 4.95110 5.91253 5.45304
#
# Compressibility (1/GPa) = 0.05081057
#
# Stress axis : x y z
#
# Youngs Moduli (GPa) = 46.98503 62.84438 29.81257
#
# Poissons Ratio (x) = 0.47379 -0.09217
# Poissons Ratio (y) = 0.35423 0.16446
# Poissons Ratio (z) = -0.14526 0.34668
#
# Static dielectric constant tensor:
#      x y z
#    x 1.695670 0.000000 0.012580 
#    y 0.000000 1.756560 0.000000 
#    z 0.012580 0.000000 1.754360 
# 
# From -- ./inp_files/298121.got.cif
#   From: 2010.05.17/outbox.cif.g08.bks.cpg/sg15_150_cif.got.tgz:298121.got - 2010.06.03 18:47:42.
