data_PCOD9262353
_publ_section_title
;
Structure prediction by ZEFSAII (Michael W. Deem and Ramdas Pophale) SiO2 
 PCOD9262353
Probable space group: C 2/C
;
_chemical_formula_sum "Si O2"
_cell_formula_units_Z 48
_cell_length_a 20.691873
_cell_length_b 15.319698
_cell_length_c 8.602395
_cell_angle_alpha 90.000000
_cell_angle_beta 79.460318
_cell_angle_gamma 90.000000
_cell_volume 2680.894085
_symmetry_space_group_name_H-M "C 2/C"
_symmetry_group_IT_number 15
_symmetry_cell_setting 'monoclinic'
loop_
_space_group_symop_operation_xyz
x,y,z
-x,y,1/2-z
-x,-y,-z
x,-y,1/2+z
1/2+x,1/2+y,z
1/2-x,1/2+y,1/2-z
1/2-x,1/2-y,-z
1/2+x,1/2-y,1/2+z
loop_
_atom_site_type_symbol
_atom_site_label
_atom_site_fract_x
_atom_site_fract_y
_atom_site_fract_z
Si Si1 0.790354 0.440738 0.395311
Si Si2 0.659693 0.288967 0.123228
Si Si3 0.425183 0.445538 0.237403
Si Si4 0.676684 0.229183 0.473204
Si Si5 0.700636 0.122003 0.961539
Si Si6 0.362455 0.406418 0.944233
O O1 0.830923 0.371881 0.482711
O O2 0.809572 0.539747 0.422181
O O3 0.801208 0.412546 0.213332
O O4 0.712369 0.429638 0.469980
O O5 0.603068 0.361236 0.157852
O O6 0.670258 0.251999 0.294232
O O7 0.725736 0.340449 0.046164
O O8 0.653756 0.204211 0.017442
O O9 0.500000 0.459738 0.250000
O O10 0.411716 0.426969 0.063404
O O11 0.382383 0.530610 0.297376
O O12 0.750000 0.250000 0.500000
O O13 0.634716 0.302389 0.582325
#
# Coordination Sequence:
#
# PCOD9262353 Si02
#       6
#     8   8   8   8   8   8
#     4  11  18  33  50  78 102 140 158 209 262 312
#     4  10  20  33  46  76 101 137 171 210 247 310
#     4  11  21  35  51  71 103 143 177 208 245 289
#     4   9  17  31  48  69 102 129 167 201 257 301
#     4  11  20  30  51  73 107 130 169 204 266 306
#     4  10  19  33  47  74 101 135 175 205 242 303
#
# _framework density 17.904475000000001
#
# number of rings (size 3 to 8) (size 9 to 14) (size 15 to 20)
#    0.000    1.667    6.667    1.500    0.000    2.667 
#    0.000    0.000    0.000    0.000    0.000   11.667 
#    0.000    0.000    0.000    0.000    0.000    0.000 
#
# Total GULP energy -133819.076263 kJ/mol
# GULP energy per Si atom -5575.794844 kJ/mol
# Density = 1.786372 g / cm^3
# Si number density = 17.904475 Si / 1000 Ang^3
#
#
#
# Elastic Constant Matrix: (Units=GPa)
#
#
# Indices 1 2 3 4 5 6 
#
# 1 26.9537 6.4700 9.7406 0.0000 2.2674 0.0000
# 2 6.4700 137.2578 34.8659 0.0000 -5.2128 0.0000
# 3 9.7406 34.8659 30.3613 0.0000 -3.8877 0.0000
# 4 0.0000 0.0000 0.0000 26.5437 0.0000 4.6399
# 5 2.2674 -5.2128 -3.8877 0.0000 12.5988 0.0000
# 6 0.0000 0.0000 0.0000 4.6399 0.0000 11.2550
#
#
#
# Elastic Compliance Matrix: (Units=1/GPa)
#
#
# Indices 1 2 3 4 5 6 
#
# 1 0.044248 0.002048 -0.018178 0.000000 -0.012725 0.000000
# 2 0.002048 0.010386 -0.012578 0.000000 0.000047 0.000000
# 3 -0.018178 -0.012578 0.055144 0.000000 0.015083 0.000000
# 4 0.000000 0.000000 0.000000 0.040599 0.000000 -0.016737
# 5 -0.012725 0.000047 0.015083 0.000000 0.086337 0.000000
# 6 0.000000 0.000000 0.000000 -0.016737 0.000000 0.095749
#
#
# Mechanical properties :
#
#
# Convention : Reuss Voigt Hill
#
# Bulk Modulus (GPa) = 19.09709 32.96953 26.03331
# Shear Modulus (GPa) = 12.27501 19.64593 15.96047
#
# Velocity S-wave (km/s) = 2.62120 3.31609 2.98891
# Velocity P-wave (km/s) = 4.45536 5.75465 5.14618
#
# Compressibility (1/GPa) = 0.05236401
#
# Stress axis : x y z
#
# Youngs Moduli (GPa) = 22.59964 96.28535 18.13439
#
# Poissons Ratio (x) = -0.19723 0.32964
# Poissons Ratio (y) = -0.04629 0.22809
# Poissons Ratio (z) = 0.41081 1.21106
#
# Static dielectric constant tensor:
#      x y z
#    x 1.582030 0.000000 -0.014630 
#    y 0.000000 1.673970 0.000000 
#    z -0.014630 0.000000 1.650060 
# 
# From -- ./inp_files/54969.got.cif
#   From: 2010.05.17/outbox.cif.g08.bks.cpg/sg15_28_cif.got.tgz:54969.got - 2010.06.03 18:47:42.
