data_PCOD9262594
_publ_section_title
;
Structure prediction by ZEFSAII (Michael W. Deem and Ramdas Pophale) SiO2 
 PCOD9262594
Probable space group: C 2/C
;
_chemical_formula_sum "Si O2"
_cell_formula_units_Z 48
_cell_length_a 22.760316
_cell_length_b 6.688008
_cell_length_c 16.369643
_cell_angle_alpha 90.000000
_cell_angle_beta 101.385473
_cell_angle_gamma 90.000000
_cell_volume 2442.770686
_symmetry_space_group_name_H-M "C 2/C"
_symmetry_group_IT_number 15
_symmetry_cell_setting 'monoclinic'
loop_
_space_group_symop_operation_xyz
x,y,z
-x,y,1/2-z
-x,-y,-z
x,-y,1/2+z
1/2+x,1/2+y,z
1/2-x,1/2+y,1/2-z
1/2-x,1/2-y,-z
1/2+x,1/2-y,1/2+z
loop_
_atom_site_type_symbol
_atom_site_label
_atom_site_fract_x
_atom_site_fract_y
_atom_site_fract_z
Si Si1 0.332632 0.124757 0.069697
Si Si2 0.112889 0.350813 0.158191
Si Si3 0.797278 0.105134 0.405307
Si Si4 0.008599 0.690220 0.942275
Si Si5 0.129670 0.281468 0.541321
Si Si6 0.440510 0.042197 0.197178
O O1 0.274274 0.110386 0.110231
O O2 0.391638 0.176211 0.137777
O O3 0.319472 0.279317 0.993391
O O4 0.345431 0.913610 0.027666
O O5 0.172336 0.221595 0.161568
O O6 0.120473 0.558080 0.110864
O O7 0.093457 0.414277 0.243054
O O8 0.057764 0.234870 0.097702
O O9 0.823883 0.884928 0.419280
O O10 0.032753 0.605626 0.863340
O O11 0.064382 0.806042 0.997464
O O12 0.000000 0.500000 0.000000
O O13 0.500000 0.146500 0.250000
#
# Coordination Sequence:
#
# PCOD9262594 Si02
#       6
#     8   8   8   8   8   8
#     4   9  19  35  54  76 103 140 179 222 260 306
#     4   9  18  32  49  76 109 136 167 213 269 315
#     4  10  19  33  54  79 104 135 181 219 258 316
#     4   8  15  30  54  76  97 135 178 215 252 302
#     4   9  17  32  54  76  99 137 179 216 256 307
#     4   9  17  34  56  74 106 144 173 214 272 317
#
# _framework density 19.649819000000001
#
# number of rings (size 3 to 8) (size 9 to 14) (size 15 to 20)
#    0.000    3.000    0.000    1.500    0.000    0.667 
#    3.000    3.333    0.000   13.000    0.000    0.000 
#    0.000    0.000    0.000    0.000    0.000    0.000 
#
# Total GULP energy -133658.245869 kJ/mol
# GULP energy per Si atom -5569.093578 kJ/mol
# Density = 1.960509 g / cm^3
# Si number density = 19.649819 Si / 1000 Ang^3
#
#
#
# Elastic Constant Matrix: (Units=GPa)
#
#
# Indices 1 2 3 4 5 6 
#
# 1 112.9521 19.0854 27.7445 0.0000 -12.9751 0.0000
# 2 19.0854 32.1049 0.4333 0.0000 3.5423 0.0000
# 3 27.7445 0.4333 49.9029 0.0000 -9.6030 0.0000
# 4 0.0000 0.0000 0.0000 3.4983 0.0000 -3.3963
# 5 -12.9751 3.5423 -9.6030 0.0000 41.4720 0.0000
# 6 0.0000 0.0000 0.0000 -3.3963 0.0000 -0.8827
#
#
#
# Elastic Compliance Matrix: (Units=1/GPa)
#
#
# Indices 1 2 3 4 5 6 
#
# 1 0.011900 -0.007320 -0.005982 0.000000 0.002963 0.000000
# 2 -0.007320 0.035980 0.002852 0.000000 -0.004703 0.000000
# 3 -0.005982 0.002852 0.024003 0.000000 0.003443 0.000000
# 4 0.000000 0.000000 0.000000 0.060362 0.000000 -0.232264
# 5 0.002963 -0.004703 0.003443 0.000000 0.026239 0.000000
# 6 0.000000 0.000000 0.000000 -0.232264 0.000000 -0.239237
#
#
# Mechanical properties :
#
#
# Convention : Reuss Voigt Hill
#
# Bulk Modulus (GPa) = 19.61466 32.16514 25.88990
# Shear Modulus (GPa) = -116.66063 18.66397 -48.99833
#
# Velocity S-wave (km/s) = -7.71354 3.08527 -4.99899
# Velocity P-wave (km/s) = 8.32633 5.39413 4.48504
#
# Compressibility (1/GPa) = 0.05098228
#
# Stress axis : x y z
#
# Youngs Moduli (GPa) = 84.03324 27.79319 41.66210
#
# Poissons Ratio (x) = 0.20346 0.24924
# Poissons Ratio (y) = 0.61516 -0.11884
# Poissons Ratio (z) = 0.50271 -0.07928
#
# Static dielectric constant tensor:
#      x y z
#    x 1.737780 0.000000 0.029390 
#    y 0.000000 1.657540 0.000000 
#    z 0.029390 0.000000 1.720910 
# 
# From -- ./inp_files/217801.got.cif
#   From: 2010.05.17/outbox.cif.g08.bks.cpg/sg15_109_cif.got.tgz:217801.got - 2010.06.03 18:47:42.
