data_PCOD9262776
_publ_section_title
;
Structure prediction by ZEFSAII (Michael W. Deem and Ramdas Pophale) SiO2 
 PCOD9262776
Probable space group: C 2/C
;
_chemical_formula_sum "Si O2"
_cell_formula_units_Z 24
_cell_length_a 23.924189
_cell_length_b 7.610140
_cell_length_c 8.296976
_cell_angle_alpha 90.000000
_cell_angle_beta 43.448190
_cell_angle_gamma 90.000000
_cell_volume 1038.837696
_symmetry_space_group_name_H-M "C 2/C"
_symmetry_group_IT_number 15
_symmetry_cell_setting 'monoclinic'
loop_
_space_group_symop_operation_xyz
x,y,z
-x,y,1/2-z
-x,-y,-z
x,-y,1/2+z
1/2+x,1/2+y,z
1/2-x,1/2+y,1/2-z
1/2-x,1/2-y,-z
1/2+x,1/2-y,1/2+z
loop_
_atom_site_type_symbol
_atom_site_label
_atom_site_fract_x
_atom_site_fract_y
_atom_site_fract_z
Si Si1 0.369195 0.313848 0.075818
Si Si2 0.577405 0.348933 0.193979
Si Si3 0.261352 0.634475 0.319156
O O1 0.424044 0.292102 0.117887
O O2 0.295049 0.442046 0.288920
O O3 0.322990 0.147819 0.100602
O O4 0.412113 0.437570 0.851281
O O5 0.500000 0.297102 0.250000
O O6 0.662037 0.287338 0.939511
O O7 0.250000 0.750000 0.500000
#
# Coordination Sequence:
#
# PCOD9262776 Si02
#       3
#     8   8   8
#     4  10  19  33  56  78 106 138 177 215 258 316
#     4  10  20  32  55  82 109 133 176 222 264 300
#     4  10  19  34  53  80 104 141 178 214 257 318
#
# _framework density 23.102743
#
# number of rings (size 3 to 8) (size 9 to 14) (size 15 to 20)
#    2.000    0.000    3.333    2.000    0.000    0.000 
#    0.000    0.000    0.000   10.000    0.000    0.000 
#    0.000    0.000    0.000    0.000    0.000    0.000 
#
# Total GULP energy -66867.305736 kJ/mol
# GULP energy per Si atom -5572.275478 kJ/mol
# Density = 2.305016 g / cm^3
# Si number density = 23.102743 Si / 1000 Ang^3
#
#
#
# Elastic Constant Matrix: (Units=GPa)
#
#
# Indices 1 2 3 4 5 6 
#
# 1 198.7395 7.8142 13.9751 0.0000 -18.5228 0.0000
# 2 7.8142 36.2861 -8.1696 0.0000 -2.4350 0.0000
# 3 13.9751 -8.1696 57.8914 0.0000 -6.6010 0.0000
# 4 0.0000 0.0000 0.0000 19.7208 0.0000 -4.8772
# 5 -18.5228 -2.4350 -6.6010 0.0000 28.7173 0.0000
# 6 0.0000 0.0000 0.0000 -4.8772 0.0000 17.6574
#
#
#
# Elastic Compliance Matrix: (Units=1/GPa)
#
#
# Indices 1 2 3 4 5 6 
#
# 1 0.005453 -0.001217 -0.001128 0.000000 0.003155 0.000000
# 2 -0.001217 0.029067 0.004711 0.000000 0.002763 0.000000
# 3 -0.001128 0.004711 0.018663 0.000000 0.003961 0.000000
# 4 0.000000 0.000000 0.000000 0.054426 0.000000 0.015033
# 5 0.003155 0.002763 0.003961 0.000000 0.038002 0.000000
# 6 0.000000 0.000000 0.000000 0.015033 0.000000 0.060786
#
#
# Mechanical properties :
#
#
# Convention : Reuss Voigt Hill
#
# Bulk Modulus (GPa) = 17.26715 35.57294 26.42004
# Shear Modulus (GPa) = 22.62764 31.83891 27.23327
#
# Velocity S-wave (km/s) = 3.13299 3.71636 3.43708
# Velocity P-wave (km/s) = 4.53627 5.81776 5.21652
#
# Compressibility (1/GPa) = 0.05791345
#
# Stress axis : x y z
#
# Youngs Moduli (GPa) = 183.38832 34.40360 53.58322
#
# Poissons Ratio (x) = 0.04186 0.06046
# Poissons Ratio (y) = 0.22312 -0.25241
# Poissons Ratio (z) = 0.20692 -0.16206
#
# Static dielectric constant tensor:
#      x y z
#    x 1.896490 0.000000 0.001050 
#    y 0.000000 1.881940 0.000000 
#    z 0.001050 0.000000 1.870350 
# 
# From -- ./inp_files/26998.got.cif
#   From: 2010.05.17/outbox.cif.g08.bks.cpg/sg15_14_cif.got.tgz:26998.got - 2010.06.03 18:47:42.
