data_PCOD9262783
_publ_section_title
;
Structure prediction by ZEFSAII (Michael W. Deem and Ramdas Pophale) SiO2 
 PCOD9262783
Probable space group: C 2/C
;
_chemical_formula_sum "Si O2"
_cell_formula_units_Z 40
_cell_length_a 17.479359
_cell_length_b 8.048588
_cell_length_c 16.349077
_cell_angle_alpha 90.000000
_cell_angle_beta 48.746014
_cell_angle_gamma 90.000000
_cell_volume 1729.168265
_symmetry_space_group_name_H-M "C 2/C"
_symmetry_group_IT_number 15
_symmetry_cell_setting 'monoclinic'
loop_
_space_group_symop_operation_xyz
x,y,z
-x,y,1/2-z
-x,-y,-z
x,-y,1/2+z
1/2+x,1/2+y,z
1/2-x,1/2+y,1/2-z
1/2-x,1/2-y,-z
1/2+x,1/2-y,1/2+z
loop_
_atom_site_type_symbol
_atom_site_label
_atom_site_fract_x
_atom_site_fract_y
_atom_site_fract_z
Si Si1 0.117954 0.359509 0.681870
Si Si2 0.169095 0.924943 0.035535
Si Si3 0.626543 0.199804 0.908037
Si Si4 0.937353 0.852673 0.999434
Si Si5 0.202264 0.358454 0.803310
O O1 0.138023 0.167795 0.639962
O O2 0.210297 0.451067 0.566958
O O3 0.141773 0.376452 0.760610
O O4 0.000000 0.403468 0.750000
O O5 0.137003 0.788569 0.988218
O O6 0.101850 0.083841 0.059920
O O7 0.511713 0.195964 0.956688
O O8 0.683937 0.318855 0.803237
O O9 0.682347 0.024496 0.867561
O O10 0.838668 0.800671 0.119567
O O11 0.000000 0.000000 0.000000
#
# Coordination Sequence:
#
# PCOD9262783 Si02
#       5
#     8   8   8   8   8
#     4  10  19  33  56  80 109 149 187 223 274 337
#     4   9  20  36  56  82 111 146 190 231 282 339
#     4  10  20  35  59  85 111 145 188 238 279 327
#     4  10  19  35  57  83 112 144 186 236 279 326
#     4  11  21  35  59  86 111 146 194 231 276 338
#
# _framework density 23.132508999999999
#
# number of rings (size 3 to 8) (size 9 to 14) (size 15 to 20)
#    0.000    2.000    0.000    6.600    0.000    1.600 
#    0.000    0.000    0.000   50.400    0.000    0.000 
#    0.000    0.000    0.000    0.000    0.000    0.000 
#
# Total GULP energy -111633.053178 kJ/mol
# GULP energy per Si atom -5581.652659 kJ/mol
# Density = 2.307986 g / cm^3
# Si number density = 23.132509 Si / 1000 Ang^3
#
#
#
# Elastic Constant Matrix: (Units=GPa)
#
#
# Indices 1 2 3 4 5 6 
#
# 1 77.7013 -11.4067 20.5415 0.0000 -23.5625 0.0000
# 2 -11.4067 59.6166 10.0243 0.0000 1.4020 -0.0001
# 3 20.5415 10.0243 35.7215 0.0000 -5.4925 0.0000
# 4 0.0000 0.0000 0.0000 30.8740 0.0000 -2.6758
# 5 -23.5625 1.4020 -5.4925 0.0000 32.7980 0.0000
# 6 0.0000 -0.0001 0.0000 -2.6758 0.0000 32.5671
#
#
#
# Elastic Compliance Matrix: (Units=1/GPa)
#
#
# Indices 1 2 3 4 5 6 
#
# 1 0.020524 0.005552 -0.011424 0.000000 0.012594 0.000000
# 2 0.005552 0.019191 -0.008304 0.000000 0.001777 0.000000
# 3 -0.011424 -0.008304 0.036630 0.000000 -0.001718 0.000000
# 4 0.000000 0.000000 0.000000 0.032622 0.000000 0.002680
# 5 0.012594 0.001777 -0.001718 0.000000 0.039174 0.000000
# 6 0.000000 0.000000 0.000000 0.002680 0.000000 0.030926
#
#
# Mechanical properties :
#
#
# Convention : Reuss Voigt Hill
#
# Bulk Modulus (GPa) = 20.83711 23.48419 22.16065
# Shear Modulus (GPa) = 22.37974 29.50652 25.94313
#
# Velocity S-wave (km/s) = 3.11377 3.57535 3.35251
# Velocity P-wave (km/s) = 4.68559 5.21711 4.95848
#
# Compressibility (1/GPa) = 0.04799130
#
# Stress axis : x y z
#
# Youngs Moduli (GPa) = 48.72357 52.10873 27.30021
#
# Poissons Ratio (x) = -0.28929 0.31187
# Poissons Ratio (y) = -0.27049 0.22671
# Poissons Ratio (z) = 0.55660 0.43274
#
# Static dielectric constant tensor:
#      x y z
#    x 1.906340 0.000000 -0.039170 
#    y 0.000000 1.931130 0.000000 
#    z -0.039170 0.000000 1.856190 
# 
# From -- ./inp_files/159503.got.cif
#   From: 2010.05.17/outbox.cif.g08.bks.cpg/sg15_80_cif.got.tgz:159503.got - 2010.06.03 18:47:42.
