data_PCOD9262193
_publ_section_title
;
Structure prediction by ZEFSAII (Michael W. Deem and Ramdas Pophale) SiO2 
 PCOD9262193
Probable space group: C 2/C
;
_chemical_formula_sum "Si O2"
_cell_formula_units_Z 56
_cell_length_a 9.395111
_cell_length_b 21.947355
_cell_length_c 15.858842
_cell_angle_alpha 90.000000
_cell_angle_beta 121.068536
_cell_angle_gamma 90.000000
_cell_volume 2800.970952
_symmetry_space_group_name_H-M "C 2/C"
_symmetry_group_IT_number 15
_symmetry_cell_setting 'monoclinic'
loop_
_space_group_symop_operation_xyz
x,y,z
-x,y,1/2-z
-x,-y,-z
x,-y,1/2+z
1/2+x,1/2+y,z
1/2-x,1/2+y,1/2-z
1/2-x,1/2-y,-z
1/2+x,1/2-y,1/2+z
loop_
_atom_site_type_symbol
_atom_site_label
_atom_site_fract_x
_atom_site_fract_y
_atom_site_fract_z
Si Si1 0.694877 0.827378 0.076552
Si Si2 0.101174 0.052418 0.869552
Si Si3 0.014970 0.241656 0.891320
Si Si4 0.690049 0.707087 0.338335
Si Si5 0.570441 0.618044 0.534676
Si Si6 0.390270 0.584073 0.132039
Si Si7 0.082695 0.328352 0.366946
O O1 0.759732 0.895626 0.084282
O O2 0.563095 0.828892 0.110659
O O3 0.860198 0.785624 0.139933
O O4 0.607632 0.795528 0.969915
O O5 0.000000 0.058422 0.750000
O O6 0.981181 0.068488 0.911629
O O7 0.172607 0.984413 0.900636
O O8 0.830921 0.268198 0.818160
O O9 0.990771 0.182903 0.946259
O O10 0.500000 0.700544 0.250000
O O11 0.733013 0.640746 0.387779
O O12 0.669182 0.762074 0.397206
O O13 0.508809 0.603522 0.421386
O O14 0.769187 0.623162 0.584120
O O15 0.500000 0.578270 0.250000
O O16 0.000000 0.333765 0.250000
#
# Coordination Sequence:
#
# PCOD9262193 Si02
#       7
#     8   8   8   8   8   8   8
#     4  10  19  33  53  79 113 142 173 230 290 338
#     4  10  21  36  54  79 111 150 193 233 278 336
#     4   9  19  34  55  82 110 142 182 232 289 344
#     4   9  18  34  54  79 109 144 188 233 280 336
#     4  10  19  35  57  80 109 144 187 236 281 330
#     4  10  20  34  55  80 108 148 197 235 272 334
#     4  10  19  32  55  84 109 141 184 233 287 340
#
# _framework density 19.993065999999999
#
# number of rings (size 3 to 8) (size 9 to 14) (size 15 to 20)
#    0.000    2.286    0.000    3.000    0.000    3.429 
#    0.000    2.857    0.000    0.000    0.000   21.000 
#    0.000    0.000    0.000    0.000    0.000    0.000 
#
# Total GULP energy -155927.974945 kJ/mol
# GULP energy per Si atom -5568.856248 kJ/mol
# Density = 1.994756 g / cm^3
# Si number density = 19.993066 Si / 1000 Ang^3
#
#
#
# Elastic Constant Matrix: (Units=GPa)
#
#
# Indices 1 2 3 4 5 6 
#
# 1 164.0419 57.5341 26.2454 0.0000 -3.9695 0.0000
# 2 57.5341 118.9003 4.0214 0.0000 -2.9931 0.0000
# 3 26.2454 4.0214 71.1172 0.0000 -9.0471 0.0000
# 4 0.0000 0.0000 0.0000 21.6488 0.0000 8.5654
# 5 -3.9695 -2.9931 -9.0471 0.0000 33.8305 0.0000
# 6 0.0000 0.0000 0.0000 8.5654 0.0000 17.7785
#
#
#
# Elastic Compliance Matrix: (Units=1/GPa)
#
#
# Indices 1 2 3 4 5 6 
#
# 1 0.007820 -0.003696 -0.002693 0.000000 -0.000130 0.000000
# 2 -0.003696 0.010187 0.000877 0.000000 0.000702 0.000000
# 3 -0.002693 0.000877 0.015503 0.000000 0.003907 0.000000
# 4 0.000000 0.000000 0.000000 0.057070 0.000000 -0.027496
# 5 -0.000130 0.000702 0.003907 0.000000 0.030651 0.000000
# 6 0.000000 0.000000 0.000000 -0.027496 0.000000 0.069494
#
#
# Mechanical properties :
#
#
# Convention : Reuss Voigt Hill
#
# Bulk Modulus (GPa) = 44.47366 58.85124 51.66245
# Shear Modulus (GPa) = 23.89536 32.40215 28.14876
#
# Velocity S-wave (km/s) = 3.46089 4.03012 3.75630
# Velocity P-wave (km/s) = 6.18573 7.15231 6.68651
#
# Compressibility (1/GPa) = 0.02248522
#
# Stress axis : x y z
#
# Youngs Moduli (GPa) = 127.87445 98.16473 64.50457
#
# Poissons Ratio (x) = 0.36284 0.17374
# Poissons Ratio (y) = 0.47265 -0.05659
# Poissons Ratio (z) = 0.34443 -0.08613
#
# Static dielectric constant tensor:
#      x y z
#    x 1.739530 0.000000 0.011040 
#    y 0.000000 1.736780 0.000000 
#    z 0.011040 0.000000 1.869400 
# 
# From -- ./inp_files/192263.got.cif
#   From: 2010.05.17/outbox.cif.g08.bks.cpg/sg15_97_cif.got.tgz:192263.got - 2010.06.03 18:47:42.
