data_PCOD9262614
_publ_section_title
;
Structure prediction by ZEFSAII (Michael W. Deem and Ramdas Pophale) SiO2 
 PCOD9262614
Probable space group: C 2/C
;
_chemical_formula_sum "Si O2"
_cell_formula_units_Z 64
_cell_length_a 25.683570
_cell_length_b 5.147183
_cell_length_c 19.284146
_cell_angle_alpha 90.000000
_cell_angle_beta 93.763366
_cell_angle_gamma 90.000000
_cell_volume 2543.828937
_symmetry_space_group_name_H-M "C 2/C"
_symmetry_group_IT_number 15
_symmetry_cell_setting 'monoclinic'
loop_
_space_group_symop_operation_xyz
x,y,z
-x,y,1/2-z
-x,-y,-z
x,-y,1/2+z
1/2+x,1/2+y,z
1/2-x,1/2+y,1/2-z
1/2-x,1/2-y,-z
1/2+x,1/2-y,1/2+z
loop_
_atom_site_type_symbol
_atom_site_label
_atom_site_fract_x
_atom_site_fract_y
_atom_site_fract_z
Si Si1 0.721470 0.902726 0.170546
Si Si2 0.586393 0.470749 0.136734
Si Si3 0.424779 0.969960 0.292728
Si Si4 0.688787 0.730926 0.468546
Si Si5 0.714471 0.905679 0.324326
Si Si6 0.848706 0.269168 0.464923
Si Si7 0.026065 0.966588 0.427397
Si Si8 0.546204 0.024611 0.857900
O O1 0.696896 0.860056 0.244154
O O2 0.771417 0.709840 0.172328
O O3 0.689478 0.794531 0.104011
O O4 0.736124 0.205429 0.164820
O O5 0.604443 0.185998 0.162554
O O6 0.604047 0.612261 0.067377
O O7 0.524614 0.441773 0.125496
O O8 0.595672 0.681473 0.196574
O O9 0.424315 0.031434 0.211311
O O10 0.485134 0.959494 0.326464
O O11 0.750000 0.750000 0.500000
O O12 0.683193 0.818284 0.388611
O O13 0.673445 0.434495 0.481500
O O14 0.652961 0.937625 0.507099
O O15 0.056842 0.209107 0.399413
O O16 0.055153 0.699144 0.415522
O O17 0.000000 0.000000 0.500000
#
# Coordination Sequence:
#
# PCOD9262614 Si02
#       8
#     8   8   8   8   8   8   8   8
#     4  10  19  34  53  79 102 136 174 225 275 325
#     4  10  21  34  53  79 109 142 173 222 274 325
#     4   9  17  33  53  78 104 127 176 220 266 309
#     4  12  21  35  56  84 105 140 189 235 268 325
#     4  10  20  33  54  78 105 131 178 229 271 314
#     4  12  22  35  57  80 110 144 184 227 281 333
#     4  10  19  33  54  80 108 144 181 216 262 324
#     4   9  17  30  55  81  98 131 175 227 259 301
#
# _framework density 25.158923000000001
#
# number of rings (size 3 to 8) (size 9 to 14) (size 15 to 20)
#    0.000    1.750    2.500    3.000    0.000    3.000 
#    0.000    0.000    8.250    0.000    0.000    0.000 
#    0.000    0.000    0.000    0.000    0.000    0.000 
#
# Total GULP energy -178713.333213 kJ/mol
# GULP energy per Si atom -5584.791663 kJ/mol
# Density = 2.510166 g / cm^3
# Si number density = 25.158923 Si / 1000 Ang^3
#
#
#
# Elastic Constant Matrix: (Units=GPa)
#
#
# Indices 1 2 3 4 5 6 
#
# 1 37.0370 -10.7239 -14.4884 0.0000 1.3178 0.0000
# 2 -10.7239 113.0078 16.6255 0.0000 0.6595 0.0000
# 3 -14.4884 16.6255 132.8570 0.0000 -20.0316 0.0000
# 4 0.0000 0.0000 0.0000 46.0738 0.0000 -12.1866
# 5 1.3178 0.6595 -20.0316 0.0000 28.8936 0.0000
# 6 0.0000 0.0000 0.0000 -12.1866 0.0000 19.0493
#
#
#
# Elastic Compliance Matrix: (Units=1/GPa)
#
#
# Indices 1 2 3 4 5 6 
#
# 1 0.028796 0.002294 0.002956 0.000000 0.000684 0.000000
# 2 0.002294 0.009229 -0.001063 0.000000 -0.001053 0.000000
# 3 0.002956 -0.001063 0.008896 0.000000 0.006057 0.000000
# 4 0.000000 0.000000 0.000000 0.026125 0.000000 0.016713
# 5 0.000684 -0.001053 0.006057 0.000000 0.038802 0.000000
# 6 0.000000 0.000000 0.000000 0.016713 0.000000 0.063187
#
#
# Mechanical properties :
#
#
# Convention : Reuss Voigt Hill
#
# Bulk Modulus (GPa) = 18.08501 29.52533 23.80517
# Shear Modulus (GPa) = 27.01339 38.23591 32.62465
#
# Velocity S-wave (km/s) = 3.28031 3.90266 3.60494
# Velocity P-wave (km/s) = 4.64232 5.66292 5.17783
#
# Compressibility (1/GPa) = 0.05529441
#
# Stress axis : x y z
#
# Youngs Moduli (GPa) = 34.72661 108.35156 112.41553
#
# Poissons Ratio (x) = -0.24853 -0.33235
# Poissons Ratio (y) = -0.07965 0.11955
# Poissons Ratio (z) = -0.10267 0.11523
#
# Static dielectric constant tensor:
#      x y z
#    x 2.110550 0.000000 -0.008130 
#    y 0.000000 1.937890 0.000000 
#    z -0.008130 0.000000 1.956380 
# 
# From -- ./inp_files/223893.got.cif
#   From: 2010.05.17/outbox.cif.g08.bks.cpg/sg15_112_cif.got.tgz:223893.got - 2010.06.03 18:47:42.
