data_PCOD9262652
_publ_section_title
;
Structure prediction by ZEFSAII (Michael W. Deem and Ramdas Pophale) SiO2 
 PCOD9262652
Probable space group: C 2/C
;
_chemical_formula_sum "Si O2"
_cell_formula_units_Z 48
_cell_length_a 17.644787
_cell_length_b 13.524977
_cell_length_c 22.317535
_cell_angle_alpha 90.000000
_cell_angle_beta 26.000564
_cell_angle_gamma 90.000000
_cell_volume 2334.801193
_symmetry_space_group_name_H-M "C 2/C"
_symmetry_group_IT_number 15
_symmetry_cell_setting 'monoclinic'
loop_
_space_group_symop_operation_xyz
x,y,z
-x,y,1/2-z
-x,-y,-z
x,-y,1/2+z
1/2+x,1/2+y,z
1/2-x,1/2+y,1/2-z
1/2-x,1/2-y,-z
1/2+x,1/2-y,1/2+z
loop_
_atom_site_type_symbol
_atom_site_label
_atom_site_fract_x
_atom_site_fract_y
_atom_site_fract_z
Si Si1 0.083413 0.297593 0.307986
Si Si2 0.854027 0.875335 0.642064
Si Si3 0.919998 0.095321 0.621096
Si Si4 0.983000 0.400010 0.552847
Si Si5 0.860519 0.070961 0.799881
Si Si6 0.738306 0.156672 0.396728
O O1 0.091637 0.207467 0.349599
O O2 0.237195 0.371107 0.220747
O O3 0.132348 0.247005 0.209754
O O4 0.889532 0.340175 0.455147
O O5 0.652454 0.897087 0.796769
O O6 0.923603 0.855240 0.526344
O O7 0.942213 0.977773 0.598702
O O8 0.912538 0.109466 0.697180
O O9 0.894833 0.333438 0.564890
O O10 0.000000 0.500000 0.500000
O O11 0.171882 0.382563 0.443132
O O12 0.000000 0.096830 0.750000
O O13 0.830612 0.950431 0.824198
#
# Coordination Sequence:
#
# PCOD9262652 Si02
#       6
#     8   8   8   8   8   8
#     4  11  18  32  58  85 113 139 186 250 284 321
#     4  10  20  31  56  89 110 133 195 253 280 321
#     4  11  19  33  55  85 114 142 186 248 285 320
#     4   9  15  33  53  76 104 138 192 230 267 324
#     4  11  21  36  56  80 118 158 190 222 287 361
#     4  10  19  33  54  84 112 144 194 236 280 331
#
# _framework density 20.558494
#
# number of rings (size 3 to 8) (size 9 to 14) (size 15 to 20)
#    0.000    1.667    8.333    1.000    0.000    0.000 
#    0.000    1.667    0.000    9.000    0.000    0.000 
#    0.000    0.000    0.000    0.000    0.000    0.000 
#
# Total GULP energy -133631.703696 kJ/mol
# GULP energy per Si atom -5567.987654 kJ/mol
# Density = 2.051170 g / cm^3
# Si number density = 20.558494 Si / 1000 Ang^3
#
#
#
# Elastic Constant Matrix: (Units=GPa)
#
#
# Indices 1 2 3 4 5 6 
#
# 1 57.5351 -11.7062 45.3313 -0.0001 -12.0655 0.0002
# 2 -11.7062 53.5721 -5.6710 -0.0032 3.4402 0.0010
# 3 45.3313 -5.6710 151.5967 -0.0011 25.3806 0.0004
# 4 -0.0001 -0.0032 -0.0011 26.6690 0.0012 4.2117
# 5 -12.0655 3.4402 25.3806 0.0012 24.7236 0.0000
# 6 0.0002 0.0010 0.0004 4.2117 0.0000 7.2043
#
#
#
# Elastic Compliance Matrix: (Units=1/GPa)
#
#
# Indices 1 2 3 4 5 6 
#
# 1 0.040865 0.004519 -0.018457 -0.000002 0.038261 0.000001
# 2 0.004519 0.019577 -0.000642 0.000003 0.000141 -0.000004
# 3 -0.018457 -0.000642 0.016404 0.000002 -0.025757 -0.000002
# 4 -0.000002 0.000003 0.000002 0.041311 -0.000005 -0.024151
# 5 0.038261 0.000141 -0.025757 -0.000005 0.085541 0.000004
# 6 0.000001 -0.000004 -0.000002 -0.024151 0.000004 0.152924
#
#
# Mechanical properties :
#
#
# Convention : Reuss Voigt Hill
#
# Bulk Modulus (GPa) = 20.97065 35.40132 28.18599
# Shear Modulus (GPa) = 12.44779 27.36939 19.90859
#
# Velocity S-wave (km/s) = 2.46332 3.65265 3.11527
# Velocity P-wave (km/s) = 4.27940 5.91999 5.16525
#
# Compressibility (1/GPa) = 0.04768569
#
# Stress axis : x y z
#
# Youngs Moduli (GPa) = 24.47054 51.08088 60.96173
#
# Poissons Ratio (x) = -0.23083 1.12514
# Poissons Ratio (y) = -0.11058 0.03917
# Poissons Ratio (z) = 0.45164 0.03282
#
# Static dielectric constant tensor:
#      x y z
#    x 1.701750 0.000000 0.049580 
#    y 0.000000 1.818590 0.000000 
#    z 0.049580 0.000000 1.895070 
# 
# From -- ./inp_files/301082.got.cif
#   From: 2010.05.17/outbox.cif.g08.bks.cpg/sg15_151_cif.got.tgz:301082.got - 2010.06.03 18:47:42.
