data_PCOD9262943
_publ_section_title
;
Structure prediction by ZEFSAII (Michael W. Deem and Ramdas Pophale) SiO2 
 PCOD9262943
Probable space group: C 2/C
;
_chemical_formula_sum "Si O2"
_cell_formula_units_Z 56
_cell_length_a 30.236829
_cell_length_b 8.421447
_cell_length_c 19.145505
_cell_angle_alpha 90.000000
_cell_angle_beta 138.782999
_cell_angle_gamma 90.000000
_cell_volume 3212.311568
_symmetry_space_group_name_H-M "C 2/C"
_symmetry_group_IT_number 15
_symmetry_cell_setting 'monoclinic'
loop_
_space_group_symop_operation_xyz
x,y,z
-x,y,1/2-z
-x,-y,-z
x,-y,1/2+z
1/2+x,1/2+y,z
1/2-x,1/2+y,1/2-z
1/2-x,1/2-y,-z
1/2+x,1/2-y,1/2+z
loop_
_atom_site_type_symbol
_atom_site_label
_atom_site_fract_x
_atom_site_fract_y
_atom_site_fract_z
Si Si1 0.928260 0.600321 0.149199
Si Si2 0.317011 0.944999 0.110893
Si Si3 0.412229 0.930777 0.838888
Si Si4 0.666038 0.577965 0.404398
Si Si5 0.553752 0.937252 0.465131
Si Si6 0.942086 0.866073 0.283141
Si Si7 0.449860 0.383722 0.626075
O O1 0.865094 0.515125 0.108125
O O2 0.924552 0.579885 0.061579
O O3 0.935960 0.761065 0.204104
O O4 0.000000 0.517110 0.250000
O O5 0.324489 0.755777 0.113086
O O6 0.347841 0.011227 0.219331
O O7 0.239749 0.989212 0.007067
O O8 0.475475 0.038866 0.891095
O O9 0.433647 0.757098 0.835938
O O10 0.406642 0.937715 0.915162
O O11 0.621702 0.481077 0.296628
O O12 0.620795 0.578103 0.420877
O O13 0.559975 0.769012 0.433877
O O14 0.010139 0.970201 0.362999
O O15 0.500000 0.345032 0.750000
#
# Coordination Sequence:
#
# PCOD9262943 Si02
#       7
#     8   8   8   8   8   8   8
#     4  11  18  33  57  81 103 140 182 227 259 320
#     4  10  20  36  57  78 109 139 189 216 267 325
#     4  10  22  34  53  81 113 143 176 226 267 335
#     4  10  20  33  59  82 103 143 180 235 264 309
#     4  11  20  34  55  79 110 148 177 210 287 315
#     4  10  21  33  58  86 109 131 186 233 268 305
#     4  10  19  33  58  83 104 138 182 232 263 321
#
# _framework density 17.432928
#
# number of rings (size 3 to 8) (size 9 to 14) (size 15 to 20)
#    0.000    1.714    4.286    3.429    0.000    2.857 
#    0.000    0.000    6.286    0.000    0.000    0.000 
#    0.000    0.000    0.000    0.000    0.000    0.000 
#
# Total GULP energy -156008.744032 kJ/mol
# GULP energy per Si atom -5571.740858 kJ/mol
# Density = 1.739325 g / cm^3
# Si number density = 17.432928 Si / 1000 Ang^3
#
#
#
# Elastic Constant Matrix: (Units=GPa)
#
#
# Indices 1 2 3 4 5 6 
#
# 1 81.7954 10.1030 48.1450 0.0000 7.5073 0.0000
# 2 10.1030 39.5500 -6.2371 0.0000 3.8722 0.0000
# 3 48.1450 -6.2371 56.2845 0.0000 7.6271 0.0000
# 4 0.0000 0.0000 0.0000 18.1357 0.0000 1.0220
# 5 7.5073 3.8722 7.6271 0.0000 43.4697 0.0000
# 6 0.0000 0.0000 0.0000 1.0220 0.0000 24.9882
#
#
#
# Elastic Compliance Matrix: (Units=1/GPa)
#
#
# Indices 1 2 3 4 5 6 
#
# 1 0.029019 -0.011604 -0.026192 0.000000 0.000618 0.000000
# 2 -0.011604 0.030726 0.013757 0.000000 -0.003147 0.000000
# 3 -0.026192 0.013757 0.042253 0.000000 -0.004116 0.000000
# 4 0.000000 0.000000 0.000000 0.055267 0.000000 -0.002260
# 5 0.000618 -0.003147 -0.004116 0.000000 0.023900 0.000000
# 6 0.000000 0.000000 0.000000 -0.002260 0.000000 0.040111
#
#
# Mechanical properties :
#
#
# Convention : Reuss Voigt Hill
#
# Bulk Modulus (GPa) = 18.54567 31.29464 24.92015
# Shear Modulus (GPa) = 17.40174 25.69331 21.54753
#
# Velocity S-wave (km/s) = 3.16288 3.84322 3.51953
# Velocity P-wave (km/s) = 4.89896 6.13875 5.55356
#
# Compressibility (1/GPa) = 0.05392095
#
# Stress axis : x y z
#
# Youngs Moduli (GPa) = 34.46053 32.54554 23.66692
#
# Poissons Ratio (x) = 0.37765 0.61988
# Poissons Ratio (y) = 0.39987 -0.32558
# Poissons Ratio (z) = 0.90258 -0.44773
#
# Static dielectric constant tensor:
#      x y z
#    x 1.606830 0.000000 -0.004720 
#    y 0.000000 1.650390 0.000000 
#    z -0.004720 0.000000 1.594260 
# 
# From -- ./inp_files/224441.got.cif
#   From: 2010.05.17/outbox.cif.g08.bks.cpg/sg15_113_cif.got.tgz:224441.got - 2010.06.03 18:47:42.
