data_PCOD9262742
_publ_section_title
;
Structure prediction by ZEFSAII (Michael W. Deem and Ramdas Pophale) SiO2 
 PCOD9262742
Probable space group: C 2/C
;
_chemical_formula_sum "Si O2"
_cell_formula_units_Z 52
_cell_length_a 8.588664
_cell_length_b 11.276845
_cell_length_c 25.047884
_cell_angle_alpha 90.000000
_cell_angle_beta 63.898320
_cell_angle_gamma 90.000000
_cell_volume 2178.550851
_symmetry_space_group_name_H-M "C 2/C"
_symmetry_group_IT_number 15
_symmetry_cell_setting 'monoclinic'
loop_
_space_group_symop_operation_xyz
x,y,z
-x,y,1/2-z
-x,-y,-z
x,-y,1/2+z
1/2+x,1/2+y,z
1/2-x,1/2+y,1/2-z
1/2-x,1/2-y,-z
1/2+x,1/2-y,1/2+z
loop_
_atom_site_type_symbol
_atom_site_label
_atom_site_fract_x
_atom_site_fract_y
_atom_site_fract_z
Si Si1 0.975442 0.150562 0.007090
Si Si2 0.293022 0.517388 0.337671
Si Si3 0.737459 0.135539 0.949623
Si Si4 0.194502 0.004955 0.782491
Si Si5 0.503148 0.179740 0.136168
Si Si6 0.285443 0.519834 0.602611
Si Si7 0.000000 0.316378 0.750000
O O1 0.938831 0.289632 0.019037
O O2 0.931474 0.083943 0.069448
O O3 0.817549 0.094496 0.993700
O O4 0.151556 0.117702 0.949719
O O5 0.233221 0.450334 0.400156
O O6 0.264407 0.450752 0.284208
O O7 0.497358 0.537991 0.310468
O O8 0.186666 0.639525 0.350767
O O9 0.883987 0.235022 0.916266
O O10 0.209212 0.070160 0.837744
O O11 0.331168 0.898590 0.769751
O O12 0.508899 0.246511 0.192456
O O13 0.606620 0.053316 0.124389
#
# Coordination Sequence:
#
# PCOD9262742 Si02
#       7
#     8   8   8   8   8   8   4
#     4   9  18  32  56  77 110 150 190 221 280 334
#     4  10  19  33  55  84 112 145 185 237 286 336
#     4  10  19  34  54  83 111 145 187 237 274 338
#     4   9  17  31  57  83 106 147 187 222 281 344
#     4   9  19  33  55  79 111 143 191 227 288 336
#     4   9  16  34  57  76 106 156 183 229 280 336
#     4   8  16  32  54  82 108 146 182 226 284 344
#
# _framework density 23.869076
#
# number of rings (size 3 to 8) (size 9 to 14) (size 15 to 20)
#    0.000    2.769    1.538    0.000    0.000    1.231 
#    0.000    7.692   10.154    3.692    0.000    0.000 
#    0.000    0.000    0.000    0.000    0.000    0.000 
#
# Total GULP energy -144800.530421 kJ/mol
# GULP energy per Si atom -5569.251170 kJ/mol
# Density = 2.381475 g / cm^3
# Si number density = 23.869076 Si / 1000 Ang^3
#
#
#
# Elastic Constant Matrix: (Units=GPa)
#
#
# Indices 1 2 3 4 5 6 
#
# 1 49.9683 24.2058 10.5076 0.0000 2.7727 0.0000
# 2 24.2058 41.0242 16.2370 0.0000 7.3225 0.0000
# 3 10.5076 16.2370 123.2468 0.0000 27.6133 0.0000
# 4 0.0000 0.0000 0.0000 30.7646 0.0000 4.6418
# 5 2.7727 7.3225 27.6133 0.0000 40.8928 0.0000
# 6 0.0000 0.0000 0.0000 4.6418 0.0000 26.8227
#
#
#
# Elastic Compliance Matrix: (Units=1/GPa)
#
#
# Indices 1 2 3 4 5 6 
#
# 1 0.028098 -0.016626 -0.000525 0.000000 0.001426 0.000000
# 2 -0.016626 0.035816 -0.002494 0.000000 -0.003602 0.000000
# 3 -0.000525 -0.002494 0.009873 0.000000 -0.006184 0.000000
# 4 0.000000 0.000000 0.000000 0.033376 0.000000 -0.005776
# 5 0.001426 -0.003602 -0.006184 0.000000 0.029179 0.000000
# 6 0.000000 0.000000 0.000000 -0.005776 0.000000 0.038281
#
#
# Mechanical properties :
#
#
# Convention : Reuss Voigt Hill
#
# Bulk Modulus (GPa) = 28.98776 35.12668 32.05722
# Shear Modulus (GPa) = 22.18175 30.58193 26.38184
#
# Velocity S-wave (km/s) = 3.05176 3.58332 3.32817
# Velocity P-wave (km/s) = 4.95868 5.64523 5.31306
#
# Compressibility (1/GPa) = 0.03449732
#
# Stress axis : x y z
#
# Youngs Moduli (GPa) = 35.59008 27.92074 101.28905
#
# Poissons Ratio (x) = 0.46420 0.05315
# Poissons Ratio (y) = 0.59171 0.25262
# Poissons Ratio (z) = 0.01868 0.06964
#
# Static dielectric constant tensor:
#      x y z
#    x 1.936140 0.000000 0.072360 
#    y 0.000000 1.949370 0.000000 
#    z 0.072360 0.000000 2.038590 
# 
# From -- ./inp_files/288355.got.cif
#   From: 2010.05.17/outbox.cif.g08.bks.cpg/sg15_145_cif.got.tgz:288355.got - 2010.06.03 18:47:42.
