data_PCOD9262667
_publ_section_title
;
Structure prediction by ZEFSAII (Michael W. Deem and Ramdas Pophale) SiO2 
 PCOD9262667
Probable space group: C 2/C
;
_chemical_formula_sum "Si O2"
_cell_formula_units_Z 36
_cell_length_a 9.268383
_cell_length_b 19.981709
_cell_length_c 9.002234
_cell_angle_alpha 90.000000
_cell_angle_beta 128.687288
_cell_angle_gamma 90.000000
_cell_volume 1301.362414
_symmetry_space_group_name_H-M "C 2/C"
_symmetry_group_IT_number 15
_symmetry_cell_setting 'monoclinic'
loop_
_space_group_symop_operation_xyz
x,y,z
-x,y,1/2-z
-x,-y,-z
x,-y,1/2+z
1/2+x,1/2+y,z
1/2-x,1/2+y,1/2-z
1/2-x,1/2-y,-z
1/2+x,1/2-y,1/2+z
loop_
_atom_site_type_symbol
_atom_site_label
_atom_site_fract_x
_atom_site_fract_y
_atom_site_fract_z
Si Si1 0.500000 0.291078 0.750000
Si Si2 0.626081 0.631389 0.577497
Si Si3 0.216533 0.256821 0.804602
Si Si4 0.201844 0.408075 0.778854
Si Si5 0.773166 0.026867 0.633847
O O1 0.344309 0.334672 0.563286
O O2 0.395641 0.252066 0.811674
O O3 0.609223 0.691711 0.682487
O O4 0.424865 0.600634 0.425246
O O5 0.744887 0.575577 0.734642
O O6 0.136254 0.331265 0.724212
O O7 0.250000 0.250000 0.000000
O O8 0.180547 0.458123 0.627385
O O9 0.176392 0.440318 0.927489
O O10 0.000000 0.020294 0.750000
#
# Coordination Sequence:
#
# PCOD9262667 Si02
#       5
#     4   8   8   8   8
#     4  10  24  34  56  86 118 158 196 254 290 350
#     4  10  20  36  55  86 124 156 195 237 304 362
#     4  11  22  39  57  85 124 163 204 238 298 361
#     4  10  22  33  59  89 126 151 188 249 305 359
#     4  10  19  33  54  87 124 151 177 245 316 355
#
# _framework density 27.663318
#
# number of rings (size 3 to 8) (size 9 to 14) (size 15 to 20)
#    0.000    1.778    2.222    3.333   15.556    0.000 
#    0.000    0.000    0.000    0.000    0.000   14.000 
#    0.000    0.000    0.000    0.000    0.000    0.000 
#
# Total GULP energy -100682.155457 kJ/mol
# GULP energy per Si atom -5593.453081 kJ/mol
# Density = 2.760036 g / cm^3
# Si number density = 27.663318 Si / 1000 Ang^3
#
#
#
# Elastic Constant Matrix: (Units=GPa)
#
#
# Indices 1 2 3 4 5 6 
#
# 1 99.8657 2.3795 21.2320 0.0000 -29.4108 0.0000
# 2 2.3795 155.4241 47.0569 0.0000 -9.1017 0.0000
# 3 21.2320 47.0569 148.4522 0.0000 -28.9050 0.0000
# 4 0.0000 0.0000 0.0000 73.3379 0.0000 -7.4312
# 5 -29.4108 -9.1017 -28.9050 0.0000 46.1657 0.0000
# 6 0.0000 0.0000 0.0000 -7.4312 0.0000 3.8079
#
#
#
# Elastic Compliance Matrix: (Units=1/GPa)
#
#
# Indices 1 2 3 4 5 6 
#
# 1 0.012355 0.000379 -0.000387 0.000000 0.007704 0.000000
# 2 0.000379 0.007129 -0.002270 0.000000 0.000226 0.000000
# 3 -0.000387 -0.002270 0.008400 0.000000 0.004565 0.000000
# 4 0.000000 0.000000 0.000000 0.016996 0.000000 0.033169
# 5 0.007704 0.000226 0.004565 0.000000 0.029471 0.000000
# 6 0.000000 0.000000 0.000000 0.033169 0.000000 0.327345
#
#
# Mechanical properties :
#
#
# Convention : Reuss Voigt Hill
#
# Bulk Modulus (GPa) = 42.86703 60.56432 51.71568
# Shear Modulus (GPa) = 12.07644 46.86720 29.47182
#
# Velocity S-wave (km/s) = 2.09165 4.12053 3.26755
# Velocity P-wave (km/s) = 4.62201 6.67677 5.74205
#
# Compressibility (1/GPa) = 0.02332795
#
# Stress axis : x y z
#
# Youngs Moduli (GPa) = 80.93577 140.27828 119.04808
#
# Poissons Ratio (x) = -0.05320 0.04612
# Poissons Ratio (y) = -0.03069 0.27023
# Poissons Ratio (z) = 0.03135 0.31843
#
# Static dielectric constant tensor:
#      x y z
#    x 2.340290 0.000000 0.096220 
#    y 0.000000 2.185850 0.000000 
#    z 0.096220 0.000000 2.168460 
# 
# From -- ./inp_files/29435.got.cif
#   From: 2010.05.17/outbox.cif.g08.bks.cpg/sg15_15_cif.got.tgz:29435.got - 2010.06.03 18:47:42.
