data_PCOD9262829
_publ_section_title
;
Structure prediction by ZEFSAII (Michael W. Deem and Ramdas Pophale) SiO2 
 PCOD9262829
Probable space group: C 2/C
;
_chemical_formula_sum "Si O2"
_cell_formula_units_Z 40
_cell_length_a 12.544806
_cell_length_b 5.233723
_cell_length_c 25.931251
_cell_angle_alpha 90.000000
_cell_angle_beta 83.928177
_cell_angle_gamma 90.000000
_cell_volume 1692.992118
_symmetry_space_group_name_H-M "C 2/C"
_symmetry_group_IT_number 15
_symmetry_cell_setting 'monoclinic'
loop_
_space_group_symop_operation_xyz
x,y,z
-x,y,1/2-z
-x,-y,-z
x,-y,1/2+z
1/2+x,1/2+y,z
1/2-x,1/2+y,1/2-z
1/2-x,1/2-y,-z
1/2+x,1/2-y,1/2+z
loop_
_atom_site_type_symbol
_atom_site_label
_atom_site_fract_x
_atom_site_fract_y
_atom_site_fract_z
Si Si1 0.473376 0.789121 0.630569
Si Si2 0.960193 0.791609 0.809946
Si Si3 0.430960 0.152711 0.953371
Si Si4 0.835164 0.327879 0.039215
Si Si5 0.765141 0.131914 0.379034
O O1 0.508877 0.536820 0.657642
O O2 0.350637 0.747293 0.621982
O O3 0.491294 0.033460 0.667725
O O4 0.539964 0.886199 0.577572
O O5 0.831698 0.807686 0.824232
O O6 0.000000 0.816458 0.750000
O O7 0.546690 0.290384 0.955109
O O8 0.343534 0.277384 0.920822
O O9 0.376620 0.092811 0.010506
O O10 0.772793 0.356320 0.096511
O O11 0.750000 0.250000 0.000000
#
# Coordination Sequence:
#
# PCOD9262829 Si02
#       5
#     8   8   8   8   8
#     4  10  23  41  63  91 122 158 200 249 304 360
#     4  11  24  42  64  91 121 156 203 253 302 361
#     4   9  20  36  55  88 122 156 202 246 293 359
#     4  10  19  33  56  85 121 162 200 244 298 354
#     4  10  22  38  59  86 123 162 202 250 302 357
#
# _framework density 23.626805999999998
#
# number of rings (size 3 to 8) (size 9 to 14) (size 15 to 20)
#    0.000    2.000    0.000    2.400    0.000   10.400 
#    0.000    0.000    0.000    0.000    0.000    0.000 
#    0.000    0.000    0.000    0.000    0.000    0.000 
#
# Total GULP energy -111487.616877 kJ/mol
# GULP energy per Si atom -5574.380844 kJ/mol
# Density = 2.357303 g / cm^3
# Si number density = 23.626806 Si / 1000 Ang^3
#
#
#
# Elastic Constant Matrix: (Units=GPa)
#
#
# Indices 1 2 3 4 5 6 
#
# 1 178.7543 38.6685 21.2063 0.0000 -10.4790 0.0000
# 2 38.6685 97.8591 17.8354 0.0000 5.0849 0.0000
# 3 21.2063 17.8354 103.6574 0.0000 -36.6246 0.0000
# 4 0.0000 0.0000 0.0000 30.7359 0.0000 4.1841
# 5 -10.4790 5.0849 -36.6246 0.0000 42.0963 0.0000
# 6 0.0000 0.0000 0.0000 4.1841 0.0000 26.7623
#
#
#
# Elastic Compliance Matrix: (Units=1/GPa)
#
#
# Indices 1 2 3 4 5 6 
#
# 1 0.006265 -0.002509 -0.000277 0.000000 0.001622 0.000000
# 2 -0.002509 0.012074 -0.003321 0.000000 -0.004972 0.000000
# 3 -0.000277 -0.003321 0.015005 0.000000 0.013387 0.000000
# 4 0.000000 0.000000 0.000000 0.033243 0.000000 -0.005197
# 5 0.001622 -0.004972 0.013387 0.000000 0.036406 0.000000
# 6 0.000000 0.000000 0.000000 -0.005197 0.000000 0.038179
#
#
# Mechanical properties :
#
#
# Convention : Reuss Voigt Hill
#
# Bulk Modulus (GPa) = 47.32699 59.52125 53.42412
# Shear Modulus (GPa) = 31.16631 40.08960 35.62796
#
# Velocity S-wave (km/s) = 3.63589 4.12367 3.88744
# Velocity P-wave (km/s) = 6.14010 6.92242 6.54296
#
# Compressibility (1/GPa) = 0.02112959
#
# Stress axis : x y z
#
# Youngs Moduli (GPa) = 159.61615 82.82263 66.64369
#
# Poissons Ratio (x) = 0.20783 0.01846
# Poissons Ratio (y) = 0.40054 0.22132
# Poissons Ratio (z) = 0.04420 0.27505
#
# Static dielectric constant tensor:
#      x y z
#    x 1.951850 0.000000 -0.021150 
#    y 0.000000 2.010680 0.000000 
#    z -0.021150 0.000000 1.900800 
# 
# From -- ./inp_files/290554.got.cif
#   From: 2010.05.17/outbox.cif.g08.bks.cpg/sg15_146_cif.got.tgz:290554.got - 2010.06.03 18:47:42.
