data_PCOD9262664
_publ_section_title
;
Structure prediction by ZEFSAII (Michael W. Deem and Ramdas Pophale) SiO2 
 PCOD9262664
Probable space group: C 2/C
;
_chemical_formula_sum "Si O2"
_cell_formula_units_Z 52
_cell_length_a 20.046349
_cell_length_b 17.946917
_cell_length_c 11.817975
_cell_angle_alpha 90.000000
_cell_angle_beta 35.447669
_cell_angle_gamma 90.000000
_cell_volume 2465.844055
_symmetry_space_group_name_H-M "C 2/C"
_symmetry_group_IT_number 15
_symmetry_cell_setting 'monoclinic'
loop_
_space_group_symop_operation_xyz
x,y,z
-x,y,1/2-z
-x,-y,-z
x,-y,1/2+z
1/2+x,1/2+y,z
1/2-x,1/2+y,1/2-z
1/2-x,1/2-y,-z
1/2+x,1/2-y,1/2+z
loop_
_atom_site_type_symbol
_atom_site_label
_atom_site_fract_x
_atom_site_fract_y
_atom_site_fract_z
Si Si1 0.280679 0.454655 0.592327
Si Si2 0.400825 0.581955 0.724182
Si Si3 0.500000 0.722695 0.250000
Si Si4 0.687327 0.625716 0.875581
Si Si5 0.647619 0.411415 0.779864
Si Si6 0.555251 0.999483 0.795380
Si Si7 0.832274 0.658903 0.869805
O O1 0.374335 0.409562 0.391856
O O2 0.315777 0.540579 0.571932
O O3 0.262431 0.421472 0.741399
O O4 0.171124 0.454689 0.662701
O O5 0.311784 0.619462 0.760136
O O6 0.381597 0.492273 0.733776
O O7 0.526307 0.606273 0.507349
O O8 0.427290 0.669289 0.431703
O O9 0.591762 0.775254 0.186394
O O10 0.792823 0.664845 0.793812
O O11 0.712916 0.358196 0.602342
O O12 0.500000 0.975227 0.750000
O O13 0.593627 0.084235 0.721663
O O14 0.500000 0.000000 0.000000
#
# Coordination Sequence:
#
# PCOD9262664 Si02
#       7
#     8   8   4   8   8   8   8
#     4  10  21  34  59  88 124 148 196 255 316 362
#     4  10  19  33  59  86 123 148 190 253 318 363
#     4  12  24  38  58  82 124 172 202 246 298 370
#     4  10  22  35  56  87 120 154 200 244 304 366
#     4  10  19  33  54  87 115 156 187 249 310 363
#     4  11  22  36  59  90 126 163 205 254 320 376
#     4  11  22  39  58  83 124 157 206 246 302 365
#
# _framework density 21.088113
#
# number of rings (size 3 to 8) (size 9 to 14) (size 15 to 20)
#    0.000    1.538    3.846    2.769    8.615    0.000 
#    0.000    0.000    0.000    0.923    0.000    2.154 
#    0.000    0.000    0.000    0.000    0.000    0.000 
#
# Total GULP energy -144910.568186 kJ/mol
# GULP energy per Si atom -5573.483392 kJ/mol
# Density = 2.104012 g / cm^3
# Si number density = 21.088113 Si / 1000 Ang^3
#
#
#
# Elastic Constant Matrix: (Units=GPa)
#
#
# Indices 1 2 3 4 5 6 
#
# 1 134.3896 32.1441 34.0994 0.0000 8.7161 0.0000
# 2 32.1441 27.4482 12.3030 0.0000 -1.6259 0.0000
# 3 34.0994 12.3030 83.0026 0.0000 3.2465 0.0000
# 4 0.0000 0.0000 0.0000 6.7351 0.0000 -10.4443
# 5 8.7161 -1.6259 3.2465 0.0000 33.1046 0.0000
# 6 0.0000 0.0000 0.0000 -10.4443 0.0000 23.3891
#
#
#
# Elastic Compliance Matrix: (Units=1/GPa)
#
#
# Indices 1 2 3 4 5 6 
#
# 1 0.011245 -0.012159 -0.002689 0.000000 -0.003294 0.000000
# 2 -0.012159 0.052378 -0.003006 0.000000 0.006069 0.000000
# 3 -0.002689 -0.003006 0.013628 0.000000 -0.000776 0.000000
# 4 0.000000 0.000000 0.000000 0.482802 0.000000 0.215592
# 5 -0.003294 0.006069 -0.000776 0.000000 0.031449 0.000000
# 6 0.000000 0.000000 0.000000 0.215592 0.000000 0.139026
#
#
# Mechanical properties :
#
#
# Convention : Reuss Voigt Hill
#
# Bulk Modulus (GPa) = 24.07054 44.65926 34.36490
# Shear Modulus (GPa) = 6.40956 23.73201 15.07079
#
# Velocity S-wave (km/s) = 1.74528 3.35830 2.67621
# Velocity P-wave (km/s) = 3.93706 6.02171 5.08731
#
# Compressibility (1/GPa) = 0.04154456
#
# Stress axis : x y z
#
# Youngs Moduli (GPa) = 88.92688 19.09190 73.37678
#
# Poissons Ratio (x) = 0.23214 0.19729
# Poissons Ratio (y) = 1.08127 0.22056
# Poissons Ratio (z) = 0.23910 0.05739
#
# Static dielectric constant tensor:
#      x y z
#    x 1.849960 0.000000 -0.047420 
#    y 0.000000 1.731050 0.000000 
#    z -0.047420 0.000000 1.883540 
# 
# From -- ./inp_files/113616.got.cif
#   From: 2010.05.17/outbox.cif.g08.bks.cpg/sg15_57_cif.got.tgz:113616.got - 2010.06.03 18:47:42.
