data_PCOD9262887
_publ_section_title
;
Structure prediction by ZEFSAII (Michael W. Deem and Ramdas Pophale) SiO2 
 PCOD9262887
Probable space group: C 2/C
;
_chemical_formula_sum "Si O2"
_cell_formula_units_Z 48
_cell_length_a 9.508424
_cell_length_b 16.740793
_cell_length_c 19.915722
_cell_angle_alpha 90.000000
_cell_angle_beta 43.198406
_cell_angle_gamma 90.000000
_cell_volume 2170.056760
_symmetry_space_group_name_H-M "C 2/C"
_symmetry_group_IT_number 15
_symmetry_cell_setting 'monoclinic'
loop_
_space_group_symop_operation_xyz
x,y,z
-x,y,1/2-z
-x,-y,-z
x,-y,1/2+z
1/2+x,1/2+y,z
1/2-x,1/2+y,1/2-z
1/2-x,1/2-y,-z
1/2+x,1/2-y,1/2+z
loop_
_atom_site_type_symbol
_atom_site_label
_atom_site_fract_x
_atom_site_fract_y
_atom_site_fract_z
Si Si1 0.519210 0.865361 0.597922
Si Si2 0.593802 0.663043 0.445672
Si Si3 0.621016 0.162989 0.904603
Si Si4 0.271292 0.502295 0.340993
Si Si5 0.721711 0.753887 0.153430
Si Si6 0.305058 0.388943 0.943851
O O1 0.714929 0.864658 0.577305
O O2 0.595720 0.851027 0.494255
O O3 0.391360 0.947099 0.644517
O O4 0.353851 0.793320 0.664602
O O5 0.665548 0.744374 0.383222
O O6 0.395310 0.689491 0.559725
O O7 0.498886 0.603659 0.424031
O O8 0.761807 0.091416 0.831479
O O9 0.399285 0.144347 0.949132
O O10 0.500000 0.532174 0.250000
O O11 0.238567 0.530163 0.429577
O O12 0.500000 0.789275 0.250000
O O13 0.663683 0.681465 0.121993
#
# Coordination Sequence:
#
# PCOD9262887 Si02
#       6
#     8   8   8   8   8   8
#     4   9  17  33  55  77 104 143 179 209 262 334
#     4  10  19  33  57  84 107 135 176 224 269 315
#     4   9  17  34  55  77 100 136 181 216 253 319
#     4  10  20  37  56  75 104 147 188 222 258 311
#     4   9  16  30  50  76 107 140 175 216 260 311
#     4   9  17  33  55  77 104 143 179 209 262 334
#
# _framework density 22.119236000000001
#
# number of rings (size 3 to 8) (size 9 to 14) (size 15 to 20)
#    0.000    3.333    0.000    8.000    0.000    0.000 
#    0.000   15.000    0.000    0.000    0.000    0.000 
#    0.000    0.000    0.000    0.000    0.000    0.000 
#
# Total GULP energy -133709.138729 kJ/mol
# GULP energy per Si atom -5571.214114 kJ/mol
# Density = 2.206889 g / cm^3
# Si number density = 22.119236 Si / 1000 Ang^3
#
#
#
# Elastic Constant Matrix: (Units=GPa)
#
#
# Indices 1 2 3 4 5 6 
#
# 1 205.9855 26.9388 27.9190 0.0006 -40.0039 -0.0002
# 2 26.9388 54.3131 14.7634 -0.0008 -14.7281 -0.0006
# 3 27.9190 14.7634 50.1553 -0.0001 -23.0264 -0.0017
# 4 0.0006 -0.0008 -0.0001 18.0564 -0.0015 -11.5891
# 5 -40.0039 -14.7281 -23.0264 -0.0015 25.1162 0.0008
# 6 -0.0002 -0.0006 -0.0017 -11.5891 0.0008 11.3720
#
#
#
# Elastic Compliance Matrix: (Units=1/GPa)
#
#
# Indices 1 2 3 4 5 6 
#
# 1 0.007179 -0.000607 0.002191 0.000002 0.013086 0.000001
# 2 -0.000607 0.021971 -0.001137 0.000006 0.010874 0.000006
# 3 0.002191 -0.001137 0.035139 0.000014 0.035038 0.000017
# 4 0.000002 0.000006 0.000014 0.160101 0.000024 0.163158
# 5 0.013086 0.010874 0.035038 0.000024 0.099157 0.000023
# 6 0.000001 0.000006 0.000017 0.163158 0.000023 0.254209
#
#
# Mechanical properties :
#
#
# Convention : Reuss Voigt Hill
#
# Bulk Modulus (GPa) = 15.34176 49.96625 32.65400
# Shear Modulus (GPa) = 8.35296 26.96442 17.65869
#
# Velocity S-wave (km/s) = 1.94539 3.49527 2.82856
# Velocity P-wave (km/s) = 3.46367 6.23921 5.04603
#
# Compressibility (1/GPa) = 0.06518158
#
# Stress axis : x y z
#
# Youngs Moduli (GPa) = 139.30255 45.51504 28.45806
#
# Poissons Ratio (x) = 0.02765 -0.06234
# Poissons Ratio (y) = 0.08462 0.03235
# Poissons Ratio (z) = -0.30516 0.05174
#
# Static dielectric constant tensor:
#      x y z
#    x 1.826710 0.000000 0.030030 
#    y 0.000000 1.847190 0.000000 
#    z 0.030030 0.000000 1.986800 
# 
# From -- ./inp_files/233397.got.cif
#   From: 2010.05.17/outbox.cif.g08.bks.cpg/sg15_117_cif.got.tgz:233397.got - 2010.06.03 18:47:42.
