data_PCOD9262217
_publ_section_title
;
Structure prediction by ZEFSAII (Michael W. Deem and Ramdas Pophale) SiO2 
 PCOD9262217
Probable space group: C 2/C
;
_chemical_formula_sum "Si O2"
_cell_formula_units_Z 56
_cell_length_a 9.823999
_cell_length_b 27.768180
_cell_length_c 9.650497
_cell_angle_alpha 90.000000
_cell_angle_beta 70.575317
_cell_angle_gamma 90.000000
_cell_volume 2482.754049
_symmetry_space_group_name_H-M "C 2/C"
_symmetry_group_IT_number 15
_symmetry_cell_setting 'monoclinic'
loop_
_space_group_symop_operation_xyz
x,y,z
-x,y,1/2-z
-x,-y,-z
x,-y,1/2+z
1/2+x,1/2+y,z
1/2-x,1/2+y,1/2-z
1/2-x,1/2-y,-z
1/2+x,1/2-y,1/2+z
loop_
_atom_site_type_symbol
_atom_site_label
_atom_site_fract_x
_atom_site_fract_y
_atom_site_fract_z
Si Si1 0.629052 0.463958 0.417334
Si Si2 0.703962 0.016209 0.903164
Si Si3 0.602960 0.698239 0.347896
Si Si4 0.392131 0.187142 0.657712
Si Si5 0.863066 0.848668 0.089970
Si Si6 0.658648 0.160092 0.409235
Si Si7 0.026801 0.570016 0.391371
O O1 0.500000 0.500000 0.500000
O O2 0.751237 0.485879 0.477512
O O3 0.668951 0.472531 0.244162
O O4 0.611278 0.406149 0.438964
O O5 0.591773 0.983088 0.857607
O O6 0.620289 0.064168 0.975527
O O7 0.500000 0.686264 0.250000
O O8 0.624474 0.755386 0.341042
O O9 0.516024 0.677797 0.509950
O O10 0.757390 0.675689 0.256477
O O11 0.500000 0.173782 0.750000
O O12 0.237080 0.162518 0.741588
O O13 0.493477 0.175553 0.491063
O O14 0.759474 0.825851 0.004654
O O15 0.646001 0.102804 0.420098
O O16 0.000000 0.590630 0.250000
#
# Coordination Sequence:
#
# PCOD9262217 Si02
#       7
#     8   8   8   8   8   8   8
#     4  12  25  40  61  87 128 167 206 246 305 369
#     4  11  24  41  59  86 117 161 209 251 301 352
#     4   9  18  30  53  83 118 149 187 243 315 371
#     4   9  17  32  52  84 116 149 189 246 310 368
#     4  10  20  33  54  83 119 155 194 246 306 365
#     4  10  19  32  56  80 113 150 199 247 303 359
#     4  11  22  38  61  83 114 154 207 263 296 350
#
# _framework density 22.555596000000001
#
# number of rings (size 3 to 8) (size 9 to 14) (size 15 to 20)
#    0.000    1.714    2.857    2.143    2.000    4.571 
#    0.000    0.000    0.000    0.857    0.000    4.000 
#    0.000    0.000    0.000    0.000    0.000    0.000 
#
# Total GULP energy -156024.210576 kJ/mol
# GULP energy per Si atom -5572.293235 kJ/mol
# Density = 2.250426 g / cm^3
# Si number density = 22.555596 Si / 1000 Ang^3
#
#
#
# Elastic Constant Matrix: (Units=GPa)
#
#
# Indices 1 2 3 4 5 6 
#
# 1 40.1759 15.0924 34.6151 0.0000 -14.4311 0.0000
# 2 15.0924 58.3059 47.3093 0.0000 -26.3395 0.0000
# 3 34.6151 47.3093 165.9492 0.0000 -58.5197 0.0000
# 4 0.0000 0.0000 0.0000 26.7618 0.0000 -14.7962
# 5 -14.4311 -26.3395 -58.5197 0.0000 39.0904 0.0000
# 6 0.0000 0.0000 0.0000 -14.7962 0.0000 20.8361
#
#
#
# Elastic Compliance Matrix: (Units=1/GPa)
#
#
# Indices 1 2 3 4 5 6 
#
# 1 0.030986 -0.003164 -0.004828 0.000000 0.002080 0.000000
# 2 -0.003164 0.025470 -0.002036 0.000000 0.012946 0.000000
# 3 -0.004828 -0.002036 0.013771 0.000000 0.017461 0.000000
# 4 0.000000 0.000000 0.000000 0.061521 0.000000 0.043687
# 5 0.002080 0.012946 0.017461 0.000000 0.061213 0.000000
# 6 0.000000 0.000000 0.000000 0.043687 0.000000 0.079017
#
#
# Mechanical properties :
#
#
# Convention : Reuss Voigt Hill
#
# Bulk Modulus (GPa) = 19.93150 50.94053 35.43601
# Shear Modulus (GPa) = 16.19399 28.49862 22.34630
#
# Velocity S-wave (km/s) = 2.68238 3.55841 3.15099
# Velocity P-wave (km/s) = 4.29527 6.28621 5.38358
#
# Compressibility (1/GPa) = 0.05017183
#
# Stress axis : x y z
#
# Youngs Moduli (GPa) = 32.27289 39.26151 72.61672
#
# Poissons Ratio (x) = 0.12421 0.35059
# Poissons Ratio (y) = 0.10210 0.14784
# Poissons Ratio (z) = 0.15581 0.07993
#
# Static dielectric constant tensor:
#      x y z
#    x 1.940310 0.000000 -0.016060 
#    y 0.000000 1.840780 0.000000 
#    z -0.016060 0.000000 1.894860 
# 
# From -- ./inp_files/92006.got.cif
#   From: 2010.05.17/outbox.cif.g08.bks.cpg/sg15_47_cif.got.tgz:92006.got - 2010.06.03 18:47:42.
