data_PCOD9262486
_publ_section_title
;
Structure prediction by ZEFSAII (Michael W. Deem and Ramdas Pophale) SiO2 
 PCOD9262486
Probable space group: C 2/C
;
_chemical_formula_sum "Si O2"
_cell_formula_units_Z 56
_cell_length_a 8.560544
_cell_length_b 14.827282
_cell_length_c 25.613190
_cell_angle_alpha 90.000000
_cell_angle_beta 70.474374
_cell_angle_gamma 90.000000
_cell_volume 3064.109636
_symmetry_space_group_name_H-M "C 2/C"
_symmetry_group_IT_number 15
_symmetry_cell_setting 'monoclinic'
loop_
_space_group_symop_operation_xyz
x,y,z
-x,y,1/2-z
-x,-y,-z
x,-y,1/2+z
1/2+x,1/2+y,z
1/2-x,1/2+y,1/2-z
1/2-x,1/2-y,-z
1/2+x,1/2-y,1/2+z
loop_
_atom_site_type_symbol
_atom_site_label
_atom_site_fract_x
_atom_site_fract_y
_atom_site_fract_z
Si Si1 0.782071 0.938867 0.107302
Si Si2 0.789709 0.774748 0.607301
Si Si3 0.856312 0.585879 0.107302
Si Si4 0.852504 0.916667 0.397497
Si Si5 0.183111 0.249999 0.066889
Si Si6 0.434481 0.916667 0.815521
Si Si7 0.779812 0.416668 0.970187
O O1 0.725953 0.844654 0.089269
O O2 0.950785 0.927360 0.120372
O O3 0.642949 0.987665 0.157898
O O4 0.808119 0.008076 0.056003
O O5 0.703009 0.678102 0.620370
O O6 0.710179 0.843409 0.657897
O O7 0.749821 0.821979 0.556002
O O8 0.986137 0.764717 0.589269
O O9 0.735090 0.500740 0.120372
O O10 0.770103 0.670060 0.089269
O O11 0.923174 0.605743 0.157898
O O12 0.024053 0.563899 0.056003
O O13 0.785514 0.916669 0.464486
O O14 0.250000 0.250000 0.000000
O O15 0.500000 0.916667 0.750000
#
# Coordination Sequence:
#
# PCOD9262486 Si02
#       7
#     8   8   8   8   8   8   8
#     4  10  21  35  56  85 115 154 196 230 280 348
#     4  10  21  35  56  85 115 154 196 230 280 348
#     4  10  21  35  56  85 115 154 196 230 280 348
#     4  12  19  34  55  86 121 148 181 228 280 350
#     4  12  21  36  58  92 130 159 183 231 292 362
#     4  10  23  46  63  78 108 148 200 262 298 326
#     4  10  19  33  52  83 121 159 184 223 277 338
#
# _framework density 18.276109999999999
#
# number of rings (size 3 to 8) (size 9 to 14) (size 15 to 20)
#    0.000    1.714    0.000    9.000    0.000    0.000 
#    0.000    8.571    0.000    0.000    0.000    0.000 
#    0.000    0.000    0.000    0.000    0.000    0.000 
#
# Total GULP energy -156452.452865 kJ/mol
# GULP energy per Si atom -5587.587602 kJ/mol
# Density = 1.823451 g / cm^3
# Si number density = 18.276110 Si / 1000 Ang^3
#
#
#
# Elastic Constant Matrix: (Units=GPa)
#
#
# Indices 1 2 3 4 5 6 
#
# 1 137.0626 66.5941 29.3214 0.0000 -3.1796 0.0000
# 2 66.5941 137.1146 29.2644 0.0000 2.6284 0.0000
# 3 29.3214 29.2644 94.3697 0.0000 0.1841 0.0000
# 4 0.0000 0.0000 0.0000 12.7434 0.0000 2.6962
# 5 -3.1796 2.6284 0.1841 0.0000 12.7967 0.0000
# 6 0.0000 0.0000 0.0000 2.6962 0.0000 35.2998
#
#
#
# Elastic Compliance Matrix: (Units=1/GPa)
#
#
# Indices 1 2 3 4 5 6 
#
# 1 0.009939 -0.004532 -0.001689 0.000000 0.003425 0.000000
# 2 -0.004532 0.009908 -0.001658 0.000000 -0.003137 0.000000
# 3 -0.001689 -0.001658 0.011636 0.000000 -0.000247 0.000000
# 4 0.000000 0.000000 0.000000 0.079761 0.000000 -0.006092
# 5 0.003425 -0.003137 -0.000247 0.000000 0.079644 0.000000
# 6 0.000000 0.000000 0.000000 -0.006092 0.000000 0.028794
#
#
# Mechanical properties :
#
#
# Convention : Reuss Voigt Hill
#
# Bulk Modulus (GPa) = 63.59769 68.76738 66.18254
# Shear Modulus (GPa) = 20.77414 28.39245 24.58329
#
# Velocity S-wave (km/s) = 3.37513 3.94576 3.67155
# Velocity P-wave (km/s) = 7.07548 7.64639 7.36647
#
# Compressibility (1/GPa) = 0.01572384
#
# Stress axis : x y z
#
# Youngs Moduli (GPa) = 100.61555 100.92377 85.93847
#
# Poissons Ratio (x) = 0.45741 0.14518
# Poissons Ratio (y) = 0.45601 0.14251
# Poissons Ratio (z) = 0.16997 0.16737
#
# Static dielectric constant tensor:
#      x y z
#    x 1.638690 0.000000 -0.000200 
#    y 0.000000 1.638690 0.000000 
#    z -0.000200 0.000000 1.594670 
# 
# From -- ./inp_files/288378.got.cif
#   From: 2010.05.17/outbox.cif.g08.bks.cpg/sg15_145_cif.got.tgz:288378.got - 2010.06.03 18:47:42.
