data_PCOD9262184
_publ_section_title
;
Structure prediction by ZEFSAII (Michael W. Deem and Ramdas Pophale) SiO2 
 PCOD9262184
Probable space group: C 2/C
;
_chemical_formula_sum "Si O2"
_cell_formula_units_Z 64
_cell_length_a 22.655458
_cell_length_b 11.005132
_cell_length_c 15.374944
_cell_angle_alpha 90.000000
_cell_angle_beta 113.237857
_cell_angle_gamma 90.000000
_cell_volume 3522.394624
_symmetry_space_group_name_H-M "C 2/C"
_symmetry_group_IT_number 15
_symmetry_cell_setting 'monoclinic'
loop_
_space_group_symop_operation_xyz
x,y,z
-x,y,1/2-z
-x,-y,-z
x,-y,1/2+z
1/2+x,1/2+y,z
1/2-x,1/2+y,1/2-z
1/2-x,1/2-y,-z
1/2+x,1/2-y,1/2+z
loop_
_atom_site_type_symbol
_atom_site_label
_atom_site_fract_x
_atom_site_fract_y
_atom_site_fract_z
Si Si1 0.670520 0.874091 0.403671
Si Si2 0.729841 0.780580 0.617844
Si Si3 0.176106 0.007140 0.339101
Si Si4 0.636849 0.292933 0.207395
Si Si5 0.931728 0.832325 0.666479
Si Si6 0.684163 0.624398 0.022405
Si Si7 0.428772 0.449650 0.473930
Si Si8 0.668406 0.155011 0.385139
O O1 0.694733 0.819931 0.509184
O O2 0.730861 0.844040 0.375138
O O3 0.610988 0.787981 0.344755
O O4 0.654063 0.015257 0.398184
O O5 0.782123 0.881817 0.667030
O O6 0.678936 0.777769 0.663151
O O7 0.103854 0.055178 0.306935
O O8 0.179987 0.896488 0.277008
O O9 0.196980 0.964177 0.447070
O O10 0.586692 0.365564 0.118558
O O11 0.623266 0.206282 0.281553
O O12 0.930832 0.870340 0.564178
O O13 0.000000 0.816381 0.750000
O O14 0.662467 0.751159 0.963023
O O15 0.628207 0.553019 0.044379
O O16 0.755635 0.652720 0.100671
O O17 0.500000 0.500000 0.500000
#
# Coordination Sequence:
#
# PCOD9262184 Si02
#       8
#     8   8   8   8   8   8   8   8
#     4  10  19  36  57  78 112 155 193 227 283 360
#     4  10  19  32  55  82 114 151 185 234 291 342
#     4   9  19  34  54  83 113 147 191 228 285 343
#     4  11  22  33  55  90 117 144 187 248 290 330
#     4  10  20  38  58  76 106 157 199 230 275 344
#     4   9  19  37  59  83 115 154 186 232 290 353
#     4  11  22  38  61  84 117 150 196 251 286 333
#     4  10  20  36  59  89 119 146 191 233 296 357
#
# _framework density 18.169457000000001
#
# number of rings (size 3 to 8) (size 9 to 14) (size 15 to 20)
#    0.000    2.000    2.500    1.500    3.500    0.000 
#    0.000    1.250    0.000    1.500    0.000    0.000 
#    0.000    0.000    0.000    0.000    0.000    0.000 
#
# Total GULP energy -178223.862906 kJ/mol
# GULP energy per Si atom -5569.495716 kJ/mol
# Density = 1.812810 g / cm^3
# Si number density = 18.169457 Si / 1000 Ang^3
#
#
#
# Elastic Constant Matrix: (Units=GPa)
#
#
# Indices 1 2 3 4 5 6 
#
# 1 40.9991 16.4851 14.9138 0.0000 15.1317 0.0000
# 2 16.4851 105.2129 19.5657 0.0000 6.8012 0.0000
# 3 14.9138 19.5657 64.2375 0.0000 15.8221 0.0000
# 4 0.0000 0.0000 0.0000 25.0097 0.0000 2.8190
# 5 15.1317 6.8012 15.8221 0.0000 20.5159 0.0000
# 6 0.0000 0.0000 0.0000 2.8190 0.0000 12.8075
#
#
#
# Elastic Compliance Matrix: (Units=1/GPa)
#
#
# Indices 1 2 3 4 5 6 
#
# 1 0.035079 -0.003747 -0.001156 0.000000 -0.023740 0.000000
# 2 -0.003747 0.010499 -0.002656 0.000000 0.001331 0.000000
# 3 -0.001156 -0.002656 0.020021 0.000000 -0.013707 0.000000
# 4 0.000000 0.000000 0.000000 0.041002 0.000000 -0.009025
# 5 -0.023740 0.001331 -0.013707 0.000000 0.076382 0.000000
# 6 0.000000 0.000000 0.000000 -0.009025 0.000000 0.080065
#
#
# Mechanical properties :
#
#
# Convention : Reuss Voigt Hill
#
# Bulk Modulus (GPa) = 19.80889 34.70875 27.25882
# Shear Modulus (GPa) = 16.94952 22.29895 19.62424
#
# Velocity S-wave (km/s) = 3.05759 3.50705 3.29000
# Velocity P-wave (km/s) = 4.83643 5.96184 5.42838
#
# Compressibility (1/GPa) = 0.05048240
#
# Stress axis : x y z
#
# Youngs Moduli (GPa) = 28.50670 95.24292 49.94828
#
# Poissons Ratio (x) = 0.35686 0.05773
# Poissons Ratio (y) = 0.10681 0.13266
# Poissons Ratio (z) = 0.03295 0.25296
#
# Static dielectric constant tensor:
#      x y z
#    x 1.637130 0.000000 -0.001400 
#    y 0.000000 1.652580 0.000000 
#    z -0.001400 0.000000 1.661670 
# 
# From -- ./inp_files/167658.got.cif
#   From: 2010.05.17/outbox.cif.g08.bks.cpg/sg15_84_cif.got.tgz:167658.got - 2010.06.03 18:47:42.
