data_PCOD9262203
_publ_section_title
;
Structure prediction by ZEFSAII (Michael W. Deem and Ramdas Pophale) SiO2 
 PCOD9262203
Probable space group: C 2/C
;
_chemical_formula_sum "Si O2"
_cell_formula_units_Z 52
_cell_length_a 26.995838
_cell_length_b 8.491708
_cell_length_c 16.501730
_cell_angle_alpha 90.000000
_cell_angle_beta 133.010943
_cell_angle_gamma 90.000000
_cell_volume 2766.122710
_symmetry_space_group_name_H-M "C 2/C"
_symmetry_group_IT_number 15
_symmetry_cell_setting 'monoclinic'
loop_
_space_group_symop_operation_xyz
x,y,z
-x,y,1/2-z
-x,-y,-z
x,-y,1/2+z
1/2+x,1/2+y,z
1/2-x,1/2+y,1/2-z
1/2-x,1/2-y,-z
1/2+x,1/2-y,1/2+z
loop_
_atom_site_type_symbol
_atom_site_label
_atom_site_fract_x
_atom_site_fract_y
_atom_site_fract_z
Si Si1 0.099756 0.319712 0.265553
Si Si2 0.864424 0.074013 0.071486
Si Si3 0.199946 0.700602 0.125147
Si Si4 0.000000 0.482338 0.750000
Si Si5 0.832038 0.388226 0.324856
Si Si6 0.778334 0.498390 0.007110
Si Si7 0.377940 0.771311 0.549309
O O1 0.099319 0.152330 0.310693
O O2 0.032217 0.410148 0.215911
O O3 0.118905 0.337810 0.193623
O O4 0.163213 0.403813 0.380920
O O5 0.788874 0.025758 0.016561
O O6 0.895732 0.909830 0.080248
O O7 0.855276 0.196373 0.986502
O O8 0.173277 0.576398 0.162574
O O9 0.257536 0.817292 0.222665
O O10 0.231753 0.587982 0.090692
O O11 0.940052 0.377669 0.647403
O O12 0.859475 0.309429 0.436822
O O13 0.812089 0.667241 0.026479
#
# Coordination Sequence:
#
# PCOD9262203 Si02
#       7
#     8   8   8   4   8   8   8
#     4  10  20  37  65  78 118 157 200 228 288 337
#     4  11  18  37  61  88 114 155 188 239 290 366
#     4  10  19  32  55  87 132 138 184 225 307 357
#     4  10  24  46  54  80 108 166 210 240 268 346
#     4  11  20  35  56  93 117 157 175 250 289 347
#     4   9  17  35  56  87 115 154 180 233 288 362
#     4  10  23  35  58  83 121 148 200 240 290 333
#
# _framework density 18.798877000000001
#
# number of rings (size 3 to 8) (size 9 to 14) (size 15 to 20)
#    0.000    1.846    3.077    3.231    0.000    1.231 
#    2.769    0.000    0.000    2.769    0.000    0.000 
#    0.000    0.000    0.000    0.000    0.000    0.000 
#
# Total GULP energy -144980.172137 kJ/mol
# GULP energy per Si atom -5576.160467 kJ/mol
# Density = 1.875609 g / cm^3
# Si number density = 18.798877 Si / 1000 Ang^3
#
#
#
# Elastic Constant Matrix: (Units=GPa)
#
#
# Indices 1 2 3 4 5 6 
#
# 1 68.9159 32.1268 26.1308 0.0000 -5.2420 0.0000
# 2 32.1268 122.2010 18.5727 0.0000 -8.6601 0.0000
# 3 26.1308 18.5727 52.7764 0.0000 -14.7003 0.0000
# 4 0.0000 0.0000 0.0000 19.2247 0.0000 1.4102
# 5 -5.2420 -8.6601 -14.7003 0.0000 22.7025 0.0000
# 6 0.0000 0.0000 0.0000 1.4102 0.0000 13.3351
#
#
#
# Elastic Compliance Matrix: (Units=1/GPa)
#
#
# Indices 1 2 3 4 5 6 
#
# 1 0.019596 -0.003972 -0.009109 0.000000 -0.002889 0.000000
# 2 -0.003972 0.009500 -0.000759 0.000000 0.002215 0.000000
# 3 -0.009109 -0.000759 0.028133 0.000000 0.015823 0.000000
# 4 0.000000 0.000000 0.000000 0.052423 0.000000 -0.005544
# 5 -0.002889 0.002215 0.015823 0.000000 0.054472 0.000000
# 6 0.000000 0.000000 0.000000 -0.005544 0.000000 0.075577
#
#
# Mechanical properties :
#
#
# Convention : Reuss Voigt Hill
#
# Bulk Modulus (GPa) = 33.84441 44.17264 39.00852
# Shear Modulus (GPa) = 18.03544 22.18999 20.11272
#
# Velocity S-wave (km/s) = 3.10076 3.43941 3.27446
# Velocity P-wave (km/s) = 5.55537 6.27066 5.92382
#
# Compressibility (1/GPa) = 0.02954698
#
# Stress axis : x y z
#
# Youngs Moduli (GPa) = 51.02965 105.26400 35.54564
#
# Poissons Ratio (x) = 0.41813 0.32380
# Poissons Ratio (y) = 0.20270 0.02700
# Poissons Ratio (z) = 0.46485 0.07995
#
# Static dielectric constant tensor:
#      x y z
#    x 1.669400 0.000000 -0.012480 
#    y 0.000000 1.708130 0.000000 
#    z -0.012480 0.000000 1.637880 
# 
# From -- ./inp_files/176279.got.cif
#   From: 2010.05.17/outbox.cif.g08.bks.cpg/sg15_89_cif.got.tgz:176279.got - 2010.06.03 18:47:42.
