data_PCOD9262266
_publ_section_title
;
Structure prediction by ZEFSAII (Michael W. Deem and Ramdas Pophale) SiO2 
 PCOD9262266
Probable space group: C 2/C
;
_chemical_formula_sum "Si O2"
_cell_formula_units_Z 56
_cell_length_a 24.565905
_cell_length_b 15.378091
_cell_length_c 15.401892
_cell_angle_alpha 90.000000
_cell_angle_beta 25.649812
_cell_angle_gamma 90.000000
_cell_volume 2518.641638
_symmetry_space_group_name_H-M "C 2/C"
_symmetry_group_IT_number 15
_symmetry_cell_setting 'monoclinic'
loop_
_space_group_symop_operation_xyz
x,y,z
-x,y,1/2-z
-x,-y,-z
x,-y,1/2+z
1/2+x,1/2+y,z
1/2-x,1/2+y,1/2-z
1/2-x,1/2-y,-z
1/2+x,1/2-y,1/2+z
loop_
_atom_site_type_symbol
_atom_site_label
_atom_site_fract_x
_atom_site_fract_y
_atom_site_fract_z
Si Si1 0.816934 0.542551 0.191675
Si Si2 0.147137 0.237217 0.222459
Si Si3 0.611141 0.168768 0.258160
Si Si4 0.684593 0.552009 0.196809
Si Si5 0.310677 0.640573 0.820450
Si Si6 0.945745 0.394836 0.235885
Si Si7 0.317619 0.145759 0.680672
O O1 0.824389 0.614962 0.255443
O O2 0.727905 0.558119 0.235739
O O3 0.787757 0.446395 0.270014
O O4 0.956527 0.539748 0.948155
O O5 0.104707 0.138061 0.289973
O O6 0.051946 0.312380 0.331632
O O7 0.209693 0.270881 0.221077
O O8 0.250000 0.250000 0.000000
O O9 0.610835 0.272748 0.274915
O O10 0.466599 0.146204 0.450780
O O11 0.694793 0.147733 0.054056
O O12 0.631286 0.456285 0.254725
O O13 0.810993 0.565061 0.955659
O O14 0.255975 0.646660 0.802663
O O15 0.000000 0.364911 0.250000
#
# Coordination Sequence:
#
# PCOD9262266 Si02
#       7
#     8   8   8   8   8   8   8
#     4  10  19  32  57  83 104 135 178 237 271 318
#     4  10  20  32  54  81 109 144 173 222 271 327
#     4  11  21  35  58  82 110 143 182 229 270 321
#     4   9  19  35  52  77 113 142 176 218 274 322
#     4  10  23  37  54  81 111 147 182 224 267 326
#     4   9  17  31  52  81 108 135 178 228 275 312
#     4  11  21  36  58  83 110 141 182 227 280 315
#
# _framework density 22.234207999999999
#
# number of rings (size 3 to 8) (size 9 to 14) (size 15 to 20)
#    0.000    2.000    1.429    2.571    4.000    2.286 
#    0.000    0.714    0.000    3.429    0.000    0.000 
#    0.000    0.000    0.000    0.000    0.000    0.000 
#
# Total GULP energy -156333.436521 kJ/mol
# GULP energy per Si atom -5583.337019 kJ/mol
# Density = 2.218360 g / cm^3
# Si number density = 22.234208 Si / 1000 Ang^3
#
#
#
# Elastic Constant Matrix: (Units=GPa)
#
#
# Indices 1 2 3 4 5 6 
#
# 1 39.6191 24.7314 2.1701 -0.0001 17.3129 0.0000
# 2 24.7314 194.8666 0.7998 -0.0001 3.0976 0.0000
# 3 2.1701 0.7998 24.8350 -0.0001 13.3916 0.0000
# 4 -0.0001 -0.0001 -0.0001 17.9734 0.0000 3.8183
# 5 17.3129 3.0976 13.3916 0.0000 26.0115 0.0000
# 6 0.0000 0.0000 0.0000 3.8183 0.0000 27.6359
#
#
#
# Elastic Compliance Matrix: (Units=1/GPa)
#
#
# Indices 1 2 3 4 5 6 
#
# 1 0.043501 -0.005004 0.016129 0.000000 -0.036662 0.000000
# 2 -0.005004 0.005718 -0.001628 0.000000 0.003488 0.000000
# 3 0.016129 -0.001628 0.061730 0.000001 -0.042322 0.000000
# 4 0.000000 0.000000 0.000001 0.057320 -0.000001 -0.007920
# 5 -0.036662 0.003488 -0.042322 -0.000001 0.084220 0.000000
# 6 0.000000 0.000000 0.000000 -0.007920 0.000000 0.037279
#
#
# Mechanical properties :
#
#
# Convention : Reuss Voigt Hill
#
# Bulk Modulus (GPa) = 7.69566 34.96926 21.33246
# Shear Modulus (GPa) = 15.91904 29.76544 22.84224
#
# Velocity S-wave (km/s) = 2.67867 3.66283 3.20870
# Velocity P-wave (km/s) = 3.61050 5.80088 4.83145
#
# Compressibility (1/GPa) = 0.12994341
#
# Stress axis : x y z
#
# Youngs Moduli (GPa) = 22.98772 174.88386 16.19958
#
# Poissons Ratio (x) = 0.87519 -0.26128
# Poissons Ratio (y) = 0.11504 0.02637
# Poissons Ratio (z) = -0.37077 0.28464
#
# Static dielectric constant tensor:
#      x y z
#    x 1.807500 0.000000 0.006640 
#    y 0.000000 1.901340 0.000000 
#    z 0.006640 0.000000 1.841060 
# 
# From -- ./inp_files/161876.got.cif
#   From: 2010.05.17/outbox.cif.g08.bks.cpg/sg15_81_cif.got.tgz:161876.got - 2010.06.03 18:47:42.
