data_PCOD9262200
_publ_section_title
;
Structure prediction by ZEFSAII (Michael W. Deem and Ramdas Pophale) SiO2 
 PCOD9262200
Probable space group: C 2/C
;
_chemical_formula_sum "Si O2"
_cell_formula_units_Z 64
_cell_length_a 23.494355
_cell_length_b 5.470236
_cell_length_c 27.320359
_cell_angle_alpha 90.000000
_cell_angle_beta 73.888191
_cell_angle_gamma 90.000000
_cell_volume 3373.290301
_symmetry_space_group_name_H-M "C 2/C"
_symmetry_group_IT_number 15
_symmetry_cell_setting 'monoclinic'
loop_
_space_group_symop_operation_xyz
x,y,z
-x,y,1/2-z
-x,-y,-z
x,-y,1/2+z
1/2+x,1/2+y,z
1/2-x,1/2+y,1/2-z
1/2-x,1/2-y,-z
1/2+x,1/2-y,1/2+z
loop_
_atom_site_type_symbol
_atom_site_label
_atom_site_fract_x
_atom_site_fract_y
_atom_site_fract_z
Si Si1 0.820035 0.059856 0.708714
Si Si2 0.290787 0.306105 0.805154
Si Si3 0.802516 0.679353 0.630554
Si Si4 0.315134 0.677165 0.531429
Si Si5 0.706234 0.985001 0.103526
Si Si6 0.142951 0.684604 0.029169
Si Si7 0.008806 0.749471 0.029152
Si Si8 0.388259 0.795229 0.606672
O O1 0.751909 0.152728 0.720980
O O2 0.864545 0.232043 0.666967
O O3 0.830738 0.980968 0.762004
O O4 0.819226 0.823259 0.675001
O O5 0.241092 0.459327 0.845286
O O6 0.318336 0.137927 0.840959
O O7 0.759506 0.837268 0.607375
O O8 0.864322 0.565431 0.598725
O O9 0.245548 0.701814 0.561450
O O10 0.324679 0.431086 0.497508
O O11 0.353851 0.643841 0.572430
O O12 0.337775 0.931279 0.502421
O O13 0.660101 0.126886 0.081166
O O14 0.073989 0.735289 0.036302
O O15 0.957019 0.743055 0.082117
O O16 0.000000 0.500000 0.000000
O O17 0.000000 0.000000 0.000000
#
# Coordination Sequence:
#
# PCOD9262200 Si02
#       8
#     8   8   8   8   8   8   8   8
#     4  10  19  32  56  86 123 155 195 252 321 376
#     4  10  19  32  55  86 123 156 193 247 316 383
#     4  10  19  34  56  83 127 150 195 241 318 367
#     4  12  22  38  60  88 126 162 208 249 312 373
#     4  11  24  35  58  89 128 165 198 252 315 391
#     4  12  26  41  59  88 124 174 212 251 306 372
#     4  12  25  43  64  86 123 165 220 263 301 362
#     4  11  22  35  60  89 121 160 203 264 310 361
#
# _framework density 18.972574999999999
#
# number of rings (size 3 to 8) (size 9 to 14) (size 15 to 20)
#    0.000    1.000    7.500    1.500    3.500    0.000 
#    0.000    0.000    0.000    0.000    0.000    5.250 
#    0.000    0.000    0.000    0.000    0.000    0.000 
#
# Total GULP energy -178305.177168 kJ/mol
# GULP energy per Si atom -5572.036786 kJ/mol
# Density = 1.892939 g / cm^3
# Si number density = 18.972575 Si / 1000 Ang^3
#
#
#
# Elastic Constant Matrix: (Units=GPa)
#
#
# Indices 1 2 3 4 5 6 
#
# 1 80.0196 21.1662 41.2387 0.0085 1.0526 0.0027
# 2 21.1662 92.6268 30.9851 0.0113 2.8841 0.0073
# 3 41.2387 30.9851 86.3865 0.0086 -4.3265 0.0026
# 4 0.0085 0.0113 0.0086 40.0679 0.0033 1.2945
# 5 1.0526 2.8841 -4.3265 0.0033 21.3590 0.0011
# 6 0.0027 0.0073 0.0026 1.2945 0.0011 20.7229
#
#
#
# Elastic Compliance Matrix: (Units=1/GPa)
#
#
# Indices 1 2 3 4 5 6 
#
# 1 0.016816 -0.001194 -0.007711 -0.000001 -0.002230 -0.000001
# 2 -0.001194 0.012494 -0.004034 -0.000002 -0.002445 -0.000003
# 3 -0.007711 -0.004034 0.016922 -0.000001 0.004352 0.000000
# 4 -0.000001 -0.000002 -0.000001 0.025008 -0.000004 -0.001562
# 5 -0.002230 -0.002445 0.004352 -0.000004 0.048140 -0.000002
# 6 -0.000001 -0.000003 0.000000 -0.001562 -0.000002 0.048353
#
#
# Mechanical properties :
#
#
# Convention : Reuss Voigt Hill
#
# Bulk Modulus (GPa) = 49.12913 49.53476 49.33194
# Shear Modulus (GPa) = 24.95053 27.47282 26.21168
#
# Velocity S-wave (km/s) = 3.63034 3.80942 3.72096
# Velocity P-wave (km/s) = 6.59724 6.74642 6.67225
#
# Compressibility (1/GPa) = 0.02035452
#
# Stress axis : x y z
#
# Youngs Moduli (GPa) = 59.46733 80.03576 59.09520
#
# Poissons Ratio (x) = 0.09554 0.45568
# Poissons Ratio (y) = 0.07099 0.23840
# Poissons Ratio (z) = 0.45855 0.32287
#
# Static dielectric constant tensor:
#      x y z
#    x 1.634410 0.000000 0.005670 
#    y 0.000000 1.808070 0.000000 
#    z 0.005670 0.000000 1.758900 
# 
# From -- ./inp_files/301599.got.cif
#   From: 2010.05.17/outbox.cif.g08.bks.cpg/sg15_151_cif.got.tgz:301599.got - 2010.06.03 18:47:42.
