data_PCOD9262970
_publ_section_title
;
Structure prediction by ZEFSAII (Michael W. Deem and Ramdas Pophale) SiO2 
 PCOD9262970
Probable space group: C 2/C
;
_chemical_formula_sum "Si O2"
_cell_formula_units_Z 40
_cell_length_a 7.551768
_cell_length_b 15.262494
_cell_length_c 18.673056
_cell_angle_alpha 90.000000
_cell_angle_beta 42.700204
_cell_angle_gamma 90.000000
_cell_volume 1459.564123
_symmetry_space_group_name_H-M "C 2/C"
_symmetry_group_IT_number 15
_symmetry_cell_setting 'monoclinic'
loop_
_space_group_symop_operation_xyz
x,y,z
-x,y,1/2-z
-x,-y,-z
x,-y,1/2+z
1/2+x,1/2+y,z
1/2-x,1/2+y,1/2-z
1/2-x,1/2-y,-z
1/2+x,1/2-y,1/2+z
loop_
_atom_site_type_symbol
_atom_site_label
_atom_site_fract_x
_atom_site_fract_y
_atom_site_fract_z
Si Si1 0.717705 0.008520 0.640710
Si Si2 0.955468 0.886765 0.846655
Si Si3 0.310778 0.764657 0.135139
Si Si4 0.754717 0.055347 0.878459
Si Si5 0.663279 0.628289 0.491064
O O1 0.500000 0.057304 0.750000
O O2 0.627201 0.936469 0.609543
O O3 0.852967 0.948689 0.662397
O O4 0.897788 0.078298 0.548455
O O5 0.000000 0.866074 0.750000
O O6 0.998858 0.794960 0.873300
O O7 0.707902 0.954370 0.917391
O O8 0.398395 0.865696 0.114416
O O9 0.000000 0.757307 0.250000
O O10 0.327178 0.720254 0.051082
O O11 0.839203 0.109615 0.924372
O O12 0.000000 0.042921 0.750000
#
# Coordination Sequence:
#
# PCOD9262970 Si02
#       5
#     8   8   8   8   8
#     4   9  17  30  53  87 117 155 209 249 303 380
#     4   9  17  31  53  80 116 156 195 250 304 356
#     4  10  19  33  58  89 118 162 210 247 310 379
#     4   9  18  31  52  84 116 153 201 250 302 362
#     4   9  16  29  53  82 118 155 198 259 305 359
#
# _framework density 27.405442000000001
#
# number of rings (size 3 to 8) (size 9 to 14) (size 15 to 20)
#    0.000    2.800    0.000    4.200    0.000    0.000 
#    0.000    0.000    0.000  142.800    0.000   63.000 
#    0.000    0.000    0.000    0.000    0.000    0.000 
#
# Total GULP energy -111435.788365 kJ/mol
# GULP energy per Si atom -5571.789418 kJ/mol
# Density = 2.734307 g / cm^3
# Si number density = 27.405442 Si / 1000 Ang^3
#
#
#
# Elastic Constant Matrix: (Units=GPa)
#
#
# Indices 1 2 3 4 5 6 
#
# 1 128.7761 18.5864 27.3805 0.0020 35.1415 -0.0009
# 2 18.5864 208.3669 32.8033 0.0023 -9.0476 0.0002
# 3 27.3805 32.8033 110.6042 0.0005 25.1853 0.0044
# 4 0.0020 0.0023 0.0005 17.0856 -0.0018 14.8394
# 5 35.1415 -9.0476 25.1853 -0.0018 48.5883 0.0014
# 6 -0.0009 0.0002 0.0044 14.8394 0.0014 20.0491
#
#
#
# Elastic Compliance Matrix: (Units=1/GPa)
#
#
# Indices 1 2 3 4 5 6 
#
# 1 0.009993 -0.001123 -0.000507 -0.000008 -0.007174 0.000007
# 2 -0.001123 0.005327 -0.001942 -0.000001 0.002811 0.000001
# 3 -0.000507 -0.001942 0.011045 0.000003 -0.005720 -0.000004
# 4 -0.000008 -0.000001 0.000003 0.163876 0.000013 -0.121293
# 5 -0.007174 0.002811 -0.005720 0.000013 0.029258 -0.000011
# 6 0.000007 0.000001 -0.000004 -0.121293 -0.000011 0.139653
#
#
# Mechanical properties :
#
#
# Convention : Reuss Voigt Hill
#
# Bulk Modulus (GPa) = 52.02675 67.25419 59.64047
# Shear Modulus (GPa) = 13.41548 41.74305 27.57927
#
# Velocity S-wave (km/s) = 2.21491 3.90701 3.17573
# Velocity P-wave (km/s) = 5.05632 6.70423 5.93772
#
# Compressibility (1/GPa) = 0.01922088
#
# Stress axis : x y z
#
# Youngs Moduli (GPa) = 100.07061 187.71683 90.53666
#
# Poissons Ratio (x) = 0.21081 0.04593
# Poissons Ratio (y) = 0.11238 0.17582
# Poissons Ratio (z) = 0.05076 0.36454
#
# Static dielectric constant tensor:
#      x y z
#    x 2.288120 0.000000 -0.108030 
#    y 0.000000 2.179740 0.000000 
#    z -0.108030 0.000000 2.319820 
# 
# From -- ./inp_files/232436.got.cif
#   From: 2010.05.17/outbox.cif.g08.bks.cpg/sg15_117_cif.got.tgz:232436.got - 2010.06.03 18:47:42.
