data_PCOD9262132
_publ_section_title
;
Structure prediction by ZEFSAII (Michael W. Deem and Ramdas Pophale) SiO2 
 PCOD9262132
Probable space group: C 2/C
;
_chemical_formula_sum "Si O2"
_cell_formula_units_Z 52
_cell_length_a 24.683032
_cell_length_b 9.799825
_cell_length_c 11.969459
_cell_angle_alpha 90.000000
_cell_angle_beta 113.856482
_cell_angle_gamma 90.000000
_cell_volume 2647.916100
_symmetry_space_group_name_H-M "C 2/C"
_symmetry_group_IT_number 15
_symmetry_cell_setting 'monoclinic'
loop_
_space_group_symop_operation_xyz
x,y,z
-x,y,1/2-z
-x,-y,-z
x,-y,1/2+z
1/2+x,1/2+y,z
1/2-x,1/2+y,1/2-z
1/2-x,1/2-y,-z
1/2+x,1/2-y,1/2+z
loop_
_atom_site_type_symbol
_atom_site_label
_atom_site_fract_x
_atom_site_fract_y
_atom_site_fract_z
Si Si1 0.672560 0.057857 0.782575
Si Si2 0.392857 0.661381 0.293747
Si Si3 0.313846 0.017413 0.462892
Si Si4 0.000000 0.054425 0.250000
Si Si5 0.685101 0.604969 0.834719
Si Si6 0.108701 0.070948 0.962609
Si Si7 0.194913 0.827159 0.103176
O O1 0.638577 0.200354 0.763112
O O2 0.743398 0.089447 0.847874
O O3 0.660853 0.008162 0.643324
O O4 0.657702 0.986270 0.890495
O O5 0.456286 0.642406 0.289772
O O6 0.350742 0.533765 0.226136
O O7 0.398936 0.650743 0.430578
O O8 0.301795 0.181389 0.452919
O O9 0.252249 0.935234 0.412854
O O10 0.045129 0.963431 0.358890
O O11 0.682590 0.698880 0.724224
O O12 0.650743 0.654378 0.914364
O O13 0.143782 0.927876 0.015307
#
# Coordination Sequence:
#
# PCOD9262132 Si02
#       7
#     8   8   8   4   8   8   8
#     4  11  22  34  56  80 115 151 188 224 275 333
#     4  10  20  35  54  80 107 143 185 234 278 332
#     4  11  20  34  51  80 114 153 184 216 272 337
#     4  10  20  34  56  80 106 142 186 234 284 330
#     4   9  18  30  50  80 110 143 176 225 275 330
#     4  10  19  34  55  82 114 141 181 229 286 330
#     4  10  19  32  54  79 115 149 180 224 275 335
#
# _framework density 19.638085
#
# number of rings (size 3 to 8) (size 9 to 14) (size 15 to 20)
#    0.000    1.846    3.077    2.769    0.000    1.231 
#    0.000    3.077    0.000    3.692    0.000    5.385 
#    0.000    0.000    0.000    0.000    0.000    0.000 
#
# Total GULP energy -144919.072399 kJ/mol
# GULP energy per Si atom -5573.810477 kJ/mol
# Density = 1.959339 g / cm^3
# Si number density = 19.638085 Si / 1000 Ang^3
#
#
#
# Elastic Constant Matrix: (Units=GPa)
#
#
# Indices 1 2 3 4 5 6 
#
# 1 59.3637 15.5347 47.6686 0.0000 -14.2849 0.0000
# 2 15.5347 36.0979 17.2332 0.0000 -2.0434 0.0000
# 3 47.6686 17.2332 146.5968 0.0000 -34.1554 0.0000
# 4 0.0000 0.0000 0.0000 9.0350 0.0000 7.5366
# 5 -14.2849 -2.0434 -34.1554 0.0000 46.5713 0.0000
# 6 0.0000 0.0000 0.0000 7.5366 0.0000 15.6441
#
#
#
# Elastic Compliance Matrix: (Units=1/GPa)
#
#
# Indices 1 2 3 4 5 6 
#
# 1 0.024629 -0.007318 -0.006589 0.000000 0.002401 0.000000
# 2 -0.007318 0.031611 -0.001853 0.000000 -0.002217 0.000000
# 3 -0.006589 -0.001853 0.010483 0.000000 0.005586 0.000000
# 4 0.000000 0.000000 0.000000 0.185039 0.000000 -0.089143
# 5 0.002401 -0.002217 0.005586 0.000000 0.026209 0.000000
# 6 0.000000 0.000000 0.000000 -0.089143 0.000000 0.106867
#
#
# Mechanical properties :
#
#
# Convention : Reuss Voigt Hill
#
# Bulk Modulus (GPa) = 28.40592 44.77016 36.58804
# Shear Modulus (GPa) = 11.67979 25.02487 18.35233
#
# Velocity S-wave (km/s) = 2.44140 3.57361 3.06032
# Velocity P-wave (km/s) = 4.73744 6.31464 5.58203
#
# Compressibility (1/GPa) = 0.03520393
#
# Stress axis : x y z
#
# Youngs Moduli (GPa) = 40.60279 31.63489 95.39034
#
# Poissons Ratio (x) = 0.23149 0.62851
# Poissons Ratio (y) = 0.29711 0.17676
# Poissons Ratio (z) = 0.26753 0.05862
#
# Static dielectric constant tensor:
#      x y z
#    x 1.670640 0.000000 -0.076120 
#    y 0.000000 1.682230 0.000000 
#    z -0.076120 0.000000 1.781510 
# 
# From -- ./inp_files/110941.got.cif
#   From: 2010.05.17/outbox.cif.g08.bks.cpg/sg15_56_cif.got.tgz:110941.got - 2010.06.03 18:47:42.
