data_PCOD9262139
_publ_section_title
;
Structure prediction by ZEFSAII (Michael W. Deem and Ramdas Pophale) SiO2 
 PCOD9262139
Probable space group: C 2/C
;
_chemical_formula_sum "Si O2"
_cell_formula_units_Z 40
_cell_length_a 18.664306
_cell_length_b 15.420227
_cell_length_c 7.705276
_cell_angle_alpha 90.000000
_cell_angle_beta 43.318071
_cell_angle_gamma 90.000000
_cell_volume 1521.406351
_symmetry_space_group_name_H-M "C 2/C"
_symmetry_group_IT_number 15
_symmetry_cell_setting 'monoclinic'
loop_
_space_group_symop_operation_xyz
x,y,z
-x,y,1/2-z
-x,-y,-z
x,-y,1/2+z
1/2+x,1/2+y,z
1/2-x,1/2+y,1/2-z
1/2-x,1/2-y,-z
1/2+x,1/2-y,1/2+z
loop_
_atom_site_type_symbol
_atom_site_label
_atom_site_fract_x
_atom_site_fract_y
_atom_site_fract_z
Si Si1 0.055929 0.796401 0.461775
Si Si2 0.672735 0.130412 0.295590
Si Si3 0.613172 0.962087 0.261205
Si Si4 0.211140 0.079363 0.839642
Si Si5 0.868010 0.889014 0.631843
O O1 0.092913 0.699253 0.360261
O O2 0.160641 0.851326 0.302373
O O3 0.000000 0.793134 0.750000
O O4 0.980368 0.845760 0.461792
O O5 0.625391 0.089632 0.560753
O O6 0.784158 0.165112 0.166856
O O7 0.684777 0.049194 0.144569
O O8 0.664872 0.914030 0.334197
O O9 0.500000 0.000000 0.500000
O O10 0.151801 0.987335 0.902800
O O11 0.171114 0.105177 0.102326
#
# Coordination Sequence:
#
# PCOD9262139 Si02
#       5
#     8   8   8   8   8
#     4  10  19  32  54  81 107 138 181 225 263 314
#     4  10  21  35  56  82 107 141 183 222 267 323
#     4  10  19  33  53  76 107 144 178 217 269 322
#     4   9  19  33  54  80 107 141 180 220 269 322
#     4   9  19  35  56  81 110 143 177 221 272 318
#
# _framework density 26.291464999999999
#
# number of rings (size 3 to 8) (size 9 to 14) (size 15 to 20)
#    0.000    2.400    0.000    2.400    0.000    8.800 
#    0.000    0.000    0.000   33.600    0.000    2.800 
#    0.000    0.000    0.000    0.000    0.000    0.000 
#
# Total GULP energy -111694.897570 kJ/mol
# GULP energy per Si atom -5584.744878 kJ/mol
# Density = 2.623162 g / cm^3
# Si number density = 26.291465 Si / 1000 Ang^3
#
#
#
# Elastic Constant Matrix: (Units=GPa)
#
#
# Indices 1 2 3 4 5 6 
#
# 1 172.3818 41.1928 54.4132 0.0000 -16.4281 0.0000
# 2 41.1928 95.2282 19.6898 0.0000 -22.5634 0.0000
# 3 54.4132 19.6898 39.1759 0.0000 -9.3270 0.0000
# 4 0.0000 0.0000 0.0000 32.8938 0.0000 -25.2701
# 5 -16.4281 -22.5634 -9.3270 0.0000 61.2579 0.0000
# 6 0.0000 0.0000 0.0000 -25.2701 0.0000 11.8178
#
#
#
# Elastic Compliance Matrix: (Units=1/GPa)
#
#
# Indices 1 2 3 4 5 6 
#
# 1 0.010576 -0.001693 -0.013813 0.000000 0.000110 0.000000
# 2 -0.001693 0.012784 -0.003176 0.000000 0.003771 0.000000
# 3 -0.013813 -0.003176 0.046845 0.000000 0.002258 0.000000
# 4 0.000000 0.000000 0.000000 -0.047301 0.000000 -0.101143
# 5 0.000110 0.003771 0.002258 0.000000 0.018087 0.000000
# 6 0.000000 0.000000 0.000000 -0.101143 0.000000 -0.131657
#
#
# Mechanical properties :
#
#
# Convention : Reuss Voigt Hill
#
# Bulk Modulus (GPa) = 30.44914 59.70862 45.07888
# Shear Modulus (GPa) = -118.04555 33.95990 -42.04282
#
# Velocity S-wave (km/s) = -6.70793 3.59788 -4.00322
# Velocity P-wave (km/s) = 6.95619 6.32607 2.04564
#
# Compressibility (1/GPa) = 0.03284165
#
# Stress axis : x y z
#
# Youngs Moduli (GPa) = 94.55271 78.22532 21.34710
#
# Poissons Ratio (x) = 0.13243 0.29486
# Poissons Ratio (y) = 0.16007 0.06779
# Poissons Ratio (z) = 1.30602 0.24843
#
# Static dielectric constant tensor:
#      x y z
#    x 2.106330 0.000000 0.046250 
#    y 0.000000 2.088080 0.000000 
#    z 0.046250 0.000000 2.300140 
# 
# From -- ./inp_files/104739.got.cif
#   From: 2010.05.17/outbox.cif.g08.bks.cpg/sg15_53_cif.got.tgz:104739.got - 2010.06.03 18:47:42.
