data_PCOD9262981
_publ_section_title
;
Structure prediction by ZEFSAII (Michael W. Deem and Ramdas Pophale) SiO2 
 PCOD9262981
Probable space group: C 2/C
;
_chemical_formula_sum "Si O2"
_cell_formula_units_Z 44
_cell_length_a 9.038993
_cell_length_b 16.618910
_cell_length_c 13.586534
_cell_angle_alpha 90.000000
_cell_angle_beta 71.422565
_cell_angle_gamma 90.000000
_cell_volume 1934.599267
_symmetry_space_group_name_H-M "C 2/C"
_symmetry_group_IT_number 15
_symmetry_cell_setting 'monoclinic'
loop_
_space_group_symop_operation_xyz
x,y,z
-x,y,1/2-z
-x,-y,-z
x,-y,1/2+z
1/2+x,1/2+y,z
1/2-x,1/2+y,1/2-z
1/2-x,1/2-y,-z
1/2+x,1/2-y,1/2+z
loop_
_atom_site_type_symbol
_atom_site_label
_atom_site_fract_x
_atom_site_fract_y
_atom_site_fract_z
Si Si1 0.014281 0.599421 0.417996
Si Si2 0.403476 0.722848 0.174040
Si Si3 0.500000 0.977231 0.250000
Si Si4 0.103420 0.778934 0.349699
Si Si5 0.814411 0.841226 0.493229
Si Si6 0.847062 0.641939 0.918922
O O1 0.038224 0.688730 0.369927
O O2 0.131715 0.594969 0.484535
O O3 0.050898 0.534122 0.328216
O O4 0.831427 0.599201 0.488189
O O5 0.500000 0.692776 0.250000
O O6 0.241846 0.765331 0.242046
O O7 0.373665 0.658036 0.094674
O O8 0.508966 0.795968 0.112594
O O9 0.630523 0.919206 0.176322
O O10 0.195571 0.806257 0.428462
O O11 0.957086 0.840245 0.384702
O O12 0.750000 0.750000 0.500000
#
# Coordination Sequence:
#
# PCOD9262981 Si02
#       6
#     8   8   4   8   8   8
#     4  11  23  39  63  94 127 164 214 268 320 375
#     4  10  19  33  58  91 122 155 210 253 319 368
#     4  12  24  42  60  92 136 174 210 250 332 400
#     4  10  20  37  67  92 121 163 214 272 312 363
#     4  10  20  36  58  96 125 151 208 275 311 360
#     4  11  21  40  64  89 123 172 214 258 315 389
#
# _framework density 22.743727
#
# number of rings (size 3 to 8) (size 9 to 14) (size 15 to 20)
#    0.000    1.455    6.364    2.182    2.545    2.182 
#    0.000    0.909    0.000    2.182    0.000    0.000 
#    0.000    0.000    0.000    0.000    0.000    0.000 
#
# Total GULP energy -122710.398559 kJ/mol
# GULP energy per Si atom -5577.745389 kJ/mol
# Density = 2.269196 g / cm^3
# Si number density = 22.743727 Si / 1000 Ang^3
#
#
#
# Elastic Constant Matrix: (Units=GPa)
#
#
# Indices 1 2 3 4 5 6 
#
# 1 72.3426 -0.4193 19.5172 0.0000 -9.6229 0.0000
# 2 -0.4193 60.5236 5.0303 0.0000 -2.1520 0.0000
# 3 19.5172 5.0303 57.6877 0.0000 -15.2276 0.0000
# 4 0.0000 0.0000 0.0000 8.7059 0.0000 -1.2686
# 5 -9.6229 -2.1520 -15.2276 0.0000 41.6345 0.0000
# 6 0.0000 0.0000 0.0000 -1.2686 0.0000 7.3491
#
#
#
# Elastic Compliance Matrix: (Units=1/GPa)
#
#
# Indices 1 2 3 4 5 6 
#
# 1 0.015355 0.000567 -0.004759 0.000000 0.001838 0.000000
# 2 0.000567 0.016669 -0.001531 0.000000 0.000433 0.000000
# 3 -0.004759 -0.001531 0.020773 0.000000 0.006418 0.000000
# 4 0.000000 0.000000 0.000000 0.117828 0.000000 0.020340
# 5 0.001838 0.000433 0.006418 0.000000 0.026813 0.000000
# 6 0.000000 0.000000 0.000000 0.020340 0.000000 0.139582
#
#
# Mechanical properties :
#
#
# Convention : Reuss Voigt Hill
#
# Bulk Modulus (GPa) = 24.18384 26.53449 25.35917
# Shear Modulus (GPa) = 13.80261 22.63294 18.21778
#
# Velocity S-wave (km/s) = 2.46616 3.15799 2.83327
# Velocity P-wave (km/s) = 4.33192 4.99892 4.67733
#
# Compressibility (1/GPa) = 0.04134992
#
# Stress axis : x y z
#
# Youngs Moduli (GPa) = 65.12601 59.99138 48.14016
#
# Poissons Ratio (x) = -0.03403 0.22912
# Poissons Ratio (y) = -0.03694 0.07371
# Poissons Ratio (z) = 0.30996 0.09186
#
# Static dielectric constant tensor:
#      x y z
#    x 1.923170 0.000000 0.047080 
#    y 0.000000 1.811760 0.000000 
#    z 0.047080 0.000000 1.991120 
# 
# From -- ./inp_files/134316.got.cif
#   From: 2010.05.17/outbox.cif.g08.bks.cpg/sg15_68_cif.got.tgz:134316.got - 2010.06.03 18:47:42.
