data_PCOD9262148
_publ_section_title
;
Structure prediction by ZEFSAII (Michael W. Deem and Ramdas Pophale) SiO2 
 PCOD9262148
Probable space group: C 2/C
;
_chemical_formula_sum "Si O2"
_cell_formula_units_Z 40
_cell_length_a 5.267711
_cell_length_b 17.997818
_cell_length_c 20.521019
_cell_angle_alpha 90.000000
_cell_angle_beta 59.774220
_cell_angle_gamma 90.000000
_cell_volume 1681.042837
_symmetry_space_group_name_H-M "C 2/C"
_symmetry_group_IT_number 15
_symmetry_cell_setting 'monoclinic'
loop_
_space_group_symop_operation_xyz
x,y,z
-x,y,1/2-z
-x,-y,-z
x,-y,1/2+z
1/2+x,1/2+y,z
1/2-x,1/2+y,1/2-z
1/2-x,1/2-y,-z
1/2+x,1/2-y,1/2+z
loop_
_atom_site_type_symbol
_atom_site_label
_atom_site_fract_x
_atom_site_fract_y
_atom_site_fract_z
Si Si1 0.814963 0.837896 0.487994
Si Si2 0.426875 0.536389 0.334022
Si Si3 0.347562 0.701364 0.203021
Si Si4 0.754769 0.470161 0.919562
Si Si5 0.578077 0.190593 0.567980
O O1 0.750000 0.750000 0.500000
O O2 0.752269 0.881404 0.562442
O O3 0.604328 0.861589 0.456521
O O4 0.157110 0.848946 0.428964
O O5 0.500000 0.516666 0.250000
O O6 0.465721 0.626299 0.334033
O O7 0.653606 0.510829 0.359880
O O8 0.092971 0.511816 0.389511
O O9 0.500000 0.729989 0.250000
O O10 0.385356 0.762977 0.142678
O O11 0.000000 0.682249 0.250000
O O12 0.500000 0.500000 0.000000
O O13 0.750000 0.250000 0.500000
#
# Coordination Sequence:
#
# PCOD9262148 Si02
#       5
#     8   8   8   8   8
#     4  10  19  34  58  85 117 153 194 245 301 361
#     4  11  22  39  62  90 123 162 204 261 325 377
#     4  11  21  35  58  92 127 160 206 265 319 377
#     4  12  24  40  63  95 123 158 213 267 312 377
#     4  10  19  32  54  82 116 155 192 238 301 366
#
# _framework density 23.794754000000001
#
# number of rings (size 3 to 8) (size 9 to 14) (size 15 to 20)
#    0.000    1.200    0.000   10.800    0.000    0.000 
#    0.000    0.000    0.000   12.000    0.000    0.000 
#    0.000    0.000    0.000    0.000    0.000    0.000 
#
# Total GULP energy -111726.602738 kJ/mol
# GULP energy per Si atom -5586.330137 kJ/mol
# Density = 2.374060 g / cm^3
# Si number density = 23.794754 Si / 1000 Ang^3
#
#
#
# Elastic Constant Matrix: (Units=GPa)
#
#
# Indices 1 2 3 4 5 6 
#
# 1 233.8667 28.1519 55.2712 0.0000 -8.2622 0.0000
# 2 28.1519 57.4945 31.4075 0.0000 5.1082 0.0000
# 3 55.2712 31.4075 83.9083 0.0000 4.8019 0.0000
# 4 0.0000 0.0000 0.0000 27.7387 0.0000 -1.7163
# 5 -8.2622 5.1082 4.8019 0.0000 52.7063 0.0000
# 6 0.0000 0.0000 0.0000 -1.7163 0.0000 15.1761
#
#
#
# Elastic Compliance Matrix: (Units=1/GPa)
#
#
# Indices 1 2 3 4 5 6 
#
# 1 0.005168 -0.000929 -0.003124 0.000000 0.001185 0.000000
# 2 -0.000929 0.022131 -0.007580 0.000000 -0.001600 0.000000
# 3 -0.003124 -0.007580 0.016887 0.000000 -0.001294 0.000000
# 4 0.000000 0.000000 0.000000 0.036305 0.000000 0.004106
# 5 0.001185 -0.001600 -0.001294 0.000000 0.019432 0.000000
# 6 0.000000 0.000000 0.000000 0.004106 0.000000 0.066357
#
#
# Mechanical properties :
#
#
# Convention : Reuss Voigt Hill
#
# Bulk Modulus (GPa) = 47.80363 67.21452 57.50908
# Shear Modulus (GPa) = 25.44273 36.48682 30.96477
#
# Velocity S-wave (km/s) = 3.27350 3.92011 3.61131
# Velocity P-wave (km/s) = 5.86697 6.98560 6.45058
#
# Compressibility (1/GPa) = 0.02091891
#
# Stress axis : x y z
#
# Youngs Moduli (GPa) = 193.49800 45.18572 59.21675
#
# Poissons Ratio (x) = 0.04198 0.18501
# Poissons Ratio (y) = 0.17977 0.44888
# Poissons Ratio (z) = 0.60454 0.34252
#
# Static dielectric constant tensor:
#      x y z
#    x 1.780020 0.000000 -0.056270 
#    y 0.000000 -11.544520 0.000000 
#    z -0.056270 0.000000 1.847400 
# 
# From -- ./inp_files/227671.got.cif
#   From: 2010.05.17/outbox.cif.g08.bks.cpg/sg15_114_cif.got.tgz:227671.got - 2010.06.03 18:47:42.
