data_PCOD9262847
_publ_section_title
;
Structure prediction by ZEFSAII (Michael W. Deem and Ramdas Pophale) SiO2 
 PCOD9262847
Probable space group: C 2/C
;
_chemical_formula_sum "Si O2"
_cell_formula_units_Z 56
_cell_length_a 21.173944
_cell_length_b 13.178094
_cell_length_c 20.949083
_cell_angle_alpha 90.000000
_cell_angle_beta 23.975807
_cell_angle_gamma 90.000000
_cell_volume 2375.311475
_symmetry_space_group_name_H-M "C 2/C"
_symmetry_group_IT_number 15
_symmetry_cell_setting 'monoclinic'
loop_
_space_group_symop_operation_xyz
x,y,z
-x,y,1/2-z
-x,-y,-z
x,-y,1/2+z
1/2+x,1/2+y,z
1/2-x,1/2+y,1/2-z
1/2-x,1/2-y,-z
1/2+x,1/2-y,1/2+z
loop_
_atom_site_type_symbol
_atom_site_label
_atom_site_fract_x
_atom_site_fract_y
_atom_site_fract_z
Si Si1 0.693009 0.381141 0.307250
Si Si2 0.642201 0.788903 0.155254
Si Si3 0.234065 0.381474 0.409415
Si Si4 0.632353 0.575727 0.231453
Si Si5 0.207373 0.018527 0.921606
Si Si6 0.621879 0.823103 0.739610
Si Si7 0.336400 0.321407 0.667901
O O1 0.732199 0.399311 0.197335
O O2 0.709253 0.472934 0.342355
O O3 0.513562 0.343428 0.481783
O O4 0.815531 0.293485 0.212448
O O5 0.500000 0.838540 0.250000
O O6 0.597587 0.684884 0.232329
O O7 0.723678 0.874735 0.120577
O O8 0.750000 0.750000 0.000000
O O9 0.268066 0.495792 0.402199
O O10 0.342565 0.284877 0.326426
O O11 0.058860 0.344912 0.582934
O O12 0.470258 0.518399 0.393022
O O13 0.701124 0.608615 0.236756
O O14 0.299162 0.922388 0.863797
O O15 0.715389 0.819768 0.720875
#
# Coordination Sequence:
#
# PCOD9262847 Si02
#       7
#     8   8   8   8   8   8   8
#     4  10  19  33  56  88 128 167 205 251 307 378
#     4  12  26  46  68  96 126 162 212 271 321 366
#     4  11  23  38  60  91 128 167 208 251 309 382
#     4  11  23  40  63  89 126 166 207 263 316 369
#     4  11  23  40  63  89 126 166 207 262 317 370
#     4  11  23  38  60  91 128 167 208 252 307 385
#     4  10  19  33  56  88 128 167 205 251 308 376
#
# _framework density 23.575856999999999
#
# number of rings (size 3 to 8) (size 9 to 14) (size 15 to 20)
#    0.000    1.143    2.857    6.000    2.000    5.714 
#    0.000    0.000    0.000    1.714    0.000    0.000 
#    0.000    0.000    0.000    0.000    0.000    0.000 
#
# Total GULP energy -156389.256945 kJ/mol
# GULP energy per Si atom -5585.330605 kJ/mol
# Density = 2.352220 g / cm^3
# Si number density = 23.575857 Si / 1000 Ang^3
#
#
#
# Elastic Constant Matrix: (Units=GPa)
#
#
# Indices 1 2 3 4 5 6 
#
# 1 23.8714 -1.7623 4.3727 -0.0007 -6.6850 -0.0007
# 2 -1.7623 123.4450 0.2473 -0.0069 -3.5329 0.0028
# 3 4.3727 0.2473 50.5811 0.0023 -12.7302 -0.0003
# 4 -0.0007 -0.0069 0.0023 41.0176 0.0001 -6.4483
# 5 -6.6850 -3.5329 -12.7302 0.0001 20.0998 0.0005
# 6 -0.0007 0.0028 -0.0003 -6.4483 0.0005 9.1701
#
#
#
# Elastic Compliance Matrix: (Units=1/GPa)
#
#
# Indices 1 2 3 4 5 6 
#
# 1 0.046344 0.001107 -0.000099 0.000001 0.015545 0.000003
# 2 0.001107 0.008174 0.000379 0.000001 0.002045 -0.000002
# 3 -0.000099 0.000379 0.023537 -0.000001 0.014941 -0.000001
# 4 0.000001 0.000001 -0.000001 0.027410 -0.000001 0.019274
# 5 0.015545 0.002045 0.014941 -0.000001 0.064744 -0.000003
# 6 0.000003 -0.000002 -0.000001 0.019274 -0.000003 0.122603
#
#
# Mechanical properties :
#
#
# Convention : Reuss Voigt Hill
#
# Bulk Modulus (GPa) = 12.37187 22.62367 17.49777
# Shear Modulus (GPa) = 15.77370 27.06016 21.41693
#
# Velocity S-wave (km/s) = 2.58943 3.39158 3.01728
# Velocity P-wave (km/s) = 3.76819 4.99540 4.42455
#
# Compressibility (1/GPa) = 0.08082851
#
# Stress axis : x y z
#
# Youngs Moduli (GPa) = 21.57762 122.33410 42.48578
#
# Poissons Ratio (x) = -0.13539 0.00422
# Poissons Ratio (y) = -0.02388 -0.01610
# Poissons Ratio (z) = 0.00215 -0.04637
#
# Static dielectric constant tensor:
#      x y z
#    x 1.910380 0.000000 0.040680 
#    y 0.000000 2.084870 0.000010 
#    z 0.040680 0.000010 1.828950 
# 
# From -- ./inp_files/282078.got.cif
#   From: 2010.05.17/outbox.cif.g08.bks.cpg/sg15_142_cif.got.tgz:282078.got - 2010.06.03 18:47:42.
