data_PCOD9262909
_publ_section_title
;
Structure prediction by ZEFSAII (Michael W. Deem and Ramdas Pophale) SiO2 
 PCOD9262909
Probable space group: C 2/C
;
_chemical_formula_sum "Si O2"
_cell_formula_units_Z 48
_cell_length_a 21.125484
_cell_length_b 7.807788
_cell_length_c 14.051771
_cell_angle_alpha 90.000000
_cell_angle_beta 52.943260
_cell_angle_gamma 90.000000
_cell_volume 1849.651617
_symmetry_space_group_name_H-M "C 2/C"
_symmetry_group_IT_number 15
_symmetry_cell_setting 'monoclinic'
loop_
_space_group_symop_operation_xyz
x,y,z
-x,y,1/2-z
-x,-y,-z
x,-y,1/2+z
1/2+x,1/2+y,z
1/2-x,1/2+y,1/2-z
1/2-x,1/2-y,-z
1/2+x,1/2-y,1/2+z
loop_
_atom_site_type_symbol
_atom_site_label
_atom_site_fract_x
_atom_site_fract_y
_atom_site_fract_z
Si Si1 0.406200 0.366146 0.901799
Si Si2 0.321000 0.912530 0.012815
Si Si3 0.920659 0.255444 0.198060
Si Si4 0.860780 0.830170 0.318031
Si Si5 0.821057 0.932973 0.635388
Si Si6 0.636543 0.914152 0.849380
O O1 0.489683 0.306198 0.868831
O O2 0.382179 0.237582 0.838311
O O3 0.414490 0.542291 0.830727
O O4 0.348704 0.419083 0.039289
O O5 0.225573 0.922642 0.094385
O O6 0.330199 0.741323 0.067735
O O7 0.363792 0.059079 0.035856
O O8 0.353393 0.849554 0.882661
O O9 0.915937 0.435472 0.148722
O O10 0.873442 0.114211 0.179564
O O11 0.879780 0.760266 0.194602
O O12 0.729250 0.955759 0.743611
#
# Coordination Sequence:
#
# PCOD9262909 Si02
#       6
#     8   8   8   8   8   8
#     4  10  20  36  55  79 114 153 182 218 278 344
#     4   8  16  31  53  85 116 141 180 231 276 327
#     4  10  21  36  54  82 114 142 182 234 278 323
#     4   9  17  33  56  80 113 153 184 218 277 341
#     4   9  18  33  57  82 110 148 184 223 278 336
#     4  10  19  33  57  88 114 140 184 240 277 317
#
# _framework density 25.950831000000001
#
# number of rings (size 3 to 8) (size 9 to 14) (size 15 to 20)
#    0.000    2.667    0.000    2.500    0.000    0.667 
#    0.000    8.333    0.000    0.000    0.000   47.833 
#    0.000    0.000    0.000    0.000    0.000    0.000 
#
# Total GULP energy -134180.914304 kJ/mol
# GULP energy per Si atom -5590.871429 kJ/mol
# Density = 2.589177 g / cm^3
# Si number density = 25.950831 Si / 1000 Ang^3
#
#
#
# Elastic Constant Matrix: (Units=GPa)
#
#
# Indices 1 2 3 4 5 6 
#
# 1 143.9980 45.5040 19.7699 -0.0001 28.3175 0.0000
# 2 45.5040 118.0828 5.2929 -0.0003 2.0129 0.0002
# 3 19.7699 5.2929 88.1407 -0.0001 38.0142 0.0001
# 4 -0.0001 -0.0003 -0.0001 38.6891 0.0000 11.5119
# 5 28.3175 2.0129 38.0142 0.0000 34.4328 0.0000
# 6 0.0000 0.0002 0.0001 11.5119 0.0000 43.6731
#
#
#
# Elastic Compliance Matrix: (Units=1/GPa)
#
#
# Indices 1 2 3 4 5 6 
#
# 1 0.009906 -0.003753 0.002715 0.000000 -0.010925 0.000000
# 2 -0.003753 0.009914 -0.001593 0.000000 0.004266 0.000000
# 3 0.002715 -0.001593 0.022440 0.000000 -0.026914 0.000000
# 4 0.000000 0.000000 0.000000 0.028047 0.000000 -0.007393
# 5 -0.010925 0.004266 -0.026914 0.000000 0.067491 0.000000
# 6 0.000000 0.000000 0.000000 -0.007393 0.000000 0.024846
#
#
# Mechanical properties :
#
#
# Convention : Reuss Voigt Hill
#
# Bulk Modulus (GPa) = 27.02881 54.59500 40.81191
# Shear Modulus (GPa) = 27.74118 42.00265 34.87191
#
# Velocity S-wave (km/s) = 3.27309 4.02748 3.66972
# Velocity P-wave (km/s) = 4.97214 6.53537 5.80660
#
# Compressibility (1/GPa) = 0.03699756
#
# Stress axis : x y z
#
# Youngs Moduli (GPa) = 100.94764 100.87224 44.56377
#
# Poissons Ratio (x) = 0.37856 -0.12101
# Poissons Ratio (y) = 0.37884 0.07101
# Poissons Ratio (z) = -0.27411 0.16073
#
# Static dielectric constant tensor:
#      x y z
#    x 2.021510 0.000000 0.062400 
#    y 0.000000 2.103420 0.000000 
#    z 0.062400 0.000000 2.126340 
# 
# From -- ./inp_files/166135.got.cif
#   From: 2010.05.17/outbox.cif.g08.bks.cpg/sg15_84_cif.got.tgz:166135.got - 2010.06.03 18:47:42.
