data_PCOD9262830
_publ_section_title
;
Structure prediction by ZEFSAII (Michael W. Deem and Ramdas Pophale) SiO2 
 PCOD9262830
Probable space group: C 2/C
;
_chemical_formula_sum "Si O2"
_cell_formula_units_Z 40
_cell_length_a 7.237265
_cell_length_b 13.331714
_cell_length_c 19.149200
_cell_angle_alpha 90.000000
_cell_angle_beta 118.566881
_cell_angle_gamma 90.000000
_cell_volume 1622.684057
_symmetry_space_group_name_H-M "C 2/C"
_symmetry_group_IT_number 15
_symmetry_cell_setting 'monoclinic'
loop_
_space_group_symop_operation_xyz
x,y,z
-x,y,1/2-z
-x,-y,-z
x,-y,1/2+z
1/2+x,1/2+y,z
1/2-x,1/2+y,1/2-z
1/2-x,1/2-y,-z
1/2+x,1/2-y,1/2+z
loop_
_atom_site_type_symbol
_atom_site_label
_atom_site_fract_x
_atom_site_fract_y
_atom_site_fract_z
Si Si1 0.018566 0.029321 0.380914
Si Si2 0.317963 0.818139 0.671026
Si Si3 0.924319 0.298370 0.482355
Si Si4 0.179049 0.121321 0.558008
Si Si5 0.470644 0.031996 0.403553
O O1 0.835579 0.101355 0.319157
O O2 0.073026 0.079462 0.467029
O O3 0.220893 0.024677 0.368318
O O4 0.930518 0.922481 0.392257
O O5 0.500000 0.770464 0.750000
O O6 0.167692 0.736217 0.608108
O O7 0.445612 0.887930 0.638792
O O8 0.750000 0.250000 0.500000
O O9 0.137710 0.239538 0.543624
O O10 0.941987 0.411867 0.510426
O O11 0.406331 0.069679 0.594823
#
# Coordination Sequence:
#
# PCOD9262830 Si02
#       5
#     8   8   8   8   8
#     4   9  17  31  52  79 106 139 183 221 285 332
#     4   9  19  33  49  77 110 142 180 231 280 334
#     4   9  18  33  55  86 105 148 191 233 287 341
#     4   9  18  32  51  84 114 137 174 249 288 316
#     4  10  19  33  56  86 104 146 195 237 284 348
#
# _framework density 24.650516
#
# number of rings (size 3 to 8) (size 9 to 14) (size 15 to 20)
#    0.000    2.800    0.000    4.200    0.000    4.000 
#    0.000    4.000    0.000    0.000  280.800    0.000 
#    0.000    0.000    0.000    0.000    0.000    0.000 
#
# Total GULP energy -111642.404345 kJ/mol
# GULP energy per Si atom -5582.120217 kJ/mol
# Density = 2.459441 g / cm^3
# Si number density = 24.650516 Si / 1000 Ang^3
#
#
#
# Elastic Constant Matrix: (Units=GPa)
#
#
# Indices 1 2 3 4 5 6 
#
# 1 203.3841 59.7630 21.4782 0.0000 9.6218 0.0000
# 2 59.7630 150.7263 44.7562 0.0000 23.6814 0.0000
# 3 21.4782 44.7562 47.3228 0.0000 19.6410 0.0000
# 4 0.0000 0.0000 0.0000 10.1963 0.0000 4.8486
# 5 9.6218 23.6814 19.6410 0.0000 17.4537 0.0000
# 6 0.0000 0.0000 0.0000 4.8486 0.0000 38.4757
#
#
#
# Elastic Compliance Matrix: (Units=1/GPa)
#
#
# Indices 1 2 3 4 5 6 
#
# 1 0.005582 -0.002065 -0.000875 0.000000 0.000709 0.000000
# 2 -0.002065 0.010234 -0.006475 0.000000 -0.005460 0.000000
# 3 -0.000875 -0.006475 0.044669 0.000000 -0.040999 0.000000
# 4 0.000000 0.000000 0.000000 0.104327 0.000000 -0.013147
# 5 0.000709 -0.005460 -0.040999 0.000000 0.110449 0.000000
# 6 0.000000 0.000000 0.000000 -0.013147 0.000000 0.027647
#
#
# Mechanical properties :
#
#
# Convention : Reuss Voigt Hill
#
# Bulk Modulus (GPa) = 24.00694 72.60312 48.30503
# Shear Modulus (GPa) = 14.89764 31.58752 23.24258
#
# Velocity S-wave (km/s) = 2.46103 3.58357 3.07397
# Velocity P-wave (km/s) = 4.22322 6.82931 5.67781
#
# Compressibility (1/GPa) = 0.04165462
#
# Stress axis : x y z
#
# Youngs Moduli (GPa) = 179.13255 97.71319 22.38692
#
# Poissons Ratio (x) = 0.20178 0.01959
# Poissons Ratio (y) = 0.36992 0.14497
# Poissons Ratio (z) = 0.15672 0.63274
#
# Static dielectric constant tensor:
#      x y z
#    x 2.046520 0.000000 -0.005860 
#    y 0.000000 2.042490 0.000000 
#    z -0.005860 0.000000 2.020230 
# 
# From -- ./inp_files/230830.got.cif
#   From: 2010.05.17/outbox.cif.g08.bks.cpg/sg15_116_cif.got.tgz:230830.got - 2010.06.03 18:47:42.
