data_PCOD9262710
_publ_section_title
;
Structure prediction by ZEFSAII (Michael W. Deem and Ramdas Pophale) SiO2 
 PCOD9262710
Probable space group: C 2/C
;
_chemical_formula_sum "Si O2"
_cell_formula_units_Z 48
_cell_length_a 18.659515
_cell_length_b 16.299155
_cell_length_c 9.734207
_cell_angle_alpha 90.000000
_cell_angle_beta 119.861800
_cell_angle_gamma 90.000000
_cell_volume 2567.436810
_symmetry_space_group_name_H-M "C 2/C"
_symmetry_group_IT_number 15
_symmetry_cell_setting 'monoclinic'
loop_
_space_group_symop_operation_xyz
x,y,z
-x,y,1/2-z
-x,-y,-z
x,-y,1/2+z
1/2+x,1/2+y,z
1/2-x,1/2+y,1/2-z
1/2-x,1/2-y,-z
1/2+x,1/2-y,1/2+z
loop_
_atom_site_type_symbol
_atom_site_label
_atom_site_fract_x
_atom_site_fract_y
_atom_site_fract_z
Si Si1 0.391062 0.047743 0.770528
Si Si2 0.719399 0.581654 0.724273
Si Si3 0.500000 0.611504 0.250000
Si Si4 0.422395 0.095024 0.495804
Si Si5 0.084815 0.782337 0.064143
Si Si6 0.365095 0.521923 0.592273
Si Si7 0.500000 0.341207 0.250000
O O1 0.313281 0.090300 0.767652
O O2 0.387401 0.054546 0.602390
O O3 0.393917 0.956268 0.836204
O O4 0.478218 0.087748 0.897434
O O5 0.668476 0.665330 0.656928
O O6 0.702265 0.550185 0.861316
O O7 0.677109 0.515056 0.582333
O O8 0.528206 0.668794 0.401357
O O9 0.576504 0.550613 0.291100
O O10 0.399565 0.189837 0.465698
O O11 0.037967 0.788034 0.164449
O O12 0.427574 0.597703 0.627302
#
# Coordination Sequence:
#
# PCOD9262710 Si02
#       7
#     8   8   4   8   8   8   4
#     4  10  21  38  57  75 102 138 177 213 256 315
#     4  10  19  33  55  81 107 135 172 218 258 300
#     4   9  16  30  52  79 112 144 172 205 252 314
#     4  10  22  39  57  75 100 140 179 212 259 314
#     4  10  20  34  55  81 106 134 173 219 260 300
#     4   9  17  30  51  79 111 145 173 203 256 315
#     4   9  18  32  50  77 112 144 172 207 258 316
#
# _framework density 18.695687
#
# number of rings (size 3 to 8) (size 9 to 14) (size 15 to 20)
#    0.000    2.333    0.000    3.000    0.000    7.333 
#    0.000    3.333    0.000    5.000    0.000    0.000 
#    0.000    0.000    0.000    0.000    0.000    0.000 
#
# Total GULP energy -133934.096928 kJ/mol
# GULP energy per Si atom -5580.587372 kJ/mol
# Density = 1.865314 g / cm^3
# Si number density = 18.695687 Si / 1000 Ang^3
#
#
#
# Elastic Constant Matrix: (Units=GPa)
#
#
# Indices 1 2 3 4 5 6 
#
# 1 121.1426 10.8687 22.1292 0.0000 -10.1036 0.0000
# 2 10.8687 72.3103 29.2391 0.0000 -17.4842 0.0000
# 3 22.1292 29.2391 38.5144 0.0000 -16.6014 0.0000
# 4 0.0000 0.0000 0.0000 11.8826 0.0000 -6.0675
# 5 -10.1036 -17.4842 -16.6014 0.0000 20.5548 0.0000
# 6 0.0000 0.0000 0.0000 -6.0675 0.0000 9.2115
#
#
#
# Elastic Compliance Matrix: (Units=1/GPa)
#
#
# Indices 1 2 3 4 5 6 
#
# 1 0.009292 0.001180 -0.005880 0.000000 0.000821 0.000000
# 2 0.001180 0.020839 -0.013205 0.000000 0.007641 0.000000
# 3 -0.005880 -0.013205 0.051054 0.000000 0.027112 0.000000
# 4 0.000000 0.000000 0.000000 0.126808 0.000000 0.083527
# 5 0.000821 0.007641 0.027112 0.000000 0.077451 0.000000
# 6 0.000000 0.000000 0.000000 0.083527 0.000000 0.163579
#
#
# Mechanical properties :
#
#
# Convention : Reuss Voigt Hill
#
# Bulk Modulus (GPa) = 22.03886 39.60459 30.82173
# Shear Modulus (GPa) = 10.00086 19.64513 14.82299
#
# Velocity S-wave (km/s) = 2.31536 3.24510 2.81883
# Velocity P-wave (km/s) = 4.35450 5.93891 5.20732
#
# Compressibility (1/GPa) = 0.04537440
#
# Stress axis : x y z
#
# Youngs Moduli (GPa) = 107.62483 47.98741 19.58710
#
# Poissons Ratio (x) = -0.05661 0.11517
# Poissons Ratio (y) = -0.12697 0.25864
# Poissons Ratio (z) = 0.63285 0.63365
#
# Static dielectric constant tensor:
#      x y z
#    x 1.639390 0.000000 0.005050 
#    y 0.000000 1.612190 0.000000 
#    z 0.005050 0.000000 1.648610 
# 
# From -- ./inp_files/48751.got.cif
#   From: 2010.05.17/outbox.cif.g08.bks.cpg/sg15_25_cif.got.tgz:48751.got - 2010.06.03 18:47:42.
