data_PCOD9262041
_publ_section_title
;
Structure prediction by ZEFSAII (Michael W. Deem and Ramdas Pophale) SiO2 
 PCOD9262041
Probable space group: C 2/C
;
_chemical_formula_sum "Si O2"
_cell_formula_units_Z 52
_cell_length_a 14.541598
_cell_length_b 6.669104
_cell_length_c 24.485216
_cell_angle_alpha 90.000000
_cell_angle_beta 65.018985
_cell_angle_gamma 90.000000
_cell_volume 2152.416685
_symmetry_space_group_name_H-M "C 2/C"
_symmetry_group_IT_number 15
_symmetry_cell_setting 'monoclinic'
loop_
_space_group_symop_operation_xyz
x,y,z
-x,y,1/2-z
-x,-y,-z
x,-y,1/2+z
1/2+x,1/2+y,z
1/2-x,1/2+y,1/2-z
1/2-x,1/2-y,-z
1/2+x,1/2-y,1/2+z
loop_
_atom_site_type_symbol
_atom_site_label
_atom_site_fract_x
_atom_site_fract_y
_atom_site_fract_z
Si Si1 0.074237 0.398610 0.555132
Si Si2 0.307095 0.805411 0.541309
Si Si3 0.851800 0.457768 0.125356
Si Si4 0.892600 0.905867 0.542024
Si Si5 0.093155 0.624775 0.171261
Si Si6 0.000000 0.007976 0.250000
Si Si7 0.118232 0.385095 0.263713
O O1 0.095020 0.588665 0.510970
O O2 0.125446 0.222812 0.507829
O O3 0.126710 0.393799 0.600759
O O4 0.952555 0.399325 0.595597
O O5 0.250000 0.750000 0.500000
O O6 0.323567 0.596509 0.566320
O O7 0.275460 0.954676 0.598525
O O8 0.820281 0.425294 0.195951
O O9 0.886434 0.241718 0.094412
O O10 0.000000 0.000000 0.500000
O O11 0.060493 0.850530 0.195958
O O12 0.158085 0.511195 0.201559
O O13 0.989225 0.494721 0.197305
O O14 0.081873 0.158992 0.258018
#
# Coordination Sequence:
#
# PCOD9262041 Si02
#       7
#     8   8   8   8   8   4   8
#     4  10  19  32  52  80 109 135 177 220 256 314
#     4  11  23  37  51  77 111 141 173 217 272 308
#     4  10  19  32  52  80 109 135 177 220 256 314
#     4  11  19  31  55  78 101 141 179 208 259 313
#     4   8  16  27  44  73 110 132 166 216 265 300
#     4   8  14  24  40  68 104 140 162 204 272 314
#     4   8  16  27  44  73 110 132 166 216 265 300
#
# _framework density 24.15889
#
# number of rings (size 3 to 8) (size 9 to 14) (size 15 to 20)
#    0.000    2.769    3.077    0.923    2.154    4.923 
#    0.000    0.000    0.000    0.000    8.000    0.000 
#    0.000    0.000    0.000    0.000    0.000    0.000 
#
# Total GULP energy -144848.251395 kJ/mol
# GULP energy per Si atom -5571.086592 kJ/mol
# Density = 2.410390 g / cm^3
# Si number density = 24.158890 Si / 1000 Ang^3
#
#
#
# Elastic Constant Matrix: (Units=GPa)
#
#
# Indices 1 2 3 4 5 6 
#
# 1 38.3527 19.4209 15.2429 0.0000 5.0455 -0.0001
# 2 19.4209 143.6378 49.9136 0.0000 9.7953 -0.0003
# 3 15.2429 49.9136 199.9701 0.0000 29.9685 0.0000
# 4 0.0000 0.0000 0.0000 17.2221 0.0000 6.2275
# 5 5.0455 9.7953 29.9685 0.0000 29.9019 0.0000
# 6 -0.0001 -0.0003 0.0000 6.2275 0.0000 6.0006
#
#
#
# Elastic Compliance Matrix: (Units=1/GPa)
#
#
# Indices 1 2 3 4 5 6 
#
# 1 0.028500 -0.003343 -0.000919 0.000000 -0.002792 0.000000
# 2 -0.003343 0.008028 -0.001694 0.000000 -0.000368 0.000000
# 3 -0.000919 -0.001694 0.006339 0.000000 -0.005644 0.000000
# 4 0.000000 0.000000 0.000000 0.092944 0.000000 -0.096457
# 5 -0.002792 -0.000368 -0.005644 0.000000 0.039691 0.000000
# 6 0.000000 0.000000 0.000000 -0.096457 0.000000 0.266753
#
#
# Mechanical properties :
#
#
# Convention : Reuss Voigt Hill
#
# Bulk Modulus (GPa) = 32.30664 61.23506 46.77085
# Shear Modulus (GPa) = 10.76461 30.45046 20.60754
#
# Velocity S-wave (km/s) = 2.11316 3.55410 2.92378
# Velocity P-wave (km/s) = 4.39949 6.49954 5.54975
#
# Compressibility (1/GPa) = 0.03095339
#
# Stress axis : x y z
#
# Youngs Moduli (GPa) = 35.08823 124.56893 157.74461
#
# Poissons Ratio (x) = 0.41649 0.14503
# Poissons Ratio (y) = 0.11732 0.26718
# Poissons Ratio (z) = 0.03226 0.21099
#
# Static dielectric constant tensor:
#      x y z
#    x 2.045300 0.000000 0.100210 
#    y 0.000000 2.111660 0.000000 
#    z 0.100210 0.000000 2.055700 
# 
# From -- ./inp_files/285917.got.cif
#   From: 2010.05.17/outbox.cif.g08.bks.cpg/sg15_143_cif.got.tgz:285917.got - 2010.06.03 18:47:42.
