data_PCOD9262044
_publ_section_title
;
Structure prediction by ZEFSAII (Michael W. Deem and Ramdas Pophale) SiO2 
 PCOD9262044
Probable space group: C 2/C
;
_chemical_formula_sum "Si O2"
_cell_formula_units_Z 52
_cell_length_a 5.558276
_cell_length_b 13.902262
_cell_length_c 31.606088
_cell_angle_alpha 90.000000
_cell_angle_beta 62.177725
_cell_angle_gamma 90.000000
_cell_volume 2159.955753
_symmetry_space_group_name_H-M "C 2/C"
_symmetry_group_IT_number 15
_symmetry_cell_setting 'monoclinic'
loop_
_space_group_symop_operation_xyz
x,y,z
-x,y,1/2-z
-x,-y,-z
x,-y,1/2+z
1/2+x,1/2+y,z
1/2-x,1/2+y,1/2-z
1/2-x,1/2-y,-z
1/2+x,1/2-y,1/2+z
loop_
_atom_site_type_symbol
_atom_site_label
_atom_site_fract_x
_atom_site_fract_y
_atom_site_fract_z
Si Si1 0.492974 0.909576 0.161360
Si Si2 0.220577 0.850235 0.060540
Si Si3 0.686031 0.560467 0.317694
Si Si4 0.376340 0.967740 0.593682
Si Si5 0.388977 0.202889 0.040277
Si Si6 0.000000 0.998043 0.750000
Si Si7 0.836502 0.228956 0.127818
O O1 0.539470 0.965551 0.113004
O O2 0.478766 0.798091 0.150898
O O3 0.201613 0.937836 0.205321
O O4 0.705120 0.956963 0.176127
O O5 0.248402 0.962146 0.068577
O O6 0.172623 0.798091 0.109611
O O7 0.999386 0.805699 0.046986
O O8 0.505673 0.820177 0.014933
O O9 0.372407 0.570679 0.357650
O O10 0.682031 0.563521 0.267559
O O11 0.819836 0.644897 0.334748
O O12 0.526020 0.879614 0.559141
O O13 0.075243 0.189996 0.077659
#
# Coordination Sequence:
#
# PCOD9262044 Si02
#       7
#     8   8   8   8   8   4   8
#     4  10  20  38  58  78 109 143 180 233 287 342
#     4  10  19  32  52  80 114 149 188 230 270 322
#     4  10  20  38  58  78 109 143 180 233 287 342
#     4   9  19  33  53  78 110 148 189 223 279 333
#     4  10  19  32  52  80 114 149 188 230 270 322
#     4  10  22  40  54  82 104 132 180 232 284 352
#     4  10  21  36  56  84 106 150 186 226 279 342
#
# _framework density 24.074570000000001
#
# number of rings (size 3 to 8) (size 9 to 14) (size 15 to 20)
#    0.000    2.154    0.000    3.231    0.000    0.000 
#    5.538    0.000    0.000   14.769    0.000    0.000 
#    0.000    0.000    0.000    0.000    0.000    0.000 
#
# Total GULP energy -145126.336717 kJ/mol
# GULP energy per Si atom -5581.782181 kJ/mol
# Density = 2.401977 g / cm^3
# Si number density = 24.074570 Si / 1000 Ang^3
#
#
#
# Elastic Constant Matrix: (Units=GPa)
#
#
# Indices 1 2 3 4 5 6 
#
# 1 41.4592 5.6691 12.7401 0.0002 5.2602 0.0001
# 2 5.6691 89.7949 42.1319 0.0001 7.2075 0.0000
# 3 12.7401 42.1319 111.8222 0.0002 3.0556 -0.0001
# 4 0.0002 0.0001 0.0002 25.7746 -0.0001 -2.0233
# 5 5.2602 7.2075 3.0556 -0.0001 33.7805 0.0000
# 6 0.0001 0.0000 -0.0001 -2.0233 0.0000 20.7441
#
#
#
# Elastic Compliance Matrix: (Units=1/GPa)
#
#
# Indices 1 2 3 4 5 6 
#
# 1 0.025451 0.000005 -0.002800 0.000000 -0.003711 0.000000
# 2 0.000005 0.013730 -0.005106 0.000000 -0.002468 0.000000
# 3 -0.002800 -0.005106 0.011172 0.000000 0.000515 0.000000
# 4 0.000000 0.000000 0.000000 0.039097 0.000000 0.003813
# 5 -0.003711 -0.002468 0.000515 0.000000 0.030661 0.000000
# 6 0.000000 0.000000 0.000000 0.003813 0.000000 0.048579
#
#
# Mechanical properties :
#
#
# Convention : Reuss Voigt Hill
#
# Bulk Modulus (GPa) = 28.94398 40.46204 34.70301
# Shear Modulus (GPa) = 25.50909 28.22886 26.86897
#
# Velocity S-wave (km/s) = 3.25866 3.42798 3.34439
# Velocity P-wave (km/s) = 5.11930 5.70189 5.41843
#
# Compressibility (1/GPa) = 0.03454950
#
# Stress axis : x y z
#
# Youngs Moduli (GPa) = 39.29167 72.83219 89.51236
#
# Poissons Ratio (x) = -0.00035 0.25064
# Poissons Ratio (y) = -0.00019 0.45708
# Poissons Ratio (z) = 0.11002 0.37190
#
# Static dielectric constant tensor:
#      x y z
#    x 2.073540 0.000000 0.038530 
#    y 0.000000 1.967370 0.000000 
#    z 0.038530 0.000000 1.933580 
# 
# From -- ./inp_files/305326.got.cif
#   From: 2010.05.17/outbox.cif.g08.bks.cpg/sg15_153_cif.got.tgz:305326.got - 2010.06.03 18:47:42.
