data_PCOD9262568
_publ_section_title
;
Structure prediction by ZEFSAII (Michael W. Deem and Ramdas Pophale) SiO2 
 PCOD9262568
Probable space group: C 2/C
;
_chemical_formula_sum "Si O2"
_cell_formula_units_Z 52
_cell_length_a 21.729937
_cell_length_b 17.702529
_cell_length_c 8.825420
_cell_angle_alpha 90.000000
_cell_angle_beta 39.596341
_cell_angle_gamma 90.000000
_cell_volume 2163.834500
_symmetry_space_group_name_H-M "C 2/C"
_symmetry_group_IT_number 15
_symmetry_cell_setting 'monoclinic'
loop_
_space_group_symop_operation_xyz
x,y,z
-x,y,1/2-z
-x,-y,-z
x,-y,1/2+z
1/2+x,1/2+y,z
1/2-x,1/2+y,1/2-z
1/2-x,1/2-y,-z
1/2+x,1/2-y,1/2+z
loop_
_atom_site_type_symbol
_atom_site_label
_atom_site_fract_x
_atom_site_fract_y
_atom_site_fract_z
Si Si1 0.426922 0.345196 0.708318
Si Si2 0.887736 0.895628 0.476842
Si Si3 0.203804 0.047648 0.883710
Si Si4 0.383894 0.201461 0.969062
Si Si5 0.377993 0.066654 0.768400
Si Si6 0.500000 0.952891 0.750000
Si Si7 0.654799 0.325020 0.258185
O O1 0.396553 0.336606 0.593949
O O2 0.374801 0.277395 0.890516
O O3 0.541092 0.341106 0.512731
O O4 0.386615 0.423638 0.845484
O O5 0.844331 0.854028 0.414428
O O6 0.000000 0.920744 0.250000
O O7 0.826112 0.969212 0.631906
O O8 0.290302 0.035302 0.836020
O O9 0.218513 0.115968 0.735744
O O10 0.500000 0.184282 0.750000
O O11 0.344081 0.133878 0.943531
O O12 0.340641 0.234921 0.209377
O O13 0.427354 0.007145 0.790687
O O14 0.449710 0.089443 0.489835
#
# Coordination Sequence:
#
# PCOD9262568 Si02
#       7
#     8   8   8   8   8   4   8
#     4   9  19  34  56  93 128 161 200 230 293 370
#     4  10  19  33  53  94 135 162 195 241 283 354
#     4  11  21  32  62  86 124 167 200 245 302 351
#     4   9  18  40  63  84 115 164 194 243 308 360
#     4  11  24  44  68  86 115 152 208 263 312 360
#     4  10  26  48  62  92 108 148 212 272 314 358
#     4   9  19  34  56  92 132 162 198 230 290 375
#
# _framework density 24.031413000000001
#
# number of rings (size 3 to 8) (size 9 to 14) (size 15 to 20)
#    0.000    2.154    0.769    3.231    4.308    4.923 
#    6.923    0.000    0.000    1.846    0.000    0.000 
#    0.000    0.000    0.000    0.000    0.000    0.000 
#
# Total GULP energy -144971.814356 kJ/mol
# GULP energy per Si atom -5575.839014 kJ/mol
# Density = 2.397672 g / cm^3
# Si number density = 24.031413 Si / 1000 Ang^3
#
#
#
# Elastic Constant Matrix: (Units=GPa)
#
#
# Indices 1 2 3 4 5 6 
#
# 1 154.0211 33.8358 9.0357 0.0000 14.1250 0.0000
# 2 33.8358 64.5431 20.3437 0.0000 2.1180 0.0000
# 3 9.0357 20.3437 29.3932 0.0000 8.9992 0.0000
# 4 0.0000 0.0000 0.0000 5.7220 0.0000 -5.9423
# 5 14.1250 2.1180 8.9992 0.0000 42.5805 0.0000
# 6 0.0000 0.0000 0.0000 -5.9423 0.0000 17.2487
#
#
#
# Elastic Compliance Matrix: (Units=1/GPa)
#
#
# Indices 1 2 3 4 5 6 
#
# 1 0.007606 -0.004371 0.001489 0.000000 -0.002620 0.000000
# 2 -0.004371 0.022496 -0.015319 0.000000 0.003568 0.000000
# 3 0.001489 -0.015319 0.047134 0.000000 -0.009694 0.000000
# 4 0.000000 0.000000 0.000000 0.272120 0.000000 0.093747
# 5 -0.002620 0.003568 -0.009694 0.000000 0.026225 0.000000
# 6 0.000000 0.000000 0.000000 0.093747 0.000000 0.090272
#
#
# Mechanical properties :
#
#
# Convention : Reuss Voigt Hill
#
# Bulk Modulus (GPa) = 24.48872 41.59864 33.04368
# Shear Modulus (GPa) = 9.69243 25.42638 17.55941
#
# Velocity S-wave (km/s) = 2.01047 3.25629 2.70605
# Velocity P-wave (km/s) = 3.94990 5.61120 4.85218
#
# Compressibility (1/GPa) = 0.04083512
#
# Stress axis : x y z
#
# Youngs Moduli (GPa) = 131.48026 44.45196 21.21596
#
# Poissons Ratio (x) = 0.19428 -0.03159
# Poissons Ratio (y) = 0.57465 0.32501
# Poissons Ratio (z) = -0.19580 0.68097
#
# Static dielectric constant tensor:
#      x y z
#    x 1.924530 0.000000 0.024320 
#    y 0.000000 1.886830 0.000000 
#    z 0.024320 0.000000 2.107000 
# 
# From -- ./inp_files/56942.got.cif
#   From: 2010.05.17/outbox.cif.g08.bks.cpg/sg15_29_cif.got.tgz:56942.got - 2010.06.03 18:47:42.
