data_PCOD9262531
_publ_section_title
;
Structure prediction by ZEFSAII (Michael W. Deem and Ramdas Pophale) SiO2 
 PCOD9262531
Probable space group: C 2/C
;
_chemical_formula_sum "Si O2"
_cell_formula_units_Z 48
_cell_length_a 18.311773
_cell_length_b 18.838841
_cell_length_c 16.195135
_cell_angle_alpha 90.000000
_cell_angle_beta 28.789438
_cell_angle_gamma 90.000000
_cell_volume 2690.596215
_symmetry_space_group_name_H-M "C 2/C"
_symmetry_group_IT_number 15
_symmetry_cell_setting 'monoclinic'
loop_
_space_group_symop_operation_xyz
x,y,z
-x,y,1/2-z
-x,-y,-z
x,-y,1/2+z
1/2+x,1/2+y,z
1/2-x,1/2+y,1/2-z
1/2-x,1/2-y,-z
1/2+x,1/2-y,1/2+z
loop_
_atom_site_type_symbol
_atom_site_label
_atom_site_fract_x
_atom_site_fract_y
_atom_site_fract_z
Si Si1 0.421278 0.575056 0.060578
Si Si2 0.457105 0.328473 0.197327
Si Si3 0.388720 0.293843 0.702352
Si Si4 0.360914 0.203288 0.569070
Si Si5 0.585221 0.830067 0.080597
Si Si6 0.563042 0.921517 0.943577
O O1 0.459336 0.635702 0.091209
O O2 0.238597 0.575119 0.242604
O O3 0.500000 0.500000 0.000000
O O4 0.479045 0.605043 0.916782
O O5 0.500000 0.335531 0.250000
O O6 0.282710 0.319582 0.342780
O O7 0.539639 0.258427 0.081058
O O8 0.317179 0.247804 0.696259
O O9 0.510135 0.241992 0.621231
O O10 0.264793 0.315529 0.893726
O O11 0.462863 0.135675 0.492763
O O12 0.500000 0.846132 0.250000
O O13 0.556939 0.892454 0.042996
O O14 0.500000 0.000000 0.000000
#
# Coordination Sequence:
#
# PCOD9262531 Si02
#       6
#     8   8   8   8   8   8
#     4  10  20  37  56  77 107 145 183 220 268 332
#     4  11  21  35  56  84 110 138 180 233 275 316
#     4   9  18  33  55  78 104 141 176 211 266 324
#     4  10  19  35  57  80 110 146 182 218 269 334
#     4  10  19  33  53  80 106 131 174 226 265 307
#     4  10  21  37  56  77 106 149 185 214 267 333
#
# _framework density 17.839912000000002
#
# number of rings (size 3 to 8) (size 9 to 14) (size 15 to 20)
#    0.000    2.000    0.000    7.000    0.000    1.333 
#    0.000    6.667    0.000    0.000    0.000    0.000 
#    0.000    0.000    0.000    0.000    0.000    0.000 
#
# Total GULP energy -133868.077980 kJ/mol
# GULP energy per Si atom -5577.836583 kJ/mol
# Density = 1.779931 g / cm^3
# Si number density = 17.839912 Si / 1000 Ang^3
#
#
#
# Elastic Constant Matrix: (Units=GPa)
#
#
# Indices 1 2 3 4 5 6 
#
# 1 82.5877 51.0156 62.5673 -0.0016 -5.5036 0.0001
# 2 51.0156 153.7728 63.8171 -0.0041 -1.1567 0.0021
# 3 62.5673 63.8171 107.9211 -0.0050 2.4138 0.0034
# 4 -0.0016 -0.0041 -0.0050 21.9318 0.0038 -9.9630
# 5 -5.5036 -1.1567 2.4138 0.0038 19.9418 -0.0019
# 6 0.0001 0.0021 0.0034 -9.9630 -0.0019 12.9213
#
#
#
# Elastic Compliance Matrix: (Units=1/GPa)
#
#
# Indices 1 2 3 4 5 6 
#
# 1 0.023568 -0.002673 -0.012258 -0.000001 0.007833 0.000004
# 2 -0.002673 0.008946 -0.003746 0.000001 0.000235 0.000000
# 3 -0.012258 -0.003746 0.018719 0.000002 -0.005866 -0.000003
# 4 -0.000001 0.000001 0.000002 0.070176 -0.000009 0.054109
# 5 0.007833 0.000235 -0.005866 -0.000009 0.053031 0.000003
# 6 0.000004 0.000000 -0.000003 0.054109 0.000003 0.119113
#
#
# Mechanical properties :
#
#
# Convention : Reuss Voigt Hill
#
# Bulk Modulus (GPa) = 72.04911 77.67574 74.86243
# Shear Modulus (GPa) = 14.90163 22.08442 18.49302
#
# Velocity S-wave (km/s) = 2.89329 3.52223 3.22313
# Velocity P-wave (km/s) = 7.18579 7.75735 7.47703
#
# Compressibility (1/GPa) = 0.01387942
#
# Stress axis : x y z
#
# Youngs Moduli (GPa) = 42.43037 111.78015 53.42149
#
# Poissons Ratio (x) = 0.29875 0.65486
# Poissons Ratio (y) = 0.11340 0.20011
# Poissons Ratio (z) = 0.52013 0.41872
#
# Static dielectric constant tensor:
#      x y z
#    x 1.638060 0.000000 -0.020070 
#    y 0.000000 1.582660 0.000000 
#    z -0.020070 0.000000 1.636710 
# 
# From -- ./inp_files/48354.got.cif
#   From: 2010.05.17/outbox.cif.g08.bks.cpg/sg15_25_cif.got.tgz:48354.got - 2010.06.03 18:47:42.
