data_PCOD9262878
_publ_section_title
;
Structure prediction by ZEFSAII (Michael W. Deem and Ramdas Pophale) SiO2 
 PCOD9262878
Probable space group: C 2/C
;
_chemical_formula_sum "Si O2"
_cell_formula_units_Z 48
_cell_length_a 10.076833
_cell_length_b 14.646287
_cell_length_c 17.649800
_cell_angle_alpha 90.000000
_cell_angle_beta 122.478481
_cell_angle_gamma 90.000000
_cell_volume 2197.477575
_symmetry_space_group_name_H-M "C 2/C"
_symmetry_group_IT_number 15
_symmetry_cell_setting 'monoclinic'
loop_
_space_group_symop_operation_xyz
x,y,z
-x,y,1/2-z
-x,-y,-z
x,-y,1/2+z
1/2+x,1/2+y,z
1/2-x,1/2+y,1/2-z
1/2-x,1/2-y,-z
1/2+x,1/2-y,1/2+z
loop_
_atom_site_type_symbol
_atom_site_label
_atom_site_fract_x
_atom_site_fract_y
_atom_site_fract_z
Si Si1 0.666692 0.946224 0.793717
Si Si2 0.702802 0.692826 0.587895
Si Si3 0.675806 0.493521 0.520957
Si Si4 0.982312 0.017732 0.332665
Si Si5 0.145136 0.240942 0.740141
Si Si6 0.495334 0.269681 0.883113
O O1 0.500000 0.994726 0.750000
O O2 0.638650 0.852665 0.739309
O O3 0.803599 0.008188 0.800175
O O4 0.725966 0.924501 0.897740
O O5 0.737531 0.593752 0.560865
O O6 0.635015 0.702804 0.651624
O O7 0.579111 0.738233 0.490920
O O8 0.873191 0.738867 0.636497
O O9 0.500000 0.500000 0.500000
O O10 0.632969 0.474472 0.421357
O O11 0.979010 0.122797 0.359961
O O12 0.000000 0.011606 0.250000
O O13 0.323889 0.224055 0.824657
O O14 0.000000 0.210787 0.750000
#
# Coordination Sequence:
#
# PCOD9262878 Si02
#       6
#     8   8   8   8   8   8
#     4   9  18  33  52  74 105 145 176 208 264 320
#     4  10  19  33  57  83 104 137 185 226 266 318
#     4   9  19  35  55  77 108 144 174 211 267 323
#     4   9  16  31  55  78 103 137 176 218 262 310
#     4  10  20  34  54  79 108 143 179 220 268 319
#     4   9  18  32  53  81 108 135 176 229 270 311
#
# _framework density 21.843226000000001
#
# number of rings (size 3 to 8) (size 9 to 14) (size 15 to 20)
#    0.000    2.667    0.000    3.500    0.000    2.000 
#    0.000    4.167    0.000    0.000    0.000    0.000 
#    0.000    0.000    0.000    0.000    0.000    0.000 
#
# Total GULP energy -133657.238169 kJ/mol
# GULP energy per Si atom -5569.051590 kJ/mol
# Density = 2.179351 g / cm^3
# Si number density = 21.843226 Si / 1000 Ang^3
#
#
#
# Elastic Constant Matrix: (Units=GPa)
#
#
# Indices 1 2 3 4 5 6 
#
# 1 145.4534 1.0362 75.4278 0.0000 -0.1976 0.0000
# 2 1.0362 42.2937 7.2067 0.0000 -3.7154 0.0000
# 3 75.4278 7.2067 157.3130 0.0000 -15.6416 0.0000
# 4 0.0000 0.0000 0.0000 16.8915 0.0000 -10.7409
# 5 -0.1976 -3.7154 -15.6416 0.0000 42.8008 0.0000
# 6 0.0000 0.0000 0.0000 -10.7409 0.0000 -15.5158
#
#
#
# Elastic Compliance Matrix: (Units=1/GPa)
#
#
# Indices 1 2 3 4 5 6 
#
# 1 0.009267 0.000419 -0.004623 0.000000 -0.001610 0.000000
# 2 0.000419 0.023974 -0.001133 0.000000 0.001669 0.000000
# 3 -0.004623 -0.001133 0.008938 0.000000 0.003147 0.000000
# 4 0.000000 0.000000 0.000000 0.041107 0.000000 -0.028456
# 5 -0.001610 0.001669 0.003147 0.000000 0.024651 0.000000
# 6 0.000000 0.000000 0.000000 -0.028456 0.000000 -0.044751
#
#
# Mechanical properties :
#
#
# Convention : Reuss Voigt Hill
#
# Bulk Modulus (GPa) = 31.74083 56.93349 44.33716
# Shear Modulus (GPa) = 59.26934 26.26126 42.76530
#
# Velocity S-wave (km/s) = 5.21468 3.47113 4.42954
# Velocity P-wave (km/s) = 7.12881 6.49508 6.81931
#
# Compressibility (1/GPa) = 0.03150516
#
# Stress axis : x y z
#
# Youngs Moduli (GPa) = 107.90937 41.71246 111.88205
#
# Poissons Ratio (x) = -0.01749 0.51719
# Poissons Ratio (y) = -0.04523 0.12680
# Poissons Ratio (z) = 0.49882 0.04727
#
# Static dielectric constant tensor:
#      x y z
#    x 1.890930 0.000000 0.055090 
#    y 0.000000 1.935150 0.000000 
#    z 0.055090 0.000000 1.985300 
# 
# From -- ./inp_files/191758.got.cif
#   From: 2010.05.17/outbox.cif.g08.bks.cpg/sg15_96_cif.got.tgz:191758.got - 2010.06.03 18:47:42.
