data_PCOD9262515
_publ_section_title
;
Structure prediction by ZEFSAII (Michael W. Deem and Ramdas Pophale) SiO2 
 PCOD9262515
Probable space group: C 2/C
;
_chemical_formula_sum "Si O2"
_cell_formula_units_Z 36
_cell_length_a 7.813344
_cell_length_b 31.748536
_cell_length_c 8.949682
_cell_angle_alpha 90.000000
_cell_angle_beta 53.163797
_cell_angle_gamma 90.000000
_cell_volume 1776.845529
_symmetry_space_group_name_H-M "C 2/C"
_symmetry_group_IT_number 15
_symmetry_cell_setting 'monoclinic'
loop_
_space_group_symop_operation_xyz
x,y,z
-x,y,1/2-z
-x,-y,-z
x,-y,1/2+z
1/2+x,1/2+y,z
1/2-x,1/2+y,1/2-z
1/2-x,1/2-y,-z
1/2+x,1/2-y,1/2+z
loop_
_atom_site_type_symbol
_atom_site_label
_atom_site_fract_x
_atom_site_fract_y
_atom_site_fract_z
Si Si1 0.500000 0.006775 0.750000
Si Si2 0.758276 0.448313 0.111616
Si Si3 0.898776 0.810537 0.643228
Si Si4 0.803684 0.717600 0.738730
Si Si5 0.239918 0.145260 0.553893
O O1 0.643988 0.034880 0.784808
O O2 0.649221 0.977695 0.567826
O O3 0.500000 0.450082 0.250000
O O4 0.832011 0.400216 0.044357
O O5 0.771078 0.766606 0.718784
O O6 0.775053 0.845858 0.614992
O O7 0.000000 0.822282 0.750000
O O8 0.098926 0.798361 0.434572
O O9 0.842582 0.685812 0.581550
O O10 0.000000 0.716341 0.750000
O O11 0.000000 0.143626 0.750000
#
# Coordination Sequence:
#
# PCOD9262515 Si02
#       5
#     4   8   8   8   8
#     4  10  22  40  66  94 116 156 208 228 314 378
#     4  10  21  42  63  91 124 156 192 254 299 356
#     4  10  19  35  51  78 110 150 189 231 282 340
#     4  10  19  33  53  77 109 151 188 228 284 335
#     4   9  20  36  55  79 112 147 190 230 291 341
#
# _framework density 20.260622999999999
#
# number of rings (size 3 to 8) (size 9 to 14) (size 15 to 20)
#    0.000    2.222    0.000    4.000    1.556    0.000 
#    8.000    5.556    0.000    0.000    0.000    0.000 
#    0.000    0.000    0.000    0.000    0.000    0.000 
#
# Total GULP energy -100524.238112 kJ/mol
# GULP energy per Si atom -5584.679895 kJ/mol
# Density = 2.021451 g / cm^3
# Si number density = 20.260623 Si / 1000 Ang^3
#
#
#
# Elastic Constant Matrix: (Units=GPa)
#
#
# Indices 1 2 3 4 5 6 
#
# 1 84.7406 63.4270 46.9572 0.0000 25.8576 0.0000
# 2 63.4270 113.2858 38.9225 0.0000 33.2016 0.0000
# 3 46.9572 38.9225 78.4927 0.0000 27.3722 0.0000
# 4 0.0000 0.0000 0.0000 22.5531 0.0000 -2.3846
# 5 25.8576 33.2016 27.3722 0.0000 46.1548 0.0000
# 6 0.0000 0.0000 0.0000 -2.3846 0.0000 15.2564
#
#
#
# Elastic Compliance Matrix: (Units=1/GPa)
#
#
# Indices 1 2 3 4 5 6 
#
# 1 0.025338 -0.010643 -0.009582 0.000000 -0.000857 0.000000
# 2 -0.010643 0.016452 0.000324 0.000000 -0.006064 0.000000
# 3 -0.009582 0.000324 0.020828 0.000000 -0.007217 0.000000
# 4 0.000000 0.000000 0.000000 0.045085 0.000000 0.007047
# 5 -0.000857 -0.006064 -0.007217 0.000000 0.030789 0.000000
# 6 0.000000 0.000000 0.000000 0.007047 0.000000 0.066647
#
#
# Mechanical properties :
#
#
# Convention : Reuss Voigt Hill
#
# Bulk Modulus (GPa) = 43.82864 63.90362 53.86613
# Shear Modulus (GPa) = 19.79828 25.27369 22.53598
#
# Velocity S-wave (km/s) = 3.12938 3.53573 3.33874
# Velocity P-wave (km/s) = 5.89379 6.94822 6.44261
#
# Compressibility (1/GPa) = 0.02281613
#
# Stress axis : x y z
#
# Youngs Moduli (GPa) = 39.46677 60.78183 48.01123
#
# Poissons Ratio (x) = 0.64691 0.46003
# Poissons Ratio (y) = 0.42005 -0.01554
# Poissons Ratio (z) = 0.37816 -0.01967
#
# Static dielectric constant tensor:
#      x y z
#    x 1.739480 0.000000 -0.016040 
#    y 0.000000 1.727920 0.000000 
#    z -0.016040 0.000000 1.741020 
# 
# From -- ./inp_files/24310.got.cif
#   From: 2010.05.17/outbox.cif.g08.bks.cpg/sg15_13_cif.got.tgz:24310.got - 2010.06.03 18:47:42.
