data_PCOD9262585
_publ_section_title
;
Structure prediction by ZEFSAII (Michael W. Deem and Ramdas Pophale) SiO2 
 PCOD9262585
Probable space group: C 2/C
;
_chemical_formula_sum "Si O2"
_cell_formula_units_Z 40
_cell_length_a 11.295764
_cell_length_b 7.411114
_cell_length_c 19.102463
_cell_angle_alpha 90.000000
_cell_angle_beta 89.646665
_cell_angle_gamma 90.000000
_cell_volume 1599.116899
_symmetry_space_group_name_H-M "C 2/C"
_symmetry_group_IT_number 15
_symmetry_cell_setting 'monoclinic'
loop_
_space_group_symop_operation_xyz
x,y,z
-x,y,1/2-z
-x,-y,-z
x,-y,1/2+z
1/2+x,1/2+y,z
1/2-x,1/2+y,1/2-z
1/2-x,1/2-y,-z
1/2+x,1/2-y,1/2+z
loop_
_atom_site_type_symbol
_atom_site_label
_atom_site_fract_x
_atom_site_fract_y
_atom_site_fract_z
Si Si1 0.073141 0.640335 0.451436
Si Si2 0.439109 0.056336 0.848818
Si Si3 0.152598 0.274428 0.283704
Si Si4 0.402864 0.590835 0.802628
Si Si5 0.348283 0.630010 0.432981
O O1 0.209506 0.579130 0.438745
O O2 0.090496 0.827642 0.492988
O O3 0.000000 0.500000 0.500000
O O4 0.993930 0.625807 0.381053
O O5 0.379145 0.072002 0.773672
O O6 0.556760 0.183510 0.843298
O O7 0.350175 0.168414 0.898278
O O8 0.285169 0.290922 0.307476
O O9 0.130276 0.087595 0.244602
O O10 0.500000 0.674201 0.750000
O O11 0.414825 0.502813 0.879620
#
# Coordination Sequence:
#
# PCOD9262585 Si02
#       5
#     8   8   8   8   8
#     4   9  16  26  49  82 107 140 187 222 266 327
#     4   9  16  31  49  75 107 143 178 225 274 325
#     4  10  19  33  54  77 110 143 180 229 279 325
#     4  11  20  36  53  79 110 143 182 230 278 328
#     4   9  16  28  49  78 107 141 185 224 267 330
#
# _framework density 25.013805999999999
#
# number of rings (size 3 to 8) (size 9 to 14) (size 15 to 20)
#    0.000    2.400    6.000    0.000    0.000    0.000 
#    3.600    0.000    0.000    1.200    0.000   19.600 
#    0.000    0.000    0.000    0.000    0.000    0.000 
#
# Total GULP energy -111517.404027 kJ/mol
# GULP energy per Si atom -5575.870201 kJ/mol
# Density = 2.495687 g / cm^3
# Si number density = 25.013806 Si / 1000 Ang^3
#
#
#
# Elastic Constant Matrix: (Units=GPa)
#
#
# Indices 1 2 3 4 5 6 
#
# 1 149.5781 12.5171 39.2847 0.0000 -13.2264 0.0000
# 2 12.5171 56.0094 -11.8466 0.0000 -14.0285 0.0000
# 3 39.2847 -11.8466 77.5201 0.0000 -11.0066 0.0000
# 4 0.0000 0.0000 0.0000 18.9021 0.0000 1.5232
# 5 -13.2264 -14.0285 -11.0066 0.0000 48.1531 0.0000
# 6 0.0000 0.0000 0.0000 1.5232 0.0000 42.4024
#
#
#
# Elastic Compliance Matrix: (Units=1/GPa)
#
#
# Indices 1 2 3 4 5 6 
#
# 1 0.008116 -0.002646 -0.004455 0.000000 0.000440 0.000000
# 2 -0.002646 0.021312 0.005556 0.000000 0.006752 0.000000
# 3 -0.004455 0.005556 0.016601 0.000000 0.004190 0.000000
# 4 0.000000 0.000000 0.000000 0.053058 0.000000 -0.001906
# 5 0.000440 0.006752 0.004190 0.000000 0.023813 0.000000
# 6 0.000000 0.000000 0.000000 -0.001906 0.000000 0.023652
#
#
# Mechanical properties :
#
#
# Convention : Reuss Voigt Hill
#
# Bulk Modulus (GPa) = 23.28780 40.33532 31.81156
# Shear Modulus (GPa) = 30.49657 38.10170 34.29913
#
# Velocity S-wave (km/s) = 3.49548 3.90709 3.70700
# Velocity P-wave (km/s) = 5.06175 6.04268 5.57384
#
# Compressibility (1/GPa) = 0.04294093
#
# Stress axis : x y z
#
# Youngs Moduli (GPa) = 123.21749 46.92237 60.23618
#
# Poissons Ratio (x) = 0.12414 0.26833
# Poissons Ratio (y) = 0.32599 -0.33469
# Poissons Ratio (z) = 0.54888 -0.26071
#
# Static dielectric constant tensor:
#      x y z
#    x 1.963080 0.000000 0.013690 
#    y 0.000000 2.048960 0.000000 
#    z 0.013690 0.000000 2.122280 
# 
# From -- ./inp_files/229843.got.cif
#   From: 2010.05.17/outbox.cif.g08.bks.cpg/sg15_115_cif.got.tgz:229843.got - 2010.06.03 18:47:42.
