data_PCOD9262972
_publ_section_title
;
Structure prediction by ZEFSAII (Michael W. Deem and Ramdas Pophale) SiO2 
 PCOD9262972
Probable space group: C 2/C
;
_chemical_formula_sum "Si O2"
_cell_formula_units_Z 44
_cell_length_a 11.793550
_cell_length_b 23.005558
_cell_length_c 12.144553
_cell_angle_alpha 90.000000
_cell_angle_beta 144.718436
_cell_angle_gamma 90.000000
_cell_volume 1903.190555
_symmetry_space_group_name_H-M "C 2/C"
_symmetry_group_IT_number 15
_symmetry_cell_setting 'monoclinic'
loop_
_space_group_symop_operation_xyz
x,y,z
-x,y,1/2-z
-x,-y,-z
x,-y,1/2+z
1/2+x,1/2+y,z
1/2-x,1/2+y,1/2-z
1/2-x,1/2-y,-z
1/2+x,1/2-y,1/2+z
loop_
_atom_site_type_symbol
_atom_site_label
_atom_site_fract_x
_atom_site_fract_y
_atom_site_fract_z
Si Si1 0.813481 0.812170 0.178396
Si Si2 0.159719 0.329237 0.528391
Si Si3 0.955326 0.781951 0.937037
Si Si4 0.183008 0.022838 0.213217
Si Si5 0.060378 0.415558 0.001288
Si Si6 0.000000 0.106848 0.250000
O O1 0.670731 0.757260 0.077411
O O2 0.683248 0.866528 0.036386
O O3 0.000000 0.805306 0.250000
O O4 0.897232 0.818101 0.370178
O O5 0.301414 0.318548 0.746109
O O6 0.316911 0.352781 0.565320
O O7 0.054706 0.267024 0.436294
O O8 0.010317 0.379926 0.444991
O O9 0.359279 0.058135 0.292451
O O10 0.091678 0.065223 0.231734
O O11 0.296497 0.968497 0.357239
O O12 0.000000 0.000000 0.000000
#
# Coordination Sequence:
#
# PCOD9262972 Si02
#       6
#     8   8   8   8   8   4
#     4  10  19  33  58  89 124 160 208 248 295 379
#     4   9  19  38  58  89 122 158 200 246 298 376
#     4   9  19  35  59  85 128 169 187 249 318 342
#     4  10  22  43  64  82 122 161 199 267 314 352
#     4   9  21  38  59  89 119 156 205 254 306 364
#     4  10  22  38  64  92 116 156 220 244 298 384
#
# _framework density 23.119071999999999
#
# number of rings (size 3 to 8) (size 9 to 14) (size 15 to 20)
#    0.000    2.545    0.000    0.545    6.364    0.727 
#    0.000   10.000    0.000    0.000    0.000    0.000 
#    0.000    0.000    0.000    0.000    0.000    0.000 
#
# Total GULP energy -122769.123305 kJ/mol
# GULP energy per Si atom -5580.414696 kJ/mol
# Density = 2.306645 g / cm^3
# Si number density = 23.119072 Si / 1000 Ang^3
#
#
#
# Elastic Constant Matrix: (Units=GPa)
#
#
# Indices 1 2 3 4 5 6 
#
# 1 99.6783 53.1705 36.5602 0.0001 38.1012 0.0000
# 2 53.1705 132.6753 41.9090 0.0000 19.5138 0.0000
# 3 36.5602 41.9090 110.3525 0.0001 27.1915 0.0000
# 4 0.0001 0.0000 0.0001 26.3255 0.0001 14.5340
# 5 38.1012 19.5138 27.1915 0.0001 34.9470 0.0000
# 6 0.0000 0.0000 0.0000 14.5340 0.0000 25.5288
#
#
#
# Elastic Compliance Matrix: (Units=1/GPa)
#
#
# Indices 1 2 3 4 5 6 
#
# 1 0.020087 -0.005265 0.000021 0.000000 -0.018975 0.000000
# 2 -0.005265 0.010170 -0.002639 0.000000 0.002115 0.000000
# 3 0.000021 -0.002639 0.012000 0.000000 -0.007886 0.000000
# 4 0.000000 0.000000 0.000000 0.055398 0.000000 -0.031539
# 5 -0.018975 0.002115 -0.007886 0.000000 0.054258 0.000000
# 6 0.000000 0.000000 0.000000 -0.031539 0.000000 0.057127
#
#
# Mechanical properties :
#
#
# Convention : Reuss Voigt Hill
#
# Bulk Modulus (GPa) = 37.75134 67.33173 52.54154
# Shear Modulus (GPa) = 21.40064 31.43136 26.41600
#
# Velocity S-wave (km/s) = 3.04578 3.69120 3.38391
# Velocity P-wave (km/s) = 5.36037 6.88140 6.16795
#
# Compressibility (1/GPa) = 0.02648912
#
# Stress axis : x y z
#
# Youngs Moduli (GPa) = 49.78435 98.32996 83.33002
#
# Poissons Ratio (x) = 0.51775 -0.00171
# Poissons Ratio (y) = 0.26214 0.21991
# Poissons Ratio (z) = -0.00102 0.25949
#
# Static dielectric constant tensor:
#      x y z
#    x 1.931410 0.000000 0.040270 
#    y 0.000000 1.904010 0.000000 
#    z 0.040270 0.000000 1.893610 
# 
# From -- ./inp_files/91382.got.cif
#   From: 2010.05.17/outbox.cif.g08.bks.cpg/sg15_46_cif.got.tgz:91382.got - 2010.06.03 18:47:42.
