data_PCOD9262504
_publ_section_title
;
Structure prediction by ZEFSAII (Michael W. Deem and Ramdas Pophale) SiO2 
 PCOD9262504
Probable space group: C 2/C
;
_chemical_formula_sum "Si O2"
_cell_formula_units_Z 52
_cell_length_a 10.679703
_cell_length_b 28.062565
_cell_length_c 13.998914
_cell_angle_alpha 90.000000
_cell_angle_beta 134.125876
_cell_angle_gamma 90.000000
_cell_volume 3011.560279
_symmetry_space_group_name_H-M "C 2/C"
_symmetry_group_IT_number 15
_symmetry_cell_setting 'monoclinic'
loop_
_space_group_symop_operation_xyz
x,y,z
-x,y,1/2-z
-x,-y,-z
x,-y,1/2+z
1/2+x,1/2+y,z
1/2-x,1/2+y,1/2-z
1/2-x,1/2-y,-z
1/2+x,1/2-y,1/2+z
loop_
_atom_site_type_symbol
_atom_site_label
_atom_site_fract_x
_atom_site_fract_y
_atom_site_fract_z
Si Si1 0.955206 0.739501 0.614959
Si Si2 0.522985 0.038328 0.595207
Si Si3 0.934490 0.029835 0.823804
Si Si4 0.585865 0.136436 0.900307
Si Si5 0.138160 0.066473 0.111594
Si Si6 0.500000 0.024541 0.250000
Si Si7 0.491359 0.657205 0.129782
O O1 0.750000 0.750000 0.500000
O O2 0.988148 0.686129 0.595154
O O3 0.039167 0.788736 0.623587
O O4 0.000000 0.735709 0.750000
O O5 0.730177 0.043417 0.722669
O O6 0.445574 0.091026 0.549104
O O7 0.500000 0.000000 0.500000
O O8 0.429212 0.011544 0.632800
O O9 0.000000 0.034732 0.750000
O O10 0.941693 0.974818 0.862654
O O11 0.045082 0.059950 0.959353
O O12 0.500000 0.127351 0.750000
O O13 0.791638 0.145047 0.996259
O O14 0.341956 0.054786 0.207289
O O15 0.107363 0.117214 0.142537
O O16 0.500000 0.655499 0.250000
#
# Coordination Sequence:
#
# PCOD9262504 Si02
#       7
#     8   8   8   8   8   4   8
#     4   8  16  31  49  76 106 129 163 213 262 313
#     4  11  22  32  51  75 104 139 169 208 253 308
#     4  10  21  35  49  73 102 138 180 211 255 311
#     4  10  19  33  53  76 110 136 168 214 263 312
#     4  10  21  33  53  71 106 140 170 217 260 305
#     4  10  22  36  44  74 106 130 178 206 246 308
#     4  10  20  32  54  82 107 135 169 210 269 318
#
# _framework density 17.266797
#
# number of rings (size 3 to 8) (size 9 to 14) (size 15 to 20)
#    0.000    2.154    0.769    2.308   10.769    0.000 
#    0.000    0.000    0.000    0.000    2.000    2.154 
#    0.000    0.000    0.000    0.000    0.000    0.000 
#
# Total GULP energy -144866.040327 kJ/mol
# GULP energy per Si atom -5571.770782 kJ/mol
# Density = 1.722750 g / cm^3
# Si number density = 17.266797 Si / 1000 Ang^3
#
#
#
# Elastic Constant Matrix: (Units=GPa)
#
#
# Indices 1 2 3 4 5 6 
#
# 1 53.0940 45.4000 2.6043 0.0000 -5.1634 0.0000
# 2 45.4000 183.8681 9.7231 0.0000 -5.9639 0.0000
# 3 2.6043 9.7231 61.1612 0.0000 0.9907 0.0000
# 4 0.0000 0.0000 0.0000 18.5843 0.0000 1.0549
# 5 -5.1634 -5.9639 0.9907 0.0000 26.9946 0.0000
# 6 0.0000 0.0000 0.0000 1.0549 0.0000 22.5506
#
#
#
# Elastic Compliance Matrix: (Units=1/GPa)
#
#
# Indices 1 2 3 4 5 6 
#
# 1 0.024170 -0.005852 -0.000153 0.000000 0.003336 0.000000
# 2 -0.005852 0.006944 -0.000862 0.000000 0.000446 0.000000
# 3 -0.000153 -0.000862 0.016507 0.000000 -0.000825 0.000000
# 4 0.000000 0.000000 0.000000 0.053952 0.000000 -0.002524
# 5 0.003336 0.000446 -0.000825 0.000000 0.037811 0.000000
# 6 0.000000 0.000000 0.000000 -0.002524 0.000000 0.044463
#
#
# Mechanical properties :
#
#
# Convention : Reuss Voigt Hill
#
# Bulk Modulus (GPa) = 29.50921 45.95313 37.73117
# Shear Modulus (GPa) = 23.93760 29.65229 26.79494
#
# Velocity S-wave (km/s) = 3.72739 4.14853 3.94359
# Velocity P-wave (km/s) = 5.97092 7.04403 6.52956
#
# Compressibility (1/GPa) = 0.03388773
#
# Stress axis : x y z
#
# Youngs Moduli (GPa) = 41.37334 144.01707 60.57988
#
# Poissons Ratio (x) = 0.84275 0.00927
# Poissons Ratio (y) = 0.24210 0.05221
# Poissons Ratio (z) = 0.00633 0.12413
#
# Static dielectric constant tensor:
#      x y z
#    x 1.549810 0.000000 0.011150 
#    y 0.000000 1.641470 0.000000 
#    z 0.011150 0.000000 1.620710 
# 
# From -- ./inp_files/148416.got.cif
#   From: 2010.05.17/outbox.cif.g08.bks.cpg/sg15_75_cif.got.tgz:148416.got - 2010.06.03 18:47:42.
