data_PCOD9262411
_publ_section_title
;
Structure prediction by ZEFSAII (Michael W. Deem and Ramdas Pophale) SiO2 
 PCOD9262411
Probable space group: C 2/C
;
_chemical_formula_sum "Si O2"
_cell_formula_units_Z 60
_cell_length_a 18.995153
_cell_length_b 13.648757
_cell_length_c 11.510943
_cell_angle_alpha 90.000000
_cell_angle_beta 106.788281
_cell_angle_gamma 90.000000
_cell_volume 2857.133375
_symmetry_space_group_name_H-M "C 2/C"
_symmetry_group_IT_number 15
_symmetry_cell_setting 'monoclinic'
loop_
_space_group_symop_operation_xyz
x,y,z
-x,y,1/2-z
-x,-y,-z
x,-y,1/2+z
1/2+x,1/2+y,z
1/2-x,1/2+y,1/2-z
1/2-x,1/2-y,-z
1/2+x,1/2-y,1/2+z
loop_
_atom_site_type_symbol
_atom_site_label
_atom_site_fract_x
_atom_site_fract_y
_atom_site_fract_z
Si Si1 0.752418 0.492699 0.194282
Si Si2 0.654317 0.789939 0.517990
Si Si3 0.211337 0.279881 0.786350
Si Si4 0.156200 0.297064 0.265789
Si Si5 0.500000 0.024069 0.250000
Si Si6 0.744056 0.006895 0.052518
Si Si7 0.120272 0.646737 0.419501
Si Si8 0.014148 0.654103 0.586827
O O1 0.784058 0.602320 0.212255
O O2 0.816376 0.410129 0.217270
O O3 0.717009 0.483460 0.305954
O O4 0.712738 0.485600 0.049666
O O5 0.676546 0.739542 0.649615
O O6 0.673840 0.748295 0.399225
O O7 0.696549 0.893898 0.541131
O O8 0.567242 0.807008 0.472318
O O9 0.295595 0.247736 0.814592
O O10 0.162128 0.262924 0.876465
O O11 0.069864 0.292804 0.202659
O O12 0.571279 0.090888 0.299274
O O13 0.494021 0.953820 0.359862
O O14 0.682639 0.923315 0.003274
O O15 0.060484 0.662346 0.491065
#
# Coordination Sequence:
#
# PCOD9262411 Si02
#       8
#     8   8   8   8   4   8   8   8
#     4   9  18  33  48  72 100 140 174 214 257 321
#     4  10  19  33  51  74 101 139 178 224 264 319
#     4  10  22  35  50  75 111 144 179 220 270 329
#     4  11  20  35  53  75 109 144 178 222 271 324
#     4  12  20  32  52  80 112 144 176 210 270 334
#     4   9  16  29  46  68 104 132 172 202 255 314
#     4  11  21  29  45  76 108 145 171 208 262 328
#     4  12  20  31  51  77 109 142 178 219 269 323
#
# _framework density 21.000070000000001
#
# number of rings (size 3 to 8) (size 9 to 14) (size 15 to 20)
#    0.000    1.600    4.000    3.200    1.867    0.533 
#    0.000    0.000    0.000    0.000    0.000    0.933 
#    8.000    0.000    0.000    0.000    0.000    0.000 
#
# Total GULP energy -167146.193928 kJ/mol
# GULP energy per Si atom -5571.539798 kJ/mol
# Density = 2.095227 g / cm^3
# Si number density = 21.000070 Si / 1000 Ang^3
#
#
#
# Elastic Constant Matrix: (Units=GPa)
#
#
# Indices 1 2 3 4 5 6 
#
# 1 93.9784 27.4336 26.0442 0.0000 -16.2874 0.0000
# 2 27.4336 24.6845 4.6877 0.0000 -1.7617 0.0000
# 3 26.0442 4.6877 113.4167 0.0000 -25.7661 0.0000
# 4 0.0000 0.0000 0.0000 16.7809 0.0000 -8.3630
# 5 -16.2874 -1.7617 -25.7661 0.0000 39.3447 0.0000
# 6 0.0000 0.0000 0.0000 -8.3630 0.0000 18.1905
#
#
#
# Elastic Compliance Matrix: (Units=1/GPa)
#
#
# Indices 1 2 3 4 5 6 
#
# 1 0.017585 -0.018781 -0.002114 0.000000 0.005055 0.000000
# 2 -0.018781 0.060915 0.000762 0.000000 -0.004549 0.000000
# 3 -0.002114 0.000762 0.010667 0.000000 0.006145 0.000000
# 4 0.000000 0.000000 0.000000 0.077303 0.000000 0.035540
# 5 0.005055 -0.004549 0.006145 0.000000 0.031329 0.000000
# 6 0.000000 0.000000 0.000000 0.035540 0.000000 0.071313
#
#
# Mechanical properties :
#
#
# Convention : Reuss Voigt Hill
#
# Bulk Modulus (GPa) = 20.44961 38.71227 29.58094
# Shear Modulus (GPa) = 15.35254 26.45748 20.90501
#
# Velocity S-wave (km/s) = 2.70677 3.55332 3.15854
# Velocity P-wave (km/s) = 4.41903 5.94215 5.23627
#
# Compressibility (1/GPa) = 0.04890069
#
# Stress axis : x y z
#
# Youngs Moduli (GPa) = 56.86655 16.41629 93.74831
#
# Poissons Ratio (x) = 0.30832 0.19814
# Poissons Ratio (y) = 1.06803 -0.07141
# Poissons Ratio (z) = 0.12019 -0.01251
#
# Static dielectric constant tensor:
#      x y z
#    x 1.777460 0.000000 -0.089920 
#    y 0.000000 1.774340 0.000000 
#    z -0.089920 0.000000 1.931590 
# 
# From -- ./inp_files/106447.got.cif
#   From: 2010.05.17/outbox.cif.g08.bks.cpg/sg15_54_cif.got.tgz:106447.got - 2010.06.03 18:47:42.
