data_PCOD9262693
_publ_section_title
;
Structure prediction by ZEFSAII (Michael W. Deem and Ramdas Pophale) SiO2 
 PCOD9262693
Probable space group: C 2/C
;
_chemical_formula_sum "Si O2"
_cell_formula_units_Z 44
_cell_length_a 9.728997
_cell_length_b 13.948817
_cell_length_c 13.916195
_cell_angle_alpha 90.000000
_cell_angle_beta 77.343314
_cell_angle_gamma 90.000000
_cell_volume 1842.648350
_symmetry_space_group_name_H-M "C 2/C"
_symmetry_group_IT_number 15
_symmetry_cell_setting 'monoclinic'
loop_
_space_group_symop_operation_xyz
x,y,z
-x,y,1/2-z
-x,-y,-z
x,-y,1/2+z
1/2+x,1/2+y,z
1/2-x,1/2+y,1/2-z
1/2-x,1/2-y,-z
1/2+x,1/2-y,1/2+z
loop_
_atom_site_type_symbol
_atom_site_label
_atom_site_fract_x
_atom_site_fract_y
_atom_site_fract_z
Si Si1 0.500000 0.360173 0.250000
Si Si2 0.362138 0.913183 0.830749
Si Si3 0.448352 0.603686 0.467221
Si Si4 0.789722 0.830970 0.817381
Si Si5 0.479638 0.224692 0.434902
Si Si6 0.735176 0.116778 0.669773
O O1 0.455220 0.294787 0.347080
O O2 0.642616 0.406844 0.269855
O O3 0.500000 0.883927 0.750000
O O4 0.236752 0.876961 0.782343
O O5 0.373490 0.863041 0.932465
O O6 0.362343 0.026736 0.831048
O O7 0.500000 0.500000 0.500000
O O8 0.394359 0.607938 0.367074
O O9 0.536085 0.701743 0.474932
O O10 0.316168 0.625212 0.556564
O O11 0.637336 0.820025 0.896670
O O12 0.830940 0.719604 0.798268
#
# Coordination Sequence:
#
# PCOD9262693 Si02
#       6
#     4   8   8   8   8   8
#     4   8  14  30  52  76  94 134 172 212 238 312
#     4  10  19  34  57  80 103 140 178 213 260 315
#     4  10  21  34  54  79 105 140 179 217 263 307
#     4   9  18  34  54  76 106 140 177 214 253 324
#     4   9  15  34  52  75 101 137 179 204 255 318
#     4  10  19  33  55  79 105 136 179 212 265 305
#
# _framework density 23.878674
#
# number of rings (size 3 to 8) (size 9 to 14) (size 15 to 20)
#    0.000    2.909    4.545    2.182    5.091    0.000 
#    0.000   10.909    0.000    0.000    0.000    0.000 
#    0.000    0.000    0.000    0.000    0.000    0.000 
#
# Total GULP energy -122572.611745 kJ/mol
# GULP energy per Si atom -5571.482352 kJ/mol
# Density = 2.382433 g / cm^3
# Si number density = 23.878674 Si / 1000 Ang^3
#
#
#
# Elastic Constant Matrix: (Units=GPa)
#
#
# Indices 1 2 3 4 5 6 
#
# 1 56.9699 13.5546 22.1928 0.0000 18.9654 0.0000
# 2 13.5546 142.6666 15.2388 0.0000 33.3315 0.0000
# 3 22.1928 15.2388 77.4657 0.0000 37.6006 0.0000
# 4 0.0000 0.0000 0.0000 25.1542 0.0000 18.8672
# 5 18.9654 33.3315 37.6006 0.0000 35.9692 0.0000
# 6 0.0000 0.0000 0.0000 18.8672 0.0000 35.2257
#
#
#
# Elastic Compliance Matrix: (Units=1/GPa)
#
#
# Indices 1 2 3 4 5 6 
#
# 1 0.021392 0.000590 -0.001024 0.000000 -0.010755 0.000000
# 2 0.000590 0.009848 0.005023 0.000000 -0.014688 0.000000
# 3 -0.001024 0.005023 0.028850 0.000000 -0.034273 0.000000
# 4 0.000000 0.000000 0.000000 0.066450 0.000000 -0.035591
# 5 -0.010755 -0.014688 -0.034273 0.000000 0.082911 0.000000
# 6 0.000000 0.000000 0.000000 -0.035591 0.000000 0.047451
#
#
# Mechanical properties :
#
#
# Convention : Reuss Voigt Hill
#
# Bulk Modulus (GPa) = 14.43675 42.11940 28.27807
# Shear Modulus (GPa) = 18.46280 34.34422 26.40351
#
# Velocity S-wave (km/s) = 2.78365 3.79658 3.32887
# Velocity P-wave (km/s) = 4.04853 6.07420 5.16171
#
# Compressibility (1/GPa) = 0.06926769
#
# Stress axis : x y z
#
# Youngs Moduli (GPa) = 46.74593 101.53970 34.66236
#
# Poissons Ratio (x) = -0.05988 0.03550
# Poissons Ratio (y) = -0.02757 -0.17411
# Poissons Ratio (z) = 0.04787 -0.51003
#
# Static dielectric constant tensor:
#      x y z
#    x 2.057680 0.000000 0.060360 
#    y 0.000000 1.961900 0.000000 
#    z 0.060360 0.000000 1.919570 
# 
# From -- ./inp_files/196312.got.cif
#   From: 2010.05.17/outbox.cif.g08.bks.cpg/sg15_99_cif.got.tgz:196312.got - 2010.06.03 18:47:42.
