data_PCOD9262331
_publ_section_title
;
Structure prediction by ZEFSAII (Michael W. Deem and Ramdas Pophale) SiO2 
 PCOD9262331
Probable space group: C 2/C
;
_chemical_formula_sum "Si O2"
_cell_formula_units_Z 40
_cell_length_a 5.682574
_cell_length_b 22.817763
_cell_length_c 18.809863
_cell_angle_alpha 90.000000
_cell_angle_beta 130.619839
_cell_angle_gamma 90.000000
_cell_volume 1851.278902
_symmetry_space_group_name_H-M "C 2/C"
_symmetry_group_IT_number 15
_symmetry_cell_setting 'monoclinic'
loop_
_space_group_symop_operation_xyz
x,y,z
-x,y,1/2-z
-x,-y,-z
x,-y,1/2+z
1/2+x,1/2+y,z
1/2-x,1/2+y,1/2-z
1/2-x,1/2-y,-z
1/2+x,1/2-y,1/2+z
loop_
_atom_site_type_symbol
_atom_site_label
_atom_site_fract_x
_atom_site_fract_y
_atom_site_fract_z
Si Si1 0.196244 0.656070 0.017593
Si Si2 0.216168 0.532562 0.983414
Si Si3 0.884581 0.763812 0.421440
Si Si4 0.992030 0.146465 0.831111
Si Si5 0.710558 0.975415 0.233250
O O1 0.341298 0.591975 0.043868
O O2 0.293485 0.693693 0.968219
O O3 0.828391 0.643853 0.934687
O O4 0.264100 0.699810 0.096026
O O5 0.996617 0.546660 0.872967
O O6 0.500000 0.500000 0.000000
O O7 0.000000 0.500000 0.000000
O O8 0.250000 0.750000 0.500000
O O9 0.823378 0.802158 0.340398
O O10 0.156948 0.081739 0.699202
O O11 0.000000 0.162950 0.750000
O O12 0.500000 0.007943 0.250000
O O13 0.000000 0.005601 0.250000
#
# Coordination Sequence:
#
# PCOD9262331 Si02
#       5
#     8   8   8   8   8
#     4  10  20  39  58  96 131 168 214 274 336 401
#     4  12  26  40  63 102 139 182 227 279 340 402
#     4   9  20  34  62  92 129 162 202 277 344 389
#     4  10  19  32  61  95 125 157 216 283 329 383
#     4  11  21  38  64  93 129 165 226 289 323 385
#
# _framework density 21.606683
#
# number of rings (size 3 to 8) (size 9 to 14) (size 15 to 20)
#    0.000    1.600    4.000    2.400    5.600    0.000 
#    0.000    0.000    0.000    1.200   26.000    0.000 
#    0.000    0.000    0.000    0.000    0.000    0.000 
#
# Total GULP energy -111489.585117 kJ/mol
# GULP energy per Si atom -5574.479256 kJ/mol
# Density = 2.155751 g / cm^3
# Si number density = 21.606683 Si / 1000 Ang^3
#
#
#
# Elastic Constant Matrix: (Units=GPa)
#
#
# Indices 1 2 3 4 5 6 
#
# 1 132.6226 47.5349 13.3947 0.0000 -16.0026 0.0000
# 2 47.5349 110.5211 -5.1782 0.0000 -13.3604 0.0000
# 3 13.3947 -5.1782 36.6297 0.0000 -9.4231 0.0000
# 4 0.0000 0.0000 0.0000 29.4439 0.0000 -5.0650
# 5 -16.0026 -13.3604 -9.4231 0.0000 42.8349 0.0000
# 6 0.0000 0.0000 0.0000 -5.0650 0.0000 29.4480
#
#
#
# Elastic Compliance Matrix: (Units=1/GPa)
#
#
# Indices 1 2 3 4 5 6 
#
# 1 0.009565 -0.004108 -0.003698 0.000000 0.001478 0.000000
# 2 -0.004108 0.011339 0.003837 0.000000 0.002846 0.000000
# 3 -0.003698 0.003837 0.030896 0.000000 0.006612 0.000000
# 4 0.000000 0.000000 0.000000 0.034998 0.000000 0.006020
# 5 0.001478 0.002846 0.006612 0.000000 0.026240 0.000000
# 6 0.000000 0.000000 0.000000 0.006020 0.000000 0.034993
#
#
# Mechanical properties :
#
#
# Convention : Reuss Voigt Hill
#
# Bulk Modulus (GPa) = 22.79904 43.47515 33.13709
# Shear Modulus (GPa) = 29.31013 35.28017 32.29515
#
# Velocity S-wave (km/s) = 3.68711 4.04522 3.87031
# Velocity P-wave (km/s) = 5.35734 6.47945 5.94493
#
# Compressibility (1/GPa) = 0.04386149
#
# Stress axis : x y z
#
# Youngs Moduli (GPa) = 104.55269 88.19259 32.36669
#
# Poissons Ratio (x) = 0.36232 0.11969
# Poissons Ratio (y) = 0.42953 -0.12420
# Poissons Ratio (z) = 0.38664 -0.33843
#
# Static dielectric constant tensor:
#      x y z
#    x 1.998750 0.000000 0.035380 
#    y 0.000000 1.829170 0.000000 
#    z 0.035380 0.000000 1.792970 
# 
# From -- ./inp_files/185120.got.cif
#   From: 2010.05.17/outbox.cif.g08.bks.cpg/sg15_93_cif.got.tgz:185120.got - 2010.06.03 18:47:42.
