data_PCOD9262521
_publ_section_title
;
Structure prediction by ZEFSAII (Michael W. Deem and Ramdas Pophale) SiO2 
 PCOD9262521
Probable space group: C 2/C
;
_chemical_formula_sum "Si O2"
_cell_formula_units_Z 48
_cell_length_a 18.497262
_cell_length_b 16.958125
_cell_length_c 13.491871
_cell_angle_alpha 90.000000
_cell_angle_beta 145.973141
_cell_angle_gamma 90.000000
_cell_volume 2368.213161
_symmetry_space_group_name_H-M "C 2/C"
_symmetry_group_IT_number 15
_symmetry_cell_setting 'monoclinic'
loop_
_space_group_symop_operation_xyz
x,y,z
-x,y,1/2-z
-x,-y,-z
x,-y,1/2+z
1/2+x,1/2+y,z
1/2-x,1/2+y,1/2-z
1/2-x,1/2-y,-z
1/2+x,1/2-y,1/2+z
loop_
_atom_site_type_symbol
_atom_site_label
_atom_site_fract_x
_atom_site_fract_y
_atom_site_fract_z
Si Si1 0.420706 0.439415 0.260149
Si Si2 0.860601 0.516311 0.108555
Si Si3 0.054825 0.893377 0.601173
Si Si4 0.890599 0.259789 0.208688
Si Si5 0.825425 0.448878 0.870472
Si Si6 0.394669 0.911889 0.339963
O O1 0.500000 0.422999 0.250000
O O2 0.454060 0.388829 0.396207
O O3 0.456630 0.528031 0.342686
O O4 0.271238 0.437181 0.057377
O O5 0.862637 0.472794 0.215100
O O6 0.000000 0.556541 0.250000
O O7 0.853837 0.446063 0.019602
O O8 0.062545 0.819044 0.681820
O O9 0.192385 0.906132 0.701834
O O10 0.870317 0.326530 0.269494
O O11 0.000000 0.279375 0.250000
O O12 0.750000 0.250000 0.000000
O O13 0.820189 0.543016 0.842453
O O14 0.952462 0.415641 0.963139
#
# Coordination Sequence:
#
# PCOD9262521 Si02
#       6
#     8   8   8   8   8   8
#     4  10  19  33  53  78 113 154 195 238 286 353
#     4   9  17  31  51  78 105 136 187 238 284 332
#     4  10  21  34  54  86 120 156 196 242 307 361
#     4  12  24  38  59  89 126 156 187 246 310 363
#     4   9  18  34  54  78 109 148 197 240 274 341
#     4  10  19  34  58  82 110 151 195 239 290 343
#
# _framework density 20.268446000000001
#
# number of rings (size 3 to 8) (size 9 to 14) (size 15 to 20)
#    0.000    2.000    0.000    6.000    0.000    4.000 
#    0.000    0.000    0.000    5.000    0.000   18.667 
#    0.000    0.000    0.000    0.000    0.000    0.000 
#
# Total GULP energy -133723.803105 kJ/mol
# GULP energy per Si atom -5571.825129 kJ/mol
# Density = 2.022231 g / cm^3
# Si number density = 20.268446 Si / 1000 Ang^3
#
#
#
# Elastic Constant Matrix: (Units=GPa)
#
#
# Indices 1 2 3 4 5 6 
#
# 1 62.1188 4.4374 20.2120 0.0000 6.3187 0.0000
# 2 4.4374 65.8920 18.2029 0.0000 -15.8774 0.0000
# 3 20.2120 18.2029 115.6564 0.0000 17.7230 0.0000
# 4 0.0000 0.0000 0.0000 22.7759 0.0000 -6.1698
# 5 6.3187 -15.8774 17.7230 0.0000 36.2539 0.0000
# 6 0.0000 0.0000 0.0000 -6.1698 0.0000 17.3063
#
#
#
# Elastic Compliance Matrix: (Units=1/GPa)
#
#
# Indices 1 2 3 4 5 6 
#
# 1 0.017212 -0.000997 -0.002513 0.000000 -0.002208 0.000000
# 2 -0.000997 0.019056 -0.004465 0.000000 0.010702 0.000000
# 3 -0.002513 -0.004465 0.010832 0.000000 -0.006813 0.000000
# 4 0.000000 0.000000 0.000000 0.048599 0.000000 0.017326
# 5 -0.002208 0.010702 -0.006813 0.000000 0.035985 0.000000
# 6 0.000000 0.000000 0.000000 0.017326 0.000000 0.063959
#
#
# Mechanical properties :
#
#
# Convention : Reuss Voigt Hill
#
# Bulk Modulus (GPa) = 32.10231 36.59685 34.34958
# Shear Modulus (GPa) = 22.52498 28.65488 25.58993
#
# Velocity S-wave (km/s) = 3.33728 3.76409 3.55709
# Velocity P-wave (km/s) = 5.54282 6.08165 5.81848
#
# Compressibility (1/GPa) = 0.03115040
#
# Stress axis : x y z
#
# Youngs Moduli (GPa) = 58.10045 52.47782 92.31835
#
# Poissons Ratio (x) = 0.05232 0.23196
# Poissons Ratio (y) = 0.05793 0.41218
# Poissons Ratio (z) = 0.14598 0.23430
#
# Static dielectric constant tensor:
#      x y z
#    x 1.939110 0.000000 -0.094140 
#    y 0.000000 1.730710 0.000000 
#    z -0.094140 0.000000 1.874640 
# 
# From -- ./inp_files/168916.got.cif
#   From: 2010.05.17/outbox.cif.g08.bks.cpg/sg15_85_cif.got.tgz:168916.got - 2010.06.03 18:47:42.
