data_PCOD9262475
_publ_section_title
;
Structure prediction by ZEFSAII (Michael W. Deem and Ramdas Pophale) SiO2 
 PCOD9262475
Probable space group: C 2/C
;
_chemical_formula_sum "Si O2"
_cell_formula_units_Z 64
_cell_length_a 17.582303
_cell_length_b 22.854483
_cell_length_c 10.793028
_cell_angle_alpha 90.000000
_cell_angle_beta 129.401053
_cell_angle_gamma 90.000000
_cell_volume 3351.302964
_symmetry_space_group_name_H-M "C 2/C"
_symmetry_group_IT_number 15
_symmetry_cell_setting 'monoclinic'
loop_
_space_group_symop_operation_xyz
x,y,z
-x,y,1/2-z
-x,-y,-z
x,-y,1/2+z
1/2+x,1/2+y,z
1/2-x,1/2+y,1/2-z
1/2-x,1/2-y,-z
1/2+x,1/2-y,1/2+z
loop_
_atom_site_type_symbol
_atom_site_label
_atom_site_fract_x
_atom_site_fract_y
_atom_site_fract_z
Si Si1 0.608166 0.193685 0.499193
Si Si2 0.303833 0.870592 0.646425
Si Si3 0.384908 0.683455 0.623672
Si Si4 0.883515 0.485142 0.863066
Si Si5 0.182641 0.674494 0.843290
Si Si6 0.105706 0.789325 0.888310
Si Si7 0.383102 0.943663 0.130738
Si Si8 0.393157 0.230130 0.350424
O O1 0.639578 0.153467 0.416653
O O2 0.630180 0.261276 0.485021
O O3 0.658593 0.168571 0.673688
O O4 0.491787 0.198714 0.403021
O O5 0.189401 0.868375 0.487365
O O6 0.356347 0.926474 0.758714
O O7 0.312647 0.819958 0.758914
O O8 0.500000 0.667304 0.750000
O O9 0.363286 0.715633 0.731980
O O10 0.844243 0.533038 0.723749
O O11 0.845224 0.474485 0.964709
O O12 0.000000 0.500000 0.000000
O O13 0.140399 0.739115 0.829060
O O14 0.132861 0.625755 0.877987
O O15 0.298748 0.671448 0.991064
O O16 0.000000 0.817225 0.750000
O O17 0.088904 0.754014 0.996934
O O18 0.500000 0.954607 0.250000
#
# Coordination Sequence:
#
# PCOD9262475 Si02
#       8
#     8   8   8   8   8   8   8   8
#     4  10  20  31  55  87 118 159 189 236 291 351
#     4  11  20  34  59  82 115 157 193 240 294 345
#     4   9  19  35  52  84 118 153 194 237 278 347
#     4  10  24  40  59  84 115 147 192 244 298 349
#     4  11  22  34  57  81 114 154 195 233 288 352
#     4  11  21  35  52  81 116 157 190 233 285 344
#     4  10  23  41  59  83 116 147 189 241 291 353
#     4  10  19  33  52  81 121 149 197 232 285 349
#
# _framework density 19.097049999999999
#
# number of rings (size 3 to 8) (size 9 to 14) (size 15 to 20)
#    0.000    1.750    1.250    5.250    5.250    3.000 
#    0.000    0.000    0.000    0.750    0.000    1.750 
#    0.000    0.000    0.000    0.000    0.000    0.000 
#
# Total GULP energy -178263.102118 kJ/mol
# GULP energy per Si atom -5570.721941 kJ/mol
# Density = 1.905358 g / cm^3
# Si number density = 19.097050 Si / 1000 Ang^3
#
#
#
# Elastic Constant Matrix: (Units=GPa)
#
#
# Indices 1 2 3 4 5 6 
#
# 1 47.4324 8.1111 33.4394 0.0000 -1.7556 0.0000
# 2 8.1111 39.7679 36.3308 0.0000 2.7972 0.0000
# 3 33.4394 36.3308 104.8398 0.0000 -3.4264 0.0000
# 4 0.0000 0.0000 0.0000 23.8445 0.0000 0.2720
# 5 -1.7556 2.7972 -3.4264 0.0000 36.5506 0.0000
# 6 0.0000 0.0000 0.0000 0.2720 0.0000 8.8909
#
#
#
# Elastic Compliance Matrix: (Units=1/GPa)
#
#
# Indices 1 2 3 4 5 6 
#
# 1 0.027532 0.003505 -0.009992 0.000000 0.000117 0.000000
# 2 0.003505 0.037840 -0.014364 0.000000 -0.004074 0.000000
# 3 -0.009992 -0.014364 0.017778 0.000000 0.002286 0.000000
# 4 0.000000 0.000000 0.000000 0.041953 0.000000 -0.001283
# 5 0.000117 -0.004074 0.002286 0.000000 0.027891 0.000000
# 6 0.000000 0.000000 0.000000 -0.001283 0.000000 0.112513
#
#
# Mechanical properties :
#
#
# Convention : Reuss Voigt Hill
#
# Bulk Modulus (GPa) = 24.12706 38.64474 31.38590
# Shear Modulus (GPa) = 15.57506 21.46780 18.52143
#
# Velocity S-wave (km/s) = 2.85892 3.35646 3.11763
# Velocity P-wave (km/s) = 4.85379 5.94147 5.42496
#
# Compressibility (1/GPa) = 0.04144723
#
# Stress axis : x y z
#
# Youngs Moduli (GPa) = 36.32123 26.42696 56.24982
#
# Poissons Ratio (x) = -0.09262 0.56206
# Poissons Ratio (y) = -0.12730 0.80797
# Poissons Ratio (z) = 0.36293 0.37960
#
# Static dielectric constant tensor:
#      x y z
#    x 1.724620 0.000000 -0.000760 
#    y 0.000000 1.685070 0.000000 
#    z -0.000760 0.000000 1.706300 
# 
# From -- ./inp_files/107516.got.cif
#   From: 2010.05.17/outbox.cif.g08.bks.cpg/sg15_54_cif.got.tgz:107516.got - 2010.06.03 18:47:42.
