data_PCOD9262219
_publ_section_title
;
Structure prediction by ZEFSAII (Michael W. Deem and Ramdas Pophale) SiO2 
 PCOD9262219
Probable space group: C 2/C
;
_chemical_formula_sum "Si O2"
_cell_formula_units_Z 64
_cell_length_a 27.236031
_cell_length_b 20.338805
_cell_length_c 5.465886
_cell_angle_alpha 90.000000
_cell_angle_beta 100.236488
_cell_angle_gamma 90.000000
_cell_volume 2979.623494
_symmetry_space_group_name_H-M "C 2/C"
_symmetry_group_IT_number 15
_symmetry_cell_setting 'monoclinic'
loop_
_space_group_symop_operation_xyz
x,y,z
-x,y,1/2-z
-x,-y,-z
x,-y,1/2+z
1/2+x,1/2+y,z
1/2-x,1/2+y,1/2-z
1/2-x,1/2-y,-z
1/2+x,1/2-y,1/2+z
loop_
_atom_site_type_symbol
_atom_site_label
_atom_site_fract_x
_atom_site_fract_y
_atom_site_fract_z
Si Si1 0.097679 0.984032 0.970856
Si Si2 0.447497 0.251255 0.779369
Si Si3 0.070800 0.674313 0.244564
Si Si4 0.228742 0.176516 0.224794
Si Si5 0.637511 0.338433 0.970755
Si Si6 0.172923 0.272452 0.838984
Si Si7 0.790407 0.964096 0.969472
Si Si8 0.443438 0.977115 0.719208
O O1 0.070479 0.005285 0.191535
O O2 0.148958 0.027783 0.994367
O O3 0.115599 0.909194 0.005272
O O4 0.500000 0.284044 0.750000
O O5 0.437806 0.202697 0.537509
O O6 0.401182 0.301362 0.742619
O O7 0.451497 0.215210 0.044987
O O8 0.130093 0.675789 0.352808
O O9 0.053108 0.600109 0.236825
O O10 0.193200 0.155578 0.414315
O O11 0.286028 0.196899 0.307595
O O12 0.225204 0.112245 0.047887
O O13 0.203049 0.241797 0.090457
O O14 0.643650 0.289923 0.203151
O O15 0.773479 0.999742 0.702838
O O16 0.500000 0.005837 0.750000
O O17 0.418864 0.991853 0.436999
#
# Coordination Sequence:
#
# PCOD9262219 Si02
#       8
#     8   8   8   8   8   8   8   8
#     4  10  19  32  56  81 108 146 195 234 275 330
#     4  11  23  38  62  90 117 151 189 238 297 349
#     4  11  22  41  60  86 122 151 191 241 291 345
#     4  11  20  37  57  83 118 153 195 241 279 346
#     4  11  21  36  60  83 120 150 194 244 289 341
#     4  10  23  36  56  86 115 159 191 233 296 342
#     4  10  19  33  54  79 107 145 197 233 271 325
#     4  10  20  35  59  84 109 148 193 236 285 344
#
# _framework density 21.479223000000001
#
# number of rings (size 3 to 8) (size 9 to 14) (size 15 to 20)
#    0.000    1.500    3.750    3.750    0.000    1.000 
#    0.000    1.250    0.000    0.750    0.000    0.000 
#    0.000    0.000    0.000    0.000    0.000    0.000 
#
# Total GULP energy -178497.230651 kJ/mol
# GULP energy per Si atom -5578.038458 kJ/mol
# Density = 2.143034 g / cm^3
# Si number density = 21.479223 Si / 1000 Ang^3
#
#
#
# Elastic Constant Matrix: (Units=GPa)
#
#
# Indices 1 2 3 4 5 6 
#
# 1 61.3349 3.2142 5.0265 0.0000 -9.3420 0.0000
# 2 3.2142 77.7282 26.9367 0.0000 0.1573 0.0000
# 3 5.0265 26.9367 139.5763 0.0000 -12.2747 0.0000
# 4 0.0000 0.0000 0.0000 23.3623 0.0000 1.4775
# 5 -9.3420 0.1573 -12.2747 0.0000 15.5090 0.0000
# 6 0.0000 0.0000 0.0000 1.4775 0.0000 10.6697
#
#
#
# Elastic Compliance Matrix: (Units=1/GPa)
#
#
# Indices 1 2 3 4 5 6 
#
# 1 0.018030 -0.000951 0.000527 0.000000 0.011287 0.000000
# 2 -0.000951 0.013922 -0.002919 0.000000 -0.003024 0.000000
# 3 0.000527 -0.002919 0.008318 0.000000 0.006931 0.000000
# 4 0.000000 0.000000 0.000000 0.043182 0.000000 -0.005980
# 5 0.011287 -0.003024 0.006931 0.000000 0.076794 0.000000
# 6 0.000000 0.000000 0.000000 -0.005980 0.000000 0.094551
#
#
# Mechanical properties :
#
#
# Convention : Reuss Voigt Hill
#
# Bulk Modulus (GPa) = 29.77523 38.77713 34.27618
# Shear Modulus (GPa) = 18.33667 26.13900 22.23784
#
# Velocity S-wave (km/s) = 2.92497 3.49226 3.22113
# Velocity P-wave (km/s) = 5.02988 5.86120 5.46138
#
# Compressibility (1/GPa) = 0.03358496
#
# Stress axis : x y z
#
# Youngs Moduli (GPa) = 55.46385 71.82773 120.21693
#
# Poissons Ratio (x) = 0.06831 -0.06334
# Poissons Ratio (y) = 0.05274 0.35086
# Poissons Ratio (z) = -0.02922 0.20963
#
# Static dielectric constant tensor:
#      x y z
#    x 1.797720 0.000000 0.001970 
#    y 0.000000 1.768170 0.000000 
#    z 0.001970 0.000000 1.888440 
# 
# From -- ./inp_files/17454.got.cif
#   From: 2010.05.17/outbox.cif.g08.bks.cpg/sg15_9_cif.got.tgz:17454.got - 2010.06.03 18:47:42.
