data_PCOD9262142
_publ_section_title
;
Structure prediction by ZEFSAII (Michael W. Deem and Ramdas Pophale) SiO2 
 PCOD9262142
Probable space group: C 2/C
;
_chemical_formula_sum "Si O2"
_cell_formula_units_Z 48
_cell_length_a 20.295618
_cell_length_b 9.340359
_cell_length_c 14.096242
_cell_angle_alpha 90.000000
_cell_angle_beta 123.869777
_cell_angle_gamma 90.000000
_cell_volume 2218.745902
_symmetry_space_group_name_H-M "C 2/C"
_symmetry_group_IT_number 15
_symmetry_cell_setting 'monoclinic'
loop_
_space_group_symop_operation_xyz
x,y,z
-x,y,1/2-z
-x,-y,-z
x,-y,1/2+z
1/2+x,1/2+y,z
1/2-x,1/2+y,1/2-z
1/2-x,1/2-y,-z
1/2+x,1/2-y,1/2+z
loop_
_atom_site_type_symbol
_atom_site_label
_atom_site_fract_x
_atom_site_fract_y
_atom_site_fract_z
Si Si1 0.258040 0.601532 0.388182
Si Si2 0.269015 0.106084 0.798605
Si Si3 0.915844 0.624802 0.225514
Si Si4 0.579658 0.087233 0.057469
Si Si5 0.805380 0.046450 0.094315
Si Si6 0.128624 0.666395 0.899636
O O1 0.275606 0.726258 0.326323
O O2 0.245797 0.454104 0.318514
O O3 0.176669 0.654349 0.375753
O O4 0.320831 0.560752 0.518976
O O5 0.350835 0.030133 0.892849
O O6 0.203326 0.038414 0.815420
O O7 0.913375 0.661505 0.335066
O O8 0.913351 0.454228 0.198135
O O9 0.000000 0.677722 0.250000
O O10 0.500000 0.000000 0.000000
O O11 0.585855 0.178537 0.967319
O O12 0.717734 0.111334 0.998224
O O13 0.863207 0.180978 0.143146
#
# Coordination Sequence:
#
# PCOD9262142 Si02
#       6
#     8   8   8   8   8   8
#     4  10  22  35  57  86 113 145 188 237 280 333
#     4  10  22  35  57  86 112 145 191 236 282 331
#     4  10  19  32  54  81 110 146 190 227 274 339
#     4  10  19  32  54  81 110 145 190 235 271 334
#     4   9  19  34  56  76 114 142 183 233 282 327
#     4   9  18  32  54  82 104 147 185 229 280 324
#
# _framework density 21.633842999999999
#
# number of rings (size 3 to 8) (size 9 to 14) (size 15 to 20)
#    0.000    2.333    1.667    0.500   14.000    0.000 
#    0.000    0.000    0.000    4.000    0.000    0.000 
#    0.000    0.000    0.000    0.000    0.000    0.000 
#
# Total GULP energy -133655.384571 kJ/mol
# GULP energy per Si atom -5568.974357 kJ/mol
# Density = 2.158460 g / cm^3
# Si number density = 21.633843 Si / 1000 Ang^3
#
#
#
# Elastic Constant Matrix: (Units=GPa)
#
#
# Indices 1 2 3 4 5 6 
#
# 1 67.2193 15.8465 7.3096 0.0000 -22.8922 0.0000
# 2 15.8465 63.6841 8.4612 0.0000 -19.9988 0.0000
# 3 7.3096 8.4612 38.4502 0.0000 -25.4297 0.0000
# 4 0.0000 0.0000 0.0000 23.0315 0.0000 -12.8439
# 5 -22.8922 -19.9988 -25.4297 0.0000 33.2804 0.0000
# 6 0.0000 0.0000 0.0000 -12.8439 0.0000 22.0968
#
#
#
# Elastic Compliance Matrix: (Units=1/GPa)
#
#
# Indices 1 2 3 4 5 6 
#
# 1 0.021752 0.000690 0.011893 0.000000 0.024465 0.000000
# 2 0.000690 0.020338 0.007662 0.000000 0.018551 0.000000
# 3 0.011893 0.007662 0.061693 0.000000 0.059925 0.000000
# 4 0.000000 0.000000 0.000000 0.064243 0.000000 0.037341
# 5 0.024465 0.018551 0.059925 0.000000 0.103813 0.000000
# 6 0.000000 0.000000 0.000000 0.037341 0.000000 0.066960
#
#
# Mechanical properties :
#
#
# Convention : Reuss Voigt Hill
#
# Bulk Modulus (GPa) = 6.93123 25.84315 16.38719
# Shear Modulus (GPa) = 14.43414 24.86414 19.64914
#
# Velocity S-wave (km/s) = 2.58583 3.39384 3.01700
# Velocity P-wave (km/s) = 3.48227 5.22773 4.44158
#
# Compressibility (1/GPa) = 0.14427463
#
# Stress axis : x y z
#
# Youngs Moduli (GPa) = 45.97179 49.16799 16.20927
#
# Poissons Ratio (x) = -0.03392 -0.19278
# Poissons Ratio (y) = -0.03172 -0.12420
# Poissons Ratio (z) = -0.54675 -0.37674
#
# Static dielectric constant tensor:
#      x y z
#    x 1.836110 0.000000 0.036800 
#    y 0.000000 1.829510 0.000000 
#    z 0.036800 0.000000 2.154260 
# 
# From -- ./inp_files/160316.got.cif
#   From: 2010.05.17/outbox.cif.g08.bks.cpg/sg15_81_cif.got.tgz:160316.got - 2010.06.03 18:47:42.
