data_PCOD9262095
_publ_section_title
;
Structure prediction by ZEFSAII (Michael W. Deem and Ramdas Pophale) SiO2 
 PCOD9262095
Probable space group: C 2/C
;
_chemical_formula_sum "Si O2"
_cell_formula_units_Z 56
_cell_length_a 27.582492
_cell_length_b 14.398839
_cell_length_c 8.382877
_cell_angle_alpha 90.000000
_cell_angle_beta 124.416025
_cell_angle_gamma 90.000000
_cell_volume 2746.531390
_symmetry_space_group_name_H-M "C 2/C"
_symmetry_group_IT_number 15
_symmetry_cell_setting 'monoclinic'
loop_
_space_group_symop_operation_xyz
x,y,z
-x,y,1/2-z
-x,-y,-z
x,-y,1/2+z
1/2+x,1/2+y,z
1/2-x,1/2+y,1/2-z
1/2-x,1/2-y,-z
1/2+x,1/2-y,1/2+z
loop_
_atom_site_type_symbol
_atom_site_label
_atom_site_fract_x
_atom_site_fract_y
_atom_site_fract_z
Si Si1 0.128696 0.479560 0.985191
Si Si2 0.500000 0.535160 0.750000
Si Si3 0.500000 0.051832 0.750000
Si Si4 0.596203 0.212611 0.499878
Si Si5 0.192091 0.377297 0.815029
Si Si6 0.481507 0.210520 0.468938
Si Si7 0.324243 0.325675 0.061358
Si Si8 0.067167 0.107220 0.571794
O O1 0.157227 0.573582 0.106545
O O2 0.124881 0.387432 0.091261
O O3 0.168788 0.440316 0.917623
O O4 0.059975 0.498252 0.821647
O O5 0.526021 0.591572 0.651356
O O6 0.449079 0.469466 0.585994
O O7 0.484355 0.116123 0.570885
O O8 0.547706 0.236068 0.540535
O O9 0.558575 0.202544 0.264389
O O10 0.643824 0.290431 0.541629
O O11 0.262003 0.374075 0.919569
O O12 0.180129 0.270130 0.843000
O O13 0.451220 0.290286 0.517643
O O14 0.367378 0.391531 0.241001
#
# Coordination Sequence:
#
# PCOD9262095 Si02
#       8
#     8   4   4   8   8   8   8   8
#     4  11  21  34  53  83 112 138 175 224 269 320
#     4  10  21  32  51  80 102 126 170 228 267 308
#     4  12  21  30  53  86 118 138 164 218 285 330
#     4   9  18  33  55  77 105 144 180 211 263 325
#     4  10  22  37  56  78 106 142 184 220 259 317
#     4  10  19  32  53  81 109 141 172 211 270 340
#     4   9  19  38  58  72 101 150 186 214 260 319
#     4  10  19  34  52  74 103 133 172 217 268 311
#
# _framework density 20.389351999999999
#
# number of rings (size 3 to 8) (size 9 to 14) (size 15 to 20)
#    0.000    2.000    0.000    6.429    0.000    2.857 
#    0.000    0.000    0.000   17.143    0.000    0.000 
#    0.000    0.000    0.000    0.000    0.000    0.000 
#
# Total GULP energy -156199.081200 kJ/mol
# GULP energy per Si atom -5578.538614 kJ/mol
# Density = 2.034295 g / cm^3
# Si number density = 20.389352 Si / 1000 Ang^3
#
#
#
# Elastic Constant Matrix: (Units=GPa)
#
#
# Indices 1 2 3 4 5 6 
#
# 1 107.6255 20.4292 22.8281 0.0000 32.4789 0.0000
# 2 20.4292 72.4912 29.5922 0.0000 16.9221 0.0000
# 3 22.8281 29.5922 49.8692 0.0000 19.8902 0.0000
# 4 0.0000 0.0000 0.0000 23.6290 0.0000 17.3444
# 5 32.4789 16.9221 19.8902 0.0000 35.2708 0.0000
# 6 0.0000 0.0000 0.0000 17.3444 0.0000 16.4165
#
#
#
# Elastic Compliance Matrix: (Units=1/GPa)
#
#
# Indices 1 2 3 4 5 6 
#
# 1 0.012974 -0.000602 -0.001202 0.000000 -0.010980 0.000000
# 2 -0.000602 0.018556 -0.009555 0.000000 -0.002960 0.000000
# 3 -0.001202 -0.009555 0.030968 0.000000 -0.011773 0.000000
# 4 0.000000 0.000000 0.000000 0.188525 0.000000 -0.199181
# 5 -0.010980 -0.002960 -0.011773 0.000000 0.046522 0.000000
# 6 0.000000 0.000000 0.000000 -0.199181 0.000000 0.271352
#
#
# Mechanical properties :
#
#
# Convention : Reuss Voigt Hill
#
# Bulk Modulus (GPa) = 25.13851 41.74278 33.44064
# Shear Modulus (GPa) = 8.26615 25.53901 16.90258
#
# Velocity S-wave (km/s) = 2.01568 3.54300 2.88234
# Velocity P-wave (km/s) = 4.21583 6.10364 5.24536
#
# Compressibility (1/GPa) = 0.03977961
#
# Stress axis : x y z
#
# Youngs Moduli (GPa) = 77.07440 53.89133 32.29149
#
# Poissons Ratio (x) = 0.03247 0.03882
# Poissons Ratio (y) = 0.04643 0.30854
# Poissons Ratio (z) = 0.09266 0.51492
#
# Static dielectric constant tensor:
#      x y z
#    x 1.753910 0.000000 -0.012930 
#    y 0.000000 1.763780 0.000000 
#    z -0.012930 0.000000 1.735770 
# 
# From -- ./inp_files/69995.got.cif
#   From: 2010.05.17/outbox.cif.g08.bks.cpg/sg15_35_cif.got.tgz:69995.got - 2010.06.03 18:47:42.
