data_PCOD9262526
_publ_section_title
;
Structure prediction by ZEFSAII (Michael W. Deem and Ramdas Pophale) SiO2 
 PCOD9262526
Probable space group: C 2/C
;
_chemical_formula_sum "Si O2"
_cell_formula_units_Z 64
_cell_length_a 23.899745
_cell_length_b 8.607608
_cell_length_c 17.229592
_cell_angle_alpha 90.000000
_cell_angle_beta 89.211774
_cell_angle_gamma 90.000000
_cell_volume 3544.129994
_symmetry_space_group_name_H-M "C 2/C"
_symmetry_group_IT_number 15
_symmetry_cell_setting 'monoclinic'
loop_
_space_group_symop_operation_xyz
x,y,z
-x,y,1/2-z
-x,-y,-z
x,-y,1/2+z
1/2+x,1/2+y,z
1/2-x,1/2+y,1/2-z
1/2-x,1/2-y,-z
1/2+x,1/2-y,1/2+z
loop_
_atom_site_type_symbol
_atom_site_label
_atom_site_fract_x
_atom_site_fract_y
_atom_site_fract_z
Si Si1 0.251776 0.768831 0.342852
Si Si2 0.151821 0.620402 0.077892
Si Si3 0.880775 0.314497 0.341558
Si Si4 0.065464 0.176647 0.487642
Si Si5 0.436935 0.309449 0.989410
Si Si6 0.125262 0.306106 0.338661
Si Si7 0.843546 0.596987 0.068653
Si Si8 0.743600 0.361139 0.827525
O O1 0.317727 0.751498 0.359129
O O2 0.210562 0.693133 0.405413
O O3 0.241657 0.687213 0.260326
O O4 0.240587 0.952659 0.334874
O O5 0.123467 0.497292 0.137282
O O6 0.206448 0.691109 0.116878
O O7 0.107752 0.743003 0.046775
O O8 0.169384 0.515748 0.003571
O O9 0.922374 0.232541 0.400493
O O10 0.892360 0.292135 0.250539
O O11 0.082969 0.233757 0.401625
O O12 0.001716 0.226632 0.504624
O O13 0.070550 0.991668 0.494488
O O14 0.393825 0.208562 0.040831
O O15 0.136450 0.484203 0.362607
O O16 0.184570 0.217779 0.347193
#
# Coordination Sequence:
#
# PCOD9262526 Si02
#       8
#     8   8   8   8   8   8   8   8
#     4  10  19  33  53  79 112 142 174 217 267 322
#     4   9  20  34  54  79 107 139 178 220 264 321
#     4   9  20  36  55  81 109 142 180 217 267 321
#     4  10  22  39  57  78 106 141 184 227 270 318
#     4  10  22  39  57  78 106 142 182 227 272 317
#     4  10  21  36  56  83 110 142 181 220 268 323
#     4  10  20  34  55  79 108 141 177 220 268 320
#     4  10  20  34  53  80 112 142 174 216 266 319
#
# _framework density 18.058029000000001
#
# number of rings (size 3 to 8) (size 9 to 14) (size 15 to 20)
#    0.000    2.250    0.000    3.000    0.000   15.500 
#    0.000    1.250    0.000    5.250    0.000    0.000 
#    0.000    0.000    0.000    0.000    0.000    0.000 
#
# Total GULP energy -178633.406420 kJ/mol
# GULP energy per Si atom -5582.293951 kJ/mol
# Density = 1.801693 g / cm^3
# Si number density = 18.058029 Si / 1000 Ang^3
#
#
#
# Elastic Constant Matrix: (Units=GPa)
#
#
# Indices 1 2 3 4 5 6 
#
# 1 59.2734 20.8438 18.1146 0.0000 6.7004 0.0000
# 2 20.8438 42.6353 9.3728 0.0000 11.6761 0.0000
# 3 18.1146 9.3728 28.0643 0.0000 9.3976 0.0000
# 4 0.0000 0.0000 0.0000 21.3123 0.0000 -3.1560
# 5 6.7004 11.6761 9.3976 0.0000 21.0328 0.0000
# 6 0.0000 0.0000 0.0000 -3.1560 0.0000 21.2743
#
#
#
# Elastic Compliance Matrix: (Units=1/GPa)
#
#
# Indices 1 2 3 4 5 6 
#
# 1 0.024020 -0.009824 -0.013508 0.000000 0.003837 0.000000
# 2 -0.009824 0.032243 0.000610 0.000000 -0.015042 0.000000
# 3 -0.013508 0.000610 0.050354 0.000000 -0.018534 0.000000
# 4 0.000000 0.000000 0.000000 0.047975 0.000000 0.007117
# 5 0.003837 -0.015042 -0.018534 0.000000 0.062954 0.000000
# 6 0.000000 0.000000 0.000000 0.007117 0.000000 0.048061
#
#
# Mechanical properties :
#
#
# Convention : Reuss Voigt Hill
#
# Bulk Modulus (GPa) = 16.34738 25.18174 20.76456
# Shear Modulus (GPa) = 15.08555 18.16668 16.62612
#
# Velocity S-wave (km/s) = 2.89345 3.17522 3.03760
# Velocity P-wave (km/s) = 4.49834 5.23621 4.88124
#
# Compressibility (1/GPa) = 0.06117188
#
# Stress axis : x y z
#
# Youngs Moduli (GPa) = 41.63148 31.01437 19.85941
#
# Poissons Ratio (x) = 0.30470 0.26826
# Poissons Ratio (y) = 0.40901 -0.01211
# Poissons Ratio (z) = 0.56237 -0.01892
#
# Static dielectric constant tensor:
#      x y z
#    x 1.601450 0.000000 -0.000640 
#    y 0.000000 1.610280 0.000000 
#    z -0.000640 0.000000 1.628170 
# 
# From -- ./inp_files/218259.got.cif
#   From: 2010.05.17/outbox.cif.g08.bks.cpg/sg15_110_cif.got.tgz:218259.got - 2010.06.03 18:47:42.
