data_PCOD9262236
_publ_section_title
;
Structure prediction by ZEFSAII (Michael W. Deem and Ramdas Pophale) SiO2 
 PCOD9262236
Probable space group: C 2/C
;
_chemical_formula_sum "Si O2"
_cell_formula_units_Z 52
_cell_length_a 10.185984
_cell_length_b 16.607755
_cell_length_c 19.159426
_cell_angle_alpha 90.000000
_cell_angle_beta 133.219174
_cell_angle_gamma 90.000000
_cell_volume 2361.939261
_symmetry_space_group_name_H-M "C 2/C"
_symmetry_group_IT_number 15
_symmetry_cell_setting 'monoclinic'
loop_
_space_group_symop_operation_xyz
x,y,z
-x,y,1/2-z
-x,-y,-z
x,-y,1/2+z
1/2+x,1/2+y,z
1/2-x,1/2+y,1/2-z
1/2-x,1/2-y,-z
1/2+x,1/2-y,1/2+z
loop_
_atom_site_type_symbol
_atom_site_label
_atom_site_fract_x
_atom_site_fract_y
_atom_site_fract_z
Si Si1 0.360517 0.354992 0.842919
Si Si2 0.494747 0.591772 0.972967
Si Si3 0.866760 0.346274 0.542550
Si Si4 0.500000 0.602158 0.250000
Si Si5 0.158283 0.218637 0.849792
Si Si6 0.816238 0.534643 0.726087
Si Si7 0.132841 0.481473 0.611565
O O1 0.436631 0.346925 0.793310
O O2 0.228146 0.285956 0.821428
O O3 0.266312 0.443645 0.810660
O O4 0.514193 0.357418 0.959085
O O5 0.685499 0.613605 0.007549
O O6 0.330643 0.595239 0.859514
O O7 0.500000 0.500000 0.000000
O O8 0.904214 0.267547 0.603027
O O9 0.820041 0.330425 0.444378
O O10 0.033286 0.404987 0.610325
O O11 0.666386 0.545982 0.335356
O O12 0.000000 0.174430 0.750000
O O13 0.852024 0.546280 0.821122
O O14 0.000000 0.538500 0.750000
O O15 0.000000 0.500000 0.500000
#
# Coordination Sequence:
#
# PCOD9262236 Si02
#       7
#     8   8   8   4   8   8   8
#     4   9  18  34  56  85 114 157 204 244 293 356
#     4   9  18  32  58  82 121 149 194 245 296 358
#     4  10  22  37  57  93 112 149 202 255 294 353
#     4  10  22  36  56  86 116 168 198 234 306 372
#     4  10  19  37  64  83 113 148 202 258 296 342
#     4  10  19  32  56  84 116 163 197 236 298 372
#     4  11  24  35  55  83 127 154 195 246 305 364
#
# _framework density 22.015808
#
# number of rings (size 3 to 8) (size 9 to 14) (size 15 to 20)
#    0.000    2.154    0.000    5.077    8.615    1.231 
#    0.000    0.769    0.000    0.000   16.000    0.000 
#    0.000    0.000    0.000    0.000    0.000    0.000 
#
# Total GULP energy -145091.819707 kJ/mol
# GULP energy per Si atom -5580.454604 kJ/mol
# Density = 2.196570 g / cm^3
# Si number density = 22.015808 Si / 1000 Ang^3
#
#
#
# Elastic Constant Matrix: (Units=GPa)
#
#
# Indices 1 2 3 4 5 6 
#
# 1 80.5790 6.0778 37.0489 0.0000 -3.9484 0.0000
# 2 6.0778 21.6000 10.4033 0.0000 2.4008 0.0000
# 3 37.0489 10.4033 202.9924 0.0000 -6.3268 0.0000
# 4 0.0000 0.0000 0.0000 29.5730 0.0000 -2.2208
# 5 -3.9484 2.4008 -6.3268 0.0000 36.0148 0.0000
# 6 0.0000 0.0000 0.0000 -2.2208 0.0000 8.8522
#
#
#
# Elastic Compliance Matrix: (Units=1/GPa)
#
#
# Indices 1 2 3 4 5 6 
#
# 1 0.013760 -0.002897 -0.002323 0.000000 0.001294 0.000000
# 2 -0.002897 0.048550 -0.002082 0.000000 -0.003920 0.000000
# 3 -0.002323 -0.002082 0.005483 0.000000 0.000847 0.000000
# 4 0.000000 0.000000 0.000000 0.034464 0.000000 0.008646
# 5 0.001294 -0.003920 0.000847 0.000000 0.028318 0.000000
# 6 0.000000 0.000000 0.000000 0.008646 0.000000 0.115136
#
#
# Mechanical properties :
#
#
# Convention : Reuss Voigt Hill
#
# Bulk Modulus (GPa) = 18.80030 45.80350 32.30190
# Shear Modulus (GPa) = 17.98281 31.66408 24.82344
#
# Velocity S-wave (km/s) = 2.86110 3.79653 3.36151
# Velocity P-wave (km/s) = 4.41276 6.32994 5.45622
#
# Compressibility (1/GPa) = 0.05319065
#
# Stress axis : x y z
#
# Youngs Moduli (GPa) = 72.67460 20.59751 182.37219
#
# Poissons Ratio (x) = 0.05967 0.42358
# Poissons Ratio (y) = 0.21053 0.37963
# Poissons Ratio (z) = 0.16879 0.04288
#
# Static dielectric constant tensor:
#      x y z
#    x 1.798840 0.000000 -0.021510 
#    y 0.000000 1.842960 0.000000 
#    z -0.021510 0.000000 1.919760 
# 
# From -- ./inp_files/192585.got.cif
#   From: 2010.05.17/outbox.cif.g08.bks.cpg/sg15_97_cif.got.tgz:192585.got - 2010.06.03 18:47:42.
