data_PCOD9262936
_publ_section_title
;
Structure prediction by ZEFSAII (Michael W. Deem and Ramdas Pophale) SiO2 
 PCOD9262936
Probable space group: C 2/C
;
_chemical_formula_sum "Si O2"
_cell_formula_units_Z 56
_cell_length_a 21.709155
_cell_length_b 15.321086
_cell_length_c 9.972560
_cell_angle_alpha 90.000000
_cell_angle_beta 134.041385
_cell_angle_gamma 90.000000
_cell_volume 2384.350346
_symmetry_space_group_name_H-M "C 2/C"
_symmetry_group_IT_number 15
_symmetry_cell_setting 'monoclinic'
loop_
_space_group_symop_operation_xyz
x,y,z
-x,y,1/2-z
-x,-y,-z
x,-y,1/2+z
1/2+x,1/2+y,z
1/2-x,1/2+y,1/2-z
1/2-x,1/2-y,-z
1/2+x,1/2-y,1/2+z
loop_
_atom_site_type_symbol
_atom_site_label
_atom_site_fract_x
_atom_site_fract_y
_atom_site_fract_z
Si Si1 0.886109 0.787679 0.704411
Si Si2 0.906265 0.980028 0.800492
Si Si3 0.195851 0.392513 0.133148
Si Si4 0.081920 0.479716 0.775066
Si Si5 0.268056 0.780726 0.806190
Si Si6 0.705110 0.542826 0.098988
Si Si7 0.468026 0.144157 0.961501
O O1 0.907121 0.888575 0.720726
O O2 0.809081 0.782303 0.698659
O O3 0.852039 0.737235 0.522298
O O4 0.966388 0.736542 0.888802
O O5 0.850297 0.968619 0.849444
O O6 0.858398 0.045000 0.624650
O O7 0.000000 0.000000 0.000000
O O8 0.253242 0.307939 0.199410
O O9 0.236642 0.454980 0.308492
O O10 0.100893 0.354176 0.022106
O O11 0.171848 0.457926 0.977673
O O12 0.077408 0.573358 0.701889
O O13 0.000000 0.483604 0.750000
O O14 0.055643 0.401494 0.635363
O O15 0.258632 0.868575 0.706412
#
# Coordination Sequence:
#
# PCOD9262936 Si02
#       7
#     8   8   8   8   8   8   8
#     4   9  17  34  59  82 110 155 206 237 283 367
#     4  11  24  42  62  87 122 160 204 251 305 360
#     4  10  19  33  58  81 112 148 193 244 287 352
#     4   9  18  31  49  82 116 145 182 239 304 342
#     4   9  18  33  57  88 109 148 204 243 286 356
#     4  11  23  39  65  90 118 160 203 252 303 354
#     4   9  18  32  55  80 111 151 192 236 288 356
#
# _framework density 23.48648
#
# number of rings (size 3 to 8) (size 9 to 14) (size 15 to 20)
#    0.000    2.286    1.429    1.286    4.000    1.143 
#    0.000    6.429    6.286    0.000    0.000    0.000 
#    0.000    0.000    0.000    0.000    0.000    0.000 
#
# Total GULP energy -156274.645683 kJ/mol
# GULP energy per Si atom -5581.237346 kJ/mol
# Density = 2.343302 g / cm^3
# Si number density = 23.486480 Si / 1000 Ang^3
#
#
#
# Elastic Constant Matrix: (Units=GPa)
#
#
# Indices 1 2 3 4 5 6 
#
# 1 55.3386 11.4494 17.3083 0.0000 2.7090 0.0000
# 2 11.4494 69.5192 33.9122 0.0000 4.8999 0.0000
# 3 17.3083 33.9122 121.8745 0.0000 -7.1114 0.0000
# 4 0.0000 0.0000 0.0000 24.8674 0.0000 -2.2927
# 5 2.7090 4.8999 -7.1114 0.0000 20.7958 0.0000
# 6 0.0000 0.0000 0.0000 -2.2927 0.0000 11.4036
#
#
#
# Elastic Compliance Matrix: (Units=1/GPa)
#
#
# Indices 1 2 3 4 5 6 
#
# 1 0.019342 -0.001801 -0.002416 0.000000 -0.002922 0.000000
# 2 -0.001801 0.017480 -0.004933 0.000000 -0.005571 0.000000
# 3 -0.002416 -0.004933 0.010211 0.000000 0.004969 0.000000
# 4 0.000000 0.000000 0.000000 0.040973 0.000000 0.008237
# 5 -0.002922 -0.005571 0.004969 0.000000 0.051479 0.000000
# 6 0.000000 0.000000 0.000000 0.008237 0.000000 0.089348
#
#
# Mechanical properties :
#
#
# Convention : Reuss Voigt Hill
#
# Bulk Modulus (GPa) = 34.80409 41.34136 38.07272
# Shear Modulus (GPa) = 19.47716 23.68420 21.58068
#
# Velocity S-wave (km/s) = 2.88287 3.17901 3.03455
# Velocity P-wave (km/s) = 5.09237 5.57810 5.34076
#
# Compressibility (1/GPa) = 0.02873225
#
# Stress axis : x y z
#
# Youngs Moduli (GPa) = 51.70120 57.20729 97.93390
#
# Poissons Ratio (x) = 0.10303 0.23663
# Poissons Ratio (y) = 0.09311 0.48314
# Poissons Ratio (z) = 0.12492 0.28222
#
# Static dielectric constant tensor:
#      x y z
#    x 2.014550 0.000000 -0.075460 
#    y 0.000000 1.890330 0.000000 
#    z -0.075460 0.000000 1.909910 
# 
# From -- ./inp_files/123353.got.cif
#   From: 2010.05.17/outbox.cif.g08.bks.cpg/sg15_62_cif.got.tgz:123353.got - 2010.06.03 18:47:42.
