data_PCOD9262259
_publ_section_title
;
Structure prediction by ZEFSAII (Michael W. Deem and Ramdas Pophale) SiO2 
 PCOD9262259
Probable space group: C 2/C
;
_chemical_formula_sum "Si O2"
_cell_formula_units_Z 44
_cell_length_a 21.488204
_cell_length_b 16.760985
_cell_length_c 5.250193
_cell_angle_alpha 90.000000
_cell_angle_beta 99.251912
_cell_angle_gamma 90.000000
_cell_volume 1866.328628
_symmetry_space_group_name_H-M "C 2/C"
_symmetry_group_IT_number 15
_symmetry_cell_setting 'monoclinic'
loop_
_space_group_symop_operation_xyz
x,y,z
-x,y,1/2-z
-x,-y,-z
x,-y,1/2+z
1/2+x,1/2+y,z
1/2-x,1/2+y,1/2-z
1/2-x,1/2-y,-z
1/2+x,1/2-y,1/2+z
loop_
_atom_site_type_symbol
_atom_site_label
_atom_site_fract_x
_atom_site_fract_y
_atom_site_fract_z
Si Si1 0.621931 0.266011 0.567240
Si Si2 0.000000 0.227183 0.750000
Si Si3 0.937589 0.896935 0.595298
Si Si4 0.318688 0.598619 0.709129
Si Si5 0.292940 0.044581 0.158144
Si Si6 0.789222 0.670236 0.531393
O O1 0.559230 0.229058 0.405145
O O2 0.600049 0.343562 0.722228
O O3 0.664009 0.312645 0.385987
O O4 0.654015 0.198110 0.754913
O O5 0.029294 0.169047 0.558731
O O6 0.883059 0.934934 0.379123
O O7 0.000000 0.941962 0.750000
O O8 0.282670 0.553243 0.456152
O O9 0.262229 0.610890 0.875746
O O10 0.308171 0.132863 0.273865
O O11 0.317086 0.991245 0.410208
O O12 0.750000 0.750000 0.500000
#
# Coordination Sequence:
#
# PCOD9262259 Si02
#       6
#     8   4   8   8   8   8
#     4  10  19  32  56  92 120 155 195 257 301 358
#     4   8  18  30  50  80 128 154 190 242 314 356
#     4   9  17  32  51  84 120 157 195 248 306 348
#     4  11  20  35  59  87 123 161 198 249 305 360
#     4  12  26  42  57  85 128 170 202 246 312 371
#     4  12  22  36  63  95 121 156 207 259 304 358
#
# _framework density 23.575699
#
# number of rings (size 3 to 8) (size 9 to 14) (size 15 to 20)
#    0.000    1.455    5.455    0.545    0.000    0.000 
#    0.000    0.000    0.000    1.091    0.000    1.273 
#    0.000    0.182    0.000    0.000    0.000    0.000 
#
# Total GULP energy -122683.027731 kJ/mol
# GULP energy per Si atom -5576.501260 kJ/mol
# Density = 2.352204 g / cm^3
# Si number density = 23.575699 Si / 1000 Ang^3
#
#
#
# Elastic Constant Matrix: (Units=GPa)
#
#
# Indices 1 2 3 4 5 6 
#
# 1 69.3499 -4.0854 33.2182 0.0000 25.5883 0.0000
# 2 -4.0854 71.3757 23.8353 0.0000 12.3810 0.0000
# 3 33.2182 23.8353 145.0646 0.0000 30.2858 0.0000
# 4 0.0000 0.0000 0.0000 56.2121 0.0000 10.1011
# 5 25.5883 12.3810 30.2858 0.0000 63.3128 0.0000
# 6 0.0000 0.0000 0.0000 10.1011 0.0000 16.6362
#
#
#
# Elastic Compliance Matrix: (Units=1/GPa)
#
#
# Indices 1 2 3 4 5 6 
#
# 1 0.018697 0.003365 -0.003465 0.000000 -0.006557 0.000000
# 2 0.003365 0.015644 -0.002687 0.000000 -0.003134 0.000000
# 3 -0.003465 -0.002687 0.008584 0.000000 -0.002180 0.000000
# 4 0.000000 0.000000 0.000000 0.019968 0.000000 -0.012124
# 5 -0.006557 -0.003134 -0.002180 0.000000 0.020100 0.000000
# 6 0.000000 0.000000 0.000000 -0.012124 0.000000 0.067472
#
#
# Mechanical properties :
#
#
# Convention : Reuss Voigt Hill
#
# Bulk Modulus (GPa) = 26.77375 43.52516 35.14945
# Shear Modulus (GPa) = 29.67551 42.75368 36.21460
#
# Velocity S-wave (km/s) = 3.55171 4.26310 3.92356
# Velocity P-wave (km/s) = 5.31043 6.53712 5.95545
#
# Compressibility (1/GPa) = 0.03735001
#
# Stress axis : x y z
#
# Youngs Moduli (GPa) = 53.48430 63.92324 116.50146
#
# Poissons Ratio (x) = -0.21509 0.40372
# Poissons Ratio (y) = -0.17996 0.31299
# Poissons Ratio (z) = 0.18534 0.17174
#
# Static dielectric constant tensor:
#      x y z
#    x 0.854310 0.000000 -0.267470 
#    y 0.000000 1.995300 0.000000 
#    z -0.267470 0.000000 2.094030 
# 
# From -- ./inp_files/15367.got.cif
#   From: 2010.05.17/outbox.cif.g08.bks.cpg/sg15_8_cif.got.tgz:15367.got - 2010.06.03 18:47:42.
