data_PCOD9262924
_publ_section_title
;
Structure prediction by ZEFSAII (Michael W. Deem and Ramdas Pophale) SiO2 
 PCOD9262924
Probable space group: C 2/C
;
_chemical_formula_sum "Si O2"
_cell_formula_units_Z 52
_cell_length_a 14.289130
_cell_length_b 21.655526
_cell_length_c 10.385567
_cell_angle_alpha 90.000000
_cell_angle_beta 51.066146
_cell_angle_gamma 90.000000
_cell_volume 2499.843722
_symmetry_space_group_name_H-M "C 2/C"
_symmetry_group_IT_number 15
_symmetry_cell_setting 'monoclinic'
loop_
_space_group_symop_operation_xyz
x,y,z
-x,y,1/2-z
-x,-y,-z
x,-y,1/2+z
1/2+x,1/2+y,z
1/2-x,1/2+y,1/2-z
1/2-x,1/2-y,-z
1/2+x,1/2-y,1/2+z
loop_
_atom_site_type_symbol
_atom_site_label
_atom_site_fract_x
_atom_site_fract_y
_atom_site_fract_z
Si Si1 0.491531 0.097901 0.454132
Si Si2 0.175363 0.602652 0.648476
Si Si3 0.359355 0.301210 0.582379
Si Si4 0.000000 0.496717 0.250000
Si Si5 0.613599 0.664216 0.913481
Si Si6 0.804462 0.323238 0.018336
Si Si7 0.156399 0.302639 0.948913
O O1 0.403916 0.095999 0.654617
O O2 0.534377 0.035920 0.347731
O O3 0.395550 0.121340 0.432121
O O4 0.588394 0.148709 0.414019
O O5 0.117764 0.546257 0.617177
O O6 0.315555 0.612442 0.564725
O O7 0.147595 0.665683 0.595450
O O8 0.475937 0.344045 0.489957
O O9 0.259933 0.317203 0.561391
O O10 0.386534 0.232734 0.503364
O O11 0.292465 0.299530 0.776763
O O12 0.697883 0.671350 0.714872
O O13 0.611526 0.732192 0.981948
#
# Coordination Sequence:
#
# PCOD9262924 Si02
#       7
#     8   8   8   4   8   8   8
#     4  11  21  40  62  91 119 156 215 262 312 354
#     4  11  24  39  58  89 125 161 203 258 315 374
#     4  10  19  33  57  91 127 162 199 244 315 381
#     4  12  24  40  68  90 122 166 214 272 308 360
#     4  10  21  37  58  89 131 169 196 252 318 384
#     4   9  19  34  57  90 125 160 204 256 303 364
#     4  11  21  36  59  91 126 163 200 260 315 379
#
# _framework density 20.801302
#
# number of rings (size 3 to 8) (size 9 to 14) (size 15 to 20)
#    0.000    1.538    3.077    2.308    0.000    0.615 
#    2.769    0.000    0.000    3.692   16.000    0.000 
#    0.000    0.000    0.000    0.000    0.000    0.000 
#
# Total GULP energy -144773.132978 kJ/mol
# GULP energy per Si atom -5568.197422 kJ/mol
# Density = 2.075396 g / cm^3
# Si number density = 20.801302 Si / 1000 Ang^3
#
#
#
# Elastic Constant Matrix: (Units=GPa)
#
#
# Indices 1 2 3 4 5 6 
#
# 1 83.1869 33.2509 25.1569 0.0000 -12.4155 0.0000
# 2 33.2509 66.1305 23.9562 0.0000 0.2759 0.0000
# 3 25.1569 23.9562 48.8871 0.0000 5.9235 0.0000
# 4 0.0000 0.0000 0.0000 29.6968 0.0000 2.8619
# 5 -12.4155 0.2759 5.9235 0.0000 30.5914 0.0000
# 6 0.0000 0.0000 0.0000 2.8619 0.0000 37.4586
#
#
#
# Elastic Compliance Matrix: (Units=1/GPa)
#
#
# Indices 1 2 3 4 5 6 
#
# 1 0.018126 -0.006547 -0.007186 0.000000 0.008807 0.000000
# 2 -0.006547 0.020829 -0.006649 0.000000 -0.001558 0.000000
# 3 -0.007186 -0.006649 0.028424 0.000000 -0.008360 0.000000
# 4 0.000000 0.000000 0.000000 0.033923 0.000000 -0.002592
# 5 0.008807 -0.001558 -0.008360 0.000000 0.037896 0.000000
# 6 0.000000 0.000000 0.000000 -0.002592 0.000000 0.026894
#
#
# Mechanical properties :
#
#
# Convention : Reuss Voigt Hill
#
# Bulk Modulus (GPa) = 37.57364 40.32585 38.94974
# Shear Modulus (GPa) = 23.17733 27.27207 25.22470
#
# Velocity S-wave (km/s) = 3.34162 3.62481 3.48609
# Velocity P-wave (km/s) = 5.74377 6.07842 5.91347
#
# Compressibility (1/GPa) = 0.02661441
#
# Stress axis : x y z
#
# Youngs Moduli (GPa) = 55.17018 48.01069 35.18119
#
# Poissons Ratio (x) = 0.31434 0.25281
# Poissons Ratio (y) = 0.36121 0.23391
# Poissons Ratio (z) = 0.39646 0.31921
#
# Static dielectric constant tensor:
#      x y z
#    x 1.845560 0.000000 0.052630 
#    y 0.000000 1.848420 0.000000 
#    z 0.052630 0.000000 1.744430 
# 
# From -- ./inp_files/99720.got.cif
#   From: 2010.05.17/outbox.cif.g08.bks.cpg/sg15_50_cif.got.tgz:99720.got - 2010.06.03 18:47:42.
