data_PCOD9262287
_publ_section_title
;
Structure prediction by ZEFSAII (Michael W. Deem and Ramdas Pophale) SiO2 
 PCOD9262287
Probable space group: C 2/C
;
_chemical_formula_sum "Si O2"
_cell_formula_units_Z 56
_cell_length_a 12.513731
_cell_length_b 14.885540
_cell_length_c 18.380107
_cell_angle_alpha 90.000000
_cell_angle_beta 43.734606
_cell_angle_gamma 90.000000
_cell_volume 2366.889077
_symmetry_space_group_name_H-M "C 2/C"
_symmetry_group_IT_number 15
_symmetry_cell_setting 'monoclinic'
loop_
_space_group_symop_operation_xyz
x,y,z
-x,y,1/2-z
-x,-y,-z
x,-y,1/2+z
1/2+x,1/2+y,z
1/2-x,1/2+y,1/2-z
1/2-x,1/2-y,-z
1/2+x,1/2-y,1/2+z
loop_
_atom_site_type_symbol
_atom_site_label
_atom_site_fract_x
_atom_site_fract_y
_atom_site_fract_z
Si Si1 0.027027 0.104443 0.919812
Si Si2 0.637947 0.290775 0.628968
Si Si3 0.004248 0.338879 0.471347
Si Si4 0.498692 0.801635 0.868517
Si Si5 0.752222 0.818214 0.632413
Si Si6 0.130601 0.059200 0.019312
Si Si7 0.950014 0.581546 0.855025
O O1 0.867723 0.108092 0.045084
O O2 0.997225 0.012539 0.892573
O O3 0.041922 0.198957 0.872396
O O4 0.143344 0.085542 0.927613
O O5 0.500000 0.319850 0.750000
O O6 0.818715 0.311337 0.560510
O O7 0.604720 0.348934 0.574252
O O8 0.602993 0.185764 0.632717
O O9 0.042902 0.405951 0.385270
O O10 0.029161 0.358403 0.544846
O O11 0.130071 0.259454 0.400562
O O12 0.639359 0.841885 0.753250
O O13 0.355910 0.792171 0.883057
O O14 0.301588 0.026117 0.953743
O O15 0.000000 0.548931 0.750000
#
# Coordination Sequence:
#
# PCOD9262287 Si02
#       7
#     8   8   8   8   8   8   8
#     4  10  20  37  62  77 122 156 184 251 293 353
#     4  10  20  33  56  88 119 152 192 236 282 358
#     4  10  19  32  58  84 115 145 183 252 293 328
#     4  10  21  37  62  89 108 151 210 248 286 343
#     4  10  21  37  62  89 108 151 210 248 286 343
#     4  10  21  37  54  90 120 153 192 228 304 364
#     4  10  20  33  56  88 119 152 192 236 282 358
#
# _framework density 23.659749000000001
#
# number of rings (size 3 to 8) (size 9 to 14) (size 15 to 20)
#    0.000    2.000    0.000    6.857    8.000    0.000 
#    5.143    0.000    0.000   13.714    0.000    0.000 
#    0.000    0.000    0.000    0.000    0.000    0.000 
#
# Total GULP energy -155912.147771 kJ/mol
# GULP energy per Si atom -5568.290992 kJ/mol
# Density = 2.360590 g / cm^3
# Si number density = 23.659749 Si / 1000 Ang^3
#
#
#
# Elastic Constant Matrix: (Units=GPa)
#
#
# Indices 1 2 3 4 5 6 
#
# 1 111.5662 13.7833 17.5488 -0.0001 10.5596 0.0000
# 2 13.7833 40.1358 -17.0045 0.0000 7.4567 0.0000
# 3 17.5488 -17.0045 110.7350 -0.0002 13.8936 0.0001
# 4 -0.0001 0.0000 -0.0002 5.4151 0.0001 0.8305
# 5 10.5596 7.4567 13.8936 0.0001 38.2639 0.0000
# 6 0.0000 0.0000 0.0001 0.8305 0.0000 33.4791
#
#
#
# Elastic Compliance Matrix: (Units=1/GPa)
#
#
# Indices 1 2 3 4 5 6 
#
# 1 0.009897 -0.004038 -0.002037 0.000000 -0.001204 0.000000
# 2 -0.004038 0.030214 0.006159 0.000001 -0.007010 0.000000
# 3 -0.002037 0.006159 0.010875 0.000000 -0.004587 0.000000
# 4 0.000000 0.000001 0.000000 0.185375 -0.000001 -0.004598
# 5 -0.001204 -0.007010 -0.004587 -0.000001 0.029498 0.000000
# 6 0.000000 0.000000 0.000000 -0.004598 0.000000 0.029983
#
#
# Mechanical properties :
#
#
# Convention : Reuss Voigt Hill
#
# Bulk Modulus (GPa) = 19.54928 32.34356 25.94642
# Shear Modulus (GPa) = 15.98846 31.97225 23.98035
#
# Velocity S-wave (km/s) = 2.60237 3.68004 3.18708
# Velocity P-wave (km/s) = 4.16058 5.63532 4.95314
#
# Compressibility (1/GPa) = 0.05115277
#
# Stress axis : x y z
#
# Youngs Moduli (GPa) = 101.04456 33.09727 91.95651
#
# Poissons Ratio (x) = 0.13365 0.18735
# Poissons Ratio (y) = 0.40802 -0.56637
# Poissons Ratio (z) = 0.20586 -0.20385
#
# Static dielectric constant tensor:
#      x y z
#    x 2.081320 0.000000 -0.015200 
#    y 0.000000 1.995510 0.000000 
#    z -0.015200 0.000000 1.953580 
# 
# From -- ./inp_files/199445.got.cif
#   From: 2010.05.17/outbox.cif.g08.bks.cpg/sg15_100_cif.got.tgz:199445.got - 2010.06.03 18:47:42.
