data_PCOD9262035
_publ_section_title
;
Structure prediction by ZEFSAII (Michael W. Deem and Ramdas Pophale) SiO2 
 PCOD9262035
Probable space group: C 2/C
;
_chemical_formula_sum "Si O2"
_cell_formula_units_Z 52
_cell_length_a 5.466365
_cell_length_b 26.122169
_cell_length_c 21.438918
_cell_angle_alpha 90.000000
_cell_angle_beta 115.683602
_cell_angle_gamma 90.000000
_cell_volume 2758.877624
_symmetry_space_group_name_H-M "C 2/C"
_symmetry_group_IT_number 15
_symmetry_cell_setting 'monoclinic'
loop_
_space_group_symop_operation_xyz
x,y,z
-x,y,1/2-z
-x,-y,-z
x,-y,1/2+z
1/2+x,1/2+y,z
1/2-x,1/2+y,1/2-z
1/2-x,1/2-y,-z
1/2+x,1/2-y,1/2+z
loop_
_atom_site_type_symbol
_atom_site_label
_atom_site_fract_x
_atom_site_fract_y
_atom_site_fract_z
Si Si1 0.841592 0.749799 0.909240
Si Si2 0.090385 0.906473 0.121207
Si Si3 0.500000 0.402143 0.250000
Si Si4 0.295611 0.015373 0.558105
Si Si5 0.559683 0.916251 0.980337
Si Si6 0.103471 0.302827 0.560257
Si Si7 0.473856 0.822605 0.312870
O O1 0.562815 0.776651 0.900810
O O2 0.835375 0.709469 0.852219
O O3 0.081531 0.787978 0.913213
O O4 0.956700 0.719628 0.982162
O O5 0.984561 0.923401 0.177808
O O6 0.279823 0.952957 0.119443
O O7 0.247955 0.851876 0.137781
O O8 0.852508 0.903142 0.043410
O O9 0.768359 0.368081 0.275032
O O10 0.411806 0.055274 0.520918
O O11 0.440462 0.960488 0.572210
O O12 0.000000 0.000000 0.500000
O O13 0.432148 0.863599 0.943973
O O14 0.500000 0.793127 0.250000
#
# Coordination Sequence:
#
# PCOD9262035 Si02
#       7
#     8   8   4   8   8   8   8
#     4  10  22  35  51  83 108 149 181 228 275 328
#     4  10  19  32  52  79 111 141 178 230 272 340
#     4  10  20  32  52  78 108 142 180 220 284 316
#     4   9  19  32  53  76 109 141 176 220 280 329
#     4  10  20  34  52  80 109 147 177 226 278 342
#     4  10  22  33  55  78 117 143 182 224 279 329
#     4  10  22  35  55  78 110 146 185 229 276 333
#
# _framework density 18.848243
#
# number of rings (size 3 to 8) (size 9 to 14) (size 15 to 20)
#    0.000    2.154    0.000    2.769   15.077    0.000 
#    0.000    0.000    0.000    0.000    2.000    6.462 
#    0.000    0.000    0.000    0.000    0.000    0.000 
#
# Total GULP energy -144804.160619 kJ/mol
# GULP energy per Si atom -5569.390793 kJ/mol
# Density = 1.880534 g / cm^3
# Si number density = 18.848243 Si / 1000 Ang^3
#
#
#
# Elastic Constant Matrix: (Units=GPa)
#
#
# Indices 1 2 3 4 5 6 
#
# 1 74.0688 29.9848 10.8645 0.0000 -20.0860 0.0000
# 2 29.9848 97.1631 15.6010 0.0000 -19.2958 0.0000
# 3 10.8645 15.6010 46.5876 0.0000 -22.4281 0.0000
# 4 0.0000 0.0000 0.0000 10.0260 0.0000 -18.4574
# 5 -20.0860 -19.2958 -22.4281 0.0000 33.2866 0.0000
# 6 0.0000 0.0000 0.0000 -18.4574 0.0000 12.1260
#
#
#
# Elastic Compliance Matrix: (Units=1/GPa)
#
#
# Indices 1 2 3 4 5 6 
#
# 1 0.017330 -0.003751 0.001779 0.000000 0.009482 0.000000
# 2 -0.003751 0.012472 -0.001348 0.000000 0.004058 0.000000
# 3 0.001779 -0.001348 0.032033 0.000000 0.021875 0.000000
# 4 0.000000 0.000000 0.000000 -0.055344 0.000000 -0.084241
# 5 0.009482 0.004058 0.021875 0.000000 0.052856 0.000000
# 6 0.000000 0.000000 0.000000 -0.084241 0.000000 -0.045760
#
#
# Mechanical properties :
#
#
# Convention : Reuss Voigt Hill
#
# Bulk Modulus (GPa) = 18.11751 36.74669 27.43210
# Shear Modulus (GPa) = 129.45497 21.84566 75.65032
#
# Velocity S-wave (km/s) = 8.29650 3.40814 6.34221
# Velocity P-wave (km/s) = 10.07020 5.91825 8.25938
#
# Compressibility (1/GPa) = 0.05519522
#
# Stress axis : x y z
#
# Youngs Moduli (GPa) = 57.70477 80.18076 31.21808
#
# Poissons Ratio (x) = 0.30073 -0.05555
# Poissons Ratio (y) = 0.21643 0.04209
# Poissons Ratio (z) = -0.10268 0.10809
#
# Static dielectric constant tensor:
#      x y z
#    x 1.679250 0.000000 -0.037010 
#    y 0.000000 1.671840 0.000000 
#    z -0.037010 0.000000 1.675700 
# 
# From -- ./inp_files/227976.got.cif
#   From: 2010.05.17/outbox.cif.g08.bks.cpg/sg15_114_cif.got.tgz:227976.got - 2010.06.03 18:47:42.
