data_PCOD9262213
_publ_section_title
;
Structure prediction by ZEFSAII (Michael W. Deem and Ramdas Pophale) SiO2 
 PCOD9262213
Probable space group: C 2/C
;
_chemical_formula_sum "Si O2"
_cell_formula_units_Z 60
_cell_length_a 8.442174
_cell_length_b 21.361218
_cell_length_c 28.954688
_cell_angle_alpha 90.000000
_cell_angle_beta 137.838494
_cell_angle_gamma 90.000000
_cell_volume 3504.821109
_symmetry_space_group_name_H-M "C 2/C"
_symmetry_group_IT_number 15
_symmetry_cell_setting 'monoclinic'
loop_
_space_group_symop_operation_xyz
x,y,z
-x,y,1/2-z
-x,-y,-z
x,-y,1/2+z
1/2+x,1/2+y,z
1/2-x,1/2+y,1/2-z
1/2-x,1/2-y,-z
1/2+x,1/2-y,1/2+z
loop_
_atom_site_type_symbol
_atom_site_label
_atom_site_fract_x
_atom_site_fract_y
_atom_site_fract_z
Si Si1 0.611562 0.087594 0.929108
Si Si2 0.273028 0.679620 0.290532
Si Si3 0.000000 0.115583 0.250000
Si Si4 0.231008 0.015069 0.364110
Si Si5 0.709781 0.023043 0.860960
Si Si6 0.272695 0.560945 0.771701
Si Si7 0.221888 0.675020 0.699456
Si Si8 0.443997 0.414497 0.584392
O O1 0.755622 0.066286 0.914839
O O2 0.432006 0.141577 0.873609
O O3 0.468666 0.024193 0.910916
O O4 0.771260 0.106375 0.006487
O O5 0.346289 0.653211 0.255460
O O6 0.338464 0.752943 0.305814
O O7 0.430710 0.640756 0.360701
O O8 0.000000 0.672749 0.250000
O O9 0.821057 0.071387 0.182370
O O10 0.192583 0.043808 0.406748
O O11 0.024061 0.964253 0.310232
O O12 0.774802 0.056599 0.827056
O O13 0.427324 0.015087 0.792934
O O14 0.853855 0.959258 0.893217
O O15 0.198376 0.628741 0.737971
O O16 0.500000 0.673407 0.750000
#
# Coordination Sequence:
#
# PCOD9262213 Si02
#       8
#     8   8   4   8   8   8   8   8
#     4  11  20  33  56  78 109 140 175 220 266 331
#     4  10  24  37  57  79 109 146 183 229 265 318
#     4  10  20  36  56  84 106 140 178 222 282 320
#     4  10  19  32  56  79 106 135 173 222 274 317
#     4   9  19  29  51  82 109 135 164 217 276 318
#     4   9  17  32  54  80 105 131 176 229 261 310
#     4  10  19  36  56  79 100 139 187 221 263 308
#     4  10  22  35  49  81 112 143 172 211 277 332
#
# _framework density 17.119277
#
# number of rings (size 3 to 8) (size 9 to 14) (size 15 to 20)
#    0.000    2.133    1.333    2.400    7.467    2.667 
#    0.000    0.000    0.000    0.000    0.000    6.533 
#    0.000    0.000    0.000    0.000    0.000    0.000 
#
# Total GULP energy -167159.770321 kJ/mol
# GULP energy per Si atom -5571.992344 kJ/mol
# Density = 1.708031 g / cm^3
# Si number density = 17.119277 Si / 1000 Ang^3
#
#
#
# Elastic Constant Matrix: (Units=GPa)
#
#
# Indices 1 2 3 4 5 6 
#
# 1 64.1448 37.9251 36.6211 -0.0002 -8.1877 -0.0001
# 2 37.9251 107.0673 51.4031 0.0000 -2.3846 0.0001
# 3 36.6211 51.4031 116.5426 0.0001 -18.1323 -0.0001
# 4 -0.0002 0.0000 0.0001 11.0795 -0.0004 1.9605
# 5 -8.1877 -2.3846 -18.1323 -0.0004 19.5647 -0.0002
# 6 -0.0001 0.0001 -0.0001 1.9605 -0.0002 23.4403
#
#
#
# Elastic Compliance Matrix: (Units=1/GPa)
#
#
# Indices 1 2 3 4 5 6 
#
# 1 0.021705 -0.005947 -0.003385 0.000001 0.005221 0.000000
# 2 -0.005947 0.013749 -0.005050 0.000000 -0.005493 0.000000
# 3 -0.003385 -0.005050 0.013502 0.000000 0.010482 0.000000
# 4 0.000001 0.000000 0.000000 0.091613 0.000002 -0.007662
# 5 0.005221 -0.005493 0.010482 0.000002 0.062343 0.000001
# 6 0.000000 0.000000 0.000000 -0.007662 0.000001 0.043302
#
#
# Mechanical properties :
#
#
# Convention : Reuss Voigt Hill
#
# Bulk Modulus (GPa) = 49.52432 59.96147 54.74290
# Shear Modulus (GPa) = 17.74887 21.60391 19.67639
#
# Velocity S-wave (km/s) = 3.22340 3.55627 3.39391
# Velocity P-wave (km/s) = 6.54565 7.20864 6.88513
#
# Compressibility (1/GPa) = 0.02019210
#
# Stress axis : x y z
#
# Youngs Moduli (GPa) = 46.07296 72.73482 74.06065
#
# Poissons Ratio (x) = 0.43254 0.25069
# Poissons Ratio (y) = 0.27399 0.37401
# Poissons Ratio (z) = 0.15596 0.36732
#
# Static dielectric constant tensor:
#      x y z
#    x 1.639350 0.000000 -0.002640 
#    y 0.000000 1.570310 0.000000 
#    z -0.002640 0.000000 1.573880 
# 
# From -- ./inp_files/290125.got.cif
#   From: 2010.05.17/outbox.cif.g08.bks.cpg/sg15_146_cif.got.tgz:290125.got - 2010.06.03 18:47:42.
