data_PCOD9262205
_publ_section_title
;
Structure prediction by ZEFSAII (Michael W. Deem and Ramdas Pophale) SiO2 
 PCOD9262205
Probable space group: C 2/C
;
_chemical_formula_sum "Si O2"
_cell_formula_units_Z 60
_cell_length_a 15.736372
_cell_length_b 14.038512
_cell_length_c 12.789529
_cell_angle_alpha 90.000000
_cell_angle_beta 52.190686
_cell_angle_gamma 90.000000
_cell_volume 2232.223985
_symmetry_space_group_name_H-M "C 2/C"
_symmetry_group_IT_number 15
_symmetry_cell_setting 'monoclinic'
loop_
_space_group_symop_operation_xyz
x,y,z
-x,y,1/2-z
-x,-y,-z
x,-y,1/2+z
1/2+x,1/2+y,z
1/2-x,1/2+y,1/2-z
1/2-x,1/2-y,-z
1/2+x,1/2-y,1/2+z
loop_
_atom_site_type_symbol
_atom_site_label
_atom_site_fract_x
_atom_site_fract_y
_atom_site_fract_z
Si Si1 0.443623 0.851777 0.103881
Si Si2 0.636097 0.302841 0.279860
Si Si3 0.181678 0.401573 0.683181
Si Si4 0.601212 0.575936 0.241870
Si Si5 0.923117 0.859470 0.517858
Si Si6 0.780776 0.733126 0.860071
Si Si7 0.500000 0.043425 0.750000
Si Si8 0.799149 0.474888 0.117332
O O1 0.437424 0.750111 0.050964
O O2 0.344399 0.855475 0.263732
O O3 0.416860 0.927690 0.033411
O O4 0.528401 0.891177 0.124803
O O5 0.630849 0.204224 0.222300
O O6 0.526164 0.361466 0.366448
O O7 0.676283 0.265540 0.364580
O O8 0.727596 0.377022 0.177552
O O9 0.305919 0.379254 0.557965
O O10 0.193419 0.450453 0.789639
O O11 0.102241 0.471916 0.683254
O O12 0.500000 0.551034 0.250000
O O13 0.573099 0.568378 0.386256
O O14 0.627623 0.687285 0.219253
O O15 0.713034 0.533113 0.114220
O O16 0.750000 0.750000 0.000000
#
# Coordination Sequence:
#
# PCOD9262205 Si02
#       8
#     8   8   8   8   8   8   4   8
#     4   9  19  36  58  84 115 159 195 251 300 356
#     4  11  20  37  63  85 116 167 196 244 312 363
#     4  10  20  42  58  88 120 161 203 252 300 372
#     4  10  19  33  53  85 122 150 192 254 297 354
#     4  10  20  36  64  87 121 153 204 252 309 363
#     4  10  19  32  55  88 122 145 196 249 302 358
#     4  10  22  36  64  82 122 164 204 246 314 354
#     4   9  18  38  58  79 120 155 201 238 307 360
#
# _framework density 26.879024000000001
#
# number of rings (size 3 to 8) (size 9 to 14) (size 15 to 20)
#    0.000    2.133    5.333    0.800    5.600    2.133 
#    1.200    6.000    0.000    0.000    0.000    0.000 
#    0.000    0.000    0.000    0.000    0.000    0.000 
#
# Total GULP energy -167031.567434 kJ/mol
# GULP energy per Si atom -5567.718914 kJ/mol
# Density = 2.681785 g / cm^3
# Si number density = 26.879024 Si / 1000 Ang^3
#
#
#
# Elastic Constant Matrix: (Units=GPa)
#
#
# Indices 1 2 3 4 5 6 
#
# 1 133.0729 17.9787 21.5221 0.0000 -27.9569 0.0000
# 2 17.9787 132.4851 -0.9086 0.0000 -9.5367 0.0000
# 3 21.5221 -0.9086 38.2023 0.0000 -7.5572 0.0000
# 4 0.0000 0.0000 0.0000 25.3363 0.0000 -8.0513
# 5 -27.9569 -9.5367 -7.5572 0.0000 32.7267 0.0000
# 6 0.0000 0.0000 0.0000 -8.0513 0.0000 47.0333
#
#
#
# Elastic Compliance Matrix: (Units=1/GPa)
#
#
# Indices 1 2 3 4 5 6 
#
# 1 0.009803 -0.000842 -0.004123 0.000000 0.007177 0.000000
# 2 -0.000842 0.007798 0.001013 0.000000 0.001787 0.000000
# 3 -0.004123 0.001013 0.029220 0.000000 0.003520 0.000000
# 4 0.000000 0.000000 0.000000 0.041740 0.000000 0.007145
# 5 0.007177 0.001787 0.003520 0.000000 0.038021 0.000000
# 6 0.000000 0.000000 0.000000 0.007145 0.000000 0.022485
#
#
# Mechanical properties :
#
#
# Convention : Reuss Voigt Hill
#
# Bulk Modulus (GPa) = 25.69555 42.32720 34.01138
# Shear Modulus (GPa) = 29.42189 38.69712 34.05951
#
# Velocity S-wave (km/s) = 3.31207 3.79842 3.56355
# Velocity P-wave (km/s) = 4.92005 5.91767 5.44177
#
# Compressibility (1/GPa) = 0.03891724
#
# Stress axis : x y z
#
# Youngs Moduli (GPa) = 102.00931 128.24019 34.22342
#
# Poissons Ratio (x) = 0.10797 0.14111
# Poissons Ratio (y) = 0.08589 -0.03468
# Poissons Ratio (z) = 0.42059 -0.12995
#
# Static dielectric constant tensor:
#      x y z
#    x 2.284080 0.000000 -0.070540 
#    y 0.000000 2.214690 0.000000 
#    z -0.070540 0.000000 3.366600 
# 
# From -- ./inp_files/211086.got.cif
#   From: 2010.05.17/outbox.cif.g08.bks.cpg/sg15_106_cif.got.tgz:211086.got - 2010.06.03 18:47:42.
