data_PCOD9262392
_publ_section_title
;
Structure prediction by ZEFSAII (Michael W. Deem and Ramdas Pophale) SiO2 
 PCOD9262392
Probable space group: C 2/C
;
_chemical_formula_sum "Si O2"
_cell_formula_units_Z 60
_cell_length_a 30.524971
_cell_length_b 19.675994
_cell_length_c 5.502591
_cell_angle_alpha 90.000000
_cell_angle_beta 111.132776
_cell_angle_gamma 90.000000
_cell_volume 3082.643082
_symmetry_space_group_name_H-M "C 2/C"
_symmetry_group_IT_number 15
_symmetry_cell_setting 'monoclinic'
loop_
_space_group_symop_operation_xyz
x,y,z
-x,y,1/2-z
-x,-y,-z
x,-y,1/2+z
1/2+x,1/2+y,z
1/2-x,1/2+y,1/2-z
1/2-x,1/2-y,-z
1/2+x,1/2-y,1/2+z
loop_
_atom_site_type_symbol
_atom_site_label
_atom_site_fract_x
_atom_site_fract_y
_atom_site_fract_z
Si Si1 0.000000 0.042072 0.250000
Si Si2 0.893729 0.312335 0.537459
Si Si3 0.641594 0.344577 0.533187
Si Si4 0.408526 0.364567 0.567052
Si Si5 0.709554 0.855075 0.169109
Si Si6 0.943781 0.291963 0.137563
Si Si7 0.807057 0.497291 0.864114
Si Si8 0.246661 0.353191 0.743323
O O1 0.953513 0.087655 0.157027
O O2 0.000000 0.000000 0.500000
O O3 0.874120 0.234570 0.498239
O O4 0.846539 0.356157 0.443077
O O5 0.922640 0.321838 0.346090
O O6 0.922640 0.321838 0.844470
O O7 0.620732 0.374498 0.742526
O O8 0.697514 0.351986 0.645029
O O9 0.620732 0.374498 0.240403
O O10 0.427582 0.287044 0.605163
O O11 0.727320 0.822299 0.453400
O O12 0.724793 0.934569 0.199585
O O13 0.727320 0.822299 0.955882
O O14 0.000000 0.295970 0.250000
O O15 0.834885 0.500000 0.669770
O O16 0.776074 0.429166 0.802148
#
# Coordination Sequence:
#
# PCOD9262392 Si02
#       8
#     4   8   8   8   8   8   8   8
#     4  12  24  40  58  80 104 138 186 236 284 332
#     4  10  21  32  52  83 109 135 178 222 271 325
#     4  10  21  35  54  78 106 139 183 220 269 326
#     4  10  21  39  56  76 104 138 175 226 278 322
#     4  10  19  33  50  74 110 139 176 225 265 308
#     4  10  19  36  58  79 104 141 174 213 275 335
#     4   8  16  30  47  67  92 132 177 210 245 297
#     4  10  19  33  52  73 104 146 182 216 259 316
#
# _framework density 19.463816000000001
#
# number of rings (size 3 to 8) (size 9 to 14) (size 15 to 20)
#    0.000    2.133    0.667    2.800    0.000    1.067 
#    0.000   12.000    0.000    0.000    0.000    0.000 
#    0.000   96.000    0.000    0.000    0.000    0.000 
#
# Total GULP energy -167197.711661 kJ/mol
# GULP energy per Si atom -5573.257055 kJ/mol
# Density = 1.941952 g / cm^3
# Si number density = 19.463816 Si / 1000 Ang^3
#
#
#
# Elastic Constant Matrix: (Units=GPa)
#
#
# Indices 1 2 3 4 5 6 
#
# 1 166.7998 4.9481 104.8313 0.0000 -13.6945 0.0000
# 2 4.9481 27.8152 13.5675 0.0000 -6.5967 0.0000
# 3 104.8313 13.5675 221.1541 0.0000 -27.9042 0.0000
# 4 0.0000 0.0000 0.0000 -5.5440 0.0000 -3.9906
# 5 -13.6945 -6.5967 -27.9042 0.0000 50.8062 0.0000
# 6 0.0000 0.0000 0.0000 -3.9906 0.0000 -10.7582
#
#
#
# Elastic Compliance Matrix: (Units=1/GPa)
#
#
# Indices 1 2 3 4 5 6 
#
# 1 0.008546 0.000494 -0.004064 0.000000 0.000136 0.000000
# 2 0.000494 0.037795 -0.002060 0.000000 0.003909 0.000000
# 3 -0.004064 -0.002060 0.006879 0.000000 0.002415 0.000000
# 4 0.000000 0.000000 0.000000 -0.246082 0.000000 0.091280
# 5 0.000136 0.003909 0.002415 0.000000 0.021553 0.000000
# 6 0.000000 0.000000 0.000000 0.091280 0.000000 -0.126811
#
#
# Mechanical properties :
#
#
# Convention : Reuss Voigt Hill
#
# Bulk Modulus (GPa) = 23.83133 73.60695 48.71914
# Shear Modulus (GPa) = -18.32360 26.39562 4.03601
#
# Velocity S-wave (km/s) = -3.07158 3.68657 1.44156
# Velocity P-wave (km/s) = 0.55588 7.48469 5.27786
#
# Compressibility (1/GPa) = 0.04196157
#
# Stress axis : x y z
#
# Youngs Moduli (GPa) = 117.01456 26.45818 145.36241
#
# Poissons Ratio (x) = -0.01308 0.59078
# Poissons Ratio (y) = -0.05784 0.29941
# Poissons Ratio (z) = 0.47557 0.05450
#
# Static dielectric constant tensor:
#      x y z
#    x 1.662200 0.000000 -0.076320 
#    y 0.000000 1.718810 0.000000 
#    z -0.076320 0.000000 1.761920 
# 
# From -- ./inp_files/17525.got.cif
#   From: 2010.05.17/outbox.cif.g08.bks.cpg/sg15_9_cif.got.tgz:17525.got - 2010.06.03 18:47:42.
