data_PCOD9262763
_publ_section_title
;
Structure prediction by ZEFSAII (Michael W. Deem and Ramdas Pophale) SiO2 
 PCOD9262763
Probable space group: C 2/C
;
_chemical_formula_sum "Si O2"
_cell_formula_units_Z 64
_cell_length_a 12.008116
_cell_length_b 28.594029
_cell_length_c 16.083958
_cell_angle_alpha 90.000000
_cell_angle_beta 144.411176
_cell_angle_gamma 90.000000
_cell_volume 3213.953175
_symmetry_space_group_name_H-M "C 2/C"
_symmetry_group_IT_number 15
_symmetry_cell_setting 'monoclinic'
loop_
_space_group_symop_operation_xyz
x,y,z
-x,y,1/2-z
-x,-y,-z
x,-y,1/2+z
1/2+x,1/2+y,z
1/2-x,1/2+y,1/2-z
1/2-x,1/2-y,-z
1/2+x,1/2-y,1/2+z
loop_
_atom_site_type_symbol
_atom_site_label
_atom_site_fract_x
_atom_site_fract_y
_atom_site_fract_z
Si Si1 0.271187 0.537038 0.602585
Si Si2 0.625731 0.186150 0.896960
Si Si3 0.264595 0.813944 0.752685
Si Si4 0.311979 0.527345 0.976807
Si Si5 0.249247 0.497010 0.764112
Si Si6 0.450401 0.749445 0.006211
Si Si7 0.435278 0.619556 0.126328
Si Si8 0.976928 0.594237 0.333869
O O1 0.500000 0.542522 0.750000
O O2 0.225958 0.495629 0.508160
O O3 0.192117 0.523698 0.645542
O O4 0.169930 0.582084 0.501053
O O5 0.500000 0.162043 0.750000
O O6 0.772785 0.218817 0.934190
O O7 0.506383 0.216788 0.889033
O O8 0.751262 0.151699 0.028091
O O9 0.377639 0.779755 0.884339
O O10 0.404356 0.853081 0.800578
O O11 0.136846 0.783323 0.610791
O O12 0.102462 0.845344 0.700631
O O13 0.519854 0.502716 0.097855
O O14 0.367094 0.581244 0.020253
O O15 0.199779 0.518841 0.823523
O O16 0.173498 0.443750 0.720488
O O17 0.500000 0.594524 0.250000
O O18 0.000000 0.584530 0.250000
#
# Coordination Sequence:
#
# PCOD9262763 Si02
#       8
#     8   8   8   8   8   8   8   8
#     4  10  22  40  66  92 126 169 211 264 315 367
#     4  10  19  33  55  87 130 161 187 242 317 392
#     4  11  23  39  64  90 119 163 203 261 313 386
#     4  10  20  37  61  94 132 166 206 251 306 371
#     4  10  20  39  63  89 129 172 207 255 310 363
#     4  10  20  37  59  87 123 156 198 251 327 377
#     4  11  20  34  59  95 129 164 204 242 304 385
#     4  12  24  44  64  91 120 167 225 261 309 370
#
# _framework density 19.913170000000001
#
# number of rings (size 3 to 8) (size 9 to 14) (size 15 to 20)
#    0.000    1.500    5.000    1.500    0.000    0.000 
#    4.500    1.875    0.000    0.000    0.000    0.000 
#    0.000    0.000    0.000    0.000    0.000    0.000 
#
# Total GULP energy -178421.331815 kJ/mol
# GULP energy per Si atom -5575.666619 kJ/mol
# Density = 1.986785 g / cm^3
# Si number density = 19.913170 Si / 1000 Ang^3
#
#
#
# Elastic Constant Matrix: (Units=GPa)
#
#
# Indices 1 2 3 4 5 6 
#
# 1 57.7326 26.3262 42.6571 0.0000 -9.9654 0.0000
# 2 26.3262 89.4372 56.1991 0.0000 -10.2237 0.0000
# 3 42.6571 56.1991 108.7991 0.0000 -11.0898 0.0000
# 4 0.0000 0.0000 0.0000 37.0648 0.0000 3.8186
# 5 -9.9654 -10.2237 -11.0898 0.0000 21.1898 0.0000
# 6 0.0000 0.0000 0.0000 3.8186 0.0000 24.5387
#
#
#
# Elastic Compliance Matrix: (Units=1/GPa)
#
#
# Indices 1 2 3 4 5 6 
#
# 1 0.025458 -0.001300 -0.008613 0.000000 0.006838 0.000000
# 2 -0.001300 0.016901 -0.007872 0.000000 0.003424 0.000000
# 3 -0.008613 -0.007872 0.016726 0.000000 0.000905 0.000000
# 4 0.000000 0.000000 0.000000 0.027419 0.000000 -0.004267
# 5 0.006838 0.003424 0.000905 0.000000 0.052534 0.000000
# 6 0.000000 0.000000 0.000000 -0.004267 0.000000 0.041416
#
#
# Mechanical properties :
#
#
# Convention : Reuss Voigt Hill
#
# Bulk Modulus (GPa) = 42.52262 56.25931 49.39096
# Shear Modulus (GPa) = 22.33506 25.27773 23.80640
#
# Velocity S-wave (km/s) = 3.35270 3.56673 3.46137
# Velocity P-wave (km/s) = 6.03223 6.72872 6.38997
#
# Compressibility (1/GPa) = 0.02351690
#
# Stress axis : x y z
#
# Youngs Moduli (GPa) = 39.27994 59.16732 59.78569
#
# Poissons Ratio (x) = 0.07692 0.51493
# Poissons Ratio (y) = 0.05106 0.47060
# Poissons Ratio (z) = 0.33832 0.46574
#
# Static dielectric constant tensor:
#      x y z
#    x 1.730060 0.000000 0.013290 
#    y 0.000000 1.709980 0.000000 
#    z 0.013290 0.000000 1.729690 
# 
# From -- ./inp_files/148780.got.cif
#   From: 2010.05.17/outbox.cif.g08.bks.cpg/sg15_75_cif.got.tgz:148780.got - 2010.06.03 18:47:42.
