data_PCOD9262641
_publ_section_title
;
Structure prediction by ZEFSAII (Michael W. Deem and Ramdas Pophale) SiO2 
 PCOD9262641
Probable space group: C 2/C
;
_chemical_formula_sum "Si O2"
_cell_formula_units_Z 40
_cell_length_a 14.056626
_cell_length_b 12.301975
_cell_length_c 15.161014
_cell_angle_alpha 90.000000
_cell_angle_beta 140.011697
_cell_angle_gamma 90.000000
_cell_volume 1684.790832
_symmetry_space_group_name_H-M "C 2/C"
_symmetry_group_IT_number 15
_symmetry_cell_setting 'monoclinic'
loop_
_space_group_symop_operation_xyz
x,y,z
-x,y,1/2-z
-x,-y,-z
x,-y,1/2+z
1/2+x,1/2+y,z
1/2-x,1/2+y,1/2-z
1/2-x,1/2-y,-z
1/2+x,1/2-y,1/2+z
loop_
_atom_site_type_symbol
_atom_site_label
_atom_site_fract_x
_atom_site_fract_y
_atom_site_fract_z
Si Si1 0.470557 0.863699 0.324594
Si Si2 0.139890 0.996473 0.401663
Si Si3 0.530351 0.298322 0.132383
Si Si4 0.670779 0.689860 0.550687
Si Si5 0.840969 0.382917 0.419083
O O1 0.500000 0.920170 0.250000
O O2 0.606086 0.787245 0.447817
O O3 0.412591 0.916546 0.375668
O O4 0.331421 0.784752 0.203547
O O5 0.080333 0.881800 0.398513
O O6 0.272651 0.979352 0.427845
O O7 0.000000 0.043177 0.250000
O O8 0.179730 0.077493 0.506309
O O9 0.692892 0.308977 0.293032
O O10 0.560099 0.332163 0.052894
O O11 0.454013 0.182045 0.062571
#
# Coordination Sequence:
#
# PCOD9262641 Si02
#       5
#     8   8   8   8   8
#     4  10  20  36  56  78 106 143 186 228 274 328
#     4  10  19  33  54  82 114 146 183 227 274 331
#     4   9  18  34  56  81 111 147 184 223 275 333
#     4  10  20  35  57  82 107 144 189 230 271 326
#     4   9  19  34  55  81 110 146 185 224 275 332
#
# _framework density 23.741820000000001
#
# number of rings (size 3 to 8) (size 9 to 14) (size 15 to 20)
#    0.000    2.400    0.000    2.400    0.000    0.000 
#    0.000    3.000    0.000    4.800    0.000    0.000 
#    0.000    0.000    0.000    0.000    0.000    0.000 
#
# Total GULP energy -111672.575194 kJ/mol
# GULP energy per Si atom -5583.628760 kJ/mol
# Density = 2.368778 g / cm^3
# Si number density = 23.741820 Si / 1000 Ang^3
#
#
#
# Elastic Constant Matrix: (Units=GPa)
#
#
# Indices 1 2 3 4 5 6 
#
# 1 141.2293 28.1207 2.6659 0.0000 -2.4479 0.0000
# 2 28.1207 39.7924 18.6534 0.0000 1.6505 0.0000
# 3 2.6659 18.6534 61.6101 -0.0001 5.2586 0.0000
# 4 0.0000 0.0000 -0.0001 22.1509 -0.0001 -6.6562
# 5 -2.4479 1.6505 5.2586 -0.0001 36.5535 0.0000
# 6 0.0000 0.0000 0.0000 -6.6562 0.0000 16.1588
#
#
#
# Elastic Compliance Matrix: (Units=1/GPa)
#
#
# Indices 1 2 3 4 5 6 
#
# 1 0.008399 -0.006720 0.001617 0.000000 0.000633 0.000000
# 2 -0.006720 0.034663 -0.010157 0.000000 -0.000554 0.000000
# 3 0.001617 -0.010157 0.019426 0.000000 -0.002228 0.000000
# 4 0.000000 0.000000 0.000000 0.051522 0.000000 0.021223
# 5 0.000633 -0.000554 -0.002228 0.000000 0.027745 0.000000
# 6 0.000000 0.000000 0.000000 0.021223 0.000000 0.070628
#
#
# Mechanical properties :
#
#
# Convention : Reuss Voigt Hill
#
# Bulk Modulus (GPa) = 31.27955 37.94574 34.61264
# Shear Modulus (GPa) = 19.71917 27.85208 23.78563
#
# Velocity S-wave (km/s) = 2.88508 3.42880 3.16863
# Velocity P-wave (km/s) = 4.92968 5.62965 5.29125
#
# Compressibility (1/GPa) = 0.03196977
#
# Stress axis : x y z
#
# Youngs Moduli (GPa) = 119.05969 28.84886 51.47637
#
# Poissons Ratio (x) = 0.19386 -0.08324
# Poissons Ratio (y) = 0.80006 0.52283
# Poissons Ratio (z) = -0.19253 0.29301
#
# Static dielectric constant tensor:
#      x y z
#    x 1.958250 0.000000 -0.007140 
#    y 0.000000 1.856430 0.000000 
#    z -0.007140 0.000000 1.965690 
# 
# From -- ./inp_files/37822.got.cif
#   From: 2010.05.17/outbox.cif.g08.bks.cpg/sg15_19_cif.got.tgz:37822.got - 2010.06.03 18:47:42.
