data_PCOD9262104
_publ_section_title
;
Structure prediction by ZEFSAII (Michael W. Deem and Ramdas Pophale) SiO2 
 PCOD9262104
Probable space group: C 2/C
;
_chemical_formula_sum "Si O2"
_cell_formula_units_Z 56
_cell_length_a 12.545347
_cell_length_b 12.364247
_cell_length_c 14.041096
_cell_angle_alpha 90.000000
_cell_angle_beta 95.242648
_cell_angle_gamma 90.000000
_cell_volume 2168.856145
_symmetry_space_group_name_H-M "C 2/C"
_symmetry_group_IT_number 15
_symmetry_cell_setting 'monoclinic'
loop_
_space_group_symop_operation_xyz
x,y,z
-x,y,1/2-z
-x,-y,-z
x,-y,1/2+z
1/2+x,1/2+y,z
1/2-x,1/2+y,1/2-z
1/2-x,1/2-y,-z
1/2+x,1/2-y,1/2+z
loop_
_atom_site_type_symbol
_atom_site_label
_atom_site_fract_x
_atom_site_fract_y
_atom_site_fract_z
Si Si1 0.593273 0.114069 0.685136
Si Si2 0.593172 0.412677 0.501893
Si Si3 0.311860 0.351346 0.296463
Si Si4 0.204923 0.532273 0.967130
Si Si5 0.615053 0.582721 0.225936
Si Si6 0.131434 0.691763 0.480832
Si Si7 0.838700 0.622346 0.343252
O O1 0.500000 0.145301 0.750000
O O2 0.709220 0.161431 0.720566
O O3 0.579606 0.150320 0.575516
O O4 0.606835 0.984667 0.692815
O O5 0.500000 0.500000 0.500000
O O6 0.696198 0.474478 0.469548
O O7 0.623541 0.387799 0.614947
O O8 0.567774 0.300501 0.447796
O O9 0.254821 0.394253 0.389342
O O10 0.380899 0.452579 0.269677
O O11 0.373121 0.239927 0.312924
O O12 0.141941 0.423706 0.926861
O O13 0.150688 0.605762 0.042248
O O14 0.500000 0.620968 0.250000
O O15 0.714911 0.619641 0.297241
O O16 0.250000 0.750000 0.500000
#
# Coordination Sequence:
#
# PCOD9262104 Si02
#       7
#     8   8   8   8   8   8   8
#     4  10  22  39  59  87 120 160 209 251 309 384
#     4  10  19  32  53  85 114 143 191 247 298 357
#     4  10  21  37  59  85 116 154 201 256 304 363
#     4   9  19  36  55  80 113 152 196 240 301 364
#     4  10  21  36  55  84 114 148 196 244 300 363
#     4   9  19  37  59  82 117 160 197 246 307 366
#     4  10  20  37  59  81 115 157 194 248 307 367
#
# _framework density 25.820062
#
# number of rings (size 3 to 8) (size 9 to 14) (size 15 to 20)
#    0.000    2.286    0.000    2.143    0.000    6.286 
#    0.000    5.714    0.000    0.000    0.000    0.000 
#    0.000    0.000    0.000    0.000    0.000    0.000 
#
# Total GULP energy -156494.801085 kJ/mol
# GULP energy per Si atom -5589.100039 kJ/mol
# Density = 2.576129 g / cm^3
# Si number density = 25.820062 Si / 1000 Ang^3
#
#
#
# Elastic Constant Matrix: (Units=GPa)
#
#
# Indices 1 2 3 4 5 6 
#
# 1 91.8274 9.8660 24.0416 0.0000 3.3793 0.0000
# 2 9.8660 190.3909 -4.6141 0.0000 12.5934 0.0000
# 3 24.0416 -4.6141 72.3941 0.0000 -2.6903 0.0000
# 4 0.0000 0.0000 0.0000 23.6669 0.0000 3.0217
# 5 3.3793 12.5934 -2.6903 0.0000 36.7305 0.0000
# 6 0.0000 0.0000 0.0000 3.0217 0.0000 -2.4016
#
#
#
# Elastic Compliance Matrix: (Units=1/GPa)
#
#
# Indices 1 2 3 4 5 6 
#
# 1 0.012075 -0.000646 -0.004096 0.000000 -0.001189 0.000000
# 2 -0.000646 0.005414 0.000494 0.000000 -0.001761 0.000000
# 3 -0.004096 0.000494 0.015254 0.000000 0.001325 0.000000
# 4 0.000000 0.000000 0.000000 0.036405 0.000000 0.045805
# 5 -0.001189 -0.001761 0.001325 0.000000 0.028035 0.000000
# 6 0.000000 0.000000 0.000000 0.045805 0.000000 -0.358751
#
#
# Mechanical properties :
#
#
# Convention : Reuss Voigt Hill
#
# Bulk Modulus (GPa) = 41.23942 45.91107 43.57525
# Shear Modulus (GPa) = -20.40914 33.28709 6.43897
#
# Velocity S-wave (km/s) = -2.81452 3.59443 1.58089
# Velocity P-wave (km/s) = 2.33334 5.92000 4.49949
#
# Compressibility (1/GPa) = 0.02424864
#
# Stress axis : x y z
#
# Youngs Moduli (GPa) = 82.81243 184.69668 65.55603
#
# Poissons Ratio (x) = 0.11938 0.26849
# Poissons Ratio (y) = 0.05352 -0.03240
# Poissons Ratio (z) = 0.33917 -0.09130
#
# Static dielectric constant tensor:
#      x y z
#    x 2.061850 0.000000 0.027160 
#    y 0.000000 2.076490 0.000000 
#    z 0.027160 0.000000 2.062220 
# 
# From -- ./inp_files/152588.got.cif
#   From: 2010.05.17/outbox.cif.g08.bks.cpg/sg15_77_cif.got.tgz:152588.got - 2010.06.03 18:47:42.
