data_PCOD9262754
_publ_section_title
;
Structure prediction by ZEFSAII (Michael W. Deem and Ramdas Pophale) SiO2 
 PCOD9262754
Probable space group: C 2/C
;
_chemical_formula_sum "Si O2"
_cell_formula_units_Z 56
_cell_length_a 5.053549
_cell_length_b 17.070122
_cell_length_c 28.197683
_cell_angle_alpha 90.000000
_cell_angle_beta 88.048898
_cell_angle_gamma 90.000000
_cell_volume 2431.054380
_symmetry_space_group_name_H-M "C 2/C"
_symmetry_group_IT_number 15
_symmetry_cell_setting 'monoclinic'
loop_
_space_group_symop_operation_xyz
x,y,z
-x,y,1/2-z
-x,-y,-z
x,-y,1/2+z
1/2+x,1/2+y,z
1/2-x,1/2+y,1/2-z
1/2-x,1/2-y,-z
1/2+x,1/2-y,1/2+z
loop_
_atom_site_type_symbol
_atom_site_label
_atom_site_fract_x
_atom_site_fract_y
_atom_site_fract_z
Si Si1 0.799718 0.224818 0.054622
Si Si2 0.570180 0.178250 0.361827
Si Si3 0.579674 0.010194 0.857246
Si Si4 0.403970 0.588403 0.999402
Si Si5 0.921346 0.180775 0.198222
Si Si6 0.409390 0.120875 0.942338
Si Si7 0.090570 0.990760 0.300537
O O1 0.547116 0.213179 0.089275
O O2 0.982160 0.294152 0.072216
O O3 0.750000 0.250000 0.000000
O O4 0.931406 0.138936 0.047234
O O5 0.856250 0.202391 0.341432
O O6 0.363473 0.201089 0.321233
O O7 0.567710 0.083255 0.366158
O O8 0.465809 0.057783 0.901791
O O9 0.877519 0.033224 0.841635
O O10 0.386494 0.028251 0.814285
O O11 0.606711 0.625257 0.960110
O O12 0.099974 0.593772 0.984725
O O13 0.500000 0.500000 0.000000
O O14 0.000000 0.210084 0.250000
O O15 0.924201 0.085691 0.201199
O O16 0.000000 0.960788 0.250000
#
# Coordination Sequence:
#
# PCOD9262754 Si02
#       7
#     8   8   8   8   8   8   8
#     4  10  24  42  60  87 123 164 204 247 304 365
#     4  10  20  34  58  85 116 154 195 242 295 356
#     4  10  19  33  55  85 115 150 198 244 292 357
#     4  11  23  40  62  85 114 152 201 252 296 347
#     4   9  18  33  56  87 117 146 189 247 303 352
#     4  11  23  39  58  84 118 156 193 243 297 351
#     4   9  17  31  54  85 118 148 185 243 305 356
#
# _framework density 23.035271000000002
#
# number of rings (size 3 to 8) (size 9 to 14) (size 15 to 20)
#    0.000    2.000    0.000    3.429    0.000   11.429 
#    0.000    0.000    0.000    3.429    0.000    0.000 
#    0.000    0.000    0.000    0.000    0.000    0.000 
#
# Total GULP energy -156526.263575 kJ/mol
# GULP energy per Si atom -5590.223699 kJ/mol
# Density = 2.298284 g / cm^3
# Si number density = 23.035271 Si / 1000 Ang^3
#
#
#
# Elastic Constant Matrix: (Units=GPa)
#
#
# Indices 1 2 3 4 5 6 
#
# 1 56.8953 10.9627 -8.7681 0.0000 0.1142 0.0000
# 2 10.9627 64.7312 16.5494 0.0000 4.5975 0.0000
# 3 -8.7681 16.5494 62.9272 0.0000 -0.1534 0.0000
# 4 0.0000 0.0000 0.0000 14.7068 0.0000 3.9230
# 5 0.1142 4.5975 -0.1534 0.0000 33.2985 0.0000
# 6 0.0000 0.0000 0.0000 3.9230 0.0000 19.2609
#
#
#
# Elastic Compliance Matrix: (Units=1/GPa)
#
#
# Indices 1 2 3 4 5 6 
#
# 1 0.018964 -0.004208 0.003750 0.000000 0.000533 0.000000
# 2 -0.004208 0.017675 -0.005241 0.000000 -0.002450 0.000000
# 3 0.003750 -0.005241 0.017794 0.000000 0.000793 0.000000
# 4 0.000000 0.000000 0.000000 0.071902 0.000000 -0.014645
# 5 0.000533 -0.002450 0.000793 0.000000 0.030371 0.000000
# 6 0.000000 0.000000 0.000000 -0.014645 0.000000 0.054901
#
#
# Mechanical properties :
#
#
# Convention : Reuss Voigt Hill
#
# Bulk Modulus (GPa) = 23.23648 24.67129 23.95388
# Shear Modulus (GPa) = 21.06585 24.50723 22.78654
#
# Velocity S-wave (km/s) = 3.02736 3.26529 3.14857
# Velocity P-wave (km/s) = 4.72537 4.99496 4.86203
#
# Compressibility (1/GPa) = 0.04303578
#
# Stress axis : x y z
#
# Youngs Moduli (GPa) = 52.73165 56.57665 56.19812
#
# Poissons Ratio (x) = 0.23810 -0.21077
# Poissons Ratio (y) = 0.22192 0.29452
# Poissons Ratio (z) = -0.19777 0.29651
#
# Static dielectric constant tensor:
#      x y z
#    x 1.851440 0.000000 0.054720 
#    y 0.000000 1.901020 0.000000 
#    z 0.054720 0.000000 1.877090 
# 
# From -- ./inp_files/286011.got.cif
#   From: 2010.05.17/outbox.cif.g08.bks.cpg/sg15_144_cif.got.tgz:286011.got - 2010.06.03 18:47:42.
