data_PCOD9262759
_publ_section_title
;
Structure prediction by ZEFSAII (Michael W. Deem and Ramdas Pophale) SiO2 
 PCOD9262759
Probable space group: C 2/C
;
_chemical_formula_sum "Si O2"
_cell_formula_units_Z 56
_cell_length_a 18.258992
_cell_length_b 10.338953
_cell_length_c 22.869297
_cell_angle_alpha 90.000000
_cell_angle_beta 36.603863
_cell_angle_gamma 90.000000
_cell_volume 2574.279448
_symmetry_space_group_name_H-M "C 2/C"
_symmetry_group_IT_number 15
_symmetry_cell_setting 'monoclinic'
loop_
_space_group_symop_operation_xyz
x,y,z
-x,y,1/2-z
-x,-y,-z
x,-y,1/2+z
1/2+x,1/2+y,z
1/2-x,1/2+y,1/2-z
1/2-x,1/2-y,-z
1/2+x,1/2-y,1/2+z
loop_
_atom_site_type_symbol
_atom_site_label
_atom_site_fract_x
_atom_site_fract_y
_atom_site_fract_z
Si Si1 0.890299 0.600227 0.570594
Si Si2 0.185183 0.762908 0.783451
Si Si3 0.815076 0.444277 0.992918
Si Si4 0.266523 0.455843 0.643116
Si Si5 0.122133 0.848671 0.040428
Si Si6 0.020659 0.626389 0.804658
Si Si7 0.573263 0.324735 0.421381
O O1 0.966696 0.734314 0.514227
O O2 0.000000 0.500000 0.500000
O O3 0.816614 0.630120 0.676340
O O4 0.811961 0.558489 0.565009
O O5 0.204963 0.877355 0.816460
O O6 0.068971 0.742984 0.815264
O O7 0.308239 0.761449 0.666858
O O8 0.873049 0.301130 0.942550
O O9 0.903599 0.553739 0.908903
O O10 0.679560 0.440304 0.052574
O O11 0.281940 0.370425 0.575130
O O12 0.134733 0.524382 0.730180
O O13 0.373959 0.563644 0.571633
O O14 0.988299 0.874612 0.099477
O O15 0.000000 0.662654 0.750000
#
# Coordination Sequence:
#
# PCOD9262759 Si02
#       7
#     8   8   8   8   8   8   8
#     4  11  21  39  62  91 123 161 212 263 308 378
#     4  11  23  37  63  90 122 167 208 262 318 367
#     4  10  19  35  56  87 120 155 205 261 308 368
#     4  11  20  37  62  87 119 163 207 256 308 373
#     4  10  19  33  55  86 122 150 202 261 308 359
#     4  11  22  38  62  92 124 165 217 260 312 389
#     4  10  23  37  59  90 121 160 213 254 311 383
#
# _framework density 21.75366
#
# number of rings (size 3 to 8) (size 9 to 14) (size 15 to 20)
#    0.000    1.429    5.714    2.143    2.000    0.000 
#    0.000    0.714    6.286    5.143    0.000    0.000 
#    0.000    0.000    0.000    0.000    0.000    0.000 
#
# Total GULP energy -156070.595920 kJ/mol
# GULP energy per Si atom -5573.949854 kJ/mol
# Density = 2.170415 g / cm^3
# Si number density = 21.753660 Si / 1000 Ang^3
#
#
#
# Elastic Constant Matrix: (Units=GPa)
#
#
# Indices 1 2 3 4 5 6 
#
# 1 135.9155 14.5867 -12.8978 0.0000 7.4303 0.0000
# 2 14.5867 26.1197 -6.2095 0.0000 2.8645 0.0000
# 3 -12.8978 -6.2095 18.3279 0.0000 2.1140 0.0000
# 4 0.0000 0.0000 0.0000 19.2276 0.0000 -4.1401
# 5 7.4303 2.8645 2.1140 0.0000 36.4067 0.0000
# 6 0.0000 0.0000 0.0000 -4.1401 0.0000 35.9159
#
#
#
# Elastic Compliance Matrix: (Units=1/GPa)
#
#
# Indices 1 2 3 4 5 6 
#
# 1 0.008267 -0.003261 0.004911 0.000000 -0.001716 0.000000
# 2 -0.003261 0.043549 0.012864 0.000000 -0.003508 0.000000
# 3 0.004911 0.012864 0.063030 0.000000 -0.005674 0.000000
# 4 0.000000 0.000000 0.000000 0.053332 0.000000 0.006148
# 5 -0.001716 -0.003508 -0.005674 0.000000 0.028423 0.000000
# 6 0.000000 0.000000 0.000000 0.006148 0.000000 0.028552
#
#
# Mechanical properties :
#
#
# Convention : Reuss Voigt Hill
#
# Bulk Modulus (GPa) = 6.95051 19.03578 12.99314
# Shear Modulus (GPa) = 20.48469 30.63562 25.56016
#
# Velocity S-wave (km/s) = 3.07199 3.75680 3.43152
# Velocity P-wave (km/s) = 3.97301 5.25240 4.65685
#
# Compressibility (1/GPa) = 0.14387440
#
# Stress axis : x y z
#
# Youngs Moduli (GPa) = 120.95780 22.96243 15.86539
#
# Poissons Ratio (x) = 0.07489 -0.07791
# Poissons Ratio (y) = 0.39448 -0.20409
# Poissons Ratio (z) = -0.59401 -0.29539
#
# Static dielectric constant tensor:
#      x y z
#    x 1.878210 0.000000 0.032600 
#    y 0.000000 1.871490 0.000000 
#    z 0.032600 0.000000 1.787200 
# 
# From -- ./inp_files/277046.got.cif
#   From: 2010.05.17/outbox.cif.g08.bks.cpg/sg15_139_cif.got.tgz:277046.got - 2010.06.03 18:47:42.
