data_PCOD9262477
_publ_section_title
;
Structure prediction by ZEFSAII (Michael W. Deem and Ramdas Pophale) SiO2 
 PCOD9262477
Probable space group: C 2/C
;
_chemical_formula_sum "Si O2"
_cell_formula_units_Z 64
_cell_length_a 19.200693
_cell_length_b 9.221206
_cell_length_c 15.242717
_cell_angle_alpha 90.000000
_cell_angle_beta 85.520916
_cell_angle_gamma 90.000000
_cell_volume 2690.534777
_symmetry_space_group_name_H-M "C 2/C"
_symmetry_group_IT_number 15
_symmetry_cell_setting 'monoclinic'
loop_
_space_group_symop_operation_xyz
x,y,z
-x,y,1/2-z
-x,-y,-z
x,-y,1/2+z
1/2+x,1/2+y,z
1/2-x,1/2+y,1/2-z
1/2-x,1/2-y,-z
1/2+x,1/2-y,1/2+z
loop_
_atom_site_type_symbol
_atom_site_label
_atom_site_fract_x
_atom_site_fract_y
_atom_site_fract_z
Si Si1 0.246308 0.374933 0.214045
Si Si2 0.374102 0.650915 0.588189
Si Si3 0.173154 0.176748 0.613723
Si Si4 0.367253 0.982726 0.663253
Si Si5 0.483620 0.006121 0.896158
Si Si6 0.351790 0.217986 0.910074
Si Si7 0.294015 0.944146 0.997751
Si Si8 0.019078 0.166756 0.647407
O O1 0.309022 0.426335 0.143146
O O2 0.287311 0.330813 0.297737
O O3 0.187212 0.487795 0.253802
O O4 0.197084 0.253205 0.170069
O O5 0.368025 0.668370 0.484481
O O6 0.453167 0.602593 0.601622
O O7 0.370517 0.813764 0.633774
O O8 0.217775 0.098422 0.534694
O O9 0.175864 0.340900 0.579201
O O10 0.096723 0.109187 0.626289
O O11 0.446030 0.038724 0.665969
O O12 0.339445 0.068849 0.581258
O O13 0.422076 0.122428 0.886400
O O14 0.471128 0.838366 0.873059
O O15 0.500000 0.000000 0.000000
O O16 0.301541 0.106508 0.966359
O O17 0.000000 0.150272 0.750000
#
# Coordination Sequence:
#
# PCOD9262477 Si02
#       8
#     8   8   8   8   8   8   8   8
#     4  11  23  33  50  79 114 149 180 217 270 331
#     4  10  21  37  52  80 110 143 183 221 275 331
#     4  10  19  33  52  82 108 138 184 223 257 320
#     4   9  20  34  54  83 111 142 178 224 275 325
#     4  11  18  32  53  82 112 140 169 215 283 344
#     4  11  21  34  55  78 116 149 169 219 280 338
#     4   9  18  33  54  77 111 142 175 217 269 311
#     4  11  19  30  55  80 106 134 176 234 272 309
#
# _framework density 23.787092999999999
#
# number of rings (size 3 to 8) (size 9 to 14) (size 15 to 20)
#    0.000    1.750    6.250    0.375    5.250    0.000 
#    0.000    0.000    0.000    0.750    0.000   10.500 
#    0.000    0.000    0.000    0.000    0.000    0.000 
#
# Total GULP energy -178673.629053 kJ/mol
# GULP energy per Si atom -5583.550908 kJ/mol
# Density = 2.373295 g / cm^3
# Si number density = 23.787093 Si / 1000 Ang^3
#
#
#
# Elastic Constant Matrix: (Units=GPa)
#
#
# Indices 1 2 3 4 5 6 
#
# 1 194.3205 12.2935 66.4415 0.0000 -17.4808 0.0000
# 2 12.2935 21.7278 27.3114 0.0000 0.4884 0.0000
# 3 66.4415 27.3114 94.7775 0.0000 -8.4587 0.0000
# 4 0.0000 0.0000 0.0000 24.9603 0.0000 -8.3897
# 5 -17.4808 0.4884 -8.4587 0.0000 44.6291 0.0000
# 6 0.0000 0.0000 0.0000 -8.3897 0.0000 25.6009
#
#
#
# Elastic Compliance Matrix: (Units=1/GPa)
#
#
# Indices 1 2 3 4 5 6 
#
# 1 0.007043 0.003135 -0.005694 0.000000 0.001645 0.000000
# 2 0.003135 0.074589 -0.024062 0.000000 -0.004149 0.000000
# 3 -0.005694 -0.024062 0.021667 0.000000 0.002140 0.000000
# 4 0.000000 0.000000 0.000000 0.045023 0.000000 0.014755
# 5 0.001645 -0.004149 0.002140 0.000000 0.023502 0.000000
# 6 0.000000 0.000000 0.000000 0.014755 0.000000 0.043896
#
#
# Mechanical properties :
#
#
# Convention : Reuss Voigt Hill
#
# Bulk Modulus (GPa) = 19.97693 58.10206 39.03950
# Shear Modulus (GPa) = 17.50417 32.69001 25.09709
#
# Velocity S-wave (km/s) = 2.71563 3.71114 3.25171
# Velocity P-wave (km/s) = 4.27192 6.54541 5.52683
#
# Compressibility (1/GPa) = 0.05005773
#
# Stress axis : x y z
#
# Youngs Moduli (GPa) = 141.99447 13.40688 46.15296
#
# Poissons Ratio (x) = -0.04203 0.26278
# Poissons Ratio (y) = -0.44517 1.11052
# Poissons Ratio (z) = 0.80846 0.32259
#
# Static dielectric constant tensor:
#      x y z
#    x 1.988710 0.000000 0.036070 
#    y 0.000000 1.919930 0.000000 
#    z 0.036070 0.000000 1.934070 
# 
# From -- ./inp_files/161921.got.cif
#   From: 2010.05.17/outbox.cif.g08.bks.cpg/sg15_81_cif.got.tgz:161921.got - 2010.06.03 18:47:42.
