data_PCOD9262199
_publ_section_title
;
Structure prediction by ZEFSAII (Michael W. Deem and Ramdas Pophale) SiO2 
 PCOD9262199
Probable space group: C 2/C
;
_chemical_formula_sum "Si O2"
_cell_formula_units_Z 48
_cell_length_a 21.576280
_cell_length_b 20.219537
_cell_length_c 5.420405
_cell_angle_alpha 90.000000
_cell_angle_beta 99.029128
_cell_angle_gamma 90.000000
_cell_volume 2335.416873
_symmetry_space_group_name_H-M "C 2/C"
_symmetry_group_IT_number 15
_symmetry_cell_setting 'monoclinic'
loop_
_space_group_symop_operation_xyz
x,y,z
-x,y,1/2-z
-x,-y,-z
x,-y,1/2+z
1/2+x,1/2+y,z
1/2-x,1/2+y,1/2-z
1/2-x,1/2-y,-z
1/2+x,1/2-y,1/2+z
loop_
_atom_site_type_symbol
_atom_site_label
_atom_site_fract_x
_atom_site_fract_y
_atom_site_fract_z
Si Si1 0.328388 0.178606 0.930967
Si Si2 0.480156 0.615751 0.984778
Si Si3 0.467791 0.234116 0.981683
Si Si4 0.218978 0.461462 0.252145
Si Si5 0.724037 0.686321 0.211892
Si Si6 0.168363 0.875497 0.173681
O O1 0.296414 0.172705 0.182952
O O2 0.397112 0.208885 0.955383
O O3 0.317746 0.107796 0.802316
O O4 0.286732 0.235636 0.778867
O O5 0.500000 0.579526 0.750000
O O6 0.405793 0.626407 0.917048
O O7 0.500000 0.582578 0.250000
O O8 0.519464 0.686066 0.010404
O O9 0.500000 0.210356 0.750000
O O10 0.500000 0.209115 0.250000
O O11 0.204443 0.494323 0.504309
O O12 0.293460 0.444163 0.281705
O O13 0.697845 0.653952 0.440773
O O14 0.685484 0.660575 0.944230
#
# Coordination Sequence:
#
# PCOD9262199 Si02
#       6
#     8   8   8   8   8   8
#     4  10  22  38  61  91 126 155 199 254 307 368
#     4  10  19  32  55  86 121 155 185 228 299 372
#     4  10  20  33  54  85 121 155 185 228 299 372
#     4  11  25  42  62  86 117 167 212 250 294 345
#     4  10  21  34  60  94 121 149 188 260 336 361
#     4  11  21  39  62  91 126 155 199 254 307 368
#
# _framework density 20.553076000000001
#
# number of rings (size 3 to 8) (size 9 to 14) (size 15 to 20)
#    0.000    1.667    0.000    7.000    0.000   11.333 
#    0.000    0.000    0.000    6.000    0.000    0.000 
#    0.000    0.000    0.000    0.000    0.000    0.000 
#
# Total GULP energy -133908.361644 kJ/mol
# GULP energy per Si atom -5579.515068 kJ/mol
# Density = 2.050630 g / cm^3
# Si number density = 20.553076 Si / 1000 Ang^3
#
#
#
# Elastic Constant Matrix: (Units=GPa)
#
#
# Indices 1 2 3 4 5 6 
#
# 1 137.4091 13.4968 49.8864 0.0000 -4.7475 0.0000
# 2 13.4968 68.1040 35.9824 0.0000 -0.2877 0.0000
# 3 49.8864 35.9824 180.6547 0.0000 -22.6933 0.0000
# 4 0.0000 0.0000 0.0000 15.3981 0.0000 6.5355
# 5 -4.7475 -0.2877 -22.6933 0.0000 35.8897 0.0000
# 6 0.0000 0.0000 0.0000 6.5355 0.0000 17.7300
#
#
#
# Elastic Compliance Matrix: (Units=1/GPa)
#
#
# Indices 1 2 3 4 5 6 
#
# 1 0.008105 -0.000452 -0.002188 0.000000 -0.000315 0.000000
# 2 -0.000452 0.016583 -0.003442 0.000000 -0.002103 0.000000
# 3 -0.002188 -0.003442 0.007371 0.000000 0.004344 0.000000
# 4 0.000000 0.000000 0.000000 0.076988 0.000000 -0.028379
# 5 -0.000315 -0.002103 0.004344 0.000000 0.030551 0.000000
# 6 0.000000 0.000000 0.000000 -0.028379 0.000000 0.066862
#
#
# Mechanical properties :
#
#
# Convention : Reuss Voigt Hill
#
# Bulk Modulus (GPa) = 50.26358 64.98878 57.62618
# Shear Modulus (GPa) = 22.19693 32.92368 27.56031
#
# Velocity S-wave (km/s) = 3.28987 4.00670 3.66585
# Velocity P-wave (km/s) = 6.24016 7.28653 6.78355
#
# Compressibility (1/GPa) = 0.01989512
#
# Stress axis : x y z
#
# Youngs Moduli (GPa) = 123.37591 60.30329 135.66946
#
# Poissons Ratio (x) = 0.02724 0.29682
# Poissons Ratio (y) = 0.05573 0.46703
# Poissons Ratio (z) = 0.26992 0.20759
#
# Static dielectric constant tensor:
#      x y z
#    x 1.735560 0.000000 0.003370 
#    y 0.000000 1.750650 0.000000 
#    z 0.003370 0.000000 1.833700 
# 
# From -- ./inp_files/13231.got.cif
#   From: 2010.05.17/outbox.cif.g08.bks.cpg/sg15_7_cif.got.tgz:13231.got - 2010.06.03 18:47:42.
