data_PCOD9262175
_publ_section_title
;
Structure prediction by ZEFSAII (Michael W. Deem and Ramdas Pophale) SiO2 
 PCOD9262175
Probable space group: C 2/C
;
_chemical_formula_sum "Si O2"
_cell_formula_units_Z 56
_cell_length_a 17.616987
_cell_length_b 8.406678
_cell_length_c 18.823438
_cell_angle_alpha 90.000000
_cell_angle_beta 104.252369
_cell_angle_gamma 90.000000
_cell_volume 2701.952374
_symmetry_space_group_name_H-M "C 2/C"
_symmetry_group_IT_number 15
_symmetry_cell_setting 'monoclinic'
loop_
_space_group_symop_operation_xyz
x,y,z
-x,y,1/2-z
-x,-y,-z
x,-y,1/2+z
1/2+x,1/2+y,z
1/2-x,1/2+y,1/2-z
1/2-x,1/2-y,-z
1/2+x,1/2-y,1/2+z
loop_
_atom_site_type_symbol
_atom_site_label
_atom_site_fract_x
_atom_site_fract_y
_atom_site_fract_z
Si Si1 0.862330 0.756842 0.527327
Si Si2 0.817423 0.515202 0.902806
Si Si3 0.983132 0.606282 0.926389
Si Si4 0.005176 0.306339 0.836220
Si Si5 0.832896 0.236188 0.803381
Si Si6 0.249718 0.927182 0.093551
Si Si7 0.176523 0.765888 0.368996
O O1 0.842750 0.609587 0.469222
O O2 0.955115 0.749814 0.560455
O O3 0.822686 0.902926 0.477487
O O4 0.813277 0.707698 0.585617
O O5 0.809245 0.407790 0.830352
O O6 0.738512 0.602342 0.905393
O O7 0.890132 0.635492 0.906641
O O8 0.002834 0.484248 0.867249
O O9 0.000000 0.500000 0.000000
O O10 0.086914 0.222687 0.874088
O O11 0.000000 0.315581 0.750000
O O12 0.925575 0.221890 0.843045
O O13 0.783049 0.109589 0.835899
O O14 0.823789 0.229648 0.717202
O O15 0.290897 0.095696 0.099472
#
# Coordination Sequence:
#
# PCOD9262175 Si02
#       7
#     8   8   8   8   8   8   8
#     4   9  18  34  53  75 105 144 170 206 265 320
#     4   9  19  32  54  81 104 133 177 223 254 300
#     4   9  16  33  53  74 104 139 175 214 253 310
#     4   9  18  32  53  78 101 136 179 215 257 311
#     4   9  19  35  54  74 106 142 170 208 269 317
#     4  10  19  32  55  77 105 137 174 210 264 315
#     4  11  19  32  55  83 103 129 178 227 254 304
#
# _framework density 20.725753000000001
#
# number of rings (size 3 to 8) (size 9 to 14) (size 15 to 20)
#    0.000    2.571    1.429    1.714    0.000    0.571 
#    0.000    0.714    9.429    0.000    0.000    0.000 
#    0.000    0.000    0.000    0.000    0.000    0.000 
#
# Total GULP energy -156186.942620 kJ/mol
# GULP energy per Si atom -5578.105094 kJ/mol
# Density = 2.067858 g / cm^3
# Si number density = 20.725753 Si / 1000 Ang^3
#
#
#
# Elastic Constant Matrix: (Units=GPa)
#
#
# Indices 1 2 3 4 5 6 
#
# 1 116.1880 25.2145 20.3011 0.0000 10.0073 0.0000
# 2 25.2145 23.6082 6.7291 0.0000 8.9443 0.0000
# 3 20.3011 6.7291 37.9402 0.0000 -5.0645 0.0000
# 4 0.0000 0.0000 0.0000 -110.9934 0.0000 73.8900
# 5 10.0073 8.9443 -5.0645 0.0000 30.3871 0.0000
# 6 0.0000 0.0000 0.0000 73.8900 0.0000 -11.6104
#
#
#
# Elastic Compliance Matrix: (Units=1/GPa)
#
#
# Indices 1 2 3 4 5 6 
#
# 1 0.011894 -0.010806 -0.004650 0.000000 -0.001511 0.000000
# 2 -0.010806 0.062025 -0.007344 0.000000 -0.015922 0.000000
# 3 -0.004650 -0.007344 0.031338 0.000000 0.008916 0.000000
# 4 0.000000 0.000000 0.000000 0.002784 0.000000 0.017715
# 5 -0.001511 -0.015922 0.008916 0.000000 0.039579 0.000000
# 6 0.000000 0.000000 0.000000 0.017715 0.000000 0.026610
#
#
# Mechanical properties :
#
#
# Convention : Reuss Voigt Hill
#
# Bulk Modulus (GPa) = 16.76225 31.35843 24.06034
# Shear Modulus (GPa) = 20.85808 -10.07723 5.39043
#
# Velocity S-wave (km/s) = 3.17580 -2.20743 1.61446
# Velocity P-wave (km/s) = 4.64250 2.94381 3.88708
#
# Compressibility (1/GPa) = 0.05965786
#
# Stress axis : x y z
#
# Youngs Moduli (GPa) = 84.07363 16.12261 31.91016
#
# Poissons Ratio (x) = 0.17422 0.14837
# Poissons Ratio (y) = 0.90847 0.23435
# Poissons Ratio (z) = 0.39092 0.11841
#
# Static dielectric constant tensor:
#      x y z
#    x 1.801260 0.000000 -0.002760 
#    y 0.000000 1.735660 0.000000 
#    z -0.002760 0.000000 1.783220 
# 
# From -- ./inp_files/247014.got.cif
#   From: 2010.05.17/outbox.cif.g08.bks.cpg/sg15_124_cif.got.tgz:247014.got - 2010.06.03 18:47:42.
