data_PCOD9262022
_publ_section_title
;
Structure prediction by ZEFSAII (Michael W. Deem and Ramdas Pophale) SiO2 
 PCOD9262022
Probable space group: C 2/C
;
_chemical_formula_sum "Si O2"
_cell_formula_units_Z 64
_cell_length_a 21.013508
_cell_length_b 9.108399
_cell_length_c 24.879081
_cell_angle_alpha 90.000000
_cell_angle_beta 52.628025
_cell_angle_gamma 90.000000
_cell_volume 3784.290771
_symmetry_space_group_name_H-M "C 2/C"
_symmetry_group_IT_number 15
_symmetry_cell_setting 'monoclinic'
loop_
_space_group_symop_operation_xyz
x,y,z
-x,y,1/2-z
-x,-y,-z
x,-y,1/2+z
1/2+x,1/2+y,z
1/2-x,1/2+y,1/2-z
1/2-x,1/2-y,-z
1/2+x,1/2-y,1/2+z
loop_
_atom_site_type_symbol
_atom_site_label
_atom_site_fract_x
_atom_site_fract_y
_atom_site_fract_z
Si Si1 0.516983 0.924472 0.076722
Si Si2 0.123971 0.425087 0.436645
Si Si3 0.876029 0.925087 0.563354
Si Si4 0.038782 0.073281 0.786900
Si Si5 0.223864 0.073327 0.707716
Si Si6 0.016983 0.924472 0.576723
Si Si7 0.276136 0.073325 0.292285
Si Si8 0.538782 0.926720 0.786900
O O1 0.438139 0.955071 0.080424
O O2 0.524504 0.750000 0.078021
O O3 0.504356 0.998659 0.140588
O O4 0.590635 0.990647 0.005301
O O5 0.121803 0.250000 0.447888
O O6 0.211826 0.467483 0.370996
O O7 0.788173 0.967483 0.629004
O O8 0.938139 0.955071 0.580425
O O9 0.909365 0.009353 0.494699
O O10 0.132833 0.033958 0.740500
O O11 0.032726 0.250000 0.795524
O O12 0.000000 0.031535 0.750000
O O13 0.995644 0.998659 0.859412
O O14 0.228423 0.250001 0.711472
O O15 0.250000 0.000001 0.750000
O O16 0.367167 0.033957 0.259500
O O17 0.500000 0.968465 0.750000
#
# Coordination Sequence:
#
# PCOD9262022 Si02
#       8
#     8   8   8   8   8   8   8   8
#     4  10  19  32  52  78 105 136 173 215 261 304
#     4   9  18  32  51  77 105 133 170 216 261 306
#     4   9  18  32  51  77 105 133 170 216 261 306
#     4  10  21  36  54  77 107 142 174 208 258 316
#     4  10  19  33  54  79 105 133 173 218 258 303
#     4  10  19  32  52  78 105 136 173 215 261 304
#     4  10  19  33  54  79 105 133 173 218 258 303
#     4  10  21  36  54  77 107 142 174 208 258 316
#
# _framework density 16.912019999999998
#
# number of rings (size 3 to 8) (size 9 to 14) (size 15 to 20)
#    0.000    2.250    2.500    0.750    0.000    2.500 
#    0.000    1.250    0.000    7.500    0.000    0.000 
#    0.000    0.000    0.000    0.000    0.000    0.000 
#
# Total GULP energy -178539.665197 kJ/mol
# GULP energy per Si atom -5579.364537 kJ/mol
# Density = 1.687353 g / cm^3
# Si number density = 16.912020 Si / 1000 Ang^3
#
#
#
# Elastic Constant Matrix: (Units=GPa)
#
#
# Indices 1 2 3 4 5 6 
#
# 1 111.0928 43.1944 90.0087 0.0000 5.9532 -0.0002
# 2 43.1944 28.1034 62.2647 -0.0001 8.0581 -0.0006
# 3 90.0087 62.2647 198.6763 0.0000 6.4972 0.0000
# 4 0.0000 -0.0001 0.0000 32.0630 0.0000 6.0252
# 5 5.9532 8.0581 6.4972 0.0000 24.2317 0.0000
# 6 -0.0002 -0.0006 0.0000 6.0252 0.0000 17.9456
#
#
#
# Elastic Compliance Matrix: (Units=1/GPa)
#
#
# Indices 1 2 3 4 5 6 
#
# 1 0.024194 -0.048632 0.003981 0.000000 0.009161 -0.000002
# 2 -0.048632 0.238997 -0.051108 -0.000001 -0.053825 0.000008
# 3 0.003981 -0.051108 0.018889 0.000000 0.010953 -0.000002
# 4 0.000000 -0.000001 0.000000 0.033289 0.000000 -0.011177
# 5 0.009161 -0.053825 0.010953 0.000000 0.053980 -0.000002
# 6 -0.000002 0.000008 -0.000002 -0.011177 -0.000002 0.059477
#
#
# Mechanical properties :
#
#
# Convention : Reuss Voigt Hill
#
# Bulk Modulus (GPa) = 11.04241 80.97868 46.01054
# Shear Modulus (GPa) = 7.68601 24.34169 16.01385
#
# Velocity S-wave (km/s) = 2.13414 3.79794 3.08050
# Velocity P-wave (km/s) = 3.55194 8.19871 6.31803
#
# Compressibility (1/GPa) = 0.09055996
#
# Stress axis : x y z
#
# Youngs Moduli (GPa) = 41.33194 4.18416 52.94107
#
# Poissons Ratio (x) = 0.20349 -0.21074
# Poissons Ratio (y) = 2.01007 2.70572
# Poissons Ratio (z) = -0.16453 0.21384
#
# Static dielectric constant tensor:
#      x y z
#    x 1.554990 0.000000 -0.019980 
#    y 0.000000 1.558210 0.000000 
#    z -0.019980 0.000000 1.556940 
# 
# From -- ./inp_files/251611.got.cif
#   From: 2010.05.17/outbox.cif.g08.bks.cpg/sg15_126_cif.got.tgz:251611.got - 2010.06.03 18:47:42.
