data_PCOD9262223
_publ_section_title
;
Structure prediction by ZEFSAII (Michael W. Deem and Ramdas Pophale) SiO2 
 PCOD9262223
Probable space group: C 2/C
;
_chemical_formula_sum "Si O2"
_cell_formula_units_Z 64
_cell_length_a 23.750791
_cell_length_b 15.467858
_cell_length_c 13.530450
_cell_angle_alpha 90.000000
_cell_angle_beta 39.179950
_cell_angle_gamma 90.000000
_cell_volume 3140.301170
_symmetry_space_group_name_H-M "C 2/C"
_symmetry_group_IT_number 15
_symmetry_cell_setting 'monoclinic'
loop_
_space_group_symop_operation_xyz
x,y,z
-x,y,1/2-z
-x,-y,-z
x,-y,1/2+z
1/2+x,1/2+y,z
1/2-x,1/2+y,1/2-z
1/2-x,1/2-y,-z
1/2+x,1/2-y,1/2+z
loop_
_atom_site_type_symbol
_atom_site_label
_atom_site_fract_x
_atom_site_fract_y
_atom_site_fract_z
Si Si1 0.410869 0.553629 0.518547
Si Si2 0.715658 0.699243 0.321817
Si Si3 0.405629 0.321652 0.324359
Si Si4 0.217100 0.603367 0.843560
Si Si5 0.843643 0.993613 0.901806
Si Si6 0.086930 0.629615 0.203038
Si Si7 0.329202 0.959825 0.736674
Si Si8 0.580088 0.387860 0.872259
O O1 0.314591 0.562840 0.699564
O O2 0.400218 0.544276 0.416277
O O3 0.440041 0.459339 0.516605
O O4 0.484085 0.623592 0.451863
O O5 0.669831 0.691526 0.490778
O O6 0.738241 0.799249 0.278849
O O7 0.789443 0.622434 0.227400
O O8 0.636599 0.683285 0.351096
O O9 0.500000 0.329701 0.250000
O O10 0.380877 0.413961 0.314030
O O11 0.407812 0.229739 0.266505
O O12 0.156861 0.540986 0.855634
O O13 0.169306 0.610386 0.015235
O O14 0.854330 0.927136 0.799225
O O15 0.748816 0.009143 0.081886
O O16 0.094657 0.571704 0.290868
O O17 0.000000 0.621848 0.250000
#
# Coordination Sequence:
#
# PCOD9262223 Si02
#       8
#     8   8   8   8   8   8   8   8
#     4  10  20  33  53  88 112 153 185 226 292 351
#     4  10  21  37  53  87 118 151 190 229 286 348
#     4   9  17  32  51  84 114 134 181 234 285 343
#     4  10  21  41  60  82 119 150 189 239 291 339
#     4  10  19  32  56  82 119 150 177 233 295 351
#     4  10  22  38  60  84 109 152 199 242 290 331
#     4  10  21  39  58  86 117 147 199 234 283 348
#     4  11  19  32  56  84 120 147 185 228 286 353
#
# _framework density 20.380210999999999
#
# number of rings (size 3 to 8) (size 9 to 14) (size 15 to 20)
#    0.000    2.000    3.750    1.875    1.750    6.000 
#    4.500    2.500    0.000    0.000    0.000    0.000 
#    0.000    0.000    0.000    0.000    0.000    0.000 
#
# Total GULP energy -178283.159607 kJ/mol
# GULP energy per Si atom -5571.348738 kJ/mol
# Density = 2.033382 g / cm^3
# Si number density = 20.380211 Si / 1000 Ang^3
#
#
#
# Elastic Constant Matrix: (Units=GPa)
#
#
# Indices 1 2 3 4 5 6 
#
# 1 92.8115 23.2056 2.9566 0.0000 2.4244 0.0000
# 2 23.2056 46.2333 9.2476 0.0000 3.2012 0.0000
# 3 2.9566 9.2476 38.2270 0.0000 1.0515 0.0000
# 4 0.0000 0.0000 0.0000 15.5382 0.0000 5.3793
# 5 2.4244 3.2012 1.0515 0.0000 23.7322 0.0000
# 6 0.0000 0.0000 0.0000 5.3793 0.0000 -6.5933
#
#
#
# Elastic Compliance Matrix: (Units=1/GPa)
#
#
# Indices 1 2 3 4 5 6 
#
# 1 0.012337 -0.006277 0.000576 0.000000 -0.000439 0.000000
# 2 -0.006277 0.026114 -0.005760 0.000000 -0.002626 0.000000
# 3 0.000576 -0.005760 0.027522 0.000000 -0.000501 0.000000
# 4 0.000000 0.000000 0.000000 0.050183 0.000000 0.040943
# 5 -0.000439 -0.002626 -0.000501 0.000000 0.042558 0.000000
# 6 0.000000 0.000000 0.000000 0.040943 0.000000 -0.118265
#
#
# Mechanical properties :
#
#
# Convention : Reuss Voigt Hill
#
# Bulk Modulus (GPa) = 23.22748 27.56572 25.39660
# Shear Modulus (GPa) = 64.33206 15.99287 40.16246
#
# Velocity S-wave (km/s) = 5.62445 2.80433 4.44403
# Velocity P-wave (km/s) = 7.32128 4.90314 6.23065
#
# Compressibility (1/GPa) = 0.04305246
#
# Stress axis : x y z
#
# Youngs Moduli (GPa) = 81.05616 38.29360 36.33445
#
# Poissons Ratio (x) = 0.24038 -0.02094
# Poissons Ratio (y) = 0.50881 0.20927
# Poissons Ratio (z) = -0.04672 0.22056
#
# Static dielectric constant tensor:
#      x y z
#    x 1.903090 0.000000 -0.058170 
#    y 0.000000 1.753300 0.000000 
#    z -0.058170 0.000000 1.738210 
# 
# From -- ./inp_files/173666.got.cif
#   From: 2010.05.17/outbox.cif.g08.bks.cpg/sg15_87_cif.got.tgz:173666.got - 2010.06.03 18:47:42.
