data_PCOD9262905
_publ_section_title
;
Structure prediction by ZEFSAII (Michael W. Deem and Ramdas Pophale) SiO2 
 PCOD9262905
Probable space group: C 2/C
;
_chemical_formula_sum "Si O2"
_cell_formula_units_Z 56
_cell_length_a 10.314047
_cell_length_b 17.810666
_cell_length_c 17.319321
_cell_angle_alpha 90.000000
_cell_angle_beta 56.717486
_cell_angle_gamma 90.000000
_cell_volume 2659.704289
_symmetry_space_group_name_H-M "C 2/C"
_symmetry_group_IT_number 15
_symmetry_cell_setting 'monoclinic'
loop_
_space_group_symop_operation_xyz
x,y,z
-x,y,1/2-z
-x,-y,-z
x,-y,1/2+z
1/2+x,1/2+y,z
1/2-x,1/2+y,1/2-z
1/2-x,1/2-y,-z
1/2+x,1/2-y,1/2+z
loop_
_atom_site_type_symbol
_atom_site_label
_atom_site_fract_x
_atom_site_fract_y
_atom_site_fract_z
Si Si1 0.659317 0.719198 0.745627
Si Si2 0.627958 0.461378 0.655531
Si Si3 0.481756 0.202439 0.428208
Si Si4 0.312707 0.938192 0.220482
Si Si5 0.603470 0.517864 0.392670
Si Si6 0.185367 0.821517 0.925302
Si Si7 0.434120 0.925070 0.480131
O O1 0.500000 0.704950 0.750000
O O2 0.621184 0.780025 0.824370
O O3 0.731798 0.642535 0.751242
O O4 0.775095 0.756403 0.647548
O O5 0.500000 0.416805 0.750000
O O6 0.729783 0.511696 0.680138
O O7 0.512555 0.506568 0.638105
O O8 0.749120 0.424418 0.556261
O O9 0.342123 0.166695 0.423674
O O10 0.433511 0.284532 0.475680
O O11 0.511266 0.146575 0.488520
O O12 0.487168 0.926823 0.130267
O O13 0.266844 0.980455 0.314757
O O14 0.500000 0.500000 0.500000
O O15 0.635355 0.605954 0.394470
O O16 0.500000 0.000000 0.500000
#
# Coordination Sequence:
#
# PCOD9262905 Si02
#       7
#     8   8   8   8   8   8   8
#     4  10  19  33  57  87 120 151 194 251 311 358
#     4   9  21  38  60  85 116 160 208 237 299 367
#     4  10  21  37  60  88 120 156 197 254 306 360
#     4  10  20  39  63  88 118 160 205 249 304 365
#     4  11  23  37  60  89 124 160 201 252 300 363
#     4  10  22  36  57  91 122 151 198 257 309 349
#     4  10  21  36  63  85 114 159 206 244 292 366
#
# _framework density 21.054973
#
# number of rings (size 3 to 8) (size 9 to 14) (size 15 to 20)
#    0.000    2.000    1.429    2.143   10.000    0.000 
#    0.000    1.429    0.000    0.000    0.000    0.000 
#    0.000    0.000    0.000    0.000    0.000    0.000 
#
# Total GULP energy -155875.804643 kJ/mol
# GULP energy per Si atom -5566.993023 kJ/mol
# Density = 2.100705 g / cm^3
# Si number density = 21.054973 Si / 1000 Ang^3
#
#
#
# Elastic Constant Matrix: (Units=GPa)
#
#
# Indices 1 2 3 4 5 6 
#
# 1 31.5214 10.6451 26.3756 0.0000 -10.3854 0.0000
# 2 10.6451 57.0391 3.8677 0.0000 -10.8341 0.0000
# 3 26.3756 3.8677 159.9103 0.0000 -23.3138 0.0000
# 4 0.0000 0.0000 0.0000 24.3172 0.0000 3.5999
# 5 -10.3854 -10.8341 -23.3138 0.0000 26.2007 0.0000
# 6 0.0000 0.0000 0.0000 3.5999 0.0000 12.2950
#
#
#
# Elastic Compliance Matrix: (Units=1/GPa)
#
#
# Indices 1 2 3 4 5 6 
#
# 1 0.041081 -0.005545 -0.005288 0.000000 0.009286 0.000000
# 2 -0.005545 0.019862 0.001507 0.000000 0.007356 0.000000
# 3 -0.005288 0.001507 0.007899 0.000000 0.005556 0.000000
# 4 0.000000 0.000000 0.000000 0.042986 0.000000 -0.012586
# 5 0.009286 0.007356 0.005556 0.000000 0.049833 0.000000
# 6 0.000000 0.000000 0.000000 -0.012586 0.000000 0.085019
#
#
# Mechanical properties :
#
#
# Convention : Reuss Voigt Hill
#
# Bulk Modulus (GPa) = 19.92436 36.69417 28.30927
# Shear Modulus (GPa) = 17.72661 26.40142 22.06401
#
# Velocity S-wave (km/s) = 2.90473 3.54493 3.24068
# Velocity P-wave (km/s) = 4.55341 5.84987 5.24187
#
# Compressibility (1/GPa) = 0.05018981
#
# Stress axis : x y z
#
# Youngs Moduli (GPa) = 24.34209 50.34845 126.59396
#
# Poissons Ratio (x) = 0.27916 0.66943
# Poissons Ratio (y) = 0.13497 -0.19072
# Poissons Ratio (z) = 0.12872 -0.07585
#
# Static dielectric constant tensor:
#      x y z
#    x 1.815670 0.000000 -0.015720 
#    y 0.000000 1.708740 0.000000 
#    z -0.015720 0.000000 1.833680 
# 
# From -- ./inp_files/199453.got.cif
#   From: 2010.05.17/outbox.cif.g08.bks.cpg/sg15_100_cif.got.tgz:199453.got - 2010.06.03 18:47:42.
