data_PCOD9262771
_publ_section_title
;
Structure prediction by ZEFSAII (Michael W. Deem and Ramdas Pophale) SiO2 
 PCOD9262771
Probable space group: C 2/C
;
_chemical_formula_sum "Si O2"
_cell_formula_units_Z 56
_cell_length_a 15.797377
_cell_length_b 29.155755
_cell_length_c 5.780149
_cell_angle_alpha 90.000000
_cell_angle_beta 64.710953
_cell_angle_gamma 90.000000
_cell_volume 2407.108297
_symmetry_space_group_name_H-M "C 2/C"
_symmetry_group_IT_number 15
_symmetry_cell_setting 'monoclinic'
loop_
_space_group_symop_operation_xyz
x,y,z
-x,y,1/2-z
-x,-y,-z
x,-y,1/2+z
1/2+x,1/2+y,z
1/2-x,1/2+y,1/2-z
1/2-x,1/2-y,-z
1/2+x,1/2-y,1/2+z
loop_
_atom_site_type_symbol
_atom_site_label
_atom_site_fract_x
_atom_site_fract_y
_atom_site_fract_z
Si Si1 0.269349 0.842225 0.412786
Si Si2 0.131070 0.520432 0.228363
Si Si3 0.640021 0.522307 0.529666
Si Si4 0.920085 0.297493 0.532241
Si Si5 0.370951 0.879620 0.903067
Si Si6 0.164872 0.123294 0.427001
Si Si7 0.836859 0.215457 0.841104
O O1 0.320987 0.806520 0.520391
O O2 0.202202 0.877691 0.621226
O O3 0.203884 0.812761 0.325825
O O4 0.355664 0.868880 0.189802
O O5 0.103133 0.505508 0.521465
O O6 0.245511 0.519745 0.100413
O O7 0.096460 0.571705 0.220423
O O8 0.611273 0.501073 0.815153
O O9 0.612838 0.576445 0.548566
O O10 0.921517 0.339336 0.708847
O O11 0.917123 0.249841 0.669400
O O12 0.000000 0.298046 0.250000
O O13 0.262079 0.878380 0.953994
O O14 0.130676 0.175237 0.519986
O O15 0.750000 0.250000 0.000000
#
# Coordination Sequence:
#
# PCOD9262771 Si02
#       7
#     8   8   8   8   8   8   8
#     4  10  19  33  56  73 105 143 180 220 270 323
#     4   9  18  28  48  73 101 136 181 230 279 323
#     4   9  18  28  44  74 112 141 172 221 281 323
#     4  11  23  36  53  79 107 138 179 229 276 322
#     4   9  19  32  48  74 102 135 182 223 272 326
#     4   9  19  29  51  74 104 141 181 218 263 331
#     4  11  19  36  53  80 104 140 188 218 266 333
#
# _framework density 23.264430000000001
#
# number of rings (size 3 to 8) (size 9 to 14) (size 15 to 20)
#    0.000    2.286    4.286    0.429   14.000    0.571 
#    0.000    0.000    0.000    0.857    0.000    0.000 
#    0.000    1.143    0.000    0.143    0.000    0.000 
#
# Total GULP energy -156059.449691 kJ/mol
# GULP energy per Si atom -5573.551775 kJ/mol
# Density = 2.321148 g / cm^3
# Si number density = 23.264430 Si / 1000 Ang^3
#
#
#
# Elastic Constant Matrix: (Units=GPa)
#
#
# Indices 1 2 3 4 5 6 
#
# 1 19.8356 12.6189 35.1291 0.0000 -3.5353 0.0000
# 2 12.6189 195.8727 98.6971 0.0000 5.3554 0.0000
# 3 35.1291 98.6971 140.4984 0.0000 16.6435 0.0000
# 4 0.0000 0.0000 0.0000 20.0548 0.0000 25.3478
# 5 -3.5353 5.3554 16.6435 0.0000 21.1714 0.0000
# 6 0.0000 0.0000 0.0000 25.3478 0.0000 -19.5128
#
#
#
# Elastic Compliance Matrix: (Units=1/GPa)
#
#
# Indices 1 2 3 4 5 6 
#
# 1 0.159891 0.018756 -0.061480 0.000000 0.070287 0.000000
# 2 0.018756 0.010236 -0.013171 0.000000 0.010897 0.000000
# 3 -0.061480 -0.013171 0.035907 0.000000 -0.035163 0.000000
# 4 0.000000 0.000000 0.000000 0.018874 0.000000 0.024518
# 5 0.070287 0.010897 -0.035163 0.000000 0.083857 0.000000
# 6 0.000000 0.000000 0.000000 0.024518 0.000000 -0.019398
#
#
# Mechanical properties :
#
#
# Convention : Reuss Voigt Hill
#
# Bulk Modulus (GPa) = 10.61067 72.12191 41.36629
# Shear Modulus (GPa) = 11.55880 18.32678 14.94279
#
# Velocity S-wave (km/s) = 2.23142 2.80975 2.53712
# Velocity P-wave (km/s) = 3.34810 6.44938 5.13830
#
# Compressibility (1/GPa) = 0.09424479
#
# Stress axis : x y z
#
# Youngs Moduli (GPa) = 6.25425 97.69780 27.84963
#
# Poissons Ratio (x) = -1.83244 1.71220
# Poissons Ratio (y) = -0.11731 0.36680
# Poissons Ratio (z) = 0.38451 1.28676
#
# Static dielectric constant tensor:
#      x y z
#    x 1.876690 0.000000 0.035720 
#    y 0.000000 1.931920 0.000000 
#    z 0.035720 0.000000 1.996850 
# 
# From -- ./inp_files/14223.got.cif
#   From: 2010.05.17/outbox.cif.g08.bks.cpg/sg15_8_cif.got.tgz:14223.got - 2010.06.03 18:47:42.
