data_PCOD9262668
_publ_section_title
;
Structure prediction by ZEFSAII (Michael W. Deem and Ramdas Pophale) SiO2 
 PCOD9262668
Probable space group: C 2/C
;
_chemical_formula_sum "Si O2"
_cell_formula_units_Z 60
_cell_length_a 14.408146
_cell_length_b 18.961633
_cell_length_c 23.130105
_cell_angle_alpha 90.000000
_cell_angle_beta 31.555725
_cell_angle_gamma 90.000000
_cell_volume 3307.006637
_symmetry_space_group_name_H-M "C 2/C"
_symmetry_group_IT_number 15
_symmetry_cell_setting 'monoclinic'
loop_
_space_group_symop_operation_xyz
x,y,z
-x,y,1/2-z
-x,-y,-z
x,-y,1/2+z
1/2+x,1/2+y,z
1/2-x,1/2+y,1/2-z
1/2-x,1/2-y,-z
1/2+x,1/2-y,1/2+z
loop_
_atom_site_type_symbol
_atom_site_label
_atom_site_fract_x
_atom_site_fract_y
_atom_site_fract_z
Si Si1 0.011168 0.899504 0.813667
Si Si2 0.616727 0.558434 0.745829
Si Si3 0.035330 0.818296 0.101379
Si Si4 0.778842 0.712902 0.172836
Si Si5 0.581723 0.839715 0.429172
Si Si6 0.500000 0.806893 0.250000
Si Si7 0.330948 0.170488 0.955879
Si Si8 0.684174 0.769673 0.629307
O O1 0.145061 0.843374 0.770826
O O2 0.000000 0.886470 0.750000
O O3 0.087559 0.977829 0.778938
O O4 0.818870 0.883241 0.942184
O O5 0.500000 0.569650 0.750000
O O6 0.548502 0.609353 0.832851
O O7 0.812398 0.586782 0.626353
O O8 0.887495 0.763691 0.157167
O O9 0.131162 0.784772 0.106368
O O10 0.178057 0.822563 0.973800
O O11 0.654363 0.759645 0.197152
O O12 0.922991 0.669241 0.059233
O O13 0.493760 0.829554 0.413815
O O14 0.718869 0.777662 0.373793
O O15 0.595331 0.846383 0.146774
O O16 0.250000 0.250000 0.000000
O O17 0.500000 0.800515 0.750000
#
# Coordination Sequence:
#
# PCOD9262668 Si02
#       8
#     8   8   8   8   8   4   8   8
#     4  11  22  41  59  92 130 161 199 264 316 374
#     4  11  22  38  59  87 132 165 194 250 326 372
#     4  10  20  34  57  84 121 156 201 249 297 372
#     4  11  20  35  60  94 120 154 210 250 307 363
#     4  11  19  35  60  89 121 154 199 248 314 369
#     4  12  22  36  60  94 120 158 206 270 310 352
#     4  12  22  38  63  90 125 158 211 265 308 363
#     4  10  19  33  54  88 115 152 205 249 295 350
#
# _framework density 18.143295999999999
#
# number of rings (size 3 to 8) (size 9 to 14) (size 15 to 20)
#    0.000    1.067    7.333    0.800    0.000    0.533 
#    0.000    0.000    1.467    3.200    0.000    0.000 
#    2.000    0.000    0.000    0.000    0.000    0.000 
#
# Total GULP energy -167424.468526 kJ/mol
# GULP energy per Si atom -5580.815618 kJ/mol
# Density = 1.810200 g / cm^3
# Si number density = 18.143296 Si / 1000 Ang^3
#
#
#
# Elastic Constant Matrix: (Units=GPa)
#
#
# Indices 1 2 3 4 5 6 
#
# 1 97.8408 37.9906 40.7398 -0.0005 -9.6973 -0.0002
# 2 37.9906 74.2558 37.5911 -0.0046 -1.3031 0.0017
# 3 40.7398 37.5911 141.1539 -0.0133 2.7762 0.0026
# 4 -0.0005 -0.0046 -0.0133 23.8492 0.0036 0.9822
# 5 -9.6973 -1.3031 2.7762 0.0036 34.0224 -0.0008
# 6 -0.0002 0.0017 0.0026 0.9822 -0.0008 19.6747
#
#
#
# Elastic Compliance Matrix: (Units=1/GPa)
#
#
# Indices 1 2 3 4 5 6 
#
# 1 0.013913 -0.005752 -0.002561 -0.000003 0.003954 0.000001
# 2 -0.005752 0.017973 -0.003113 0.000002 -0.000697 -0.000001
# 3 -0.002561 -0.003113 0.008683 0.000004 -0.001558 -0.000001
# 4 -0.000003 0.000002 0.000004 0.042016 -0.000006 -0.002098
# 5 0.003954 -0.000697 -0.001558 -0.000006 0.030620 0.000002
# 6 0.000001 -0.000001 -0.000001 -0.002098 0.000002 0.050931
#
#
# Mechanical properties :
#
#
# Convention : Reuss Voigt Hill
#
# Bulk Modulus (GPa) = 56.44229 60.65483 58.54856
# Shear Modulus (GPa) = 25.92092 28.63786 27.27939
#
# Velocity S-wave (km/s) = 3.78389 3.97725 3.88177
# Velocity P-wave (km/s) = 7.08993 7.38884 7.24093
#
# Compressibility (1/GPa) = 0.01771721
#
# Stress axis : x y z
#
# Youngs Moduli (GPa) = 71.87780 55.63826 115.16310
#
# Poissons Ratio (x) = 0.32002 0.29498
# Poissons Ratio (y) = 0.41343 0.35847
# Poissons Ratio (z) = 0.18411 0.17319
#
# Static dielectric constant tensor:
#      x y z
#    x 1.629630 0.000000 0.001250 
#    y 0.000000 1.594470 0.000000 
#    z 0.001250 0.000000 1.693750 
# 
# From -- ./inp_files/274711.got.cif
#   From: 2010.05.17/outbox.cif.g08.bks.cpg/sg15_138_cif.got.tgz:274711.got - 2010.06.03 18:47:42.
