data_PCOD9262309
_publ_section_title
;
Structure prediction by ZEFSAII (Michael W. Deem and Ramdas Pophale) SiO2 
 PCOD9262309
Probable space group: C 2/C
;
_chemical_formula_sum "Si O2"
_cell_formula_units_Z 48
_cell_length_a 5.610225
_cell_length_b 19.047866
_cell_length_c 25.697776
_cell_angle_alpha 90.000000
_cell_angle_beta 130.796878
_cell_angle_gamma 90.000000
_cell_volume 2078.909643
_symmetry_space_group_name_H-M "C 2/C"
_symmetry_group_IT_number 15
_symmetry_cell_setting 'monoclinic'
loop_
_space_group_symop_operation_xyz
x,y,z
-x,y,1/2-z
-x,-y,-z
x,-y,1/2+z
1/2+x,1/2+y,z
1/2-x,1/2+y,1/2-z
1/2-x,1/2-y,-z
1/2+x,1/2-y,1/2+z
loop_
_atom_site_type_symbol
_atom_site_label
_atom_site_fract_x
_atom_site_fract_y
_atom_site_fract_z
Si Si1 0.404510 0.321582 0.973121
Si Si2 0.024343 0.348698 0.196780
Si Si3 0.176964 0.897465 0.434828
Si Si4 0.950057 0.966578 0.936101
Si Si5 0.072138 0.710555 0.600791
Si Si6 0.157104 0.508736 0.217338
O O1 0.517601 0.384809 0.951794
O O2 0.253557 0.265362 0.912218
O O3 0.235614 0.361075 0.997257
O O4 0.696594 0.279461 0.040643
O O5 0.680797 0.372437 0.127017
O O6 0.000000 0.315781 0.250000
O O7 0.161691 0.296822 0.173179
O O8 0.191253 0.424018 0.227236
O O9 0.369397 0.866077 0.415069
O O10 0.166361 0.981647 0.432773
O O11 0.599099 0.974681 0.863634
O O12 0.000000 0.000000 0.000000
O O13 0.500000 0.536952 0.250000
O O14 0.000000 0.532201 0.250000
#
# Coordination Sequence:
#
# PCOD9262309 Si02
#       6
#     8   8   8   8   8   8
#     4   9  19  36  52  87 124 152 197 252 324 375
#     4   9  20  33  53  84 111 148 208 251 300 368
#     4   9  18  33  55  85 112 149 200 253 307 368
#     4   9  19  39  59  93 124 155 212 265 314 376
#     4  10  19  32  59  83 116 160 196 257 320 375
#     4  10  22  40  64  90 128 169 208 260 326 385
#
# _framework density 23.089027999999999
#
# number of rings (size 3 to 8) (size 9 to 14) (size 15 to 20)
#    0.000    2.667    0.000    1.500    7.000    0.667 
#    6.000    0.000    3.667    0.000    0.000    0.000 
#    0.000    0.000    0.000    0.000    0.000    0.000 
#
# Total GULP energy -133819.767762 kJ/mol
# GULP energy per Si atom -5575.823657 kJ/mol
# Density = 2.303648 g / cm^3
# Si number density = 23.089028 Si / 1000 Ang^3
#
#
#
# Elastic Constant Matrix: (Units=GPa)
#
#
# Indices 1 2 3 4 5 6 
#
# 1 87.5463 8.4134 52.8968 0.0000 -5.3951 0.0000
# 2 8.4134 79.1260 27.0480 0.0000 -13.3104 0.0000
# 3 52.8968 27.0480 125.5579 0.0000 -23.5909 0.0000
# 4 0.0000 0.0000 0.0000 20.6221 0.0000 -0.3528
# 5 -5.3951 -13.3104 -23.5909 0.0000 41.3962 0.0000
# 6 0.0000 0.0000 0.0000 -0.3528 0.0000 17.0099
#
#
#
# Elastic Compliance Matrix: (Units=1/GPa)
#
#
# Indices 1 2 3 4 5 6 
#
# 1 0.015468 0.000426 -0.006948 0.000000 -0.001806 0.000000
# 2 0.000426 0.014004 -0.002621 0.000000 0.003065 0.000000
# 3 -0.006948 -0.002621 0.012462 0.000000 0.005354 0.000000
# 4 0.000000 0.000000 0.000000 0.048509 0.000000 0.001006
# 5 -0.001806 0.003065 0.005354 0.000000 0.027958 0.000000
# 6 0.000000 0.000000 0.000000 0.001006 0.000000 0.058810
#
#
# Mechanical properties :
#
#
# Convention : Reuss Voigt Hill
#
# Bulk Modulus (GPa) = 42.28289 52.10517 47.19403
# Shear Modulus (GPa) = 24.58464 29.39711 26.99087
#
# Velocity S-wave (km/s) = 3.26663 3.57207 3.42276
# Velocity P-wave (km/s) = 5.70794 6.29516 6.00873
#
# Compressibility (1/GPa) = 0.02365023
#
# Stress axis : x y z
#
# Youngs Moduli (GPa) = 64.64832 71.40757 80.24362
#
# Poissons Ratio (x) = -0.03045 0.55753
# Poissons Ratio (y) = -0.02757 0.21028
# Poissons Ratio (z) = 0.44918 0.18713
#
# Static dielectric constant tensor:
#      x y z
#    x 1.958490 0.000000 0.016030 
#    y 0.000000 1.880930 0.000000 
#    z 0.016030 0.000000 1.898700 
# 
# From -- ./inp_files/261253.got.cif
#   From: 2010.05.17/outbox.cif.g08.bks.cpg/sg15_131_cif.got.tgz:261253.got - 2010.06.03 18:47:42.
