data_PCOD9262012
_publ_section_title
;
Structure prediction by ZEFSAII (Michael W. Deem and Ramdas Pophale) SiO2 
 PCOD9262012
Probable space group: C 2/C
;
_chemical_formula_sum "Si O2"
_cell_formula_units_Z 56
_cell_length_a 8.068692
_cell_length_b 18.606974
_cell_length_c 23.477815
_cell_angle_alpha 90.000000
_cell_angle_beta 40.699679
_cell_angle_gamma 90.000000
_cell_volume 2298.512517
_symmetry_space_group_name_H-M "C 2/C"
_symmetry_group_IT_number 15
_symmetry_cell_setting 'monoclinic'
loop_
_space_group_symop_operation_xyz
x,y,z
-x,y,1/2-z
-x,-y,-z
x,-y,1/2+z
1/2+x,1/2+y,z
1/2-x,1/2+y,1/2-z
1/2-x,1/2-y,-z
1/2+x,1/2-y,1/2+z
loop_
_atom_site_type_symbol
_atom_site_label
_atom_site_fract_x
_atom_site_fract_y
_atom_site_fract_z
Si Si1 0.972805 0.585293 0.498866
Si Si2 0.382978 0.208721 0.606088
Si Si3 0.711516 0.723355 0.774530
Si Si4 0.226406 0.949165 0.806143
Si Si5 0.115220 0.101633 0.884496
Si Si6 0.963780 0.865845 0.544968
Si Si7 0.630701 0.119636 0.336855
O O1 0.996310 0.637721 0.547160
O O2 0.681685 0.598494 0.555010
O O3 0.000000 0.500000 0.500000
O O4 0.143184 0.608623 0.400805
O O5 0.383599 0.209013 0.674368
O O6 0.496378 0.281520 0.549078
O O7 0.082724 0.213792 0.668670
O O8 0.731216 0.669894 0.822464
O O9 0.739399 0.804659 0.787758
O O10 0.500000 0.914317 0.750000
O O11 0.024806 0.908634 0.898491
O O12 0.227070 0.940221 0.738294
O O13 0.226696 0.029604 0.828680
O O14 0.128756 0.105571 0.949263
O O15 0.671674 0.878094 0.599296
#
# Coordination Sequence:
#
# PCOD9262012 Si02
#       7
#     8   8   8   8   8   8   8
#     4  10  21  33  48  73 109 137 161 198 246 304
#     4   9  16  29  50  74  98 127 167 212 247 276
#     4   9  16  29  50  75  97 124 171 215 240 281
#     4  10  19  32  52  76 101 126 160 212 256 291
#     4  10  20  31  51  77 100 130 166 200 252 299
#     4   9  16  31  52  74  97 123 166 216 248 284
#     4   9  17  31  50  73  98 130 167 208 250 282
#
# _framework density 24.363583999999999
#
# number of rings (size 3 to 8) (size 9 to 14) (size 15 to 20)
#    0.000    2.571    1.429    1.286    2.000    3.429 
#    0.000    0.000    0.000    4.286    0.000    0.000 
#    0.000    0.000    0.000    0.000    0.000    0.000 
#
# Total GULP energy -156628.929827 kJ/mol
# GULP energy per Si atom -5593.890351 kJ/mol
# Density = 2.430813 g / cm^3
# Si number density = 24.363584 Si / 1000 Ang^3
#
#
#
# Elastic Constant Matrix: (Units=GPa)
#
#
# Indices 1 2 3 4 5 6 
#
# 1 73.9750 -2.5799 45.4171 -0.0062 13.3140 0.0067
# 2 -2.5799 138.3367 109.9550 -0.0176 40.8266 0.0114
# 3 45.4171 109.9550 214.9304 -0.0365 57.5354 -0.0009
# 4 -0.0062 -0.0176 -0.0365 52.8749 0.0048 -1.2094
# 5 13.3140 40.8266 57.5354 0.0048 54.6402 -0.0057
# 6 0.0067 0.0114 -0.0009 -1.2094 -0.0057 10.4314
#
#
#
# Elastic Compliance Matrix: (Units=1/GPa)
#
#
# Indices 1 2 3 4 5 6 
#
# 1 0.017965 0.005964 -0.006242 0.000000 -0.002261 -0.000020
# 2 0.005964 0.014674 -0.007579 0.000000 -0.004436 -0.000023
# 3 -0.006242 -0.007579 0.011037 0.000005 -0.004438 0.000011
# 4 0.000000 0.000000 0.000005 0.018963 -0.000007 0.002198
# 5 -0.002261 -0.004436 -0.004438 -0.000007 0.026840 0.000020
# 6 -0.000020 -0.000023 0.000011 0.002198 0.000020 0.096119
#
#
# Mechanical properties :
#
#
# Convention : Reuss Voigt Hill
#
# Bulk Modulus (GPa) = 35.76505 81.42517 58.59511
# Shear Modulus (GPa) = 23.73793 41.88596 32.81195
#
# Velocity S-wave (km/s) = 3.12480 4.15083 3.67381
# Velocity P-wave (km/s) = 5.26600 7.51438 6.48832
#
# Compressibility (1/GPa) = 0.02796025
#
# Stress axis : x y z
#
# Youngs Moduli (GPa) = 55.66326 68.15002 90.60357
#
# Poissons Ratio (x) = -0.40641 0.56554
# Poissons Ratio (y) = -0.33195 0.68672
# Poissons Ratio (z) = 0.34744 0.51654
#
# Static dielectric constant tensor:
#      x y z
#    x 2.066910 -0.000010 -0.077400 
#    y -0.000010 1.867230 0.000020 
#    z -0.077400 0.000020 1.940960 
# 
# From -- ./inp_files/145747.got.cif
#   From: 2010.05.17/outbox.cif.g08.bks.cpg/sg15_73_cif.got.tgz:145747.got - 2010.06.03 18:47:42.
