data_PCOD9262976
_publ_section_title
;
Structure prediction by ZEFSAII (Michael W. Deem and Ramdas Pophale) SiO2 
 PCOD9262976
Probable space group: C 2/C
;
_chemical_formula_sum "Si O2"
_cell_formula_units_Z 44
_cell_length_a 7.777436
_cell_length_b 24.088948
_cell_length_c 11.793300
_cell_angle_alpha 90.000000
_cell_angle_beta 54.885149
_cell_angle_gamma 90.000000
_cell_volume 1807.354209
_symmetry_space_group_name_H-M "C 2/C"
_symmetry_group_IT_number 15
_symmetry_cell_setting 'monoclinic'
loop_
_space_group_symop_operation_xyz
x,y,z
-x,y,1/2-z
-x,-y,-z
x,-y,1/2+z
1/2+x,1/2+y,z
1/2-x,1/2+y,1/2-z
1/2-x,1/2-y,-z
1/2+x,1/2-y,1/2+z
loop_
_atom_site_type_symbol
_atom_site_label
_atom_site_fract_x
_atom_site_fract_y
_atom_site_fract_z
Si Si1 0.090821 0.589687 0.544593
Si Si2 0.759575 0.314523 0.876121
Si Si3 0.000000 0.869556 0.250000
Si Si4 0.871388 0.696817 0.596261
Si Si5 0.668996 0.450387 0.331495
Si Si6 0.285482 0.069303 0.260134
O O1 0.251135 0.569803 0.578047
O O2 0.154246 0.572497 0.394647
O O3 0.062198 0.656655 0.552974
O O4 0.866003 0.564479 0.671401
O O5 0.614285 0.262337 0.899642
O O6 0.702649 0.371269 0.834766
O O7 0.000000 0.300601 0.750000
O O8 0.787773 0.317518 0.000894
O O9 0.826285 0.828753 0.262204
O O10 0.026446 0.914635 0.138462
O O11 0.642142 0.516039 0.335875
O O12 0.500000 0.059837 0.250000
#
# Coordination Sequence:
#
# PCOD9262976 Si02
#       6
#     8   8   4   8   8   8
#     4  10  19  35  60  86 115 151 202 244 274 352
#     4  10  19  33  58  90 114 156 197 239 282 353
#     4  10  22  38  56  86 122 158 186 244 304 348
#     4  10  19  35  60  87 116 150 202 237 291 347
#     4  10  22  35  59  87 117 157 195 242 292 344
#     4  11  19  34  59  90 113 154 199 234 285 348
#
# _framework density 24.344978000000001
#
# number of rings (size 3 to 8) (size 9 to 14) (size 15 to 20)
#    0.000    1.818    6.364    0.545    0.000    0.000 
#    0.000    3.636    0.000   36.000    0.000    0.000 
#    0.000    0.000    0.000    0.000    0.000    0.000 
#
# Total GULP energy -122921.839712 kJ/mol
# GULP energy per Si atom -5587.356351 kJ/mol
# Density = 2.428957 g / cm^3
# Si number density = 24.344978 Si / 1000 Ang^3
#
#
#
# Elastic Constant Matrix: (Units=GPa)
#
#
# Indices 1 2 3 4 5 6 
#
# 1 63.9680 33.7222 36.6367 0.0000 17.2515 0.0000
# 2 33.7222 214.5565 52.4349 0.0000 12.3713 0.0000
# 3 36.6367 52.4349 106.1140 0.0000 26.6582 0.0000
# 4 0.0000 0.0000 0.0000 12.5090 0.0000 -8.3817
# 5 17.2515 12.3713 26.6582 0.0000 34.2958 0.0000
# 6 0.0000 0.0000 0.0000 -8.3817 0.0000 18.2668
#
#
#
# Elastic Compliance Matrix: (Units=1/GPa)
#
#
# Indices 1 2 3 4 5 6 
#
# 1 0.020991 -0.001764 -0.004825 0.000000 -0.006172 0.000000
# 2 -0.001764 0.005450 -0.002253 0.000000 0.000673 0.000000
# 3 -0.004825 -0.002253 0.014153 0.000000 -0.007761 0.000000
# 4 0.000000 0.000000 0.000000 0.115432 0.000000 0.052966
# 5 -0.006172 0.000673 -0.007761 0.000000 0.038053 0.000000
# 6 0.000000 0.000000 0.000000 0.052966 0.000000 0.079048
#
#
# Mechanical properties :
#
#
# Convention : Reuss Voigt Hill
#
# Bulk Modulus (GPa) = 43.65032 70.02513 56.83773
# Shear Modulus (GPa) = 16.75342 30.47065 23.61203
#
# Velocity S-wave (km/s) = 2.62614 3.54166 3.11769
# Velocity P-wave (km/s) = 5.21194 6.74912 6.02972
#
# Compressibility (1/GPa) = 0.02290934
#
# Stress axis : x y z
#
# Youngs Moduli (GPa) = 47.64007 183.49172 70.65785
#
# Poissons Ratio (x) = 0.32370 0.34092
# Poissons Ratio (y) = 0.08404 0.15918
# Poissons Ratio (z) = 0.22986 0.41339
#
# Static dielectric constant tensor:
#      x y z
#    x 1.979890 0.000000 -0.183620 
#    y 0.000000 1.952380 0.000000 
#    z -0.183620 0.000000 2.307120 
# 
# From -- ./inp_files/79055.got.cif
#   From: 2010.05.17/outbox.cif.g08.bks.cpg/sg15_40_cif.got.tgz:79055.got - 2010.06.03 18:47:42.
