data_PCOD9262224
_publ_section_title
;
Structure prediction by ZEFSAII (Michael W. Deem and Ramdas Pophale) SiO2 
 PCOD9262224
Probable space group: C 2/C
;
_chemical_formula_sum "Si O2"
_cell_formula_units_Z 32
_cell_length_a 10.738830
_cell_length_b 16.730829
_cell_length_c 9.575061
_cell_angle_alpha 90.000000
_cell_angle_beta 62.452472
_cell_angle_gamma 90.000000
_cell_volume 1525.306686
_symmetry_space_group_name_H-M "C 2/C"
_symmetry_group_IT_number 15
_symmetry_cell_setting 'monoclinic'
loop_
_space_group_symop_operation_xyz
x,y,z
-x,y,1/2-z
-x,-y,-z
x,-y,1/2+z
1/2+x,1/2+y,z
1/2-x,1/2+y,1/2-z
1/2-x,1/2-y,-z
1/2+x,1/2-y,1/2+z
loop_
_atom_site_type_symbol
_atom_site_label
_atom_site_fract_x
_atom_site_fract_y
_atom_site_fract_z
Si Si1 0.399001 0.464828 0.432444
Si Si2 0.565003 0.763583 0.946720
Si Si3 0.793594 0.186821 0.140842
Si Si4 0.785177 0.866368 0.951240
O O1 0.500000 0.445220 0.250000
O O2 0.500000 0.500000 0.500000
O O3 0.314111 0.388479 0.530514
O O4 0.297351 0.539201 0.452533
O O5 0.639435 0.783541 0.761840
O O6 0.628364 0.830071 0.019791
O O7 0.399413 0.754987 0.035624
O O8 0.632961 0.680529 0.969312
O O9 0.846987 0.159468 0.268123
#
# Coordination Sequence:
#
# PCOD9262224 Si02
#       4
#     8   8   8   8
#     4  12  19  32  53  85 113 136 183 231 271 310
#     4   9  17  31  53  84 106 138 188 222 263 320
#     4  10  19  32  56  83 104 142 184 228 259 320
#     4   9  18  29  54  82 106 137 188 228 257 316
#
# _framework density 20.979386999999999
#
# number of rings (size 3 to 8) (size 9 to 14) (size 15 to 20)
#    1.500    0.500    5.000    0.750    0.000    0.000 
#    0.000    1.250    0.000    1.500   13.000    0.000 
#    0.000    0.000    0.000    0.000    0.000    0.000 
#
# Total GULP energy -89184.607533 kJ/mol
# GULP energy per Si atom -5574.037971 kJ/mol
# Density = 2.093164 g / cm^3
# Si number density = 20.979387 Si / 1000 Ang^3
#
#
#
# Elastic Constant Matrix: (Units=GPa)
#
#
# Indices 1 2 3 4 5 6 
#
# 1 54.2614 22.5257 20.5796 0.0000 -18.8739 0.0000
# 2 22.5257 104.1130 49.7459 0.0000 -22.6002 0.0000
# 3 20.5796 49.7459 124.9877 0.0000 -10.6112 0.0000
# 4 0.0000 0.0000 0.0000 40.5751 0.0000 -3.9680
# 5 -18.8739 -22.6002 -10.6112 0.0000 30.2445 0.0000
# 6 0.0000 0.0000 0.0000 -3.9680 0.0000 20.9690
#
#
#
# Elastic Compliance Matrix: (Units=1/GPa)
#
#
# Indices 1 2 3 4 5 6 
#
# 1 0.024571 -0.001218 -0.002408 0.000000 0.013578 0.000000
# 2 -0.001218 0.013796 -0.004617 0.000000 0.007929 0.000000
# 3 -0.002408 -0.004617 0.010116 0.000000 -0.001404 0.000000
# 4 0.000000 0.000000 0.000000 0.025110 0.000000 0.004752
# 5 0.013578 0.007929 -0.001404 0.000000 0.046970 0.000000
# 6 0.000000 0.000000 0.000000 0.004752 0.000000 0.048589
#
#
# Mechanical properties :
#
#
# Convention : Reuss Voigt Hill
#
# Bulk Modulus (GPa) = 31.25373 52.11827 41.68600
# Shear Modulus (GPa) = 25.47077 31.05843 28.26460
#
# Velocity S-wave (km/s) = 3.48815 3.85180 3.67448
# Velocity P-wave (km/s) = 5.58146 6.68419 6.15756
#
# Compressibility (1/GPa) = 0.03199618
#
# Stress axis : x y z
#
# Youngs Moduli (GPa) = 40.69786 72.48642 98.85585
#
# Poissons Ratio (x) = 0.08829 0.23806
# Poissons Ratio (y) = 0.04957 0.45642
# Poissons Ratio (z) = 0.09801 0.33467
#
# Static dielectric constant tensor:
#      x y z
#    x 1.814160 0.000000 0.040910 
#    y 0.000000 1.751490 0.000000 
#    z 0.040910 0.000000 1.791960 
# 
# From -- ./inp_files/28515.got.cif
#   From: 2010.05.17/outbox.cif.g08.bks.cpg/sg15_15_cif.got.tgz:28515.got - 2010.06.03 18:47:42.
