data_PCOD9262051
_publ_section_title
;
Structure prediction by ZEFSAII (Michael W. Deem and Ramdas Pophale) SiO2 
 PCOD9262051
Probable space group: C 2/C
;
_chemical_formula_sum "Si O2"
_cell_formula_units_Z 44
_cell_length_a 18.691996
_cell_length_b 5.979882
_cell_length_c 19.325407
_cell_angle_alpha 90.000000
_cell_angle_beta 89.953359
_cell_angle_gamma 90.000000
_cell_volume 2160.114633
_symmetry_space_group_name_H-M "C 2/C"
_symmetry_group_IT_number 15
_symmetry_cell_setting 'monoclinic'
loop_
_space_group_symop_operation_xyz
x,y,z
-x,y,1/2-z
-x,-y,-z
x,-y,1/2+z
1/2+x,1/2+y,z
1/2-x,1/2+y,1/2-z
1/2-x,1/2-y,-z
1/2+x,1/2-y,1/2+z
loop_
_atom_site_type_symbol
_atom_site_label
_atom_site_fract_x
_atom_site_fract_y
_atom_site_fract_z
Si Si1 0.000000 0.074712 0.250000
Si Si2 0.578453 0.280861 0.341393
Si Si3 0.402918 0.657801 0.042878
Si Si4 0.151000 0.819335 0.554425
Si Si5 0.522662 0.102833 0.618912
Si Si6 0.695604 0.043197 0.417644
O O1 0.013569 0.231369 0.184241
O O2 0.065657 0.912230 0.270471
O O3 0.587232 0.468760 0.399513
O O4 0.508031 0.134459 0.357559
O O5 0.646341 0.119555 0.353096
O O6 0.469879 0.820156 0.056230
O O7 0.331033 0.797292 0.060040
O O8 0.396590 0.531320 0.970261
O O9 0.103122 0.639674 0.594290
O O10 0.175361 0.697701 0.483675
O O11 0.220735 0.913895 0.592746
#
# Coordination Sequence:
#
# PCOD9262051 Si02
#       6
#     4   8   8   8   8   8
#     4  10  20  36  56  68  96 140 188 236 278 326
#     4   9  19  35  54  75 104 139 183 232 281 332
#     4   9  18  32  52  80 108 141 174 219 277 340
#     4  10  19  32  52  81 113 141 179 219 284 347
#     4  10  20  33  54  77 104 139 190 234 278 332
#     4   9  19  33  52  78 115 144 170 222 285 350
#
# _framework density 20.369288999999998
#
# number of rings (size 3 to 8) (size 9 to 14) (size 15 to 20)
#    0.000    2.545    0.000    1.636    0.000    9.455 
#    0.000    0.000   16.000    0.000    0.000    0.000 
#    0.000    0.000    0.000    0.000    0.000    0.000 
#
# Total GULP energy -122647.281846 kJ/mol
# GULP energy per Si atom -5574.876448 kJ/mol
# Density = 2.032293 g / cm^3
# Si number density = 20.369289 Si / 1000 Ang^3
#
#
#
# Elastic Constant Matrix: (Units=GPa)
#
#
# Indices 1 2 3 4 5 6 
#
# 1 96.8029 23.3384 30.4109 0.0000 11.4345 0.0000
# 2 23.3384 90.9509 18.4996 0.0000 12.3735 0.0000
# 3 30.4109 18.4996 51.3881 0.0000 22.0225 0.0000
# 4 0.0000 0.0000 0.0000 24.7884 0.0000 4.2772
# 5 11.4345 12.3735 22.0225 0.0000 15.7193 0.0000
# 6 0.0000 0.0000 0.0000 4.2772 0.0000 25.1121
#
#
#
# Elastic Compliance Matrix: (Units=1/GPa)
#
#
# Indices 1 2 3 4 5 6 
#
# 1 0.013133 -0.002188 -0.009079 0.000000 0.004890 0.000000
# 2 -0.002188 0.012688 0.000814 0.000000 -0.009536 0.000000
# 3 -0.009079 0.000814 0.055014 0.000000 -0.071111 0.000000
# 4 0.000000 0.000000 0.000000 0.041563 0.000000 -0.007079
# 5 0.004890 -0.009536 -0.071111 0.000000 0.167190 0.000000
# 6 0.000000 0.000000 0.000000 -0.007079 0.000000 0.041027
#
#
# Mechanical properties :
#
#
# Convention : Reuss Voigt Hill
#
# Bulk Modulus (GPa) = 16.68674 42.62663 29.65668
# Shear Modulus (GPa) = 13.45898 24.25017 18.85457
#
# Velocity S-wave (km/s) = 2.57329 3.45414 3.04573
# Velocity P-wave (km/s) = 4.12783 6.07293 5.19228
#
# Compressibility (1/GPa) = 0.05992783
#
# Stress axis : x y z
#
# Youngs Moduli (GPa) = 76.14634 78.81302 18.17705
#
# Poissons Ratio (x) = 0.17247 0.16504
# Poissons Ratio (y) = 0.16663 -0.01480
# Poissons Ratio (z) = 0.69137 -0.06416
#
# Static dielectric constant tensor:
#      x y z
#    x 1.757350 0.000000 0.035820 
#    y 0.000000 1.763170 0.000000 
#    z 0.035820 0.000000 1.722250 
# 
# From -- ./inp_files/246463.got.cif
#   From: 2010.05.17/outbox.cif.g08.bks.cpg/sg15_124_cif.got.tgz:246463.got - 2010.06.03 18:47:42.
