data_PCOD9262561
_publ_section_title
;
Structure prediction by ZEFSAII (Michael W. Deem and Ramdas Pophale) SiO2 
 PCOD9262561
Probable space group: C 2/C
;
_chemical_formula_sum "Si O2"
_cell_formula_units_Z 56
_cell_length_a 5.732156
_cell_length_b 26.332771
_cell_length_c 20.350272
_cell_angle_alpha 90.000000
_cell_angle_beta 77.194111
_cell_angle_gamma 90.000000
_cell_volume 2995.337582
_symmetry_space_group_name_H-M "C 2/C"
_symmetry_group_IT_number 15
_symmetry_cell_setting 'monoclinic'
loop_
_space_group_symop_operation_xyz
x,y,z
-x,y,1/2-z
-x,-y,-z
x,-y,1/2+z
1/2+x,1/2+y,z
1/2-x,1/2+y,1/2-z
1/2-x,1/2-y,-z
1/2+x,1/2-y,1/2+z
loop_
_atom_site_type_symbol
_atom_site_label
_atom_site_fract_x
_atom_site_fract_y
_atom_site_fract_z
Si Si1 0.221745 0.930619 0.289053
Si Si2 0.521364 0.329970 0.175196
Si Si3 0.944478 0.922611 0.525891
Si Si4 0.145400 0.601845 0.919973
Si Si5 0.993748 0.756033 0.443994
Si Si6 0.248072 0.334807 0.976703
Si Si7 0.798877 0.516765 0.918056
O O1 0.500000 0.938031 0.250000
O O2 0.187560 0.872532 0.316680
O O3 0.187973 0.966006 0.355362
O O4 0.000000 0.938532 0.250000
O O5 0.500000 0.310280 0.250000
O O6 0.753834 0.365082 0.146106
O O7 0.530345 0.284779 0.123068
O O8 0.847969 0.901579 0.462754
O O9 0.052607 0.875192 0.558470
O O10 0.158808 0.959847 0.489864
O O11 0.737442 0.956664 0.571388
O O12 0.051957 0.546072 0.906009
O O13 0.937860 0.632555 0.969295
O O14 0.750000 0.750000 0.500000
O O15 0.117002 0.700845 0.432285
O O16 0.143624 0.794849 0.479058
#
# Coordination Sequence:
#
# PCOD9262561 Si02
#       7
#     8   8   8   8   8   8   8
#     4  11  23  40  59  86 126 162 193 241 310 380
#     4  11  21  35  57  86 120 154 191 247 312 380
#     4  10  19  33  53  85 115 147 196 247 293 351
#     4  11  18  36  54  84 122 151 188 244 307 369
#     4  11  20  36  56  79 114 152 197 248 304 369
#     4  10  20  33  57  80 109 153 196 247 303 353
#     4  10  20  32  54  85 116 152 194 238 296 354
#
# _framework density 18.695722
#
# number of rings (size 3 to 8) (size 9 to 14) (size 15 to 20)
#    0.000    1.429    4.286    3.000    0.000    0.000 
#    0.000    0.000    0.000    0.000    7.429    0.000 
#    0.000    0.000    0.000    0.000    0.000    0.000 
#
# Total GULP energy -155970.485169 kJ/mol
# GULP energy per Si atom -5570.374470 kJ/mol
# Density = 1.865317 g / cm^3
# Si number density = 18.695722 Si / 1000 Ang^3
#
#
#
# Elastic Constant Matrix: (Units=GPa)
#
#
# Indices 1 2 3 4 5 6 
#
# 1 63.0257 31.4700 18.9375 0.0000 -3.5885 0.0000
# 2 31.4700 110.1877 40.2686 0.0000 -1.8809 0.0000
# 3 18.9375 40.2686 90.4489 0.0000 4.5633 0.0000
# 4 0.0000 0.0000 0.0000 27.8162 0.0000 -1.9807
# 5 -3.5885 -1.8809 4.5633 0.0000 21.5056 0.0000
# 6 0.0000 0.0000 0.0000 -1.9807 0.0000 34.8863
#
#
#
# Elastic Compliance Matrix: (Units=1/GPa)
#
#
# Indices 1 2 3 4 5 6 
#
# 1 0.018974 -0.004602 -0.002085 0.000000 0.003206 0.000000
# 2 -0.004602 0.012040 -0.004459 0.000000 0.001231 0.000000
# 3 -0.002085 -0.004459 0.013661 0.000000 -0.003637 0.000000
# 4 0.000000 0.000000 0.000000 0.036096 0.000000 0.002049
# 5 0.003206 0.001231 -0.003637 0.000000 0.047914 0.000000
# 6 0.000000 0.000000 0.000000 0.002049 0.000000 0.028781
#
#
# Mechanical properties :
#
#
# Convention : Reuss Voigt Hill
#
# Bulk Modulus (GPa) = 44.67836 49.44604 47.06220
# Shear Modulus (GPa) = 26.70652 28.37402 27.54027
#
# Velocity S-wave (km/s) = 3.78363 3.89996 3.84223
# Velocity P-wave (km/s) = 6.56028 6.83994 6.70157
#
# Compressibility (1/GPa) = 0.02238220
#
# Stress axis : x y z
#
# Youngs Moduli (GPa) = 52.70476 83.05371 73.19954
#
# Poissons Ratio (x) = 0.38222 0.15265
# Poissons Ratio (y) = 0.24255 0.32640
# Poissons Ratio (z) = 0.10991 0.37034
#
# Static dielectric constant tensor:
#      x y z
#    x 1.778950 0.000000 -0.047260 
#    y 0.000000 1.742030 0.000000 
#    z -0.047260 0.000000 1.785680 
# 
# From -- ./inp_files/227865.got.cif
#   From: 2010.05.17/outbox.cif.g08.bks.cpg/sg15_114_cif.got.tgz:227865.got - 2010.06.03 18:47:42.
