data_PCOD9262023
_publ_section_title
;
Structure prediction by ZEFSAII (Michael W. Deem and Ramdas Pophale) SiO2 
 PCOD9262023
Probable space group: C 2/C
;
_chemical_formula_sum "Si O2"
_cell_formula_units_Z 64
_cell_length_a 7.859490
_cell_length_b 20.497173
_cell_length_c 22.733827
_cell_angle_alpha 90.000000
_cell_angle_beta 107.174339
_cell_angle_gamma 90.000000
_cell_volume 3499.056749
_symmetry_space_group_name_H-M "C 2/C"
_symmetry_group_IT_number 15
_symmetry_cell_setting 'monoclinic'
loop_
_space_group_symop_operation_xyz
x,y,z
-x,y,1/2-z
-x,-y,-z
x,-y,1/2+z
1/2+x,1/2+y,z
1/2-x,1/2+y,1/2-z
1/2-x,1/2-y,-z
1/2+x,1/2-y,1/2+z
loop_
_atom_site_type_symbol
_atom_site_label
_atom_site_fract_x
_atom_site_fract_y
_atom_site_fract_z
Si Si1 0.334362 0.913740 0.000478
Si Si2 0.147154 0.799437 0.031710
Si Si3 0.236323 0.552859 0.551582
Si Si4 0.406777 0.814159 0.899515
Si Si5 0.230723 0.555811 0.333819
Si Si6 0.460828 0.529285 0.680978
Si Si7 0.698781 0.354991 0.553250
Si Si8 0.322135 0.079139 0.305049
O O1 0.231854 0.871207 0.038372
O O2 0.526626 0.937180 0.042558
O O3 0.361290 0.863618 0.948954
O O4 0.236935 0.977902 0.966224
O O5 0.144953 0.759764 0.091984
O O6 0.250000 0.750000 0.000000
O O7 0.956558 0.807167 0.981529
O O8 0.352129 0.568512 0.620670
O O9 0.278459 0.597414 0.500103
O O10 0.619289 0.817045 0.916672
O O11 0.323264 0.850895 0.835971
O O12 0.356296 0.494321 0.331597
O O13 0.328695 0.600558 0.391902
O O14 0.212065 0.587294 0.267469
O O15 0.023332 0.548551 0.333744
O O16 0.500000 0.558216 0.750000
O O17 0.329168 0.467789 0.683151
#
# Coordination Sequence:
#
# PCOD9262023 Si02
#       8
#     8   8   8   8   8   8   8   8
#     4   9  18  30  49  77 107 139 165 213 264 307
#     4  10  20  32  49  75 104 134 176 215 257 316
#     4  10  19  33  51  77 113 137 174 214 269 320
#     4   9  17  32  52  73 106 135 169 214 266 309
#     4   9  19  30  49  78 111 133 171 217 272 316
#     4  10  19  32  52  78 106 146 177 214 268 319
#     4  10  20  32  50  81 107 137 171 221 266 320
#     4   9  17  33  50  76 112 132 171 220 263 324
#
# _framework density 18.290641999999998
#
# number of rings (size 3 to 8) (size 9 to 14) (size 15 to 20)
#    0.000    2.500    1.250    1.125    3.500    2.000 
#    0.000    0.000    0.000    0.000   19.500    0.000 
#    0.000    0.000    0.000    0.000    0.000    0.000 
#
# Total GULP energy -178229.698134 kJ/mol
# GULP energy per Si atom -5569.678067 kJ/mol
# Density = 1.824901 g / cm^3
# Si number density = 18.290642 Si / 1000 Ang^3
#
#
#
# Elastic Constant Matrix: (Units=GPa)
#
#
# Indices 1 2 3 4 5 6 
#
# 1 36.4191 4.2075 -1.4003 0.0000 -0.4269 0.0000
# 2 4.2075 29.9793 3.6652 0.0000 -0.6098 0.0000
# 3 -1.4003 3.6652 89.0333 0.0000 3.8687 0.0000
# 4 0.0000 0.0000 0.0000 24.4584 0.0000 2.4039
# 5 -0.4269 -0.6098 3.8687 0.0000 17.7776 0.0000
# 6 0.0000 0.0000 0.0000 2.4039 0.0000 21.1594
#
#
#
# Elastic Compliance Matrix: (Units=1/GPa)
#
#
# Indices 1 2 3 4 5 6 
#
# 1 0.027946 -0.003985 0.000586 0.000000 0.000407 0.000000
# 2 -0.003985 0.034131 -0.001529 0.000000 0.001408 0.000000
# 3 0.000586 -0.001529 0.011414 0.000000 -0.002522 0.000000
# 4 0.000000 0.000000 0.000000 0.041347 0.000000 -0.004697
# 5 0.000407 0.001408 -0.002522 0.000000 0.056857 0.000000
# 6 0.000000 0.000000 0.000000 -0.004697 0.000000 0.047794
#
#
# Mechanical properties :
#
#
# Convention : Reuss Voigt Hill
#
# Bulk Modulus (GPa) = 15.71496 18.70851 17.21173
# Shear Modulus (GPa) = 19.95549 22.60970 21.28259
#
# Velocity S-wave (km/s) = 3.30665 3.51968 3.41483
# Velocity P-wave (km/s) = 4.81549 5.17380 4.99786
#
# Compressibility (1/GPa) = 0.06363364
#
# Stress axis : x y z
#
# Youngs Moduli (GPa) = 35.78348 29.29867 87.61549
#
# Poissons Ratio (x) = 0.11677 -0.05133
# Poissons Ratio (y) = 0.14261 0.13396
# Poissons Ratio (z) = -0.02097 0.04480
#
# Static dielectric constant tensor:
#      x y z
#    x 1.705480 0.000000 -0.011080 
#    y 0.000000 1.621190 0.000000 
#    z -0.011080 0.000000 1.646040 
# 
# From -- ./inp_files/265936.got.cif
#   From: 2010.05.17/outbox.cif.g08.bks.cpg/sg15_133_cif.got.tgz:265936.got - 2010.06.03 18:47:42.
