data_PCOD9262073
_publ_section_title
;
Structure prediction by ZEFSAII (Michael W. Deem and Ramdas Pophale) SiO2 
 PCOD9262073
Probable space group: C 2/C
;
_chemical_formula_sum "Si O2"
_cell_formula_units_Z 56
_cell_length_a 7.469333
_cell_length_b 19.396308
_cell_length_c 19.884642
_cell_angle_alpha 90.000000
_cell_angle_beta 50.196413
_cell_angle_gamma 90.000000
_cell_volume 2213.184067
_symmetry_space_group_name_H-M "C 2/C"
_symmetry_group_IT_number 15
_symmetry_cell_setting 'monoclinic'
loop_
_space_group_symop_operation_xyz
x,y,z
-x,y,1/2-z
-x,-y,-z
x,-y,1/2+z
1/2+x,1/2+y,z
1/2-x,1/2+y,1/2-z
1/2-x,1/2-y,-z
1/2+x,1/2-y,1/2+z
loop_
_atom_site_type_symbol
_atom_site_label
_atom_site_fract_x
_atom_site_fract_y
_atom_site_fract_z
Si Si1 0.651501 0.609876 0.657794
Si Si2 0.510879 0.391725 0.640885
Si Si3 0.344073 0.845518 0.972092
Si Si4 0.907860 0.480151 0.596321
Si Si5 0.785608 0.241709 0.409292
Si Si6 0.646562 0.622646 0.960444
Si Si7 0.736689 0.522180 0.828394
O O1 0.500000 0.648907 0.750000
O O2 0.772147 0.650203 0.568371
O O3 0.836228 0.554128 0.642993
O O4 0.457778 0.562405 0.667701
O O5 0.673330 0.434243 0.652062
O O6 0.502373 0.310716 0.657563
O O7 0.662907 0.391001 0.535195
O O8 0.296332 0.440886 0.677287
O O9 0.100700 0.836883 0.991631
O O10 0.415303 0.920584 0.925430
O O11 0.566108 0.794373 0.922610
O O12 0.000000 0.500000 0.500000
O O13 0.750000 0.250000 0.500000
O O14 0.819448 0.321941 0.384587
O O15 0.669843 0.550107 0.918019
O O16 0.000000 0.540096 0.750000
#
# Coordination Sequence:
#
# PCOD9262073 Si02
#       7
#     8   8   8   8   8   8   8
#     4   9  18  30  46  71 103 135 167 208 264 317
#     4   9  18  33  51  75 102 133 171 212 260 313
#     4   9  17  30  49  75  99 128 172 214 253 309
#     4   8  15  28  45  68  97 127 162 206 253 305
#     4   9  18  32  53  74  99 132 167 209 258 314
#     4  10  19  32  53  78 102 132 170 217 264 312
#     4  10  21  33  50  77 107 135 172 220 263 310
#
# _framework density 25.302911000000002
#
# number of rings (size 3 to 8) (size 9 to 14) (size 15 to 20)
#    0.000    2.857    0.000    1.714    0.000    5.714 
#    0.000    0.000    0.000   19.714    0.000    0.000 
#    0.000    0.000    0.000    0.000    0.000    0.000 
#
# Total GULP energy -155997.568633 kJ/mol
# GULP energy per Si atom -5571.341737 kJ/mol
# Density = 2.524532 g / cm^3
# Si number density = 25.302911 Si / 1000 Ang^3
#
#
#
# Elastic Constant Matrix: (Units=GPa)
#
#
# Indices 1 2 3 4 5 6 
#
# 1 70.5657 22.4740 3.4504 0.0000 -11.2457 0.0000
# 2 22.4740 95.5265 2.3247 0.0000 -16.5062 0.0000
# 3 3.4504 2.3247 64.4393 0.0000 -6.0001 0.0000
# 4 0.0000 0.0000 0.0000 8.8435 0.0000 -4.3994
# 5 -11.2457 -16.5062 -6.0001 0.0000 21.2173 0.0000
# 6 0.0000 0.0000 0.0000 -4.3994 0.0000 24.7503
#
#
#
# Elastic Compliance Matrix: (Units=1/GPa)
#
#
# Indices 1 2 3 4 5 6 
#
# 1 0.016046 -0.002668 -0.000169 0.000000 0.006381 0.000000
# 2 -0.002668 0.012551 0.000480 0.000000 0.008485 0.000000
# 3 -0.000169 0.000480 0.015957 0.000000 0.004797 0.000000
# 4 0.000000 0.000000 0.000000 0.124046 0.000000 0.022049
# 5 0.006381 0.008485 0.004797 0.000000 0.058471 0.000000
# 6 0.000000 0.000000 0.000000 0.022049 0.000000 0.044323
#
#
# Mechanical properties :
#
#
# Convention : Reuss Voigt Hill
#
# Bulk Modulus (GPa) = 25.10052 31.89219 28.49635
# Shear Modulus (GPa) = 17.27789 24.44773 20.86281
#
# Velocity S-wave (km/s) = 2.61596 3.11175 2.87456
# Velocity P-wave (km/s) = 4.36645 5.05393 4.72271
#
# Compressibility (1/GPa) = 0.03983981
#
# Stress axis : x y z
#
# Youngs Moduli (GPa) = 62.31998 79.67765 62.66911
#
# Poissons Ratio (x) = 0.21261 0.01057
# Poissons Ratio (y) = 0.16629 -0.03009
# Poissons Ratio (z) = 0.01052 -0.03826
#
# Static dielectric constant tensor:
#      x y z
#    x 2.281040 0.000000 0.034910 
#    y 0.000000 2.095910 0.000000 
#    z 0.034910 0.000000 2.017020 
# 
# From -- ./inp_files/289859.got.cif
#   From: 2010.05.17/outbox.cif.g08.bks.cpg/sg15_145_cif.got.tgz:289859.got - 2010.06.03 18:47:42.
