data_PCOD9262415
_publ_section_title
;
Structure prediction by ZEFSAII (Michael W. Deem and Ramdas Pophale) SiO2 
 PCOD9262415
Probable space group: C 2/C
;
_chemical_formula_sum "Si O2"
_cell_formula_units_Z 32
_cell_length_a 21.130306
_cell_length_b 9.994992
_cell_length_c 8.181646
_cell_angle_alpha 90.000000
_cell_angle_beta 60.246724
_cell_angle_gamma 90.000000
_cell_volume 1500.147343
_symmetry_space_group_name_H-M "C 2/C"
_symmetry_group_IT_number 15
_symmetry_cell_setting 'monoclinic'
loop_
_space_group_symop_operation_xyz
x,y,z
-x,y,1/2-z
-x,-y,-z
x,-y,1/2+z
1/2+x,1/2+y,z
1/2-x,1/2+y,1/2-z
1/2-x,1/2-y,-z
1/2+x,1/2-y,1/2+z
loop_
_atom_site_type_symbol
_atom_site_label
_atom_site_fract_x
_atom_site_fract_y
_atom_site_fract_z
Si Si1 0.814430 0.443760 0.446438
Si Si2 0.542934 0.879660 0.035474
Si Si3 0.346872 0.245276 0.310672
Si Si4 0.287399 0.726230 0.220685
O O1 0.882691 0.434333 0.480087
O O2 0.817137 0.593910 0.381101
O O3 0.741482 0.395841 0.632371
O O4 0.824300 0.335876 0.289236
O O5 0.500000 0.828914 0.250000
O O6 0.572831 0.771677 0.866694
O O7 0.500000 0.000000 0.000000
O O8 0.336771 0.310317 0.501370
O O9 0.287847 0.292773 0.253099
#
# Coordination Sequence:
#
# PCOD9262415 Si02
#       4
#     8   8   8   8
#     4  10  19  33  51  74 112 145 172 223 259 323
#     4  11  21  30  47  77 106 149 171 198 273 349
#     4  10  19  33  51  74 112 145 171 224 260 319
#     4   9  19  32  49  73 104 147 184 208 266 319
#
# _framework density 21.331237000000002
#
# number of rings (size 3 to 8) (size 9 to 14) (size 15 to 20)
#    0.000    2.000    2.500    3.000    0.000    0.000 
#    0.000    0.000    0.000    0.000    0.000    0.000 
#    0.000  452.000    0.000    0.000    0.000    0.000 
#
# Total GULP energy -89218.468930 kJ/mol
# GULP energy per Si atom -5576.154308 kJ/mol
# Density = 2.128269 g / cm^3
# Si number density = 21.331237 Si / 1000 Ang^3
#
#
#
# Elastic Constant Matrix: (Units=GPa)
#
#
# Indices 1 2 3 4 5 6 
#
# 1 88.9790 14.3454 10.2459 0.0000 14.5743 0.0000
# 2 14.3454 36.1175 4.1123 0.0000 -0.1839 0.0000
# 3 10.2459 4.1123 191.3541 0.0000 -11.8906 0.0000
# 4 0.0000 0.0000 0.0000 36.8502 0.0000 -2.6881
# 5 14.5743 -0.1839 -11.8906 0.0000 34.0883 0.0000
# 6 0.0000 0.0000 0.0000 -2.6881 0.0000 25.2185
#
#
#
# Elastic Compliance Matrix: (Units=1/GPa)
#
#
# Indices 1 2 3 4 5 6 
#
# 1 0.013161 -0.005148 -0.000966 0.000000 -0.005992 0.000000
# 2 -0.005148 0.029769 -0.000222 0.000000 0.002284 0.000000
# 3 -0.000966 -0.000222 0.005426 0.000000 0.002305 0.000000
# 4 0.000000 0.000000 0.000000 0.027350 0.000000 0.002915
# 5 -0.005992 0.002284 0.002305 0.000000 0.032714 0.000000
# 6 0.000000 0.000000 0.000000 0.002915 0.000000 0.039964
#
#
# Mechanical properties :
#
#
# Convention : Reuss Voigt Hill
#
# Bulk Modulus (GPa) = 28.02463 41.53975 34.78219
# Shear Modulus (GPa) = 28.90995 38.41453 33.66224
#
# Velocity S-wave (km/s) = 3.68542 4.24826 3.97681
# Velocity P-wave (km/s) = 5.59250 6.60148 6.11783
#
# Compressibility (1/GPa) = 0.03568289
#
# Stress axis : x y z
#
# Youngs Moduli (GPa) = 75.98026 33.59189 184.31011
#
# Poissons Ratio (x) = 0.17293 0.17812
# Poissons Ratio (y) = 0.39115 0.04095
# Poissons Ratio (z) = 0.07343 0.00746
#
# Static dielectric constant tensor:
#      x y z
#    x 1.802170 0.000000 0.032250 
#    y 0.000000 1.789390 0.000000 
#    z 0.032250 0.000000 1.966880 
# 
# From -- ./inp_files/45634.got.cif
#   From: 2010.05.17/outbox.cif.g08.bks.cpg/sg15_23_cif.got.tgz:45634.got - 2010.06.03 18:47:42.
