data_PCOD9262647
_publ_section_title
;
Structure prediction by ZEFSAII (Michael W. Deem and Ramdas Pophale) SiO2 
 PCOD9262647
Probable space group: C 2/C
;
_chemical_formula_sum "Si O2"
_cell_formula_units_Z 60
_cell_length_a 17.514673
_cell_length_b 28.297337
_cell_length_c 5.406845
_cell_angle_alpha 90.000000
_cell_angle_beta 96.280234
_cell_angle_gamma 90.000000
_cell_volume 2663.651232
_symmetry_space_group_name_H-M "C 2/C"
_symmetry_group_IT_number 15
_symmetry_cell_setting 'monoclinic'
loop_
_space_group_symop_operation_xyz
x,y,z
-x,y,1/2-z
-x,-y,-z
x,-y,1/2+z
1/2+x,1/2+y,z
1/2-x,1/2+y,1/2-z
1/2-x,1/2-y,-z
1/2+x,1/2-y,1/2+z
loop_
_atom_site_type_symbol
_atom_site_label
_atom_site_fract_x
_atom_site_fract_y
_atom_site_fract_z
Si Si1 0.603724 0.024847 0.660537
Si Si2 0.090785 0.131473 0.758710
Si Si3 0.390160 0.865173 0.332628
Si Si4 0.177071 0.114613 0.294452
Si Si5 0.315851 0.830173 0.788440
Si Si6 0.776524 0.986235 0.705990
Si Si7 0.500000 0.210258 0.750000
Si Si8 0.085186 0.241110 0.663976
O O1 0.587075 0.080220 0.660524
O O2 0.576692 0.000219 0.400422
O O3 0.696799 0.015624 0.690251
O O4 0.125639 0.110168 0.520198
O O5 0.104425 0.187816 0.733091
O O6 0.000000 0.123970 0.750000
O O7 0.130570 0.114410 0.023668
O O8 0.331559 0.858149 0.538475
O O9 0.458624 0.828095 0.412752
O O10 0.359349 0.850745 0.048373
O O11 0.227004 0.162373 0.319370
O O12 0.234847 0.069843 0.315156
O O13 0.348173 0.777966 0.748275
O O14 0.818630 0.002772 0.475260
O O15 0.434751 0.245148 0.625857
O O16 0.000000 0.249720 0.750000
#
# Coordination Sequence:
#
# PCOD9262647 Si02
#       8
#     8   8   8   8   8   8   4   8
#     4  10  19  33  54  83 122 164 208 255 316 371
#     4  11  27  44  69  90 132 170 212 269 326 416
#     4  11  21  37  60  96 130 174 219 268 316 365
#     4  12  24  42  66 103 126 166 218 271 336 371
#     4  11  22  37  65  95 135 161 217 284 308 382
#     4  10  19  35  62  90 123 163 203 256 317 400
#     4  10  22  38  66  90 132 178 232 258 296 390
#     4  10  22  41  64  93 128 185 223 249 326 378
#
# _framework density 22.525472000000001
#
# number of rings (size 3 to 8) (size 9 to 14) (size 15 to 20)
#    0.000    1.333    1.333    6.000    3.733    1.067 
#    0.000    0.667    0.000    8.000    0.000    0.000 
#    0.000    0.000    0.000    0.000    0.000    0.000 
#
# Total GULP energy -167490.144458 kJ/mol
# GULP energy per Si atom -5583.004815 kJ/mol
# Density = 2.247420 g / cm^3
# Si number density = 22.525472 Si / 1000 Ang^3
#
#
#
# Elastic Constant Matrix: (Units=GPa)
#
#
# Indices 1 2 3 4 5 6 
#
# 1 62.7097 11.2907 23.0177 0.0000 -8.4923 0.0000
# 2 11.2907 67.7373 19.2008 0.0000 3.0582 0.0000
# 3 23.0177 19.2008 153.6166 0.0000 -10.6616 0.0000
# 4 0.0000 0.0000 0.0000 15.7449 0.0000 -2.3089
# 5 -8.4923 3.0582 -10.6616 0.0000 34.5995 0.0000
# 6 0.0000 0.0000 0.0000 -2.3089 0.0000 20.7481
#
#
#
# Elastic Compliance Matrix: (Units=1/GPa)
#
#
# Indices 1 2 3 4 5 6 
#
# 1 0.017693 -0.002543 -0.002060 0.000000 0.003933 0.000000
# 2 -0.002543 0.015805 -0.001773 0.000000 -0.002567 0.000000
# 3 -0.002060 -0.001773 0.007169 0.000000 0.001860 0.000000
# 4 0.000000 0.000000 0.000000 0.064566 0.000000 0.007185
# 5 0.003933 -0.002567 0.001860 0.000000 0.030667 0.000000
# 6 0.000000 0.000000 0.000000 0.007185 0.000000 0.048997
#
#
# Mechanical properties :
#
#
# Convention : Reuss Voigt Hill
#
# Bulk Modulus (GPa) = 35.82190 43.45355 39.63772
# Shear Modulus (GPa) = 24.15986 29.58878 26.87432
#
# Velocity S-wave (km/s) = 3.27854 3.62825 3.45782
# Velocity P-wave (km/s) = 5.50174 6.07330 5.79457
#
# Compressibility (1/GPa) = 0.02791589
#
# Stress axis : x y z
#
# Youngs Moduli (GPa) = 56.51922 63.27056 139.48744
#
# Poissons Ratio (x) = 0.16088 0.28739
# Poissons Ratio (y) = 0.14371 0.24727
# Poissons Ratio (z) = 0.11645 0.11216
#
# Static dielectric constant tensor:
#      x y z
#    x 1.846860 0.000000 0.008480 
#    y 0.000000 1.816240 0.000000 
#    z 0.008480 0.000000 1.930950 
# 
# From -- ./inp_files/11541.got.cif
#   From: 2010.05.17/outbox.cif.g08.bks.cpg/sg15_6_cif.got.tgz:11541.got - 2010.06.03 18:47:42.
