data_PCOD9262494
_publ_section_title
;
Structure prediction by ZEFSAII (Michael W. Deem and Ramdas Pophale) SiO2 
 PCOD9262494
Probable space group: C 2/C
;
_chemical_formula_sum "Si O2"
_cell_formula_units_Z 52
_cell_length_a 15.869775
_cell_length_b 16.881946
_cell_length_c 8.574068
_cell_angle_alpha 90.000000
_cell_angle_beta 75.203300
_cell_angle_gamma 90.000000
_cell_volume 2220.925322
_symmetry_space_group_name_H-M "C 2/C"
_symmetry_group_IT_number 15
_symmetry_cell_setting 'monoclinic'
loop_
_space_group_symop_operation_xyz
x,y,z
-x,y,1/2-z
-x,-y,-z
x,-y,1/2+z
1/2+x,1/2+y,z
1/2-x,1/2+y,1/2-z
1/2-x,1/2-y,-z
1/2+x,1/2-y,1/2+z
loop_
_atom_site_type_symbol
_atom_site_label
_atom_site_fract_x
_atom_site_fract_y
_atom_site_fract_z
Si Si1 0.213465 0.617026 0.374707
Si Si2 0.259754 0.664605 0.914029
Si Si3 0.500000 0.375456 0.750000
Si Si4 0.853480 0.856935 0.038711
Si Si5 0.349717 0.542250 0.113117
Si Si6 0.560045 0.966011 0.109252
Si Si7 0.597482 0.137947 0.161943
O O1 0.283093 0.664062 0.440423
O O2 0.267230 0.546250 0.267899
O O3 0.142532 0.580917 0.519268
O O4 0.161013 0.664518 0.269861
O O5 0.310205 0.664586 0.725389
O O6 0.250000 0.750000 0.000000
O O7 0.318146 0.604626 0.994569
O O8 0.155550 0.642095 0.975789
O O9 0.556128 0.330393 0.588101
O O10 0.568622 0.426293 0.823013
O O11 0.863774 0.953497 0.046599
O O12 0.500000 0.914887 0.250000
O O13 0.590045 0.043683 0.186800
O O14 0.500000 0.000000 0.000000
O O15 0.500000 0.169389 0.250000
#
# Coordination Sequence:
#
# PCOD9262494 Si02
#       7
#     8   8   4   8   8   8   8
#     4  10  19  33  52  88 125 171 209 270 334 391
#     4  11  25  44  66  99 134 182 219 275 346 409
#     4  10  22  40  62 100 128 170 232 294 338 386
#     4  11  22  38  68  99 133 174 227 281 344 403
#     4  10  21  40  67  94 136 172 226 285 337 403
#     4  11  19  28  51  88 127 166 212 273 325 385
#     4  10  20  37  55  82 131 171 219 268 320 401
#
# _framework density 23.413665000000002
#
# number of rings (size 3 to 8) (size 9 to 14) (size 15 to 20)
#    0.000    1.538    3.077    5.077    2.154    0.615 
#    2.769    6.923    0.000    0.000    8.000    0.000 
#    0.000    0.000    0.000    0.000    0.000    0.000 
#
# Total GULP energy -144755.995268 kJ/mol
# GULP energy per Si atom -5567.538280 kJ/mol
# Density = 2.336037 g / cm^3
# Si number density = 23.413665 Si / 1000 Ang^3
#
#
#
# Elastic Constant Matrix: (Units=GPa)
#
#
# Indices 1 2 3 4 5 6 
#
# 1 155.1445 4.9266 59.3933 0.0000 -21.3931 0.0000
# 2 4.9266 55.1441 18.4591 0.0000 -5.6784 0.0000
# 3 59.3933 18.4591 183.3470 0.0000 -47.6220 0.0000
# 4 0.0000 0.0000 0.0000 13.2792 0.0000 -8.1850
# 5 -21.3931 -5.6784 -47.6220 0.0000 63.0345 0.0000
# 6 0.0000 0.0000 0.0000 -8.1850 0.0000 1.2573
#
#
#
# Elastic Compliance Matrix: (Units=1/GPa)
#
#
# Indices 1 2 3 4 5 6 
#
# 1 0.007398 0.000161 -0.002186 0.000000 0.000874 0.000000
# 2 0.000161 0.018776 -0.001852 0.000000 0.000346 0.000000
# 3 -0.002186 -0.001852 0.007605 0.000000 0.004837 0.000000
# 4 0.000000 0.000000 0.000000 -0.024996 0.000000 -0.162729
# 5 0.000874 0.000346 0.004837 0.000000 0.019846 0.000000
# 6 0.000000 0.000000 0.000000 -0.162729 0.000000 -0.264009
#
#
# Mechanical properties :
#
#
# Convention : Reuss Voigt Hill
#
# Bulk Modulus (GPa) = 38.42634 62.13264 50.27949
# Shear Modulus (GPa) = -22.83610 36.23797 6.70094
#
# Velocity S-wave (km/s) = -3.12642 3.93838 1.69357
# Velocity P-wave (km/s) = 1.84794 6.87573 5.03441
#
# Compressibility (1/GPa) = 0.02602381
#
# Stress axis : x y z
#
# Youngs Moduli (GPa) = 135.17687 53.26036 131.49363
#
# Poissons Ratio (x) = -0.00856 0.28739
# Poissons Ratio (y) = -0.02172 0.24357
# Poissons Ratio (z) = 0.29544 0.09866
#
# Static dielectric constant tensor:
#      x y z
#    x 1.959300 0.000000 -0.040180 
#    y 0.000000 1.975830 0.000000 
#    z -0.040180 0.000000 1.969040 
# 
# From -- ./inp_files/48445.got.cif
#   From: 2010.05.17/outbox.cif.g08.bks.cpg/sg15_25_cif.got.tgz:48445.got - 2010.06.03 18:47:42.
