data_PCOD9262922
_publ_section_title
;
Structure prediction by ZEFSAII (Michael W. Deem and Ramdas Pophale) SiO2 
 PCOD9262922
Probable space group: C 2/C
;
_chemical_formula_sum "Si O2"
_cell_formula_units_Z 64
_cell_length_a 7.493431
_cell_length_b 22.317052
_cell_length_c 19.009150
_cell_angle_alpha 90.000000
_cell_angle_beta 48.742064
_cell_angle_gamma 90.000000
_cell_volume 2389.751766
_symmetry_space_group_name_H-M "C 2/C"
_symmetry_group_IT_number 15
_symmetry_cell_setting 'monoclinic'
loop_
_space_group_symop_operation_xyz
x,y,z
-x,y,1/2-z
-x,-y,-z
x,-y,1/2+z
1/2+x,1/2+y,z
1/2-x,1/2+y,1/2-z
1/2-x,1/2-y,-z
1/2+x,1/2-y,1/2+z
loop_
_atom_site_type_symbol
_atom_site_label
_atom_site_fract_x
_atom_site_fract_y
_atom_site_fract_z
Si Si1 0.433399 0.034680 0.185324
Si Si2 0.074538 0.767665 0.616679
Si Si3 0.771436 0.885987 0.858829
Si Si4 0.838697 0.138008 0.895369
Si Si5 0.237219 0.937555 0.420262
Si Si6 0.641862 0.840800 0.300004
Si Si7 0.555560 0.507923 0.631476
Si Si8 0.021720 0.175257 0.488561
O O1 0.500000 0.041602 0.250000
O O2 0.429357 0.096912 0.145005
O O3 0.598462 0.991005 0.097254
O O4 0.173189 0.003312 0.257312
O O5 0.230316 0.824328 0.600306
O O6 0.890829 0.796297 0.606705
O O7 0.281475 0.716747 0.552921
O O8 0.904691 0.727611 0.709498
O O9 0.000000 0.879356 0.750000
O O10 0.806325 0.945396 0.897126
O O11 0.112250 0.139635 0.798267
O O12 0.784466 0.067105 0.903696
O O13 0.847176 0.170144 0.969737
O O14 0.678414 0.164343 0.875196
O O15 0.435080 0.889508 0.340169
O O16 0.079935 0.973542 0.404696
O O17 0.057682 0.893139 0.504992
#
# Coordination Sequence:
#
# PCOD9262922 Si02
#       8
#     8   8   8   8   8   8   8   8
#     4   9  16  29  52  82 112 141 176 230 293 330
#     4  10  22  40  54  77 113 161 188 223 284 348
#     4  10  21  34  54  79 116 150 180 227 285 354
#     4  10  19  33  57  91 106 133 194 252 281 329
#     4   9  16  31  56  83 107 140 184 236 282 327
#     4  10  20  31  59  84 113 140 192 242 283 328
#     4   9  17  29  53  85 110 134 175 230 287 332
#     4   9  21  37  58  79 111 148 198 232 277 333
#
# _framework density 26.781023999999999
#
# number of rings (size 3 to 8) (size 9 to 14) (size 15 to 20)
#    0.000    2.500    1.250    0.750    7.000    1.500 
#    0.000    6.875    2.750    0.000    0.000    0.000 
#    0.000    0.000    0.000    0.000    0.000    0.000 
#
# Total GULP energy -178409.263190 kJ/mol
# GULP energy per Si atom -5575.289475 kJ/mol
# Density = 2.672007 g / cm^3
# Si number density = 26.781024 Si / 1000 Ang^3
#
#
#
# Elastic Constant Matrix: (Units=GPa)
#
#
# Indices 1 2 3 4 5 6 
#
# 1 152.8241 44.7665 33.2762 0.0000 45.5489 0.0000
# 2 44.7665 174.6918 28.9583 0.0000 23.1179 0.0000
# 3 33.2762 28.9583 62.2762 0.0000 13.6146 0.0000
# 4 0.0000 0.0000 0.0000 1.9470 0.0000 -7.0967
# 5 45.5489 23.1179 13.6146 0.0000 44.4024 0.0000
# 6 0.0000 0.0000 0.0000 -7.0967 0.0000 14.0874
#
#
#
# Elastic Compliance Matrix: (Units=1/GPa)
#
#
# Indices 1 2 3 4 5 6 
#
# 1 0.010157 -0.000907 -0.003035 0.000000 -0.009017 0.000000
# 2 -0.000907 0.006557 -0.002167 0.000000 -0.001819 0.000000
# 3 -0.003035 -0.002167 0.019035 0.000000 -0.001596 0.000000
# 4 0.000000 0.000000 0.000000 -0.614239 0.000000 -0.309431
# 5 -0.009017 -0.001819 -0.001596 0.000000 0.033208 0.000000
# 6 0.000000 0.000000 0.000000 -0.309431 0.000000 -0.084894
#
#
# Mechanical properties :
#
#
# Convention : Reuss Voigt Hill
#
# Bulk Modulus (GPa) = 42.49234 67.08826 54.79030
# Shear Modulus (GPa) = -8.19517 30.94009 11.37246
#
# Velocity S-wave (km/s) = -1.75120 3.40266 2.06293
# Velocity P-wave (km/s) = 3.43687 6.36730 5.11637
#
# Compressibility (1/GPa) = 0.02353365
#
# Stress axis : x y z
#
# Youngs Moduli (GPa) = 98.45116 152.51769 52.53408
#
# Poissons Ratio (x) = 0.13827 0.15942
# Poissons Ratio (y) = 0.08926 0.11382
# Poissons Ratio (z) = 0.29875 0.33045
#
# Static dielectric constant tensor:
#      x y z
#    x 2.166780 0.000000 0.053160 
#    y 0.000000 2.039980 0.000000 
#    z 0.053160 0.000000 2.335290 
# 
# From -- ./inp_files/265916.got.cif
#   From: 2010.05.17/outbox.cif.g08.bks.cpg/sg15_133_cif.got.tgz:265916.got - 2010.06.03 18:47:42.
