data_PCOD9262983
_publ_section_title
;
Structure prediction by ZEFSAII (Michael W. Deem and Ramdas Pophale) SiO2 
 PCOD9262983
Probable space group: C 2/C
;
_chemical_formula_sum "Si O2"
_cell_formula_units_Z 40
_cell_length_a 10.166787
_cell_length_b 20.125246
_cell_length_c 22.038191
_cell_angle_alpha 90.000000
_cell_angle_beta 154.491317
_cell_angle_gamma 90.000000
_cell_volume 1941.883514
_symmetry_space_group_name_H-M "C 2/C"
_symmetry_group_IT_number 15
_symmetry_cell_setting 'monoclinic'
loop_
_space_group_symop_operation_xyz
x,y,z
-x,y,1/2-z
-x,-y,-z
x,-y,1/2+z
1/2+x,1/2+y,z
1/2-x,1/2+y,1/2-z
1/2-x,1/2-y,-z
1/2+x,1/2-y,1/2+z
loop_
_atom_site_type_symbol
_atom_site_label
_atom_site_fract_x
_atom_site_fract_y
_atom_site_fract_z
Si Si1 0.828527 0.329318 0.360586
Si Si2 0.394367 0.996490 0.272344
Si Si3 0.721505 0.344348 0.178840
Si Si4 0.651978 0.686452 0.083622
Si Si5 0.842705 0.922603 0.540090
O O1 0.500000 0.350132 0.250000
O O2 0.766575 0.313658 0.263705
O O3 0.936024 0.261953 0.437241
O O4 0.082836 0.386506 0.470856
O O5 0.500000 0.021263 0.250000
O O6 0.249879 0.923555 0.200896
O O7 0.679956 0.981120 0.434013
O O8 0.142879 0.045890 0.194374
O O9 0.000000 0.325057 0.250000
O O10 0.415817 0.327125 0.015099
O O11 0.454291 0.633492 0.039095
O O12 0.000000 0.679895 0.250000
#
# Coordination Sequence:
#
# PCOD9262983 Si02
#       5
#     8   8   8   8   8
#     4  10  23  41  62  87 125 165 200 247 302 361
#     4  10  19  33  58  91 123 148 194 259 300 349
#     4  10  20  39  61  91 123 153 198 258 303 341
#     4  11  22  36  64  92 123 155 204 252 303 362
#     4  11  21  36  58  91 120 159 198 249 308 353
#
# _framework density 20.598558000000001
#
# number of rings (size 3 to 8) (size 9 to 14) (size 15 to 20)
#    0.000    1.600    6.000    1.800    2.800    3.200 
#    0.000    4.000    0.000    0.000    0.000    0.000 
#    0.000    0.000    0.000    0.000    0.000    0.000 
#
# Total GULP energy -111677.630355 kJ/mol
# GULP energy per Si atom -5583.881518 kJ/mol
# Density = 2.055167 g / cm^3
# Si number density = 20.598558 Si / 1000 Ang^3
#
#
#
# Elastic Constant Matrix: (Units=GPa)
#
#
# Indices 1 2 3 4 5 6 
#
# 1 46.6886 -0.8595 4.3850 0.0074 13.5665 -0.0037
# 2 -0.8595 40.1808 9.6132 0.0194 13.9224 0.0040
# 3 4.3850 9.6132 81.9032 0.0247 12.6005 -0.0086
# 4 0.0074 0.0194 0.0247 21.1832 0.0093 9.2564
# 5 13.5665 13.9224 12.6005 0.0093 27.3724 0.0089
# 6 -0.0037 0.0040 -0.0086 9.2564 0.0089 7.5776
#
#
#
# Elastic Compliance Matrix: (Units=1/GPa)
#
#
# Indices 1 2 3 4 5 6 
#
# 1 0.026227 0.006111 0.000384 -0.000045 -0.016284 0.000084
# 2 0.006111 0.031760 -0.001188 -0.000053 -0.018636 0.000071
# 3 0.000384 -0.001188 0.013200 -0.000047 -0.005662 0.000080
# 4 -0.000045 -0.000053 -0.000047 0.101255 0.000076 -0.123688
# 5 -0.016284 -0.018636 -0.005662 0.000076 0.056689 -0.000164
# 6 0.000084 0.000071 0.000080 -0.123688 -0.000164 0.283058
#
#
# Mechanical properties :
#
#
# Convention : Reuss Voigt Hill
#
# Bulk Modulus (GPa) = 12.22483 21.67220 16.94851
# Shear Modulus (GPa) = 9.45466 21.60225 15.52845
#
# Velocity S-wave (km/s) = 2.14474 3.24192 2.74863
# Velocity P-wave (km/s) = 3.47576 4.95555 4.28009
#
# Compressibility (1/GPa) = 0.08180074
#
# Stress axis : x y z
#
# Youngs Moduli (GPa) = 38.12924 31.48634 75.76022
#
# Poissons Ratio (x) = -0.19243 -0.02907
# Poissons Ratio (y) = -0.23302 0.08999
# Poissons Ratio (z) = -0.01463 0.03740
#
# Static dielectric constant tensor:
#      x y z
#    x 1.753530 0.000000 0.013430 
#    y 0.000000 1.736530 -0.000010 
#    z 0.013430 -0.000010 1.788680 
# 
# From -- ./inp_files/30369.got.cif
#   From: 2010.05.17/outbox.cif.g08.bks.cpg/sg15_16_cif.got.tgz:30369.got - 2010.06.03 18:47:42.
