data_PCOD9262500
_publ_section_title
;
Structure prediction by ZEFSAII (Michael W. Deem and Ramdas Pophale) SiO2 
 PCOD9262500
Probable space group: C 2/C
;
_chemical_formula_sum "Si O2"
_cell_formula_units_Z 52
_cell_length_a 5.626879
_cell_length_b 19.135248
_cell_length_c 22.865723
_cell_angle_alpha 90.000000
_cell_angle_beta 107.206561
_cell_angle_gamma 90.000000
_cell_volume 2351.804151
_symmetry_space_group_name_H-M "C 2/C"
_symmetry_group_IT_number 15
_symmetry_cell_setting 'monoclinic'
loop_
_space_group_symop_operation_xyz
x,y,z
-x,y,1/2-z
-x,-y,-z
x,-y,1/2+z
1/2+x,1/2+y,z
1/2-x,1/2+y,1/2-z
1/2-x,1/2-y,-z
1/2+x,1/2-y,1/2+z
loop_
_atom_site_type_symbol
_atom_site_label
_atom_site_fract_x
_atom_site_fract_y
_atom_site_fract_z
Si Si1 0.394736 0.712967 0.364299
Si Si2 0.171516 0.681367 0.545612
Si Si3 0.695198 0.171914 0.813316
Si Si4 0.668107 0.458446 0.094778
Si Si5 0.000000 0.730753 0.250000
Si Si6 0.634948 0.979875 0.070523
Si Si7 0.101564 0.149423 0.488264
O O1 0.256179 0.761860 0.401507
O O2 0.576335 0.769711 0.347425
O O3 0.524471 0.655939 0.414917
O O4 0.210492 0.688170 0.299981
O O5 0.174977 0.603831 0.573809
O O6 0.373565 0.683238 0.508673
O O7 0.876059 0.684361 0.510021
O O8 0.500000 0.146041 0.750000
O O9 0.787945 0.106560 0.857977
O O10 0.883382 0.216578 0.788350
O O11 0.423476 0.501891 0.094366
O O12 0.930490 0.498423 0.104709
O O13 0.621099 0.422403 0.027184
O O14 0.500000 0.000000 0.000000
#
# Coordination Sequence:
#
# PCOD9262500 Si02
#       7
#     8   8   8   8   4   8   8
#     4  11  20  32  48  71 106 144 173 213 254 303
#     4  10  20  32  50  76 104 133 171 202 264 316
#     4  10  21  33  48  71 108 148 174 214 253 313
#     4  10  20  35  51  80 108 137 169 210 266 321
#     4  10  22  32  46  68 104 144 188 212 250 296
#     4  10  19  33  53  75 107 129 161 209 267 309
#     4  10  20  30  52  73 104 138 170 207 252 306
#
# _framework density 22.110683999999999
#
# number of rings (size 3 to 8) (size 9 to 14) (size 15 to 20)
#    0.000    1.846    3.077    3.231    4.308    0.000 
#    0.000    0.000    0.000    0.000    0.000    0.000 
#   55.385    0.000    0.000    0.000    0.000    0.000 
#
# Total GULP energy -144852.002264 kJ/mol
# GULP energy per Si atom -5571.230856 kJ/mol
# Density = 2.206036 g / cm^3
# Si number density = 22.110684 Si / 1000 Ang^3
#
#
#
# Elastic Constant Matrix: (Units=GPa)
#
#
# Indices 1 2 3 4 5 6 
#
# 1 195.7331 9.0020 48.4015 0.0000 -1.0553 0.0000
# 2 9.0020 46.1533 24.5017 0.0000 8.0082 0.0000
# 3 48.4015 24.5017 127.6165 0.0000 15.7755 0.0000
# 4 0.0000 0.0000 0.0000 32.5366 0.0000 -3.6353
# 5 -1.0553 8.0082 15.7755 0.0000 46.0731 0.0000
# 6 0.0000 0.0000 0.0000 -3.6353 0.0000 12.9941
#
#
#
# Elastic Compliance Matrix: (Units=1/GPa)
#
#
# Indices 1 2 3 4 5 6 
#
# 1 0.005674 -0.000070 -0.002251 0.000000 0.000913 0.000000
# 2 -0.000070 0.024458 -0.004327 0.000000 -0.002771 0.000000
# 3 -0.002251 -0.004327 0.009851 0.000000 -0.002672 0.000000
# 4 0.000000 0.000000 0.000000 0.031726 0.000000 0.008876
# 5 0.000913 -0.002771 -0.002672 0.000000 0.023122 0.000000
# 6 0.000000 0.000000 0.000000 0.008876 0.000000 0.079441
#
#
# Mechanical properties :
#
#
# Convention : Reuss Voigt Hill
#
# Bulk Modulus (GPa) = 37.47130 59.25704 48.36417
# Shear Modulus (GPa) = 25.44982 37.49395 31.47188
#
# Velocity S-wave (km/s) = 3.39635 4.12240 3.77686
# Velocity P-wave (km/s) = 5.68895 7.03685 6.39849
#
# Compressibility (1/GPa) = 0.02668709
#
# Stress axis : x y z
#
# Youngs Moduli (GPa) = 176.24674 40.88577 101.51303
#
# Poissons Ratio (x) = 0.00286 0.22855
# Poissons Ratio (y) = 0.01231 0.43923
# Poissons Ratio (z) = 0.39680 0.17690
#
# Static dielectric constant tensor:
#      x y z
#    x 2.026680 0.000000 0.016130 
#    y 0.000000 1.863720 0.000000 
#    z 0.016130 0.000000 1.846350 
# 
# From -- ./inp_files/185772.got.cif
#   From: 2010.05.17/outbox.cif.g08.bks.cpg/sg15_93_cif.got.tgz:185772.got - 2010.06.03 18:47:42.
