data_PCOD9262688
_publ_section_title
;
Structure prediction by ZEFSAII (Michael W. Deem and Ramdas Pophale) SiO2 
 PCOD9262688
Probable space group: C 2/C
;
_chemical_formula_sum "Si O2"
_cell_formula_units_Z 56
_cell_length_a 8.998501
_cell_length_b 28.911970
_cell_length_c 11.934807
_cell_angle_alpha 90.000000
_cell_angle_beta 74.944219
_cell_angle_gamma 90.000000
_cell_volume 2998.427272
_symmetry_space_group_name_H-M "C 2/C"
_symmetry_group_IT_number 15
_symmetry_cell_setting 'monoclinic'
loop_
_space_group_symop_operation_xyz
x,y,z
-x,y,1/2-z
-x,-y,-z
x,-y,1/2+z
1/2+x,1/2+y,z
1/2-x,1/2+y,1/2-z
1/2-x,1/2-y,-z
1/2+x,1/2-y,1/2+z
loop_
_atom_site_type_symbol
_atom_site_label
_atom_site_fract_x
_atom_site_fract_y
_atom_site_fract_z
Si Si1 0.270933 0.696299 0.974605
Si Si2 0.060884 0.561641 0.927942
Si Si3 0.962413 0.868427 0.125663
Si Si4 0.643885 0.885424 0.640915
Si Si5 0.071244 0.058688 0.420218
Si Si6 0.761709 0.017046 0.468317
Si Si7 0.850651 0.348943 0.226205
O O1 0.443914 0.676302 0.934397
O O2 0.206335 0.681631 0.865981
O O3 0.250000 0.750000 0.000000
O O4 0.186751 0.664756 0.083831
O O5 0.095541 0.583628 0.043056
O O6 0.882905 0.546520 0.958205
O O7 0.176778 0.517916 0.898663
O O8 0.103599 0.601176 0.832856
O O9 0.782987 0.857821 0.158523
O O10 0.000000 0.877259 0.250000
O O11 0.018085 0.911195 0.039807
O O12 0.500000 0.883980 0.750000
O O13 0.797636 0.909339 0.661272
O O14 0.910242 0.044772 0.393805
O O15 0.161356 0.013483 0.447542
O O16 0.000000 0.326929 0.250000
#
# Coordination Sequence:
#
# PCOD9262688 Si02
#       7
#     8   8   8   8   8   8   8
#     4   9  19  35  56  79 100 126 162 206 255 311
#     4   9  18  32  47  71 104 132 166 208 248 289
#     4   9  17  31  51  74 101 131 167 207 254 304
#     4   9  18  33  50  68  96 133 166 199 247 302
#     4   9  17  30  46  67  98 135 173 210 244 284
#     4   9  16  30  47  66 100 135 168 213 245 279
#     4  10  19  33  55  79 103 130 164 208 258 303
#
# _framework density 18.676456000000002
#
# number of rings (size 3 to 8) (size 9 to 14) (size 15 to 20)
#    0.000    2.857    0.000    3.429    0.000    1.714 
#    0.000   26.429    0.000    3.429    0.000    0.000 
#    0.000    0.000    0.000    0.000    0.000    0.000 
#
# Total GULP energy -156080.590679 kJ/mol
# GULP energy per Si atom -5574.306810 kJ/mol
# Density = 1.863395 g / cm^3
# Si number density = 18.676456 Si / 1000 Ang^3
#
#
#
# Elastic Constant Matrix: (Units=GPa)
#
#
# Indices 1 2 3 4 5 6 
#
# 1 125.6423 49.3402 38.5171 0.0000 -40.7185 0.0000
# 2 49.3402 121.8261 36.9529 0.0000 -21.6685 0.0000
# 3 38.5171 36.9529 81.3856 0.0000 -32.5872 0.0000
# 4 0.0000 0.0000 0.0000 5.3194 0.0000 -7.0798
# 5 -40.7185 -21.6685 -32.5872 0.0000 30.7325 0.0000
# 6 0.0000 0.0000 0.0000 -7.0798 0.0000 9.5557
#
#
#
# Elastic Compliance Matrix: (Units=1/GPa)
#
#
# Indices 1 2 3 4 5 6 
#
# 1 0.015039 -0.003235 0.002462 0.000000 0.020255 0.000000
# 2 -0.003235 0.010464 -0.003445 0.000000 -0.000561 0.000000
# 3 0.002462 -0.003445 0.022626 0.000000 0.024824 0.000000
# 4 0.000000 0.000000 0.000000 13.497494 0.000000 10.000233
# 5 0.020255 -0.000561 0.024824 0.000000 0.085302 0.000000
# 6 0.000000 0.000000 0.000000 10.000233 0.000000 7.513778
#
#
# Mechanical properties :
#
#
# Convention : Reuss Voigt Hill
#
# Bulk Modulus (GPa) = 25.19356 64.27494 44.73425
# Shear Modulus (GPa) = 0.23622 22.72445 11.48034
#
# Velocity S-wave (km/s) = 0.35603 3.49197 2.48200
# Velocity P-wave (km/s) = 3.69970 7.12377 5.67609
#
# Compressibility (1/GPa) = 0.03969268
#
# Stress axis : x y z
#
# Youngs Moduli (GPa) = 66.49292 95.56898 44.19713
#
# Poissons Ratio (x) = 0.30916 -0.10879
# Poissons Ratio (y) = 0.21510 0.15224
# Poissons Ratio (z) = -0.16367 0.32920
#
# Static dielectric constant tensor:
#      x y z
#    x 1.703490 0.000000 -0.008290 
#    y 0.000000 1.635800 0.000000 
#    z -0.008290 0.000000 1.655680 
# 
# From -- ./inp_files/138537.got.cif
#   From: 2010.05.17/outbox.cif.g08.bks.cpg/sg15_70_cif.got.tgz:138537.got - 2010.06.03 18:47:42.
