data_PCOD9262078
_publ_section_title
;
Structure prediction by ZEFSAII (Michael W. Deem and Ramdas Pophale) SiO2 
 PCOD9262078
Probable space group: C 2/C
;
_chemical_formula_sum "Si O2"
_cell_formula_units_Z 60
_cell_length_a 19.260189
_cell_length_b 31.200060
_cell_length_c 14.069335
_cell_angle_alpha 90.000000
_cell_angle_beta 21.832006
_cell_angle_gamma 90.000000
_cell_volume 3144.125598
_symmetry_space_group_name_H-M "C 2/C"
_symmetry_group_IT_number 15
_symmetry_cell_setting 'monoclinic'
loop_
_space_group_symop_operation_xyz
x,y,z
-x,y,1/2-z
-x,-y,-z
x,-y,1/2+z
1/2+x,1/2+y,z
1/2-x,1/2+y,1/2-z
1/2-x,1/2-y,-z
1/2+x,1/2-y,1/2+z
loop_
_atom_site_type_symbol
_atom_site_label
_atom_site_fract_x
_atom_site_fract_y
_atom_site_fract_z
Si Si1 0.456738 0.390158 0.096274
Si Si2 0.000000 0.392645 0.250000
Si Si3 0.280662 0.041216 0.493525
Si Si4 0.831549 0.953571 0.780670
Si Si5 0.884562 0.369562 0.598055
Si Si6 0.631566 0.040742 0.333061
Si Si7 0.210135 0.800207 0.159248
Si Si8 0.403815 0.206021 0.221241
O O1 0.314828 0.416342 0.342993
O O2 0.382642 0.342188 0.178457
O O3 0.493332 0.422247 0.960501
O O4 0.664087 0.381374 0.874496
O O5 0.822888 0.424588 0.469576
O O6 0.962038 0.365456 0.392806
O O7 0.500000 0.037735 0.250000
O O8 0.270512 0.042153 0.392928
O O9 0.165217 0.999510 0.674514
O O10 0.754208 0.963274 0.772519
O O11 0.973933 0.413533 0.524313
O O12 0.907564 0.328833 0.634124
O O13 0.500000 0.000000 0.500000
O O14 0.113533 0.754304 0.294838
O O15 0.408423 0.796751 0.957574
O O16 0.240977 0.803928 0.005637
#
# Coordination Sequence:
#
# PCOD9262078 Si02
#       8
#     8   4   8   8   8   8   8   8
#     4  10  23  35  55  83 116 149 194 241 283 343
#     4   8  16  36  60  78 106 152 196 240 282 340
#     4  12  21  33  56  79 117 153 192 240 287 338
#     4  10  20  38  54  78 112 154 194 238 288 339
#     4  10  21  37  59  84 113 152 198 235 292 339
#     4  10  19  32  53  79 108 149 193 229 282 343
#     4  10  21  37  57  89 121 150 184 230 295 343
#     4  10  21  36  62  86 119 153 184 234 287 358
#
# _framework density 19.083206000000001
#
# number of rings (size 3 to 8) (size 9 to 14) (size 15 to 20)
#    0.000    2.133    2.000    2.800    3.733    5.867 
#    0.000    0.000    0.000   13.600    0.000    0.000 
#    0.000    0.000    0.000    0.000    0.000    0.000 
#
# Total GULP energy -167265.773585 kJ/mol
# GULP energy per Si atom -5575.525786 kJ/mol
# Density = 1.903977 g / cm^3
# Si number density = 19.083206 Si / 1000 Ang^3
#
#
#
# Elastic Constant Matrix: (Units=GPa)
#
#
# Indices 1 2 3 4 5 6 
#
# 1 69.8922 51.8962 24.9762 0.0452 26.6244 -0.1132
# 2 51.8962 157.8730 52.2204 -0.0428 23.6684 -0.0159
# 3 24.9762 52.2204 74.0863 0.1522 11.0352 -0.1056
# 4 0.0452 -0.0428 0.1522 6.3815 0.0115 -13.9626
# 5 26.6244 23.6684 11.0352 0.0115 26.4170 0.1791
# 6 -0.1132 -0.0159 -0.1056 -13.9626 0.1791 25.3433
#
#
#
# Elastic Compliance Matrix: (Units=1/GPa)
#
#
# Indices 1 2 3 4 5 6 
#
# 1 0.027146 -0.004802 -0.002485 -0.002195 -0.022011 -0.000946
# 2 -0.004802 0.009867 -0.005054 -0.000846 -0.001885 -0.000489
# 3 -0.002485 -0.005054 0.017967 0.001480 -0.000480 0.000880
# 4 -0.002195 -0.000846 0.001480 -0.762148 0.005532 -0.419939
# 5 -0.022011 -0.001885 -0.000480 0.005532 0.061909 0.002509
# 6 -0.000946 -0.000489 0.000880 -0.419939 0.002509 -0.191921
#
#
# Mechanical properties :
#
#
# Convention : Reuss Voigt Hill
#
# Bulk Modulus (GPa) = 33.00515 62.22637 47.61576
# Shear Modulus (GPa) = -6.23133 23.14562 8.45715
#
# Velocity S-wave (km/s) = -1.80899 3.48642 2.10745
# Velocity P-wave (km/s) = 3.60135 6.99182 5.56126
#
# Compressibility (1/GPa) = 0.03029831
#
# Stress axis : x y z
#
# Youngs Moduli (GPa) = 36.83730 101.34852 55.65616
#
# Poissons Ratio (x) = 0.48672 0.13830
# Poissons Ratio (y) = 0.17691 0.28128
# Poissons Ratio (z) = 0.09154 0.51221
#
# Static dielectric constant tensor:
#      x y z
#    x 1.677410 0.000130 -0.008630 
#    y 0.000130 1.733170 -0.000040 
#    z -0.008630 -0.000040 1.698720 
# 
# From -- ./inp_files/170040.got.cif
#   From: 2010.05.17/outbox.cif.g08.bks.cpg/sg15_86_cif.got.tgz:170040.got - 2010.06.03 18:47:42.
