data_PCOD9262848
_publ_section_title
;
Structure prediction by ZEFSAII (Michael W. Deem and Ramdas Pophale) SiO2 
 PCOD9262848
Probable space group: C 2/C
;
_chemical_formula_sum "Si O2"
_cell_formula_units_Z 60
_cell_length_a 28.739151
_cell_length_b 23.542693
_cell_length_c 8.813435
_cell_angle_alpha 90.000000
_cell_angle_beta 32.708865
_cell_angle_gamma 90.000000
_cell_volume 3222.307068
_symmetry_space_group_name_H-M "C 2/C"
_symmetry_group_IT_number 15
_symmetry_cell_setting 'monoclinic'
loop_
_space_group_symop_operation_xyz
x,y,z
-x,y,1/2-z
-x,-y,-z
x,-y,1/2+z
1/2+x,1/2+y,z
1/2-x,1/2+y,1/2-z
1/2-x,1/2-y,-z
1/2+x,1/2-y,1/2+z
loop_
_atom_site_type_symbol
_atom_site_label
_atom_site_fract_x
_atom_site_fract_y
_atom_site_fract_z
Si Si1 0.000000 0.671164 0.750000
Si Si2 0.973443 0.781885 0.988651
Si Si3 0.694690 0.993791 0.028731
Si Si4 0.653766 0.086177 0.392683
Si Si5 0.445126 0.457778 0.045735
Si Si6 0.808790 0.953777 0.953694
Si Si7 0.164142 0.143495 0.513909
Si Si8 0.919253 0.854323 0.569953
O O1 0.018874 0.714593 0.559163
O O2 0.080703 0.632050 0.566037
O O3 0.876477 0.801986 0.290371
O O4 0.000000 0.805650 0.750000
O O5 0.037454 0.806029 0.943646
O O6 0.765744 0.020157 0.719755
O O7 0.633744 0.958135 0.083941
O O8 0.733911 0.946972 0.035942
O O9 0.663382 0.045775 0.218468
O O10 0.743226 0.119175 0.190167
O O11 0.500000 0.440668 0.750000
O O12 0.500000 0.500000 0.000000
O O13 0.366263 0.497890 0.216907
O O14 0.403269 0.405858 0.250371
O O15 0.870400 0.900261 0.807000
O O16 0.149588 0.157744 0.375651
O O17 0.000000 0.877979 0.250000
#
# Coordination Sequence:
#
# PCOD9262848 Si02
#       8
#     4   8   8   8   8   8   8   8
#     4  10  26  48  68  84 114 164 224 284 312 346
#     4   9  22  40  60  87 123 163 215 256 295 363
#     4  10  21  35  62  89 124 156 199 255 304 387
#     4  11  23  43  68  92 126 158 207 259 325 379
#     4  12  21  27  48  88 134 178 198 226 299 388
#     4  11  18  32  49  90 131 160 200 233 296 378
#     4  11  20  35  60  92 128 170 199 252 312 379
#     4  10  19  33  56  88 128 168 199 245 302 364
#
# _framework density 18.620199
#
# number of rings (size 3 to 8) (size 9 to 14) (size 15 to 20)
#    0.400    1.067    4.000    4.000    1.867    1.067 
#    0.000    0.667   17.600    0.000    0.000    0.000 
#    0.000    0.000    0.000    0.000    0.000    0.000 
#
# Total GULP energy -167013.391892 kJ/mol
# GULP energy per Si atom -5567.113063 kJ/mol
# Density = 1.857782 g / cm^3
# Si number density = 18.620199 Si / 1000 Ang^3
#
#
#
# Elastic Constant Matrix: (Units=GPa)
#
#
# Indices 1 2 3 4 5 6 
#
# 1 118.1130 62.5967 50.8326 0.0000 3.8643 0.0000
# 2 62.5967 112.6979 44.5495 0.0000 -14.2373 0.0000
# 3 50.8326 44.5495 43.2928 0.0000 -5.5017 0.0000
# 4 0.0000 0.0000 0.0000 5.9232 0.0000 6.5193
# 5 3.8643 -14.2373 -5.5017 0.0000 21.5541 0.0000
# 6 0.0000 0.0000 0.0000 6.5193 0.0000 40.6819
#
#
#
# Elastic Compliance Matrix: (Units=1/GPa)
#
#
# Indices 1 2 3 4 5 6 
#
# 1 0.020008 -0.004592 -0.020266 0.000000 -0.011793 0.000000
# 2 -0.004592 0.016844 -0.010773 0.000000 0.009200 0.000000
# 3 -0.020266 -0.010773 0.059465 0.000000 0.011696 0.000000
# 4 0.000000 0.000000 0.000000 0.204983 0.000000 -0.032849
# 5 -0.011793 0.009200 0.011696 0.000000 0.057571 0.000000
# 6 0.000000 0.000000 0.000000 -0.032849 0.000000 0.029845
#
#
# Mechanical properties :
#
#
# Convention : Reuss Voigt Hill
#
# Bulk Modulus (GPa) = 39.90900 65.56238 52.73569
# Shear Modulus (GPa) = 10.67624 21.37348 16.02486
#
# Velocity S-wave (km/s) = 2.39711 3.39169 2.93681
# Velocity P-wave (km/s) = 5.39826 7.11512 6.31530
#
# Compressibility (1/GPa) = 0.02505701
#
# Stress axis : x y z
#
# Youngs Moduli (GPa) = 49.98089 59.36676 16.81650
#
# Poissons Ratio (x) = 0.27260 0.34080
# Poissons Ratio (y) = 0.22950 0.18116
# Poissons Ratio (z) = 1.01290 0.63954
#
# Static dielectric constant tensor:
#      x y z
#    x 1.724920 0.000000 -0.006280 
#    y 0.000000 1.661600 0.000000 
#    z -0.006280 0.000000 1.652370 
# 
# From -- ./inp_files/67654.got.cif
#   From: 2010.05.17/outbox.cif.g08.bks.cpg/sg15_34_cif.got.tgz:67654.got - 2010.06.03 18:47:42.
