data_PCOD9262638
_publ_section_title
;
Structure prediction by ZEFSAII (Michael W. Deem and Ramdas Pophale) SiO2 
 PCOD9262638
Probable space group: C 2/C
;
_chemical_formula_sum "Si O2"
_cell_formula_units_Z 56
_cell_length_a 12.398078
_cell_length_b 18.585434
_cell_length_c 16.336312
_cell_angle_alpha 90.000000
_cell_angle_beta 46.254657
_cell_angle_gamma 90.000000
_cell_volume 2719.386587
_symmetry_space_group_name_H-M "C 2/C"
_symmetry_group_IT_number 15
_symmetry_cell_setting 'monoclinic'
loop_
_space_group_symop_operation_xyz
x,y,z
-x,y,1/2-z
-x,-y,-z
x,-y,1/2+z
1/2+x,1/2+y,z
1/2-x,1/2+y,1/2-z
1/2-x,1/2-y,-z
1/2+x,1/2-y,1/2+z
loop_
_atom_site_type_symbol
_atom_site_label
_atom_site_fract_x
_atom_site_fract_y
_atom_site_fract_z
Si Si1 0.074496 0.602653 0.799049
Si Si2 0.311094 0.862967 0.005641
Si Si3 0.789733 0.964010 0.714710
Si Si4 0.042616 0.057042 0.633438
Si Si5 0.919969 0.422969 0.543283
Si Si6 0.826523 0.813607 0.249437
Si Si7 0.661557 0.838869 0.683231
O O1 0.172751 0.528988 0.756618
O O2 0.194119 0.665528 0.756975
O O3 0.000000 0.606933 0.750000
O O4 0.949161 0.605519 0.936725
O O5 0.230721 0.838439 0.130762
O O6 0.219655 0.936228 0.031665
O O7 0.479382 0.877154 0.945880
O O8 0.293670 0.817345 0.932562
O O9 0.739259 0.934538 0.830934
O O10 0.769022 0.898124 0.664438
O O11 0.953098 0.998257 0.629545
O O12 0.967311 0.135554 0.654851
O O13 0.000000 0.042492 0.750000
O O14 0.000000 0.500000 0.500000
O O15 0.855262 0.729967 0.249479
O O16 0.500000 0.873565 0.750000
#
# Coordination Sequence:
#
# PCOD9262638 Si02
#       7
#     8   8   8   8   8   8   8
#     4   9  18  34  56  77 107 143 187 226 267 328
#     4  10  19  33  54  82 107 148 182 221 278 327
#     4  10  20  33  53  86 110 137 184 231 273 324
#     4   9  18  37  54  73 111 150 182 209 281 337
#     4   9  17  31  53  82 107 138 182 225 268 325
#     4   9  20  35  53  80 108 150 182 223 276 334
#     4  12  21  32  54  85 114 136 184 240 274 309
#
# _framework density 20.592879
#
# number of rings (size 3 to 8) (size 9 to 14) (size 15 to 20)
#    0.000    2.286    1.429    4.714    2.000    0.571 
#    0.000    0.714    0.000    0.857    0.000    0.000 
#    0.000    0.000    0.000    0.000    0.000    0.000 
#
# Total GULP energy -156078.721684 kJ/mol
# GULP energy per Si atom -5574.240060 kJ/mol
# Density = 2.054601 g / cm^3
# Si number density = 20.592879 Si / 1000 Ang^3
#
#
#
# Elastic Constant Matrix: (Units=GPa)
#
#
# Indices 1 2 3 4 5 6 
#
# 1 121.5068 38.4438 28.4440 -0.0001 16.4067 0.0000
# 2 38.4438 79.6922 0.9300 0.0000 4.2902 0.0000
# 3 28.4440 0.9300 50.3560 -0.0002 10.6195 0.0002
# 4 -0.0001 0.0000 -0.0002 19.7240 0.0001 5.4075
# 5 16.4067 4.2902 10.6195 0.0001 32.7815 0.0000
# 6 0.0000 0.0000 0.0002 5.4075 0.0000 15.1963
#
#
#
# Elastic Compliance Matrix: (Units=1/GPa)
#
#
# Indices 1 2 3 4 5 6 
#
# 1 0.011760 -0.005428 -0.005851 0.000000 -0.003280 0.000000
# 2 -0.005428 0.015144 0.002824 0.000000 -0.000180 0.000000
# 3 -0.005851 0.002824 0.024227 0.000000 -0.005290 0.000000
# 4 0.000000 0.000000 0.000000 0.056181 0.000000 -0.019992
# 5 -0.003280 -0.000180 -0.005290 0.000000 0.033884 0.000000
# 6 0.000000 0.000000 0.000000 -0.019992 0.000000 0.072919
#
#
# Mechanical properties :
#
#
# Convention : Reuss Voigt Hill
#
# Bulk Modulus (GPa) = 29.22145 43.02117 36.12131
# Shear Modulus (GPa) = 20.62449 25.78950 23.20699
#
# Velocity S-wave (km/s) = 3.16814 3.54270 3.36064
# Velocity P-wave (km/s) = 5.25392 6.13766 5.71290
#
# Compressibility (1/GPa) = 0.03422143
#
# Stress axis : x y z
#
# Youngs Moduli (GPa) = 85.03449 66.03454 41.27658
#
# Poissons Ratio (x) = 0.35845 0.24150
# Poissons Ratio (y) = 0.46158 -0.11658
# Poissons Ratio (z) = 0.49751 -0.18651
#
# Static dielectric constant tensor:
#      x y z
#    x 1.760090 0.000000 -0.013530 
#    y 0.000000 1.766540 0.000000 
#    z -0.013530 0.000000 1.832660 
# 
# From -- ./inp_files/200130.got.cif
#   From: 2010.05.17/outbox.cif.g08.bks.cpg/sg15_101_cif.got.tgz:200130.got - 2010.06.03 18:47:42.
