data_PCOD9262676
_publ_section_title
;
Structure prediction by ZEFSAII (Michael W. Deem and Ramdas Pophale) SiO2 
 PCOD9262676
Probable space group: C 2/C
;
_chemical_formula_sum "Si O2"
_cell_formula_units_Z 56
_cell_length_a 13.575723
_cell_length_b 29.218035
_cell_length_c 8.981642
_cell_angle_alpha 90.000000
_cell_angle_beta 60.215183
_cell_angle_gamma 90.000000
_cell_volume 3091.989138
_symmetry_space_group_name_H-M "C 2/C"
_symmetry_group_IT_number 15
_symmetry_cell_setting 'monoclinic'
loop_
_space_group_symop_operation_xyz
x,y,z
-x,y,1/2-z
-x,-y,-z
x,-y,1/2+z
1/2+x,1/2+y,z
1/2-x,1/2+y,1/2-z
1/2-x,1/2-y,-z
1/2+x,1/2-y,1/2+z
loop_
_atom_site_type_symbol
_atom_site_label
_atom_site_fract_x
_atom_site_fract_y
_atom_site_fract_z
Si Si1 0.380794 0.210033 0.267285
Si Si2 0.574373 0.349850 0.894613
Si Si3 0.146540 0.039603 0.789648
Si Si4 0.625718 0.553491 0.462950
Si Si5 0.161198 0.814193 0.119404
Si Si6 0.181678 0.870413 0.399256
Si Si7 0.258845 0.199590 0.065713
O O1 0.500000 0.197110 0.250000
O O2 0.278916 0.189142 0.440209
O O3 0.365136 0.264680 0.293895
O O4 0.359334 0.198184 0.111139
O O5 0.641159 0.397698 0.870460
O O6 0.644826 0.313794 0.744082
O O7 0.570456 0.328495 0.063090
O O8 0.446665 0.362087 0.942844
O O9 0.173117 0.048886 0.595803
O O10 0.203415 0.076106 0.858865
O O11 0.166405 0.988031 0.828832
O O12 0.010904 0.048442 0.912285
O O13 0.177152 0.850122 0.237403
O O14 0.264003 0.839689 0.436965
O O15 0.250000 0.250000 0.000000
#
# Coordination Sequence:
#
# PCOD9262676 Si02
#       7
#     8   8   8   8   8   8   8
#     4  10  21  38  54  71  99 139 175 221 274 310
#     4  10  20  33  53  73 108 150 183 214 269 325
#     4   9  18  28  47  70 110 142 178 213 255 322
#     4   9  17  30  45  74 102 147 182 208 257 322
#     4  10  19  33  55  75  96 134 186 213 252 332
#     4  11  19  34  50  77 109 146 177 224 266 310
#     4  11  23  35  47  77 107 137 191 231 258 315
#
# _framework density 18.111318000000001
#
# number of rings (size 3 to 8) (size 9 to 14) (size 15 to 20)
#    0.000    2.000    2.857    1.714    2.000    0.000 
#    2.571    0.714    0.000    0.000    0.000    0.000 
#    0.000   18.286    0.000    0.000    0.000    0.000 
#
# Total GULP energy -156128.298738 kJ/mol
# GULP energy per Si atom -5576.010669 kJ/mol
# Density = 1.807010 g / cm^3
# Si number density = 18.111318 Si / 1000 Ang^3
#
#
#
# Elastic Constant Matrix: (Units=GPa)
#
#
# Indices 1 2 3 4 5 6 
#
# 1 87.6993 27.8571 15.9887 0.0000 18.5493 0.0000
# 2 27.8571 120.6911 35.6415 0.0000 13.6336 0.0000
# 3 15.9887 35.6415 48.7211 0.0000 15.8640 0.0000
# 4 0.0000 0.0000 0.0000 14.9073 0.0000 4.7725
# 5 18.5493 13.6336 15.8640 0.0000 24.7135 0.0000
# 6 0.0000 0.0000 0.0000 4.7725 0.0000 22.9998
#
#
#
# Elastic Compliance Matrix: (Units=1/GPa)
#
#
# Indices 1 2 3 4 5 6 
#
# 1 0.014078 -0.002203 0.000046 0.000000 -0.009381 0.000000
# 2 -0.002203 0.010937 -0.007398 0.000000 0.000369 0.000000
# 3 0.000046 -0.007398 0.031106 0.000000 -0.015921 0.000000
# 4 0.000000 0.000000 0.000000 0.071855 0.000000 -0.014910
# 5 -0.009381 0.000369 -0.015921 0.000000 0.057521 0.000000
# 6 0.000000 0.000000 0.000000 -0.014910 0.000000 0.046572
#
#
# Mechanical properties :
#
#
# Convention : Reuss Voigt Hill
#
# Bulk Modulus (GPa) = 27.01908 46.23179 36.62544
# Shear Modulus (GPa) = 18.97415 24.36576 21.66996
#
# Velocity S-wave (km/s) = 3.24024 3.67186 3.46278
# Velocity P-wave (km/s) = 5.38048 6.59989 6.02114
#
# Compressibility (1/GPa) = 0.03701088
#
# Stress axis : x y z
#
# Youngs Moduli (GPa) = 71.03176 91.43054 32.14842
#
# Poissons Ratio (x) = 0.20146 -0.00149
# Poissons Ratio (y) = 0.15651 0.23784
# Poissons Ratio (z) = -0.00330 0.67642
#
# Static dielectric constant tensor:
#      x y z
#    x 1.640210 0.000000 0.027520 
#    y 0.000000 1.645480 0.000000 
#    z 0.027520 0.000000 1.662220 
# 
# From -- ./inp_files/44492.got.cif
#   From: 2010.05.17/outbox.cif.g08.bks.cpg/sg15_23_cif.got.tgz:44492.got - 2010.06.03 18:47:42.
