data_PCOD9262034
_publ_section_title
;
Structure prediction by ZEFSAII (Michael W. Deem and Ramdas Pophale) SiO2 
 PCOD9262034
Probable space group: C 2/C
;
_chemical_formula_sum "Si O2"
_cell_formula_units_Z 64
_cell_length_a 33.919908
_cell_length_b 5.625399
_cell_length_c 20.156376
_cell_angle_alpha 90.000000
_cell_angle_beta 136.826626
_cell_angle_gamma 90.000000
_cell_volume 2631.532687
_symmetry_space_group_name_H-M "C 2/C"
_symmetry_group_IT_number 15
_symmetry_cell_setting 'monoclinic'
loop_
_space_group_symop_operation_xyz
x,y,z
-x,y,1/2-z
-x,-y,-z
x,-y,1/2+z
1/2+x,1/2+y,z
1/2-x,1/2+y,1/2-z
1/2-x,1/2-y,-z
1/2+x,1/2-y,1/2+z
loop_
_atom_site_type_symbol
_atom_site_label
_atom_site_fract_x
_atom_site_fract_y
_atom_site_fract_z
Si Si1 0.226563 0.827875 0.869179
Si Si2 0.071180 0.586591 0.998936
Si Si3 0.953197 0.918675 0.996138
Si Si4 0.036435 0.376948 0.225711
Si Si5 0.715198 0.386546 0.713413
Si Si6 0.035418 0.124082 0.724982
Si Si7 0.662043 0.846446 0.025036
Si Si8 0.706269 0.441116 0.476170
O O1 0.190888 0.851134 0.757968
O O2 0.256598 0.578790 0.922491
O O3 0.281099 0.000582 0.921063
O O4 0.195348 0.895732 0.899123
O O5 0.069892 0.351080 0.043787
O O6 0.008390 0.620548 0.890109
O O7 0.086572 0.843690 0.048132
O O8 0.112304 0.521007 0.987567
O O9 0.986204 0.885662 0.107246
O O10 0.000000 0.000000 0.000000
O O11 0.000000 0.378645 0.250000
O O12 0.067760 0.125960 0.261611
O O13 0.068257 0.627033 0.258202
O O14 0.739826 0.656426 0.735550
O O15 0.673761 0.321231 0.602342
O O16 0.000000 0.130266 0.750000
O O17 0.654351 0.679826 0.952087
O O18 0.750000 0.250000 0.500000
#
# Coordination Sequence:
#
# PCOD9262034 Si02
#       8
#     8   8   8   8   8   8   8   8
#     4   9  18  32  53  80 108 151 191 222 274 331
#     4  10  21  32  54  82 106 138 177 234 279 311
#     4  10  20  35  53  78 102 137 178 220 273 338
#     4   8  14  27  45  70  96 123 163 207 258 312
#     4  10  19  32  52  79 110 149 194 228 263 326
#     4   8  14  26  47  72  91 118 159 207 247 299
#     4  10  20  32  53  83 115 142 190 240 277 323
#     4   9  17  32  53  80 107 145 185 227 273 334
#
# _framework density 24.320428
#
# number of rings (size 3 to 8) (size 9 to 14) (size 15 to 20)
#    0.000    2.750    1.250    0.375    1.750    0.000 
#    0.000    0.000    0.000    6.000   42.250    0.000 
#    0.000    0.000    0.000    0.000    0.000    0.000 
#
# Total GULP energy -178363.771115 kJ/mol
# GULP energy per Si atom -5573.867847 kJ/mol
# Density = 2.426507 g / cm^3
# Si number density = 24.320428 Si / 1000 Ang^3
#
#
#
# Elastic Constant Matrix: (Units=GPa)
#
#
# Indices 1 2 3 4 5 6 
#
# 1 67.8896 17.4145 10.2791 0.0004 -8.7155 -0.0001
# 2 17.4145 217.5859 0.4402 -0.0002 7.2491 0.0043
# 3 10.2791 0.4402 63.8299 -0.0005 -14.1219 0.0002
# 4 0.0004 -0.0002 -0.0005 24.0483 0.0001 -10.6194
# 5 -8.7155 7.2491 -14.1219 0.0001 30.1255 0.0004
# 6 -0.0001 0.0043 0.0002 -10.6194 0.0004 29.1605
#
#
#
# Elastic Compliance Matrix: (Units=1/GPa)
#
#
# Indices 1 2 3 4 5 6 
#
# 1 0.015871 -0.001406 -0.001624 0.000000 0.004169 0.000000
# 2 -0.001406 0.004763 -0.000167 0.000000 -0.001631 -0.000001
# 3 -0.001624 -0.000167 0.017667 0.000000 0.007852 0.000000
# 4 0.000000 0.000000 0.000000 0.049551 0.000000 0.018045
# 5 0.004169 -0.001631 0.007852 0.000000 0.038474 0.000000
# 6 0.000000 -0.000001 0.000000 0.018045 0.000000 0.040864
#
#
# Mechanical properties :
#
#
# Convention : Reuss Voigt Hill
#
# Bulk Modulus (GPa) = 31.34134 45.06366 38.20250
# Shear Modulus (GPa) = 27.14137 38.07830 32.60983
#
# Velocity S-wave (km/s) = 3.34427 3.96118 3.66572
# Velocity P-wave (km/s) = 5.27513 6.28415 5.80162
#
# Compressibility (1/GPa) = 0.03190674
#
# Stress axis : x y z
#
# Youngs Moduli (GPa) = 63.00617 209.94761 56.60426
#
# Poissons Ratio (x) = 0.29516 0.09192
# Poissons Ratio (y) = 0.08858 0.00947
# Poissons Ratio (z) = 0.10232 0.03514
#
# Static dielectric constant tensor:
#      x y z
#    x 1.916480 0.000000 -0.011950 
#    y 0.000000 2.049400 0.000000 
#    z -0.011950 0.000000 1.926620 
# 
# From -- ./inp_files/258455.got.cif
#   From: 2010.05.17/outbox.cif.g08.bks.cpg/sg15_130_cif.got.tgz:258455.got - 2010.06.03 18:47:42.
