data_PCOD9262101
_publ_section_title
;
Structure prediction by ZEFSAII (Michael W. Deem and Ramdas Pophale) SiO2 
 PCOD9262101
Probable space group: C 2/C
;
_chemical_formula_sum "Si O2"
_cell_formula_units_Z 60
_cell_length_a 11.177202
_cell_length_b 19.088868
_cell_length_c 27.321825
_cell_angle_alpha 90.000000
_cell_angle_beta 147.849575
_cell_angle_gamma 90.000000
_cell_volume 3102.073450
_symmetry_space_group_name_H-M "C 2/C"
_symmetry_group_IT_number 15
_symmetry_cell_setting 'monoclinic'
loop_
_space_group_symop_operation_xyz
x,y,z
-x,y,1/2-z
-x,-y,-z
x,-y,1/2+z
1/2+x,1/2+y,z
1/2-x,1/2+y,1/2-z
1/2-x,1/2-y,-z
1/2+x,1/2-y,1/2+z
loop_
_atom_site_type_symbol
_atom_site_label
_atom_site_fract_x
_atom_site_fract_y
_atom_site_fract_z
Si Si1 0.555188 0.387882 0.390853
Si Si2 0.000000 0.682238 0.250000
Si Si3 0.755115 0.147955 0.246393
Si Si4 0.779241 0.651480 0.419266
Si Si5 0.296326 0.566865 0.713114
Si Si6 0.007551 0.552267 0.080339
Si Si7 0.752150 0.228182 0.826904
Si Si8 0.201438 0.692277 0.615253
O O1 0.376873 0.432505 0.296955
O O2 0.429278 0.333988 0.383003
O O3 0.688763 0.343501 0.395112
O O4 0.744171 0.432449 0.484034
O O5 0.125936 0.639848 0.252001
O O6 0.189956 0.732316 0.339991
O O7 0.633724 0.099287 0.164711
O O8 0.736565 0.227623 0.219628
O O9 0.021360 0.135991 0.341799
O O10 0.884574 0.580426 0.433089
O O11 0.791708 0.712588 0.382000
O O12 0.935935 0.682958 0.515693
O O13 0.500000 0.537193 0.750000
O O14 0.077928 0.524983 0.620553
O O15 0.265182 0.646342 0.684527
O O16 0.500000 0.201640 0.750000
#
# Coordination Sequence:
#
# PCOD9262101 Si02
#       8
#     8   4   8   8   8   8   8   8
#     4  10  19  33  54  82 101 144 181 218 276 321
#     4  12  20  34  54  78 118 144 178 224 270 328
#     4  10  20  34  52  80 113 145 173 224 271 318
#     4   9  20  32  53  85 111 142 177 219 273 322
#     4  10  19  34  53  79 112 140 178 227 268 321
#     4  10  21  33  57  81 108 141 182 226 270 317
#     4   9  17  33  55  78 108 139 181 220 264 325
#     4  10  19  32  53  82 113 141 177 221 275 322
#
# _framework density 19.341902000000001
#
# number of rings (size 3 to 8) (size 9 to 14) (size 15 to 20)
#    0.000    2.133    3.333    2.000    1.867    8.000 
#    0.000    0.000    1.467    0.800    0.000    0.000 
#    0.000    0.000    0.000    0.000    0.000    0.000 
#
# Total GULP energy -167290.918005 kJ/mol
# GULP energy per Si atom -5576.363933 kJ/mol
# Density = 1.929788 g / cm^3
# Si number density = 19.341902 Si / 1000 Ang^3
#
#
#
# Elastic Constant Matrix: (Units=GPa)
#
#
# Indices 1 2 3 4 5 6 
#
# 1 55.5334 2.1254 16.0005 0.0001 7.3788 0.0001
# 2 2.1254 26.0266 0.1316 0.0000 8.3831 0.0000
# 3 16.0005 0.1316 99.0527 0.0001 4.9240 0.0000
# 4 0.0001 0.0000 0.0001 15.8891 -0.0002 4.7216
# 5 7.3788 8.3831 4.9240 -0.0002 15.7959 0.0000
# 6 0.0001 0.0000 0.0000 4.7216 0.0000 4.9372
#
#
#
# Elastic Compliance Matrix: (Units=1/GPa)
#
#
# Indices 1 2 3 4 5 6 
#
# 1 0.019974 0.001339 -0.002772 0.000000 -0.009177 0.000000
# 2 0.001339 0.046570 0.000997 0.000000 -0.025652 0.000000
# 3 -0.002772 0.000997 0.010669 0.000000 -0.002560 0.000000
# 4 0.000000 0.000000 0.000000 0.087922 0.000002 -0.084084
# 5 -0.009177 -0.025652 -0.002560 0.000002 0.082006 -0.000001
# 6 0.000000 0.000000 0.000000 -0.084084 -0.000001 0.282959
#
#
# Mechanical properties :
#
#
# Convention : Reuss Voigt Hill
#
# Bulk Modulus (GPa) = 13.09911 24.12529 18.61220
# Shear Modulus (GPa) = 8.98600 18.14812 13.56706
#
# Velocity S-wave (km/s) = 2.15777 3.06646 2.65133
# Velocity P-wave (km/s) = 3.60486 5.00377 4.36078
#
# Compressibility (1/GPa) = 0.07634105
#
# Stress axis : x y z
#
# Youngs Moduli (GPa) = 50.06510 21.47290 93.72624
#
# Poissons Ratio (x) = -0.02875 0.25982
# Poissons Ratio (y) = -0.06702 -0.09345
# Poissons Ratio (z) = 0.13879 -0.02141
#
# Static dielectric constant tensor:
#      x y z
#    x 1.669180 0.000000 -0.009430 
#    y 0.000000 1.699130 0.000000 
#    z -0.009430 0.000000 1.723330 
# 
# From -- ./inp_files/311746.got.cif
#   From: 2010.05.17/outbox.cif.g08.bks.cpg/sg15_156_cif.got.tgz:311746.got - 2010.06.03 18:47:42.
