data_PCOD9262256
_publ_section_title
;
Structure prediction by ZEFSAII (Michael W. Deem and Ramdas Pophale) SiO2 
 PCOD9262256
Probable space group: C 2/C
;
_chemical_formula_sum "Si O2"
_cell_formula_units_Z 64
_cell_length_a 19.117277
_cell_length_b 18.217596
_cell_length_c 16.194276
_cell_angle_alpha 90.000000
_cell_angle_beta 31.656520
_cell_angle_gamma 90.000000
_cell_volume 2960.014582
_symmetry_space_group_name_H-M "C 2/C"
_symmetry_group_IT_number 15
_symmetry_cell_setting 'monoclinic'
loop_
_space_group_symop_operation_xyz
x,y,z
-x,y,1/2-z
-x,-y,-z
x,-y,1/2+z
1/2+x,1/2+y,z
1/2-x,1/2+y,1/2-z
1/2-x,1/2-y,-z
1/2+x,1/2-y,1/2+z
loop_
_atom_site_type_symbol
_atom_site_label
_atom_site_fract_x
_atom_site_fract_y
_atom_site_fract_z
Si Si1 0.084125 0.071785 0.018783
Si Si2 0.671012 0.982002 0.137485
Si Si3 0.935603 0.324927 0.207109
Si Si4 0.945270 0.685605 0.495205
Si Si5 0.188220 0.038476 0.282416
Si Si6 0.678556 0.739946 0.947938
Si Si7 0.253936 0.188903 0.296007
Si Si8 0.089774 0.467467 0.538432
O O1 0.174309 0.028499 0.995232
O O2 0.116053 0.158358 0.997191
O O3 0.142271 0.035385 0.876042
O O4 0.926279 0.057627 0.170033
O O5 0.607725 0.901546 0.212499
O O6 0.570732 0.024688 0.300102
O O7 0.643885 0.015325 0.075418
O O8 0.938604 0.326888 0.102375
O O9 0.821034 0.267917 0.345151
O O10 0.076622 0.294831 0.091414
O O11 0.862284 0.758035 0.554584
O O12 0.879370 0.614269 0.521312
O O13 0.099463 0.689740 0.310950
O O14 0.198295 0.107698 0.333762
O O15 0.332124 0.024264 0.098082
O O16 0.710766 0.774839 0.827359
#
# Coordination Sequence:
#
# PCOD9262256 Si02
#       8
#     8   8   8   8   8   8   8   8
#     4  10  21  36  56  87 117 150 192 243 293 349
#     4  10  22  37  55  80 117 156 200 238 280 342
#     4   9  17  31  55  84 113 148 186 233 283 340
#     4  10  20  35  60  88 116 148 191 240 295 345
#     4  11  21  34  59  88 118 148 191 243 297 345
#     4   9  16  29  51  78 112 140 177 225 280 339
#     4  10  19  32  56  89 118 145 184 240 293 345
#     4  11  22  37  58  83 115 158 197 236 283 344
#
# _framework density 21.621514000000001
#
# number of rings (size 3 to 8) (size 9 to 14) (size 15 to 20)
#    0.000    2.000    0.000    6.750    0.000    3.000 
#    0.000    0.000    0.000   60.750    0.000    0.000 
#    0.000    0.000    0.000    0.000    0.000    0.000 
#
# Total GULP energy -178585.395287 kJ/mol
# GULP energy per Si atom -5580.793603 kJ/mol
# Density = 2.157230 g / cm^3
# Si number density = 21.621514 Si / 1000 Ang^3
#
#
#
# Elastic Constant Matrix: (Units=GPa)
#
#
# Indices 1 2 3 4 5 6 
#
# 1 63.0303 11.5316 17.3612 -0.0003 -17.1337 0.0002
# 2 11.5316 92.0178 30.2840 -0.0003 -10.8943 0.0002
# 3 17.3612 30.2840 58.1387 -0.0003 -18.8430 0.0002
# 4 -0.0003 -0.0003 -0.0003 17.4352 0.0003 -7.2635
# 5 -17.1337 -10.8943 -18.8430 0.0003 28.8496 -0.0002
# 6 0.0002 0.0002 0.0002 -7.2635 -0.0002 29.1869
#
#
#
# Elastic Compliance Matrix: (Units=1/GPa)
#
#
# Indices 1 2 3 4 5 6 
#
# 1 0.019240 -0.000490 -0.002342 0.000000 0.009712 0.000000
# 2 -0.000490 0.013137 -0.006575 0.000000 0.000375 0.000000
# 3 -0.002342 -0.006575 0.025458 0.000000 0.012754 0.000000
# 4 0.000000 0.000000 0.000000 0.063989 0.000000 0.015924
# 5 0.009712 0.000375 0.012754 0.000000 0.048902 0.000000
# 6 0.000000 0.000000 0.000000 0.015924 0.000000 0.038225
#
#
# Mechanical properties :
#
#
# Convention : Reuss Voigt Hill
#
# Bulk Modulus (GPa) = 25.62798 36.83784 31.23291
# Shear Modulus (GPa) = 20.76632 25.36167 23.06400
#
# Velocity S-wave (km/s) = 3.10247 3.42860 3.26960
# Velocity P-wave (km/s) = 4.97117 5.72261 5.36007
#
# Compressibility (1/GPa) = 0.03901986
#
# Stress axis : x y z
#
# Youngs Moduli (GPa) = 51.97446 76.11941 39.28000
#
# Poissons Ratio (x) = 0.03733 0.09201
# Poissons Ratio (y) = 0.02549 0.25827
# Poissons Ratio (z) = 0.12175 0.50049
#
# Static dielectric constant tensor:
#      x y z
#    x 1.788840 0.000000 -0.021910 
#    y 0.000000 1.778260 0.000000 
#    z -0.021910 0.000000 1.825050 
# 
# From -- ./inp_files/216133.got.cif
#   From: 2010.05.17/outbox.cif.g08.bks.cpg/sg15_109_cif.got.tgz:216133.got - 2010.06.03 18:47:42.
