data_PCOD9262728
_publ_section_title
;
Structure prediction by ZEFSAII (Michael W. Deem and Ramdas Pophale) SiO2 
 PCOD9262728
Probable space group: C 2/C
;
_chemical_formula_sum "Si O2"
_cell_formula_units_Z 64
_cell_length_a 23.472591
_cell_length_b 13.872645
_cell_length_c 32.513861
_cell_angle_alpha 90.000000
_cell_angle_beta 18.885596
_cell_angle_gamma 90.000000
_cell_volume 3426.921297
_symmetry_space_group_name_H-M "C 2/C"
_symmetry_group_IT_number 15
_symmetry_cell_setting 'monoclinic'
loop_
_space_group_symop_operation_xyz
x,y,z
-x,y,1/2-z
-x,-y,-z
x,-y,1/2+z
1/2+x,1/2+y,z
1/2-x,1/2+y,1/2-z
1/2-x,1/2-y,-z
1/2+x,1/2-y,1/2+z
loop_
_atom_site_type_symbol
_atom_site_label
_atom_site_fract_x
_atom_site_fract_y
_atom_site_fract_z
Si Si1 0.503859 0.677425 0.149239
Si Si2 0.336233 0.879906 0.583917
Si Si3 0.427361 0.466835 0.432524
Si Si4 0.719325 0.905418 0.343587
Si Si5 0.706144 0.136770 0.482053
Si Si6 0.152422 0.400870 0.674408
Si Si7 0.303330 0.321872 0.374977
Si Si8 0.127621 0.570467 0.069377
O O1 0.298455 0.688801 0.300058
O O2 0.535979 0.579087 0.101866
O O3 0.584676 0.770288 0.072354
O O4 0.614176 0.659079 0.116013
O O5 0.544221 0.861135 0.443325
O O6 0.272706 0.883316 0.580430
O O7 0.312094 0.983142 0.622398
O O8 0.607039 0.407733 0.303149
O O9 0.332504 0.454967 0.541223
O O10 0.287524 0.428152 0.493569
O O11 0.751215 0.855243 0.365381
O O12 0.622262 0.040239 0.558509
O O13 0.185821 0.293348 0.634728
O O14 0.000000 0.447942 0.750000
O O15 0.056185 0.399308 0.783969
O O16 0.500000 0.359648 0.250000
O O17 0.179552 0.362515 0.495454
#
# Coordination Sequence:
#
# PCOD9262728 Si02
#       8
#     8   8   8   8   8   8   8   8
#     4   9  20  34  58  85 109 141 190 234 288 338
#     4  10  20  36  54  80 110 143 189 231 285 332
#     4   9  18  35  54  79 115 142 178 228 283 325
#     4  10  20  34  56  81 106 148 186 235 273 329
#     4  10  19  35  58  84 108 144 184 238 286 341
#     4   9  21  32  50  80 115 144 171 222 277 327
#     4  11  20  32  56  81 107 142 188 231 266 326
#     4  10  19  33  55  83 111 141 184 228 283 329
#
# _framework density 18.675654999999999
#
# number of rings (size 3 to 8) (size 9 to 14) (size 15 to 20)
#    0.000    2.250    2.500    0.375    1.750    2.500 
#    2.250    3.750    0.000    0.750    0.000    0.000 
#    0.000    0.000    0.000    0.000    0.000    0.000 
#
# Total GULP energy -178324.455932 kJ/mol
# GULP energy per Si atom -5572.639248 kJ/mol
# Density = 1.863315 g / cm^3
# Si number density = 18.675655 Si / 1000 Ang^3
#
#
#
# Elastic Constant Matrix: (Units=GPa)
#
#
# Indices 1 2 3 4 5 6 
#
# 1 20.1189 6.0577 31.0001 0.0155 15.2599 0.0114
# 2 6.0577 54.7982 47.7290 0.0341 6.5768 0.0325
# 3 31.0001 47.7290 163.6704 0.0281 27.9029 0.0468
# 4 0.0155 0.0341 0.0281 0.0737 -0.0109 -8.1888
# 5 15.2599 6.5768 27.9029 -0.0109 26.7787 -0.0101
# 6 0.0114 0.0325 0.0468 -8.1888 -0.0101 4.4623
#
#
#
# Elastic Compliance Matrix: (Units=1/GPa)
#
#
# Indices 1 2 3 4 5 6 
#
# 1 0.104144 0.005813 -0.013449 0.000280 -0.046760 0.000240
# 2 0.005813 0.024853 -0.008200 0.000109 -0.000872 0.000089
# 3 -0.013449 -0.008200 0.011429 0.000007 -0.002231 -0.000017
# 4 0.000280 0.000109 0.000007 -0.066870 -0.000267 -0.122718
# 5 -0.046760 -0.000872 -0.002231 -0.000267 0.066528 -0.000191
# 6 0.000240 0.000089 -0.000017 -0.122718 -0.000191 -0.001103
#
#
# Mechanical properties :
#
#
# Convention : Reuss Voigt Hill
#
# Bulk Modulus (GPa) = 9.19507 45.35121 27.27314
# Shear Modulus (GPa) = 24.16606 16.51632 20.34119
#
# Velocity S-wave (km/s) = 3.60111 2.97707 3.30386
# Velocity P-wave (km/s) = 4.71433 6.01279 5.40271
#
# Compressibility (1/GPa) = 0.10875389
#
# Stress axis : x y z
#
# Youngs Moduli (GPa) = 9.60212 40.23694 87.49935
#
# Poissons Ratio (x) = -0.23391 1.17677
# Poissons Ratio (y) = -0.05582 0.71748
# Poissons Ratio (z) = 0.12914 0.32994
#
# Static dielectric constant tensor:
#      x y z
#    x 1.647500 0.000010 -0.000930 
#    y 0.000010 1.644630 0.000020 
#    z -0.000930 0.000020 1.689940 
# 
# From -- ./inp_files/317986.got.cif
#   From: 2010.05.17/outbox.cif.g08.bks.cpg/sg15_159_cif.got.tgz:317986.got - 2010.06.03 18:47:42.
