data_PCOD9262663
_publ_section_title
;
Structure prediction by ZEFSAII (Michael W. Deem and Ramdas Pophale) SiO2 
 PCOD9262663
Probable space group: C 2/C
;
_chemical_formula_sum "Si O2"
_cell_formula_units_Z 48
_cell_length_a 23.347846
_cell_length_b 5.120710
_cell_length_c 22.134221
_cell_angle_alpha 90.000000
_cell_angle_beta 70.028142
_cell_angle_gamma 90.000000
_cell_volume 2487.165242
_symmetry_space_group_name_H-M "C 2/C"
_symmetry_group_IT_number 15
_symmetry_cell_setting 'monoclinic'
loop_
_space_group_symop_operation_xyz
x,y,z
-x,y,1/2-z
-x,-y,-z
x,-y,1/2+z
1/2+x,1/2+y,z
1/2-x,1/2+y,1/2-z
1/2-x,1/2-y,-z
1/2+x,1/2-y,1/2+z
loop_
_atom_site_type_symbol
_atom_site_label
_atom_site_fract_x
_atom_site_fract_y
_atom_site_fract_z
Si Si1 0.346766 0.110814 0.545440
Si Si2 0.206618 0.383569 0.196027
Si Si3 0.428857 0.423093 0.597867
Si Si4 0.455669 0.187959 0.978450
Si Si5 0.666334 0.381343 0.276871
Si Si6 0.231607 0.874912 0.443120
O O1 0.383203 0.194145 0.592532
O O2 0.309266 0.363252 0.536594
O O3 0.397765 0.988395 0.481871
O O4 0.303673 0.867799 0.574869
O O5 0.275158 0.402898 0.199394
O O6 0.168673 0.604212 0.243829
O O7 0.213751 0.435697 0.122384
O O8 0.178704 0.105563 0.223044
O O9 0.497706 0.323767 0.584739
O O10 0.433479 0.598099 0.535201
O O11 0.394961 0.568320 0.663666
O O12 0.500000 0.000000 0.000000
O O13 0.250000 0.750000 0.500000
#
# Coordination Sequence:
#
# PCOD9262663 Si02
#       6
#     8   8   8   8   8   8
#     4  11  20  36  55  79 117 148 186 241 284 336
#     4  10  21  33  49  78 108 153 187 218 279 338
#     4  10  19  33  54  86 118 148 177 227 297 359
#     4   9  19  31  55  82 120 141 182 225 293 362
#     4  10  20  31  54  75 115 147 175 225 284 347
#     4  12  24  38  57  79 115 158 204 237 277 334
#
# _framework density 19.299078000000002
#
# number of rings (size 3 to 8) (size 9 to 14) (size 15 to 20)
#    0.000    1.667    3.333    1.500    9.333    0.000 
#    0.000    0.000    0.000    0.000    0.000    1.167 
#   10.000    0.000    0.000    0.000    0.000    0.000 
#
# Total GULP energy -133830.816564 kJ/mol
# GULP energy per Si atom -5576.284023 kJ/mol
# Density = 1.925515 g / cm^3
# Si number density = 19.299078 Si / 1000 Ang^3
#
#
#
# Elastic Constant Matrix: (Units=GPa)
#
#
# Indices 1 2 3 4 5 6 
#
# 1 31.0170 20.2507 31.0534 0.0063 -16.3160 0.0113
# 2 20.2507 89.5993 4.1641 0.0053 -2.9382 0.0245
# 3 31.0534 4.1641 83.0199 -0.0022 -13.0789 0.0012
# 4 0.0063 0.0053 -0.0022 24.6727 0.0003 -11.4152
# 5 -16.3160 -2.9382 -13.0789 0.0003 20.0537 0.0068
# 6 0.0113 0.0245 0.0012 -11.4152 0.0068 33.3944
#
#
#
# Elastic Compliance Matrix: (Units=1/GPa)
#
#
# Indices 1 2 3 4 5 6 
#
# 1 0.113492 -0.021965 -0.030437 -0.000053 0.069270 -0.000053
# 2 -0.021965 0.015474 0.005552 0.000003 -0.011983 -0.000001
# 3 -0.030437 0.005552 0.021598 0.000014 -0.009865 0.000012
# 4 -0.000053 0.000003 0.000014 0.048145 -0.000040 0.016457
# 5 0.069270 -0.011983 -0.009865 -0.000040 0.098036 -0.000048
# 6 -0.000053 -0.000001 0.000012 0.016457 -0.000048 0.035571
#
#
# Mechanical properties :
#
#
# Convention : Reuss Voigt Hill
#
# Bulk Modulus (GPa) = 17.58567 34.95250 26.26909
# Shear Modulus (GPa) = 11.23670 25.50203 18.36936
#
# Velocity S-wave (km/s) = 2.41558 3.63907 3.08851
# Velocity P-wave (km/s) = 4.11242 5.98393 5.13417
#
# Compressibility (1/GPa) = 0.05686448
#
# Stress axis : x y z
#
# Youngs Moduli (GPa) = 8.81117 64.62383 46.30136
#
# Poissons Ratio (x) = 1.41945 1.40928
# Poissons Ratio (y) = 0.19353 -0.25706
# Poissons Ratio (z) = 0.26819 -0.35879
#
# Static dielectric constant tensor:
#      x y z
#    x 1.732610 -0.000050 -0.042740 
#    y -0.000050 1.759890 0.000030 
#    z -0.042740 0.000030 1.715110 
# 
# From -- ./inp_files/253828.got.cif
#   From: 2010.05.17/outbox.cif.g08.bks.cpg/sg15_127_cif.got.tgz:253828.got - 2010.06.03 18:47:42.
