data_PCOD9262806
_publ_section_title
;
Structure prediction by ZEFSAII (Michael W. Deem and Ramdas Pophale) SiO2 
 PCOD9262806
Probable space group: C 2/C
;
_chemical_formula_sum "Si O2"
_cell_formula_units_Z 56
_cell_length_a 28.939323
_cell_length_b 14.075985
_cell_length_c 21.547743
_cell_angle_alpha 90.000000
_cell_angle_beta 19.797382
_cell_angle_gamma 90.000000
_cell_volume 2972.881807
_symmetry_space_group_name_H-M "C 2/C"
_symmetry_group_IT_number 15
_symmetry_cell_setting 'monoclinic'
loop_
_space_group_symop_operation_xyz
x,y,z
-x,y,1/2-z
-x,-y,-z
x,-y,1/2+z
1/2+x,1/2+y,z
1/2-x,1/2+y,1/2-z
1/2-x,1/2-y,-z
1/2+x,1/2-y,1/2+z
loop_
_atom_site_type_symbol
_atom_site_label
_atom_site_fract_x
_atom_site_fract_y
_atom_site_fract_z
Si Si1 0.000000 0.632110 0.750000
Si Si2 0.000000 0.966218 0.750000
Si Si3 0.599601 0.204650 0.372946
Si Si4 0.265897 0.861196 0.459768
Si Si5 0.671128 0.889615 0.262635
Si Si6 0.677282 0.204751 0.414927
Si Si7 0.452483 0.604935 0.041770
Si Si8 0.676136 0.421764 0.928307
O O1 0.132487 0.588922 0.618587
O O2 0.071652 0.688014 0.603239
O O3 0.081969 0.032650 0.599224
O O4 0.114433 0.904559 0.641894
O O5 0.461668 0.146721 0.533599
O O6 0.627278 0.179698 0.409865
O O7 0.566844 0.315170 0.407363
O O8 0.731099 0.167760 0.170325
O O9 0.250000 0.750000 0.500000
O O10 0.334597 0.875101 0.304941
O O11 0.789285 0.815798 0.130507
O O12 0.714745 0.994912 0.224421
O O13 0.817832 0.145480 0.247828
O O14 0.410074 0.602670 0.023386
O O15 0.500000 0.500000 0.000000
#
# Coordination Sequence:
#
# PCOD9262806 Si02
#       8
#     4   4   8   8   8   8   8   8
#     4  12  21  32  54  87 134 162 196 233 296 375
#     4  10  25  40  60  87 122 166 208 259 304 363
#     4  10  20  38  56  82 113 154 201 251 301 357
#     4  11  21  32  54  87 126 164 195 233 300 365
#     4  10  19  33  56  83 118 156 192 237 288 373
#     4  10  21  32  54  86 121 159 192 234 298 368
#     4  10  22  38  59  82 114 152 200 256 302 360
#     4  10  22  38  59  83 111 154 206 247 308 360
#
# _framework density 18.836940999999999
#
# number of rings (size 3 to 8) (size 9 to 14) (size 15 to 20)
#    0.000    1.714    2.857    1.714    4.000    0.000 
#    0.000    0.714    0.000    0.857    0.000    0.000 
#    0.000    0.000    0.000    0.000    0.000    0.000 
#
# Total GULP energy -156061.561756 kJ/mol
# GULP energy per Si atom -5573.627206 kJ/mol
# Density = 1.879407 g / cm^3
# Si number density = 18.836941 Si / 1000 Ang^3
#
#
#
# Elastic Constant Matrix: (Units=GPa)
#
#
# Indices 1 2 3 4 5 6 
#
# 1 61.3060 17.3711 36.4156 0.0000 -5.9434 0.0000
# 2 17.3711 107.9337 64.0262 0.0000 -2.6600 0.0000
# 3 36.4156 64.0262 96.3959 0.0000 -11.9244 0.0000
# 4 0.0000 0.0000 0.0000 21.3037 0.0000 -8.2661
# 5 -5.9434 -2.6600 -11.9244 0.0000 26.1971 0.0000
# 6 0.0000 0.0000 0.0000 -8.2661 0.0000 28.1162
#
#
#
# Elastic Compliance Matrix: (Units=1/GPa)
#
#
# Indices 1 2 3 4 5 6 
#
# 1 0.021365 0.002163 -0.009411 0.000000 0.000783 0.000000
# 2 0.002163 0.015774 -0.011694 0.000000 -0.003230 0.000000
# 3 -0.009411 -0.011694 0.022555 0.000000 0.006944 0.000000
# 4 0.000000 0.000000 0.000000 0.052984 0.000000 0.015577
# 5 0.000783 -0.003230 0.006944 0.000000 0.041183 0.000000
# 6 0.000000 0.000000 0.000000 0.015577 0.000000 0.040146
#
#
# Mechanical properties :
#
#
# Convention : Reuss Voigt Hill
#
# Bulk Modulus (GPa) = 45.84897 55.69570 50.77234
# Shear Modulus (GPa) = 20.90645 24.97827 22.94236
#
# Velocity S-wave (km/s) = 3.33508 3.64541 3.49369
# Velocity P-wave (km/s) = 6.26283 6.88115 6.57926
#
# Compressibility (1/GPa) = 0.02181074
#
# Stress axis : x y z
#
# Youngs Moduli (GPa) = 46.80630 63.39540 44.33553
#
# Poissons Ratio (x) = -0.13715 0.41724
# Poissons Ratio (y) = -0.10126 0.51846
# Poissons Ratio (z) = 0.44050 0.74135
#
# Static dielectric constant tensor:
#      x y z
#    x 1.698490 0.000000 -0.027870 
#    y 0.000000 1.646150 0.000000 
#    z -0.027870 0.000000 1.720990 
# 
# From -- ./inp_files/280000.got.cif
#   From: 2010.05.17/outbox.cif.g08.bks.cpg/sg15_140_cif.got.tgz:280000.got - 2010.06.03 18:47:42.
