data_PCOD9262589
_publ_section_title
;
Structure prediction by ZEFSAII (Michael W. Deem and Ramdas Pophale) SiO2 
 PCOD9262589
Probable space group: C 2/C
;
_chemical_formula_sum "Si O2"
_cell_formula_units_Z 60
_cell_length_a 5.225936
_cell_length_b 18.517945
_cell_length_c 24.389297
_cell_angle_alpha 90.000000
_cell_angle_beta 95.948238
_cell_angle_gamma 90.000000
_cell_volume 2347.532245
_symmetry_space_group_name_H-M "C 2/C"
_symmetry_group_IT_number 15
_symmetry_cell_setting 'monoclinic'
loop_
_space_group_symop_operation_xyz
x,y,z
-x,y,1/2-z
-x,-y,-z
x,-y,1/2+z
1/2+x,1/2+y,z
1/2-x,1/2+y,1/2-z
1/2-x,1/2-y,-z
1/2+x,1/2-y,1/2+z
loop_
_atom_site_type_symbol
_atom_site_label
_atom_site_fract_x
_atom_site_fract_y
_atom_site_fract_z
Si Si1 0.189572 0.511316 0.365967
Si Si2 0.678456 0.571192 0.346611
Si Si3 0.500000 0.824327 0.250000
Si Si4 0.362637 0.574882 0.481535
Si Si5 0.655054 0.197046 0.204463
Si Si6 0.145437 0.363291 0.532168
Si Si7 0.974619 0.641664 0.873412
Si Si8 0.493784 0.730242 0.903330
O O1 0.455548 0.512089 0.338960
O O2 0.270843 0.565006 0.416847
O O3 0.091691 0.436762 0.388875
O O4 0.945323 0.541576 0.329057
O O5 0.622294 0.645125 0.313872
O O6 0.760146 0.594465 0.410547
O O7 0.268003 0.771118 0.229678
O O8 0.565659 0.862337 0.193868
O O9 0.500000 0.500000 0.500000
O O10 0.584331 0.634978 0.494376
O O11 0.087465 0.593606 0.501594
O O12 0.500000 0.162604 0.250000
O O13 0.477227 0.216682 0.148852
O O14 0.026534 0.286409 0.546640
O O15 0.209164 0.696392 0.890890
O O16 0.719824 0.671829 0.898254
#
# Coordination Sequence:
#
# PCOD9262589 Si02
#       8
#     8   8   4   8   8   8   8   8
#     4  10  21  38  53  79 109 147 182 217 280 352
#     4   9  20  34  54  74 106 139 174 224 276 321
#     4  10  22  34  52  80 104 140 188 234 270 318
#     4  10  19  34  59  84 110 143 180 231 284 339
#     4  10  19  33  54  78 108 130 186 236 278 316
#     4   9  18  33  55  84 110 132 181 230 271 326
#     4  11  21  36  56  74 110 148 187 220 272 341
#     4  10  20  34  57  81 104 150 182 228 276 317
#
# _framework density 25.558755999999999
#
# number of rings (size 3 to 8) (size 9 to 14) (size 15 to 20)
#    0.000    2.133    1.333    2.000    1.867    3.200 
#    1.200    0.000    0.000    4.800    0.000    0.000 
#    0.000    0.000    0.000    0.000    0.000    0.000 
#
# Total GULP energy -167502.438240 kJ/mol
# GULP energy per Si atom -5583.414608 kJ/mol
# Density = 2.550058 g / cm^3
# Si number density = 25.558756 Si / 1000 Ang^3
#
#
#
# Elastic Constant Matrix: (Units=GPa)
#
#
# Indices 1 2 3 4 5 6 
#
# 1 176.3573 41.3859 18.1236 0.0000 9.1596 0.0000
# 2 41.3859 89.0618 13.3036 0.0000 8.1205 0.0000
# 3 18.1236 13.3036 59.4685 0.0000 4.2664 0.0000
# 4 0.0000 0.0000 0.0000 -37.5337 0.0000 -8.6456
# 5 9.1596 8.1205 4.2664 0.0000 15.6897 0.0000
# 6 0.0000 0.0000 0.0000 -8.6456 0.0000 34.5849
#
#
#
# Elastic Compliance Matrix: (Units=1/GPa)
#
#
# Indices 1 2 3 4 5 6 
#
# 1 0.006531 -0.002657 -0.001245 0.000000 -0.002099 0.000000
# 2 -0.002657 0.013166 -0.001793 0.000000 -0.004775 0.000000
# 3 -0.001245 -0.001793 0.017825 0.000000 -0.003192 0.000000
# 4 0.000000 0.000000 0.000000 -0.025192 0.000000 -0.006298
# 5 -0.002099 -0.004775 -0.003192 0.000000 0.068301 0.000000
# 6 0.000000 0.000000 0.000000 -0.006298 0.000000 0.027340
#
#
# Mechanical properties :
#
#
# Convention : Reuss Voigt Hill
#
# Bulk Modulus (GPa) = 38.26857 52.27931 45.27394
# Shear Modulus (GPa) = 39.04022 19.35315 29.19668
#
# Velocity S-wave (km/s) = 3.91253 2.75472 3.38351
# Velocity P-wave (km/s) = 5.95111 5.53326 5.74598
#
# Compressibility (1/GPa) = 0.02613110
#
# Stress axis : x y z
#
# Youngs Moduli (GPa) = 153.11800 75.95156 56.10017
#
# Poissons Ratio (x) = 0.20184 0.06986
# Poissons Ratio (y) = 0.40691 0.10058
# Poissons Ratio (z) = 0.19068 0.13617
#
# Static dielectric constant tensor:
#      x y z
#    x 2.050770 0.000000 -0.095500 
#    y 0.000000 2.051330 0.000000 
#    z -0.095500 0.000000 2.058080 
# 
# From -- ./inp_files/305697.got.cif
#   From: 2010.05.17/outbox.cif.g08.bks.cpg/sg15_153_cif.got.tgz:305697.got - 2010.06.03 18:47:42.
