data_PCOD9262583
_publ_section_title
;
Structure prediction by ZEFSAII (Michael W. Deem and Ramdas Pophale) SiO2 
 PCOD9262583
Probable space group: C 2/C
;
_chemical_formula_sum "Si O2"
_cell_formula_units_Z 40
_cell_length_a 7.685927
_cell_length_b 31.795124
_cell_length_c 11.012415
_cell_angle_alpha 90.000000
_cell_angle_beta 133.672543
_cell_angle_gamma 90.000000
_cell_volume 1946.510265
_symmetry_space_group_name_H-M "C 2/C"
_symmetry_group_IT_number 15
_symmetry_cell_setting 'monoclinic'
loop_
_space_group_symop_operation_xyz
x,y,z
-x,y,1/2-z
-x,-y,-z
x,-y,1/2+z
1/2+x,1/2+y,z
1/2-x,1/2+y,1/2-z
1/2-x,1/2-y,-z
1/2+x,1/2-y,1/2+z
loop_
_atom_site_type_symbol
_atom_site_label
_atom_site_fract_x
_atom_site_fract_y
_atom_site_fract_z
Si Si1 0.855788 0.196611 0.805164
Si Si2 0.520160 0.952942 0.561229
Si Si3 0.000159 0.775155 0.878319
Si Si4 0.900359 0.047314 0.440851
Si Si5 0.282999 0.603991 0.747158
O O1 0.696294 0.238384 0.721960
O O2 0.719966 0.152184 0.744584
O O3 0.000000 0.196346 0.750000
O O4 0.015377 0.199534 0.004267
O O5 0.315606 0.948851 0.565930
O O6 0.775565 0.946076 0.750126
O O7 0.439556 0.920953 0.417721
O O8 0.500000 0.000000 0.500000
O O9 0.000000 0.799604 0.750000
O O10 0.250000 0.750000 0.000000
O O11 0.104909 0.079489 0.583939
O O12 0.000000 0.000000 0.500000
O O13 0.500000 0.604059 0.750000
#
# Coordination Sequence:
#
# PCOD9262583 Si02
#       5
#     8   8   8   8   8
#     4  10  19  36  61  86 109 145 195 238 279 347
#     4  10  19  33  54  77 107 148 185 226 283 329
#     4   9  19  37  58  79 115 150 175 225 299 350
#     4  10  19  33  54  77 108 146 187 228 278 333
#     4   9  19  35  54  80 113 141 183 242 281 322
#
# _framework density 20.549598
#
# number of rings (size 3 to 8) (size 9 to 14) (size 15 to 20)
#    0.000    2.400    2.000    0.600    0.000    0.000 
#    7.200    6.000    0.000    0.000    0.000    0.000 
#    0.000    0.000    0.000    0.000    0.000    0.000 
#
# Total GULP energy -111531.121553 kJ/mol
# GULP energy per Si atom -5576.556078 kJ/mol
# Density = 2.050283 g / cm^3
# Si number density = 20.549598 Si / 1000 Ang^3
#
#
#
# Elastic Constant Matrix: (Units=GPa)
#
#
# Indices 1 2 3 4 5 6 
#
# 1 56.0448 9.8038 32.6105 0.0000 -19.3212 0.0000
# 2 9.8038 106.8034 61.2289 0.0000 -21.8922 0.0000
# 3 32.6105 61.2289 184.4948 0.0000 -34.1464 0.0000
# 4 0.0000 0.0000 0.0000 20.4372 0.0000 13.2637
# 5 -19.3212 -21.8922 -34.1464 0.0000 27.6766 0.0000
# 6 0.0000 0.0000 0.0000 13.2637 0.0000 5.1642
#
#
#
# Elastic Compliance Matrix: (Units=1/GPa)
#
#
# Indices 1 2 3 4 5 6 
#
# 1 0.024209 0.002260 -0.002035 0.000000 0.016177 0.000000
# 2 0.002260 0.012517 -0.003148 0.000000 0.007595 0.000000
# 3 -0.002035 -0.003148 0.007906 0.000000 0.005844 0.000000
# 4 0.000000 0.000000 0.000000 -0.073370 0.000000 0.188444
# 5 0.016177 0.007595 0.005844 0.000000 0.060643 0.000000
# 6 0.000000 0.000000 0.000000 0.188444 0.000000 -0.290360
#
#
# Mechanical properties :
#
#
# Convention : Reuss Voigt Hill
#
# Bulk Modulus (GPa) = 25.78191 61.62552 43.70371
# Shear Modulus (GPa) = -20.86104 26.90224 3.02060
#
# Velocity S-wave (km/s) = -3.18961 3.62213 1.21371
# Velocity P-wave (km/s) = 0.99568 6.89542 4.82470
#
# Compressibility (1/GPa) = 0.03878688
#
# Stress axis : x y z
#
# Youngs Moduli (GPa) = 41.30748 79.89143 126.48356
#
# Poissons Ratio (x) = -0.18059 0.25741
# Poissons Ratio (y) = -0.09338 0.39815
# Poissons Ratio (z) = 0.08406 0.25149
#
# Static dielectric constant tensor:
#      x y z
#    x 1.800870 0.000000 -0.025580 
#    y 0.000000 1.485320 0.000000 
#    z -0.025580 0.000000 1.776080 
# 
# From -- ./inp_files/24517.got.cif
#   From: 2010.05.17/outbox.cif.g08.bks.cpg/sg15_13_cif.got.tgz:24517.got - 2010.06.03 18:47:42.
