data_PCOD9262996
_publ_section_title
;
Structure prediction by ZEFSAII (Michael W. Deem and Ramdas Pophale) SiO2 
 PCOD9262996
Probable space group: C 2/C
;
_chemical_formula_sum "Si O2"
_cell_formula_units_Z 24
_cell_length_a 13.279456
_cell_length_b 7.686164
_cell_length_c 13.915143
_cell_angle_alpha 90.000000
_cell_angle_beta 141.217733
_cell_angle_gamma 90.000000
_cell_volume 889.617683
_symmetry_space_group_name_H-M "C 2/C"
_symmetry_group_IT_number 15
_symmetry_cell_setting 'monoclinic'
loop_
_space_group_symop_operation_xyz
x,y,z
-x,y,1/2-z
-x,-y,-z
x,-y,1/2+z
1/2+x,1/2+y,z
1/2-x,1/2+y,1/2-z
1/2-x,1/2-y,-z
1/2+x,1/2-y,1/2+z
loop_
_atom_site_type_symbol
_atom_site_label
_atom_site_fract_x
_atom_site_fract_y
_atom_site_fract_z
Si Si1 0.013151 0.771261 0.471231
Si Si2 0.946552 0.417029 0.101237
Si Si3 0.665918 0.378783 0.321317
O O1 0.969236 0.584074 0.387758
O O2 0.199781 0.773793 0.579360
O O3 0.990147 0.743714 0.566241
O O4 0.891118 0.903137 0.331098
O O5 0.000000 0.400597 0.250000
O O6 0.758819 0.463255 0.941617
O O7 0.500000 0.336297 0.250000
#
# Coordination Sequence:
#
# PCOD9262996 Si02
#       3
#     8   8   8
#     4   9  20  35  54  83 111 138 179 228 268 311
#     4   9  20  37  55  77 115 142 175 224 275 311
#     4  10  19  33  59  85 103 142 186 222 261 323
#
# _framework density 26.977879999999999
#
# number of rings (size 3 to 8) (size 9 to 14) (size 15 to 20)
#    2.000    0.667    0.000    2.000    4.667    0.000 
#    0.000    8.333    0.000    0.000    0.000    2.333 
#    0.000    0.000    0.000    0.000    0.000    0.000 
#
# Total GULP energy -67003.697174 kJ/mol
# GULP energy per Si atom -5583.641431 kJ/mol
# Density = 2.691648 g / cm^3
# Si number density = 26.977880 Si / 1000 Ang^3
#
#
#
# Elastic Constant Matrix: (Units=GPa)
#
#
# Indices 1 2 3 4 5 6 
#
# 1 151.6060 27.8761 112.5883 0.0000 -24.9962 0.0000
# 2 27.8761 81.6447 63.8905 0.0000 -18.3763 0.0000
# 3 112.5883 63.8905 251.3351 0.0000 -10.5603 0.0000
# 4 0.0000 0.0000 0.0000 4.4151 0.0000 10.9833
# 5 -24.9962 -18.3763 -10.5603 0.0000 63.8138 0.0000
# 6 0.0000 0.0000 0.0000 10.9833 0.0000 13.2901
#
#
#
# Elastic Compliance Matrix: (Units=1/GPa)
#
#
# Indices 1 2 3 4 5 6 
#
# 1 0.010621 0.000995 -0.004858 0.000000 0.003643 0.000000
# 2 0.000995 0.016349 -0.004418 0.000000 0.004366 0.000000
# 3 -0.004858 -0.004418 0.007195 0.000000 -0.001985 0.000000
# 4 0.000000 0.000000 0.000000 -0.214509 0.000000 0.177277
# 5 0.003643 0.004366 -0.001985 0.000000 0.018027 0.000000
# 6 0.000000 0.000000 0.000000 0.177277 0.000000 -0.071263
#
#
# Mechanical properties :
#
#
# Convention : Reuss Voigt Hill
#
# Bulk Modulus (GPa) = 56.80980 99.25507 78.03244
# Shear Modulus (GPa) = -23.67972 34.98585 5.65306
#
# Velocity S-wave (km/s) = -2.96589 3.60507 1.44914
# Velocity P-wave (km/s) = 3.06185 7.36205 5.63803
#
# Compressibility (1/GPa) = 0.01760260
#
# Stress axis : x y z
#
# Youngs Moduli (GPa) = 94.15013 61.16711 138.99357
#
# Poissons Ratio (x) = -0.06086 0.67520
# Poissons Ratio (y) = -0.09367 0.61409
# Poissons Ratio (z) = 0.45736 0.27024
#
# Static dielectric constant tensor:
#      x y z
#    x 2.130340 0.000000 -0.067630 
#    y 0.000000 2.144880 0.000000 
#    z -0.067630 0.000000 2.136840 
# 
# From -- ./inp_files/27053.got.cif
#   From: 2010.05.17/outbox.cif.g08.bks.cpg/sg15_14_cif.got.tgz:27053.got - 2010.06.03 18:47:42.
