data_PCOD9262418
_publ_section_title
;
Structure prediction by ZEFSAII (Michael W. Deem and Ramdas Pophale) SiO2 
 PCOD9262418
Probable space group: C 2/C
;
_chemical_formula_sum "Si O2"
_cell_formula_units_Z 28
_cell_length_a 10.189039
_cell_length_b 21.895813
_cell_length_c 9.702199
_cell_angle_alpha 90.000000
_cell_angle_beta 151.604722
_cell_angle_gamma 90.000000
_cell_volume 1029.348005
_symmetry_space_group_name_H-M "C 2/C"
_symmetry_group_IT_number 15
_symmetry_cell_setting 'monoclinic'
loop_
_space_group_symop_operation_xyz
x,y,z
-x,y,1/2-z
-x,-y,-z
x,-y,1/2+z
1/2+x,1/2+y,z
1/2-x,1/2+y,1/2-z
1/2-x,1/2-y,-z
1/2+x,1/2-y,1/2+z
loop_
_atom_site_type_symbol
_atom_site_label
_atom_site_fract_x
_atom_site_fract_y
_atom_site_fract_z
Si Si1 0.217753 0.081307 0.767284
Si Si2 0.986560 0.205887 0.925344
Si Si3 0.734973 0.549998 0.356414
Si Si4 0.000000 0.204577 0.250000
O O1 0.159941 0.147078 0.779075
O O2 0.924133 0.060678 0.433662
O O3 0.296997 0.022229 0.931389
O O4 0.470527 0.083619 0.888763
O O5 0.284239 0.238131 0.197659
O O6 0.002834 0.178497 0.098658
O O7 0.500000 0.567312 0.250000
O O8 0.250000 0.250000 0.500000
#
# Coordination Sequence:
#
# PCOD9262418 Si02
#       4
#     8   8   8   4
#     4  10  21  36  58  81 107 146 184 221 277 328
#     4  10  19  33  51  76 109 143 176 217 269 328
#     4  10  21  38  56  81 108 141 187 232 271 315
#     4   8  16  28  42  66 100 134 170 200 248 316
#
# _framework density 27.201682999999999
#
# number of rings (size 3 to 8) (size 9 to 14) (size 15 to 20)
#    0.000    2.286    0.000    2.571    2.000    0.000 
#   15.429    0.000    0.000    1.714    0.000    0.000 
#    0.000    0.000    0.000    0.000    0.000    0.000 
#
# Total GULP energy -77942.450069 kJ/mol
# GULP energy per Si atom -5567.317862 kJ/mol
# Density = 2.713977 g / cm^3
# Si number density = 27.201683 Si / 1000 Ang^3
#
#
#
# Elastic Constant Matrix: (Units=GPa)
#
#
# Indices 1 2 3 4 5 6 
#
# 1 109.2725 13.3167 26.4301 0.0001 20.7475 0.0000
# 2 13.3167 143.7845 31.1927 -0.0001 6.5357 0.0000
# 3 26.4301 31.1927 201.3766 0.0002 40.5590 0.0001
# 4 0.0001 -0.0001 0.0002 33.6155 0.0002 4.6498
# 5 20.7475 6.5357 40.5590 0.0002 31.2580 0.0001
# 6 0.0000 0.0000 0.0001 4.6498 0.0001 1.8472
#
#
#
# Elastic Compliance Matrix: (Units=1/GPa)
#
#
# Indices 1 2 3 4 5 6 
#
# 1 0.010536 -0.000687 0.000140 0.000000 -0.007031 0.000000
# 2 -0.000687 0.007242 -0.001108 0.000000 0.000379 0.000000
# 3 0.000140 -0.001108 0.006892 0.000000 -0.008804 0.000000
# 4 0.000000 0.000000 0.000000 0.045639 0.000000 -0.114883
# 5 -0.007031 0.000379 -0.008804 0.000000 0.048003 -0.000001
# 6 0.000000 0.000000 0.000000 -0.114883 -0.000001 0.830541
#
#
# Mechanical properties :
#
#
# Convention : Reuss Voigt Hill
#
# Bulk Modulus (GPa) = 46.81550 66.25697 56.53623
# Shear Modulus (GPa) = 5.21223 38.91043 22.06133
#
# Velocity S-wave (km/s) = 1.38575 3.78622 2.85095
# Velocity P-wave (km/s) = 4.45065 6.59731 5.62729
#
# Compressibility (1/GPa) = 0.02136045
#
# Stress axis : x y z
#
# Youngs Moduli (GPa) = 94.90990 138.09174 145.08817
#
# Poissons Ratio (x) = 0.09480 -0.02025
# Poissons Ratio (y) = 0.06516 0.16075
# Poissons Ratio (z) = -0.01325 0.15300
#
# Static dielectric constant tensor:
#      x y z
#    x 2.460140 0.000000 -0.062440 
#    y 0.000000 1.172470 0.000000 
#    z -0.062440 0.000000 2.028670 
# 
# From -- ./inp_files/156561.got.cif
#   From: 2010.05.17/outbox.cif.g08.bks.cpg/sg15_79_cif.got.tgz:156561.got - 2010.06.03 18:47:42.
