data_PCOD9262584
_publ_section_title
;
Structure prediction by ZEFSAII (Michael W. Deem and Ramdas Pophale) SiO2 
 PCOD9262584
Probable space group: C 2/C
;
_chemical_formula_sum "Si O2"
_cell_formula_units_Z 40
_cell_length_a 21.567341
_cell_length_b 7.799010
_cell_length_c 10.112652
_cell_angle_alpha 90.000000
_cell_angle_beta 108.397397
_cell_angle_gamma 90.000000
_cell_volume 1614.050709
_symmetry_space_group_name_H-M "C 2/C"
_symmetry_group_IT_number 15
_symmetry_cell_setting 'monoclinic'
loop_
_space_group_symop_operation_xyz
x,y,z
-x,y,1/2-z
-x,-y,-z
x,-y,1/2+z
1/2+x,1/2+y,z
1/2-x,1/2+y,1/2-z
1/2-x,1/2-y,-z
1/2+x,1/2-y,1/2+z
loop_
_atom_site_type_symbol
_atom_site_label
_atom_site_fract_x
_atom_site_fract_y
_atom_site_fract_z
Si Si1 0.686319 0.204418 0.808054
Si Si2 0.958130 0.787525 0.343386
Si Si3 0.317279 0.300305 0.238386
Si Si4 0.455729 0.299831 0.840130
Si Si5 0.207583 0.998918 0.534018
O O1 0.745337 0.251868 0.744740
O O2 0.614460 0.209411 0.702598
O O3 0.714867 0.025924 0.886602
O O4 0.687613 0.335292 0.931399
O O5 0.886005 0.707649 0.306457
O O6 0.000000 0.719249 0.250000
O O7 0.002256 0.772144 0.501251
O O8 0.947933 0.993690 0.313116
O O9 0.325978 0.462675 0.348419
O O10 0.311289 0.352125 0.080853
O O11 0.500000 0.235050 0.750000
#
# Coordination Sequence:
#
# PCOD9262584 Si02
#       5
#     8   8   8   8   8
#     4   9  19  34  57  76 110 150 187 214 273 336
#     4  10  21  30  51  82 115 135 169 232 282 322
#     4  10  19  34  55  80 109 145 183 226 266 328
#     4  10  19  33  54  77 108 145 176 216 276 338
#     4   9  19  33  55  77 111 142 191 217 266 324
#
# _framework density 24.782367000000001
#
# number of rings (size 3 to 8) (size 9 to 14) (size 15 to 20)
#    1.200    1.200    2.000    1.200    5.600    0.000 
#    0.000    4.000    0.000    1.200    0.000    0.000 
#    0.000    0.000    0.000    0.000    0.000    0.000 
#
# Total GULP energy -111562.872320 kJ/mol
# GULP energy per Si atom -5578.143616 kJ/mol
# Density = 2.472596 g / cm^3
# Si number density = 24.782367 Si / 1000 Ang^3
#
#
#
# Elastic Constant Matrix: (Units=GPa)
#
#
# Indices 1 2 3 4 5 6 
#
# 1 207.3340 19.7258 86.8765 0.0000 26.3541 0.0000
# 2 19.7258 46.6388 13.7351 0.0000 13.7081 0.0000
# 3 86.8765 13.7351 103.6158 0.0000 21.3879 0.0000
# 4 0.0000 0.0000 0.0000 39.9119 0.0000 17.6369
# 5 26.3541 13.7081 21.3879 0.0000 56.4761 0.0000
# 6 0.0000 0.0000 0.0000 17.6369 0.0000 21.5193
#
#
#
# Elastic Compliance Matrix: (Units=1/GPa)
#
#
# Indices 1 2 3 4 5 6 
#
# 1 0.007567 -0.001147 -0.005989 0.000000 -0.000984 0.000000
# 2 -0.001147 0.023677 -0.001194 0.000000 -0.004759 0.000000
# 3 -0.005989 -0.001194 0.015398 0.000000 -0.002747 0.000000
# 4 0.000000 0.000000 0.000000 0.039282 0.000000 -0.032195
# 5 -0.000984 -0.004759 -0.002747 0.000000 0.020361 0.000000
# 6 0.000000 0.000000 0.000000 -0.032195 0.000000 0.072857
#
#
# Mechanical properties :
#
#
# Convention : Reuss Voigt Hill
#
# Bulk Modulus (GPa) = 33.35489 66.47369 49.91429
# Shear Modulus (GPa) = 24.29575 39.39820 31.84697
#
# Velocity S-wave (km/s) = 3.13447 3.99151 3.58867
# Velocity P-wave (km/s) = 5.15638 6.93716 6.11197
#
# Compressibility (1/GPa) = 0.02998061
#
# Stress axis : x y z
#
# Youngs Moduli (GPa) = 132.15232 42.23469 64.94356
#
# Poissons Ratio (x) = 0.04845 0.38896
# Poissons Ratio (y) = 0.15161 0.07756
# Poissons Ratio (z) = 0.79150 0.05044
#
# Static dielectric constant tensor:
#      x y z
#    x 1.939850 0.000000 0.013620 
#    y 0.000000 2.230360 0.000000 
#    z 0.013620 0.000000 1.933190 
# 
# From -- ./inp_files/104628.got.cif
#   From: 2010.05.17/outbox.cif.g08.bks.cpg/sg15_53_cif.got.tgz:104628.got - 2010.06.03 18:47:42.
