data_PCOD9262565
_publ_section_title
;
Structure prediction by ZEFSAII (Michael W. Deem and Ramdas Pophale) SiO2 
 PCOD9262565
Probable space group: C 2/C
;
_chemical_formula_sum "Si O2"
_cell_formula_units_Z 48
_cell_length_a 32.181757
_cell_length_b 8.472249
_cell_length_c 19.390778
_cell_angle_alpha 90.000000
_cell_angle_beta 25.924433
_cell_angle_gamma 90.000000
_cell_volume 2311.369083
_symmetry_space_group_name_H-M "C 2/C"
_symmetry_group_IT_number 15
_symmetry_cell_setting 'monoclinic'
loop_
_space_group_symop_operation_xyz
x,y,z
-x,y,1/2-z
-x,-y,-z
x,-y,1/2+z
1/2+x,1/2+y,z
1/2-x,1/2+y,1/2-z
1/2-x,1/2-y,-z
1/2+x,1/2-y,1/2+z
loop_
_atom_site_type_symbol
_atom_site_label
_atom_site_fract_x
_atom_site_fract_y
_atom_site_fract_z
Si Si1 0.078993 0.105250 0.844483
Si Si2 0.714832 0.783771 0.746656
Si Si3 0.736924 0.361566 0.585157
Si Si4 0.654798 0.061354 0.763715
Si Si5 0.143515 0.508058 0.478029
Si Si6 0.985025 0.586485 0.126523
O O1 0.129509 0.202248 0.830970
O O2 0.038072 0.229716 0.850658
O O3 0.159880 0.998311 0.688932
O O4 0.000000 0.000000 0.000000
O O5 0.796597 0.652549 0.627800
O O6 0.680637 0.854625 0.870388
O O7 0.734909 0.938964 0.669643
O O8 0.750000 0.250000 0.500000
O O9 0.689137 0.238671 0.709650
O O10 0.826737 0.436782 0.490148
O O11 0.607549 0.006573 0.762215
O O12 0.569680 0.051023 0.945614
O O13 0.034803 0.468603 0.622077
#
# Coordination Sequence:
#
# PCOD9262565 Si02
#       6
#     8   8   8   8   8   8
#     4  10  19  34  59  89 111 150 196 246 300 353
#     4   9  19  30  55  88 115 141 192 253 300 335
#     4  11  23  38  56  83 122 164 191 233 305 372
#     4   9  17  34  55  81 113 148 187 242 301 350
#     4  10  19  33  53  87 117 149 194 250 297 341
#     4   9  17  32  58  86 107 140 196 254 288 329
#
# _framework density 20.766912999999999
#
# number of rings (size 3 to 8) (size 9 to 14) (size 15 to 20)
#    0.000    2.333    1.667    3.000    2.333    0.000 
#    0.000    8.333    0.000    0.000    0.000    0.000 
#    0.000    0.000    0.000    0.000    0.000    0.000 
#
# Total GULP energy -133805.559298 kJ/mol
# GULP energy per Si atom -5575.231637 kJ/mol
# Density = 2.071965 g / cm^3
# Si number density = 20.766913 Si / 1000 Ang^3
#
#
#
# Elastic Constant Matrix: (Units=GPa)
#
#
# Indices 1 2 3 4 5 6 
#
# 1 129.2331 41.5919 43.2984 -0.0001 -12.5938 0.0000
# 2 41.5919 117.3971 29.2867 -0.0015 -12.2287 0.0002
# 3 43.2984 29.2867 41.4183 -0.0009 -9.1959 0.0001
# 4 -0.0001 -0.0015 -0.0009 16.2493 0.0002 -0.3931
# 5 -12.5938 -12.2287 -9.1959 0.0002 23.9315 0.0000
# 6 0.0000 0.0002 0.0001 -0.3931 0.0000 35.9477
#
#
#
# Elastic Compliance Matrix: (Units=1/GPa)
#
#
# Indices 1 2 3 4 5 6 
#
# 1 0.012125 -0.001299 -0.011466 -0.000001 0.001311 0.000000
# 2 -0.001299 0.010644 -0.005590 0.000001 0.002608 0.000000
# 3 -0.011466 -0.005590 0.041664 0.000002 0.007119 0.000000
# 4 -0.000001 0.000001 0.000002 0.061558 0.000000 0.000673
# 5 0.001311 0.002608 0.007119 0.000000 0.046544 0.000000
# 6 0.000000 0.000000 0.000000 0.000673 0.000000 0.027826
#
#
# Mechanical properties :
#
#
# Convention : Reuss Voigt Hill
#
# Bulk Modulus (GPa) = 36.07005 57.37804 46.72404
# Shear Modulus (GPa) = 20.29941 26.81711 23.55826
#
# Velocity S-wave (km/s) = 3.12987 3.59742 3.37176
# Velocity P-wave (km/s) = 5.51980 6.70408 6.14056
#
# Compressibility (1/GPa) = 0.02772383
#
# Stress axis : x y z
#
# Youngs Moduli (GPa) = 82.47122 93.94651 24.00146
#
# Poissons Ratio (x) = 0.12202 0.27521
# Poissons Ratio (y) = 0.10711 0.13417
# Poissons Ratio (z) = 0.94565 0.52515
#
# Static dielectric constant tensor:
#      x y z
#    x 1.824930 0.000000 0.005250 
#    y 0.000000 1.784170 0.000000 
#    z 0.005250 0.000000 1.749740 
# 
# From -- ./inp_files/214096.got.cif
#   From: 2010.05.17/outbox.cif.g08.bks.cpg/sg15_108_cif.got.tgz:214096.got - 2010.06.03 18:47:42.
