data_PCOD9262344
_publ_section_title
;
Structure prediction by ZEFSAII (Michael W. Deem and Ramdas Pophale) SiO2 
 PCOD9262344
Probable space group: C 2/C
;
_chemical_formula_sum "Si O2"
_cell_formula_units_Z 40
_cell_length_a 11.932170
_cell_length_b 15.727770
_cell_length_c 9.943484
_cell_angle_alpha 90.000000
_cell_angle_beta 70.780001
_cell_angle_gamma 90.000000
_cell_volume 1762.046860
_symmetry_space_group_name_H-M "C 2/C"
_symmetry_group_IT_number 15
_symmetry_cell_setting 'monoclinic'
loop_
_space_group_symop_operation_xyz
x,y,z
-x,y,1/2-z
-x,-y,-z
x,-y,1/2+z
1/2+x,1/2+y,z
1/2-x,1/2+y,1/2-z
1/2-x,1/2-y,-z
1/2+x,1/2-y,1/2+z
loop_
_atom_site_type_symbol
_atom_site_label
_atom_site_fract_x
_atom_site_fract_y
_atom_site_fract_z
Si Si1 0.000000 0.627319 0.250000
Si Si2 0.868695 0.508686 0.484414
Si Si3 0.788666 0.150809 0.838416
Si Si4 0.500000 0.240160 0.750000
Si Si5 0.733822 0.838807 0.081461
Si Si6 0.565395 0.734653 0.508398
O O1 0.105555 0.563237 0.163385
O O2 0.003738 0.691278 0.378154
O O3 0.784204 0.565945 0.607811
O O4 0.796274 0.421929 0.491186
O O5 0.000000 0.500000 0.500000
O O6 0.825303 0.153482 0.668088
O O7 0.692376 0.224830 0.910132
O O8 0.894621 0.163935 0.901440
O O9 0.391070 0.176550 0.796370
O O10 0.493607 0.289471 0.611030
O O11 0.750000 0.750000 0.000000
#
# Coordination Sequence:
#
# PCOD9262344 Si02
#       6
#     4   8   8   4   8   8
#     4  10  19  32  64  93 120 162 206 261 338 382
#     4  11  21  36  61  96 131 164 212 281 329 390
#     4   9  20  37  55  91 131 162 214 263 326 399
#     4  10  21  40  58  91 128 162 220 267 312 400
#     4  11  23  38  63  97 134 173 217 270 341 400
#     4   9  19  35  60  88 126 170 203 267 330 392
#
# _framework density 22.700873000000001
#
# number of rings (size 3 to 8) (size 9 to 14) (size 15 to 20)
#    0.000    2.000    0.000    5.400    5.600    0.000 
#    7.200    0.000    0.000    2.400    0.000    0.000 
#    0.000    0.000    0.000    0.000    0.000    0.000 
#
# Total GULP energy -111415.573902 kJ/mol
# GULP energy per Si atom -5570.778695 kJ/mol
# Density = 2.264920 g / cm^3
# Si number density = 22.700873 Si / 1000 Ang^3
#
#
#
# Elastic Constant Matrix: (Units=GPa)
#
#
# Indices 1 2 3 4 5 6 
#
# 1 88.2971 39.6088 38.0567 0.0000 42.8455 0.0000
# 2 39.6088 124.1447 50.6718 0.0000 30.8747 0.0000
# 3 38.0567 50.6718 130.5560 0.0000 41.4735 0.0000
# 4 0.0000 0.0000 0.0000 15.4228 0.0000 -6.0046
# 5 42.8455 30.8747 41.4735 0.0000 50.4881 0.0000
# 6 0.0000 0.0000 0.0000 -6.0046 0.0000 30.5718
#
#
#
# Elastic Compliance Matrix: (Units=1/GPa)
#
#
# Indices 1 2 3 4 5 6 
#
# 1 0.019909 -0.002555 0.000080 0.000000 -0.015398 0.000000
# 2 -0.002555 0.010467 -0.002670 0.000000 -0.002039 0.000000
# 3 0.000080 -0.002670 0.011062 0.000000 -0.007522 0.000000
# 4 0.000000 0.000000 0.000000 0.070208 0.000000 0.013790
# 5 -0.015398 -0.002039 -0.007522 0.000000 0.040300 0.000000
# 6 0.000000 0.000000 0.000000 0.013790 0.000000 0.035418
#
#
# Mechanical properties :
#
#
# Convention : Reuss Voigt Hill
#
# Bulk Modulus (GPa) = 32.10465 66.63028 49.36746
# Shear Modulus (GPa) = 24.03408 33.60724 28.82066
#
# Velocity S-wave (km/s) = 3.25734 3.85182 3.56699
# Velocity P-wave (km/s) = 5.32167 7.01407 6.22565
#
# Compressibility (1/GPa) = 0.03114814
#
# Stress axis : x y z
#
# Youngs Moduli (GPa) = 50.22814 95.53542 90.39948
#
# Poissons Ratio (x) = 0.24410 -0.00722
# Poissons Ratio (y) = 0.12834 0.24136
# Poissons Ratio (z) = -0.00401 0.25507
#
# Static dielectric constant tensor:
#      x y z
#    x 2.034850 0.000000 0.068900 
#    y 0.000000 1.852750 0.000000 
#    z 0.068900 0.000000 2.012160 
# 
# From -- ./inp_files/37880.got.cif
#   From: 2010.05.17/outbox.cif.g08.bks.cpg/sg15_19_cif.got.tgz:37880.got - 2010.06.03 18:47:42.
