data_PCOD9262330
_publ_section_title
;
Structure prediction by ZEFSAII (Michael W. Deem and Ramdas Pophale) SiO2 
 PCOD9262330
Probable space group: C 2/C
;
_chemical_formula_sum "Si O2"
_cell_formula_units_Z 56
_cell_length_a 14.086574
_cell_length_b 29.484416
_cell_length_c 8.975995
_cell_angle_alpha 90.000000
_cell_angle_beta 49.472787
_cell_angle_gamma 90.000000
_cell_volume 2833.673258
_symmetry_space_group_name_H-M "C 2/C"
_symmetry_group_IT_number 15
_symmetry_cell_setting 'monoclinic'
loop_
_space_group_symop_operation_xyz
x,y,z
-x,y,1/2-z
-x,-y,-z
x,-y,1/2+z
1/2+x,1/2+y,z
1/2-x,1/2+y,1/2-z
1/2-x,1/2-y,-z
1/2+x,1/2-y,1/2+z
loop_
_atom_site_type_symbol
_atom_site_label
_atom_site_fract_x
_atom_site_fract_y
_atom_site_fract_z
Si Si1 0.773423 0.555584 0.813275
Si Si2 0.128046 0.263287 0.524074
Si Si3 0.077553 0.833973 0.016574
Si Si4 0.845154 0.620228 0.272257
Si Si5 0.997110 0.078214 0.075244
Si Si6 0.765909 0.534924 0.171498
Si Si7 0.108411 0.359405 0.438634
O O1 0.818976 0.513206 0.669704
O O2 0.838093 0.604423 0.730909
O O3 0.632884 0.561111 0.893021
O O4 0.776764 0.541757 0.983299
O O5 0.250000 0.250000 0.500000
O O6 0.090654 0.219081 0.466426
O O7 0.161751 0.308763 0.399205
O O8 0.000000 0.273098 0.750000
O O9 0.217306 0.852473 0.891735
O O10 0.018040 0.870422 0.966507
O O11 0.000000 0.836298 0.250000
O O12 0.834850 0.573153 0.197038
O O13 0.868775 0.616760 0.424154
O O14 0.959926 0.645822 0.078418
O O15 0.000000 0.078395 0.250000
O O16 0.881279 0.046597 0.142916
#
# Coordination Sequence:
#
# PCOD9262330 Si02
#       7
#     8   8   8   8   8   8   8
#     4  11  22  37  59  88 113 154 197 239 296 353
#     4  11  20  35  59  91 123 155 200 251 299 345
#     4  10  19  32  61  89 113 151 196 241 289 351
#     4  10  20  38  55  82 117 155 188 239 294 338
#     4   9  20  37  58  85 123 149 186 245 301 348
#     4  10  22  39  60  83 118 152 193 245 292 357
#     4  11  21  36  58  82 119 154 195 245 284 351
#
# _framework density 19.762336000000001
#
# number of rings (size 3 to 8) (size 9 to 14) (size 15 to 20)
#    0.000    1.714    2.857    2.143    2.000    2.286 
#    0.000    0.714    3.143    2.571    0.000    0.000 
#    0.000    0.000    0.000    0.000    0.000    0.000 
#
# Total GULP energy -156066.863251 kJ/mol
# GULP energy per Si atom -5573.816545 kJ/mol
# Density = 1.971736 g / cm^3
# Si number density = 19.762336 Si / 1000 Ang^3
#
#
#
# Elastic Constant Matrix: (Units=GPa)
#
#
# Indices 1 2 3 4 5 6 
#
# 1 39.4818 23.2554 3.3973 0.0000 -7.6409 0.0000
# 2 23.2554 150.9298 27.0896 0.0000 -1.4900 0.0000
# 3 3.3973 27.0896 37.3287 0.0000 -11.9130 0.0000
# 4 0.0000 0.0000 0.0000 27.7976 0.0000 5.6863
# 5 -7.6409 -1.4900 -11.9130 0.0000 12.0316 0.0000
# 6 0.0000 0.0000 0.0000 5.6863 0.0000 24.0276
#
#
#
# Elastic Compliance Matrix: (Units=1/GPa)
#
#
# Indices 1 2 3 4 5 6 
#
# 1 0.035289 -0.007476 0.013261 0.000000 0.034615 0.000000
# 2 -0.007476 0.009580 -0.010831 0.000000 -0.014286 0.000000
# 3 0.013261 -0.010831 0.052195 0.000000 0.058761 0.000000
# 4 0.000000 0.000000 0.000000 0.037805 0.000000 -0.008947
# 5 0.034615 -0.014286 0.058761 0.000000 0.161510 0.000000
# 6 0.000000 0.000000 0.000000 -0.008947 0.000000 0.043736
#
#
# Mechanical properties :
#
#
# Convention : Reuss Voigt Hill
#
# Bulk Modulus (GPa) = 11.49794 37.24722 24.37258
# Shear Modulus (GPa) = 13.18566 24.37123 18.77844
#
# Velocity S-wave (km/s) = 2.58585 3.51553 3.08590
# Velocity P-wave (km/s) = 3.84008 5.94702 5.00566
#
# Compressibility (1/GPa) = 0.08697211
#
# Stress axis : x y z
#
# Youngs Moduli (GPa) = 28.33705 104.37869 19.15879
#
# Poissons Ratio (x) = 0.78031 -0.25406
# Poissons Ratio (y) = 0.21184 0.20752
# Poissons Ratio (z) = -0.37576 1.13056
#
# Static dielectric constant tensor:
#      x y z
#    x 1.742650 0.000000 -0.053630 
#    y 0.000000 1.717570 0.000000 
#    z -0.053630 0.000000 1.729320 
# 
# From -- ./inp_files/44512.got.cif
#   From: 2010.05.17/outbox.cif.g08.bks.cpg/sg15_23_cif.got.tgz:44512.got - 2010.06.03 18:47:42.
