data_PCOD9262294
_publ_section_title
;
Structure prediction by ZEFSAII (Michael W. Deem and Ramdas Pophale) SiO2 
 PCOD9262294
Probable space group: C 2/C
;
_chemical_formula_sum "Si O2"
_cell_formula_units_Z 56
_cell_length_a 5.259222
_cell_length_b 26.393247
_cell_length_c 20.317401
_cell_angle_alpha 90.000000
_cell_angle_beta 63.692158
_cell_angle_gamma 90.000000
_cell_volume 2528.114941
_symmetry_space_group_name_H-M "C 2/C"
_symmetry_group_IT_number 15
_symmetry_cell_setting 'monoclinic'
loop_
_space_group_symop_operation_xyz
x,y,z
-x,y,1/2-z
-x,-y,-z
x,-y,1/2+z
1/2+x,1/2+y,z
1/2-x,1/2+y,1/2-z
1/2-x,1/2-y,-z
1/2+x,1/2-y,1/2+z
loop_
_atom_site_type_symbol
_atom_site_label
_atom_site_fract_x
_atom_site_fract_y
_atom_site_fract_z
Si Si1 0.400897 0.063985 0.573103
Si Si2 0.600654 0.017697 0.671542
Si Si3 0.387025 0.532889 0.438963
Si Si4 0.057078 0.118638 0.821955
Si Si5 0.140553 0.325338 0.660809
Si Si6 0.674179 0.271221 0.297642
Si Si7 0.649323 0.383466 0.661347
O O1 0.369051 0.038963 0.648807
O O2 0.726534 0.064975 0.513243
O O3 0.232064 0.115278 0.602169
O O4 0.249004 0.023432 0.543569
O O5 0.500000 0.991815 0.750000
O O6 0.767367 0.068631 0.676529
O O7 0.784978 0.980321 0.605583
O O8 0.335811 0.563963 0.378379
O O9 0.000000 0.116976 0.750000
O O10 0.201962 0.172155 0.823031
O O11 0.458761 0.344340 0.639049
O O12 0.000000 0.326318 0.750000
O O13 0.032444 0.270690 0.645846
O O14 0.966800 0.364538 0.636886
O O15 0.500000 0.279289 0.250000
O O16 0.000000 0.251769 0.250000
O O17 0.500000 0.388108 0.750000
#
# Coordination Sequence:
#
# PCOD9262294 Si02
#       7
#     8   8   8   8   8   8   8
#     4  10  22  41  54  81 121 155 200 241 297 360
#     4  11  21  34  59  84 116 149 199 250 293 349
#     4  10  24  37  57  82 114 163 198 241 300 358
#     4  10  20  34  56  87 116 150 193 246 297 354
#     4   9  18  35  54  85 118 147 188 247 295 345
#     4  10  19  32  58  89 121 152 189 244 309 355
#     4  10  21  35  58  85 115 150 198 244 291 343
#
# _framework density 22.15089
#
# number of rings (size 3 to 8) (size 9 to 14) (size 15 to 20)
#    0.000    2.000    1.429    3.000    6.000    0.571 
#    0.000    0.000    0.000    1.714    0.000    0.000 
#    0.000    0.000    0.000    0.000    0.000    0.000 
#
# Total GULP energy -155899.254307 kJ/mol
# GULP energy per Si atom -5567.830511 kJ/mol
# Density = 2.210047 g / cm^3
# Si number density = 22.150890 Si / 1000 Ang^3
#
#
#
# Elastic Constant Matrix: (Units=GPa)
#
#
# Indices 1 2 3 4 5 6 
#
# 1 84.0571 23.9950 14.4934 0.0000 -4.5228 0.0000
# 2 23.9950 96.8440 15.3060 0.0000 -3.7497 0.0000
# 3 14.4934 15.3060 68.5905 0.0000 -4.8912 0.0000
# 4 0.0000 0.0000 0.0000 9.7656 0.0000 -7.6728
# 5 -4.5228 -3.7497 -4.8912 0.0000 20.6166 0.0000
# 6 0.0000 0.0000 0.0000 -7.6728 0.0000 24.5567
#
#
#
# Elastic Compliance Matrix: (Units=1/GPa)
#
#
# Indices 1 2 3 4 5 6 
#
# 1 0.013164 -0.002871 -0.002006 0.000000 0.001890 0.000000
# 2 -0.002871 0.011370 -0.001859 0.000000 0.000997 0.000000
# 3 -0.002006 -0.001859 0.015627 0.000000 0.002929 0.000000
# 4 0.000000 0.000000 0.000000 0.135717 0.000000 0.042405
# 5 0.001890 0.000997 0.002929 0.000000 0.049795 0.000000
# 6 0.000000 0.000000 0.000000 0.042405 0.000000 0.053972
#
#
# Mechanical properties :
#
#
# Convention : Reuss Voigt Hill
#
# Bulk Modulus (GPa) = 37.47138 39.67560 38.57349
# Shear Modulus (GPa) = 16.55550 24.03426 20.29488
#
# Velocity S-wave (km/s) = 2.73682 3.29754 3.03018
# Velocity P-wave (km/s) = 5.19038 5.69638 5.44926
#
# Compressibility (1/GPa) = 0.02668703
#
# Stress axis : x y z
#
# Youngs Moduli (GPa) = 75.96520 87.95230 63.99195
#
# Poissons Ratio (x) = 0.25255 0.12837
# Poissons Ratio (y) = 0.21813 0.11898
# Poissons Ratio (z) = 0.15239 0.16353
#
# Static dielectric constant tensor:
#      x y z
#    x 1.947670 0.000000 -0.029220 
#    y 0.000000 1.902380 0.000000 
#    z -0.029220 0.000000 1.868470 
# 
# From -- ./inp_files/261987.got.cif
#   From: 2010.05.17/outbox.cif.g08.bks.cpg/sg15_131_cif.got.tgz:261987.got - 2010.06.03 18:47:42.
