data_PCOD9262690
_publ_section_title
;
Structure prediction by ZEFSAII (Michael W. Deem and Ramdas Pophale) SiO2 
 PCOD9262690
Probable space group: C 2/C
;
_chemical_formula_sum "Si O2"
_cell_formula_units_Z 40
_cell_length_a 12.960576
_cell_length_b 7.835061
_cell_length_c 15.562851
_cell_angle_alpha 90.000000
_cell_angle_beta 76.172270
_cell_angle_gamma 90.000000
_cell_volume 1534.558495
_symmetry_space_group_name_H-M "C 2/C"
_symmetry_group_IT_number 15
_symmetry_cell_setting 'monoclinic'
loop_
_space_group_symop_operation_xyz
x,y,z
-x,y,1/2-z
-x,-y,-z
x,-y,1/2+z
1/2+x,1/2+y,z
1/2-x,1/2+y,1/2-z
1/2-x,1/2-y,-z
1/2+x,1/2-y,1/2+z
loop_
_atom_site_type_symbol
_atom_site_label
_atom_site_fract_x
_atom_site_fract_y
_atom_site_fract_z
Si Si1 0.643309 0.115590 0.127491
Si Si2 0.716036 0.468851 0.049701
Si Si3 0.068874 0.442728 0.905535
Si Si4 0.117340 0.179008 0.204473
Si Si5 0.175621 0.167173 0.790118
O O1 0.649899 0.294548 0.070736
O O2 0.526261 0.036707 0.144455
O O3 0.663383 0.190925 0.217428
O O4 0.732886 0.014205 0.054599
O O5 0.817249 0.465862 0.097152
O O6 0.642200 0.617431 0.102659
O O7 0.107538 0.248353 0.880995
O O8 0.000000 0.500000 0.000000
O O9 0.138075 0.011245 0.260094
O O10 0.000000 0.226350 0.250000
O O11 0.200774 0.324664 0.211035
#
# Coordination Sequence:
#
# PCOD9262690 Si02
#       5
#     8   8   8   8   8
#     4   9  15  28  48  73 100 129 171 214 250 308
#     4   8  16  28  47  72 100 133 168 208 261 309
#     4   9  16  27  48  75 101 133 169 209 260 309
#     4  10  20  36  54  76 108 140 174 221 267 312
#     4  10  19  33  55  79 103 139 182 217 263 322
#
# _framework density 26.066129
#
# number of rings (size 3 to 8) (size 9 to 14) (size 15 to 20)
#    0.000    2.800    0.000    3.000    0.000    0.000 
#    0.000    8.000    0.000   10.800    0.000    0.000 
#    0.000    0.000    0.000    0.000    0.000    0.000 
#
# Total GULP energy -111649.228939 kJ/mol
# GULP energy per Si atom -5582.461447 kJ/mol
# Density = 2.600680 g / cm^3
# Si number density = 26.066129 Si / 1000 Ang^3
#
#
#
# Elastic Constant Matrix: (Units=GPa)
#
#
# Indices 1 2 3 4 5 6 
#
# 1 164.3197 23.2979 51.2475 0.0000 -33.3637 0.0000
# 2 23.2979 127.5089 44.5831 0.0000 -8.4500 0.0000
# 3 51.2475 44.5831 86.4037 0.0000 -14.2168 0.0000
# 4 0.0000 0.0000 0.0000 37.4383 0.0000 -12.6974
# 5 -33.3637 -8.4500 -14.2168 0.0000 41.3437 0.0000
# 6 0.0000 0.0000 0.0000 -12.6974 0.0000 5.5837
#
#
#
# Elastic Compliance Matrix: (Units=1/GPa)
#
#
# Indices 1 2 3 4 5 6 
#
# 1 0.008486 0.000313 -0.004301 0.000000 0.005433 0.000000
# 2 0.000313 0.009583 -0.005053 0.000000 0.000474 0.000000
# 3 -0.004301 -0.005053 0.016950 0.000000 0.001325 0.000000
# 4 0.000000 0.000000 0.000000 0.116764 0.000000 0.265524
# 5 0.005433 0.000474 0.001325 0.000000 0.029124 0.000000
# 6 0.000000 0.000000 0.000000 0.265524 0.000000 0.782897
#
#
# Mechanical properties :
#
#
# Convention : Reuss Voigt Hill
#
# Bulk Modulus (GPa) = 59.03752 68.49881 63.76817
# Shear Modulus (GPa) = 5.06313 34.14673 19.60493
#
# Velocity S-wave (km/s) = 1.39522 3.62332 2.74546
# Velocity P-wave (km/s) = 5.02930 6.62122 5.87939
#
# Compressibility (1/GPa) = 0.01693838
#
# Stress axis : x y z
#
# Youngs Moduli (GPa) = 117.84544 104.34669 58.99843
#
# Poissons Ratio (x) = -0.03269 0.25374
# Poissons Ratio (y) = -0.03692 0.29810
# Poissons Ratio (z) = 0.50682 0.52724
#
# Static dielectric constant tensor:
#      x y z
#    x 2.082390 0.000000 0.054520 
#    y 0.000000 2.078270 0.000000 
#    z 0.054520 0.000000 2.064570 
# 
# From -- ./inp_files/141930.got.cif
#   From: 2010.05.17/outbox.cif.g08.bks.cpg/sg15_71_cif.got.tgz:141930.got - 2010.06.03 18:47:42.
