data_PCOD9262575
_publ_section_title
;
Structure prediction by ZEFSAII (Michael W. Deem and Ramdas Pophale) SiO2 
 PCOD9262575
Probable space group: C 2/C
;
_chemical_formula_sum "Si O2"
_cell_formula_units_Z 56
_cell_length_a 29.227851
_cell_length_b 9.220977
_cell_length_c 10.765743
_cell_angle_alpha 90.000000
_cell_angle_beta 111.789559
_cell_angle_gamma 90.000000
_cell_volume 2694.168513
_symmetry_space_group_name_H-M "C 2/C"
_symmetry_group_IT_number 15
_symmetry_cell_setting 'monoclinic'
loop_
_space_group_symop_operation_xyz
x,y,z
-x,y,1/2-z
-x,-y,-z
x,-y,1/2+z
1/2+x,1/2+y,z
1/2-x,1/2+y,1/2-z
1/2-x,1/2-y,-z
1/2+x,1/2-y,1/2+z
loop_
_atom_site_type_symbol
_atom_site_label
_atom_site_fract_x
_atom_site_fract_y
_atom_site_fract_z
Si Si1 0.353489 0.018113 0.851658
Si Si2 0.987384 0.113861 0.596568
Si Si3 0.652249 0.517244 0.650362
Si Si4 0.583748 0.240184 0.142043
Si Si5 0.716263 0.236152 0.155870
Si Si6 0.825013 0.233065 0.161178
Si Si7 0.121479 0.219406 0.954679
O O1 0.351709 0.119402 0.728523
O O2 0.399702 0.910350 0.898841
O O3 0.306607 0.911067 0.812389
O O4 0.357676 0.133309 0.966307
O O5 0.026627 0.241803 0.611243
O O6 0.000000 0.058228 0.750000
O O7 0.932011 0.175029 0.542328
O O8 0.000000 0.000000 0.500000
O O9 0.605941 0.625111 0.587074
O O10 0.698728 0.623451 0.714937
O O11 0.646042 0.407387 0.759820
O O12 0.656034 0.411892 0.535305
O O13 0.612739 0.259669 0.301262
O O14 0.773802 0.229392 0.187371
O O15 0.689434 0.261711 0.996118
#
# Coordination Sequence:
#
# PCOD9262575 Si02
#       7
#     8   8   8   8   8   8   8
#     4  10  21  35  52  78 108 140 178 217 273 322
#     4  10  20  37  58  84 112 144 182 227 276 328
#     4  10  19  33  54  76 102 136 180 217 269 318
#     4  10  20  35  55  78 108 140 177 223 271 325
#     4  10  20  34  52  75 104 138 177 221 267 318
#     4  10  20  34  52  75 104 138 177 221 267 318
#     4  10  20  35  55  78 108 140 177 223 271 325
#
# _framework density 20.785634999999999
#
# number of rings (size 3 to 8) (size 9 to 14) (size 15 to 20)
#    0.000    2.000    1.429    2.571    0.000    0.571 
#    0.000    1.429    0.000   13.714    0.000    0.000 
#    0.000    0.000    0.000    0.000    0.000    0.000 
#
# Total GULP energy -156253.241664 kJ/mol
# GULP energy per Si atom -5580.472917 kJ/mol
# Density = 2.073833 g / cm^3
# Si number density = 20.785635 Si / 1000 Ang^3
#
#
#
# Elastic Constant Matrix: (Units=GPa)
#
#
# Indices 1 2 3 4 5 6 
#
# 1 57.9030 14.0713 -15.6243 0.0000 -2.0664 0.0000
# 2 14.0713 137.3280 13.8382 0.0000 -2.3144 0.0000
# 3 -15.6243 13.8382 36.8363 0.0000 0.4484 0.0000
# 4 0.0000 0.0000 0.0000 19.6416 0.0000 -0.9955
# 5 -2.0664 -2.3144 0.4484 0.0000 22.7221 0.0000
# 6 0.0000 0.0000 0.0000 -0.9955 0.0000 19.9160
#
#
#
# Elastic Compliance Matrix: (Units=1/GPa)
#
#
# Indices 1 2 3 4 5 6 
#
# 1 0.020761 -0.003107 0.009957 0.000000 0.001375 0.000000
# 2 -0.003107 0.008049 -0.004349 0.000000 0.000623 0.000000
# 3 0.009957 -0.004349 0.033006 0.000000 -0.000189 0.000000
# 4 0.000000 0.000000 0.000000 0.051042 0.000000 0.002551
# 5 0.001375 0.000623 -0.000189 0.000000 0.044202 0.000000
# 6 0.000000 0.000000 0.000000 0.002551 0.000000 0.050338
#
#
# Mechanical properties :
#
#
# Convention : Reuss Voigt Hill
#
# Bulk Modulus (GPa) = 14.96644 28.51529 21.74086
# Shear Modulus (GPa) = 22.25470 27.10807 24.68139
#
# Velocity S-wave (km/s) = 3.27567 3.61525 3.44964
# Velocity P-wave (km/s) = 4.63926 5.58348 5.13313
#
# Compressibility (1/GPa) = 0.06681617
#
# Stress axis : x y z
#
# Youngs Moduli (GPa) = 48.16697 124.23888 30.29710
#
# Poissons Ratio (x) = 0.38606 -0.30165
# Poissons Ratio (y) = 0.14967 0.13177
# Poissons Ratio (z) = -0.47958 0.54036
#
# Static dielectric constant tensor:
#      x y z
#    x 1.743960 0.000000 -0.009140 
#    y 0.000000 1.737420 0.000000 
#    z -0.009140 0.000000 1.744800 
# 
# From -- ./inp_files/125532.got.cif
#   From: 2010.05.17/outbox.cif.g08.bks.cpg/sg15_63_cif.got.tgz:125532.got - 2010.06.03 18:47:42.
