data_PCOD9262146
_publ_section_title
;
Structure prediction by ZEFSAII (Michael W. Deem and Ramdas Pophale) SiO2 
 PCOD9262146
Probable space group: C 2/C
;
_chemical_formula_sum "Si O2"
_cell_formula_units_Z 64
_cell_length_a 27.445150
_cell_length_b 20.119729
_cell_length_c 8.784862
_cell_angle_alpha 90.000000
_cell_angle_beta 129.804913
_cell_angle_gamma 90.000000
_cell_volume 3726.603340
_symmetry_space_group_name_H-M "C 2/C"
_symmetry_group_IT_number 15
_symmetry_cell_setting 'monoclinic'
loop_
_space_group_symop_operation_xyz
x,y,z
-x,y,1/2-z
-x,-y,-z
x,-y,1/2+z
1/2+x,1/2+y,z
1/2-x,1/2+y,1/2-z
1/2-x,1/2-y,-z
1/2+x,1/2-y,1/2+z
loop_
_atom_site_type_symbol
_atom_site_label
_atom_site_fract_x
_atom_site_fract_y
_atom_site_fract_z
Si Si1 0.237770 0.569039 0.658124
Si Si2 0.379393 0.569390 0.441531
Si Si3 0.432894 0.711451 0.184009
Si Si4 0.314287 0.788816 0.445651
Si Si5 0.879393 0.930610 0.576039
Si Si6 0.314287 0.211184 0.311496
Si Si7 0.762230 0.569039 0.207044
Si Si8 0.067106 0.211451 0.952432
O O1 0.196556 0.633801 0.612914
O O2 0.243621 0.564341 0.487242
O O3 0.212401 0.500000 0.674803
O O4 0.308121 0.577926 0.868528
O O5 0.404403 0.500000 0.558806
O O6 0.376536 0.564802 0.253072
O O7 0.308121 0.577926 0.363956
O O8 0.418304 0.634850 0.563314
O O9 0.500000 0.732367 0.250000
O O10 0.418304 0.634850 0.109902
O O11 0.435133 0.714244 0.370266
O O12 0.375037 0.756022 0.009251
O O13 0.320225 0.782357 0.640450
O O14 0.250000 0.750000 0.271822
O O15 0.375037 0.756022 0.490896
O O16 0.303444 0.133801 0.326691
O O17 0.000000 0.232367 0.750000
#
# Coordination Sequence:
#
# PCOD9262146 Si02
#       8
#     8   8   8   8   8   8   8   8
#     4  10  19  32  54  82 111 143 177 222 272 320
#     4  10  20  33  51  77 108 145 184 223 266 318
#     4  11  24  38  55  79 110 147 186 229 274 325
#     4  10  20  36  58  82 110 145 182 224 274 324
#     4  10  20  33  51  77 108 145 184 223 266 318
#     4  10  20  36  58  82 110 145 182 224 274 324
#     4  10  19  32  54  82 111 143 177 222 272 320
#     4  11  24  38  55  79 110 147 186 229 274 325
#
# _framework density 17.173815000000001
#
# number of rings (size 3 to 8) (size 9 to 14) (size 15 to 20)
#    0.000    1.750    2.500    3.750    0.000    6.000 
#    0.000    2.500    0.000    0.750    0.000    5.250 
#    0.000    0.000    0.000    0.000    0.000    0.000 
#
# Total GULP energy -178702.328671 kJ/mol
# GULP energy per Si atom -5584.447771 kJ/mol
# Density = 1.713473 g / cm^3
# Si number density = 17.173815 Si / 1000 Ang^3
#
#
#
# Elastic Constant Matrix: (Units=GPa)
#
#
# Indices 1 2 3 4 5 6 
#
# 1 77.8033 55.9627 42.4201 0.0000 18.1789 0.0000
# 2 55.9627 123.3562 52.6084 0.0000 11.5648 0.0000
# 3 42.4201 52.6084 67.8652 0.0000 16.0856 0.0000
# 4 0.0000 0.0000 0.0000 34.6323 0.0000 -12.9924
# 5 18.1789 11.5648 16.0856 0.0000 22.2708 0.0000
# 6 0.0000 0.0000 0.0000 -12.9924 0.0000 30.8636
#
#
#
# Elastic Compliance Matrix: (Units=1/GPa)
#
#
# Indices 1 2 3 4 5 6 
#
# 1 0.024370 -0.006933 -0.007236 0.000000 -0.011066 0.000000
# 2 -0.006933 0.014089 -0.007475 0.000000 0.003742 0.000000
# 3 -0.007236 -0.007475 0.027428 0.000000 -0.010023 0.000000
# 4 0.000000 0.000000 0.000000 0.034290 0.000000 0.014435
# 5 -0.011066 0.003742 -0.010023 0.000000 0.059231 0.000000
# 6 0.000000 0.000000 0.000000 0.014435 0.000000 0.038477
#
#
# Mechanical properties :
#
#
# Convention : Reuss Voigt Hill
#
# Bulk Modulus (GPa) = 44.24767 63.44524 53.84646
# Shear Modulus (GPa) = 20.10405 25.42224 22.76315
#
# Velocity S-wave (km/s) = 3.42515 3.85163 3.64463
# Velocity P-wave (km/s) = 6.43916 7.53679 7.00949
#
# Compressibility (1/GPa) = 0.02260006
#
# Stress axis : x y z
#
# Youngs Moduli (GPa) = 41.03353 70.97819 36.45881
#
# Poissons Ratio (x) = 0.49206 0.26381
# Poissons Ratio (y) = 0.28447 0.27253
# Poissons Ratio (z) = 0.29692 0.53057
#
# Static dielectric constant tensor:
#      x y z
#    x 1.558820 0.000000 -0.013110 
#    y 0.000000 1.599940 0.000000 
#    z -0.013110 0.000000 1.562620 
# 
# From -- ./inp_files/67447.got.cif
#   From: 2010.05.17/outbox.cif.g08.bks.cpg/sg15_34_cif.got.tgz:67447.got - 2010.06.03 18:47:42.
