data_PCOD9262852
_publ_section_title
;
Structure prediction by ZEFSAII (Michael W. Deem and Ramdas Pophale) SiO2 
 PCOD9262852
Probable space group: C 2/C
;
_chemical_formula_sum "Si O2"
_cell_formula_units_Z 56
_cell_length_a 23.166942
_cell_length_b 5.502591
_cell_length_c 17.987737
_cell_angle_alpha 90.000000
_cell_angle_beta 97.644600
_cell_angle_gamma 90.000000
_cell_volume 2272.664537
_symmetry_space_group_name_H-M "C 2/C"
_symmetry_group_IT_number 15
_symmetry_cell_setting 'monoclinic'
loop_
_space_group_symop_operation_xyz
x,y,z
-x,y,1/2-z
-x,-y,-z
x,-y,1/2+z
1/2+x,1/2+y,z
1/2-x,1/2+y,1/2-z
1/2-x,1/2-y,-z
1/2+x,1/2-y,1/2+z
loop_
_atom_site_type_symbol
_atom_site_label
_atom_site_fract_x
_atom_site_fract_y
_atom_site_fract_z
Si Si1 0.297606 0.993621 0.049892
Si Si2 0.444647 0.153197 0.297057
Si Si3 0.596638 0.378656 0.940772
Si Si4 0.786289 0.142253 0.264044
Si Si5 0.982601 0.836122 0.836899
Si Si6 0.147526 0.828907 0.327802
Si Si7 0.675963 0.401662 0.564573
O O1 0.303639 0.180308 0.121027
O O2 0.229794 0.920568 0.047633
O O3 0.351449 0.811428 0.066308
O O4 0.309287 0.155360 0.978423
O O5 0.500000 0.138935 0.250000
O O6 0.455812 0.398573 0.344545
O O7 0.385884 0.183355 0.240571
O O8 0.442221 0.898476 0.338030
O O9 0.534669 0.282546 0.903986
O O10 0.602915 0.602376 0.884497
O O11 0.615879 0.488236 0.023043
O O12 0.744884 0.900426 0.252988
O O13 0.829925 0.076139 0.205002
O O14 0.819618 0.133054 0.347627
O O15 0.000000 0.845266 0.750000
#
# Coordination Sequence:
#
# PCOD9262852 Si02
#       7
#     8   8   8   8   8   8   8
#     4  10  20  38  61  91 123 164 216 260 320 377
#     4  10  19  34  56  91 123 152 207 267 311 360
#     4  11  21  35  64  93 125 168 211 267 328 374
#     4  12  27  45  64  91 134 176 216 259 317 390
#     4  10  19  33  56  89 124 151 204 266 315 359
#     4  11  22  37  65  94 125 173 212 266 325 381
#     4  10  23  38  59  92 128 167 214 264 314 384
#
# _framework density 24.640678999999999
#
# number of rings (size 3 to 8) (size 9 to 14) (size 15 to 20)
#    0.000    1.429    4.286    3.000    4.000    0.000 
#    0.000    0.000    0.000    1.714    0.000    0.000 
#    0.000    0.000    0.000    0.000    0.000    0.000 
#
# Total GULP energy -156460.764009 kJ/mol
# GULP energy per Si atom -5587.884429 kJ/mol
# Density = 2.458460 g / cm^3
# Si number density = 24.640679 Si / 1000 Ang^3
#
#
#
# Elastic Constant Matrix: (Units=GPa)
#
#
# Indices 1 2 3 4 5 6 
#
# 1 45.2676 16.6560 42.4218 0.0000 17.7195 0.0000
# 2 16.6560 118.9545 47.3091 0.0000 9.8757 0.0000
# 3 42.4218 47.3091 179.6402 0.0000 25.5028 0.0000
# 4 0.0000 0.0000 0.0000 20.9652 0.0000 10.4857
# 5 17.7195 9.8757 25.5028 0.0000 41.9204 0.0000
# 6 0.0000 0.0000 0.0000 10.4857 0.0000 31.3278
#
#
#
# Elastic Compliance Matrix: (Units=1/GPa)
#
#
# Indices 1 2 3 4 5 6 
#
# 1 0.031761 -0.001351 -0.005783 0.000000 -0.009589 0.000000
# 2 -0.001351 0.009471 -0.002123 0.000000 -0.000369 0.000000
# 3 -0.005783 -0.002123 0.007742 0.000000 -0.001765 0.000000
# 4 0.000000 0.000000 0.000000 0.057289 0.000000 -0.019175
# 5 -0.009589 -0.000369 -0.001765 0.000000 0.029069 0.000000
# 6 0.000000 0.000000 0.000000 -0.019175 0.000000 0.038339
#
#
# Mechanical properties :
#
#
# Convention : Reuss Voigt Hill
#
# Bulk Modulus (GPa) = 32.83052 61.84844 47.33948
# Shear Modulus (GPa) = 24.71130 34.67437 29.69283
#
# Velocity S-wave (km/s) = 3.17024 3.75534 3.47512
# Velocity P-wave (km/s) = 5.17235 6.63008 5.94606
#
# Compressibility (1/GPa) = 0.03045946
#
# Stress axis : x y z
#
# Youngs Moduli (GPa) = 31.48520 105.59008 129.16482
#
# Poissons Ratio (x) = 0.14266 0.74699
# Poissons Ratio (y) = 0.04254 0.27418
# Poissons Ratio (z) = 0.18209 0.22414
#
# Static dielectric constant tensor:
#      x y z
#    x 2.087250 0.000000 0.068450 
#    y 0.000000 2.021780 0.000000 
#    z 0.068450 0.000000 2.063070 
# 
# From -- ./inp_files/223805.got.cif
#   From: 2010.05.17/outbox.cif.g08.bks.cpg/sg15_112_cif.got.tgz:223805.got - 2010.06.03 18:47:42.
