data_PCOD9262760
_publ_section_title
;
Structure prediction by ZEFSAII (Michael W. Deem and Ramdas Pophale) SiO2 
 PCOD9262760
Probable space group: C 2/C
;
_chemical_formula_sum "Si O2"
_cell_formula_units_Z 64
_cell_length_a 9.021642
_cell_length_b 16.538397
_cell_length_c 23.762320
_cell_angle_alpha 90.000000
_cell_angle_beta 66.106676
_cell_angle_gamma 90.000000
_cell_volume 3241.582737
_symmetry_space_group_name_H-M "C 2/C"
_symmetry_group_IT_number 15
_symmetry_cell_setting 'monoclinic'
loop_
_space_group_symop_operation_xyz
x,y,z
-x,y,1/2-z
-x,-y,-z
x,-y,1/2+z
1/2+x,1/2+y,z
1/2-x,1/2+y,1/2-z
1/2-x,1/2-y,-z
1/2+x,1/2-y,1/2+z
loop_
_atom_site_type_symbol
_atom_site_label
_atom_site_fract_x
_atom_site_fract_y
_atom_site_fract_z
Si Si1 0.539622 0.996187 0.135752
Si Si2 0.786441 0.336128 0.359936
Si Si3 0.618826 0.165062 0.178654
Si Si4 0.023661 0.174851 0.813762
Si Si5 0.946507 0.751777 0.615428
Si Si6 0.762277 0.019068 0.997233
Si Si7 0.965544 0.866636 0.999353
Si Si8 0.724554 0.921424 0.381530
O O1 0.616587 0.920416 0.156019
O O2 0.349711 0.979747 0.154749
O O3 0.594780 0.079589 0.153776
O O4 0.621305 0.996634 0.061842
O O5 0.700943 0.326161 0.312875
O O6 0.646572 0.343966 0.429786
O O7 0.909823 0.267615 0.362873
O O8 0.500000 0.162091 0.250000
O O9 0.553765 0.241055 0.152442
O O10 0.804258 0.190604 0.161653
O O11 0.000000 0.174981 0.750000
O O12 0.914345 0.099815 0.849617
O O13 0.868450 0.664123 0.612768
O O14 0.008506 0.794272 0.548672
O O15 0.866009 0.095480 0.004315
O O16 0.698161 0.040734 0.946241
O O17 0.879761 0.941121 0.979891
#
# Coordination Sequence:
#
# PCOD9262760 Si02
#       8
#     8   8   8   8   8   8   8   8
#     4  10  21  37  58  85 116 155 194 236 291 355
#     4  10  21  38  61  88 117 154 194 242 299 359
#     4  10  22  40  57  79 113 150 196 250 298 346
#     4  10  22  40  58  80 113 150 196 250 298 345
#     4  10  21  37  59  87 117 151 196 242 294 360
#     4  10  19  33  55  86 124 156 184 234 293 352
#     4  10  19  33  57  90 122 155 186 236 298 363
#     4  10  21  36  56  85 116 152 197 235 287 354
#
# _framework density 19.743442000000002
#
# number of rings (size 3 to 8) (size 9 to 14) (size 15 to 20)
#    0.000    2.000    2.500    0.750    0.000    3.500 
#    0.000    9.375    0.000    0.000    0.000    0.000 
#    0.000    0.000    0.000    0.000    0.000    0.000 
#
# Total GULP energy -178432.366728 kJ/mol
# GULP energy per Si atom -5576.011460 kJ/mol
# Density = 1.969851 g / cm^3
# Si number density = 19.743442 Si / 1000 Ang^3
#
#
#
# Elastic Constant Matrix: (Units=GPa)
#
#
# Indices 1 2 3 4 5 6 
#
# 1 119.9421 39.8659 24.8699 0.0000 32.4056 0.0000
# 2 39.8659 76.4938 13.8481 0.0000 14.8493 0.0000
# 3 24.8699 13.8481 42.3710 0.0000 17.4006 0.0000
# 4 0.0000 0.0000 0.0000 0.5441 0.0000 -4.5075
# 5 32.4056 14.8493 17.4006 0.0000 28.3234 0.0000
# 6 0.0000 0.0000 0.0000 -4.5075 0.0000 10.6287
#
#
#
# Elastic Compliance Matrix: (Units=1/GPa)
#
#
# Indices 1 2 3 4 5 6 
#
# 1 0.013354 -0.004347 -0.001443 0.000000 -0.012113 0.000000
# 2 -0.004347 0.016120 -0.001724 0.000000 -0.002419 0.000000
# 3 -0.001443 -0.001724 0.032048 0.000000 -0.017134 0.000000
# 4 0.000000 0.000000 0.000000 -0.731273 0.000000 -0.310126
# 5 -0.012113 -0.002419 -0.017134 0.000000 0.060961 0.000000
# 6 0.000000 0.000000 0.000000 -0.310126 0.000000 -0.037437
#
#
# Mechanical properties :
#
#
# Convention : Reuss Voigt Hill
#
# Bulk Modulus (GPa) = 21.50770 43.99719 32.75244
# Shear Modulus (GPa) = -8.12082 18.58077 5.22998
#
# Velocity S-wave (km/s) = -2.03030 3.07108 1.62933
# Velocity P-wave (km/s) = 2.32833 5.90832 4.49051
#
# Compressibility (1/GPa) = 0.04649498
#
# Stress axis : x y z
#
# Youngs Moduli (GPa) = 74.88308 62.03452 31.20332
#
# Poissons Ratio (x) = 0.26966 0.04502
# Poissons Ratio (y) = 0.32552 0.05378
# Poissons Ratio (z) = 0.10805 0.10693
#
# Static dielectric constant tensor:
#      x y z
#    x 1.728660 0.000000 -0.038710 
#    y 0.000000 1.707790 0.000000 
#    z -0.038710 0.000000 1.768150 
# 
# From -- ./inp_files/265241.got.cif
#   From: 2010.05.17/outbox.cif.g08.bks.cpg/sg15_133_cif.got.tgz:265241.got - 2010.06.03 18:47:42.
