data_PCOD9262255
_publ_section_title
;
Structure prediction by ZEFSAII (Michael W. Deem and Ramdas Pophale) SiO2 
 PCOD9262255
Probable space group: C 2/C
;
_chemical_formula_sum "Si O2"
_cell_formula_units_Z 48
_cell_length_a 21.856190
_cell_length_b 19.137716
_cell_length_c 5.247022
_cell_angle_alpha 90.000000
_cell_angle_beta 99.279250
_cell_angle_gamma 90.000000
_cell_volume 2165.991938
_symmetry_space_group_name_H-M "C 2/C"
_symmetry_group_IT_number 15
_symmetry_cell_setting 'monoclinic'
loop_
_space_group_symop_operation_xyz
x,y,z
-x,y,1/2-z
-x,-y,-z
x,-y,1/2+z
1/2+x,1/2+y,z
1/2-x,1/2+y,1/2-z
1/2-x,1/2-y,-z
1/2+x,1/2-y,1/2+z
loop_
_atom_site_type_symbol
_atom_site_label
_atom_site_fract_x
_atom_site_fract_y
_atom_site_fract_z
Si Si1 0.913729 0.687072 0.109363
Si Si2 0.432216 0.719929 0.124199
Si Si3 0.689050 0.660004 0.523467
Si Si4 0.717654 0.198747 0.283150
Si Si5 0.584915 0.958230 0.102219
Si Si6 0.235094 0.543098 0.693014
O O1 0.938499 0.729203 0.376447
O O2 0.844391 0.665568 0.152591
O O3 0.942087 0.615371 0.017169
O O4 0.909952 0.737930 0.862631
O O5 0.500000 0.695035 0.250000
O O6 0.384674 0.655992 0.041376
O O7 0.692755 0.744140 0.564189
O O8 0.732379 0.648921 0.308564
O O9 0.725323 0.614159 0.753499
O O10 0.750000 0.250000 0.500000
O O11 0.568909 0.016108 0.876303
O O12 0.660250 0.950006 0.162157
O O13 0.251798 0.503197 0.448594
#
# Coordination Sequence:
#
# PCOD9262255 Si02
#       6
#     8   8   8   8   8   8
#     4  11  22  37  61  85 118 152 190 243 293 349
#     4  11  24  41  61  85 112 153 199 250 294 333
#     4  10  22  35  56  86 120 152 189 237 293 352
#     4  10  19  32  56  89 117 146 182 237 304 354
#     4  10  21  35  55  85 122 156 187 225 284 355
#     4  10  23  35  54  85 126 158 185 226 281 358
#
# _framework density 22.160748000000002
#
# number of rings (size 3 to 8) (size 9 to 14) (size 15 to 20)
#    0.000    1.667    1.667    2.500   14.000    0.000 
#    0.000    0.000    0.000   11.000    0.000    0.000 
#    0.000    0.000    0.000    0.000    0.000    0.000 
#
# Total GULP energy -133880.534400 kJ/mol
# GULP energy per Si atom -5578.355600 kJ/mol
# Density = 2.211031 g / cm^3
# Si number density = 22.160748 Si / 1000 Ang^3
#
#
#
# Elastic Constant Matrix: (Units=GPa)
#
#
# Indices 1 2 3 4 5 6 
#
# 1 69.1083 0.6083 27.2788 0.0000 20.7625 0.0000
# 2 0.6083 56.1597 26.0650 0.0000 -0.6603 0.0000
# 3 27.2788 26.0650 145.8853 0.0000 -2.2770 0.0000
# 4 0.0000 0.0000 0.0000 40.7543 0.0000 2.9024
# 5 20.7625 -0.6603 -2.2770 0.0000 42.6100 0.0000
# 6 0.0000 0.0000 0.0000 2.9024 0.0000 10.3563
#
#
#
# Elastic Compliance Matrix: (Units=1/GPa)
#
#
# Indices 1 2 3 4 5 6 
#
# 1 0.018822 0.001513 -0.003936 0.000000 -0.009358 0.000000
# 2 0.001513 0.019539 -0.003784 0.000000 -0.000637 0.000000
# 3 -0.003936 -0.003784 0.008303 0.000000 0.002303 0.000000
# 4 0.000000 0.000000 0.000000 0.025037 0.000000 -0.007017
# 5 -0.009358 -0.000637 0.002303 0.000000 0.028142 0.000000
# 6 0.000000 0.000000 0.000000 -0.007017 0.000000 0.098526
#
#
# Mechanical properties :
#
#
# Convention : Reuss Voigt Hill
#
# Bulk Modulus (GPa) = 29.19749 42.11752 35.65751
# Shear Modulus (GPa) = 22.50244 33.22420 27.86332
#
# Velocity S-wave (km/s) = 3.19002 3.87620 3.54973
# Velocity P-wave (km/s) = 5.17419 6.25139 5.73813
#
# Compressibility (1/GPa) = 0.03424951
#
# Stress axis : x y z
#
# Youngs Moduli (GPa) = 53.12998 51.18075 120.44386
#
# Poissons Ratio (x) = -0.07743 0.47404
# Poissons Ratio (y) = -0.08037 0.45573
# Poissons Ratio (z) = 0.20911 0.19365
#
# Static dielectric constant tensor:
#      x y z
#    x 1.905550 0.000000 -0.018790 
#    y 0.000000 1.896950 0.000000 
#    z -0.018790 0.000000 1.843220 
# 
# From -- ./inp_files/13242.got.cif
#   From: 2010.05.17/outbox.cif.g08.bks.cpg/sg15_7_cif.got.tgz:13242.got - 2010.06.03 18:47:42.
