data_PCOD9262770
_publ_section_title
;
Structure prediction by ZEFSAII (Michael W. Deem and Ramdas Pophale) SiO2 
 PCOD9262770
Probable space group: C 2/C
;
_chemical_formula_sum "Si O2"
_cell_formula_units_Z 56
_cell_length_a 16.799857
_cell_length_b 7.547811
_cell_length_c 27.901615
_cell_angle_alpha 90.000000
_cell_angle_beta 39.516028
_cell_angle_gamma 90.000000
_cell_volume 2251.198580
_symmetry_space_group_name_H-M "C 2/C"
_symmetry_group_IT_number 15
_symmetry_cell_setting 'monoclinic'
loop_
_space_group_symop_operation_xyz
x,y,z
-x,y,1/2-z
-x,-y,-z
x,-y,1/2+z
1/2+x,1/2+y,z
1/2-x,1/2+y,1/2-z
1/2-x,1/2-y,-z
1/2+x,1/2-y,1/2+z
loop_
_atom_site_type_symbol
_atom_site_label
_atom_site_fract_x
_atom_site_fract_y
_atom_site_fract_z
Si Si1 0.000000 0.318396 0.750000
Si Si2 0.000000 0.177959 0.250000
Si Si3 0.929356 0.608482 0.152668
Si Si4 0.587156 0.595549 0.634481
Si Si5 0.179929 0.561714 0.715923
Si Si6 0.964089 0.305399 0.534823
Si Si7 0.696735 0.052517 0.529272
Si Si8 0.169187 0.984791 0.940251
O O1 0.104841 0.201163 0.676332
O O2 0.058421 0.437385 0.763034
O O3 0.873533 0.275832 0.290591
O O4 0.964963 0.081890 0.316577
O O5 0.821745 0.482370 0.226939
O O6 0.986389 0.792236 0.149973
O O7 0.052125 0.485895 0.086767
O O8 0.884842 0.670950 0.120581
O O9 0.711239 0.561438 0.547180
O O10 0.290236 0.476260 0.634036
O O11 0.081700 0.179966 0.493229
O O12 0.000000 0.500000 0.500000
O O13 0.897489 0.178143 0.526977
O O14 0.750000 0.250000 0.500000
O O15 0.720666 0.994050 0.572852
#
# Coordination Sequence:
#
# PCOD9262770 Si02
#       8
#     4   4   8   8   8   8   8   8
#     4   8  18  32  58  86 134 156 190 268 330 378
#     4  10  20  36  60  98 142 162 208 266 346 394
#     4  11  23  42  66  96 135 165 223 276 331 399
#     4  10  19  33  55  94 128 168 204 259 327 396
#     4  10  20  40  60  92 127 170 207 273 326 393
#     4  11  26  48  67  93 131 183 226 273 333 401
#     4  12  22  36  68 100 127 168 217 277 334 397
#     4  11  24  45  68  94 136 172 222 280 333 400
#
# _framework density 24.875637999999999
#
# number of rings (size 3 to 8) (size 9 to 14) (size 15 to 20)
#    0.000    1.429    1.429    5.571    2.000    0.000 
#    7.714    0.000    0.000    0.000    0.000    0.000 
#    0.000    0.000    0.000    0.000    0.000    0.000 
#
# Total GULP energy -156015.358499 kJ/mol
# GULP energy per Si atom -5571.977089 kJ/mol
# Density = 2.481902 g / cm^3
# Si number density = 24.875638 Si / 1000 Ang^3
#
#
#
# Elastic Constant Matrix: (Units=GPa)
#
#
# Indices 1 2 3 4 5 6 
#
# 1 60.0417 13.7944 2.6911 0.0003 6.2234 -0.0009
# 2 13.7944 96.2663 24.8714 0.0021 9.5388 0.0002
# 3 2.6911 24.8714 121.7325 -0.0003 24.7470 0.0003
# 4 0.0003 0.0021 -0.0003 43.6973 0.0000 17.3178
# 5 6.2234 9.5388 24.7470 0.0000 33.4349 0.0000
# 6 -0.0009 0.0002 0.0003 17.3178 0.0000 10.8561
#
#
#
# Elastic Compliance Matrix: (Units=1/GPa)
#
#
# Indices 1 2 3 4 5 6 
#
# 1 0.017494 -0.002388 0.000735 -0.000002 -0.003119 0.000004
# 2 -0.002388 0.011378 -0.002004 -0.000001 -0.001319 0.000001
# 3 0.000735 -0.002004 0.010028 0.000001 -0.006988 -0.000001
# 4 -0.000002 -0.000001 0.000001 0.062220 0.000000 -0.099254
# 5 -0.003119 -0.001319 -0.006988 0.000000 0.036038 0.000000
# 6 0.000004 0.000001 -0.000001 -0.099254 0.000000 0.250444
#
#
# Mechanical properties :
#
#
# Convention : Reuss Voigt Hill
#
# Bulk Modulus (GPa) = 31.65751 40.08383 35.87067
# Shear Modulus (GPa) = 12.33212 33.37656 22.85434
#
# Velocity S-wave (km/s) = 2.22896 3.66695 3.03437
# Velocity P-wave (km/s) = 4.40208 5.83758 5.16990
#
# Compressibility (1/GPa) = 0.03158808
#
# Stress axis : x y z
#
# Youngs Moduli (GPa) = 57.16240 87.88607 99.71639
#
# Poissons Ratio (x) = 0.20984 -0.07331
# Poissons Ratio (y) = 0.13648 0.19982
# Poissons Ratio (z) = -0.04203 0.17612
#
# Static dielectric constant tensor:
#      x y z
#    x 2.599630 0.000000 0.499870 
#    y 0.000000 2.154150 0.000000 
#    z 0.499870 0.000000 2.525960 
# 
# From -- ./inp_files/315518.got.cif
#   From: 2010.05.17/outbox.cif.g08.bks.cpg/sg15_158_cif.got.tgz:315518.got - 2010.06.03 18:47:42.
