data_PCOD9262420
_publ_section_title
;
Structure prediction by ZEFSAII (Michael W. Deem and Ramdas Pophale) SiO2 
 PCOD9262420
Probable space group: C 2/C
;
_chemical_formula_sum "Si O2"
_cell_formula_units_Z 60
_cell_length_a 24.184745
_cell_length_b 27.192145
_cell_length_c 5.717526
_cell_angle_alpha 90.000000
_cell_angle_beta 53.316605
_cell_angle_gamma 90.000000
_cell_volume 3015.364206
_symmetry_space_group_name_H-M "C 2/C"
_symmetry_group_IT_number 15
_symmetry_cell_setting 'monoclinic'
loop_
_space_group_symop_operation_xyz
x,y,z
-x,y,1/2-z
-x,-y,-z
x,-y,1/2+z
1/2+x,1/2+y,z
1/2-x,1/2+y,1/2-z
1/2-x,1/2-y,-z
1/2+x,1/2-y,1/2+z
loop_
_atom_site_type_symbol
_atom_site_label
_atom_site_fract_x
_atom_site_fract_y
_atom_site_fract_z
Si Si1 0.824092 0.777545 0.789697
Si Si2 0.167842 0.258909 0.731178
Si Si3 0.814440 0.016214 0.418148
Si Si4 0.134645 0.357901 0.629992
Si Si5 0.743013 0.380297 0.523425
Si Si6 0.500000 0.872660 0.750000
Si Si7 0.952712 0.546275 0.676688
Si Si8 0.314413 0.947595 0.725032
O O1 0.858432 0.759266 0.459462
O O2 0.750000 0.750000 0.000000
O O3 0.856844 0.765708 0.962987
O O4 0.808160 0.835329 0.802802
O O5 0.250000 0.250000 0.500000
O O6 0.155203 0.317228 0.769432
O O7 0.741817 0.987203 0.562063
O O8 0.847104 0.006045 0.075829
O O9 0.796353 0.073799 0.501341
O O10 0.193161 0.356812 0.281398
O O11 0.055982 0.344791 0.761117
O O12 0.144933 0.413347 0.695780
O O13 0.773958 0.407854 0.669787
O O14 0.552546 0.911230 0.496989
O O15 0.000000 0.572381 0.750000
O O16 0.000000 0.500000 0.500000
O O17 0.877734 0.527735 0.929037
#
# Coordination Sequence:
#
# PCOD9262420 Si02
#       8
#     8   8   8   8   8   4   8   8
#     4  10  19  33  51  77  90 110 148 197 263 291
#     4  10  20  34  56  74  90 113 150 203 255 298
#     4  10  22  32  46  69  91 125 162 195 243 286
#     4  12  22  36  51  66  94 121 159 208 254 301
#     4  11  21  32  51  68  95 117 154 211 251 293
#     4  12  26  36  44  68  88 126 160 202 260 298
#     4  12  25  34  46  58  86 123 174 214 244 280
#     4  11  23  34  48  65  91 130 168 209 248 290
#
# _framework density 19.898094
#
# number of rings (size 3 to 8) (size 9 to 14) (size 15 to 20)
#    0.000    1.067    7.333    1.600    5.600    0.000 
#    0.000    0.000    0.000    0.000    0.000    0.000 
#    0.000    0.000    0.000    0.000    0.000    0.000 
#
# Total GULP energy -167083.809543 kJ/mol
# GULP energy per Si atom -5569.460318 kJ/mol
# Density = 1.985280 g / cm^3
# Si number density = 19.898094 Si / 1000 Ang^3
#
#
#
# Elastic Constant Matrix: (Units=GPa)
#
#
# Indices 1 2 3 4 5 6 
#
# 1 37.3647 15.3584 14.7021 0.0000 20.9658 0.0000
# 2 15.3584 114.3226 10.6951 0.0000 2.7851 0.0000
# 3 14.7021 10.6951 49.1722 0.0000 30.0235 0.0000
# 4 0.0000 0.0000 0.0000 23.4060 0.0000 10.3880
# 5 20.9658 2.7851 30.0235 0.0000 27.8440 0.0000
# 6 0.0000 0.0000 0.0000 10.3880 0.0000 24.2057
#
#
#
# Elastic Compliance Matrix: (Units=1/GPa)
#
#
# Indices 1 2 3 4 5 6 
#
# 1 0.065445 -0.009996 0.035373 0.000000 -0.086420 0.000000
# 2 -0.009996 0.010575 -0.009546 0.000000 0.016762 0.000000
# 3 0.035373 -0.009546 0.080545 0.000000 -0.112529 0.000000
# 4 0.000000 0.000000 0.000000 0.052776 0.000000 -0.022649
# 5 -0.086420 0.016762 -0.112529 0.000000 0.220647 0.000000
# 6 0.000000 0.000000 0.000000 -0.022649 0.000000 0.051033
#
#
# Mechanical properties :
#
#
# Convention : Reuss Voigt Hill
#
# Bulk Modulus (GPa) = 5.31275 31.37453 18.34364
# Shear Modulus (GPa) = 9.76370 25.76470 17.76420
#
# Velocity S-wave (km/s) = 2.21755 3.60228 2.99115
# Velocity P-wave (km/s) = 3.03849 5.75359 4.60088
#
# Compressibility (1/GPa) = 0.18822637
#
# Stress axis : x y z
#
# Youngs Moduli (GPa) = 15.28003 94.56505 12.41547
#
# Poissons Ratio (x) = 0.94526 -0.43917
# Poissons Ratio (y) = 0.15274 0.11852
# Poissons Ratio (z) = -0.54050 0.90270
#
# Static dielectric constant tensor:
#      x y z
#    x 1.760690 0.000000 0.160680 
#    y 0.000000 1.756720 0.000000 
#    z 0.160680 0.000000 1.917220 
# 
# From -- ./inp_files/14402.got.cif
#   From: 2010.05.17/outbox.cif.g08.bks.cpg/sg15_8_cif.got.tgz:14402.got - 2010.06.03 18:47:42.
