data_PCOD9262933
_publ_section_title
;
Structure prediction by ZEFSAII (Michael W. Deem and Ramdas Pophale) SiO2 
 PCOD9262933
Probable space group: C 2/C
;
_chemical_formula_sum "Si O2"
_cell_formula_units_Z 36
_cell_length_a 22.317933
_cell_length_b 7.124041
_cell_length_c 9.411489
_cell_angle_alpha 90.000000
_cell_angle_beta 66.404867
_cell_angle_gamma 90.000000
_cell_volume 1371.267716
_symmetry_space_group_name_H-M "C 2/C"
_symmetry_group_IT_number 15
_symmetry_cell_setting 'monoclinic'
loop_
_space_group_symop_operation_xyz
x,y,z
-x,y,1/2-z
-x,-y,-z
x,-y,1/2+z
1/2+x,1/2+y,z
1/2-x,1/2+y,1/2-z
1/2-x,1/2-y,-z
1/2+x,1/2-y,1/2+z
loop_
_atom_site_type_symbol
_atom_site_label
_atom_site_fract_x
_atom_site_fract_y
_atom_site_fract_z
Si Si1 0.537170 0.387377 0.579969
Si Si2 0.677720 0.368022 0.533749
Si Si3 0.855480 0.437213 0.857951
Si Si4 0.500000 0.985852 0.250000
Si Si5 0.269407 0.037229 0.689330
O O1 0.500000 0.461283 0.750000
O O2 0.500000 0.500000 0.500000
O O3 0.611852 0.444452 0.528094
O O4 0.520562 0.163087 0.604649
O O5 0.654331 0.160357 0.601720
O O6 0.684036 0.147892 0.968575
O O7 0.711958 0.465515 0.636721
O O8 0.730701 0.372801 0.357996
O O9 0.933036 0.403639 0.781614
O O10 0.820699 0.413466 0.738111
#
# Coordination Sequence:
#
# PCOD9262933 Si02
#       5
#     8   8   8   4   8
#     4   9  17  32  58  79 105 144 179 224 280 316
#     4  10  20  36  55  83 114 139 183 227 276 324
#     4  10  21  39  56  81 111 146 186 221 277 318
#     4   8  20  36  60  72 112 150 174 228 266 322
#     4  10  19  33  58  79 110 150 175 224 273 327
#
# _framework density 26.253077999999999
#
# number of rings (size 3 to 8) (size 9 to 14) (size 15 to 20)
#    0.667    1.778    0.000    4.000    0.000    0.889 
#    0.000   17.778   19.556    0.000    0.000    0.000 
#    0.000    0.000    0.000    0.000    0.000    0.000 
#
# Total GULP energy -100330.291220 kJ/mol
# GULP energy per Si atom -5573.905068 kJ/mol
# Density = 2.619333 g / cm^3
# Si number density = 26.253078 Si / 1000 Ang^3
#
#
#
# Elastic Constant Matrix: (Units=GPa)
#
#
# Indices 1 2 3 4 5 6 
#
# 1 215.7315 8.2353 19.3051 0.0000 -15.3745 0.0000
# 2 8.2353 39.6988 -11.2251 0.0000 9.3726 0.0000
# 3 19.3051 -11.2251 111.1157 0.0000 14.8899 0.0000
# 4 0.0000 0.0000 0.0000 20.7347 0.0000 2.7542
# 5 -15.3745 9.3726 14.8899 0.0000 57.2316 0.0000
# 6 0.0000 0.0000 0.0000 2.7542 0.0000 33.4774
#
#
#
# Elastic Compliance Matrix: (Units=1/GPa)
#
#
# Indices 1 2 3 4 5 6 
#
# 1 0.004966 -0.001871 -0.001318 0.000000 0.001983 0.000000
# 2 -0.001871 0.028160 0.003994 0.000000 -0.006154 0.000000
# 3 -0.001318 0.003994 0.010120 0.000000 -0.003641 0.000000
# 4 0.000000 0.000000 0.000000 0.048761 0.000000 -0.004012
# 5 0.001983 -0.006154 -0.003641 0.000000 0.019961 0.000000
# 6 0.000000 0.000000 0.000000 -0.004012 0.000000 0.030201
#
#
# Mechanical properties :
#
#
# Convention : Reuss Voigt Hill
#
# Bulk Modulus (GPa) = 22.29264 44.35297 33.32280
# Shear Modulus (GPa) = 32.15233 45.63744 38.89489
#
# Velocity S-wave (km/s) = 3.50338 4.17389 3.85325
# Velocity P-wave (km/s) = 4.98746 6.33716 5.70238
#
# Compressibility (1/GPa) = 0.04485786
#
# Stress axis : x y z
#
# Youngs Moduli (GPa) = 201.36683 35.51131 98.81448
#
# Poissons Ratio (x) = 0.06644 0.13020
# Poissons Ratio (y) = 0.37675 -0.39471
# Poissons Ratio (z) = 0.26532 -0.14185
#
# Static dielectric constant tensor:
#      x y z
#    x 2.030660 0.000000 -0.047310 
#    y 0.000000 2.253220 0.000000 
#    z -0.047310 0.000000 2.022060 
# 
# From -- ./inp_files/64512.got.cif
#   From: 2010.05.17/outbox.cif.g08.bks.cpg/sg15_33_cif.got.tgz:64512.got - 2010.06.03 18:47:42.
