data_PCOD9263583
_publ_section_title
;
Structure prediction by ZEFSAII (Michael W. Deem and Ramdas Pophale) SiO2 
 PCOD9263583
Probable space group: C 2/C
;
_chemical_formula_sum "Si O2"
_cell_formula_units_Z 56
_cell_length_a 27.346421
_cell_length_b 11.381311
_cell_length_c 21.327198
_cell_angle_alpha 90.000000
_cell_angle_beta 27.850886
_cell_angle_gamma 90.000000
_cell_volume 3101.012129
_symmetry_space_group_name_H-M "C 2/C"
_symmetry_group_IT_number 15
_symmetry_cell_setting 'monoclinic'
loop_
_space_group_symop_operation_xyz
x,y,z
-x,y,1/2-z
-x,-y,-z
x,-y,1/2+z
1/2+x,1/2+y,z
1/2-x,1/2+y,1/2-z
1/2-x,1/2-y,-z
1/2+x,1/2-y,1/2+z
loop_
_atom_site_type_symbol
_atom_site_label
_atom_site_fract_x
_atom_site_fract_y
_atom_site_fract_z
Si Si1 0.265735 0.699303 0.342018
Si Si2 0.921921 0.049329 0.245003
Si Si3 0.119018 0.845218 0.304938
Si Si4 0.756400 0.614297 0.334436
Si Si5 0.653705 0.580936 0.027582
Si Si6 0.190780 0.487058 0.352277
Si Si7 0.099551 0.253886 0.431300
O O1 0.360663 0.644379 0.273370
O O2 0.205558 0.795204 0.450952
O O3 0.191677 0.592426 0.401820
O O4 0.319833 0.752366 0.218330
O O5 0.873099 0.058423 0.369681
O O6 0.044731 0.072664 0.113231
O O7 0.904237 0.927208 0.228315
O O8 0.175019 0.724486 0.222394
O O9 0.199397 0.917607 0.258220
O O10 0.011328 0.803863 0.459463
O O11 0.729725 0.521113 0.417263
O O12 0.807464 0.547319 0.217499
O O13 0.650722 0.671570 0.426175
O O14 0.101479 0.387440 0.454585
#
# Coordination Sequence:
#
# PCOD9263583 Si02
#       7
#     8   8   8   8   8   8   8
#     4  10  21  35  59  84 116 151 182 239 282 343
#     4  10  23  38  61  79 109 157 194 234 273 340
#     4  10  21  36  57  85 111 150 191 229 290 340
#     4  10  20  34  56  83 114 143 184 240 278 341
#     4  11  21  40  58  83 111 149 199 231 280 335
#     4   9  20  35  53  87 116 149 175 237 293 334
#     4  10  19  34  58  83 116 143 184 232 289 344
#
# _framework density 18.058620000000001
#
# number of rings (size 3 to 8) (size 9 to 14) (size 15 to 20)
#    0.000    2.000    2.857    0.429    2.000    2.857 
#    2.571    0.000    0.000    0.000    0.000    0.000 
#    0.000    0.000    0.000    0.000    0.000    0.000 
#
# Total GULP energy -156151.411801 kJ/mol
# GULP energy per Si atom -5576.836136 kJ/mol
# Density = 1.801752 g / cm^3
# Si number density = 18.058620 Si / 1000 Ang^3
#
#
#
# Elastic Constant Matrix: (Units=GPa)
#
#
# Indices 1 2 3 4 5 6 
#
# 1 62.6268 31.6252 13.5173 0.0000 -1.4565 0.0000
# 2 31.6252 123.6931 33.5210 0.0000 0.2877 0.0000
# 3 13.5173 33.5210 45.9372 0.0000 -0.1365 0.0000
# 4 0.0000 0.0000 0.0000 22.6422 0.0000 -0.0844
# 5 -1.4565 0.2877 -0.1365 0.0000 14.9491 0.0000
# 6 0.0000 0.0000 0.0000 -0.0844 0.0000 20.0272
#
#
#
# Elastic Compliance Matrix: (Units=1/GPa)
#
#
# Indices 1 2 3 4 5 6 
#
# 1 0.018613 -0.004089 -0.002488 0.000000 0.001869 0.000000
# 2 -0.004089 0.010977 -0.006809 0.000000 -0.000672 0.000000
# 3 -0.002488 -0.006809 0.027470 0.000000 0.000140 0.000000
# 4 0.000000 0.000000 0.000000 0.044166 0.000000 0.000186
# 5 0.001869 -0.000672 0.000140 0.000000 0.067090 0.000000
# 6 0.000000 0.000000 0.000000 0.000186 0.000000 0.049933
#
#
# Mechanical properties :
#
#
# Convention : Reuss Voigt Hill
#
# Bulk Modulus (GPa) = 33.01561 43.28712 38.15136
# Shear Modulus (GPa) = 19.59905 21.76329 20.68117
#
# Velocity S-wave (km/s) = 3.29797 3.47529 3.38779
# Velocity P-wave (km/s) = 5.72925 6.33450 6.03946
#
# Compressibility (1/GPa) = 0.03028871
#
# Stress axis : x y z
#
# Youngs Moduli (GPa) = 53.72624 91.10203 36.40394
#
# Poissons Ratio (x) = 0.37252 0.09056
# Poissons Ratio (y) = 0.21969 0.24786
# Poissons Ratio (z) = 0.13365 0.62028
#
# Static dielectric constant tensor:
#      x y z
#    x 1.612100 0.000000 -0.017810 
#    y 0.000000 1.633370 0.000000 
#    z -0.017810 0.000000 1.616160 
# 
# From -- ./inp_files/257376.got.cif
#   From: 2010.05.17/outbox.cif.g08.bks.cpg/sg15_129_cif.got.tgz:257376.got - 2010.06.03 18:47:42.
