data_PCOD9263168
_publ_section_title
;
Structure prediction by ZEFSAII (Michael W. Deem and Ramdas Pophale) SiO2 
 PCOD9263168
Probable space group: C 2/C
;
_chemical_formula_sum "Si O2"
_cell_formula_units_Z 48
_cell_length_a 14.768763
_cell_length_b 25.640941
_cell_length_c 5.613094
_cell_angle_alpha 90.000000
_cell_angle_beta 66.711570
_cell_angle_gamma 90.000000
_cell_volume 1952.414219
_symmetry_space_group_name_H-M "C 2/C"
_symmetry_group_IT_number 15
_symmetry_cell_setting 'monoclinic'
loop_
_space_group_symop_operation_xyz
x,y,z
-x,y,1/2-z
-x,-y,-z
x,-y,1/2+z
1/2+x,1/2+y,z
1/2-x,1/2+y,1/2-z
1/2-x,1/2-y,-z
1/2+x,1/2-y,1/2+z
loop_
_atom_site_type_symbol
_atom_site_label
_atom_site_fract_x
_atom_site_fract_y
_atom_site_fract_z
Si Si1 0.128630 0.081809 0.982445
Si Si2 0.223136 0.818478 0.867820
Si Si3 0.685473 0.985901 0.209216
Si Si4 0.867549 0.934577 0.520331
Si Si5 0.137527 0.203177 0.957492
Si Si6 0.450401 0.809545 0.547880
O O1 0.248865 0.068193 0.855653
O O2 0.086648 0.059214 0.784390
O O3 0.106002 0.143089 0.999593
O O4 0.089979 0.058402 0.264931
O O5 0.169480 0.874378 0.934468
O O6 0.179065 0.788015 0.682626
O O7 0.337114 0.826850 0.686559
O O8 0.209012 0.795554 0.149450
O O9 0.632335 0.000644 0.513723
O O10 0.773769 0.027809 0.113910
O O11 0.057599 0.246536 0.973328
O O12 0.500000 0.822209 0.750000
O O13 0.500000 0.829290 0.250000
#
# Coordination Sequence:
#
# PCOD9263168 Si02
#       6
#     8   8   8   8   8   8
#     4   8  14  23  40  64  92 116 146 189 240 282
#     4  10  19  34  53  72  96 130 168 206 249 294
#     4   8  12  20  34  60  94 114 134 184 244 278
#     4   8  14  23  40  64  92 116 146 189 240 282
#     4  10  19  34  53  72  96 130 168 206 249 294
#     4  12  24  36  50  72 102 134 170 208 248 294
#
# _framework density 24.584948000000001
#
# number of rings (size 3 to 8) (size 9 to 14) (size 15 to 20)
#    0.000    2.667    0.000    3.000    0.000    0.000 
#    0.000    0.000    0.000    0.000    0.000    0.000 
#    0.000  200.000    0.000    0.000    0.000    0.000 
#
# Total GULP energy -133800.722888 kJ/mol
# GULP energy per Si atom -5575.030120 kJ/mol
# Density = 2.452899 g / cm^3
# Si number density = 24.584948 Si / 1000 Ang^3
#
#
#
# Elastic Constant Matrix: (Units=GPa)
#
#
# Indices 1 2 3 4 5 6 
#
# 1 72.9844 -23.0895 70.2500 0.0000 35.1910 0.0000
# 2 -23.0895 60.8591 -0.0273 0.0000 11.2579 0.0000
# 3 70.2500 -0.0273 248.2020 0.0000 49.4480 0.0000
# 4 0.0000 0.0000 0.0000 14.6686 0.0000 21.7500
# 5 35.1910 11.2579 49.4480 0.0000 52.0207 0.0000
# 6 0.0000 0.0000 0.0000 21.7500 0.0000 -12.2456
#
#
#
# Elastic Compliance Matrix: (Units=1/GPa)
#
#
# Indices 1 2 3 4 5 6 
#
# 1 0.035503 0.017639 -0.005553 0.000000 -0.022556 0.000000
# 2 0.017639 0.026050 -0.001837 0.000000 -0.015824 0.000000
# 3 -0.005553 -0.001837 0.005888 0.000000 -0.001443 0.000000
# 4 0.000000 0.000000 0.000000 0.018762 0.000000 0.033324
# 5 -0.022556 -0.015824 -0.001443 0.000000 0.039278 0.000000
# 6 0.000000 0.000000 0.000000 0.033324 0.000000 -0.022474
#
#
# Mechanical properties :
#
#
# Convention : Reuss Voigt Hill
#
# Bulk Modulus (GPa) = 11.37149 52.92355 32.14752
# Shear Modulus (GPa) = 44.71464 33.21622 38.96543
#
# Velocity S-wave (km/s) = 4.26934 3.67969 3.98544
# Velocity P-wave (km/s) = 5.37945 6.29500 5.85515
#
# Compressibility (1/GPa) = 0.08793919
#
# Stress axis : x y z
#
# Youngs Moduli (GPa) = 28.16686 38.38775 169.84132
#
# Poissons Ratio (x) = -0.67714 0.94311
# Poissons Ratio (y) = -0.49685 0.31204
# Poissons Ratio (z) = 0.15641 0.07053
#
# Static dielectric constant tensor:
#      x y z
#    x 2.009820 0.000000 0.019750 
#    y 0.000000 1.975090 0.000000 
#    z 0.019750 0.000000 2.064140 
# 
# From -- ./inp_files/8951.got.cif
#   From: 2010.05.17/outbox.cif.g08.bks.cpg/sg15_5_cif.got.tgz:8951.got - 2010.06.03 18:47:42.
