data_PCOD9263457
_publ_section_title
;
Structure prediction by ZEFSAII (Michael W. Deem and Ramdas Pophale) SiO2 
 PCOD9263457
Probable space group: C 2/C
;
_chemical_formula_sum "Si O2"
_cell_formula_units_Z 44
_cell_length_a 9.705270
_cell_length_b 9.300298
_cell_length_c 23.337911
_cell_angle_alpha 90.000000
_cell_angle_beta 129.817466
_cell_angle_gamma 90.000000
_cell_volume 1617.996761
_symmetry_space_group_name_H-M "C 2/C"
_symmetry_group_IT_number 15
_symmetry_cell_setting 'monoclinic'
loop_
_space_group_symop_operation_xyz
x,y,z
-x,y,1/2-z
-x,-y,-z
x,-y,1/2+z
1/2+x,1/2+y,z
1/2-x,1/2+y,1/2-z
1/2-x,1/2-y,-z
1/2+x,1/2-y,1/2+z
loop_
_atom_site_type_symbol
_atom_site_label
_atom_site_fract_x
_atom_site_fract_y
_atom_site_fract_z
Si Si1 0.614607 0.813548 0.144830
Si Si2 0.189606 0.584911 0.095806
Si Si3 0.410809 0.666448 0.811357
Si Si4 0.436340 0.531654 0.057111
Si Si5 0.500000 0.408823 0.750000
Si Si6 0.377518 0.075625 0.090609
O O1 0.705572 0.921591 0.123650
O O2 0.738708 0.771194 0.231414
O O3 0.543458 0.679367 0.090624
O O4 0.463860 0.922060 0.129493
O O5 0.265026 0.580699 0.052602
O O6 0.332722 0.667790 0.174555
O O7 0.987181 0.619304 0.060603
O O8 0.442101 0.591311 0.881283
O O9 0.431225 0.519311 0.779951
O O10 0.552747 0.799277 0.848992
O O11 0.328899 0.458856 0.976310
#
# Coordination Sequence:
#
# PCOD9263457 Si02
#       6
#     8   8   8   8   4   8
#     4   9  20  34  56  79 108 148 189 225 277 340
#     4   8  19  32  56  80 106 141 190 222 275 335
#     4  10  19  34  57  79 107 145 188 228 281 337
#     4  11  19  35  60  78 112 151 182 231 290 336
#     4   8  16  34  54  74  98 150 176 218 274 334
#     4  10  20  34  54  85 112 140 187 237 281 334
#
# _framework density 27.194120999999999
#
# number of rings (size 3 to 8) (size 9 to 14) (size 15 to 20)
#    1.091    1.455    0.000    2.727    2.545    0.000 
#    0.000    0.000   16.000   10.909    0.000    0.000 
#    0.000    0.000    0.000    0.000    0.000    0.000 
#
# Total GULP energy -122576.513353 kJ/mol
# GULP energy per Si atom -5571.659698 kJ/mol
# Density = 2.713223 g / cm^3
# Si number density = 27.194121 Si / 1000 Ang^3
#
#
#
# Elastic Constant Matrix: (Units=GPa)
#
#
# Indices 1 2 3 4 5 6 
#
# 1 31.5461 15.0964 -2.3488 0.0000 12.8211 0.0000
# 2 15.0964 142.4977 41.5145 0.0000 3.3549 0.0000
# 3 -2.3488 41.5145 134.6299 0.0000 26.9717 0.0000
# 4 0.0000 0.0000 0.0000 38.8804 0.0000 4.1589
# 5 12.8211 3.3549 26.9717 0.0000 39.2956 0.0000
# 6 0.0000 0.0000 0.0000 4.1589 0.0000 35.2773
#
#
#
# Elastic Compliance Matrix: (Units=1/GPa)
#
#
# Indices 1 2 3 4 5 6 
#
# 1 0.041938 -0.005777 0.005978 0.000000 -0.017293 0.000000
# 2 -0.005777 0.008550 -0.003442 0.000000 0.003517 0.000000
# 3 0.005978 -0.003442 0.010348 0.000000 -0.008759 0.000000
# 4 0.000000 0.000000 0.000000 0.026048 0.000000 -0.003071
# 5 -0.017293 0.003517 -0.008759 0.000000 0.036802 0.000000
# 6 0.000000 0.000000 0.000000 -0.003071 0.000000 0.028709
#
#
# Mechanical properties :
#
#
# Convention : Reuss Voigt Hill
#
# Bulk Modulus (GPa) = 18.39848 46.35532 32.37690
# Shear Modulus (GPa) = 28.24934 39.65144 33.95039
#
# Velocity S-wave (km/s) = 3.22654 3.82264 3.53717
# Velocity P-wave (km/s) = 4.54545 6.04702 5.34918
#
# Compressibility (1/GPa) = 0.05435232
#
# Stress axis : x y z
#
# Youngs Moduli (GPa) = 23.84497 116.96425 96.63505
#
# Poissons Ratio (x) = 0.67573 -0.57764
# Poissons Ratio (y) = 0.13776 0.33260
# Poissons Ratio (z) = -0.14253 0.40257
#
# Static dielectric constant tensor:
#      x y z
#    x 2.373740 0.000000 0.025980 
#    y 0.000000 2.087410 0.000000 
#    z 0.025980 0.000000 2.230740 
# 
# From -- ./inp_files/312734.got.cif
#   From: 2010.05.17/outbox.cif.g08.bks.cpg/sg15_157_cif.got.tgz:312734.got - 2010.06.03 18:47:42.
