data_PCOD9263754
_publ_section_title
;
Structure prediction by ZEFSAII (Michael W. Deem and Ramdas Pophale) SiO2 
 PCOD9263754
Probable space group: C 2/C
;
_chemical_formula_sum "Si O2"
_cell_formula_units_Z 56
_cell_length_a 25.813196
_cell_length_b 19.043406
_cell_length_c 8.353862
_cell_angle_alpha 90.000000
_cell_angle_beta 46.812129
_cell_angle_gamma 90.000000
_cell_volume 2994.117612
_symmetry_space_group_name_H-M "C 2/C"
_symmetry_group_IT_number 15
_symmetry_cell_setting 'monoclinic'
loop_
_space_group_symop_operation_xyz
x,y,z
-x,y,1/2-z
-x,-y,-z
x,-y,1/2+z
1/2+x,1/2+y,z
1/2-x,1/2+y,1/2-z
1/2-x,1/2-y,-z
1/2+x,1/2-y,1/2+z
loop_
_atom_site_type_symbol
_atom_site_label
_atom_site_fract_x
_atom_site_fract_y
_atom_site_fract_z
Si Si1 0.027874 0.760310 0.510727
Si Si2 0.062989 0.603103 0.383961
Si Si3 0.500000 0.999375 0.250000
Si Si4 0.731437 0.531812 0.980831
Si Si5 0.000000 0.849555 0.250000
Si Si6 0.811137 0.807021 0.376399
Si Si7 0.346433 0.412560 0.563304
Si Si8 0.288065 0.909888 0.067329
O O1 0.021709 0.676242 0.495828
O O2 0.996487 0.802037 0.421133
O O3 0.111416 0.779763 0.330603
O O4 0.000000 0.777141 0.750000
O O5 0.058185 0.554119 0.551810
O O6 0.030988 0.551574 0.317322
O O7 0.141662 0.622782 0.156476
O O8 0.682116 0.578392 0.197834
O O9 0.777861 0.482687 0.996815
O O10 0.681930 0.480622 0.975898
O O11 0.786275 0.575028 0.757518
O O12 0.930278 0.898207 0.383768
O O13 0.750000 0.750000 0.500000
O O14 0.813906 0.845080 0.542439
O O15 0.783225 0.866518 0.315594
#
# Coordination Sequence:
#
# PCOD9263754 Si02
#       8
#     8   8   4   8   4   8   8   8
#     4  11  23  40  61  85 118 163 196 244 299 352
#     4  11  20  38  55  82 112 151 195 243 295 349
#     4  10  23  34  56  82 113 148 196 242 296 358
#     4   9  19  36  56  87 113 145 188 240 298 346
#     4  10  23  40  58  88 121 156 200 242 290 362
#     4  10  20  38  58  83 113 153 197 239 291 348
#     4   9  20  37  59  84 118 151 192 245 292 354
#     4  10  19  34  60  80 114 147 188 241 288 344
#
# _framework density 18.703340000000001
#
# number of rings (size 3 to 8) (size 9 to 14) (size 15 to 20)
#    0.000    2.000    2.143    1.286    2.000    0.571 
#    0.000    3.571    0.000    0.000    0.000    0.000 
#    0.000    0.000    0.000    0.000    0.000    0.000 
#
# Total GULP energy -155959.068140 kJ/mol
# GULP energy per Si atom -5569.966719 kJ/mol
# Density = 1.866077 g / cm^3
# Si number density = 18.703340 Si / 1000 Ang^3
#
#
#
# Elastic Constant Matrix: (Units=GPa)
#
#
# Indices 1 2 3 4 5 6 
#
# 1 48.8525 6.8006 37.0990 0.0000 6.6939 0.0000
# 2 6.8006 37.4727 38.6768 0.0000 7.6685 0.0000
# 3 37.0990 38.6768 114.5628 0.0000 20.3793 0.0000
# 4 0.0000 0.0000 0.0000 29.3914 0.0000 -6.5079
# 5 6.6939 7.6685 20.3793 0.0000 31.3640 0.0000
# 6 0.0000 0.0000 0.0000 -6.5079 0.0000 6.0499
#
#
#
# Elastic Compliance Matrix: (Units=1/GPa)
#
#
# Indices 1 2 3 4 5 6 
#
# 1 0.028174 0.006614 -0.011306 0.000000 -0.000284 0.000000
# 2 0.006614 0.042548 -0.016287 0.000000 -0.001232 0.000000
# 3 -0.011306 -0.016287 0.018940 0.000000 -0.005912 0.000000
# 4 0.000000 0.000000 0.000000 0.044661 0.000000 0.048041
# 5 -0.000284 -0.001232 -0.005912 0.000000 0.036087 0.000000
# 6 0.000000 0.000000 0.000000 0.048041 0.000000 0.216969
#
#
# Mechanical properties :
#
#
# Convention : Reuss Voigt Hill
#
# Bulk Modulus (GPa) = 20.96232 40.67119 30.81676
# Shear Modulus (GPa) = 11.22994 21.24853 16.23923
#
# Velocity S-wave (km/s) = 2.45301 3.37424 2.94981
# Velocity P-wave (km/s) = 4.38807 6.08056 5.30228
#
# Compressibility (1/GPa) = 0.04770463
#
# Stress axis : x y z
#
# Youngs Moduli (GPa) = 35.49394 23.50263 52.79731
#
# Poissons Ratio (x) = -0.15546 0.59693
# Poissons Ratio (y) = -0.23477 0.85993
# Poissons Ratio (z) = 0.40130 0.38280
#
# Static dielectric constant tensor:
#      x y z
#    x 1.681760 0.000000 0.011870 
#    y 0.000000 1.677050 0.000000 
#    z 0.011870 0.000000 1.658080 
# 
# From -- ./inp_files/49053.got.cif
#   From: 2010.05.17/outbox.cif.g08.bks.cpg/sg15_25_cif.got.tgz:49053.got - 2010.06.03 18:47:42.
