data_PCOD9263584
_publ_section_title
;
Structure prediction by ZEFSAII (Michael W. Deem and Ramdas Pophale) SiO2 
 PCOD9263584
Probable space group: C 2/C
;
_chemical_formula_sum "Si O2"
_cell_formula_units_Z 64
_cell_length_a 14.848995
_cell_length_b 25.479364
_cell_length_c 17.824604
_cell_angle_alpha 90.000000
_cell_angle_beta 152.394589
_cell_angle_gamma 90.000000
_cell_volume 3124.946329
_symmetry_space_group_name_H-M "C 2/C"
_symmetry_group_IT_number 15
_symmetry_cell_setting 'monoclinic'
loop_
_space_group_symop_operation_xyz
x,y,z
-x,y,1/2-z
-x,-y,-z
x,-y,1/2+z
1/2+x,1/2+y,z
1/2-x,1/2+y,1/2-z
1/2-x,1/2-y,-z
1/2+x,1/2-y,1/2+z
loop_
_atom_site_type_symbol
_atom_site_label
_atom_site_fract_x
_atom_site_fract_y
_atom_site_fract_z
Si Si1 0.179558 0.376975 0.528804
Si Si2 0.558930 0.594195 0.407874
Si Si3 0.596311 0.055050 0.587945
Si Si4 0.554185 0.323097 0.560757
Si Si5 0.368057 0.631200 0.537304
Si Si6 0.892704 0.284131 0.919734
Si Si7 0.031391 0.020185 0.938441
Si Si8 0.702562 0.148332 0.572802
O O1 0.268194 0.379689 0.511828
O O2 0.357289 0.397017 0.713439
O O3 0.123396 0.319510 0.517318
O O4 0.001243 0.416198 0.413064
O O5 0.531515 0.623763 0.466555
O O6 0.591395 0.532234 0.438824
O O7 0.819357 0.040858 0.760467
O O8 0.577510 0.098057 0.508122
O O9 0.500000 0.000000 0.500000
O O10 0.645601 0.335052 0.547780
O O11 0.715507 0.301051 0.736296
O O12 0.395872 0.277460 0.436222
O O13 0.341013 0.570708 0.490233
O O14 0.229580 0.646521 0.503774
O O15 0.585988 0.641600 0.732000
O O16 0.089835 0.301784 0.022540
O O17 0.000000 0.000000 0.000000
#
# Coordination Sequence:
#
# PCOD9263584 Si02
#       8
#     8   8   8   8   8   8   8   8
#     4   9  20  37  60  87 116 150 201 236 278 347
#     4  10  20  36  60  89 117 153 193 236 289 342
#     4  10  19  34  58  83 117 159 193 228 275 341
#     4  11  22  39  62  83 114 153 192 241 298 341
#     4  10  21  37  60  87 117 154 190 235 287 346
#     4  10  22  40  61  85 113 151 192 246 291 339
#     4  11  21  35  57  86 126 155 186 234 288 340
#     4   9  21  37  58  88 114 147 198 234 285 344
#
# _framework density 20.480352
#
# number of rings (size 3 to 8) (size 9 to 14) (size 15 to 20)
#    0.000    2.000    2.500    0.750    1.750    2.500 
#    0.000    0.625    0.000    0.000    0.000    0.000 
#    0.000    0.000    0.000    0.000    0.000    0.000 
#
# Total GULP energy -178584.569205 kJ/mol
# GULP energy per Si atom -5580.767788 kJ/mol
# Density = 2.043374 g / cm^3
# Si number density = 20.480352 Si / 1000 Ang^3
#
#
#
# Elastic Constant Matrix: (Units=GPa)
#
#
# Indices 1 2 3 4 5 6 
#
# 1 99.5836 1.2213 7.4957 0.0001 1.2198 0.0002
# 2 1.2213 80.2558 10.4661 0.0001 0.3729 0.0002
# 3 7.4957 10.4661 12.1279 0.0001 -2.2758 0.0001
# 4 0.0001 0.0001 0.0001 21.2235 0.0001 -0.7901
# 5 1.2198 0.3729 -2.2758 0.0001 22.4724 0.0001
# 6 0.0002 0.0002 0.0001 -0.7901 0.0001 12.9496
#
#
#
# Elastic Compliance Matrix: (Units=1/GPa)
#
#
# Indices 1 2 3 4 5 6 
#
# 1 0.010615 0.000826 -0.007527 0.000000 -0.001352 0.000000
# 2 0.000826 0.014154 -0.013025 0.000000 -0.001599 0.000000
# 3 -0.007527 -0.013025 0.100371 -0.000001 0.010789 -0.000001
# 4 0.000000 0.000000 -0.000001 0.047225 0.000000 0.002881
# 5 -0.001352 -0.001599 0.010789 0.000000 0.045692 -0.000001
# 6 0.000000 0.000000 -0.000001 0.002881 -0.000001 0.077398
#
#
# Mechanical properties :
#
#
# Convention : Reuss Voigt Hill
#
# Bulk Modulus (GPa) = 11.67028 25.59262 18.63145
# Shear Modulus (GPa) = 13.75636 22.84806 18.30221
#
# Velocity S-wave (km/s) = 2.59450 3.34370 2.99264
# Velocity P-wave (km/s) = 3.83222 5.23740 4.58892
#
# Compressibility (1/GPa) = 0.08568777
#
# Stress axis : x y z
#
# Youngs Moduli (GPa) = 94.20780 70.65357 9.96302
#
# Poissons Ratio (x) = -0.05839 0.07500
# Poissons Ratio (y) = -0.07785 0.12977
# Poissons Ratio (z) = 0.70914 0.92025
#
# Static dielectric constant tensor:
#      x y z
#    x 1.735010 0.000000 -0.000320 
#    y 0.000000 1.728380 0.000000 
#    z -0.000320 0.000000 1.738360 
# 
# From -- ./inp_files/207386.got.cif
#   From: 2010.05.17/outbox.cif.g08.bks.cpg/sg15_104_cif.got.tgz:207386.got - 2010.06.03 18:47:42.
