data_PCOD9263259
_publ_section_title
;
Structure prediction by ZEFSAII (Michael W. Deem and Ramdas Pophale) SiO2 
 PCOD9263259
Probable space group: C 2/C
;
_chemical_formula_sum "Si O2"
_cell_formula_units_Z 56
_cell_length_a 16.691106
_cell_length_b 23.415144
_cell_length_c 5.383485
_cell_angle_alpha 90.000000
_cell_angle_beta 106.104607
_cell_angle_gamma 90.000000
_cell_volume 2021.431115
_symmetry_space_group_name_H-M "C 2/C"
_symmetry_group_IT_number 15
_symmetry_cell_setting 'monoclinic'
loop_
_space_group_symop_operation_xyz
x,y,z
-x,y,1/2-z
-x,-y,-z
x,-y,1/2+z
1/2+x,1/2+y,z
1/2-x,1/2+y,1/2-z
1/2-x,1/2-y,-z
1/2+x,1/2-y,1/2+z
loop_
_atom_site_type_symbol
_atom_site_label
_atom_site_fract_x
_atom_site_fract_y
_atom_site_fract_z
Si Si1 0.721323 0.338130 0.675482
Si Si2 0.116063 0.526381 0.971134
Si Si3 0.229038 0.949439 0.386190
Si Si4 0.947883 0.796207 0.463549
Si Si5 0.856977 0.729949 0.022997
Si Si6 0.555608 0.572580 0.544661
Si Si7 0.349260 0.136084 0.700019
O O1 0.699601 0.402904 0.575557
O O2 0.773115 0.306619 0.499666
O O3 0.651748 0.289245 0.634499
O O4 0.775567 0.338381 0.968520
O O5 0.082470 0.496945 0.697776
O O6 0.103381 0.593863 0.946548
O O7 0.216028 0.507415 0.039497
O O8 0.143243 0.960080 0.161345
O O9 0.303481 0.910100 0.337481
O O10 0.885903 0.747055 0.322374
O O11 0.916029 0.861175 0.464791
O O12 0.000000 0.798790 0.250000
O O13 0.000000 0.783270 0.750000
O O14 0.902337 0.682277 0.896360
O O15 0.500000 0.568344 0.750000
O O16 0.500000 0.558723 0.250000
#
# Coordination Sequence:
#
# PCOD9263259 Si02
#       7
#     8   8   8   8   8   8   8
#     4  10  19  34  54  85 116 150 185 240 298 351
#     4  10  20  35  56  80 110 147 188 233 291 346
#     4  10  20  35  56  81 113 151 198 241 293 342
#     4  10  22  37  55  80 115 161 198 234 276 339
#     4  10  21  34  53  86 119 152 191 237 293 354
#     4  10  22  36  55  79 110 154 205 246 281 331
#     4  10  21  33  56  83 113 152 189 240 299 357
#
# _framework density 27.703143000000001
#
# number of rings (size 3 to 8) (size 9 to 14) (size 15 to 20)
#    0.000    2.000    2.857    0.429    4.000    1.143 
#    0.000    0.000    0.000   10.286    0.000    0.000 
#    0.000   30.857    0.000    0.000    0.000    0.000 
#
# Total GULP energy -156310.705691 kJ/mol
# GULP energy per Si atom -5582.525203 kJ/mol
# Density = 2.764009 g / cm^3
# Si number density = 27.703143 Si / 1000 Ang^3
#
#
#
# Elastic Constant Matrix: (Units=GPa)
#
#
# Indices 1 2 3 4 5 6 
#
# 1 74.3898 14.0245 1.5240 0.0000 3.1938 0.0000
# 2 14.0245 165.8528 59.4047 0.0000 13.3948 0.0000
# 3 1.5240 59.4047 184.8759 0.0000 12.5962 0.0000
# 4 0.0000 0.0000 0.0000 21.5865 0.0000 30.5809
# 5 3.1938 13.3948 12.5962 0.0000 36.0084 0.0000
# 6 0.0000 0.0000 0.0000 30.5809 0.0000 -4.5005
#
#
#
# Elastic Compliance Matrix: (Units=1/GPa)
#
#
# Indices 1 2 3 4 5 6 
#
# 1 0.013701 -0.001207 0.000335 0.000000 -0.000883 0.000000
# 2 -0.001207 0.007037 -0.002131 0.000000 -0.001765 0.000000
# 3 0.000335 -0.002131 0.006186 0.000000 -0.001401 0.000000
# 4 0.000000 0.000000 0.000000 0.004360 0.000000 0.029623
# 5 -0.000883 -0.001765 -0.001401 0.000000 0.028996 0.000000
# 6 0.000000 0.000000 0.000000 0.029623 0.000000 -0.020910
#
#
# Mechanical properties :
#
#
# Convention : Reuss Voigt Hill
#
# Bulk Modulus (GPa) = 47.80359 63.89165 55.84762
# Shear Modulus (GPa) = 95.51021 33.96321 64.73671
#
# Velocity S-wave (km/s) = 5.87802 3.50518 4.83929
# Velocity P-wave (km/s) = 7.95998 6.28449 7.17134
#
# Compressibility (1/GPa) = 0.02091893
#
# Stress axis : x y z
#
# Youngs Moduli (GPa) = 72.98538 142.09801 161.64269
#
# Poissons Ratio (x) = 0.17155 -0.05418
# Poissons Ratio (y) = 0.08811 0.34447
# Poissons Ratio (z) = -0.02446 0.30282
#
# Static dielectric constant tensor:
#      x y z
#    x 2.418380 0.000000 -0.186120 
#    y 0.000000 2.320220 0.000000 
#    z -0.186120 0.000000 2.735440 
# 
# From -- ./inp_files/14165.got.cif
#   From: 2010.05.17/outbox.cif.g08.bks.cpg/sg15_8_cif.got.tgz:14165.got - 2010.06.03 18:47:42.
