data_PCOD9263922
_publ_section_title
;
Structure prediction by ZEFSAII (Michael W. Deem and Ramdas Pophale) SiO2 
 PCOD9263922
Probable space group: C 2/C
;
_chemical_formula_sum "Si O2"
_cell_formula_units_Z 52
_cell_length_a 21.492565
_cell_length_b 8.356714
_cell_length_c 13.909298
_cell_angle_alpha 90.000000
_cell_angle_beta 79.251948
_cell_angle_gamma 90.000000
_cell_volume 2454.383573
_symmetry_space_group_name_H-M "C 2/C"
_symmetry_group_IT_number 15
_symmetry_cell_setting 'monoclinic'
loop_
_space_group_symop_operation_xyz
x,y,z
-x,y,1/2-z
-x,-y,-z
x,-y,1/2+z
1/2+x,1/2+y,z
1/2-x,1/2+y,1/2-z
1/2-x,1/2-y,-z
1/2+x,1/2-y,1/2+z
loop_
_atom_site_type_symbol
_atom_site_label
_atom_site_fract_x
_atom_site_fract_y
_atom_site_fract_z
Si Si1 0.386028 0.648099 0.911281
Si Si2 0.637167 0.958345 0.331005
Si Si3 0.749831 0.923163 0.446720
Si Si4 0.500000 0.543251 0.750000
Si Si5 0.948364 0.356656 0.511374
Si Si6 0.351300 0.982048 0.397544
Si Si7 0.555238 0.350032 0.912565
O O1 0.322568 0.557329 0.895922
O O2 0.444324 0.634067 0.822020
O O3 0.372930 0.838563 0.922234
O O4 0.401029 0.584280 0.014172
O O5 0.701896 0.931600 0.371239
O O6 0.592172 0.806554 0.363381
O O7 0.598689 0.110066 0.386234
O O8 0.650054 0.974732 0.215499
O O9 0.750000 0.750000 0.500000
O O10 0.717277 0.040597 0.533799
O O11 0.534715 0.445301 0.824729
O O12 0.904102 0.370366 0.430270
O O13 0.000000 0.500000 0.500000
O O14 0.991732 0.202411 0.488481
#
# Coordination Sequence:
#
# PCOD9263922 Si02
#       7
#     8   8   8   4   8   8   8
#     4  11  23  41  59  80 122 163 193 234 288 355
#     4  10  19  34  67  91 106 148 197 249 298 339
#     4   9  18  40  58  81 118 151 186 240 298 336
#     4  12  28  36  58  86 114 174 198 220 280 378
#     4   9  17  33  57  88 116 144 178 254 301 324
#     4  10  19  34  63  92 109 146 201 245 295 342
#     4  11  21  41  56  84 127 153 192 240 301 339
#
# _framework density 21.186582000000001
#
# number of rings (size 3 to 8) (size 9 to 14) (size 15 to 20)
#    0.000    1.846    6.154    1.385    2.154    3.077 
#    0.000    0.000    0.000    2.769    0.000    0.000 
#    0.000    0.000    0.000    0.000    0.000    0.000 
#
# Total GULP energy -145048.285675 kJ/mol
# GULP energy per Si atom -5578.780218 kJ/mol
# Density = 2.113836 g / cm^3
# Si number density = 21.186582 Si / 1000 Ang^3
#
#
#
# Elastic Constant Matrix: (Units=GPa)
#
#
# Indices 1 2 3 4 5 6 
#
# 1 119.1683 11.1634 44.8605 0.0000 -5.2500 0.0000
# 2 11.1634 12.4245 -2.7275 0.0000 1.1207 0.0000
# 3 44.8605 -2.7275 118.4884 0.0000 13.6447 0.0000
# 4 0.0000 0.0000 0.0000 19.9353 0.0000 2.4757
# 5 -5.2500 1.1207 13.6447 0.0000 32.0181 0.0000
# 6 0.0000 0.0000 0.0000 2.4757 0.0000 24.1686
#
#
#
# Elastic Compliance Matrix: (Units=1/GPa)
#
#
# Indices 1 2 3 4 5 6 
#
# 1 0.011692 -0.012066 -0.005231 0.000000 0.004569 0.000000
# 2 -0.012066 0.093791 0.007711 0.000000 -0.008548 0.000000
# 3 -0.005231 0.007711 0.011281 0.000000 -0.005935 0.000000
# 4 0.000000 0.000000 0.000000 0.050809 0.000000 -0.005205
# 5 0.004569 -0.008548 -0.005935 0.000000 0.034810 0.000000
# 6 0.000000 0.000000 0.000000 -0.005205 0.000000 0.041909
#
#
# Mechanical properties :
#
#
# Convention : Reuss Voigt Hill
#
# Bulk Modulus (GPa) = 10.24650 39.63046 24.93848
# Shear Modulus (GPa) = 16.89232 28.34336 22.61784
#
# Velocity S-wave (km/s) = 2.82674 3.66156 3.27089
# Velocity P-wave (km/s) = 3.93710 6.05162 5.10504
#
# Compressibility (1/GPa) = 0.09759427
#
# Stress axis : x y z
#
# Youngs Moduli (GPa) = 85.52812 10.66203 88.64514
#
# Poissons Ratio (x) = 0.12864 0.46366
# Poissons Ratio (y) = 1.03195 -0.68358
# Poissons Ratio (z) = 0.44736 -0.08222
#
# Static dielectric constant tensor:
#      x y z
#    x 1.811760 0.000000 -0.006490 
#    y 0.000000 1.813530 0.000000 
#    z -0.006490 0.000000 1.794500 
# 
# From -- ./inp_files/110947.got.cif
#   From: 2010.05.17/outbox.cif.g08.bks.cpg/sg15_56_cif.got.tgz:110947.got - 2010.06.03 18:47:42.
