data_PCOD9263300
_publ_section_title
;
Structure prediction by ZEFSAII (Michael W. Deem and Ramdas Pophale) SiO2 
 PCOD9263300
Probable space group: C 2/C
;
_chemical_formula_sum "Si O2"
_cell_formula_units_Z 56
_cell_length_a 10.049665
_cell_length_b 27.694796
_cell_length_c 13.691674
_cell_angle_alpha 90.000000
_cell_angle_beta 142.376952
_cell_angle_gamma 90.000000
_cell_volume 2326.302772
_symmetry_space_group_name_H-M "C 2/C"
_symmetry_group_IT_number 15
_symmetry_cell_setting 'monoclinic'
loop_
_space_group_symop_operation_xyz
x,y,z
-x,y,1/2-z
-x,-y,-z
x,-y,1/2+z
1/2+x,1/2+y,z
1/2-x,1/2+y,1/2-z
1/2-x,1/2-y,-z
1/2+x,1/2-y,1/2+z
loop_
_atom_site_type_symbol
_atom_site_label
_atom_site_fract_x
_atom_site_fract_y
_atom_site_fract_z
Si Si1 0.039926 0.917266 0.064810
Si Si2 0.346208 0.031482 0.067399
Si Si3 0.457127 0.312968 0.986449
Si Si4 0.757001 0.387335 0.374683
Si Si5 0.187705 0.715406 0.645878
Si Si6 0.337610 0.169579 0.563662
Si Si7 0.202503 0.932106 0.939525
O O1 0.893441 0.868202 0.971085
O O2 0.240962 0.902173 0.251208
O O3 0.123286 0.929955 0.006383
O O4 0.897001 0.958440 0.031659
O O5 0.500000 0.032709 0.250000
O O6 0.386930 0.074708 0.015136
O O7 0.350667 0.979478 0.019513
O O8 0.620646 0.296067 0.166911
O O9 0.605262 0.317042 0.974677
O O10 0.289695 0.269341 0.879400
O O11 0.500000 0.392182 0.250000
O O12 0.812419 0.331287 0.424221
O O13 0.956644 0.709428 0.567539
O O14 0.500000 0.161054 0.750000
O O15 0.306113 0.120611 0.483846
O O16 0.000000 0.938193 0.750000
#
# Coordination Sequence:
#
# PCOD9263300 Si02
#       7
#     8   8   8   8   8   8   8
#     4   9  20  41  58  77 112 152 184 226 281 332
#     4  11  23  38  58  84 110 142 188 237 278 329
#     4   9  19  33  55  81 110 145 184 226 278 332
#     4   9  20  40  59  77 111 153 191 232 276 327
#     4  10  19  34  55  80 111 146 181 229 281 326
#     4   9  19  35  53  80 114 145 182 230 278 330
#     4  11  22  37  59  85 113 147 184 226 281 342
#
# _framework density 24.072533
#
# number of rings (size 3 to 8) (size 9 to 14) (size 15 to 20)
#    0.000    2.286    0.000    3.429    0.000    4.571 
#    0.000   10.000    0.000    0.000    0.000    0.000 
#    0.000    0.000    0.000    0.000    0.000    0.000 
#
# Total GULP energy -156519.983291 kJ/mol
# GULP energy per Si atom -5589.999403 kJ/mol
# Density = 2.401774 g / cm^3
# Si number density = 24.072533 Si / 1000 Ang^3
#
#
#
# Elastic Constant Matrix: (Units=GPa)
#
#
# Indices 1 2 3 4 5 6 
#
# 1 38.5165 -2.5877 2.0929 0.0000 -9.8056 0.0000
# 2 -2.5877 168.4071 35.8313 0.0000 -7.0616 0.0000
# 3 2.0929 35.8313 67.8679 0.0000 -14.9628 0.0000
# 4 0.0000 0.0000 0.0000 37.0001 0.0000 3.5964
# 5 -9.8056 -7.0616 -14.9628 0.0000 22.8676 0.0000
# 6 0.0000 0.0000 0.0000 3.5964 0.0000 26.6415
#
#
#
# Elastic Compliance Matrix: (Units=1/GPa)
#
#
# Indices 1 2 3 4 5 6 
#
# 1 0.029483 0.000650 0.001846 0.000000 0.014051 0.000000
# 2 0.000650 0.006705 -0.003555 0.000000 0.000023 0.000000
# 3 0.001846 -0.003555 0.019266 0.000000 0.012300 0.000000
# 4 0.000000 0.000000 0.000000 0.027386 0.000000 -0.003697
# 5 0.014051 0.000023 0.012300 0.000000 0.057810 0.000000
# 6 0.000000 0.000000 0.000000 -0.003697 0.000000 0.038034
#
#
# Mechanical properties :
#
#
# Convention : Reuss Voigt Hill
#
# Bulk Modulus (GPa) = 18.74943 38.38493 28.56718
# Shear Modulus (GPa) = 25.17829 33.26551 29.22190
#
# Velocity S-wave (km/s) = 3.23760 3.72141 3.48790
# Velocity P-wave (km/s) = 4.66709 5.86901 5.30222
#
# Compressibility (1/GPa) = 0.05333494
#
# Stress axis : x y z
#
# Youngs Moduli (GPa) = 33.91756 149.13484 51.90419
#
# Poissons Ratio (x) = -0.09687 -0.09580
# Poissons Ratio (y) = -0.02203 0.18452
# Poissons Ratio (z) = -0.06260 0.53019
#
# Static dielectric constant tensor:
#      x y z
#    x 2.057440 0.000000 -0.007240 
#    y 0.000000 1.916220 0.000000 
#    z -0.007240 0.000000 1.880680 
# 
# From -- ./inp_files/148562.got.cif
#   From: 2010.05.17/outbox.cif.g08.bks.cpg/sg15_75_cif.got.tgz:148562.got - 2010.06.03 18:47:42.
