data_PCOD9263630
_publ_section_title
;
Structure prediction by ZEFSAII (Michael W. Deem and Ramdas Pophale) SiO2 
 PCOD9263630
Probable space group: C 2/C
;
_chemical_formula_sum "Si O2"
_cell_formula_units_Z 48
_cell_length_a 12.720531
_cell_length_b 18.758093
_cell_length_c 21.281654
_cell_angle_alpha 90.000000
_cell_angle_beta 29.829058
_cell_angle_gamma 90.000000
_cell_volume 2525.906673
_symmetry_space_group_name_H-M "C 2/C"
_symmetry_group_IT_number 15
_symmetry_cell_setting 'monoclinic'
loop_
_space_group_symop_operation_xyz
x,y,z
-x,y,1/2-z
-x,-y,-z
x,-y,1/2+z
1/2+x,1/2+y,z
1/2-x,1/2+y,1/2-z
1/2-x,1/2-y,-z
1/2+x,1/2-y,1/2+z
loop_
_atom_site_type_symbol
_atom_site_label
_atom_site_fract_x
_atom_site_fract_y
_atom_site_fract_z
Si Si1 0.531251 0.747866 0.157164
Si Si2 0.798747 0.042082 0.577890
Si Si3 0.569096 0.406889 0.832083
Si Si4 0.986501 0.526043 0.376496
Si Si5 0.300536 0.886904 0.241516
Si Si6 0.432981 0.440129 0.352813
O O1 0.500000 0.762242 0.250000
O O2 0.439010 0.668109 0.197663
O O3 0.391316 0.808612 0.195985
O O4 0.750000 0.750000 0.000000
O O5 0.702303 0.083374 0.686011
O O6 0.895786 0.096192 0.477216
O O7 0.645776 0.989506 0.618599
O O8 0.000000 0.000000 0.500000
O O9 0.498168 0.476614 0.829219
O O10 0.799326 0.428854 0.739570
O O11 0.816608 0.563637 0.508581
O O12 0.054170 0.447557 0.366882
O O13 0.068276 0.896308 0.333356
O O14 0.500000 0.416030 0.250000
#
# Coordination Sequence:
#
# PCOD9263630 Si02
#       6
#     8   8   8   8   8   8
#     4  12  25  43  63  90 130 168 212 258 318 385
#     4  11  18  36  62  92 119 150 207 266 310 361
#     4  10  22  35  59  91 118 157 200 258 313 367
#     4  10  19  34  58  88 111 146 202 257 303 356
#     4  11  22  36  61  88 117 160 204 256 314 369
#     4  10  21  37  56  81 116 154 200 251 309 364
#
# _framework density 19.003077999999999
#
# number of rings (size 3 to 8) (size 9 to 14) (size 15 to 20)
#    0.000    1.333    5.000    5.000    0.000    4.000 
#    0.000    0.833    3.667    0.000    0.000    0.000 
#    0.000    0.000    0.000    0.000    0.000    0.000 
#
# Total GULP energy -133665.604265 kJ/mol
# GULP energy per Si atom -5569.400178 kJ/mol
# Density = 1.895983 g / cm^3
# Si number density = 19.003078 Si / 1000 Ang^3
#
#
#
# Elastic Constant Matrix: (Units=GPa)
#
#
# Indices 1 2 3 4 5 6 
#
# 1 48.0819 7.8576 27.0197 0.0088 1.9392 -0.0013
# 2 7.8576 95.7429 12.6849 -0.0147 -12.0464 -0.0061
# 3 27.0197 12.6849 114.1473 -0.0422 -0.7159 -0.0147
# 4 0.0088 -0.0147 -0.0422 21.5683 -0.0072 1.3428
# 5 1.9392 -12.0464 -0.7159 -0.0072 34.6509 0.0080
# 6 -0.0013 -0.0061 -0.0147 1.3428 0.0080 24.8567
#
#
#
# Elastic Compliance Matrix: (Units=1/GPa)
#
#
# Indices 1 2 3 4 5 6 
#
# 1 0.024265 -0.001502 -0.005589 -0.000022 -0.001996 -0.000001
# 2 -0.001502 0.011179 -0.000862 0.000008 0.003953 0.000000
# 3 -0.005589 -0.000862 0.010181 0.000021 0.000223 0.000004
# 4 -0.000022 0.000008 0.000021 0.046521 0.000015 -0.002513
# 5 -0.001996 0.003953 0.000223 0.000015 0.030350 -0.000010
# 6 -0.000001 0.000000 0.000004 -0.002513 -0.000010 0.040366
#
#
# Mechanical properties :
#
#
# Convention : Reuss Voigt Hill
#
# Bulk Modulus (GPa) = 33.64912 39.23294 36.44103
# Shear Modulus (GPa) = 26.50063 30.24250 28.37156
#
# Velocity S-wave (km/s) = 3.73841 3.99363 3.86813
# Velocity P-wave (km/s) = 6.03158 6.47733 6.25842
#
# Compressibility (1/GPa) = 0.02971846
#
# Stress axis : x y z
#
# Youngs Moduli (GPa) = 41.21210 89.44975 98.22361
#
# Poissons Ratio (x) = 0.13435 0.54900
# Poissons Ratio (y) = 0.06190 0.08467
# Poissons Ratio (z) = 0.23035 0.07711
#
# Static dielectric constant tensor:
#      x y z
#    x 1.698900 0.000000 0.027850 
#    y 0.000000 1.642960 0.000000 
#    z 0.027850 0.000000 1.753830 
# 
# From -- ./inp_files/240377.got.cif
#   From: 2010.05.17/outbox.cif.g08.bks.cpg/sg15_121_cif.got.tgz:240377.got - 2010.06.03 18:47:42.
