data_PCOD9263639
_publ_section_title
;
Structure prediction by ZEFSAII (Michael W. Deem and Ramdas Pophale) SiO2 
 PCOD9263639
Probable space group: C 2/C
;
_chemical_formula_sum "Si O2"
_cell_formula_units_Z 60
_cell_length_a 10.057106
_cell_length_b 23.933868
_cell_length_c 18.835055
_cell_angle_alpha 90.000000
_cell_angle_beta 137.003542
_cell_angle_gamma 90.000000
_cell_volume 3091.771215
_symmetry_space_group_name_H-M "C 2/C"
_symmetry_group_IT_number 15
_symmetry_cell_setting 'monoclinic'
loop_
_space_group_symop_operation_xyz
x,y,z
-x,y,1/2-z
-x,-y,-z
x,-y,1/2+z
1/2+x,1/2+y,z
1/2-x,1/2+y,1/2-z
1/2-x,1/2-y,-z
1/2+x,1/2-y,1/2+z
loop_
_atom_site_type_symbol
_atom_site_label
_atom_site_fract_x
_atom_site_fract_y
_atom_site_fract_z
Si Si1 0.496151 0.553841 0.163320
Si Si2 0.477108 0.201613 0.376273
Si Si3 0.665742 0.964451 0.024309
Si Si4 0.290294 0.333761 0.533314
Si Si5 0.920541 0.419209 0.798650
Si Si6 0.310146 0.770250 0.138635
Si Si7 0.651521 0.154941 0.581637
Si Si8 0.000000 0.227309 0.750000
O O1 0.500000 0.560526 0.250000
O O2 0.356804 0.502017 0.091501
O O3 0.402539 0.609741 0.093794
O O4 0.717049 0.548128 0.223422
O O5 0.381336 0.143293 0.313599
O O6 0.329302 0.242893 0.357903
O O7 0.632316 0.183916 0.496559
O O8 0.549025 0.232875 0.334892
O O9 0.702931 0.909063 0.085486
O O10 0.575493 0.945885 0.913669
O O11 0.500000 0.000000 0.000000
O O12 0.370219 0.282064 0.611384
O O13 0.294773 0.314080 0.453774
O O14 0.063384 0.340990 0.467789
O O15 0.000000 0.416282 0.750000
O O16 0.500000 0.794531 0.250000
O O17 0.813404 0.187718 0.689137
#
# Coordination Sequence:
#
# PCOD9263639 Si02
#       8
#     8   8   8   8   8   8   8   4
#     4  12  22  40  74  95 123 179 221 265 340 393
#     4  10  21  40  58  89 126 169 209 261 324 406
#     4  11  22  43  68  96 131 167 228 282 323 406
#     4  10  20  36  58  93 125 162 214 274 313 398
#     4  11  24  43  68  99 132 170 223 279 335 405
#     4  10  19  34  58  88 127 161 209 267 327 382
#     4  10  22  37  60  92 125 159 218 267 322 396
#     4  12  22  36  62  86 124 174 202 262 342 382
#
# _framework density 19.406351999999998
#
# number of rings (size 3 to 8) (size 9 to 14) (size 15 to 20)
#    0.000    1.333    3.333    4.000    0.933    2.667 
#    4.800    0.667    0.000    0.000    0.000    0.000 
#    0.000    0.000    0.000    0.000    0.000    0.000 
#
# Total GULP energy -167617.146989 kJ/mol
# GULP energy per Si atom -5587.238233 kJ/mol
# Density = 1.936218 g / cm^3
# Si number density = 19.406352 Si / 1000 Ang^3
#
#
#
# Elastic Constant Matrix: (Units=GPa)
#
#
# Indices 1 2 3 4 5 6 
#
# 1 81.6436 24.0561 26.0700 0.0000 -13.9620 0.0000
# 2 24.0561 98.5939 40.1717 0.0000 -3.5753 0.0000
# 3 26.0700 40.1717 66.7911 0.0000 6.4306 0.0000
# 4 0.0000 0.0000 0.0000 19.6531 0.0000 8.7436
# 5 -13.9620 -3.5753 6.4306 0.0000 27.8915 0.0000
# 6 0.0000 0.0000 0.0000 8.7436 0.0000 17.3355
#
#
#
# Elastic Compliance Matrix: (Units=1/GPa)
#
#
# Indices 1 2 3 4 5 6 
#
# 1 0.016310 -0.000874 -0.006766 0.000000 0.009613 0.000000
# 2 -0.000874 0.013859 -0.008307 0.000000 0.003254 0.000000
# 3 -0.006766 -0.008307 0.023561 0.000000 -0.009884 0.000000
# 4 0.000000 0.000000 0.000000 0.065604 0.000000 -0.033089
# 5 0.009613 0.003254 -0.009884 0.000000 0.043361 0.000000
# 6 0.000000 0.000000 0.000000 -0.033089 0.000000 0.074374
#
#
# Mechanical properties :
#
#
# Convention : Reuss Voigt Hill
#
# Bulk Modulus (GPa) = 45.79829 47.51379 46.65604
# Shear Modulus (GPa) = 18.10003 23.42473 20.76238
#
# Velocity S-wave (km/s) = 3.05730 3.47805 3.27444
# Velocity P-wave (km/s) = 6.00947 6.37698 6.19595
#
# Compressibility (1/GPa) = 0.02183488
#
# Stress axis : x y z
#
# Youngs Moduli (GPa) = 61.31110 72.15639 42.44278
#
# Poissons Ratio (x) = 0.06308 0.28716
# Poissons Ratio (y) = 0.05360 0.35259
# Poissons Ratio (z) = 0.41483 0.59944
#
# Static dielectric constant tensor:
#      x y z
#    x 1.677980 0.000000 0.000840 
#    y 0.000000 1.675660 0.000000 
#    z 0.000840 0.000000 1.679340 
# 
# From -- ./inp_files/234571.got.cif
#   From: 2010.05.17/outbox.cif.g08.bks.cpg/sg15_118_cif.got.tgz:234571.got - 2010.06.03 18:47:42.
