data_PCOD9263014
_publ_section_title
;
Structure prediction by ZEFSAII (Michael W. Deem and Ramdas Pophale) SiO2 
 PCOD9263014
Probable space group: C 2/C
;
_chemical_formula_sum "Si O2"
_cell_formula_units_Z 48
_cell_length_a 15.837853
_cell_length_b 11.239882
_cell_length_c 18.061909
_cell_angle_alpha 90.000000
_cell_angle_beta 35.467726
_cell_angle_gamma 90.000000
_cell_volume 1865.660339
_symmetry_space_group_name_H-M "C 2/C"
_symmetry_group_IT_number 15
_symmetry_cell_setting 'monoclinic'
loop_
_space_group_symop_operation_xyz
x,y,z
-x,y,1/2-z
-x,-y,-z
x,-y,1/2+z
1/2+x,1/2+y,z
1/2-x,1/2+y,1/2-z
1/2-x,1/2-y,-z
1/2+x,1/2-y,1/2+z
loop_
_atom_site_type_symbol
_atom_site_label
_atom_site_fract_x
_atom_site_fract_y
_atom_site_fract_z
Si Si1 0.164088 0.368138 0.637728
Si Si2 0.540060 0.508159 0.346617
Si Si3 0.921904 0.185597 0.040407
Si Si4 0.432437 0.814632 0.463438
Si Si5 0.279167 0.513201 0.924299
Si Si6 0.352855 0.150502 0.811687
O O1 0.259298 0.299025 0.629138
O O2 0.230981 0.375020 0.507481
O O3 0.167749 0.508406 0.662893
O O4 0.000000 0.325980 0.750000
O O5 0.566382 0.605153 0.392534
O O6 0.495765 0.392122 0.423734
O O7 0.667329 0.481976 0.197902
O O8 0.408705 0.539729 0.383460
O O9 0.014899 0.302738 0.989905
O O10 0.360318 0.929915 0.480381
O O11 0.590720 0.814512 0.309614
O O12 0.292126 0.723159 0.562339
O O13 0.500000 0.187884 0.750000
#
# Coordination Sequence:
#
# PCOD9263014 Si02
#       6
#     8   8   8   8   8   8
#     4  10  20  39  58  85 122 177 206 254 318 392
#     4   9  19  34  55  85 127 171 200 243 321 395
#     4  10  21  35  56  84 135 168 204 260 327 373
#     4  12  22  33  56  94 130 166 206 265 314 373
#     4  10  19  33  59  91 120 167 211 249 312 393
#     4  11  22  32  55  89 130 167 203 245 315 386
#
# _framework density 25.728155999999998
#
# number of rings (size 3 to 8) (size 9 to 14) (size 15 to 20)
#    0.000    1.667    3.333    4.500    4.667    0.000 
#    0.000    0.833    3.667    0.000    0.000    4.667 
#   10.000   16.500    0.000    0.000    0.000    0.000 
#
# Total GULP energy -133989.475109 kJ/mol
# GULP energy per Si atom -5582.894796 kJ/mol
# Density = 2.566960 g / cm^3
# Si number density = 25.728156 Si / 1000 Ang^3
#
#
#
# Elastic Constant Matrix: (Units=GPa)
#
#
# Indices 1 2 3 4 5 6 
#
# 1 154.4180 30.3753 36.2154 0.0008 -5.5661 -0.0018
# 2 30.3753 69.7281 10.9688 -0.0009 0.2048 0.0020
# 3 36.2154 10.9688 153.7595 -0.0035 16.5337 0.0081
# 4 0.0008 -0.0009 -0.0035 -353.5388 -0.0002 826.6289
# 5 -5.5661 0.2048 16.5337 -0.0002 45.5580 0.0003
# 6 -0.0018 0.0020 0.0081 826.6289 0.0003-1805.0577
#
#
#
# Elastic Compliance Matrix: (Units=1/GPa)
#
#
# Indices 1 2 3 4 5 6 
#
# 1 0.007530 -0.003013 -0.001726 0.000000 0.001560 0.000000
# 2 -0.003013 0.015715 -0.000379 0.000000 -0.000301 0.000000
# 3 -0.001726 -0.000379 0.007242 0.000000 -0.002838 0.000000
# 4 0.000000 0.000000 0.000000 0.039973 0.000000 0.018305
# 5 0.001560 -0.000301 -0.002838 0.000000 0.023172 0.000000
# 6 0.000000 0.000000 0.000000 0.018305 0.000000 0.007829
#
#
# Mechanical properties :
#
#
# Convention : Reuss Voigt Hill
#
# Bulk Modulus (GPa) = 49.38300 59.22495 54.30398
# Shear Modulus (GPa) = 42.21304 -402.58462 -180.18579
#
# Velocity S-wave (km/s) = 4.05499 -12.52262 -8.37774
# Velocity P-wave (km/s) = 6.41559 13.63886 8.51054
#
# Compressibility (1/GPa) = 0.02024988
#
# Stress axis : x y z
#
# Youngs Moduli (GPa) = 132.80677 63.63540 138.07546
#
# Poissons Ratio (x) = 0.19174 0.23836
# Poissons Ratio (y) = 0.40017 0.05232
# Poissons Ratio (z) = 0.22926 0.02411
#
# Static dielectric constant tensor:
#      x y z
#    x 2.030870 0.000000 0.026890 
#    y 0.000000 2.131670 0.000000 
#    z 0.026890 0.000000 2.084290 
# 
# From -- ./inp_files/205291.got.cif
#   From: 2010.05.17/outbox.cif.g08.bks.cpg/sg15_103_cif.got.tgz:205291.got - 2010.06.03 18:47:42.
