data_PCOD9263486
_publ_section_title
;
Structure prediction by ZEFSAII (Michael W. Deem and Ramdas Pophale) SiO2 
 PCOD9263486
Probable space group: C 2/C
;
_chemical_formula_sum "Si O2"
_cell_formula_units_Z 48
_cell_length_a 16.977213
_cell_length_b 7.283871
_cell_length_c 13.482211
_cell_angle_alpha 90.000000
_cell_angle_beta 89.545725
_cell_angle_gamma 90.000000
_cell_volume 1667.155510
_symmetry_space_group_name_H-M "C 2/C"
_symmetry_group_IT_number 15
_symmetry_cell_setting 'monoclinic'
loop_
_space_group_symop_operation_xyz
x,y,z
-x,y,1/2-z
-x,-y,-z
x,-y,1/2+z
1/2+x,1/2+y,z
1/2-x,1/2+y,1/2-z
1/2-x,1/2-y,-z
1/2+x,1/2-y,1/2+z
loop_
_atom_site_type_symbol
_atom_site_label
_atom_site_fract_x
_atom_site_fract_y
_atom_site_fract_z
Si Si1 0.812405 0.969757 0.934457
Si Si2 0.521521 0.535275 0.115575
Si Si3 0.976437 0.472274 0.362592
Si Si4 0.683095 0.086398 0.674859
Si Si5 0.643790 0.000845 0.874755
Si Si6 0.647099 0.578102 0.837499
O O1 0.805126 0.758394 0.897751
O O2 0.724212 0.048310 0.929875
O O3 0.888930 0.042728 0.873103
O O4 0.838337 0.973050 0.047328
O O5 0.528601 0.752553 0.130398
O O6 0.444097 0.473380 0.176349
O O7 0.500000 0.500000 0.000000
O O8 0.056746 0.513171 0.422785
O O9 0.000000 0.532168 0.250000
O O10 0.885721 0.534243 0.375764
O O11 0.768634 0.009375 0.706134
O O12 0.643977 0.139110 0.781269
O O13 0.652387 0.797806 0.829208
#
# Coordination Sequence:
#
# PCOD9263486 Si02
#       6
#     8   8   8   8   8   8
#     4   9  19  39  58  77 110 150 180 216 276 331
#     4   9  19  37  57  77 105 144 183 216 268 329
#     4   9  19  36  55  75 108 145 176 217 273 325
#     4   9  18  33  54  80 107 140 175 217 269 321
#     4  10  19  34  57  84 107 139 185 225 266 320
#     4  10  20  37  59  81 107 144 185 225 267 322
#
# _framework density 28.791557000000001
#
# number of rings (size 3 to 8) (size 9 to 14) (size 15 to 20)
#    0.000    2.667    0.000    2.000    0.000    6.667 
#    0.000   30.833    0.000    4.000    0.000    0.000 
#    0.000    0.000    0.000    0.000    0.000    0.000 
#
# Total GULP energy -133999.587103 kJ/mol
# GULP energy per Si atom -5583.316129 kJ/mol
# Density = 2.872603 g / cm^3
# Si number density = 28.791557 Si / 1000 Ang^3
#
#
#
# Elastic Constant Matrix: (Units=GPa)
#
#
# Indices 1 2 3 4 5 6 
#
# 1 397.9361 30.7474 54.9046 0.0000 33.4757 0.0000
# 2 30.7474 75.7742 -12.6928 0.0000 3.9147 0.0000
# 3 54.9046 -12.6928 74.1273 0.0000 11.7190 0.0000
# 4 0.0000 0.0000 0.0000 25.3370 0.0000 3.0319
# 5 33.4757 3.9147 11.7190 0.0000 73.6582 0.0000
# 6 0.0000 0.0000 0.0000 3.0319 0.0000 34.1355
#
#
#
# Elastic Compliance Matrix: (Units=1/GPa)
#
#
# Indices 1 2 3 4 5 6 
#
# 1 0.003041 -0.001585 -0.002378 0.000000 -0.000919 0.000000
# 2 -0.001585 0.014504 0.003760 0.000000 -0.000649 0.000000
# 3 -0.002378 0.003760 0.016163 0.000000 -0.001690 0.000000
# 4 0.000000 0.000000 0.000000 0.039892 0.000000 -0.003543
# 5 -0.000919 -0.000649 -0.001690 0.000000 0.014297 0.000000
# 6 0.000000 0.000000 0.000000 -0.003543 0.000000 0.029610
#
#
# Mechanical properties :
#
#
# Convention : Reuss Voigt Hill
#
# Bulk Modulus (GPa) = 30.02941 77.08400 53.55670
# Shear Modulus (GPa) = 38.75563 58.28469 48.52016
#
# Velocity S-wave (km/s) = 3.67287 4.50418 4.10960
# Velocity P-wave (km/s) = 5.33284 7.34040 6.41563
#
# Compressibility (1/GPa) = 0.03330069
#
# Stress axis : x y z
#
# Youngs Moduli (GPa) = 328.84828 68.94882 61.86984
#
# Poissons Ratio (x) = 0.10927 0.14715
# Poissons Ratio (y) = 0.52117 -0.23262
# Poissons Ratio (z) = 0.78212 -0.25924
#
# Static dielectric constant tensor:
#      x y z
#    x 2.389720 0.000000 0.002160 
#    y 0.000000 2.185100 0.000000 
#    z 0.002160 0.000000 2.378930 
# 
# From -- ./inp_files/208693.got.cif
#   From: 2010.05.17/outbox.cif.g08.bks.cpg/sg15_105_cif.got.tgz:208693.got - 2010.06.03 18:47:42.
