data_PCOD9263120
_publ_section_title
;
Structure prediction by ZEFSAII (Michael W. Deem and Ramdas Pophale) SiO2 
 PCOD9263120
Probable space group: C 2/C
;
_chemical_formula_sum "Si O2"
_cell_formula_units_Z 60
_cell_length_a 25.535402
_cell_length_b 24.841600
_cell_length_c 7.496597
_cell_angle_alpha 90.000000
_cell_angle_beta 139.556094
_cell_angle_gamma 90.000000
_cell_volume 3084.839143
_symmetry_space_group_name_H-M "C 2/C"
_symmetry_group_IT_number 15
_symmetry_cell_setting 'monoclinic'
loop_
_space_group_symop_operation_xyz
x,y,z
-x,y,1/2-z
-x,-y,-z
x,-y,1/2+z
1/2+x,1/2+y,z
1/2-x,1/2+y,1/2-z
1/2-x,1/2-y,-z
1/2+x,1/2-y,1/2+z
loop_
_atom_site_type_symbol
_atom_site_label
_atom_site_fract_x
_atom_site_fract_y
_atom_site_fract_z
Si Si1 0.656871 0.262301 0.552708
Si Si2 0.904056 0.731981 0.499426
Si Si3 0.341301 0.567938 0.086554
Si Si4 0.000000 0.189194 0.750000
Si Si5 0.984568 0.903366 0.495964
Si Si6 0.288901 0.319027 0.368635
Si Si7 0.814130 0.952340 0.100583
Si Si8 0.271220 0.150080 0.186136
O O1 0.622148 0.243798 0.271560
O O2 0.580357 0.275443 0.474809
O O3 0.717885 0.215824 0.771952
O O4 0.709922 0.314904 0.646049
O O5 0.862986 0.780100 0.506725
O O6 0.859076 0.676479 0.438857
O O7 0.000000 0.730498 0.750000
O O8 0.313330 0.628954 0.046002
O O9 0.326578 0.561334 0.838725
O O10 0.436926 0.564973 0.369521
O O11 0.299333 0.515874 0.058216
O O12 0.015538 0.151446 0.617928
O O13 0.000000 0.894140 0.750000
O O14 0.901228 0.934759 0.245790
O O15 0.254604 0.337099 0.085961
O O16 0.747034 0.913178 0.841522
#
# Coordination Sequence:
#
# PCOD9263120 Si02
#       8
#     8   8   8   4   8   8   8   8
#     4   9  18  32  49  76 107 141 176 217 268 326
#     4   9  17  28  55  78 102 136 178 223 273 323
#     4  10  21  32  53  75 102 145 178 221 263 314
#     4  12  22  32  60  78 110 150 178 216 274 314
#     4  10  23  36  50  79 116 144 183 220 261 323
#     4   8  17  32  50  74 107 139 176 216 272 320
#     4  10  19  34  51  74 105 140 181 219 265 316
#     4   8  15  32  49  74 103 140 176 220 268 324
#
# _framework density 19.449960000000001
#
# number of rings (size 3 to 8) (size 9 to 14) (size 15 to 20)
#    0.000    2.667    1.333    2.000    5.600    0.000 
#    0.000    0.667    2.933    0.000    1.733    2.800 
#    0.000    0.000    0.000    0.000    0.000    0.000 
#
# Total GULP energy -167457.537904 kJ/mol
# GULP energy per Si atom -5581.917930 kJ/mol
# Density = 1.940569 g / cm^3
# Si number density = 19.449960 Si / 1000 Ang^3
#
#
#
# Elastic Constant Matrix: (Units=GPa)
#
#
# Indices 1 2 3 4 5 6 
#
# 1 52.2484 34.5807 32.7778 0.0000 16.1889 0.0000
# 2 34.5807 133.7523 51.5752 0.0000 22.3995 0.0000
# 3 32.7778 51.5752 68.7326 0.0000 23.0093 0.0000
# 4 0.0000 0.0000 0.0000 5.9098 0.0000 6.9670
# 5 16.1889 22.3995 23.0093 0.0000 35.1684 0.0000
# 6 0.0000 0.0000 0.0000 6.9670 0.0000 29.0540
#
#
#
# Elastic Compliance Matrix: (Units=1/GPa)
#
#
# Indices 1 2 3 4 5 6 
#
# 1 0.028766 -0.002755 -0.009995 0.000000 -0.004948 0.000000
# 2 -0.002755 0.010892 -0.006353 0.000000 -0.001513 0.000000
# 3 -0.009995 -0.006353 0.027130 0.000000 -0.009103 0.000000
# 4 0.000000 0.000000 0.000000 0.235898 0.000000 -0.056567
# 5 -0.004948 -0.001513 -0.009103 0.000000 0.037631 0.000000
# 6 0.000000 0.000000 0.000000 -0.056567 0.000000 0.047983
#
#
# Mechanical properties :
#
#
# Convention : Reuss Voigt Hill
#
# Bulk Modulus (GPa) = 34.98563 54.73338 44.85951
# Shear Modulus (GPa) = 11.46706 23.07977 17.27342
#
# Velocity S-wave (km/s) = 2.43074 3.44848 2.98333
# Velocity P-wave (km/s) = 5.08965 6.63760 5.91448
#
# Compressibility (1/GPa) = 0.02858316
#
# Stress axis : x y z
#
# Youngs Moduli (GPa) = 34.76371 91.81324 36.85987
#
# Poissons Ratio (x) = 0.25290 0.36840
# Poissons Ratio (y) = 0.09576 0.23416
# Poissons Ratio (z) = 0.34745 0.58327
#
# Static dielectric constant tensor:
#      x y z
#    x 1.729030 0.000000 -0.038480 
#    y 0.000000 1.761420 0.000000 
#    z -0.038480 0.000000 1.718160 
# 
# From -- ./inp_files/67674.got.cif
#   From: 2010.05.17/outbox.cif.g08.bks.cpg/sg15_34_cif.got.tgz:67674.got - 2010.06.03 18:47:42.
