data_PCOD9263124
_publ_section_title
;
Structure prediction by ZEFSAII (Michael W. Deem and Ramdas Pophale) SiO2 
 PCOD9263124
Probable space group: C 2/C
;
_chemical_formula_sum "Si O2"
_cell_formula_units_Z 56
_cell_length_a 22.231179
_cell_length_b 11.314994
_cell_length_c 17.567714
_cell_angle_alpha 90.000000
_cell_angle_beta 150.167145
_cell_angle_gamma 90.000000
_cell_volume 2198.367343
_symmetry_space_group_name_H-M "C 2/C"
_symmetry_group_IT_number 15
_symmetry_cell_setting 'monoclinic'
loop_
_space_group_symop_operation_xyz
x,y,z
-x,y,1/2-z
-x,-y,-z
x,-y,1/2+z
1/2+x,1/2+y,z
1/2-x,1/2+y,1/2-z
1/2-x,1/2-y,-z
1/2+x,1/2-y,1/2+z
loop_
_atom_site_type_symbol
_atom_site_label
_atom_site_fract_x
_atom_site_fract_y
_atom_site_fract_z
Si Si1 0.857040 0.616130 0.874998
Si Si2 0.051080 0.101813 0.224921
Si Si3 0.196271 0.713560 0.535524
Si Si4 0.415557 0.608474 0.927242
Si Si5 0.471575 0.068699 0.847970
Si Si6 0.049194 0.181782 0.700487
Si Si7 0.319226 0.061863 0.530204
O O1 0.810652 0.720632 0.878935
O O2 0.722369 0.559560 0.717492
O O3 0.909944 0.636244 0.850038
O O4 0.961001 0.542906 0.035352
O O5 0.052074 0.958065 0.220147
O O6 0.193598 0.129362 0.380718
O O7 0.000000 0.136167 0.250000
O O8 0.966818 0.148256 0.064721
O O9 0.325633 0.751953 0.644317
O O10 0.193467 0.574550 0.512058
O O11 0.068908 0.774819 0.385694
O O12 0.442643 0.690883 0.883461
O O13 0.500000 0.500000 0.000000
O O14 0.368407 0.050288 0.670396
O O15 0.580645 0.116127 0.915792
#
# Coordination Sequence:
#
# PCOD9263124 Si02
#       7
#     8   8   8   8   8   8   8
#     4   9  17  30  51  70  98 130 175 209 242 301
#     4  10  19  34  51  77 101 131 173 213 260 300
#     4   9  18  36  49  73 105 138 173 205 253 305
#     4   9  17  32  53  69  99 129 172 221 251 285
#     4   9  16  30  47  73  95 133 164 200 259 284
#     4   9  19  36  50  74 104 140 172 209 248 313
#     4   9  18  32  49  70 113 125 161 216 252 300
#
# _framework density 25.47345
#
# number of rings (size 3 to 8) (size 9 to 14) (size 15 to 20)
#    0.000    2.857    0.000    3.429    0.000    0.000 
#   30.857    1.429    0.000    0.000    3.714    3.000 
#    0.000    0.000    0.000    0.000    0.000    0.000 
#
# Total GULP energy -156027.977025 kJ/mol
# GULP energy per Si atom -5572.427751 kJ/mol
# Density = 2.541547 g / cm^3
# Si number density = 25.473450 Si / 1000 Ang^3
#
#
#
# Elastic Constant Matrix: (Units=GPa)
#
#
# Indices 1 2 3 4 5 6 
#
# 1 160.2720 16.4566 40.9169 0.0000 -1.7325 0.0000
# 2 16.4566 49.4576 9.7160 0.0000 11.5121 0.0000
# 3 40.9169 9.7160 120.0229 0.0000 3.7931 0.0000
# 4 0.0000 0.0000 0.0000 9.9300 0.0000 1.3072
# 5 -1.7325 11.5121 3.7931 0.0000 60.0819 0.0000
# 6 0.0000 0.0000 0.0000 1.3072 0.0000 17.7073
#
#
#
# Elastic Compliance Matrix: (Units=1/GPa)
#
#
# Indices 1 2 3 4 5 6 
#
# 1 0.007036 -0.002071 -0.002254 0.000000 0.000742 0.000000
# 2 -0.002071 0.022079 -0.000948 0.000000 -0.004230 0.000000
# 3 -0.002254 -0.000948 0.009192 0.000000 -0.000464 0.000000
# 4 0.000000 0.000000 0.000000 0.101693 0.000000 -0.007507
# 5 0.000742 -0.004230 -0.000464 0.000000 0.017505 0.000000
# 6 0.000000 0.000000 0.000000 -0.007507 0.000000 0.057028
#
#
# Mechanical properties :
#
#
# Convention : Reuss Voigt Hill
#
# Bulk Modulus (GPa) = 36.02204 51.54796 43.78500
# Shear Modulus (GPa) = 21.33724 35.05470 28.19597
#
# Velocity S-wave (km/s) = 2.89732 3.71364 3.33059
# Velocity P-wave (km/s) = 5.03630 6.21837 5.65829
#
# Compressibility (1/GPa) = 0.02776078
#
# Stress axis : x y z
#
# Youngs Moduli (GPa) = 142.13500 45.29132 108.79477
#
# Poissons Ratio (x) = 0.09379 0.24526
# Poissons Ratio (y) = 0.29435 0.10310
# Poissons Ratio (z) = 0.32041 0.04292
#
# Static dielectric constant tensor:
#      x y z
#    x 2.044970 0.000000 -0.077640 
#    y 0.000000 2.050870 0.000000 
#    z -0.077640 0.000000 2.239670 
# 
# From -- ./inp_files/216074.got.cif
#   From: 2010.05.17/outbox.cif.g08.bks.cpg/sg15_109_cif.got.tgz:216074.got - 2010.06.03 18:47:42.
