data_PCOD9263699
_publ_section_title
;
Structure prediction by ZEFSAII (Michael W. Deem and Ramdas Pophale) SiO2 
 PCOD9263699
Probable space group: C 2/C
;
_chemical_formula_sum "Si O2"
_cell_formula_units_Z 64
_cell_length_a 14.207998
_cell_length_b 21.985179
_cell_length_c 9.401553
_cell_angle_alpha 90.000000
_cell_angle_beta 86.651136
_cell_angle_gamma 90.000000
_cell_volume 2931.704811
_symmetry_space_group_name_H-M "C 2/C"
_symmetry_group_IT_number 15
_symmetry_cell_setting 'monoclinic'
loop_
_space_group_symop_operation_xyz
x,y,z
-x,y,1/2-z
-x,-y,-z
x,-y,1/2+z
1/2+x,1/2+y,z
1/2-x,1/2+y,1/2-z
1/2-x,1/2-y,-z
1/2+x,1/2-y,1/2+z
loop_
_atom_site_type_symbol
_atom_site_label
_atom_site_fract_x
_atom_site_fract_y
_atom_site_fract_z
Si Si1 0.820158 0.509352 0.212676
Si Si2 0.392990 0.288913 0.321302
Si Si3 0.914792 0.387037 0.152684
Si Si4 0.963257 0.750092 0.607798
Si Si5 0.839942 0.718357 0.067170
Si Si6 0.111137 0.076961 0.719819
Si Si7 0.953827 0.392118 0.618300
Si Si8 0.196862 0.000531 0.471198
O O1 0.833984 0.436081 0.195406
O O2 0.915471 0.542951 0.167315
O O3 0.782438 0.527655 0.370343
O O4 0.745534 0.531500 0.101180
O O5 0.500000 0.288313 0.250000
O O6 0.399900 0.280088 0.490371
O O7 0.338612 0.239605 0.231767
O O8 0.351141 0.354582 0.287345
O O9 0.909819 0.313015 0.158595
O O10 0.000000 0.402622 0.250000
O O11 0.960520 0.398391 0.996268
O O12 0.000000 0.781371 0.750000
O O13 0.063055 0.739330 0.518397
O O14 0.864926 0.646437 0.066482
O O15 0.750000 0.750000 0.000000
O O16 0.148087 0.039905 0.854114
O O17 0.000000 0.079521 0.750000
O O18 0.131779 0.047096 0.563608
O O19 0.000000 0.359078 0.750000
#
# Coordination Sequence:
#
# PCOD9263699 Si02
#       8
#     8   8   8   8   8   8   8   8
#     4  11  21  36  57  88 130 158 204 257 320 372
#     4   9  19  39  64  86 119 165 206 259 316 387
#     4  10  19  34  59  86 121 169 206 242 304 376
#     4   9  19  39  61  91 123 162 217 256 302 382
#     4  10  21  37  59  88 124 164 208 260 314 360
#     4  10  21  42  66  85 115 163 213 257 334 393
#     4  11  21  35  59  86 122 167 215 251 302 384
#     4  10  23  38  57  90 123 153 200 274 318 375
#
# _framework density 21.830300999999999
#
# number of rings (size 3 to 8) (size 9 to 14) (size 15 to 20)
#    0.000    2.000    0.000    4.500    1.750    0.000 
#    6.750    3.750    0.000    0.000    0.000    0.000 
#    0.000    0.000    0.000    0.000    0.000    0.000 
#
# Total GULP energy -178171.151657 kJ/mol
# GULP energy per Si atom -5567.848489 kJ/mol
# Density = 2.178061 g / cm^3
# Si number density = 21.830301 Si / 1000 Ang^3
#
#
#
# Elastic Constant Matrix: (Units=GPa)
#
#
# Indices 1 2 3 4 5 6 
#
# 1 38.3540 18.0076 4.3081 0.0000 9.3024 0.0000
# 2 18.0076 63.3904 12.5259 0.0000 4.5196 0.0000
# 3 4.3081 12.5259 127.5561 0.0000 -3.9226 0.0000
# 4 0.0000 0.0000 0.0000 23.4202 0.0000 2.3346
# 5 9.3024 4.5196 -3.9226 0.0000 32.3045 0.0000
# 6 0.0000 0.0000 0.0000 2.3346 0.0000 17.4335
#
#
#
# Elastic Compliance Matrix: (Units=1/GPa)
#
#
# Indices 1 2 3 4 5 6 
#
# 1 0.032054 -0.008428 -0.000504 0.000000 -0.008112 0.000000
# 2 -0.008428 0.018499 -0.001543 0.000000 -0.000349 0.000000
# 3 -0.000504 -0.001543 0.008049 0.000000 0.001338 0.000000
# 4 0.000000 0.000000 0.000000 0.043276 0.000000 -0.005795
# 5 -0.008112 -0.000349 0.001338 0.000000 0.033503 0.000000
# 6 0.000000 0.000000 0.000000 -0.005795 0.000000 0.058137
#
#
# Mechanical properties :
#
#
# Convention : Reuss Voigt Hill
#
# Bulk Modulus (GPa) = 26.55844 33.22042 29.88943
# Shear Modulus (GPa) = 22.02462 27.59556 24.81009
#
# Velocity S-wave (km/s) = 3.17977 3.55927 3.37486
# Velocity P-wave (km/s) = 5.06690 5.66937 5.37658
#
# Compressibility (1/GPa) = 0.03765282
#
# Stress axis : x y z
#
# Youngs Moduli (GPa) = 31.19730 54.05688 124.23319
#
# Poissons Ratio (x) = 0.45557 0.06267
# Poissons Ratio (y) = 0.26292 0.19165
# Poissons Ratio (z) = 0.01574 0.08339
#
# Static dielectric constant tensor:
#      x y z
#    x 1.822830 0.000000 0.012070 
#    y 0.000000 1.842590 0.000000 
#    z 0.012070 0.000000 1.835620 
# 
# From -- ./inp_files/42644.got.cif
#   From: 2010.05.17/outbox.cif.g08.bks.cpg/sg15_22_cif.got.tgz:42644.got - 2010.06.03 18:47:42.
