data_PCOD9263493
_publ_section_title
;
Structure prediction by ZEFSAII (Michael W. Deem and Ramdas Pophale) SiO2 
 PCOD9263493
Probable space group: C 2/C
;
_chemical_formula_sum "Si O2"
_cell_formula_units_Z 40
_cell_length_a 7.896282
_cell_length_b 27.022134
_cell_length_c 15.393777
_cell_angle_alpha 90.000000
_cell_angle_beta 147.265675
_cell_angle_gamma 90.000000
_cell_volume 1776.149353
_symmetry_space_group_name_H-M "C 2/C"
_symmetry_group_IT_number 15
_symmetry_cell_setting 'monoclinic'
loop_
_space_group_symop_operation_xyz
x,y,z
-x,y,1/2-z
-x,-y,-z
x,-y,1/2+z
1/2+x,1/2+y,z
1/2-x,1/2+y,1/2-z
1/2-x,1/2-y,-z
1/2+x,1/2-y,1/2+z
loop_
_atom_site_type_symbol
_atom_site_label
_atom_site_fract_x
_atom_site_fract_y
_atom_site_fract_z
Si Si1 0.340677 0.744307 0.360949
Si Si2 0.063900 0.955980 0.460286
Si Si3 0.787630 0.146820 0.439518
Si Si4 0.827116 0.685840 0.380134
Si Si5 0.207206 0.481318 0.668433
O O1 0.432044 0.696028 0.458334
O O2 0.274001 0.727793 0.234153
O O3 0.565057 0.788976 0.483784
O O4 0.000000 0.758836 0.250000
O O5 0.989010 0.900472 0.457380
O O6 0.864352 0.974202 0.291258
O O7 0.441287 0.954291 0.609107
O O8 0.000000 0.000000 0.500000
O O9 0.500000 0.136082 0.250000
O O10 0.617411 0.159044 0.457933
O O11 0.500000 0.657033 0.250000
O O12 0.500000 0.454031 0.750000
O O13 0.000000 0.500000 0.500000
#
# Coordination Sequence:
#
# PCOD9263493 Si02
#       5
#     8   8   8   8   8
#     4   9  18  35  55  78 114 154 187 229 284 342
#     4  11  20  36  61  81 106 152 199 240 288 352
#     4   9  19  34  53  80 113 149 189 235 287 344
#     4  10  19  34  57  84 114 151 189 235 288 343
#     4   9  20  37  54  79 112 142 179 235 298 345
#
# _framework density 22.520627000000001
#
# number of rings (size 3 to 8) (size 9 to 14) (size 15 to 20)
#    0.000    2.800    0.000    4.800    0.000    0.800 
#    0.000   17.000    0.000    2.400    0.000    0.000 
#    0.000    0.000    0.000    0.000    0.000    0.000 
#
# Total GULP energy -111421.082976 kJ/mol
# GULP energy per Si atom -5571.054149 kJ/mol
# Density = 2.246937 g / cm^3
# Si number density = 22.520627 Si / 1000 Ang^3
#
#
#
# Elastic Constant Matrix: (Units=GPa)
#
#
# Indices 1 2 3 4 5 6 
#
# 1 64.2913 7.9777 12.7308 0.0000 1.8558 0.0000
# 2 7.9777 105.3210 39.7759 0.0000 -14.0865 0.0000
# 3 12.7308 39.7759 81.1507 0.0000 -0.7934 0.0000
# 4 0.0000 0.0000 0.0000 24.9808 0.0000 1.9993
# 5 1.8558 -14.0865 -0.7934 0.0000 36.8438 0.0000
# 6 0.0000 0.0000 0.0000 1.9993 0.0000 2.3532
#
#
#
# Elastic Compliance Matrix: (Units=1/GPa)
#
#
# Indices 1 2 3 4 5 6 
#
# 1 0.016100 -0.000493 -0.002294 0.000000 -0.001049 0.000000
# 2 -0.000493 0.012402 -0.005956 0.000000 0.004638 0.000000
# 3 -0.002294 -0.005956 0.015584 0.000000 -0.001826 0.000000
# 4 0.000000 0.000000 0.000000 0.042951 0.000000 -0.036492
# 5 -0.001049 0.004638 -0.001826 0.000000 0.028928 0.000000
# 6 0.000000 0.000000 0.000000 -0.036492 0.000000 0.455961
#
#
# Mechanical properties :
#
#
# Convention : Reuss Voigt Hill
#
# Bulk Modulus (GPa) = 37.59560 41.30354 39.44957
# Shear Modulus (GPa) = 8.35729 25.52078 16.93904
#
# Velocity S-wave (km/s) = 1.92847 3.36998 2.74552
# Velocity P-wave (km/s) = 4.65712 5.78986 5.25411
#
# Compressibility (1/GPa) = 0.02659885
#
# Stress axis : x y z
#
# Youngs Moduli (GPa) = 62.11180 80.63293 64.16783
#
# Poissons Ratio (x) = 0.03978 0.14721
# Poissons Ratio (y) = 0.03065 0.38218
# Poissons Ratio (z) = 0.14249 0.48025
#
# Static dielectric constant tensor:
#      x y z
#    x 2.412090 0.000000 0.232690 
#    y 0.000000 1.901170 0.000000 
#    z 0.232690 0.000000 1.863750 
# 
# From -- ./inp_files/24400.got.cif
#   From: 2010.05.17/outbox.cif.g08.bks.cpg/sg15_13_cif.got.tgz:24400.got - 2010.06.03 18:47:42.
