data_PCOD9263345
_publ_section_title
;
Structure prediction by ZEFSAII (Michael W. Deem and Ramdas Pophale) SiO2 
 PCOD9263345
Probable space group: C 2/C
;
_chemical_formula_sum "Si O2"
_cell_formula_units_Z 64
_cell_length_a 28.695590
_cell_length_b 12.955674
_cell_length_c 13.586629
_cell_angle_alpha 90.000000
_cell_angle_beta 139.346223
_cell_angle_gamma 90.000000
_cell_volume 3290.730793
_symmetry_space_group_name_H-M "C 2/C"
_symmetry_group_IT_number 15
_symmetry_cell_setting 'monoclinic'
loop_
_space_group_symop_operation_xyz
x,y,z
-x,y,1/2-z
-x,-y,-z
x,-y,1/2+z
1/2+x,1/2+y,z
1/2-x,1/2+y,1/2-z
1/2-x,1/2-y,-z
1/2+x,1/2-y,1/2+z
loop_
_atom_site_type_symbol
_atom_site_label
_atom_site_fract_x
_atom_site_fract_y
_atom_site_fract_z
Si Si1 0.311156 0.859740 0.693481
Si Si2 0.002220 0.496239 0.358859
Si Si3 0.446958 0.793678 0.827729
Si Si4 0.662838 0.933209 0.170533
Si Si5 0.752394 0.355682 0.381380
Si Si6 0.903581 0.915401 0.309105
Si Si7 0.424862 0.190803 0.840348
Si Si8 0.477007 0.390268 0.827779
O O1 0.395124 0.830408 0.833623
O O2 0.266910 0.764636 0.664489
O O3 0.296080 0.864006 0.552812
O O4 0.297517 0.968620 0.720138
O O5 0.083185 0.527021 0.513867
O O6 0.000000 0.443879 0.250000
O O7 0.957276 0.603676 0.280194
O O8 0.963076 0.415638 0.367098
O O9 0.412946 0.683032 0.749547
O O10 0.526740 0.769563 0.991427
O O11 0.703735 0.895424 0.140440
O O12 0.649797 0.845449 0.232792
O O13 0.677425 0.413581 0.281923
O O14 0.955008 0.896386 0.487121
O O15 0.927371 0.016739 0.288570
O O16 0.434959 0.281778 0.778008
O O17 0.500000 0.400642 0.750000
#
# Coordination Sequence:
#
# PCOD9263345 Si02
#       8
#     8   8   8   8   8   8   8   8
#     4  10  19  39  57  76 118 151 195 238 280 350
#     4  11  19  30  56  89 115 144 186 234 294 336
#     4   9  16  34  54  77 109 145 182 241 278 317
#     4  11  21  35  58  85 117 152 194 237 292 342
#     4  10  23  37  58  84 112 164 191 232 295 342
#     4   9  21  39  58  82 115 147 199 237 277 344
#     4  10  19  34  55  87 117 143 186 241 285 345
#     4  10  21  39  63  84 114 152 189 242 298 340
#
# _framework density 19.448568000000002
#
# number of rings (size 3 to 8) (size 9 to 14) (size 15 to 20)
#    0.000    2.000    2.500    1.875    0.000    2.500 
#    0.000    8.750    0.000    2.250    0.000    0.000 
#    0.000    0.000    0.000    0.000    0.000    0.000 
#
# Total GULP energy -178169.393707 kJ/mol
# GULP energy per Si atom -5567.793553 kJ/mol
# Density = 1.940430 g / cm^3
# Si number density = 19.448568 Si / 1000 Ang^3
#
#
#
# Elastic Constant Matrix: (Units=GPa)
#
#
# Indices 1 2 3 4 5 6 
#
# 1 147.6517 97.3382 32.5430 0.0000 0.6190 0.0000
# 2 97.3382 139.3305 28.6285 0.0000 0.3132 0.0000
# 3 32.5430 28.6285 35.0829 0.0000 2.2436 0.0000
# 4 0.0000 0.0000 0.0000 14.2948 0.0000 -3.5934
# 5 0.6190 0.3132 2.2436 0.0000 22.4361 0.0000
# 6 0.0000 0.0000 0.0000 -3.5934 0.0000 27.3160
#
#
#
# Elastic Compliance Matrix: (Units=1/GPa)
#
#
# Indices 1 2 3 4 5 6 
#
# 1 0.013468 -0.008216 -0.005809 0.000000 0.000324 0.000000
# 2 -0.008216 0.013643 -0.003537 0.000000 0.000390 0.000000
# 3 -0.005809 -0.003537 0.037002 0.000000 -0.003491 0.000000
# 4 0.000000 0.000000 0.000000 0.072348 0.000000 0.009517
# 5 0.000324 0.000390 -0.003491 0.000000 0.044906 0.000000
# 6 0.000000 0.000000 0.000000 0.009517 0.000000 0.037861
#
#
# Mechanical properties :
#
#
# Convention : Reuss Voigt Hill
#
# Bulk Modulus (GPa) = 34.49596 71.00939 52.75267
# Shear Modulus (GPa) = 18.93842 23.71308 21.32575
#
# Velocity S-wave (km/s) = 3.12391 3.49559 3.31497
# Velocity P-wave (km/s) = 5.54863 7.27206 6.46800
#
# Compressibility (1/GPa) = 0.02898891
#
# Stress axis : x y z
#
# Youngs Moduli (GPa) = 74.24945 73.29859 27.02576
#
# Poissons Ratio (x) = 0.60223 0.15700
# Poissons Ratio (y) = 0.61004 0.09558
# Poissons Ratio (z) = 0.43134 0.25922
#
# Static dielectric constant tensor:
#      x y z
#    x 1.688830 0.000000 -0.004840 
#    y 0.000000 1.730510 0.000000 
#    z -0.004840 0.000000 1.751860 
# 
# From -- ./inp_files/181769.got.cif
#   From: 2010.05.17/outbox.cif.g08.bks.cpg/sg15_91_cif.got.tgz:181769.got - 2010.06.03 18:47:42.
