data_PCOD9263673
_publ_section_title
;
Structure prediction by ZEFSAII (Michael W. Deem and Ramdas Pophale) SiO2 
 PCOD9263673
Probable space group: C 2/C
;
_chemical_formula_sum "Si O2"
_cell_formula_units_Z 48
_cell_length_a 24.057982
_cell_length_b 11.339450
_cell_length_c 13.644022
_cell_angle_alpha 90.000000
_cell_angle_beta 147.443479
_cell_angle_gamma 90.000000
_cell_volume 2003.004280
_symmetry_space_group_name_H-M "C 2/C"
_symmetry_group_IT_number 15
_symmetry_cell_setting 'monoclinic'
loop_
_space_group_symop_operation_xyz
x,y,z
-x,y,1/2-z
-x,-y,-z
x,-y,1/2+z
1/2+x,1/2+y,z
1/2-x,1/2+y,1/2-z
1/2-x,1/2-y,-z
1/2+x,1/2-y,1/2+z
loop_
_atom_site_type_symbol
_atom_site_label
_atom_site_fract_x
_atom_site_fract_y
_atom_site_fract_z
Si Si1 0.590852 0.571608 0.799439
Si Si2 0.335099 0.731027 0.434679
Si Si3 0.014828 0.703840 0.068104
Si Si4 0.085627 0.814971 0.751452
Si Si5 0.820836 0.571401 0.072769
Si Si6 0.795000 0.663679 0.430474
O O1 0.560545 0.671562 0.675972
O O2 0.541463 0.445334 0.702134
O O3 0.595773 0.625884 0.916657
O O4 0.713657 0.548168 0.966915
O O5 0.408696 0.805982 0.472319
O O6 0.307337 0.814180 0.483787
O O7 0.239318 0.681238 0.231979
O O8 0.090907 0.602302 0.217750
O O9 0.988563 0.724608 0.916042
O O10 0.185920 0.825031 0.828250
O O11 0.128962 0.763490 0.916643
O O12 0.841530 0.460901 0.032937
#
# Coordination Sequence:
#
# PCOD9263673 Si02
#       6
#     8   8   8   8   8   8
#     4  10  19  34  59  81 107 143 184 224 270 320
#     4  10  20  34  59  79 109 144 182 225 268 326
#     4  10  19  35  58  80 108 144 184 221 273 321
#     4   9  19  35  55  80 110 141 179 228 267 326
#     4  10  20  35  58  79 109 143 183 223 270 328
#     4   9  20  35  53  83 106 144 184 216 276 324
#
# _framework density 23.964003000000002
#
# number of rings (size 3 to 8) (size 9 to 14) (size 15 to 20)
#    0.000    2.333    0.000    4.500    2.333    0.667 
#    0.000    0.000   14.667    0.000    0.000    0.000 
#    0.000    0.000    0.000    0.000    0.000    0.000 
#
# Total GULP energy -134143.898240 kJ/mol
# GULP energy per Si atom -5589.329093 kJ/mol
# Density = 2.390946 g / cm^3
# Si number density = 23.964003 Si / 1000 Ang^3
#
#
#
# Elastic Constant Matrix: (Units=GPa)
#
#
# Indices 1 2 3 4 5 6 
#
# 1 37.9288 -20.3443 3.0343 0.0000 -4.9573 0.0000
# 2 -20.3443 71.9584 23.4323 0.0000 -10.8675 0.0000
# 3 3.0343 23.4323 129.0881 0.0000 -34.3914 0.0000
# 4 0.0000 0.0000 0.0000 35.6493 0.0000 3.8483
# 5 -4.9573 -10.8675 -34.3914 0.0000 36.5254 0.0000
# 6 0.0000 0.0000 0.0000 3.8483 0.0000 20.0765
#
#
#
# Elastic Compliance Matrix: (Units=1/GPa)
#
#
# Indices 1 2 3 4 5 6 
#
# 1 0.033048 0.010665 -0.000897 0.000000 0.006813 0.000000
# 2 0.010665 0.018384 -0.002329 0.000000 0.004724 0.000000
# 3 -0.000897 -0.002329 0.010643 0.000000 0.009207 0.000000
# 4 0.000000 0.000000 0.000000 0.028644 0.000000 -0.005490
# 5 0.006813 0.004724 0.009207 0.000000 0.038377 0.000000
# 6 0.000000 0.000000 0.000000 -0.005490 0.000000 0.050862
#
#
# Mechanical properties :
#
#
# Convention : Reuss Voigt Hill
#
# Bulk Modulus (GPa) = 12.99529 27.91334 20.45432
# Shear Modulus (GPa) = 26.21474 33.97378 30.09426
#
# Velocity S-wave (km/s) = 3.31104 3.76932 3.54759
# Velocity P-wave (km/s) = 4.47793 5.53327 5.03334
#
# Compressibility (1/GPa) = 0.07695095
#
# Stress axis : x y z
#
# Youngs Moduli (GPa) = 30.25924 54.39523 93.95525
#
# Poissons Ratio (x) = -0.58010 0.08432
# Poissons Ratio (y) = -0.32270 0.21884
# Poissons Ratio (z) = 0.02716 0.12670
#
# Static dielectric constant tensor:
#      x y z
#    x 2.054520 0.000000 0.072570 
#    y 0.000000 1.879440 0.000000 
#    z 0.072570 0.000000 1.902210 
# 
# From -- ./inp_files/151811.got.cif
#   From: 2010.05.17/outbox.cif.g08.bks.cpg/sg15_76_cif.got.tgz:151811.got - 2010.06.03 18:47:42.
