data_PCOD9263424
_publ_section_title
;
Structure prediction by ZEFSAII (Michael W. Deem and Ramdas Pophale) SiO2 
 PCOD9263424
Probable space group: C 2/C
;
_chemical_formula_sum "Si O2"
_cell_formula_units_Z 40
_cell_length_a 25.402979
_cell_length_b 8.963900
_cell_length_c 7.931325
_cell_angle_alpha 90.000000
_cell_angle_beta 68.671982
_cell_angle_gamma 90.000000
_cell_volume 1682.350743
_symmetry_space_group_name_H-M "C 2/C"
_symmetry_group_IT_number 15
_symmetry_cell_setting 'monoclinic'
loop_
_space_group_symop_operation_xyz
x,y,z
-x,y,1/2-z
-x,-y,-z
x,-y,1/2+z
1/2+x,1/2+y,z
1/2-x,1/2+y,1/2-z
1/2-x,1/2-y,-z
1/2+x,1/2-y,1/2+z
loop_
_atom_site_type_symbol
_atom_site_label
_atom_site_fract_x
_atom_site_fract_y
_atom_site_fract_z
Si Si1 0.309788 0.785529 0.511048
Si Si2 0.861458 0.507588 0.662907
Si Si3 0.403185 0.430667 0.852463
Si Si4 0.920566 0.772755 0.476751
Si Si5 0.028343 0.681733 0.544579
O O1 0.250000 0.750000 0.500000
O O2 0.345884 0.892539 0.342439
O O3 0.343321 0.630223 0.491664
O O4 0.312500 0.890321 0.672573
O O5 0.875486 0.640857 0.513323
O O6 0.919565 0.412724 0.589167
O O7 0.406068 0.370868 0.659474
O O8 0.447804 0.338260 0.912536
O O9 0.416521 0.604570 0.838350
O O10 0.980763 0.705506 0.459808
O O11 0.000000 0.615174 0.750000
#
# Coordination Sequence:
#
# PCOD9263424 Si02
#       5
#     8   8   8   8   8
#     4  10  23  43  62  85 121 158 204 262 304 346
#     4  10  22  40  63  91 117 157 206 247 300 364
#     4   9  20  35  54  86 123 158 199 242 291 353
#     4  10  19  34  56  86 123 159 193 239 292 353
#     4   9  18  36  59  88 126 160 196 246 296 352
#
# _framework density 23.776254999999999
#
# number of rings (size 3 to 8) (size 9 to 14) (size 15 to 20)
#    0.000    2.400    0.000    2.400    0.000    6.400 
#    0.000    7.000    0.000    0.000    0.000    0.000 
#    0.000    0.000    0.000    0.000    0.000    0.000 
#
# Total GULP energy -111731.655039 kJ/mol
# GULP energy per Si atom -5586.582752 kJ/mol
# Density = 2.372214 g / cm^3
# Si number density = 23.776255 Si / 1000 Ang^3
#
#
#
# Elastic Constant Matrix: (Units=GPa)
#
#
# Indices 1 2 3 4 5 6 
#
# 1 107.3289 45.3663 -11.9872 0.0000 0.7981 0.0000
# 2 45.3663 124.1046 11.8287 0.0000 -3.4053 0.0000
# 3 -11.9872 11.8287 54.9566 0.0000 8.4792 0.0000
# 4 0.0000 0.0000 0.0000 33.1686 0.0000 13.9758
# 5 0.7981 -3.4053 8.4792 0.0000 16.7075 0.0000
# 6 0.0000 0.0000 0.0000 13.9758 0.0000 34.9347
#
#
#
# Elastic Compliance Matrix: (Units=1/GPa)
#
#
# Indices 1 2 3 4 5 6 
#
# 1 0.011857 -0.004835 0.004195 0.000000 -0.003681 0.000000
# 2 -0.004835 0.010320 -0.003945 0.000000 0.004337 0.000000
# 3 0.004195 -0.003945 0.021824 0.000000 -0.012080 0.000000
# 4 0.000000 0.000000 0.000000 0.036262 0.000000 -0.014507
# 5 -0.003681 0.004337 -0.012080 0.000000 0.067044 0.000000
# 6 0.000000 0.000000 0.000000 -0.014507 0.000000 0.034428
#
#
# Mechanical properties :
#
#
# Convention : Reuss Voigt Hill
#
# Bulk Modulus (GPa) = 28.71042 41.86727 35.28885
# Shear Modulus (GPa) = 24.68947 33.04097 28.86522
#
# Velocity S-wave (km/s) = 3.22593 3.73186 3.48808
# Velocity P-wave (km/s) = 5.09676 6.01798 5.57643
#
# Compressibility (1/GPa) = 0.03483056
#
# Stress axis : x y z
#
# Youngs Moduli (GPa) = 84.34038 96.89782 45.82088
#
# Poissons Ratio (x) = 0.46850 -0.19221
# Poissons Ratio (y) = 0.40779 0.18076
# Poissons Ratio (z) = -0.35379 0.38226
#
# Static dielectric constant tensor:
#      x y z
#    x 1.875090 0.000000 0.027200 
#    y 0.000000 1.932350 0.000000 
#    z 0.027200 0.000000 2.024090 
# 
# From -- ./inp_files/64588.got.cif
#   From: 2010.05.17/outbox.cif.g08.bks.cpg/sg15_33_cif.got.tgz:64588.got - 2010.06.03 18:47:42.
