data_PCOD9263744
_publ_section_title
;
Structure prediction by ZEFSAII (Michael W. Deem and Ramdas Pophale) SiO2 
 PCOD9263744
Probable space group: C 2/C
;
_chemical_formula_sum "Si O2"
_cell_formula_units_Z 56
_cell_length_a 20.491490
_cell_length_b 25.504086
_cell_length_c 5.578996
_cell_angle_alpha 90.000000
_cell_angle_beta 61.777776
_cell_angle_gamma 90.000000
_cell_volume 2569.061241
_symmetry_space_group_name_H-M "C 2/C"
_symmetry_group_IT_number 15
_symmetry_cell_setting 'monoclinic'
loop_
_space_group_symop_operation_xyz
x,y,z
-x,y,1/2-z
-x,-y,-z
x,-y,1/2+z
1/2+x,1/2+y,z
1/2-x,1/2+y,1/2-z
1/2-x,1/2-y,-z
1/2+x,1/2-y,1/2+z
loop_
_atom_site_type_symbol
_atom_site_label
_atom_site_fract_x
_atom_site_fract_y
_atom_site_fract_z
Si Si1 0.041617 0.336580 0.434406
Si Si2 0.707735 0.869722 0.136987
Si Si3 0.728213 0.976996 0.345669
Si Si4 0.845335 0.132371 0.064995
Si Si5 0.295547 0.711057 0.759550
Si Si6 0.427756 0.278007 0.725578
Si Si7 0.602306 0.517079 0.476407
O O1 0.120610 0.364309 0.255127
O O2 0.054529 0.274121 0.452783
O O3 0.000000 0.340961 0.250000
O O4 0.000000 0.355780 0.750000
O O5 0.720175 0.915633 0.308736
O O6 0.738487 0.814211 0.174429
O O7 0.764869 0.881237 0.821058
O O8 0.697280 0.995232 0.656842
O O9 0.815219 0.991980 0.198569
O O10 0.891680 0.173815 0.144824
O O11 0.888941 0.078235 0.976067
O O12 0.830369 0.162804 0.846316
O O13 0.363731 0.739737 0.519577
O O14 0.250000 0.750000 0.000000
O O15 0.500000 0.294149 0.750000
O O16 0.569626 0.489487 0.767794
#
# Coordination Sequence:
#
# PCOD9263744 Si02
#       7
#     8   8   8   8   8   8   8
#     4  11  27  45  65  89 130 181 218 262 323 397
#     4  11  23  38  64  96 128 165 222 270 326 384
#     4  10  19  34  59  93 123 164 202 264 325 383
#     4  11  22  36  66  97 126 167 218 271 323 385
#     4  11  23  37  64  98 128 163 218 281 322 374
#     4  10  25  42  61  91 132 179 215 261 328 397
#     4  10  19  35  58  94 127 160 203 264 325 382
#
# _framework density 21.797847000000001
#
# number of rings (size 3 to 8) (size 9 to 14) (size 15 to 20)
#    0.000    1.429    2.857    3.429   12.000    2.286 
#    0.000    0.000    0.000    3.429    0.000    0.000 
#    0.000    0.000    0.000    0.000    0.000    0.000 
#
# Total GULP energy -156422.789009 kJ/mol
# GULP energy per Si atom -5586.528179 kJ/mol
# Density = 2.174823 g / cm^3
# Si number density = 21.797847 Si / 1000 Ang^3
#
#
#
# Elastic Constant Matrix: (Units=GPa)
#
#
# Indices 1 2 3 4 5 6 
#
# 1 89.5964 14.9749 22.3698 0.0000 0.9586 0.0000
# 2 14.9749 51.3741 -4.0925 0.0000 8.4202 0.0000
# 3 22.3698 -4.0925 92.8751 0.0000 16.8586 0.0000
# 4 0.0000 0.0000 0.0000 17.8221 0.0000 16.9400
# 5 0.9586 8.4202 16.8586 0.0000 26.1443 0.0000
# 6 0.0000 0.0000 0.0000 16.9400 0.0000 16.6698
#
#
#
# Elastic Compliance Matrix: (Units=1/GPa)
#
#
# Indices 1 2 3 4 5 6 
#
# 1 0.012890 -0.004660 -0.003960 0.000000 0.003582 0.000000
# 2 -0.004660 0.022712 0.003873 0.000000 -0.009642 0.000000
# 3 -0.003960 0.003873 0.013695 0.000000 -0.009933 0.000000
# 4 0.000000 0.000000 0.000000 1.645697 0.000000 -1.672366
# 5 0.003582 -0.009642 -0.009933 0.000000 0.047628 0.000000
# 6 0.000000 0.000000 0.000000 -1.672366 0.000000 1.759456
#
#
# Mechanical properties :
#
#
# Convention : Reuss Voigt Hill
#
# Bulk Modulus (GPa) = 25.12342 33.37222 29.24782
# Shear Modulus (GPa) = 1.41850 25.50015 13.45933
#
# Velocity S-wave (km/s) = 0.80757 3.42401 2.48757
# Velocity P-wave (km/s) = 3.52423 5.56551 4.65807
#
# Compressibility (1/GPa) = 0.03980350
#
# Stress axis : x y z
#
# Youngs Moduli (GPa) = 77.57666 44.02925 73.02082
#
# Poissons Ratio (x) = 0.20517 0.28918
# Poissons Ratio (y) = 0.36150 -0.28283
# Poissons Ratio (z) = 0.30723 -0.17054
#
# Static dielectric constant tensor:
#      x y z
#    x 1.830850 0.000000 0.043220 
#    y 0.000000 1.807570 0.000000 
#    z 0.043220 0.000000 1.830680 
# 
# From -- ./inp_files/11499.got.cif
#   From: 2010.05.17/outbox.cif.g08.bks.cpg/sg15_6_cif.got.tgz:11499.got - 2010.06.03 18:47:42.
