data_PCOD9263251
_publ_section_title
;
Structure prediction by ZEFSAII (Michael W. Deem and Ramdas Pophale) SiO2 
 PCOD9263251
Probable space group: C 2/C
;
_chemical_formula_sum "Si O2"
_cell_formula_units_Z 56
_cell_length_a 22.036291
_cell_length_b 5.477756
_cell_length_c 18.271086
_cell_angle_alpha 90.000000
_cell_angle_beta 80.188378
_cell_angle_gamma 90.000000
_cell_volume 2173.233331
_symmetry_space_group_name_H-M "C 2/C"
_symmetry_group_IT_number 15
_symmetry_cell_setting 'monoclinic'
loop_
_space_group_symop_operation_xyz
x,y,z
-x,y,1/2-z
-x,-y,-z
x,-y,1/2+z
1/2+x,1/2+y,z
1/2-x,1/2+y,1/2-z
1/2-x,1/2-y,-z
1/2+x,1/2-y,1/2+z
loop_
_atom_site_type_symbol
_atom_site_label
_atom_site_fract_x
_atom_site_fract_y
_atom_site_fract_z
Si Si1 0.223331 0.103197 0.597678
Si Si2 0.778412 0.888242 0.712020
Si Si3 0.590777 0.593394 0.432471
Si Si4 0.612955 0.924418 0.608621
Si Si5 0.466365 0.528600 0.891087
Si Si6 0.349644 0.890094 0.540859
Si Si7 0.873945 0.197852 0.291962
O O1 0.258390 0.316574 0.634286
O O2 0.165755 0.234437 0.571198
O O3 0.277098 0.948595 0.550256
O O4 0.185177 0.925508 0.657449
O O5 0.745208 0.656377 0.760753
O O6 0.648512 0.353170 0.785528
O O7 0.560560 0.541455 0.520070
O O8 0.534502 0.568274 0.387179
O O9 0.617077 0.869478 0.432563
O O10 0.635861 0.356835 0.418770
O O11 0.545269 0.814451 0.624270
O O12 0.622297 0.130714 0.546607
O O13 0.627243 0.018218 0.686628
O O14 0.431436 0.406206 0.827460
#
# Coordination Sequence:
#
# PCOD9263251 Si02
#       7
#     8   8   8   8   8   8   8
#     4  10  22  35  52  82 114 146 175 222 274 338
#     4  10  20  35  54  79 107 140 184 224 267 316
#     4  10  22  36  55  81 110 146 184 222 264 327
#     4  10  19  34  54  83 111 142 180 223 272 326
#     4   9  20  35  55  81 108 140 187 231 267 305
#     4  11  23  35  54  82 116 150 174 213 280 336
#     4  10  19  34  57  80 107 140 185 228 270 313
#
# _framework density 25.768058
#
# number of rings (size 3 to 8) (size 9 to 14) (size 15 to 20)
#    0.000    2.000    2.857    0.429    4.000    2.286 
#    0.000    0.000    0.000    0.857    0.000    0.000 
#    0.000    0.000    0.000    0.000    0.000    0.000 
#
# Total GULP energy -155978.806903 kJ/mol
# GULP energy per Si atom -5570.671675 kJ/mol
# Density = 2.570941 g / cm^3
# Si number density = 25.768058 Si / 1000 Ang^3
#
#
#
# Elastic Constant Matrix: (Units=GPa)
#
#
# Indices 1 2 3 4 5 6 
#
# 1 137.2265 48.3680 22.0647 0.0000 34.1735 0.0000
# 2 48.3680 118.0286 13.4144 0.0000 10.9335 0.0000
# 3 22.0647 13.4144 24.7786 0.0000 19.9607 0.0000
# 4 0.0000 0.0000 0.0000 40.1640 0.0000 16.1376
# 5 34.1735 10.9335 19.9607 0.0000 43.9910 0.0000
# 6 0.0000 0.0000 0.0000 16.1376 0.0000 26.4693
#
#
#
# Elastic Compliance Matrix: (Units=1/GPa)
#
#
# Indices 1 2 3 4 5 6 
#
# 1 0.010415 -0.003418 -0.002507 0.000000 -0.006104 0.000000
# 2 -0.003418 0.010150 -0.004032 0.000000 0.001962 0.000000
# 3 -0.002507 -0.004032 0.066820 0.000000 -0.027370 0.000000
# 4 0.000000 0.000000 0.000000 0.032976 0.000000 -0.020104
# 5 -0.006104 0.001962 -0.027370 0.000000 0.039405 0.000000
# 6 0.000000 0.000000 0.000000 -0.020104 0.000000 0.050037
#
#
# Mechanical properties :
#
#
# Convention : Reuss Voigt Hill
#
# Bulk Modulus (GPa) = 14.82096 49.74755 32.28425
# Shear Modulus (GPa) = 19.82511 35.20398 27.51454
#
# Velocity S-wave (km/s) = 2.77676 3.70021 3.27123
# Velocity P-wave (km/s) = 4.00558 6.13214 5.17918
#
# Compressibility (1/GPa) = 0.06747202
#
# Stress axis : x y z
#
# Youngs Moduli (GPa) = 96.01581 98.52637 14.96548
#
# Poissons Ratio (x) = 0.33673 0.03752
# Poissons Ratio (y) = 0.32815 0.06033
# Poissons Ratio (z) = 0.24073 0.39721
#
# Static dielectric constant tensor:
#      x y z
#    x 2.064080 0.000000 0.034990 
#    y 0.000000 2.062550 0.000000 
#    z 0.034990 0.000000 2.263520 
# 
# From -- ./inp_files/278643.got.cif
#   From: 2010.05.17/outbox.cif.g08.bks.cpg/sg15_140_cif.got.tgz:278643.got - 2010.06.03 18:47:42.
