data_PCOD9263513
_publ_section_title
;
Structure prediction by ZEFSAII (Michael W. Deem and Ramdas Pophale) SiO2 
 PCOD9263513
Probable space group: C 2/C
;
_chemical_formula_sum "Si O2"
_cell_formula_units_Z 64
_cell_length_a 9.087214
_cell_length_b 14.288801
_cell_length_c 28.003463
_cell_angle_alpha 90.000000
_cell_angle_beta 137.588130
_cell_angle_gamma 90.000000
_cell_volume 2452.401056
_symmetry_space_group_name_H-M "C 2/C"
_symmetry_group_IT_number 15
_symmetry_cell_setting 'monoclinic'
loop_
_space_group_symop_operation_xyz
x,y,z
-x,y,1/2-z
-x,-y,-z
x,-y,1/2+z
1/2+x,1/2+y,z
1/2-x,1/2+y,1/2-z
1/2-x,1/2-y,-z
1/2+x,1/2-y,1/2+z
loop_
_atom_site_type_symbol
_atom_site_label
_atom_site_fract_x
_atom_site_fract_y
_atom_site_fract_z
Si Si1 0.413021 0.455383 0.905056
Si Si2 0.699862 0.736089 0.146305
Si Si3 0.070571 0.167298 0.595543
Si Si4 0.555389 0.840174 0.984847
Si Si5 0.390928 0.477188 0.788049
Si Si6 0.345797 0.694362 0.779998
Si Si7 0.363461 0.047115 0.354410
Si Si8 0.376482 0.882861 0.042328
O O1 0.265832 0.363033 0.872344
O O2 0.352357 0.563110 0.900398
O O3 0.435733 0.455758 0.853287
O O4 0.634356 0.424446 0.983882
O O5 0.721538 0.746871 0.209067
O O6 0.464923 0.779207 0.076378
O O7 0.899255 0.794946 0.172723
O O8 0.816370 0.159814 0.550687
O O9 0.055419 0.238274 0.547770
O O10 0.192027 0.207032 0.671990
O O11 0.501229 0.885564 0.920920
O O12 0.456893 0.892693 0.006482
O O13 0.308954 0.583801 0.764528
O O14 0.199434 0.423489 0.714068
O O15 0.625008 0.463759 0.820405
O O16 0.484348 0.949086 0.389721
#
# Coordination Sequence:
#
# PCOD9263513 Si02
#       8
#     8   8   8   8   8   8   8   8
#     4  11  23  36  57  87 121 148 188 240 290 340
#     4  11  21  35  59  87 113 153 194 238 286 340
#     4  10  22  38  57  85 113 154 195 237 277 347
#     4  11  21  34  61  83 115 152 192 233 293 340
#     4  10  19  34  57  86 111 145 190 238 287 335
#     4  10  19  38  60  79 113 152 198 236 275 343
#     4  11  18  32  59  86 114 145 184 237 292 338
#     4  12  19  37  57  88 118 149 184 243 293 344
#
# _framework density 26.096874
#
# number of rings (size 3 to 8) (size 9 to 14) (size 15 to 20)
#    0.000    1.250    6.250    2.250    1.750    0.000 
#    0.000    0.625    0.000    9.000    0.000    0.000 
#    0.000    0.000    0.000    0.000    0.000    0.000 
#
# Total GULP energy -178885.976376 kJ/mol
# GULP energy per Si atom -5590.186762 kJ/mol
# Density = 2.603748 g / cm^3
# Si number density = 26.096874 Si / 1000 Ang^3
#
#
#
# Elastic Constant Matrix: (Units=GPa)
#
#
# Indices 1 2 3 4 5 6 
#
# 1 54.6940 -2.5720 34.8066 0.0000 -8.4380 0.0000
# 2 -2.5720 85.2716 27.0956 0.0000 -5.3258 0.0000
# 3 34.8066 27.0956 184.2929 0.0000 -13.9692 0.0000
# 4 0.0000 0.0000 0.0000 150.3253 0.0000 1.6269
# 5 -8.4380 -5.3258 -13.9692 0.0000 25.8110 0.0000
# 6 0.0000 0.0000 0.0000 1.6269 0.0000 2.6373
#
#
#
# Elastic Compliance Matrix: (Units=1/GPa)
#
#
# Indices 1 2 3 4 5 6 
#
# 1 0.021797 0.002280 -0.004042 0.000000 0.005409 0.000000
# 2 0.002280 0.012606 -0.002117 0.000000 0.002201 0.000000
# 3 -0.004042 -0.002117 0.006640 0.000000 0.001835 0.000000
# 4 0.000000 0.000000 0.000000 0.006697 0.000000 -0.004131
# 5 0.005409 0.002201 0.001835 0.000000 0.041959 0.000000
# 6 0.000000 0.000000 0.000000 -0.004131 0.000000 0.381731
#
#
# Mechanical properties :
#
#
# Convention : Reuss Voigt Hill
#
# Bulk Modulus (GPa) = 30.04395 49.21320 39.62857
# Shear Modulus (GPa) = 10.19817 53.41660 31.80739
#
# Velocity S-wave (km/s) = 1.97896 4.52913 3.49495
# Velocity P-wave (km/s) = 4.09380 6.80070 5.61287
#
# Compressibility (1/GPa) = 0.03328457
#
# Stress axis : x y z
#
# Youngs Moduli (GPa) = 45.87690 79.32621 150.60407
#
# Poissons Ratio (x) = -0.18084 0.60874
# Poissons Ratio (y) = -0.10458 0.31885
# Poissons Ratio (z) = 0.18543 0.16795
#
# Static dielectric constant tensor:
#      x y z
#    x 2.043940 0.000000 -0.098210 
#    y 0.000000 2.153450 0.000000 
#    z -0.098210 0.000000 2.105000 
# 
# From -- ./inp_files/311203.got.cif
#   From: 2010.05.17/outbox.cif.g08.bks.cpg/sg15_156_cif.got.tgz:311203.got - 2010.06.03 18:47:42.
