data_PCOD9263928
_publ_section_title
;
Structure prediction by ZEFSAII (Michael W. Deem and Ramdas Pophale) SiO2 
 PCOD9263928
Probable space group: C 2/C
;
_chemical_formula_sum "Si O2"
_cell_formula_units_Z 44
_cell_length_a 14.462092
_cell_length_b 21.064364
_cell_length_c 7.774407
_cell_angle_alpha 90.000000
_cell_angle_beta 115.821558
_cell_angle_gamma 90.000000
_cell_volume 2131.886193
_symmetry_space_group_name_H-M "C 2/C"
_symmetry_group_IT_number 15
_symmetry_cell_setting 'monoclinic'
loop_
_space_group_symop_operation_xyz
x,y,z
-x,y,1/2-z
-x,-y,-z
x,-y,1/2+z
1/2+x,1/2+y,z
1/2-x,1/2+y,1/2-z
1/2-x,1/2-y,-z
1/2+x,1/2-y,1/2+z
loop_
_atom_site_type_symbol
_atom_site_label
_atom_site_fract_x
_atom_site_fract_y
_atom_site_fract_z
Si Si1 0.747484 0.179153 0.068693
Si Si2 0.543667 0.149478 0.107175
Si Si3 0.659930 0.037002 0.358848
Si Si4 0.500000 0.473589 0.250000
Si Si5 0.370262 0.573193 0.343456
Si Si6 0.856950 0.404289 0.280431
O O1 0.728418 0.135483 0.886221
O O2 0.750000 0.250000 0.000000
O O3 0.646747 0.177525 0.110192
O O4 0.839867 0.142439 0.243518
O O5 0.500000 0.179158 0.250000
O O6 0.577970 0.078681 0.189180
O O7 0.452881 0.141288 0.897394
O O8 0.766548 0.046466 0.345274
O O9 0.670925 0.066609 0.556789
O O10 0.625058 0.964552 0.327402
O O11 0.410060 0.522014 0.236640
O O12 0.541840 0.430722 0.439433
#
# Coordination Sequence:
#
# PCOD9263928 Si02
#       6
#     8   8   8   4   8   8
#     4  11  24  42  61  82 127 170 210 242 305 373
#     4   9  20  38  62  93 121 153 198 252 303 361
#     4  10  19  34  63  95 126 150 191 251 323 364
#     4  10  20  38  66  92 124 150 220 272 314 364
#     4  10  21  38  62  92 123 164 201 267 317 363
#     4  11  20  34  62  93 124 155 192 249 304 372
#
# _framework density 20.638998999999998
#
# number of rings (size 3 to 8) (size 9 to 14) (size 15 to 20)
#    0.000    1.818    0.000    5.455    0.000    4.364 
#    3.273    8.182    6.000    0.000    0.000    0.000 
#    0.000    0.000    0.000    0.000    0.000    0.000 
#
# Total GULP energy -122785.461464 kJ/mol
# GULP energy per Si atom -5581.157339 kJ/mol
# Density = 2.059202 g / cm^3
# Si number density = 20.638999 Si / 1000 Ang^3
#
#
#
# Elastic Constant Matrix: (Units=GPa)
#
#
# Indices 1 2 3 4 5 6 
#
# 1 100.8986 24.7925 13.6080 0.0000 -12.8435 0.0000
# 2 24.7925 115.9279 48.8386 0.0000 -1.6221 0.0000
# 3 13.6080 48.8386 93.4786 0.0000 -11.8287 0.0000
# 4 0.0000 0.0000 0.0000 16.2540 0.0000 -6.8721
# 5 -12.8435 -1.6221 -11.8287 0.0000 29.0920 0.0000
# 6 0.0000 0.0000 0.0000 -6.8721 0.0000 15.7707
#
#
#
# Elastic Compliance Matrix: (Units=1/GPa)
#
#
# Indices 1 2 3 4 5 6 
#
# 1 0.011088 -0.002414 0.000263 0.000000 0.004868 0.000000
# 2 -0.002414 0.011679 -0.006118 0.000000 -0.002902 0.000000
# 3 0.000263 -0.006118 0.014577 0.000000 0.005702 0.000000
# 4 0.000000 0.000000 0.000000 0.075418 0.000000 0.032863
# 5 0.004868 -0.002902 0.005702 0.000000 0.038679 0.000000
# 6 0.000000 0.000000 0.000000 0.032863 0.000000 0.077729
#
#
# Mechanical properties :
#
#
# Convention : Reuss Voigt Hill
#
# Bulk Modulus (GPa) = 48.06058 53.86482 50.96270
# Shear Modulus (GPa) = 19.79079 27.09441 23.44260
#
# Velocity S-wave (km/s) = 3.09997 3.62716 3.37388
# Velocity P-wave (km/s) = 6.01248 6.61036 6.31850
#
# Compressibility (1/GPa) = 0.02080707
#
# Stress axis : x y z
#
# Youngs Moduli (GPa) = 90.18567 85.62419 68.60108
#
# Poissons Ratio (x) = 0.20670 -0.01804
# Poissons Ratio (y) = 0.21771 0.41967
# Poissons Ratio (z) = -0.02372 0.52381
#
# Static dielectric constant tensor:
#      x y z
#    x 1.800740 0.000000 -0.013820 
#    y 0.000000 1.702020 0.000000 
#    z -0.013820 0.000000 1.780790 
# 
# From -- ./inp_files/41007.got.cif
#   From: 2010.05.17/outbox.cif.g08.bks.cpg/sg15_21_cif.got.tgz:41007.got - 2010.06.03 18:47:42.
