data_PCOD9263104
_publ_section_title
;
Structure prediction by ZEFSAII (Michael W. Deem and Ramdas Pophale) SiO2 
 PCOD9263104
Probable space group: C 2/C
;
_chemical_formula_sum "Si O2"
_cell_formula_units_Z 56
_cell_length_a 25.137590
_cell_length_b 12.573229
_cell_length_c 25.226313
_cell_angle_alpha 90.000000
_cell_angle_beta 23.675588
_cell_angle_gamma 90.000000
_cell_volume 3201.637059
_symmetry_space_group_name_H-M "C 2/C"
_symmetry_group_IT_number 15
_symmetry_cell_setting 'monoclinic'
loop_
_space_group_symop_operation_xyz
x,y,z
-x,y,1/2-z
-x,-y,-z
x,-y,1/2+z
1/2+x,1/2+y,z
1/2-x,1/2+y,1/2-z
1/2-x,1/2-y,-z
1/2+x,1/2-y,1/2+z
loop_
_atom_site_type_symbol
_atom_site_label
_atom_site_fract_x
_atom_site_fract_y
_atom_site_fract_z
Si Si1 0.791470 0.950151 0.106876
Si Si2 0.117350 0.603698 0.336979
Si Si3 0.851181 0.391960 0.371244
Si Si4 0.636819 0.636797 0.152925
Si Si5 0.849820 0.435229 0.103517
Si Si6 0.224623 0.736412 0.749602
Si Si7 0.397894 0.440263 0.696156
O O1 0.715211 0.941425 0.120482
O O2 0.771939 0.840450 0.158606
O O3 0.723232 0.044494 0.203030
O O4 0.948208 0.964876 0.954692
O O5 0.121007 0.541092 0.389549
O O6 0.161390 0.719854 0.315043
O O7 0.966757 0.585737 0.454867
O O8 0.757855 0.406119 0.507542
O O9 0.855180 0.265074 0.355835
O O10 0.000000 0.426402 0.250000
O O11 0.500000 0.605825 0.250000
O O12 0.629983 0.597548 0.218806
O O13 0.860486 0.338936 0.134960
O O14 0.699791 0.459445 0.223346
O O15 0.144755 0.838490 0.800923
#
# Coordination Sequence:
#
# PCOD9263104 Si02
#       7
#     8   8   8   8   8   8   8
#     4  11  21  34  53  79 106 141 179 213 263 311
#     4   9  20  35  50  75 105 138 180 218 256 312
#     4  10  21  32  51  76 104 138 174 212 256 315
#     4  10  19  34  49  76 106 134 174 212 259 314
#     4   9  20  35  50  75 104 140 179 215 262 307
#     4  10  20  34  55  76 107 141 178 220 255 305
#     4  11  21  33  55  77 107 144 173 216 263 310
#
# _framework density 17.491052
#
# number of rings (size 3 to 8) (size 9 to 14) (size 15 to 20)
#    0.000    2.000    2.857    0.857    2.000    7.429 
#    0.000    0.000    0.000    0.000    0.000    2.000 
#    0.000    0.000    0.000    0.000    0.000    0.000 
#
# Total GULP energy -155888.825298 kJ/mol
# GULP energy per Si atom -5567.458046 kJ/mol
# Density = 1.745124 g / cm^3
# Si number density = 17.491052 Si / 1000 Ang^3
#
#
#
# Elastic Constant Matrix: (Units=GPa)
#
#
# Indices 1 2 3 4 5 6 
#
# 1 69.9290 27.6461 56.6173 -0.0002 -9.5008 0.0001
# 2 27.6461 44.7989 27.4130 0.0004 0.7500 0.0006
# 3 56.6173 27.4130 168.6955 0.0003 -9.8524 0.0004
# 4 -0.0002 0.0004 0.0003 -2.9257 0.0002 -3.9744
# 5 -9.5008 0.7500 -9.8524 0.0002 27.5998 -0.0002
# 6 0.0001 0.0006 0.0004 -3.9744 -0.0002 19.3110
#
#
#
# Elastic Compliance Matrix: (Units=1/GPa)
#
#
# Indices 1 2 3 4 5 6 
#
# 1 0.024674 -0.011670 -0.005995 -0.000003 0.006671 0.000000
# 2 -0.011670 0.030432 -0.001339 0.000004 -0.005322 0.000000
# 3 -0.005995 -0.001339 0.008210 0.000001 0.000904 0.000000
# 4 -0.000003 0.000004 0.000001 -0.267121 0.000001 -0.054976
# 5 0.006671 -0.005322 0.000904 0.000001 0.038996 0.000001
# 6 0.000000 0.000000 0.000000 -0.054976 0.000001 0.040469
#
#
# Mechanical properties :
#
#
# Convention : Reuss Voigt Hill
#
# Bulk Modulus (GPa) = 39.51354 56.30847 47.91100
# Shear Modulus (GPa) = -64.18962 20.24684 -21.97139
#
# Velocity S-wave (km/s) = -6.06450 3.40598 -3.54807
# Velocity P-wave (km/s) = 5.13789 6.90870 3.26591
#
# Compressibility (1/GPa) = 0.02530778
#
# Stress axis : x y z
#
# Youngs Moduli (GPa) = 40.52836 32.85966 121.79768
#
# Poissons Ratio (x) = 0.38347 0.73019
# Poissons Ratio (y) = 0.47297 0.16314
# Poissons Ratio (z) = 0.24297 0.04401
#
# Static dielectric constant tensor:
#      x y z
#    x 1.647660 0.000000 -0.043080 
#    y 0.000000 1.721240 0.000000 
#    z -0.043080 0.000000 1.665620 
# 
# From -- ./inp_files/303255.got.cif
#   From: 2010.05.17/outbox.cif.g08.bks.cpg/sg15_152_cif.got.tgz:303255.got - 2010.06.03 18:47:42.
