data_PCOD9263098
_publ_section_title
;
Structure prediction by ZEFSAII (Michael W. Deem and Ramdas Pophale) SiO2 
 PCOD9263098
Probable space group: C 2/C
;
_chemical_formula_sum "Si O2"
_cell_formula_units_Z 52
_cell_length_a 25.116526
_cell_length_b 15.178411
_cell_length_c 9.799588
_cell_angle_alpha 90.000000
_cell_angle_beta 35.868927
_cell_angle_gamma 90.000000
_cell_volume 2188.979159
_symmetry_space_group_name_H-M "C 2/C"
_symmetry_group_IT_number 15
_symmetry_cell_setting 'monoclinic'
loop_
_space_group_symop_operation_xyz
x,y,z
-x,y,1/2-z
-x,-y,-z
x,-y,1/2+z
1/2+x,1/2+y,z
1/2-x,1/2+y,1/2-z
1/2-x,1/2-y,-z
1/2+x,1/2-y,1/2+z
loop_
_atom_site_type_symbol
_atom_site_label
_atom_site_fract_x
_atom_site_fract_y
_atom_site_fract_z
Si Si1 0.375043 0.359103 0.495032
Si Si2 0.500000 0.689919 0.250000
Si Si3 0.273144 0.068750 0.358513
Si Si4 0.837120 0.711494 0.398328
Si Si5 0.784106 0.370621 0.297678
Si Si6 0.383794 0.264847 0.757965
Si Si7 0.085604 0.029852 0.920262
O O1 0.268862 0.375721 0.680318
O O2 0.399405 0.295019 0.315486
O O3 0.403615 0.306212 0.569374
O O4 0.404785 0.456998 0.479425
O O5 0.542230 0.747849 0.281186
O O6 0.435075 0.621933 0.464317
O O7 0.349890 0.125093 0.277479
O O8 0.181711 0.044420 0.640645
O O9 0.303121 0.973073 0.250214
O O10 0.750000 0.750000 0.500000
O O11 0.810630 0.672864 0.600045
O O12 0.681790 0.339541 0.540820
O O13 0.836003 0.325336 0.315771
O O14 0.000000 0.000000 0.000000
#
# Coordination Sequence:
#
# PCOD9263098 Si02
#       7
#     8   4   8   8   8   8   8
#     4  10  19  34  48  75 113 143 180 230 285 341
#     4  12  22  36  52  82 116 156 188 226 290 348
#     4  11  20  33  55  81 107 146 193 238 286 336
#     4   9  20  34  52  76 108 143 181 233 284 336
#     4  10  19  34  54  77 110 143 189 238 281 332
#     4  10  20  34  52  76 111 146 187 232 280 338
#     4  12  21  33  51  78 114 154 187 230 284 350
#
# _framework density 23.755364
#
# number of rings (size 3 to 8) (size 9 to 14) (size 15 to 20)
#    0.000    1.538    3.077    3.692    0.000    0.000 
#    0.000    0.000    0.000    0.000    0.000   11.846 
#    0.000    0.000    0.000    0.000    0.000    0.000 
#
# Total GULP energy -144912.283733 kJ/mol
# GULP energy per Si atom -5573.549374 kJ/mol
# Density = 2.370130 g / cm^3
# Si number density = 23.755364 Si / 1000 Ang^3
#
#
#
# Elastic Constant Matrix: (Units=GPa)
#
#
# Indices 1 2 3 4 5 6 
#
# 1 170.6197 47.3012 29.1073 0.0000 46.0147 0.0000
# 2 47.3012 107.1718 9.9579 0.0000 17.1222 0.0000
# 3 29.1073 9.9579 50.9068 0.0000 19.8563 0.0000
# 4 0.0000 0.0000 0.0000 16.4346 0.0000 18.7558
# 5 46.0147 17.1222 19.8563 0.0000 28.8627 0.0000
# 6 0.0000 0.0000 0.0000 18.7558 0.0000 47.4327
#
#
#
# Elastic Compliance Matrix: (Units=1/GPa)
#
#
# Indices 1 2 3 4 5 6 
#
# 1 0.010752 -0.002205 0.000628 0.000000 -0.016265 0.000000
# 2 -0.002205 0.010769 0.000376 0.000000 -0.003132 0.000000
# 3 0.000628 0.000376 0.026909 0.000000 -0.019736 0.000000
# 4 0.000000 0.000000 0.000000 0.110887 0.000000 -0.043847
# 5 -0.016265 -0.003132 -0.019736 0.000000 0.076013 0.000000
# 6 0.000000 0.000000 0.000000 -0.043847 0.000000 0.038420
#
#
# Mechanical properties :
#
#
# Convention : Reuss Voigt Hill
#
# Bulk Modulus (GPa) = 21.72608 55.71456 38.72032
# Shear Modulus (GPa) = 17.15288 34.70147 25.92717
#
# Velocity S-wave (km/s) = 2.69004 3.82617 3.30725
# Velocity P-wave (km/s) = 4.33751 6.55925 5.56048
#
# Compressibility (1/GPa) = 0.04602763
#
# Stress axis : x y z
#
# Youngs Moduli (GPa) = 93.00850 92.85488 37.16167
#
# Poissons Ratio (x) = 0.20476 -0.02333
# Poissons Ratio (y) = 0.20510 -0.01396
# Poissons Ratio (z) = -0.05840 -0.03489
#
# Static dielectric constant tensor:
#      x y z
#    x 2.000050 0.000000 -0.093390 
#    y 0.000000 2.010710 0.000000 
#    z -0.093390 0.000000 2.040240 
# 
# From -- ./inp_files/61441.got.cif
#   From: 2010.05.17/outbox.cif.g08.bks.cpg/sg15_31_cif.got.tgz:61441.got - 2010.06.03 18:47:42.
