data_PCOD9263507
_publ_section_title
;
Structure prediction by ZEFSAII (Michael W. Deem and Ramdas Pophale) SiO2 
 PCOD9263507
Probable space group: C 2/C
;
_chemical_formula_sum "Si O2"
_cell_formula_units_Z 56
_cell_length_a 11.654139
_cell_length_b 27.334157
_cell_length_c 8.668529
_cell_angle_alpha 90.000000
_cell_angle_beta 108.146348
_cell_angle_gamma 90.000000
_cell_volume 2624.071172
_symmetry_space_group_name_H-M "C 2/C"
_symmetry_group_IT_number 15
_symmetry_cell_setting 'monoclinic'
loop_
_space_group_symop_operation_xyz
x,y,z
-x,y,1/2-z
-x,-y,-z
x,-y,1/2+z
1/2+x,1/2+y,z
1/2-x,1/2+y,1/2-z
1/2-x,1/2-y,-z
1/2+x,1/2-y,1/2+z
loop_
_atom_site_type_symbol
_atom_site_label
_atom_site_fract_x
_atom_site_fract_y
_atom_site_fract_z
Si Si1 0.135284 0.950581 0.276676
Si Si2 0.199714 0.132148 0.591096
Si Si3 0.383000 0.937315 0.986846
Si Si4 0.278195 0.704542 0.127578
Si Si5 0.383483 0.210583 0.814375
Si Si6 0.476200 0.151750 0.413221
Si Si7 0.707645 0.976914 0.868432
O O1 0.127836 0.898471 0.186946
O O2 0.215820 0.949624 0.466490
O O3 0.000000 0.968205 0.250000
O O4 0.201211 0.988285 0.189272
O O5 0.276308 0.091697 0.529305
O O6 0.140374 0.166339 0.434620
O O7 0.288715 0.170284 0.713824
O O8 0.488476 0.896839 0.025845
O O9 0.350457 0.946097 0.794135
O O10 0.388217 0.988537 0.079392
O O11 0.335939 0.734184 0.291256
O O12 0.156244 0.675711 0.119341
O O13 0.250000 0.750000 0.000000
O O14 0.500000 0.208500 0.750000
O O15 0.429573 0.192462 0.996670
O O16 0.500000 0.138050 0.250000
#
# Coordination Sequence:
#
# PCOD9263507 Si02
#       7
#     8   8   8   8   8   8   8
#     4  10  19  34  57  85 120 158 195 239 295 343
#     4   9  19  35  59  83 116 149 199 244 280 351
#     4   9  18  37  56  84 119 153 197 239 285 344
#     4   9  18  38  60  83 112 147 198 234 285 359
#     4  11  19  38  67  80 109 164 189 229 308 356
#     4  11  23  37  62  91 117 152 194 243 293 351
#     4   9  19  34  59  81 120 162 192 245 288 336
#
# _framework density 21.340883999999999
#
# number of rings (size 3 to 8) (size 9 to 14) (size 15 to 20)
#    0.000    2.286    4.286    0.429    2.000    0.571 
#    0.000    6.429    0.000    0.857    0.000    0.000 
#    0.000    0.000    0.000    0.000    0.000    0.000 
#
# Total GULP energy -156045.106735 kJ/mol
# GULP energy per Si atom -5573.039526 kJ/mol
# Density = 2.129231 g / cm^3
# Si number density = 21.340884 Si / 1000 Ang^3
#
#
#
# Elastic Constant Matrix: (Units=GPa)
#
#
# Indices 1 2 3 4 5 6 
#
# 1 52.7039 23.4366 21.5373 0.0000 -9.7556 0.0000
# 2 23.4366 80.7076 22.2352 0.0000 -0.3368 0.0000
# 3 21.5373 22.2352 76.3782 0.0000 -10.0992 0.0000
# 4 0.0000 0.0000 0.0000 33.6984 0.0000 0.2998
# 5 -9.7556 -0.3368 -10.0992 0.0000 24.8806 0.0000
# 6 0.0000 0.0000 0.0000 0.2998 0.0000 5.6392
#
#
#
# Elastic Compliance Matrix: (Units=1/GPa)
#
#
# Indices 1 2 3 4 5 6 
#
# 1 0.024841 -0.006023 -0.004199 0.000000 0.007954 0.000000
# 2 -0.006023 0.014984 -0.003116 0.000000 -0.003424 0.000000
# 3 -0.004199 -0.003116 0.015809 0.000000 0.004728 0.000000
# 4 0.000000 0.000000 0.000000 0.029689 0.000000 -0.001578
# 5 0.007954 -0.003424 0.004728 0.000000 0.045184 0.000000
# 6 0.000000 0.000000 0.000000 -0.001578 0.000000 0.177414
#
#
# Mechanical properties :
#
#
# Convention : Reuss Voigt Hill
#
# Bulk Modulus (GPa) = 34.53549 38.24532 36.39040
# Shear Modulus (GPa) = 14.52430 22.34901 18.43666
#
# Velocity S-wave (km/s) = 2.61163 3.23962 2.94243
# Velocity P-wave (km/s) = 5.03111 5.65275 5.35096
#
# Compressibility (1/GPa) = 0.02895572
#
# Stress axis : x y z
#
# Youngs Moduli (GPa) = 40.25634 66.73879 63.25377
#
# Poissons Ratio (x) = 0.40199 0.26563
# Poissons Ratio (y) = 0.24248 0.19712
# Poissons Ratio (z) = 0.16905 0.20798
#
# Static dielectric constant tensor:
#      x y z
#    x 1.776270 0.000000 0.016360 
#    y 0.000000 1.820790 0.000000 
#    z 0.016360 0.000000 1.855210 
# 
# From -- ./inp_files/35314.got.cif
#   From: 2010.05.17/outbox.cif.g08.bks.cpg/sg15_18_cif.got.tgz:35314.got - 2010.06.03 18:47:42.
