data_PCOD9263211
_publ_section_title
;
Structure prediction by ZEFSAII (Michael W. Deem and Ramdas Pophale) SiO2 
 PCOD9263211
Probable space group: C 2/C
;
_chemical_formula_sum "Si O2"
_cell_formula_units_Z 56
_cell_length_a 12.157955
_cell_length_b 20.458285
_cell_length_c 24.932741
_cell_angle_alpha 90.000000
_cell_angle_beta 160.828128
_cell_angle_gamma 90.000000
_cell_volume 2036.605356
_symmetry_space_group_name_H-M "C 2/C"
_symmetry_group_IT_number 15
_symmetry_cell_setting 'monoclinic'
loop_
_space_group_symop_operation_xyz
x,y,z
-x,y,1/2-z
-x,-y,-z
x,-y,1/2+z
1/2+x,1/2+y,z
1/2-x,1/2+y,1/2-z
1/2-x,1/2-y,-z
1/2+x,1/2-y,1/2+z
loop_
_atom_site_type_symbol
_atom_site_label
_atom_site_fract_x
_atom_site_fract_y
_atom_site_fract_z
Si Si1 0.486422 0.402832 0.515091
Si Si2 0.262061 0.604103 0.800172
Si Si3 0.060311 0.377266 0.100356
Si Si4 0.694626 0.397754 0.721261
Si Si5 0.376452 0.757549 0.850189
Si Si6 0.398486 0.066541 0.424861
Si Si7 0.401307 0.248529 0.930973
O O1 0.513084 0.415810 0.463495
O O2 0.727954 0.422985 0.675379
O O3 0.508823 0.324323 0.531727
O O4 0.105267 0.421826 0.353641
O O5 0.236093 0.683749 0.788081
O O6 0.311672 0.592575 0.759639
O O7 0.019129 0.298704 0.081875
O O8 0.698886 0.407471 0.947388
O O9 0.122554 0.387638 0.066202
O O10 0.922959 0.430566 0.872072
O O11 0.745256 0.319948 0.756508
O O12 0.750000 0.750000 0.000000
O O13 0.405645 0.774688 0.926544
O O14 0.000000 0.080006 0.250000
O O15 0.500000 0.000000 0.500000
O O16 0.000000 0.246143 0.750000
#
# Coordination Sequence:
#
# PCOD9263211 Si02
#       7
#     8   8   8   8   8   8   8
#     4   9  18  31  50  73 104 145 177 212 254 319
#     4   9  18  31  49  75 104 139 184 211 252 324
#     4  10  19  34  54  74 103 141 184 224 272 321
#     4  10  19  35  54  73 105 143 182 224 271 329
#     4  11  20  30  45  75 114 147 182 212 263 326
#     4  10  22  40  60  82 104 137 186 243 292 328
#     4  11  20  29  45  74 112 148 181 216 259 322
#
# _framework density 27.496737
#
# number of rings (size 3 to 8) (size 9 to 14) (size 15 to 20)
#    0.000    2.000    1.429    3.429    0.000    4.000 
#    2.571    0.000    0.000    0.857    0.000    0.000 
#    0.000    0.000    0.000    0.000    0.000    0.000 
#
# Total GULP energy -156296.307439 kJ/mol
# GULP energy per Si atom -5582.010980 kJ/mol
# Density = 2.743415 g / cm^3
# Si number density = 27.496737 Si / 1000 Ang^3
#
#
#
# Elastic Constant Matrix: (Units=GPa)
#
#
# Indices 1 2 3 4 5 6 
#
# 1 110.1758 -0.1986 88.9160 0.0246 -53.7701 -0.0284
# 2 -0.1986 45.0390 5.3524 0.0373 -0.0032 -0.0587
# 3 88.9160 5.3524 197.4609 0.1751 -46.4825 -0.0188
# 4 0.0246 0.0373 0.1751 32.7832 -0.0257 -6.5416
# 5 -53.7701 -0.0032 -46.4825 -0.0257 80.0339 0.0705
# 6 -0.0284 -0.0587 -0.0188 -6.5416 0.0705 -0.7921
#
#
#
# Elastic Compliance Matrix: (Units=1/GPa)
#
#
# Indices 1 2 3 4 5 6 
#
# 1 0.018369 0.000823 -0.006242 0.000025 0.008716 -0.000002
# 2 0.000823 0.022322 -0.000979 -0.000133 -0.000014 -0.000563
# 3 -0.006242 -0.000979 0.008009 -0.000003 0.000458 0.000170
# 4 0.000025 -0.000133 -0.000003 0.011521 0.000103 -0.095131
# 5 0.008716 -0.000014 0.000458 0.000103 0.018616 0.000486
# 6 -0.000002 -0.000563 0.000170 -0.095131 0.000486 -0.476752
#
#
# Mechanical properties :
#
#
# Convention : Reuss Voigt Hill
#
# Bulk Modulus (GPa) = 27.85105 60.09060 43.97083
# Shear Modulus (GPa) = -13.39947 39.64540 13.12297
#
# Velocity S-wave (km/s) = -2.20991 3.80125 2.18699
# Velocity P-wave (km/s) = 1.90768 6.41617 4.73320
#
# Compressibility (1/GPa) = 0.03590528
#
# Stress axis : x y z
#
# Youngs Moduli (GPa) = 54.43860 44.79813 124.85197
#
# Poissons Ratio (x) = -0.03689 0.77936
# Poissons Ratio (y) = -0.04483 0.12224
# Poissons Ratio (z) = 0.33982 0.04386
#
# Static dielectric constant tensor:
#      x y z
#    x 2.210810 -0.000040 -0.122450 
#    y -0.000040 2.354300 -0.000160 
#    z -0.122450 -0.000160 2.165200 
# 
# From -- ./inp_files/297107.got.cif
#   From: 2010.05.17/outbox.cif.g08.bks.cpg/sg15_149_cif.got.tgz:297107.got - 2010.06.03 18:47:42.
