data_PCOD9263302
_publ_section_title
;
Structure prediction by ZEFSAII (Michael W. Deem and Ramdas Pophale) SiO2 
 PCOD9263302
Probable space group: C 2/C
;
_chemical_formula_sum "Si O2"
_cell_formula_units_Z 40
_cell_length_a 14.110385
_cell_length_b 12.770287
_cell_length_c 11.599991
_cell_angle_alpha 90.000000
_cell_angle_beta 59.807528
_cell_angle_gamma 90.000000
_cell_volume 1806.684132
_symmetry_space_group_name_H-M "C 2/C"
_symmetry_group_IT_number 15
_symmetry_cell_setting 'monoclinic'
loop_
_space_group_symop_operation_xyz
x,y,z
-x,y,1/2-z
-x,-y,-z
x,-y,1/2+z
1/2+x,1/2+y,z
1/2-x,1/2+y,1/2-z
1/2-x,1/2-y,-z
1/2+x,1/2-y,1/2+z
loop_
_atom_site_type_symbol
_atom_site_label
_atom_site_fract_x
_atom_site_fract_y
_atom_site_fract_z
Si Si1 0.814205 0.353999 0.062443
Si Si2 0.227237 0.576300 0.336421
Si Si3 0.407054 0.563807 0.402273
Si Si4 0.079450 0.132608 0.457776
Si Si5 0.622077 0.790328 0.718728
O O1 0.830003 0.463871 0.114224
O O2 0.888830 0.253769 0.048484
O O3 0.694344 0.313592 0.172109
O O4 0.825786 0.361232 0.916900
O O5 0.289820 0.595404 0.420364
O O6 0.330078 0.582573 0.184725
O O7 0.140884 0.654121 0.329578
O O8 0.500000 0.583376 0.250000
O O9 0.456913 0.622850 0.482328
O O10 0.412179 0.442380 0.436875
O O11 0.500000 0.773670 0.750000
#
# Coordination Sequence:
#
# PCOD9263302 Si02
#       5
#     8   8   8   8   8
#     4  10  21  38  59  83 112 147 193 234 272 338
#     4  10  19  34  55  80 115 146 183 233 276 328
#     4   9  17  31  56  84 114 142 180 237 287 322
#     4   9  19  34  56  85 112 145 187 233 286 333
#     4  10  22  38  58  83 112 151 191 226 279 339
#
# _framework density 22.140008000000002
#
# number of rings (size 3 to 8) (size 9 to 14) (size 15 to 20)
#    0.000    2.400    0.000    3.600    0.000    8.800 
#    0.000    5.000    0.000   33.600    0.000    0.000 
#    0.000    0.000    0.000    0.000    0.000    0.000 
#
# Total GULP energy -111511.136917 kJ/mol
# GULP energy per Si atom -5575.556846 kJ/mol
# Density = 2.208962 g / cm^3
# Si number density = 22.140008 Si / 1000 Ang^3
#
#
#
# Elastic Constant Matrix: (Units=GPa)
#
#
# Indices 1 2 3 4 5 6 
#
# 1 163.0454 53.7232 6.2717 0.0000 24.6303 0.0000
# 2 53.7232 77.1855 15.5742 0.0000 13.3643 0.0000
# 3 6.2717 15.5742 33.9071 0.0000 7.8010 0.0000
# 4 0.0000 0.0000 0.0000 29.3354 0.0000 6.5057
# 5 24.6303 13.3643 7.8010 0.0000 33.9600 0.0000
# 6 0.0000 0.0000 0.0000 6.5057 0.0000 32.1142
#
#
#
# Elastic Compliance Matrix: (Units=1/GPa)
#
#
# Indices 1 2 3 4 5 6 
#
# 1 0.008578 -0.005602 0.002017 0.000000 -0.004480 0.000000
# 2 -0.005602 0.018571 -0.007124 0.000000 -0.001609 0.000000
# 3 0.002017 -0.007124 0.033873 0.000000 -0.006441 0.000000
# 4 0.000000 0.000000 0.000000 0.035692 0.000000 -0.007231
# 5 -0.004480 -0.001609 -0.006441 0.000000 0.034809 0.000000
# 6 0.000000 0.000000 0.000000 -0.007231 0.000000 0.032604
#
#
# Mechanical properties :
#
#
# Convention : Reuss Voigt Hill
#
# Bulk Modulus (GPa) = 25.24904 47.25291 36.25097
# Shear Modulus (GPa) = 25.15780 32.31983 28.73882
#
# Velocity S-wave (km/s) = 3.37457 3.82487 3.60675
# Velocity P-wave (km/s) = 5.15874 6.39494 5.80982
#
# Compressibility (1/GPa) = 0.03960547
#
# Stress axis : x y z
#
# Youngs Moduli (GPa) = 116.57233 53.84761 29.52194
#
# Poissons Ratio (x) = 0.30166 -0.05955
# Poissons Ratio (y) = 0.65304 0.21030
# Poissons Ratio (z) = -0.23515 0.38359
#
# Static dielectric constant tensor:
#      x y z
#    x 1.915730 0.000000 0.016260 
#    y 0.000000 1.775210 0.000000 
#    z 0.016260 0.000000 1.891540 
# 
# From -- ./inp_files/95600.got.cif
#   From: 2010.05.17/outbox.cif.g08.bks.cpg/sg15_48_cif.got.tgz:95600.got - 2010.06.03 18:47:42.
