data_PCOD9263717
_publ_section_title
;
Structure prediction by ZEFSAII (Michael W. Deem and Ramdas Pophale) SiO2 
 PCOD9263717
Probable space group: C 2/C
;
_chemical_formula_sum "Si O2"
_cell_formula_units_Z 64
_cell_length_a 15.486963
_cell_length_b 12.773701
_cell_length_c 28.328615
_cell_angle_alpha 90.000000
_cell_angle_beta 35.431272
_cell_angle_gamma 90.000000
_cell_volume 3248.860876
_symmetry_space_group_name_H-M "C 2/C"
_symmetry_group_IT_number 15
_symmetry_cell_setting 'monoclinic'
loop_
_space_group_symop_operation_xyz
x,y,z
-x,y,1/2-z
-x,-y,-z
x,-y,1/2+z
1/2+x,1/2+y,z
1/2-x,1/2+y,1/2-z
1/2-x,1/2-y,-z
1/2+x,1/2-y,1/2+z
loop_
_atom_site_type_symbol
_atom_site_label
_atom_site_fract_x
_atom_site_fract_y
_atom_site_fract_z
Si Si1 0.868123 0.583299 0.052610
Si Si2 0.033109 0.116252 0.918541
Si Si3 0.455186 0.718382 0.052051
Si Si4 0.787188 0.367944 0.966324
Si Si5 0.402614 0.851304 0.640364
Si Si6 0.632260 0.748642 0.655743
Si Si7 0.147326 0.072948 0.320048
Si Si8 0.439124 0.515668 0.830719
O O1 0.829517 0.615475 0.123671
O O2 0.720997 0.538247 0.094788
O O3 0.000000 0.500000 0.000000
O O4 0.932666 0.684580 0.997409
O O5 0.073421 0.226223 0.875306
O O6 0.153013 0.028834 0.851632
O O7 0.008713 0.143506 0.984718
O O8 0.871484 0.077644 0.970517
O O9 0.293109 0.762846 0.108499
O O10 0.431571 0.659282 0.111741
O O11 0.852259 0.345961 0.885650
O O12 0.931372 0.402499 0.931283
O O13 0.750000 0.250000 0.000000
O O14 0.300953 0.884028 0.729662
O O15 0.500000 0.769158 0.750000
O O16 0.589829 0.639705 0.649295
O O17 0.051955 0.034572 0.317502
O O18 0.500000 0.506411 0.750000
#
# Coordination Sequence:
#
# PCOD9263717 Si02
#       8
#     8   8   8   8   8   8   8   8
#     4  11  22  38  59  84 120 154 204 253 300 354
#     4   9  21  38  60  85 124 159 199 248 308 363
#     4  10  22  39  60  88 118 164 200 250 301 369
#     4   9  17  33  56  83 115 148 192 244 302 347
#     4  10  21  36  58  89 119 158 196 252 307 363
#     4  10  19  34  59  88 117 146 196 255 298 346
#     4  12  23  37  63  91 121 157 205 246 309 377
#     4  11  22  37  57  88 122 158 197 253 311 356
#
# _framework density 19.699213
#
# number of rings (size 3 to 8) (size 9 to 14) (size 15 to 20)
#    0.000    1.750    2.500    3.375    1.750    2.500 
#    0.000    0.000    2.750    0.000    6.500    0.000 
#    0.000    0.000    0.000    0.000    0.000    0.000 
#
# Total GULP energy -178527.969620 kJ/mol
# GULP energy per Si atom -5578.999051 kJ/mol
# Density = 1.965438 g / cm^3
# Si number density = 19.699213 Si / 1000 Ang^3
#
#
#
# Elastic Constant Matrix: (Units=GPa)
#
#
# Indices 1 2 3 4 5 6 
#
# 1 46.2090 4.4599 13.9240 0.0000 5.8370 0.0000
# 2 4.4599 54.9389 42.3672 0.0000 12.0218 0.0000
# 3 13.9240 42.3672 131.1196 0.0001 13.5095 0.0000
# 4 0.0000 0.0000 0.0001 34.4809 0.0000 1.6865
# 5 5.8370 12.0218 13.5095 0.0000 27.4435 0.0000
# 6 0.0000 0.0000 0.0000 1.6865 0.0000 17.2035
#
#
#
# Elastic Compliance Matrix: (Units=1/GPa)
#
#
# Indices 1 2 3 4 5 6 
#
# 1 0.022758 0.000778 -0.002248 0.000000 -0.004074 0.000000
# 2 0.000778 0.025668 -0.007586 0.000000 -0.007675 0.000000
# 3 -0.002248 -0.007586 0.010455 0.000000 -0.001346 0.000000
# 4 0.000000 0.000000 0.000000 0.029141 0.000000 -0.002857
# 5 -0.004074 -0.007675 -0.001346 0.000000 0.041330 0.000000
# 6 0.000000 0.000000 0.000000 -0.002857 0.000000 0.058408
#
#
# Mechanical properties :
#
#
# Convention : Reuss Voigt Hill
#
# Bulk Modulus (GPa) = 24.52839 39.30776 31.91808
# Shear Modulus (GPa) = 22.78299 27.26000 25.02149
#
# Velocity S-wave (km/s) = 3.40449 3.72400 3.56782
# Velocity P-wave (km/s) = 5.28512 6.20388 5.76284
#
# Compressibility (1/GPa) = 0.04076908
#
# Stress axis : x y z
#
# Youngs Moduli (GPa) = 43.94081 38.95861 95.64716
#
# Poissons Ratio (x) = -0.03031 0.21504
# Poissons Ratio (y) = -0.03418 0.72555
# Poissons Ratio (z) = 0.09879 0.29553
#
# Static dielectric constant tensor:
#      x y z
#    x 1.777260 0.000000 0.052790 
#    y 0.000000 1.701440 0.000000 
#    z 0.052790 0.000000 1.741300 
# 
# From -- ./inp_files/316170.got.cif
#   From: 2010.05.17/outbox.cif.g08.bks.cpg/sg15_159_cif.got.tgz:316170.got - 2010.06.03 18:47:42.
