data_PCOD9263993
_publ_section_title
;
Structure prediction by ZEFSAII (Michael W. Deem and Ramdas Pophale) SiO2 
 PCOD9263993
Probable space group: C 2/C
;
_chemical_formula_sum "Si O2"
_cell_formula_units_Z 64
_cell_length_a 23.936176
_cell_length_b 24.325010
_cell_length_c 9.016953
_cell_angle_alpha 90.000000
_cell_angle_beta 44.523398
_cell_angle_gamma 90.000000
_cell_volume 3681.372859
_symmetry_space_group_name_H-M "C 2/C"
_symmetry_group_IT_number 15
_symmetry_cell_setting 'monoclinic'
loop_
_space_group_symop_operation_xyz
x,y,z
-x,y,1/2-z
-x,-y,-z
x,-y,1/2+z
1/2+x,1/2+y,z
1/2-x,1/2+y,1/2-z
1/2-x,1/2-y,-z
1/2+x,1/2-y,1/2+z
loop_
_atom_site_type_symbol
_atom_site_label
_atom_site_fract_x
_atom_site_fract_y
_atom_site_fract_z
Si Si1 0.288972 0.079011 0.898726
Si Si2 0.700073 0.204075 0.510650
Si Si3 0.228916 0.320551 0.620491
Si Si4 0.947011 0.727712 0.534438
Si Si5 0.872102 0.428263 0.699202
Si Si6 0.301795 0.009038 0.606609
Si Si7 0.620314 0.738728 0.648912
Si Si8 0.968354 0.599608 0.468204
O O1 0.257893 0.050905 0.803855
O O2 0.385196 0.076859 0.688065
O O3 0.277963 0.143105 0.965021
O O4 0.260271 0.038048 0.083712
O O5 0.750000 0.250000 0.500000
O O6 0.714713 0.205976 0.308455
O O7 0.608909 0.220608 0.718066
O O8 0.191690 0.380345 0.704947
O O9 0.323473 0.312913 0.416496
O O10 0.176773 0.289145 0.594934
O O11 0.901069 0.757480 0.485302
O O12 0.956790 0.664545 0.466123
O O13 0.033966 0.754409 0.388735
O O14 0.860849 0.472629 0.593704
O O15 0.961643 0.407827 0.545503
O O16 0.846982 0.454416 0.902221
O O17 0.000000 0.577200 0.250000
#
# Coordination Sequence:
#
# PCOD9263993 Si02
#       8
#     8   8   8   8   8   8   8   8
#     4  10  22  34  49  72 100 140 180 217 268 308
#     4  11  22  36  55  80 111 141 178 232 278 328
#     4  11  21  35  53  78 104 137 190 219 267 327
#     4  10  19  35  52  78 110 144 177 218 278 318
#     4  11  21  35  48  73 101 138 183 229 260 317
#     4  10  22  35  50  68 102 139 184 228 260 307
#     4  10  20  33  56  77 102 142 179 219 263 332
#     4  11  18  30  51  70 103 145 180 222 260 308
#
# _framework density 17.384819
#
# number of rings (size 3 to 8) (size 9 to 14) (size 15 to 20)
#    0.000    1.500    6.250    0.000    1.750    4.000 
#    0.000    0.000    0.000    0.000    0.000    0.000 
#    0.000   18.000    0.000    0.000    0.000    0.500 
#
# Total GULP energy -178139.071667 kJ/mol
# GULP energy per Si atom -5566.845990 kJ/mol
# Density = 1.734525 g / cm^3
# Si number density = 17.384819 Si / 1000 Ang^3
#
#
#
# Elastic Constant Matrix: (Units=GPa)
#
#
# Indices 1 2 3 4 5 6 
#
# 1 69.7660 25.0429 19.7722 0.0000 -2.6960 0.0000
# 2 25.0429 66.2417 8.8342 0.0000 -6.8942 0.0000
# 3 19.7722 8.8342 56.2451 0.0000 -0.7774 0.0000
# 4 0.0000 0.0000 0.0000 17.3437 0.0000 7.5336
# 5 -2.6960 -6.8942 -0.7774 0.0000 24.8746 0.0000
# 6 0.0000 0.0000 0.0000 7.5336 0.0000 16.2585
#
#
#
# Elastic Compliance Matrix: (Units=1/GPa)
#
#
# Indices 1 2 3 4 5 6 
#
# 1 0.018052 -0.006096 -0.005387 0.000000 0.000099 0.000000
# 2 -0.006096 0.017929 -0.000614 0.000000 0.004289 0.000000
# 3 -0.005387 -0.000614 0.019768 0.000000 -0.000136 0.000000
# 4 0.000000 0.000000 0.000000 0.072187 0.000000 -0.033449
# 5 0.000099 0.004289 -0.000136 0.000000 0.041397 0.000000
# 6 0.000000 0.000000 0.000000 -0.033449 0.000000 0.077005
#
#
# Mechanical properties :
#
#
# Convention : Reuss Voigt Hill
#
# Bulk Modulus (GPa) = 31.69061 33.28347 32.48704
# Shear Modulus (GPa) = 17.79036 20.93558 19.36297
#
# Velocity S-wave (km/s) = 3.20242 3.47399 3.34096
# Velocity P-wave (km/s) = 5.65177 5.93954 5.79744
#
# Compressibility (1/GPa) = 0.03155509
#
# Stress axis : x y z
#
# Youngs Moduli (GPa) = 55.39419 55.77513 50.58762
#
# Poissons Ratio (x) = 0.34001 0.27253
# Poissons Ratio (y) = 0.33769 0.03105
# Poissons Ratio (z) = 0.29842 0.03423
#
# Static dielectric constant tensor:
#      x y z
#    x 1.626660 0.000000 0.018680 
#    y 0.000000 1.623000 0.000000 
#    z 0.018680 0.000000 1.637760 
# 
# From -- ./inp_files/59037.got.cif
#   From: 2010.05.17/outbox.cif.g08.bks.cpg/sg15_30_cif.got.tgz:59037.got - 2010.06.03 18:47:42.
