data_PCOD9263446
_publ_section_title
;
Structure prediction by ZEFSAII (Michael W. Deem and Ramdas Pophale) SiO2 
 PCOD9263446
Probable space group: C 2/C
;
_chemical_formula_sum "Si O2"
_cell_formula_units_Z 64
_cell_length_a 22.358476
_cell_length_b 12.182944
_cell_length_c 16.988471
_cell_angle_alpha 90.000000
_cell_angle_beta 142.654565
_cell_angle_gamma 90.000000
_cell_volume 2807.144421
_symmetry_space_group_name_H-M "C 2/C"
_symmetry_group_IT_number 15
_symmetry_cell_setting 'monoclinic'
loop_
_space_group_symop_operation_xyz
x,y,z
-x,y,1/2-z
-x,-y,-z
x,-y,1/2+z
1/2+x,1/2+y,z
1/2-x,1/2+y,1/2-z
1/2-x,1/2-y,-z
1/2+x,1/2-y,1/2+z
loop_
_atom_site_type_symbol
_atom_site_label
_atom_site_fract_x
_atom_site_fract_y
_atom_site_fract_z
Si Si1 0.198886 0.800132 0.331652
Si Si2 0.102808 0.613975 0.883218
Si Si3 0.806488 0.475983 0.252408
Si Si4 0.625962 0.071411 0.508873
Si Si5 0.307434 0.712480 0.928467
Si Si6 0.461835 0.373740 0.466267
Si Si7 0.914566 0.393741 0.741328
Si Si8 0.819816 0.167003 0.334691
O O1 0.269385 0.902550 0.424165
O O2 0.114107 0.841458 0.183136
O O3 0.146467 0.717798 0.337739
O O4 0.281098 0.726736 0.372586
O O5 0.106956 0.502288 0.833980
O O6 0.000000 0.664752 0.750000
O O7 0.098665 0.555583 0.964452
O O8 0.172263 0.716660 0.972995
O O9 0.855682 0.418284 0.378786
O O10 0.766027 0.391398 0.145188
O O11 0.878773 0.564043 0.289582
O O12 0.710957 0.540358 0.184997
O O13 0.530683 0.131579 0.372290
O O14 0.405899 0.666349 0.987291
O O15 0.248928 0.789538 0.806532
O O16 0.500000 0.500000 0.500000
O O17 0.566447 0.313637 0.563990
#
# Coordination Sequence:
#
# PCOD9263446 Si02
#       8
#     8   8   8   8   8   8   8   8
#     4  10  21  35  61  95 128 167 215 276 339 384
#     4  10  24  43  62  90 133 186 223 265 325 415
#     4  11  20  37  60  97 126 166 222 288 326 390
#     4  11  19  39  64  91 129 163 221 282 330 387
#     4  11  22  37  65  91 132 176 219 274 336 391
#     4  11  20  35  60  99 134 167 209 280 359 393
#     4  10  24  39  61  93 133 178 226 267 334 406
#     4  10  19  34  56  94 131 155 209 276 333 392
#
# _framework density 22.798969
#
# number of rings (size 3 to 8) (size 9 to 14) (size 15 to 20)
#    0.000    1.500    5.000    1.125    0.000    3.000 
#    0.000    0.000    0.000    0.000    0.000    0.000 
#    0.000    0.000    0.000    0.000    0.000    0.000 
#
# Total GULP energy -178256.552078 kJ/mol
# GULP energy per Si atom -5570.517252 kJ/mol
# Density = 2.274708 g / cm^3
# Si number density = 22.798969 Si / 1000 Ang^3
#
#
#
# Elastic Constant Matrix: (Units=GPa)
#
#
# Indices 1 2 3 4 5 6 
#
# 1 65.4412 16.4495 42.9167 0.0000 18.5123 0.0000
# 2 16.4495 84.2296 42.0015 0.0000 2.5242 0.0000
# 3 42.9167 42.0015 138.3852 0.0000 20.3761 0.0000
# 4 0.0000 0.0000 0.0000 46.9839 0.0000 3.1215
# 5 18.5123 2.5242 20.3761 0.0000 24.6135 0.0000
# 6 0.0000 0.0000 0.0000 3.1215 0.0000 39.1624
#
#
#
# Elastic Compliance Matrix: (Units=1/GPa)
#
#
# Indices 1 2 3 4 5 6 
#
# 1 0.022308 -0.001728 -0.004498 0.000000 -0.012878 0.000000
# 2 -0.001728 0.014246 -0.004287 0.000000 0.003387 0.000000
# 3 -0.004498 -0.004287 0.010658 0.000000 -0.005001 0.000000
# 4 0.000000 0.000000 0.000000 0.021397 0.000000 -0.001705
# 5 -0.012878 0.003387 -0.005001 0.000000 0.054106 0.000000
# 6 0.000000 0.000000 0.000000 -0.001705 0.000000 0.025671
#
#
# Mechanical properties :
#
#
# Convention : Reuss Voigt Hill
#
# Bulk Modulus (GPa) = 38.18597 54.53238 46.35917
# Shear Modulus (GPa) = 28.06787 34.59784 31.33286
#
# Velocity S-wave (km/s) = 3.51251 3.89976 3.71119
# Velocity P-wave (km/s) = 5.76504 6.65193 6.22430
#
# Compressibility (1/GPa) = 0.02618763
#
# Stress axis : x y z
#
# Youngs Moduli (GPa) = 44.82770 70.19613 93.82217
#
# Poissons Ratio (x) = 0.12129 0.42198
# Poissons Ratio (y) = 0.07746 0.40218
# Poissons Ratio (z) = 0.20162 0.30091
#
# Static dielectric constant tensor:
#      x y z
#    x 1.924450 0.000000 -0.004840 
#    y 0.000000 1.991240 0.000000 
#    z -0.004840 0.000000 1.852490 
# 
# From -- ./inp_files/257522.got.cif
#   From: 2010.05.17/outbox.cif.g08.bks.cpg/sg15_129_cif.got.tgz:257522.got - 2010.06.03 18:47:42.
