data_PCOD9263332
_publ_section_title
;
Structure prediction by ZEFSAII (Michael W. Deem and Ramdas Pophale) SiO2 
 PCOD9263332
Probable space group: C 2/C
;
_chemical_formula_sum "Si O2"
_cell_formula_units_Z 56
_cell_length_a 13.945797
_cell_length_b 11.116641
_cell_length_c 24.638792
_cell_angle_alpha 90.000000
_cell_angle_beta 139.580971
_cell_angle_gamma 90.000000
_cell_volume 2476.629887
_symmetry_space_group_name_H-M "C 2/C"
_symmetry_group_IT_number 15
_symmetry_cell_setting 'monoclinic'
loop_
_space_group_symop_operation_xyz
x,y,z
-x,y,1/2-z
-x,-y,-z
x,-y,1/2+z
1/2+x,1/2+y,z
1/2-x,1/2+y,1/2-z
1/2-x,1/2-y,-z
1/2+x,1/2-y,1/2+z
loop_
_atom_site_type_symbol
_atom_site_label
_atom_site_fract_x
_atom_site_fract_y
_atom_site_fract_z
Si Si1 0.682877 0.620302 0.288764
Si Si2 0.495595 0.701261 0.026023
Si Si3 0.265301 0.870032 0.705852
Si Si4 0.739022 0.180454 0.550162
Si Si5 0.570601 0.631187 0.706890
Si Si6 0.365800 0.937807 0.973730
Si Si7 0.737590 0.379284 0.163436
O O1 0.785808 0.611977 0.279329
O O2 0.580668 0.505239 0.233202
O O3 0.756818 0.594073 0.377939
O O4 0.654345 0.763851 0.281155
O O5 0.593233 0.632440 0.112303
O O6 0.616384 0.757112 0.035622
O O7 0.419814 0.814946 0.022849
O O8 0.369026 0.637021 0.935271
O O9 0.327928 0.736288 0.723107
O O10 0.318979 0.991812 0.699906
O O11 0.750000 0.250000 0.500000
O O12 0.904728 0.175116 0.643497
O O13 0.697974 0.043050 0.518023
O O14 0.628714 0.624500 0.669485
O O15 0.500000 0.000000 0.000000
#
# Coordination Sequence:
#
# PCOD9263332 Si02
#       7
#     8   8   8   8   8   8   8
#     4   9  19  35  54  83 114 151 201 245 294 356
#     4  10  19  35  56  86 115 158 202 245 303 367
#     4  10  20  32  57  88 114 150 199 253 300 352
#     4  11  21  35  57  88 122 154 194 259 309 360
#     4  10  19  34  55  84 115 147 195 250 306 351
#     4   9  19  33  57  81 112 153 199 238 293 366
#     4   9  18  35  56  81 116 154 197 242 293 365
#
# _framework density 22.611371999999999
#
# number of rings (size 3 to 8) (size 9 to 14) (size 15 to 20)
#    0.000    2.286    1.429    2.143    2.000    2.286 
#    0.000    0.000    0.000   12.000    0.000    0.000 
#    0.000    0.000    0.000    0.000    0.000    0.000 
#
# Total GULP energy -155945.958432 kJ/mol
# GULP energy per Si atom -5569.498515 kJ/mol
# Density = 2.255991 g / cm^3
# Si number density = 22.611372 Si / 1000 Ang^3
#
#
#
# Elastic Constant Matrix: (Units=GPa)
#
#
# Indices 1 2 3 4 5 6 
#
# 1 43.0895 3.2699 12.7592 0.0000 -8.0558 0.0000
# 2 3.2699 135.6068 79.3946 0.0000 -13.3958 0.0000
# 3 12.7592 79.3946 30.5561 0.0000 13.7732 0.0000
# 4 0.0000 0.0000 0.0000 40.4314 0.0000 2.1207
# 5 -8.0558 -13.3958 13.7732 0.0000 12.9492 0.0000
# 6 0.0000 0.0000 0.0000 2.1207 0.0000 13.9017
#
#
#
# Elastic Compliance Matrix: (Units=1/GPa)
#
#
# Indices 1 2 3 4 5 6 
#
# 1 0.020324 -0.006180 0.009134 0.000000 -0.003466 0.000000
# 2 -0.006180 -0.000449 0.010928 0.000000 -0.015932 0.000000
# 3 0.009134 0.010928 -0.013714 0.000000 0.031574 0.000000
# 4 0.000000 0.000000 0.000000 0.024933 0.000000 -0.003804
# 5 -0.003466 -0.015932 0.031574 0.000000 0.025004 0.000000
# 6 0.000000 0.000000 0.000000 -0.003804 0.000000 0.072514
#
#
# Mechanical properties :
#
#
# Convention : Reuss Voigt Hill
#
# Bulk Modulus (GPa) = 29.47667 44.45553 36.96610
# Shear Modulus (GPa) = 44.58079 21.04505 32.81292
#
# Velocity S-wave (km/s) = 4.44510 3.05409 3.81355
# Velocity P-wave (km/s) = 6.27772 5.66922 5.98121
#
# Compressibility (1/GPa) = 0.03392513
#
# Stress axis : x y z
#
# Youngs Moduli (GPa) = 49.20349 -2229.00720 -72.91848
#
# Poissons Ratio (x) = -13.77625 0.66607
# Poissons Ratio (y) = 0.30410 0.79685
# Poissons Ratio (z) = -0.44945 24.35848
#
# Static dielectric constant tensor:
#      x y z
#    x 1.831820 0.000000 0.006940 
#    y 0.000000 1.932680 0.000000 
#    z 0.006940 0.000000 1.877740 
# 
# From -- ./inp_files/209965.got.cif
#   From: 2010.05.17/outbox.cif.g08.bks.cpg/sg15_105_cif.got.tgz:209965.got - 2010.06.03 18:47:42.
