data_PCOD9263843
_publ_section_title
;
Structure prediction by ZEFSAII (Michael W. Deem and Ramdas Pophale) SiO2 
 PCOD9263843
Probable space group: C 2/C
;
_chemical_formula_sum "Si O2"
_cell_formula_units_Z 64
_cell_length_a 22.861709
_cell_length_b 11.696081
_cell_length_c 21.550220
_cell_angle_alpha 90.000000
_cell_angle_beta 37.157107
_cell_angle_gamma 90.000000
_cell_volume 3480.483727
_symmetry_space_group_name_H-M "C 2/C"
_symmetry_group_IT_number 15
_symmetry_cell_setting 'monoclinic'
loop_
_space_group_symop_operation_xyz
x,y,z
-x,y,1/2-z
-x,-y,-z
x,-y,1/2+z
1/2+x,1/2+y,z
1/2-x,1/2+y,1/2-z
1/2-x,1/2-y,-z
1/2+x,1/2-y,1/2+z
loop_
_atom_site_type_symbol
_atom_site_label
_atom_site_fract_x
_atom_site_fract_y
_atom_site_fract_z
Si Si1 0.592024 0.030218 0.246805
Si Si2 0.336831 0.181966 0.211145
Si Si3 0.040464 0.719070 0.822506
Si Si4 0.828875 0.302093 0.478854
Si Si5 0.727343 0.130483 0.876556
Si Si6 0.132261 0.568980 0.076807
Si Si7 0.523818 0.135264 0.978428
Si Si8 0.777756 0.134373 0.312950
O O1 0.650075 0.069310 0.257819
O O2 0.636345 0.084407 0.147102
O O3 0.481394 0.075710 0.345700
O O4 0.582987 0.892665 0.251096
O O5 0.306439 0.283295 0.282762
O O6 0.254987 0.165152 0.228541
O O7 0.438150 0.196694 0.089076
O O8 0.024926 0.675754 0.906384
O O9 0.115435 0.822079 0.761473
O O10 0.936055 0.749441 0.882919
O O11 0.750000 0.250000 0.500000
O O12 0.840167 0.436715 0.456671
O O13 0.791203 0.297082 0.581147
O O14 0.627779 0.149530 0.922567
O O15 0.761332 0.000178 0.836599
O O16 0.697669 0.140590 0.974162
O O17 0.500000 0.000000 0.000000
#
# Coordination Sequence:
#
# PCOD9263843 Si02
#       8
#     8   8   8   8   8   8   8   8
#     4  10  19  34  61  91 111 153 207 242 289 346
#     4  12  22  34  62  89 114 158 205 244 289 353
#     4  11  20  35  62  89 123 148 196 253 294 350
#     4  10  20  36  59  88 118 156 193 243 306 358
#     4  11  22  38  59  86 122 156 200 243 304 355
#     4   9  19  36  58  85 118 150 198 252 284 349
#     4  12  18  37  61  86 114 153 198 247 292 344
#     4  11  22  36  58  88 119 158 193 243 303 356
#
# _framework density 18.388249999999999
#
# number of rings (size 3 to 8) (size 9 to 14) (size 15 to 20)
#    0.000    1.250    6.250    1.500    0.000    2.000 
#    0.000    0.625    5.500    3.000    0.000    0.000 
#    0.000    0.000    0.000    0.000    0.000    0.000 
#
# Total GULP energy -178615.054813 kJ/mol
# GULP energy per Si atom -5581.720463 kJ/mol
# Density = 1.834640 g / cm^3
# Si number density = 18.388250 Si / 1000 Ang^3
#
#
#
# Elastic Constant Matrix: (Units=GPa)
#
#
# Indices 1 2 3 4 5 6 
#
# 1 94.9887 22.6201 31.3406 0.0000 -1.8552 0.0000
# 2 22.6201 42.6031 45.3860 0.0000 -7.6165 0.0000
# 3 31.3406 45.3860 106.0779 0.0000 6.1601 0.0000
# 4 0.0000 0.0000 0.0000 37.8930 0.0000 -0.2520
# 5 -1.8552 -7.6165 6.1601 0.0000 40.3773 0.0000
# 6 0.0000 0.0000 0.0000 -0.2520 0.0000 21.7038
#
#
#
# Elastic Compliance Matrix: (Units=1/GPa)
#
#
# Indices 1 2 3 4 5 6 
#
# 1 0.012185 -0.004901 -0.001495 0.000000 -0.000137 0.000000
# 2 -0.004901 0.050614 -0.020934 0.000000 0.012516 0.000000
# 3 -0.001495 -0.020934 0.019229 0.000000 -0.006951 0.000000
# 4 0.000000 0.000000 0.000000 0.026392 0.000000 0.000306
# 5 -0.000137 0.012516 -0.006951 0.000000 0.028182 0.000000
# 6 0.000000 0.000000 0.000000 0.000306 0.000000 0.046078
#
#
# Mechanical properties :
#
#
# Convention : Reuss Voigt Hill
#
# Bulk Modulus (GPa) = 36.54006 49.15144 42.84575
# Shear Modulus (GPa) = 20.28684 29.61635 24.95159
#
# Velocity S-wave (km/s) = 3.32512 4.01760 3.68765
# Velocity P-wave (km/s) = 5.88698 6.95049 6.44072
#
# Compressibility (1/GPa) = 0.02736722
#
# Stress axis : x y z
#
# Youngs Moduli (GPa) = 82.06539 19.75730 52.00404
#
# Poissons Ratio (x) = 0.09684 0.07775
# Poissons Ratio (y) = 0.40224 1.08867
# Poissons Ratio (z) = 0.12270 0.41360
#
# Static dielectric constant tensor:
#      x y z
#    x 1.654410 0.000000 0.021890 
#    y 0.000000 1.602760 0.000000 
#    z 0.021890 0.000000 1.677980 
# 
# From -- ./inp_files/252556.got.cif
#   From: 2010.05.17/outbox.cif.g08.bks.cpg/sg15_127_cif.got.tgz:252556.got - 2010.06.03 18:47:42.
