data_PCOD9263772
_publ_section_title
;
Structure prediction by ZEFSAII (Michael W. Deem and Ramdas Pophale) SiO2 
 PCOD9263772
Probable space group: C 2/C
;
_chemical_formula_sum "Si O2"
_cell_formula_units_Z 56
_cell_length_a 13.034044
_cell_length_b 7.104986
_cell_length_c 27.608185
_cell_angle_alpha 90.000000
_cell_angle_beta 125.245910
_cell_angle_gamma 90.000000
_cell_volume 2088.015168
_symmetry_space_group_name_H-M "C 2/C"
_symmetry_group_IT_number 15
_symmetry_cell_setting 'monoclinic'
loop_
_space_group_symop_operation_xyz
x,y,z
-x,y,1/2-z
-x,-y,-z
x,-y,1/2+z
1/2+x,1/2+y,z
1/2-x,1/2+y,1/2-z
1/2-x,1/2-y,-z
1/2+x,1/2-y,1/2+z
loop_
_atom_site_type_symbol
_atom_site_label
_atom_site_fract_x
_atom_site_fract_y
_atom_site_fract_z
Si Si1 0.393468 0.786107 0.989568
Si Si2 0.435959 0.947457 0.281369
Si Si3 0.913769 0.551243 0.084547
Si Si4 0.838748 0.144705 0.443425
Si Si5 0.388189 0.495573 0.754877
Si Si6 0.197347 0.004165 0.171946
Si Si7 0.191926 0.618461 0.129459
O O1 0.378624 0.882751 0.037714
O O2 0.543198 0.782540 0.016892
O O3 0.366411 0.563132 0.973868
O O4 0.303468 0.894819 0.926970
O O5 0.500000 0.006641 0.250000
O O6 0.531171 0.974580 0.350391
O O7 0.407702 0.726213 0.272026
O O8 0.305908 0.063823 0.239641
O O9 0.795823 0.682032 0.067755
O O10 0.043421 0.634619 0.098825
O O11 0.836977 0.129924 0.383582
O O12 0.500000 0.556090 0.750000
O O13 0.398977 0.569954 0.813052
O O14 0.265449 0.517080 0.686283
O O15 0.246899 0.821631 0.157343
#
# Coordination Sequence:
#
# PCOD9263772 Si02
#       7
#     8   8   8   8   8   8   8
#     4  10  23  42  58  90 129 159 214 257 300 381
#     4  10  19  34  60  86 114 148 203 254 305 369
#     4  12  21  39  65  89 120 171 204 250 324 380
#     4  10  22  40  65  91 118 163 210 261 311 360
#     4  10  21  38  61  88 117 163 201 250 322 367
#     4  10  19  40  58  85 124 149 199 263 302 372
#     4  10  23  40  58  88 128 156 202 259 304 377
#
# _framework density 26.819731000000001
#
# number of rings (size 3 to 8) (size 9 to 14) (size 15 to 20)
#    0.000    1.714    2.857    1.714    2.000    0.571 
#   10.286    0.714    0.000    0.000    0.000    0.000 
#    0.000    0.000    0.000    0.000    0.000    0.000 
#
# Total GULP energy -156145.283746 kJ/mol
# GULP energy per Si atom -5576.617277 kJ/mol
# Density = 2.675869 g / cm^3
# Si number density = 26.819731 Si / 1000 Ang^3
#
#
#
# Elastic Constant Matrix: (Units=GPa)
#
#
# Indices 1 2 3 4 5 6 
#
# 1 122.3984 2.6016 55.9442 0.0000 -4.9106 0.0000
# 2 2.6016 62.0208 45.2421 0.0000 3.0908 0.0000
# 3 55.9442 45.2421 271.1730 0.0000 -29.7110 0.0000
# 4 0.0000 0.0000 0.0000 40.5092 0.0000 2.3775
# 5 -4.9106 3.0908 -29.7110 0.0000 36.2013 0.0000
# 6 0.0000 0.0000 0.0000 2.3775 0.0000 27.5656
#
#
#
# Elastic Compliance Matrix: (Units=1/GPa)
#
#
# Indices 1 2 3 4 5 6 
#
# 1 0.009102 0.001219 -0.002151 0.000000 -0.000634 0.000000
# 2 0.001219 0.019208 -0.003975 0.000000 -0.004737 0.000000
# 3 -0.002151 -0.003975 0.005274 0.000000 0.004376 0.000000
# 4 0.000000 0.000000 0.000000 0.024811 0.000000 -0.002140
# 5 -0.000634 -0.004737 0.004376 0.000000 0.031533 0.000000
# 6 0.000000 0.000000 0.000000 -0.002140 0.000000 0.036462
#
#
# Mechanical properties :
#
#
# Convention : Reuss Voigt Hill
#
# Bulk Modulus (GPa) = 42.07016 73.68532 57.87774
# Shear Modulus (GPa) = 34.69148 44.30883 39.50016
#
# Velocity S-wave (km/s) = 3.60044 4.06901 3.84187
# Velocity P-wave (km/s) = 5.74496 7.04342 6.42706
#
# Compressibility (1/GPa) = 0.02376981
#
# Stress axis : x y z
#
# Youngs Moduli (GPa) = 109.87057 52.06083 189.60886
#
# Poissons Ratio (x) = -0.06344 0.40776
# Poissons Ratio (y) = -0.13388 0.75371
# Poissons Ratio (z) = 0.23628 0.20695
#
# Static dielectric constant tensor:
#      x y z
#    x 2.622470 0.000000 -0.149390 
#    y 0.000000 2.152500 0.000000 
#    z -0.149390 0.000000 2.221870 
# 
# From -- ./inp_files/237610.got.cif
#   From: 2010.05.17/outbox.cif.g08.bks.cpg/sg15_119_cif.got.tgz:237610.got - 2010.06.03 18:47:42.
