data_PCOD9263986
_publ_section_title
;
Structure prediction by ZEFSAII (Michael W. Deem and Ramdas Pophale) SiO2 
 PCOD9263986
Probable space group: C 2/C
;
_chemical_formula_sum "Si O2"
_cell_formula_units_Z 64
_cell_length_a 26.518469
_cell_length_b 20.621295
_cell_length_c 9.573646
_cell_angle_alpha 90.000000
_cell_angle_beta 135.383585
_cell_angle_gamma 90.000000
_cell_volume 3677.051161
_symmetry_space_group_name_H-M "C 2/C"
_symmetry_group_IT_number 15
_symmetry_cell_setting 'monoclinic'
loop_
_space_group_symop_operation_xyz
x,y,z
-x,y,1/2-z
-x,-y,-z
x,-y,1/2+z
1/2+x,1/2+y,z
1/2-x,1/2+y,1/2-z
1/2-x,1/2-y,-z
1/2+x,1/2-y,1/2+z
loop_
_atom_site_type_symbol
_atom_site_label
_atom_site_fract_x
_atom_site_fract_y
_atom_site_fract_z
Si Si1 0.914675 0.767926 0.576184
Si Si2 0.273384 0.054972 0.149138
Si Si3 0.030736 0.552893 0.661255
Si Si4 0.836530 0.276281 0.503677
Si Si5 0.812109 0.835608 0.173469
Si Si6 0.301950 0.067736 0.524700
Si Si7 0.826464 0.283362 0.160693
Si Si8 0.588293 0.145230 0.130296
O O1 0.874365 0.825517 0.411781
O O2 0.879997 0.751242 0.657338
O O3 0.899512 0.702170 0.457559
O O4 0.000000 0.778160 0.750000
O O5 0.263697 0.059289 0.298127
O O6 0.351482 0.089760 0.276765
O O7 0.274067 0.982591 0.086826
O O8 0.215278 0.097087 0.947095
O O9 0.115011 0.550191 0.834112
O O10 0.000000 0.537733 0.750000
O O11 0.000000 0.500000 0.500000
O O12 0.992600 0.620039 0.543448
O O13 0.834595 0.208887 0.585034
O O14 0.758385 0.306107 0.388414
O O15 0.849901 0.274284 0.366613
O O16 0.894732 0.323249 0.688380
O O17 0.309069 0.141871 0.588482
O O18 0.750000 0.250000 0.000000
#
# Coordination Sequence:
#
# PCOD9263986 Si02
#       8
#     8   8   8   8   8   8   8   8
#     4  11  21  38  61  85 117 156 190 240 305 357
#     4  11  22  36  54  77 115 152 199 237 283 338
#     4  12  21  35  48  71 112 161 193 223 272 335
#     4   9  19  33  59  78 106 149 196 238 286 333
#     4   9  19  39  57  80 111 154 189 242 307 338
#     4  12  24  35  53  83 114 156 197 238 283 341
#     4  12  22  36  58  90 114 144 204 253 281 334
#     4  10  19  35  52  72 114 159 188 228 284 339
#
# _framework density 17.405249999999999
#
# number of rings (size 3 to 8) (size 9 to 14) (size 15 to 20)
#    0.000    1.250    5.000    2.625    3.500    1.000 
#    0.000    5.000    0.000    0.000    0.000    3.500 
#    0.000    0.000    0.000    0.000    0.000    0.000 
#
# Total GULP energy -178464.671077 kJ/mol
# GULP energy per Si atom -5577.020971 kJ/mol
# Density = 1.736564 g / cm^3
# Si number density = 17.405250 Si / 1000 Ang^3
#
#
#
# Elastic Constant Matrix: (Units=GPa)
#
#
# Indices 1 2 3 4 5 6 
#
# 1 76.8659 22.0020 57.0516 0.0000 -21.1293 0.0000
# 2 22.0020 46.7682 24.3240 0.0000 -5.1987 0.0000
# 3 57.0516 24.3240 107.6673 0.0000 -31.4099 0.0000
# 4 0.0000 0.0000 0.0000 32.1015 0.0000 6.8825
# 5 -21.1293 -5.1987 -31.4099 0.0000 27.0427 0.0000
# 6 0.0000 0.0000 0.0000 6.8825 0.0000 14.9865
#
#
#
# Elastic Compliance Matrix: (Units=1/GPa)
#
#
# Indices 1 2 3 4 5 6 
#
# 1 0.023110 -0.005396 -0.009168 0.000000 0.006370 0.000000
# 2 -0.005396 0.025607 -0.004114 0.000000 -0.004071 0.000000
# 3 -0.009168 -0.004114 0.019292 0.000000 0.014453 0.000000
# 4 0.000000 0.000000 0.000000 0.034553 0.000000 -0.015869
# 5 0.006370 -0.004071 0.014453 0.000000 0.057960 0.000000
# 6 0.000000 0.000000 0.000000 -0.015869 0.000000 0.074014
#
#
# Mechanical properties :
#
#
# Convention : Reuss Voigt Hill
#
# Bulk Modulus (GPa) = 32.62219 48.67296 40.64757
# Shear Modulus (GPa) = 17.72351 23.35439 20.53895
#
# Velocity S-wave (km/s) = 3.19452 3.66703 3.43890
# Velocity P-wave (km/s) = 5.69122 6.77899 6.25879
#
# Compressibility (1/GPa) = 0.03065398
#
# Stress axis : x y z
#
# Youngs Moduli (GPa) = 43.27086 39.05115 51.83526
#
# Poissons Ratio (x) = 0.21070 0.47525
# Poissons Ratio (y) = 0.23347 0.21324
# Poissons Ratio (z) = 0.39673 0.16065
#
# Static dielectric constant tensor:
#      x y z
#    x 1.541870 0.000000 0.024520 
#    y 0.000000 1.622360 0.000000 
#    z 0.024520 0.000000 1.611730 
# 
# From -- ./inp_files/63427.got.cif
#   From: 2010.05.17/outbox.cif.g08.bks.cpg/sg15_32_cif.got.tgz:63427.got - 2010.06.03 18:47:42.
