data_PCOD9263908
_publ_section_title
;
Structure prediction by ZEFSAII (Michael W. Deem and Ramdas Pophale) SiO2 
 PCOD9263908
Probable space group: C 2/C
;
_chemical_formula_sum "Si O2"
_cell_formula_units_Z 40
_cell_length_a 11.116849
_cell_length_b 16.642697
_cell_length_c 9.569753
_cell_angle_alpha 90.000000
_cell_angle_beta 93.993038
_cell_angle_gamma 90.000000
_cell_volume 1766.243670
_symmetry_space_group_name_H-M "C 2/C"
_symmetry_group_IT_number 15
_symmetry_cell_setting 'monoclinic'
loop_
_space_group_symop_operation_xyz
x,y,z
-x,y,1/2-z
-x,-y,-z
x,-y,1/2+z
1/2+x,1/2+y,z
1/2-x,1/2+y,1/2-z
1/2-x,1/2-y,-z
1/2+x,1/2-y,1/2+z
loop_
_atom_site_type_symbol
_atom_site_label
_atom_site_fract_x
_atom_site_fract_y
_atom_site_fract_z
Si Si1 0.445034 0.089183 0.890362
Si Si2 0.395760 0.678315 0.030999
Si Si3 0.638375 0.802189 0.726230
Si Si4 0.693218 0.057701 0.067272
Si Si5 0.634221 0.271265 0.642618
O O1 0.500000 0.057003 0.750000
O O2 0.411490 0.181155 0.875546
O O3 0.328188 0.036720 0.921736
O O4 0.563428 0.083689 0.994838
O O5 0.310423 0.599097 0.005338
O O6 0.375521 0.707493 0.190139
O O7 0.542200 0.672629 0.047344
O O8 0.357127 0.743921 0.911135
O O9 0.500000 0.803893 0.750000
O O10 0.685411 0.893574 0.710937
O O11 0.721556 0.771128 0.857857
#
# Coordination Sequence:
#
# PCOD9263908 Si02
#       5
#     8   8   8   8   8
#     4  11  18  33  57  89 114 151 192 242 293 341
#     4  10  19  36  57  87 112 153 199 234 293 349
#     4  11  21  35  56  86 114 149 199 245 281 343
#     4  10  21  33  56  86 118 143 193 250 287 341
#     4  10  19  34  63  79 111 161 192 230 294 350
#
# _framework density 22.646932
#
# number of rings (size 3 to 8) (size 9 to 14) (size 15 to 20)
#    0.000    1.600    4.000    4.200    0.000    0.800 
#    0.000    0.000    8.800    1.200    0.000    1.400 
#    0.000    0.000    0.000    0.000    0.000    0.000 
#
# Total GULP energy -111342.772851 kJ/mol
# GULP energy per Si atom -5567.138643 kJ/mol
# Density = 2.259539 g / cm^3
# Si number density = 22.646932 Si / 1000 Ang^3
#
#
#
# Elastic Constant Matrix: (Units=GPa)
#
#
# Indices 1 2 3 4 5 6 
#
# 1 149.9276 38.3276 6.5597 0.0000 26.7567 0.0000
# 2 38.3276 79.6176 7.9419 0.0000 6.6595 0.0000
# 3 6.5597 7.9419 56.1704 0.0000 20.0074 0.0000
# 4 0.0000 0.0000 0.0000 2.7640 0.0000 7.0599
# 5 26.7567 6.6595 20.0074 0.0000 41.4696 0.0000
# 6 0.0000 0.0000 0.0000 7.0599 0.0000 46.2177
#
#
#
# Elastic Compliance Matrix: (Units=1/GPa)
#
#
# Indices 1 2 3 4 5 6 
#
# 1 0.008591 -0.003816 0.001561 0.000000 -0.005683 0.000000
# 2 -0.003816 0.014505 -0.001995 0.000000 0.001096 0.000000
# 3 0.001561 -0.001995 0.021913 0.000000 -0.011259 0.000000
# 4 0.000000 0.000000 0.000000 0.593265 0.000000 -0.090624
# 5 -0.005683 0.001096 -0.011259 0.000000 0.033037 0.000000
# 6 0.000000 0.000000 0.000000 -0.090624 0.000000 0.035480
#
#
# Mechanical properties :
#
#
# Convention : Reuss Voigt Hill
#
# Bulk Modulus (GPa) = 27.39191 43.48601 35.43896
# Shear Modulus (GPa) = 6.87321 33.61602 20.24462
#
# Velocity S-wave (km/s) = 1.74400 3.85691 2.99310
# Velocity P-wave (km/s) = 4.02204 6.25122 5.25617
#
# Compressibility (1/GPa) = 0.03650713
#
# Stress axis : x y z
#
# Youngs Moduli (GPa) = 116.39452 68.94398 45.63486
#
# Poissons Ratio (x) = 0.26310 -0.07122
# Poissons Ratio (y) = 0.44418 0.09106
# Poissons Ratio (z) = -0.18165 0.13757
#
# Static dielectric constant tensor:
#      x y z
#    x 2.166060 0.000000 0.011170 
#    y 0.000000 1.833610 0.000000 
#    z 0.011170 0.000000 2.057400 
# 
# From -- ./inp_files/85628.got.cif
#   From: 2010.05.17/outbox.cif.g08.bks.cpg/sg15_43_cif.got.tgz:85628.got - 2010.06.03 18:47:42.
