data_PCOD9263050
_publ_section_title
;
Structure prediction by ZEFSAII (Michael W. Deem and Ramdas Pophale) SiO2 
 PCOD9263050
Probable space group: C 2/C
;
_chemical_formula_sum "Si O2"
_cell_formula_units_Z 56
_cell_length_a 15.481807
_cell_length_b 5.828380
_cell_length_c 24.434166
_cell_angle_alpha 90.000000
_cell_angle_beta 86.673354
_cell_angle_gamma 90.000000
_cell_volume 2201.073768
_symmetry_space_group_name_H-M "C 2/C"
_symmetry_group_IT_number 15
_symmetry_cell_setting 'monoclinic'
loop_
_space_group_symop_operation_xyz
x,y,z
-x,y,1/2-z
-x,-y,-z
x,-y,1/2+z
1/2+x,1/2+y,z
1/2-x,1/2+y,1/2-z
1/2-x,1/2-y,-z
1/2+x,1/2-y,1/2+z
loop_
_atom_site_type_symbol
_atom_site_label
_atom_site_fract_x
_atom_site_fract_y
_atom_site_fract_z
Si Si1 0.574021 0.621446 0.200408
Si Si2 0.991149 0.911034 0.099763
Si Si3 0.278263 0.205099 0.936185
Si Si4 0.413889 0.056684 0.470453
Si Si5 0.847084 0.804922 0.570218
Si Si6 0.395245 0.879281 0.766335
Si Si7 0.160654 0.425000 0.851689
O O1 0.500000 0.631444 0.250000
O O2 0.525721 0.571512 0.145858
O O3 0.624024 0.376215 0.208725
O O4 0.617160 0.876706 0.201196
O O5 0.066971 0.764431 0.070541
O O6 0.920653 0.732022 0.127106
O O7 0.931976 0.041038 0.058082
O O8 0.241576 0.358124 0.888165
O O9 0.379500 0.161844 0.938926
O O10 0.236529 0.958963 0.924323
O O11 0.250000 0.250000 0.000000
O O12 0.347410 0.131932 0.520057
O O13 0.500000 0.000000 0.500000
O O14 0.858840 0.680404 0.627438
O O15 0.500000 0.872323 0.750000
O O16 0.338906 0.902220 0.713087
#
# Coordination Sequence:
#
# PCOD9263050 Si02
#       7
#     8   8   8   8   8   8   8
#     4  10  19  34  58  93 136 161 216 285 340 396
#     4  11  22  36  60 100 130 171 223 284 347 401
#     4  11  24  42  62  92 134 180 230 268 336 420
#     4  12  23  41  62  94 138 176 223 285 336 409
#     4  11  22  40  63  88 134 178 218 270 337 412
#     4  10  19  33  60  95 130 161 220 283 339 392
#     4  11  21  38  64  94 130 173 223 277 339 418
#
# _framework density 25.442129000000001
#
# number of rings (size 3 to 8) (size 9 to 14) (size 15 to 20)
#    0.000    1.143    5.714    3.429    2.000    0.000 
#    0.000    0.000    0.000    0.000    3.714    0.000 
#    0.000    0.000    0.000    0.000    0.000    0.000 
#
# Total GULP energy -156529.443534 kJ/mol
# GULP energy per Si atom -5590.337269 kJ/mol
# Density = 2.538422 g / cm^3
# Si number density = 25.442129 Si / 1000 Ang^3
#
#
#
# Elastic Constant Matrix: (Units=GPa)
#
#
# Indices 1 2 3 4 5 6 
#
# 1 50.4211 20.6961 38.0799 0.0000 23.4770 0.0000
# 2 20.6961 133.3065 33.1967 0.0000 16.9643 0.0000
# 3 38.0799 33.1967 116.7087 0.0000 36.0272 0.0000
# 4 0.0000 0.0000 0.0000 37.8480 0.0000 -3.2209
# 5 23.4770 16.9643 36.0272 0.0000 35.5732 0.0000
# 6 0.0000 0.0000 0.0000 -3.2209 0.0000 31.5087
#
#
#
# Elastic Compliance Matrix: (Units=1/GPa)
#
#
# Indices 1 2 3 4 5 6 
#
# 1 0.031235 -0.001701 -0.005230 0.000000 -0.014507 0.000000
# 2 -0.001701 0.008288 -0.001351 0.000000 -0.001461 0.000000
# 3 -0.005230 -0.001351 0.013668 0.000000 -0.009746 0.000000
# 4 0.000000 0.000000 0.000000 0.026653 0.000000 0.002725
# 5 -0.014507 -0.001461 -0.009746 0.000000 0.048253 0.000000
# 6 0.000000 0.000000 0.000000 0.002725 0.000000 0.032016
#
#
# Mechanical properties :
#
#
# Convention : Reuss Voigt Hill
#
# Bulk Modulus (GPa) = 27.30205 53.82016 40.56111
# Shear Modulus (GPa) = 26.47104 34.88354 30.67729
#
# Velocity S-wave (km/s) = 3.22909 3.70685 3.47618
# Velocity P-wave (km/s) = 4.96558 6.28656 5.66471
#
# Compressibility (1/GPa) = 0.03662728
#
# Stress axis : x y z
#
# Youngs Moduli (GPa) = 32.01503 120.65527 73.16541
#
# Poissons Ratio (x) = 0.20523 0.38262
# Poissons Ratio (y) = 0.05446 0.09888
# Poissons Ratio (z) = 0.16742 0.16305
#
# Static dielectric constant tensor:
#      x y z
#    x 2.093030 0.000000 0.000360 
#    y 0.000000 1.908370 0.000000 
#    z 0.000360 0.000000 1.970890 
# 
# From -- ./inp_files/314908.got.cif
#   From: 2010.05.17/outbox.cif.g08.bks.cpg/sg15_158_cif.got.tgz:314908.got - 2010.06.03 18:47:42.
