data_PCOD9263012
_publ_section_title
;
Structure prediction by ZEFSAII (Michael W. Deem and Ramdas Pophale) SiO2 
 PCOD9263012
Probable space group: C 2/C
;
_chemical_formula_sum "Si O2"
_cell_formula_units_Z 60
_cell_length_a 19.074078
_cell_length_b 14.411797
_cell_length_c 14.772382
_cell_angle_alpha 90.000000
_cell_angle_beta 39.628574
_cell_angle_gamma 90.000000
_cell_volume 2590.015126
_symmetry_space_group_name_H-M "C 2/C"
_symmetry_group_IT_number 15
_symmetry_cell_setting 'monoclinic'
loop_
_space_group_symop_operation_xyz
x,y,z
-x,y,1/2-z
-x,-y,-z
x,-y,1/2+z
1/2+x,1/2+y,z
1/2-x,1/2+y,1/2-z
1/2-x,1/2-y,-z
1/2+x,1/2-y,1/2+z
loop_
_atom_site_type_symbol
_atom_site_label
_atom_site_fract_x
_atom_site_fract_y
_atom_site_fract_z
Si Si1 0.933594 0.353617 0.896416
Si Si2 0.209214 0.930441 0.649881
Si Si3 0.311209 0.742427 0.534365
Si Si4 0.266638 0.401997 0.494926
Si Si5 0.000000 0.151490 0.250000
Si Si6 0.709238 0.182654 0.806819
Si Si7 0.066516 0.166791 0.802869
Si Si8 0.354056 0.603139 0.098501
O O1 0.000000 0.408352 0.750000
O O2 0.009105 0.265470 0.843419
O O3 0.822869 0.329066 0.950939
O O4 0.880443 0.378636 0.048316
O O5 0.295581 0.847615 0.582709
O O6 0.097983 0.900971 0.705784
O O7 0.171532 0.957585 0.788197
O O8 0.263251 0.006207 0.531831
O O9 0.250000 0.750000 0.500000
O O10 0.434189 0.710096 0.391383
O O11 0.244012 0.673686 0.667377
O O12 0.384683 0.373977 0.338301
O O13 0.274844 0.416595 0.592714
O O14 0.825999 0.178628 0.741783
O O15 0.663589 0.288132 0.859402
O O16 0.978009 0.100096 0.938543
#
# Coordination Sequence:
#
# PCOD9263012 Si02
#       8
#     8   8   8   8   4   8   8   8
#     4  10  20  36  58  86 118 158 196 235 294 363
#     4  10  23  40  58  90 121 151 198 249 302 353
#     4   9  19  39  62  88 119 154 202 251 299 353
#     4  11  23  38  55  89 125 156 192 251 299 350
#     4  10  20  40  70  88 112 158 200 248 298 356
#     4   9  18  34  59  89 118 151 200 251 288 356
#     4  10  19  33  59  90 115 152 199 239 299 361
#     4  10  20  35  57  80 120 156 192 241 302 353
#
# _framework density 23.165887999999999
#
# number of rings (size 3 to 8) (size 9 to 14) (size 15 to 20)
#    0.000    2.133    0.000    3.600    1.867    5.333 
#   10.800    0.000    0.000    2.400    0.000    0.000 
#    0.000    0.000    0.000    0.000    0.000    0.000 
#
# Total GULP energy -167181.623439 kJ/mol
# GULP energy per Si atom -5572.720781 kJ/mol
# Density = 2.311316 g / cm^3
# Si number density = 23.165888 Si / 1000 Ang^3
#
#
#
# Elastic Constant Matrix: (Units=GPa)
#
#
# Indices 1 2 3 4 5 6 
#
# 1 62.3887 -7.8785 21.9020 0.0000 18.6119 0.0000
# 2 -7.8785 26.3316 9.4546 0.0000 -3.7413 0.0000
# 3 21.9020 9.4546 160.8626 0.0000 22.7505 0.0000
# 4 0.0000 0.0000 0.0000 15.1810 0.0000 -2.0968
# 5 18.6119 -3.7413 22.7505 0.0000 42.7572 0.0000
# 6 0.0000 0.0000 0.0000 -2.0968 0.0000 21.8322
#
#
#
# Elastic Compliance Matrix: (Units=1/GPa)
#
#
# Indices 1 2 3 4 5 6 
#
# 1 0.019504 0.005569 -0.002002 0.000000 -0.006938 0.000000
# 2 0.005569 0.041393 -0.003634 0.000000 0.003131 0.000000
# 3 -0.002002 -0.003634 0.007163 0.000000 -0.003258 0.000000
# 4 0.000000 0.000000 0.000000 0.066757 0.000000 0.006412
# 5 -0.006938 0.003131 -0.003258 0.000000 0.028415 0.000000
# 6 0.000000 0.000000 0.000000 0.006412 0.000000 0.046420
#
#
# Mechanical properties :
#
#
# Convention : Reuss Voigt Hill
#
# Bulk Modulus (GPa) = 14.72176 32.94880 23.83528
# Shear Modulus (GPa) = 21.51194 31.02774 26.26984
#
# Velocity S-wave (km/s) = 3.05061 3.66371 3.37113
# Velocity P-wave (km/s) = 4.33324 5.67018 5.04618
#
# Compressibility (1/GPa) = 0.06792666
#
# Stress axis : x y z
#
# Youngs Moduli (GPa) = 51.27123 24.15866 139.59848
#
# Poissons Ratio (x) = -0.13453 0.27943
# Poissons Ratio (y) = -0.28551 0.50729
# Poissons Ratio (z) = 0.10263 0.08779
#
# Static dielectric constant tensor:
#      x y z
#    x 1.859740 0.000000 0.041900 
#    y 0.000000 1.986450 0.000000 
#    z 0.041900 0.000000 2.005950 
# 
# From -- ./inp_files/168868.got.cif
#   From: 2010.05.17/outbox.cif.g08.bks.cpg/sg15_85_cif.got.tgz:168868.got - 2010.06.03 18:47:42.
