data_PCOD9263150
_publ_section_title
;
Structure prediction by ZEFSAII (Michael W. Deem and Ramdas Pophale) SiO2 
 PCOD9263150
Probable space group: C 2/C
;
_chemical_formula_sum "Si O2"
_cell_formula_units_Z 48
_cell_length_a 24.437872
_cell_length_b 4.872999
_cell_length_c 19.893684
_cell_angle_alpha 90.000000
_cell_angle_beta 82.126875
_cell_angle_gamma 90.000000
_cell_volume 2346.722679
_symmetry_space_group_name_H-M "C 2/C"
_symmetry_group_IT_number 15
_symmetry_cell_setting 'monoclinic'
loop_
_space_group_symop_operation_xyz
x,y,z
-x,y,1/2-z
-x,-y,-z
x,-y,1/2+z
1/2+x,1/2+y,z
1/2-x,1/2+y,1/2-z
1/2-x,1/2-y,-z
1/2+x,1/2-y,1/2+z
loop_
_atom_site_type_symbol
_atom_site_label
_atom_site_fract_x
_atom_site_fract_y
_atom_site_fract_z
Si Si1 0.174569 0.210645 0.894590
Si Si2 0.843431 0.949348 0.374379
Si Si3 0.618863 0.084928 0.799686
Si Si4 0.186995 0.709007 0.985511
Si Si5 0.711254 0.935518 0.177279
Si Si6 0.435597 0.423023 0.251193
O O1 0.130814 0.396371 0.861902
O O2 0.186594 0.403518 0.956711
O O3 0.225634 0.155061 0.835046
O O4 0.168207 0.910759 0.928186
O O5 0.815645 0.247470 0.377148
O O6 0.849116 0.804541 0.444880
O O7 0.801991 0.749366 0.339267
O O8 0.900102 0.981654 0.324176
O O9 0.676803 0.126510 0.750197
O O10 0.589608 0.379658 0.802800
O O11 0.579063 0.891128 0.762202
O O12 0.250000 0.750000 0.000000
O O13 0.500000 0.466906 0.250000
#
# Coordination Sequence:
#
# PCOD9263150 Si02
#       6
#     8   8   8   8   8   8
#     4  12  22  34  55  82 123 158 176 228 283 343
#     4  10  20  34  55  84 107 144 198 228 270 333
#     4  10  23  36  56  87 113 144 195 235 295 348
#     4  12  21  34  55  80 121 160 191 217 265 349
#     4  10  19  34  52  78 115 148 181 226 271 342
#     4  10  21  41  64  80 105 145 196 259 294 327
#
# _framework density 20.454056000000001
#
# number of rings (size 3 to 8) (size 9 to 14) (size 15 to 20)
#    0.000    1.333    3.333    3.000    0.000    5.333 
#    0.000    0.000    0.000    6.000    0.000    0.000 
#    0.000    0.000    0.000    0.000    0.000    0.000 
#
# Total GULP energy -133887.189975 kJ/mol
# GULP energy per Si atom -5578.632916 kJ/mol
# Density = 2.040750 g / cm^3
# Si number density = 20.454056 Si / 1000 Ang^3
#
#
#
# Elastic Constant Matrix: (Units=GPa)
#
#
# Indices 1 2 3 4 5 6 
#
# 1 67.9960 15.7359 30.3338 0.0000 -8.2823 0.0000
# 2 15.7359 116.4538 7.6526 0.0000 -2.3125 0.0000
# 3 30.3338 7.6526 48.9574 0.0000 2.7898 0.0000
# 4 0.0000 0.0000 0.0000 36.2267 0.0000 9.3470
# 5 -8.2823 -2.3125 2.7898 0.0000 13.0759 0.0000
# 6 0.0000 0.0000 0.0000 9.3470 0.0000 20.8368
#
#
#
# Elastic Compliance Matrix: (Units=1/GPa)
#
#
# Indices 1 2 3 4 5 6 
#
# 1 0.024535 -0.001897 -0.015966 0.000000 0.018612 0.000000
# 2 -0.001897 0.008867 -0.000235 0.000000 0.000417 0.000000
# 3 -0.015966 -0.000235 0.031315 0.000000 -0.016836 0.000000
# 4 0.000000 0.000000 0.000000 0.031217 0.000000 -0.014003
# 5 0.018612 0.000417 -0.016836 0.000000 0.091931 0.000000
# 6 0.000000 0.000000 0.000000 -0.014003 0.000000 0.054274
#
#
# Mechanical properties :
#
#
# Convention : Reuss Voigt Hill
#
# Bulk Modulus (GPa) = 35.06042 37.87242 36.46642
# Shear Modulus (GPa) = 17.37070 26.00687 21.68879
#
# Velocity S-wave (km/s) = 2.91736 3.56965 3.25986
# Velocity P-wave (km/s) = 5.34100 5.96204 5.66004
#
# Compressibility (1/GPa) = 0.02852219
#
# Stress axis : x y z
#
# Youngs Moduli (GPa) = 40.75754 112.77677 31.93404
#
# Poissons Ratio (x) = 0.21389 0.50986
# Poissons Ratio (y) = 0.07730 0.00749
# Poissons Ratio (z) = 0.65074 0.02647
#
# Static dielectric constant tensor:
#      x y z
#    x 1.713130 0.000000 0.022860 
#    y 0.000000 1.735910 0.000000 
#    z 0.022860 0.000000 1.815080 
# 
# From -- ./inp_files/256251.got.cif
#   From: 2010.05.17/outbox.cif.g08.bks.cpg/sg15_129_cif.got.tgz:256251.got - 2010.06.03 18:47:42.
