data_PCOD9263538
_publ_section_title
;
Structure prediction by ZEFSAII (Michael W. Deem and Ramdas Pophale) SiO2 
 PCOD9263538
Probable space group: C 2/C
;
_chemical_formula_sum "Si O2"
_cell_formula_units_Z 60
_cell_length_a 30.342234
_cell_length_b 11.442462
_cell_length_c 8.402757
_cell_angle_alpha 90.000000
_cell_angle_beta 103.251933
_cell_angle_gamma 90.000000
_cell_volume 2839.667388
_symmetry_space_group_name_H-M "C 2/C"
_symmetry_group_IT_number 15
_symmetry_cell_setting 'monoclinic'
loop_
_space_group_symop_operation_xyz
x,y,z
-x,y,1/2-z
-x,-y,-z
x,-y,1/2+z
1/2+x,1/2+y,z
1/2-x,1/2+y,1/2-z
1/2-x,1/2-y,-z
1/2+x,1/2-y,1/2+z
loop_
_atom_site_type_symbol
_atom_site_label
_atom_site_fract_x
_atom_site_fract_y
_atom_site_fract_z
Si Si1 0.785784 0.062444 0.922888
Si Si2 0.545461 0.140817 0.591998
Si Si3 0.852527 0.921079 0.747195
Si Si4 0.919450 0.861910 0.243928
Si Si5 0.633195 0.796928 0.013117
Si Si6 0.000000 0.462028 0.750000
Si Si7 0.006374 0.137062 0.981553
Si Si8 0.765189 0.635123 0.917930
O O1 0.755298 0.137672 0.777728
O O2 0.817198 0.987687 0.831090
O O3 0.823122 0.118519 0.070551
O O4 0.754646 0.976297 0.003230
O O5 0.593889 0.125098 0.552656
O O6 0.512194 0.111894 0.414962
O O7 0.530875 0.273401 0.621682
O O8 0.539008 0.050910 0.728169
O O9 0.866214 0.810777 0.862044
O O10 0.892579 0.014939 0.741117
O O11 0.956766 0.862338 0.132758
O O12 0.953497 0.827686 0.413512
O O13 0.883043 0.763897 0.164671
O O14 0.680814 0.859743 0.041952
O O15 0.000000 0.000000 0.000000
O O16 0.750000 0.750000 0.000000
#
# Coordination Sequence:
#
# PCOD9263538 Si02
#       8
#     8   8   8   8   8   4   8   8
#     4  10  23  39  65  87 123 166 204 254 328 375
#     4  10  22  40  64  87 118 170 207 257 306 361
#     4  11  19  38  58  91 120 167 201 250 320 398
#     4  10  19  34  57  88 130 166 191 249 319 378
#     4  11  21  36  63  88 122 157 215 262 306 371
#     4  10  22  44  62  78 124 170 220 244 294 368
#     4  10  21  35  58  97 132 157 196 259 328 383
#     4  11  22  44  63  90 124 162 203 262 314 376
#
# _framework density 21.129235000000001
#
# number of rings (size 3 to 8) (size 9 to 14) (size 15 to 20)
#    0.000    1.600    2.667    4.000    0.000    3.733 
#    0.000    0.000    2.933    0.000    0.000    0.000 
#    0.000    0.000    0.000    0.000    0.000    0.000 
#
# Total GULP energy -167202.442081 kJ/mol
# GULP energy per Si atom -5573.414736 kJ/mol
# Density = 2.108114 g / cm^3
# Si number density = 21.129235 Si / 1000 Ang^3
#
#
#
# Elastic Constant Matrix: (Units=GPa)
#
#
# Indices 1 2 3 4 5 6 
#
# 1 118.5646 28.8346 24.4129 0.0000 19.0121 0.0000
# 2 28.8346 45.7000 0.3274 0.0000 -1.1961 0.0000
# 3 24.4129 0.3274 56.0612 0.0000 16.1095 0.0000
# 4 0.0000 0.0000 0.0000 23.3720 0.0000 1.4684
# 5 19.0121 -1.1961 16.1095 0.0000 31.9473 0.0000
# 6 0.0000 0.0000 0.0000 1.4684 0.0000 32.9788
#
#
#
# Elastic Compliance Matrix: (Units=1/GPa)
#
#
# Indices 1 2 3 4 5 6 
#
# 1 0.011918 -0.007641 -0.003538 0.000000 -0.005595 0.000000
# 2 -0.007641 0.026811 0.001843 0.000000 0.004622 0.000000
# 3 -0.003538 0.001843 0.021919 0.000000 -0.008878 0.000000
# 4 0.000000 0.000000 0.000000 0.042906 0.000000 -0.001910
# 5 -0.005595 0.004622 -0.008878 0.000000 0.039281 0.000000
# 6 0.000000 0.000000 0.000000 -0.001910 0.000000 0.030408
#
#
# Mechanical properties :
#
#
# Convention : Reuss Voigt Hill
#
# Bulk Modulus (GPa) = 23.82329 36.38618 30.10474
# Shear Modulus (GPa) = 24.28300 28.77633 26.52966
#
# Velocity S-wave (km/s) = 3.39375 3.69442 3.54728
# Velocity P-wave (km/s) = 5.16297 5.95454 5.57283
#
# Compressibility (1/GPa) = 0.04197573
#
# Stress axis : x y z
#
# Youngs Moduli (GPa) = 83.90691 37.29870 45.62333
#
# Poissons Ratio (x) = 0.28499 0.16140
# Poissons Ratio (y) = 0.64111 -0.08407
# Poissons Ratio (z) = 0.29683 -0.06873
#
# Static dielectric constant tensor:
#      x y z
#    x 1.769280 0.000000 0.046620 
#    y 0.000000 1.781550 0.000000 
#    z 0.046620 0.000000 1.866950 
# 
# From -- ./inp_files/69138.got.cif
#   From: 2010.05.17/outbox.cif.g08.bks.cpg/sg15_35_cif.got.tgz:69138.got - 2010.06.03 18:47:42.
