data_PCOD9263803
_publ_section_title
;
Structure prediction by ZEFSAII (Michael W. Deem and Ramdas Pophale) SiO2 
 PCOD9263803
Probable space group: C 2/C
;
_chemical_formula_sum "Si O2"
_cell_formula_units_Z 36
_cell_length_a 10.589429
_cell_length_b 31.631138
_cell_length_c 5.199799
_cell_angle_alpha 90.000000
_cell_angle_beta 100.378139
_cell_angle_gamma 90.000000
_cell_volume 1713.208493
_symmetry_space_group_name_H-M "C 2/C"
_symmetry_group_IT_number 15
_symmetry_cell_setting 'monoclinic'
loop_
_space_group_symop_operation_xyz
x,y,z
-x,y,1/2-z
-x,-y,-z
x,-y,1/2+z
1/2+x,1/2+y,z
1/2-x,1/2+y,1/2-z
1/2-x,1/2-y,-z
1/2+x,1/2-y,1/2+z
loop_
_atom_site_type_symbol
_atom_site_label
_atom_site_fract_x
_atom_site_fract_y
_atom_site_fract_z
Si Si1 0.000000 0.593256 0.750000
Si Si2 0.280074 0.970523 0.338206
Si Si3 0.221382 0.298038 0.082502
Si Si4 0.500000 0.148860 0.250000
Si Si5 0.000000 0.970323 0.250000
Si Si6 0.500000 0.297500 0.250000
Si Si7 0.500000 0.761230 0.250000
O O1 0.967449 0.621169 0.489008
O O2 0.886007 0.563545 0.809023
O O3 0.138709 0.051067 0.787373
O O4 0.291896 0.006116 0.117797
O O5 0.360036 0.319275 0.176592
O O6 0.127789 0.289547 0.288857
O O7 0.250000 0.250000 0.000000
O O8 0.125109 0.323276 0.863804
O O9 0.000000 0.000000 0.500000
O O10 0.489327 0.268322 0.498212
#
# Coordination Sequence:
#
# PCOD9263803 Si02
#       7
#     4   8   8   4   4   4   4
#     4  12  25  41  60  92 133 169 206 257 319 375
#     4  10  19  37  66  95 125 168 213 247 288 366
#     4  10  21  41  64  87 113 156 209 262 320 391
#     4  12  27  41  60  91 131 166 204 274 341 372
#     4   8  16  30  57  95 123 151 202 255 290 331
#     4  10  21  34  61  90 111 140 200 258 301 368
#     4  10  19  34  60  92 114 138 186 262 321 368
#
# _framework density 21.013204999999999
#
# number of rings (size 3 to 8) (size 9 to 14) (size 15 to 20)
#    0.000    1.778    0.000    6.000    0.000    5.333 
#    0.000    1.111    0.000    5.333    0.000    0.000 
#    0.000    0.000    0.000    0.000    0.000    0.000 
#
# Total GULP energy -100371.841125 kJ/mol
# GULP energy per Si atom -5576.213396 kJ/mol
# Density = 2.096538 g / cm^3
# Si number density = 21.013205 Si / 1000 Ang^3
#
#
#
# Elastic Constant Matrix: (Units=GPa)
#
#
# Indices 1 2 3 4 5 6 
#
# 1 211.1868 40.4609 26.4118 0.0000 26.5775 0.0000
# 2 40.4609 50.8950 15.7462 0.0000 9.1365 0.0000
# 3 26.4118 15.7462 112.3621 0.0000 -11.6394 0.0000
# 4 0.0000 0.0000 0.0000 19.1712 0.0000 34.4046
# 5 26.5775 9.1365 -11.6394 0.0000 45.3428 0.0000
# 6 0.0000 0.0000 0.0000 34.4046 0.0000 -43.6452
#
#
#
# Elastic Compliance Matrix: (Units=1/GPa)
#
#
# Indices 1 2 3 4 5 6 
#
# 1 0.006007 -0.003861 -0.001187 0.000000 -0.003047 0.000000
# 2 -0.003861 0.024192 -0.002828 0.000000 -0.003337 0.000000
# 3 -0.001187 -0.002828 0.009971 0.000000 0.003825 0.000000
# 4 0.000000 0.000000 0.000000 0.021602 0.000000 0.017029
# 5 -0.003047 -0.003337 0.003825 0.000000 0.025495 0.000000
# 6 0.000000 0.000000 0.000000 0.017029 0.000000 -0.009489
#
#
# Mechanical properties :
#
#
# Convention : Reuss Voigt Hill
#
# Bulk Modulus (GPa) = 40.95329 59.96462 50.45896
# Shear Modulus (GPa) = 49.17879 23.62877 36.40378
#
# Velocity S-wave (km/s) = 4.84299 3.35695 4.16676
# Velocity P-wave (km/s) = 7.12772 6.60485 6.87126
#
# Compressibility (1/GPa) = 0.02441806
#
# Stress axis : x y z
#
# Youngs Moduli (GPa) = 166.47778 41.33583 100.28795
#
# Poissons Ratio (x) = 0.15961 0.11900
# Poissons Ratio (y) = 0.64280 0.28365
# Poissons Ratio (z) = 0.19753 0.11691
#
# Static dielectric constant tensor:
#      x y z
#    x 1.844990 0.000000 0.027450 
#    y 0.000000 1.741750 0.000000 
#    z 0.027450 0.000000 1.811150 
# 
# From -- ./inp_files/4878.got.cif
#   From: 2010.05.17/outbox.cif.g08.bks.cpg/sg15_3_cif.got.tgz:4878.got - 2010.06.03 18:47:42.
