data_PCOD9263747
_publ_section_title
;
Structure prediction by ZEFSAII (Michael W. Deem and Ramdas Pophale) SiO2 
 PCOD9263747
Probable space group: C 2/C
;
_chemical_formula_sum "Si O2"
_cell_formula_units_Z 40
_cell_length_a 10.125438
_cell_length_b 10.776069
_cell_length_c 14.598535
_cell_angle_alpha 90.000000
_cell_angle_beta 82.145603
_cell_angle_gamma 90.000000
_cell_volume 1577.937915
_symmetry_space_group_name_H-M "C 2/C"
_symmetry_group_IT_number 15
_symmetry_cell_setting 'monoclinic'
loop_
_space_group_symop_operation_xyz
x,y,z
-x,y,1/2-z
-x,-y,-z
x,-y,1/2+z
1/2+x,1/2+y,z
1/2-x,1/2+y,1/2-z
1/2-x,1/2-y,-z
1/2+x,1/2-y,1/2+z
loop_
_atom_site_type_symbol
_atom_site_label
_atom_site_fract_x
_atom_site_fract_y
_atom_site_fract_z
Si Si1 0.500000 0.983186 0.750000
Si Si2 0.668733 0.792471 0.418928
Si Si3 0.500000 0.441562 0.250000
Si Si4 0.796526 0.272125 0.724554
Si Si5 0.307643 0.559797 0.404126
Si Si6 0.087234 0.402632 0.055715
O O1 0.432642 0.061024 0.836692
O O2 0.395276 0.889124 0.716799
O O3 0.750000 0.750000 0.500000
O O4 0.708362 0.719389 0.324144
O O5 0.510579 0.785532 0.452054
O O6 0.723232 0.931458 0.391592
O O7 0.615231 0.350535 0.278010
O O8 0.444963 0.517548 0.342570
O O9 0.716554 0.307429 0.642486
O O10 0.239787 0.586348 0.509386
O O11 0.000000 0.500000 0.000000
#
# Coordination Sequence:
#
# PCOD9263747 Si02
#       6
#     4   8   4   8   8   8
#     4  11  18  34  57  94 128 165 212 278 333 384
#     4  10  20  34  60  97 130 174 233 275 339 415
#     4   9  22  36  63  96 130 179 220 272 343 402
#     4  10  19  34  62  90 126 175 218 272 334 395
#     4  10  20  37  60  96 134 169 228 282 327 404
#     4  10  19  34  59  95 130 170 220 278 337 399
#
# _framework density 25.349540000000001
#
# number of rings (size 3 to 8) (size 9 to 14) (size 15 to 20)
#    0.000    2.000    4.000    2.400    5.600    0.000 
#    0.000    1.000    0.000   15.600    0.000    0.000 
#    0.000    0.000    0.000    0.000    0.000    0.000 
#
# Total GULP energy -111438.745161 kJ/mol
# GULP energy per Si atom -5571.937258 kJ/mol
# Density = 2.529184 g / cm^3
# Si number density = 25.349540 Si / 1000 Ang^3
#
#
#
# Elastic Constant Matrix: (Units=GPa)
#
#
# Indices 1 2 3 4 5 6 
#
# 1 94.7875 32.1125 52.9102 0.0000 -30.0084 0.0000
# 2 32.1125 91.7948 50.2747 0.0000 -15.7643 0.0000
# 3 52.9102 50.2747 202.6324 0.0000 -51.3848 0.0000
# 4 0.0000 0.0000 0.0000 43.1975 0.0000 -14.0576
# 5 -30.0084 -15.7643 -51.3848 0.0000 46.1507 0.0000
# 6 0.0000 0.0000 0.0000 -14.0576 0.0000 -17.9395
#
#
#
# Elastic Compliance Matrix: (Units=1/GPa)
#
#
# Indices 1 2 3 4 5 6 
#
# 1 0.014535 -0.003213 -0.001226 0.000000 0.006989 0.000000
# 2 -0.003213 0.013361 -0.002576 0.000000 -0.000393 0.000000
# 3 -0.001226 -0.002576 0.007621 0.000000 0.006808 0.000000
# 4 0.000000 0.000000 0.000000 0.018446 0.000000 -0.014454
# 5 0.006989 -0.000393 0.006808 0.000000 0.033658 0.000000
# 6 0.000000 0.000000 0.000000 -0.014454 0.000000 -0.044416
#
#
# Mechanical properties :
#
#
# Convention : Reuss Voigt Hill
#
# Bulk Modulus (GPa) = 46.53905 73.31218 59.92562
# Shear Modulus (GPa) = 77.64367 31.20956 54.42661
#
# Velocity S-wave (km/s) = 5.54037 3.51261 4.63865
# Velocity P-wave (km/s) = 7.70236 6.74051 7.23743
#
# Compressibility (1/GPa) = 0.02148733
#
# Stress axis : x y z
#
# Youngs Moduli (GPa) = 68.79773 74.84420 131.22328
#
# Poissons Ratio (x) = 0.24050 0.16087
# Poissons Ratio (y) = 0.22107 0.33799
# Poissons Ratio (z) = 0.08434 0.19277
#
# Static dielectric constant tensor:
#      x y z
#    x 2.196420 0.000000 -0.038740 
#    y 0.000000 2.080940 0.000000 
#    z -0.038740 0.000000 1.793720 
# 
# From -- ./inp_files/142167.got.cif
#   From: 2010.05.17/outbox.cif.g08.bks.cpg/sg15_72_cif.got.tgz:142167.got - 2010.06.03 18:47:42.
