data_PCOD9263625
_publ_section_title
;
Structure prediction by ZEFSAII (Michael W. Deem and Ramdas Pophale) SiO2 
 PCOD9263625
Probable space group: C 2/C
;
_chemical_formula_sum "Si O2"
_cell_formula_units_Z 40
_cell_length_a 10.204718
_cell_length_b 16.188000
_cell_length_c 18.720183
_cell_angle_alpha 90.000000
_cell_angle_beta 37.661048
_cell_angle_gamma 90.000000
_cell_volume 1889.459902
_symmetry_space_group_name_H-M "C 2/C"
_symmetry_group_IT_number 15
_symmetry_cell_setting 'monoclinic'
loop_
_space_group_symop_operation_xyz
x,y,z
-x,y,1/2-z
-x,-y,-z
x,-y,1/2+z
1/2+x,1/2+y,z
1/2-x,1/2+y,1/2-z
1/2-x,1/2-y,-z
1/2+x,1/2-y,1/2+z
loop_
_atom_site_type_symbol
_atom_site_label
_atom_site_fract_x
_atom_site_fract_y
_atom_site_fract_z
Si Si1 0.944879 0.549168 0.595565
Si Si2 0.000000 0.004701 0.750000
Si Si3 0.851195 0.138267 0.422199
Si Si4 0.000000 0.724406 0.750000
Si Si5 0.664981 0.944112 0.624214
Si Si6 0.391567 0.609378 0.570033
O O1 0.691462 0.558419 0.700091
O O2 0.000000 0.500000 0.500000
O O3 0.092747 0.629787 0.534233
O O4 0.026750 0.489848 0.623474
O O5 0.070175 0.942340 0.655942
O O6 0.921506 0.133356 0.473525
O O7 0.933792 0.216478 0.343681
O O8 0.792742 0.669024 0.820556
O O9 0.500000 0.901285 0.750000
O O10 0.866146 0.893863 0.505118
O O11 0.783273 0.018656 0.616082
#
# Coordination Sequence:
#
# PCOD9263625 Si02
#       6
#     8   4   8   4   8   8
#     4   9  18  33  54  86 112 147 189 239 289 341
#     4   9  16  32  58  82 109 144 190 242 293 338
#     4   9  19  33  55  81 115 151 195 229 285 348
#     4  11  20  36  56  82 119 164 196 224 281 362
#     4  10  19  34  58  87 115 141 191 251 297 326
#     4  10  20  34  55  85 112 149 195 239 283 343
#
# _framework density 21.170069999999999
#
# number of rings (size 3 to 8) (size 9 to 14) (size 15 to 20)
#    0.000    2.400    1.000    1.800    0.000    1.600 
#    0.000    0.000    2.200   16.800    0.000    0.000 
#    0.000    0.000    0.000    0.000    0.000    0.000 
#
# Total GULP energy -111602.291355 kJ/mol
# GULP energy per Si atom -5580.114568 kJ/mol
# Density = 2.112189 g / cm^3
# Si number density = 21.170070 Si / 1000 Ang^3
#
#
#
# Elastic Constant Matrix: (Units=GPa)
#
#
# Indices 1 2 3 4 5 6 
#
# 1 80.2414 8.5632 54.7550 -0.0005 -23.7392 0.0009
# 2 8.5632 56.0438 41.5274 -0.0024 -6.8893 0.0007
# 3 54.7550 41.5274 144.3657 -0.0064 -29.6794 0.0012
# 4 -0.0005 -0.0024 -0.0064 34.2481 0.0012 1.6493
# 5 -23.7392 -6.8893 -29.6794 0.0012 40.0291 -0.0007
# 6 0.0009 0.0007 0.0012 1.6493 -0.0007 7.9613
#
#
#
# Elastic Compliance Matrix: (Units=1/GPa)
#
#
# Indices 1 2 3 4 5 6 
#
# 1 0.018554 0.002774 -0.006459 -0.000001 0.006691 -0.000001
# 2 0.002774 0.023133 -0.007727 0.000000 -0.000103 -0.000001
# 3 -0.006459 -0.007727 0.012434 0.000002 0.004058 0.000000
# 4 -0.000001 0.000000 0.000002 0.029493 0.000000 -0.006110
# 5 0.006691 -0.000103 0.004058 0.000000 0.031942 0.000002
# 6 -0.000001 -0.000001 0.000000 -0.006110 0.000002 0.126874
#
#
# Mechanical properties :
#
#
# Convention : Reuss Voigt Hill
#
# Bulk Modulus (GPa) = 31.95458 54.48246 43.21852
# Shear Modulus (GPa) = 18.13660 28.16805 23.15232
#
# Velocity S-wave (km/s) = 2.93014 3.65164 3.31060
# Velocity P-wave (km/s) = 5.15505 6.60082 5.92222
#
# Compressibility (1/GPa) = 0.03129442
#
# Stress axis : x y z
#
# Youngs Moduli (GPa) = 53.89758 43.22913 80.42512
#
# Poissons Ratio (x) = -0.11991 0.51949
# Poissons Ratio (y) = -0.14951 0.62148
# Poissons Ratio (z) = 0.34814 0.33405
#
# Static dielectric constant tensor:
#      x y z
#    x 1.762720 0.000000 -0.012440 
#    y 0.000000 1.760700 0.000000 
#    z -0.012440 0.000000 1.902630 
# 
# From -- ./inp_files/86925.got.cif
#   From: 2010.05.17/outbox.cif.g08.bks.cpg/sg15_44_cif.got.tgz:86925.got - 2010.06.03 18:47:42.
