data_PCOD9263698
_publ_section_title
;
Structure prediction by ZEFSAII (Michael W. Deem and Ramdas Pophale) SiO2 
 PCOD9263698
Probable space group: C 2/C
;
_chemical_formula_sum "Si O2"
_cell_formula_units_Z 44
_cell_length_a 25.975151
_cell_length_b 17.940813
_cell_length_c 14.708674
_cell_angle_alpha 90.000000
_cell_angle_beta 159.231542
_cell_angle_gamma 90.000000
_cell_volume 2430.541239
_symmetry_space_group_name_H-M "C 2/C"
_symmetry_group_IT_number 15
_symmetry_cell_setting 'monoclinic'
loop_
_space_group_symop_operation_xyz
x,y,z
-x,y,1/2-z
-x,-y,-z
x,-y,1/2+z
1/2+x,1/2+y,z
1/2-x,1/2+y,1/2-z
1/2-x,1/2-y,-z
1/2+x,1/2-y,1/2+z
loop_
_atom_site_type_symbol
_atom_site_label
_atom_site_fract_x
_atom_site_fract_y
_atom_site_fract_z
Si Si1 0.187825 0.533321 0.378151
Si Si2 0.970561 0.913456 0.427386
Si Si3 0.369981 0.026691 0.915089
Si Si4 0.889338 0.860612 0.490453
Si Si5 0.500000 0.784422 0.250000
Si Si6 0.285916 0.910148 0.934635
O O1 0.323867 0.585963 0.626127
O O2 0.167350 0.519105 0.238106
O O3 0.220128 0.454046 0.480169
O O4 0.034437 0.555057 0.171213
O O5 0.943423 0.874193 0.478264
O O6 0.122848 0.887095 0.637247
O O7 0.000000 0.000000 0.500000
O O8 0.260978 0.095789 0.746687
O O9 0.345111 0.969369 0.957561
O O10 0.000000 0.893037 0.750000
O O11 0.900498 0.772473 0.528185
O O12 0.609159 0.840224 0.380378
#
# Coordination Sequence:
#
# PCOD9263698 Si02
#       6
#     8   8   8   8   4   8
#     4  10  21  34  60  95 110 155 205 255 291 344
#     4  10  19  34  59  86 121 151 205 248 297 343
#     4  11  20  35  62  88 122 154 207 247 291 360
#     4  10  21  36  57  92 117 155 197 250 297 355
#     4  10  24  38  58  90 128 158 196 246 320 358
#     4  11  20  39  59  88 123 159 197 250 302 359
#
# _framework density 18.102964
#
# number of rings (size 3 to 8) (size 9 to 14) (size 15 to 20)
#    0.545    1.091    5.455    2.182    0.000    0.727 
#    0.000    0.000    0.000    6.545    0.000    0.000 
#    0.000    0.000    0.000    0.000    0.000    0.000 
#
# Total GULP energy -122484.410807 kJ/mol
# GULP energy per Si atom -5567.473218 kJ/mol
# Density = 1.806176 g / cm^3
# Si number density = 18.102964 Si / 1000 Ang^3
#
#
#
# Elastic Constant Matrix: (Units=GPa)
#
#
# Indices 1 2 3 4 5 6 
#
# 1 59.4450 2.2759 20.2317 0.0000 1.3512 0.0000
# 2 2.2759 60.9773 16.8043 0.0000 8.6780 0.0000
# 3 20.2317 16.8043 122.5949 0.0000 25.3932 0.0000
# 4 0.0000 0.0000 0.0000 26.8975 0.0000 3.8643
# 5 1.3512 8.6780 25.3932 0.0000 38.8892 0.0000
# 6 0.0000 0.0000 0.0000 3.8643 0.0000 16.1837
#
#
#
# Elastic Compliance Matrix: (Units=1/GPa)
#
#
# Indices 1 2 3 4 5 6 
#
# 1 0.017900 0.000018 -0.003269 0.000000 0.001509 0.000000
# 2 0.000018 0.017280 -0.001819 0.000000 -0.002669 0.000000
# 3 -0.003269 -0.001819 0.010220 0.000000 -0.006154 0.000000
# 4 0.000000 0.000000 0.000000 0.038499 0.000000 -0.009193
# 5 0.001509 -0.002669 -0.006154 0.000000 0.030276 0.000000
# 6 0.000000 0.000000 0.000000 -0.009193 0.000000 0.063986
#
#
# Mechanical properties :
#
#
# Convention : Reuss Voigt Hill
#
# Bulk Modulus (GPa) = 28.35990 35.73788 32.04889
# Shear Modulus (GPa) = 24.99336 29.97444 27.48390
#
# Velocity S-wave (km/s) = 3.71970 4.07354 3.90063
# Velocity P-wave (km/s) = 5.84364 6.47373 6.16674
#
# Compressibility (1/GPa) = 0.03526105
#
# Stress axis : x y z
#
# Youngs Moduli (GPa) = 55.86642 57.87057 97.84332
#
# Poissons Ratio (x) = -0.00105 0.31984
# Poissons Ratio (y) = -0.00101 0.17795
# Poissons Ratio (z) = 0.18262 0.10525
#
# Static dielectric constant tensor:
#      x y z
#    x 1.606620 0.000000 0.009790 
#    y 0.000000 1.553760 0.000000 
#    z 0.009790 0.000000 1.698470 
# 
# From -- ./inp_files/178818.got.cif
#   From: 2010.05.17/outbox.cif.g08.bks.cpg/sg15_90_cif.got.tgz:178818.got - 2010.06.03 18:47:42.
