data_PCOD9263650
_publ_section_title
;
Structure prediction by ZEFSAII (Michael W. Deem and Ramdas Pophale) SiO2 
 PCOD9263650
Probable space group: C 2/C
;
_chemical_formula_sum "Si O2"
_cell_formula_units_Z 52
_cell_length_a 12.707434
_cell_length_b 27.828409
_cell_length_c 8.216728
_cell_angle_alpha 90.000000
_cell_angle_beta 55.478234
_cell_angle_gamma 90.000000
_cell_volume 2394.007078
_symmetry_space_group_name_H-M "C 2/C"
_symmetry_group_IT_number 15
_symmetry_cell_setting 'monoclinic'
loop_
_space_group_symop_operation_xyz
x,y,z
-x,y,1/2-z
-x,-y,-z
x,-y,1/2+z
1/2+x,1/2+y,z
1/2-x,1/2+y,1/2-z
1/2-x,1/2-y,-z
1/2+x,1/2-y,1/2+z
loop_
_atom_site_type_symbol
_atom_site_label
_atom_site_fract_x
_atom_site_fract_y
_atom_site_fract_z
Si Si1 0.607649 0.889366 0.404033
Si Si2 0.633533 0.474477 0.849063
Si Si3 0.286214 0.040232 0.910892
Si Si4 0.000000 0.461466 0.750000
Si Si5 0.008859 0.712870 0.441831
Si Si6 0.285272 0.279626 0.634344
Si Si7 0.850753 0.117471 0.933256
O O1 0.644026 0.911267 0.198227
O O2 0.513086 0.926032 0.583783
O O3 0.540536 0.838297 0.455621
O O4 0.740263 0.884470 0.391746
O O5 0.727923 0.518629 0.797904
O O6 0.671670 0.455239 0.639130
O O7 0.500000 0.500000 0.000000
O O8 0.656060 0.431299 0.955423
O O9 0.384199 0.998404 0.869942
O O10 0.911881 0.753619 0.586792
O O11 0.000000 0.710959 0.250000
O O12 0.156413 0.722391 0.351986
O O13 0.250000 0.250000 0.500000
O O14 0.316177 0.334592 0.563701
O O15 0.000000 0.121559 0.750000
#
# Coordination Sequence:
#
# PCOD9263650 Si02
#       7
#     8   8   8   4   8   8   8
#     4  12  22  38  61  90 125 162 204 254 315 366
#     4  12  25  44  61  87 125 165 211 260 310 375
#     4  12  25  39  62  88 120 163 206 255 308 370
#     4  12  22  40  58  86 124 158 202 254 306 368
#     4  10  19  34  58  89 127 155 200 262 308 371
#     4  10  19  34  58  94 123 156 204 257 317 365
#     4  12  22  37  63  91 124 162 206 257 313 371
#
# _framework density 21.720904999999998
#
# number of rings (size 3 to 8) (size 9 to 14) (size 15 to 20)
#    0.000    0.615    6.923    4.154    0.000    0.000 
#    0.000    0.000    0.000    0.923    0.000    0.000 
#    0.000    0.000    0.000    0.000    0.000    0.000 
#
# Total GULP energy -145222.662017 kJ/mol
# GULP energy per Si atom -5585.487001 kJ/mol
# Density = 2.167147 g / cm^3
# Si number density = 21.720905 Si / 1000 Ang^3
#
#
#
# Elastic Constant Matrix: (Units=GPa)
#
#
# Indices 1 2 3 4 5 6 
#
# 1 52.8183 43.9996 48.1241 0.0000 -35.3328 0.0000
# 2 43.9996 136.8699 39.7509 0.0000 -32.0074 0.0000
# 3 48.1241 39.7509 127.8704 0.0000 -38.8187 0.0000
# 4 0.0000 0.0000 0.0000 34.7015 0.0000 -11.2295
# 5 -35.3328 -32.0074 -38.8187 0.0000 35.8130 0.0000
# 6 0.0000 0.0000 0.0000 -11.2295 0.0000 21.1107
#
#
#
# Elastic Compliance Matrix: (Units=1/GPa)
#
#
# Indices 1 2 3 4 5 6 
#
# 1 0.064371 -0.007061 -0.006956 0.000000 0.049658 0.000000
# 2 -0.007061 0.010037 0.000217 0.000000 0.002239 0.000000
# 3 -0.006956 0.000217 0.012440 0.000000 0.006815 0.000000
# 4 0.000000 0.000000 0.000000 0.034809 0.000000 0.018516
# 5 0.049658 0.002239 0.006815 0.000000 0.086303 0.000000
# 6 0.000000 0.000000 0.000000 0.018516 0.000000 0.057219
#
#
# Mechanical properties :
#
#
# Convention : Reuss Voigt Hill
#
# Bulk Modulus (GPa) = 16.87820 64.58975 40.73398
# Shear Modulus (GPa) = 15.99863 30.70397 23.35130
#
# Velocity S-wave (km/s) = 2.71690 3.76382 3.28237
# Velocity P-wave (km/s) = 4.19874 6.97777 5.75841
#
# Compressibility (1/GPa) = 0.05924801
#
# Stress axis : x y z
#
# Youngs Moduli (GPa) = 15.53495 99.63498 80.38746
#
# Poissons Ratio (x) = 0.70348 0.55919
# Poissons Ratio (y) = 0.10969 -0.01745
# Poissons Ratio (z) = 0.10806 -0.02162
#
# Static dielectric constant tensor:
#      x y z
#    x 1.935140 0.000000 -0.025340 
#    y 0.000000 1.741470 0.000000 
#    z -0.025340 0.000000 1.809710 
# 
# From -- ./inp_files/43416.got.cif
#   From: 2010.05.17/outbox.cif.g08.bks.cpg/sg15_22_cif.got.tgz:43416.got - 2010.06.03 18:47:42.
