data_PCOD9263159
_publ_section_title
;
Structure prediction by ZEFSAII (Michael W. Deem and Ramdas Pophale) SiO2 
 PCOD9263159
Probable space group: C 2/C
;
_chemical_formula_sum "Si O2"
_cell_formula_units_Z 40
_cell_length_a 5.282291
_cell_length_b 18.230206
_cell_length_c 19.479702
_cell_angle_alpha 90.000000
_cell_angle_beta 115.869044
_cell_angle_gamma 90.000000
_cell_volume 1687.870524
_symmetry_space_group_name_H-M "C 2/C"
_symmetry_group_IT_number 15
_symmetry_cell_setting 'monoclinic'
loop_
_space_group_symop_operation_xyz
x,y,z
-x,y,1/2-z
-x,-y,-z
x,-y,1/2+z
1/2+x,1/2+y,z
1/2-x,1/2+y,1/2-z
1/2-x,1/2-y,-z
1/2+x,1/2-y,1/2+z
loop_
_atom_site_type_symbol
_atom_site_label
_atom_site_fract_x
_atom_site_fract_y
_atom_site_fract_z
Si Si1 0.834810 0.473490 0.658314
Si Si2 0.332206 0.611621 0.158459
Si Si3 0.644109 0.221823 0.840229
Si Si4 0.837760 0.168484 0.532373
Si Si5 0.878986 0.607856 0.558751
O O1 0.517568 0.447642 0.638371
O O2 0.854516 0.538476 0.605296
O O3 0.000000 0.492213 0.750000
O O4 0.020427 0.409969 0.645269
O O5 0.500000 0.615326 0.250000
O O6 0.335693 0.694668 0.132628
O O7 0.500000 0.217803 0.750000
O O8 0.492889 0.173528 0.879590
O O9 0.948783 0.183100 0.878368
O O10 0.750000 0.250000 0.500000
O O11 0.588924 0.111690 0.519873
O O12 0.061603 0.133565 0.505785
#
# Coordination Sequence:
#
# PCOD9263159 Si02
#       5
#     8   8   8   8   8
#     4  10  19  34  52  83 116 148 175 227 288 340
#     4   9  19  32  52  77 118 147 175 219 288 339
#     4   9  21  36  58  90 110 144 189 237 275 332
#     4  10  22  38  58  82 111 151 189 233 283 329
#     4  10  21  35  60  81 111 145 189 233 272 332
#
# _framework density 23.698502000000001
#
# number of rings (size 3 to 8) (size 9 to 14) (size 15 to 20)
#    1.200    1.200    0.000    2.400    2.800    0.800 
#    0.000    0.000    0.000    7.200    0.000    0.000 
#    0.000    0.000    0.000    0.000    0.000    0.000 
#
# Total GULP energy -111525.436345 kJ/mol
# GULP energy per Si atom -5576.271817 kJ/mol
# Density = 2.364456 g / cm^3
# Si number density = 23.698502 Si / 1000 Ang^3
#
#
#
# Elastic Constant Matrix: (Units=GPa)
#
#
# Indices 1 2 3 4 5 6 
#
# 1 149.5844 -6.5026 8.4313 0.0000 3.3495 0.0000
# 2 -6.5026 57.5077 -5.3855 0.0000 -12.5674 0.0000
# 3 8.4313 -5.3855 75.8913 0.0000 -8.5592 0.0000
# 4 0.0000 0.0000 0.0000 -6.3151 0.0000 47.1476
# 5 3.3495 -12.5674 -8.5592 0.0000 25.8831 0.0000
# 6 0.0000 0.0000 0.0000 47.1476 0.0000 -38.2051
#
#
#
# Elastic Compliance Matrix: (Units=1/GPa)
#
#
# Indices 1 2 3 4 5 6 
#
# 1 0.006773 0.000490 -0.000820 0.000000 -0.000910 0.000000
# 2 0.000490 0.019972 0.002544 0.000000 0.010475 0.000000
# 3 -0.000820 0.002544 0.014127 0.000000 0.006013 0.000000
# 4 0.000000 0.000000 0.000000 0.019280 0.000000 0.023792
# 5 -0.000910 0.010475 0.006013 0.000000 0.045827 0.000000
# 6 0.000000 0.000000 0.000000 0.023792 0.000000 0.003187
#
#
# Mechanical properties :
#
#
# Convention : Reuss Voigt Hill
#
# Bulk Modulus (GPa) = 22.07511 30.67442 26.37477
# Shear Modulus (GPa) = 41.72332 15.36861 28.54596
#
# Velocity S-wave (km/s) = 4.20049 2.54934 3.47442
# Velocity P-wave (km/s) = 5.73242 4.65158 5.22005
#
# Compressibility (1/GPa) = 0.04529989
#
# Stress axis : x y z
#
# Youngs Moduli (GPa) = 147.64272 50.07046 70.78858
#
# Poissons Ratio (x) = -0.02455 0.05807
# Poissons Ratio (y) = -0.07238 -0.18010
# Poissons Ratio (z) = 0.12111 -0.12739
#
# Static dielectric constant tensor:
#      x y z
#    x 2.124590 0.000000 -0.136580 
#    y 0.000000 1.885680 0.000000 
#    z -0.136580 0.000000 2.048100 
# 
# From -- ./inp_files/260969.got.cif
#   From: 2010.05.17/outbox.cif.g08.bks.cpg/sg15_131_cif.got.tgz:260969.got - 2010.06.03 18:47:42.
