data_PCOD9263504
_publ_section_title
;
Structure prediction by ZEFSAII (Michael W. Deem and Ramdas Pophale) SiO2 
 PCOD9263504
Probable space group: C 2/C
;
_chemical_formula_sum "Si O2"
_cell_formula_units_Z 64
_cell_length_a 26.345674
_cell_length_b 14.685290
_cell_length_c 18.922866
_cell_angle_alpha 90.000000
_cell_angle_beta 152.468555
_cell_angle_gamma 90.000000
_cell_volume 3384.090059
_symmetry_space_group_name_H-M "C 2/C"
_symmetry_group_IT_number 15
_symmetry_cell_setting 'monoclinic'
loop_
_space_group_symop_operation_xyz
x,y,z
-x,y,1/2-z
-x,-y,-z
x,-y,1/2+z
1/2+x,1/2+y,z
1/2-x,1/2+y,1/2-z
1/2-x,1/2-y,-z
1/2+x,1/2-y,1/2+z
loop_
_atom_site_type_symbol
_atom_site_label
_atom_site_fract_x
_atom_site_fract_y
_atom_site_fract_z
Si Si1 0.093967 0.126182 0.695764
Si Si2 0.396726 0.728724 0.373414
Si Si3 0.741195 0.270127 0.658481
Si Si4 0.296071 0.548906 0.205053
Si Si5 0.621290 0.992617 0.871798
Si Si6 0.797295 0.845723 0.032763
Si Si7 0.075246 0.414354 0.175417
Si Si8 0.341031 0.049390 0.329838
O O1 0.202785 0.180095 0.803241
O O2 0.101797 0.132577 0.790478
O O3 0.997514 0.176572 0.535593
O O4 0.107234 0.021004 0.693119
O O5 0.324203 0.756006 0.352081
O O6 0.333228 0.653066 0.249302
O O7 0.422543 0.814513 0.356018
O O8 0.676588 0.325101 0.516956
O O9 0.830198 0.347064 0.789383
O O10 0.256251 0.532498 0.235779
O O11 0.196151 0.527109 0.028769
O O12 0.500000 0.961417 0.750000
O O13 0.600886 0.072211 0.789179
O O14 0.697926 0.917221 0.926440
O O15 0.750000 0.750000 0.000000
O O16 0.156719 0.477673 0.230337
O O17 0.955268 0.456936 0.012766
#
# Coordination Sequence:
#
# PCOD9263504 Si02
#       8
#     8   8   8   8   8   8   8   8
#     4  10  20  38  56  83 122 153 200 245 302 365
#     4  11  23  36  60  85 115 168 200 250 296 353
#     4  10  19  37  55  86 119 148 202 241 301 359
#     4  10  22  38  58  85 116 159 203 246 301 360
#     4  11  21  38  62  90 122 161 198 250 310 352
#     4   9  20  37  54  85 124 151 188 250 297 370
#     4  11  21  35  60  85 119 154 199 247 303 352
#     4  10  19  34  57  85 115 146 194 251 292 350
#
# _framework density 18.912026999999998
#
# number of rings (size 3 to 8) (size 9 to 14) (size 15 to 20)
#    0.000    1.750    3.750    1.125    0.000    1.000 
#   13.500    0.000    0.000    0.000    0.000    0.000 
#    0.000    0.000    0.000    0.000    0.000    0.000 
#
# Total GULP energy -178294.917321 kJ/mol
# GULP energy per Si atom -5571.716166 kJ/mol
# Density = 1.886898 g / cm^3
# Si number density = 18.912027 Si / 1000 Ang^3
#
#
#
# Elastic Constant Matrix: (Units=GPa)
#
#
# Indices 1 2 3 4 5 6 
#
# 1 39.9363 23.9197 5.2889 0.0000 -13.5901 0.0000
# 2 23.9197 38.5549 10.3922 0.0000 -5.1165 0.0000
# 3 5.2889 10.3922 56.1209 0.0000 -9.1743 0.0000
# 4 0.0000 0.0000 0.0000 23.5350 0.0000 -5.5709
# 5 -13.5901 -5.1165 -9.1743 0.0000 23.0502 0.0000
# 6 0.0000 0.0000 0.0000 -5.5709 0.0000 25.4401
#
#
#
# Elastic Compliance Matrix: (Units=1/GPa)
#
#
# Indices 1 2 3 4 5 6 
#
# 1 0.050521 -0.029289 0.004780 0.000000 0.025187 0.000000
# 2 -0.029289 0.044690 -0.007184 0.000000 -0.010208 0.000000
# 3 0.004780 -0.007184 0.020214 0.000000 0.009269 0.000000
# 4 0.000000 0.000000 0.000000 0.044813 0.000000 0.009813
# 5 0.025187 -0.010208 0.009269 0.000000 0.059657 0.000000
# 6 0.000000 0.000000 0.000000 0.009813 0.000000 0.041457
#
#
# Mechanical properties :
#
#
# Convention : Reuss Voigt Hill
#
# Bulk Modulus (GPa) = 19.21673 23.75708 21.48691
# Shear Modulus (GPa) = 14.61634 20.73916 17.67775
#
# Velocity S-wave (km/s) = 2.78305 3.31511 3.06066
# Velocity P-wave (km/s) = 4.52883 5.21943 4.88635
#
# Compressibility (1/GPa) = 0.05203800
#
# Stress axis : x y z
#
# Youngs Moduli (GPa) = 19.79390 22.37644 49.47140
#
# Poissons Ratio (x) = 0.65539 -0.23647
# Poissons Ratio (y) = 0.57975 0.35540
# Poissons Ratio (z) = -0.09461 0.16075
#
# Static dielectric constant tensor:
#      x y z
#    x 1.676350 0.000000 -0.003860 
#    y 0.000000 1.661780 0.000000 
#    z -0.003860 0.000000 1.703980 
# 
# From -- ./inp_files/123536.got.cif
#   From: 2010.05.17/outbox.cif.g08.bks.cpg/sg15_62_cif.got.tgz:123536.got - 2010.06.03 18:47:42.
