data_PCOD9263229
_publ_section_title
;
Structure prediction by ZEFSAII (Michael W. Deem and Ramdas Pophale) SiO2 
 PCOD9263229
Probable space group: C 2/C
;
_chemical_formula_sum "Si O2"
_cell_formula_units_Z 48
_cell_length_a 11.764634
_cell_length_b 21.817403
_cell_length_c 10.950579
_cell_angle_alpha 90.000000
_cell_angle_beta 107.748854
_cell_angle_gamma 90.000000
_cell_volume 2676.941059
_symmetry_space_group_name_H-M "C 2/C"
_symmetry_group_IT_number 15
_symmetry_cell_setting 'monoclinic'
loop_
_space_group_symop_operation_xyz
x,y,z
-x,y,1/2-z
-x,-y,-z
x,-y,1/2+z
1/2+x,1/2+y,z
1/2-x,1/2+y,1/2-z
1/2-x,1/2-y,-z
1/2+x,1/2-y,1/2+z
loop_
_atom_site_type_symbol
_atom_site_label
_atom_site_fract_x
_atom_site_fract_y
_atom_site_fract_z
Si Si1 0.142765 0.954653 0.296980
Si Si2 0.809209 0.811891 0.168668
Si Si3 0.067019 0.259875 0.002483
Si Si4 0.894270 0.852144 0.805355
Si Si5 0.697259 0.221856 0.106498
Si Si6 0.364384 0.475709 0.939545
O O1 0.160584 0.882082 0.301442
O O2 0.190151 0.979277 0.442722
O O3 0.000000 0.966079 0.250000
O O4 0.191348 0.985743 0.189948
O O5 0.902488 0.777932 0.110092
O O6 0.803242 0.775567 0.292981
O O7 0.679826 0.803385 0.063370
O O8 0.941504 0.294090 0.956567
O O9 0.064029 0.208579 0.108247
O O10 0.780076 0.831750 0.688238
O O11 0.867842 0.905620 0.893339
O O12 0.000000 0.872725 0.750000
O O13 0.750000 0.250000 0.000000
O O14 0.500000 0.500000 0.000000
#
# Coordination Sequence:
#
# PCOD9263229 Si02
#       6
#     8   8   8   8   8   8
#     4  10  19  34  54  79 111 143 188 236 287 337
#     4  10  21  34  57  79 111 150 183 227 274 347
#     4  10  20  37  54  80 113 146 187 221 280 336
#     4  11  20  34  54  80 114 144 184 233 281 344
#     4  11  22  33  55  83 115 148 180 233 286 336
#     4  10  21  33  53  81 110 148 188 239 289 335
#
# _framework density 17.930913
#
# number of rings (size 3 to 8) (size 9 to 14) (size 15 to 20)
#    0.000    1.667    3.333    3.000    2.333    1.333 
#    0.000    0.000    0.000    1.000    0.000    2.333 
#    0.000    0.000    0.000    0.000    0.000    0.000 
#
# Total GULP energy -133905.776474 kJ/mol
# GULP energy per Si atom -5579.407353 kJ/mol
# Density = 1.789010 g / cm^3
# Si number density = 17.930913 Si / 1000 Ang^3
#
#
#
# Elastic Constant Matrix: (Units=GPa)
#
#
# Indices 1 2 3 4 5 6 
#
# 1 70.7908 4.1232 35.2798 0.0000 7.7105 0.0000
# 2 4.1232 43.4797 26.1506 0.0000 0.4213 0.0000
# 3 35.2798 26.1506 105.5075 0.0000 -11.5479 0.0000
# 4 0.0000 0.0000 0.0000 32.5436 0.0000 1.7363
# 5 7.7105 0.4213 -11.5479 0.0000 38.1630 0.0000
# 6 0.0000 0.0000 0.0000 1.7363 0.0000 13.3619
#
#
#
# Elastic Compliance Matrix: (Units=1/GPa)
#
#
# Indices 1 2 3 4 5 6 
#
# 1 0.018350 0.002825 -0.007494 0.000000 -0.006006 0.000000
# 2 0.002825 0.027678 -0.008171 0.000000 -0.003349 0.000000
# 3 -0.007494 -0.008171 0.014671 0.000000 0.006043 0.000000
# 4 0.000000 0.000000 0.000000 0.030942 0.000000 -0.004021
# 5 -0.006006 -0.003349 0.006043 0.000000 0.029283 0.000000
# 6 0.000000 0.000000 0.000000 -0.004021 0.000000 0.075362
#
#
# Mechanical properties :
#
#
# Convention : Reuss Voigt Hill
#
# Bulk Modulus (GPa) = 28.55570 38.98723 33.77147
# Shear Modulus (GPa) = 21.40050 27.09535 24.24792
#
# Velocity S-wave (km/s) = 3.45845 3.89150 3.68135
# Velocity P-wave (km/s) = 5.64870 6.47935 6.07823
#
# Compressibility (1/GPa) = 0.03501927
#
# Stress axis : x y z
#
# Youngs Moduli (GPa) = 54.49483 36.12923 68.16391
#
# Poissons Ratio (x) = -0.10207 0.51079
# Poissons Ratio (y) = -0.15395 0.55700
# Poissons Ratio (z) = 0.40836 0.29523
#
# Static dielectric constant tensor:
#      x y z
#    x 1.613020 0.000000 -0.009980 
#    y 0.000000 1.585540 0.000000 
#    z -0.009980 0.000000 1.676350 
# 
# From -- ./inp_files/88348.got.cif
#   From: 2010.05.17/outbox.cif.g08.bks.cpg/sg15_45_cif.got.tgz:88348.got - 2010.06.03 18:47:42.
