data_PCOD9263848
_publ_section_title
;
Structure prediction by ZEFSAII (Michael W. Deem and Ramdas Pophale) SiO2 
 PCOD9263848
Probable space group: C 2/C
;
_chemical_formula_sum "Si O2"
_cell_formula_units_Z 56
_cell_length_a 11.761112
_cell_length_b 17.703814
_cell_length_c 13.486265
_cell_angle_alpha 90.000000
_cell_angle_beta 50.004096
_cell_angle_gamma 90.000000
_cell_volume 2151.230414
_symmetry_space_group_name_H-M "C 2/C"
_symmetry_group_IT_number 15
_symmetry_cell_setting 'monoclinic'
loop_
_space_group_symop_operation_xyz
x,y,z
-x,y,1/2-z
-x,-y,-z
x,-y,1/2+z
1/2+x,1/2+y,z
1/2-x,1/2+y,1/2-z
1/2-x,1/2-y,-z
1/2+x,1/2-y,1/2+z
loop_
_atom_site_type_symbol
_atom_site_label
_atom_site_fract_x
_atom_site_fract_y
_atom_site_fract_z
Si Si1 0.882076 0.765350 0.010675
Si Si2 0.715793 0.998322 0.256381
Si Si3 0.148229 0.792238 0.235066
Si Si4 0.822479 0.360153 0.846538
Si Si5 0.124304 0.070394 0.014908
Si Si6 0.543338 0.878557 0.122425
Si Si7 0.190957 0.946771 0.106943
O O1 0.849612 0.777240 0.147291
O O2 0.951627 0.847428 0.942974
O O3 0.750000 0.750000 0.000000
O O4 0.971536 0.686687 0.951017
O O5 0.842249 0.962759 0.112816
O O6 0.568413 0.948671 0.320344
O O7 0.723485 0.002460 0.369490
O O8 0.712246 0.083938 0.222720
O O9 0.241414 0.723552 0.134548
O O10 0.174815 0.879735 0.197223
O O11 0.000000 0.785209 0.250000
O O12 0.000000 0.359249 0.750000
O O13 0.764927 0.401160 0.976598
O O14 0.291444 0.091289 0.956153
O O15 0.075639 0.002355 0.114740
O O16 0.500000 0.837820 0.250000
#
# Coordination Sequence:
#
# PCOD9263848 Si02
#       7
#     8   8   8   8   8   8   8
#     4  10  21  40  64  90 126 169 213 265 318 383
#     4  10  19  34  61  92 126 157 208 262 328 394
#     4  11  25  44  63  91 131 175 221 268 323 388
#     4  10  23  38  59  97 129 167 212 264 338 399
#     4   9  19  37  58  87 120 164 216 258 314 376
#     4   9  19  34  58  96 129 158 199 264 327 390
#     4  11  22  39  64  88 129 173 216 272 321 388
#
# _framework density 26.031614000000001
#
# number of rings (size 3 to 8) (size 9 to 14) (size 15 to 20)
#    0.000    2.000    1.429    2.571    8.000    1.143 
#    0.000    1.429    0.000    0.000    0.000    0.000 
#    0.000    0.000    0.000    0.000    0.000    0.000 
#
# Total GULP energy -156043.968008 kJ/mol
# GULP energy per Si atom -5572.998857 kJ/mol
# Density = 2.597237 g / cm^3
# Si number density = 26.031614 Si / 1000 Ang^3
#
#
#
# Elastic Constant Matrix: (Units=GPa)
#
#
# Indices 1 2 3 4 5 6 
#
# 1 86.8691 19.8927 30.2229 0.0000 22.8198 0.0001
# 2 19.8927 118.5660 60.1016 0.0000 22.1562 0.0000
# 3 30.2229 60.1016 131.3066 0.0000 42.2898 0.0001
# 4 0.0000 0.0000 0.0000 34.7472 0.0000 -8.5104
# 5 22.8198 22.1562 42.2898 0.0000 43.1676 -0.0001
# 6 0.0001 0.0000 0.0001 -8.5104 -0.0001 -1.8471
#
#
#
# Elastic Compliance Matrix: (Units=1/GPa)
#
#
# Indices 1 2 3 4 5 6 
#
# 1 0.013539 -0.000719 -0.000878 0.000000 -0.005928 0.000001
# 2 -0.000719 0.011052 -0.004659 0.000000 -0.000729 0.000000
# 3 -0.000878 -0.004659 0.013193 0.000000 -0.010070 0.000001
# 4 0.000000 0.000000 0.000000 0.013521 0.000000 -0.062297
# 5 -0.005928 -0.000729 -0.010070 0.000000 0.036538 -0.000002
# 6 0.000001 0.000000 0.000001 -0.062297 -0.000002 -0.254353
#
#
# Mechanical properties :
#
#
# Convention : Reuss Voigt Hill
#
# Bulk Modulus (GPa) = 39.56672 61.90845 50.73759
# Shear Modulus (GPa) = -34.34706 30.31518 -2.01594
#
# Velocity S-wave (km/s) = -3.63635 3.41626 -0.88097
# Velocity P-wave (km/s) = 1.54861 6.27652 4.30096
#
# Compressibility (1/GPa) = 0.02527377
#
# Stress axis : x y z
#
# Youngs Moduli (GPa) = 73.86135 90.47774 75.79516
#
# Poissons Ratio (x) = 0.06502 0.06655
# Poissons Ratio (y) = 0.05308 0.35311
# Poissons Ratio (z) = 0.06486 0.42151
#
# Static dielectric constant tensor:
#      x y z
#    x 2.207000 0.000000 -0.025070 
#    y 0.000000 2.238960 0.000000 
#    z -0.025070 0.000000 2.057380 
# 
# From -- ./inp_files/98649.got.cif
#   From: 2010.05.17/outbox.cif.g08.bks.cpg/sg15_50_cif.got.tgz:98649.got - 2010.06.03 18:47:42.
