data_PCOD9263900
_publ_section_title
;
Structure prediction by ZEFSAII (Michael W. Deem and Ramdas Pophale) SiO2 
 PCOD9263900
Probable space group: C 2/C
;
_chemical_formula_sum "Si O2"
_cell_formula_units_Z 48
_cell_length_a 8.225748
_cell_length_b 20.482613
_cell_length_c 14.901178
_cell_angle_alpha 90.000000
_cell_angle_beta 119.997599
_cell_angle_gamma 90.000000
_cell_volume 2174.315196
_symmetry_space_group_name_H-M "C 2/C"
_symmetry_group_IT_number 15
_symmetry_cell_setting 'monoclinic'
loop_
_space_group_symop_operation_xyz
x,y,z
-x,y,1/2-z
-x,-y,-z
x,-y,1/2+z
1/2+x,1/2+y,z
1/2-x,1/2+y,1/2-z
1/2-x,1/2-y,-z
1/2+x,1/2-y,1/2+z
loop_
_atom_site_type_symbol
_atom_site_label
_atom_site_fract_x
_atom_site_fract_y
_atom_site_fract_z
Si Si1 0.019609 0.262114 0.614684
Si Si2 0.077513 0.617483 0.523603
Si Si3 0.983742 0.161414 0.032916
Si Si4 0.686873 0.934865 0.862128
Si Si5 0.869358 0.581210 0.630840
Si Si6 0.702350 0.762559 0.164904
O O1 0.044382 0.325984 0.560608
O O2 0.209563 0.241629 0.714205
O O3 0.952512 0.199929 0.539344
O O4 0.858036 0.273466 0.644286
O O5 0.986840 0.570000 0.571751
O O6 0.159136 0.580272 0.460534
O O7 0.195095 0.665287 0.622173
O O8 0.789305 0.130008 0.949469
O O9 0.127554 0.106838 0.108945
O O10 0.007669 0.222962 0.106456
O O11 0.500000 0.919097 0.750000
O O12 0.715639 0.012430 0.860178
O O13 0.000000 0.604922 0.750000
#
# Coordination Sequence:
#
# PCOD9263900 Si02
#       6
#     8   8   8   8   8   8
#     4  10  19  34  62  94 119 150 197 249 297 354
#     4  11  20  39  61  88 119 158 197 244 302 355
#     4  11  20  39  61  88 119 158 197 244 302 355
#     4  11  22  41  65  87 117 161 207 248 288 350
#     4  11  26  41  57  87 127 163 199 246 298 350
#     4  10  19  34  62  94 119 150 197 249 297 354
#
# _framework density 22.075915999999999
#
# number of rings (size 3 to 8) (size 9 to 14) (size 15 to 20)
#    0.000    1.333    3.333    4.000    0.000    2.667 
#    0.000    5.000    0.000   10.000    0.000    0.000 
#    0.000    0.000    0.000    0.000    0.000    0.000 
#
# Total GULP energy -133614.854135 kJ/mol
# GULP energy per Si atom -5567.285589 kJ/mol
# Density = 2.202567 g / cm^3
# Si number density = 22.075916 Si / 1000 Ang^3
#
#
#
# Elastic Constant Matrix: (Units=GPa)
#
#
# Indices 1 2 3 4 5 6 
#
# 1 16.1893 -3.2701 0.2207 0.0000 -6.9543 0.0000
# 2 -3.2701 65.0862 19.0322 0.0000 16.1119 0.0000
# 3 0.2207 19.0322 125.4624 0.0000 17.1703 0.0000
# 4 0.0000 0.0000 0.0000 26.0548 0.0000 6.3423
# 5 -6.9543 16.1119 17.1703 0.0000 28.8767 0.0000
# 6 0.0000 0.0000 0.0000 6.3423 0.0000 26.0841
#
#
#
# Elastic Compliance Matrix: (Units=1/GPa)
#
#
# Indices 1 2 3 4 5 6 
#
# 1 0.069692 -0.000319 -0.002608 0.000000 0.018512 0.000000
# 2 -0.000319 0.018078 -0.001471 0.000000 -0.009289 0.000000
# 3 -0.002608 -0.001471 0.008896 0.000000 -0.005097 0.000000
# 4 0.000000 0.000000 0.000000 0.040795 0.000000 -0.009919
# 5 0.018512 -0.009289 -0.005097 0.000000 0.047302 0.000000
# 6 0.000000 0.000000 0.000000 -0.009919 0.000000 0.040749
#
#
# Mechanical properties :
#
#
# Convention : Reuss Voigt Hill
#
# Bulk Modulus (GPa) = 11.38019 26.52262 18.95140
# Shear Modulus (GPa) = 18.96837 28.92012 23.94424
#
# Velocity S-wave (km/s) = 2.93445 3.62336 3.29695
# Velocity P-wave (km/s) = 4.08014 5.43556 4.80588
#
# Compressibility (1/GPa) = 0.08787203
#
# Stress axis : x y z
#
# Youngs Moduli (GPa) = 14.34877 55.31681 112.41350
#
# Poissons Ratio (x) = 0.01762 0.29315
# Poissons Ratio (y) = 0.00457 0.16531
# Poissons Ratio (z) = 0.03742 0.08134
#
# Static dielectric constant tensor:
#      x y z
#    x 1.890120 0.000000 0.019830 
#    y 0.000000 1.869300 0.000000 
#    z 0.019830 0.000000 1.878650 
# 
# From -- ./inp_files/192311.got.cif
#   From: 2010.05.17/outbox.cif.g08.bks.cpg/sg15_97_cif.got.tgz:192311.got - 2010.06.03 18:47:42.
