data_PCOD9263033
_publ_section_title
;
Structure prediction by ZEFSAII (Michael W. Deem and Ramdas Pophale) SiO2 
 PCOD9263033
Probable space group: C 2/C
;
_chemical_formula_sum "Si O2"
_cell_formula_units_Z 36
_cell_length_a 12.156563
_cell_length_b 21.812663
_cell_length_c 9.127165
_cell_angle_alpha 90.000000
_cell_angle_beta 55.584214
_cell_angle_gamma 90.000000
_cell_volume 1996.581921
_symmetry_space_group_name_H-M "C 2/C"
_symmetry_group_IT_number 15
_symmetry_cell_setting 'monoclinic'
loop_
_space_group_symop_operation_xyz
x,y,z
-x,y,1/2-z
-x,-y,-z
x,-y,1/2+z
1/2+x,1/2+y,z
1/2-x,1/2+y,1/2-z
1/2-x,1/2-y,-z
1/2+x,1/2-y,1/2+z
loop_
_atom_site_type_symbol
_atom_site_label
_atom_site_fract_x
_atom_site_fract_y
_atom_site_fract_z
Si Si1 0.500000 0.998150 0.750000
Si Si2 0.562864 0.628001 0.856128
Si Si3 0.187559 0.538032 0.858753
Si Si4 0.619164 0.425532 0.761221
Si Si5 0.365685 0.298459 0.922871
O O1 0.596374 0.037804 0.782287
O O2 0.591773 0.958527 0.571614
O O3 0.500000 0.646731 0.750000
O O4 0.694200 0.586875 0.734631
O O5 0.451333 0.590325 0.032253
O O6 0.603759 0.682486 0.933886
O O7 0.260680 0.471993 0.812269
O O8 0.500000 0.453140 0.750000
O O9 0.658825 0.362416 0.647968
O O10 0.500000 0.272561 0.750000
O O11 0.250000 0.250000 0.000000
#
# Coordination Sequence:
#
# PCOD9263033 Si02
#       5
#     4   8   8   8   8
#     4  10  22  30  44  72 130 152 174 212 256 358
#     4  10  19  33  60  84 106 138 187 243 276 320
#     4  11  19  34  50  81 118 150 179 218 289 326
#     4   9  18  33  57  80 107 143 190 228 269 331
#     4   9  20  40  58  83 109 150 194 232 273 341
#
# _framework density 18.030815
#
# number of rings (size 3 to 8) (size 9 to 14) (size 15 to 20)
#    0.000    2.667    0.000    5.333    0.000    0.000 
#   12.000    4.444    2.444    0.000    0.000    0.000 
#    0.000    0.000    0.000    0.000    0.000    0.000 
#
# Total GULP energy -100443.172754 kJ/mol
# GULP energy per Si atom -5580.176264 kJ/mol
# Density = 1.798978 g / cm^3
# Si number density = 18.030815 Si / 1000 Ang^3
#
#
#
# Elastic Constant Matrix: (Units=GPa)
#
#
# Indices 1 2 3 4 5 6 
#
# 1 141.5489 64.9973 84.9086 0.0000 4.9758 0.0000
# 2 64.9973 47.2093 47.7905 0.0000 -11.7987 0.0000
# 3 84.9086 47.7905 140.1734 0.0000 10.5866 0.0000
# 4 0.0000 0.0000 0.0000 3.2294 0.0000 -8.8240
# 5 4.9758 -11.7987 10.5866 0.0000 35.7968 0.0000
# 6 0.0000 0.0000 0.0000 -8.8240 0.0000 26.9825
#
#
#
# Elastic Compliance Matrix: (Units=1/GPa)
#
#
# Indices 1 2 3 4 5 6 
#
# 1 0.026260 -0.038539 -0.001567 0.000000 -0.015889 0.000000
# 2 -0.038539 0.097999 -0.013206 0.000000 0.041563 0.000000
# 3 -0.001567 -0.013206 0.013193 0.000000 -0.008037 0.000000
# 4 0.000000 0.000000 0.000000 2.909507 0.000000 0.951489
# 5 -0.015889 0.041563 -0.008037 0.000000 0.046220 0.000000
# 6 0.000000 0.000000 0.000000 0.951489 0.000000 0.348224
#
#
# Mechanical properties :
#
#
# Convention : Reuss Voigt Hill
#
# Bulk Modulus (GPa) = 32.43919 80.48048 56.45984
# Shear Modulus (GPa) = 1.40516 21.95076 11.67796
#
# Velocity S-wave (km/s) = 0.88374 3.49291 2.54769
# Velocity P-wave (km/s) = 4.36708 7.81019 6.32734
#
# Compressibility (1/GPa) = 0.03082691
#
# Stress axis : x y z
#
# Youngs Moduli (GPa) = 38.08084 10.20423 75.79937
#
# Poissons Ratio (x) = 0.39326 0.11879
# Poissons Ratio (y) = 1.46760 1.00100
# Poissons Ratio (z) = 0.05968 0.13476
#
# Static dielectric constant tensor:
#      x y z
#    x 1.618030 0.000000 0.014010 
#    y 0.000000 1.591060 0.000000 
#    z 0.014010 0.000000 1.637550 
# 
# From -- ./inp_files/31523.got.cif
#   From: 2010.05.17/outbox.cif.g08.bks.cpg/sg15_16_cif.got.tgz:31523.got - 2010.06.03 18:47:42.
