data_PCOD9263930
_publ_section_title
;
Structure prediction by ZEFSAII (Michael W. Deem and Ramdas Pophale) SiO2 
 PCOD9263930
Probable space group: C 2/C
;
_chemical_formula_sum "Si O2"
_cell_formula_units_Z 48
_cell_length_a 8.049765
_cell_length_b 13.922291
_cell_length_c 26.170704
_cell_angle_alpha 90.000000
_cell_angle_beta 135.366842
_cell_angle_gamma 90.000000
_cell_volume 2060.610094
_symmetry_space_group_name_H-M "C 2/C"
_symmetry_group_IT_number 15
_symmetry_cell_setting 'monoclinic'
loop_
_space_group_symop_operation_xyz
x,y,z
-x,y,1/2-z
-x,-y,-z
x,-y,1/2+z
1/2+x,1/2+y,z
1/2-x,1/2+y,1/2-z
1/2-x,1/2-y,-z
1/2+x,1/2-y,1/2+z
loop_
_atom_site_type_symbol
_atom_site_label
_atom_site_fract_x
_atom_site_fract_y
_atom_site_fract_z
Si Si1 0.063104 0.114844 0.447269
Si Si2 0.458208 0.757985 0.971427
Si Si3 0.759446 0.631775 0.215996
Si Si4 0.542591 0.190768 0.817009
Si Si5 0.593184 0.952472 0.968245
Si Si6 0.719152 0.980838 0.191709
O O1 0.260045 0.179766 0.460486
O O2 0.956057 0.180591 0.468571
O O3 0.873544 0.090936 0.362597
O O4 0.184779 0.019555 0.495889
O O5 0.630808 0.840431 0.988215
O O6 0.310324 0.708049 0.893673
O O7 0.591526 0.707937 0.206785
O O8 0.821408 0.548621 0.268728
O O9 0.000000 0.681000 0.250000
O O10 0.500000 0.156699 0.750000
O O11 0.421247 0.117505 0.829849
O O12 0.390606 0.966919 0.881597
O O13 0.500000 0.000000 0.000000
O O14 0.000000 0.964700 0.250000
#
# Coordination Sequence:
#
# PCOD9263930 Si02
#       6
#     8   8   8   8   8   8
#     4   9  18  36  59  93 128 175 217 280 346 405
#     4   9  17  33  61  91 131 170 221 279 338 409
#     4  11  24  43  64  95 135 174 224 285 340 412
#     4  11  22  40  66  96 134 178 223 278 348 412
#     4  10  19  34  63  97 128 176 230 281 346 414
#     4  12  23  40  65  97 131 180 229 279 344 415
#
# _framework density 23.294070999999999
#
# number of rings (size 3 to 8) (size 9 to 14) (size 15 to 20)
#    0.000    1.667    1.667    5.500    2.333    0.000 
#    3.000    0.833    3.667    2.000    0.000    0.000 
#    0.000    0.000    0.000    0.000    0.000    0.000 
#
# Total GULP energy -134323.484909 kJ/mol
# GULP energy per Si atom -5596.811871 kJ/mol
# Density = 2.324105 g / cm^3
# Si number density = 23.294071 Si / 1000 Ang^3
#
#
#
# Elastic Constant Matrix: (Units=GPa)
#
#
# Indices 1 2 3 4 5 6 
#
# 1 71.6648 13.8174 28.0161 0.0000 -6.9517 0.0000
# 2 13.8174 113.0412 42.5175 0.0000 -11.6756 0.0000
# 3 28.0161 42.5175 145.4357 0.0000 -25.1372 0.0000
# 4 0.0000 0.0000 0.0000 27.6309 0.0000 -7.5395
# 5 -6.9517 -11.6756 -25.1372 0.0000 27.6618 0.0000
# 6 0.0000 0.0000 0.0000 -7.5395 0.0000 37.4330
#
#
#
# Elastic Compliance Matrix: (Units=1/GPa)
#
#
# Indices 1 2 3 4 5 6 
#
# 1 0.015197 -0.000797 -0.002482 0.000000 0.001227 0.000000
# 2 -0.000797 0.010061 -0.002478 0.000000 0.001795 0.000000
# 3 -0.002482 -0.002478 0.009241 0.000000 0.006728 0.000000
# 4 0.000000 0.000000 0.000000 0.038296 0.000000 0.007713
# 5 0.001227 0.001795 0.006728 0.000000 0.043331 0.000000
# 6 0.000000 0.000000 0.000000 0.007713 0.000000 0.028268
#
#
# Mechanical properties :
#
#
# Convention : Reuss Voigt Hill
#
# Bulk Modulus (GPa) = 43.50630 55.42707 49.46668
# Shear Modulus (GPa) = 30.56791 34.93118 32.74955
#
# Velocity S-wave (km/s) = 3.62644 3.87663 3.75362
# Velocity P-wave (km/s) = 6.02099 6.62449 6.32994
#
# Compressibility (1/GPa) = 0.02298518
#
# Stress axis : x y z
#
# Youngs Moduli (GPa) = 65.80242 99.39367 108.20994
#
# Poissons Ratio (x) = 0.07923 0.26862
# Poissons Ratio (y) = 0.05246 0.26809
# Poissons Ratio (z) = 0.16335 0.24625
#
# Static dielectric constant tensor:
#      x y z
#    x 1.918970 0.000000 0.020430 
#    y 0.000000 1.835620 0.000000 
#    z 0.020430 0.000000 1.819100 
# 
# From -- ./inp_files/289138.got.cif
#   From: 2010.05.17/outbox.cif.g08.bks.cpg/sg15_145_cif.got.tgz:289138.got - 2010.06.03 18:47:42.
