data_PCOD9263866
_publ_section_title
;
Structure prediction by ZEFSAII (Michael W. Deem and Ramdas Pophale) SiO2 
 PCOD9263866
Probable space group: C 2/C
;
_chemical_formula_sum "Si O2"
_cell_formula_units_Z 48
_cell_length_a 11.685053
_cell_length_b 27.222685
_cell_length_c 14.930508
_cell_angle_alpha 90.000000
_cell_angle_beta 29.352949
_cell_angle_gamma 90.000000
_cell_volume 2328.086105
_symmetry_space_group_name_H-M "C 2/C"
_symmetry_group_IT_number 15
_symmetry_cell_setting 'monoclinic'
loop_
_space_group_symop_operation_xyz
x,y,z
-x,y,1/2-z
-x,-y,-z
x,-y,1/2+z
1/2+x,1/2+y,z
1/2-x,1/2+y,1/2-z
1/2-x,1/2-y,-z
1/2+x,1/2-y,1/2+z
loop_
_atom_site_type_symbol
_atom_site_label
_atom_site_fract_x
_atom_site_fract_y
_atom_site_fract_z
Si Si1 0.437414 0.189477 0.437826
Si Si2 0.611789 0.605348 0.891021
Si Si3 0.974020 0.938382 0.666084
Si Si4 0.250009 0.039838 0.467666
Si Si5 0.440270 0.917433 0.017809
Si Si6 0.384886 0.700730 0.007887
O O1 0.441122 0.140290 0.492454
O O2 0.441704 0.242172 0.482838
O O3 0.666545 0.187406 0.219499
O O4 0.210448 0.192434 0.528044
O O5 0.826808 0.579910 0.693322
O O6 0.591231 0.594624 0.009592
O O7 0.385993 0.581232 0.996103
O O8 0.591769 0.663198 0.886389
O O9 0.697337 0.939816 0.837970
O O10 0.000000 0.920328 0.750000
O O11 0.095722 0.991046 0.573083
O O12 0.500000 0.031925 0.250000
O O13 0.290460 0.057193 0.541843
#
# Coordination Sequence:
#
# PCOD9263866 Si02
#       6
#     8   8   8   8   8   8
#     4  10  19  35  61 101 138 166 204 269 335 406
#     4  12  24  43  67  99 134 177 217 272 338 400
#     4  12  29  46  65  94 130 182 232 276 319 399
#     4  12  25  44  69  98 135 171 220 278 343 397
#     4  12  25  44  69  96 138 173 218 279 339 390
#     4  10  19  34  62 101 137 166 208 261 339 404
#
# _framework density 20.617792999999999
#
# number of rings (size 3 to 8) (size 9 to 14) (size 15 to 20)
#    0.000    0.667    5.000    3.000    2.333    2.667 
#    0.000    0.000    0.000    1.000    0.000    0.000 
#    0.000    0.000    0.000    0.000    0.000    0.000 
#
# Total GULP energy -134322.256739 kJ/mol
# GULP energy per Si atom -5596.760697 kJ/mol
# Density = 2.057087 g / cm^3
# Si number density = 20.617793 Si / 1000 Ang^3
#
#
#
# Elastic Constant Matrix: (Units=GPa)
#
#
# Indices 1 2 3 4 5 6 
#
# 1 58.1307 33.6390 10.2121 0.0003 19.3766 -0.0003
# 2 33.6390 116.1117 40.6567 -0.0001 -1.5271 0.0001
# 3 10.2121 40.6567 104.7873 0.0005 11.8342 -0.0006
# 4 0.0003 -0.0001 0.0005 26.1180 -0.0003 4.8407
# 5 19.3766 -1.5271 11.8342 -0.0003 29.1136 0.0004
# 6 -0.0003 0.0001 -0.0006 4.8407 0.0004 11.5957
#
#
#
# Elastic Compliance Matrix: (Units=1/GPa)
#
#
# Indices 1 2 3 4 5 6 
#
# 1 0.029662 -0.010095 0.003475 -0.000001 -0.021684 0.000002
# 2 -0.010095 0.013538 -0.005354 0.000001 0.009605 -0.000001
# 3 0.003475 -0.005354 0.012131 -0.000001 -0.007525 0.000001
# 4 -0.000001 0.000001 -0.000001 0.041499 0.000002 -0.017324
# 5 -0.021684 0.009605 -0.007525 0.000002 0.052342 -0.000003
# 6 0.000002 -0.000001 0.000001 -0.017324 -0.000003 0.093470
#
#
# Mechanical properties :
#
#
# Convention : Reuss Voigt Hill
#
# Bulk Modulus (GPa) = 31.86381 49.78281 40.82331
# Shear Modulus (GPa) = 18.04716 26.33359 22.19038
#
# Velocity S-wave (km/s) = 2.96179 3.57771 3.28422
# Velocity P-wave (km/s) = 5.21386 6.42376 5.85017
#
# Compressibility (1/GPa) = 0.03138356
#
# Stress axis : x y z
#
# Youngs Moduli (GPa) = 33.71335 73.86580 82.43020
#
# Poissons Ratio (x) = 0.74571 -0.28645
# Poissons Ratio (y) = 0.34035 0.44130
# Poissons Ratio (z) = -0.11716 0.39545
#
# Static dielectric constant tensor:
#      x y z
#    x 1.731670 0.000000 0.015480 
#    y 0.000000 1.736710 0.000000 
#    z 0.015480 0.000000 1.777960 
# 
# From -- ./inp_files/148666.got.cif
#   From: 2010.05.17/outbox.cif.g08.bks.cpg/sg15_75_cif.got.tgz:148666.got - 2010.06.03 18:47:42.
