data_PCOD9263591
_publ_section_title
;
Structure prediction by ZEFSAII (Michael W. Deem and Ramdas Pophale) SiO2 
 PCOD9263591
Probable space group: C 2/C
;
_chemical_formula_sum "Si O2"
_cell_formula_units_Z 48
_cell_length_a 17.351201
_cell_length_b 8.751151
_cell_length_c 15.665321
_cell_angle_alpha 90.000000
_cell_angle_beta 87.192975
_cell_angle_gamma 90.000000
_cell_volume 2375.814954
_symmetry_space_group_name_H-M "C 2/C"
_symmetry_group_IT_number 15
_symmetry_cell_setting 'monoclinic'
loop_
_space_group_symop_operation_xyz
x,y,z
-x,y,1/2-z
-x,-y,-z
x,-y,1/2+z
1/2+x,1/2+y,z
1/2-x,1/2+y,1/2-z
1/2-x,1/2-y,-z
1/2+x,1/2-y,1/2+z
loop_
_atom_site_type_symbol
_atom_site_label
_atom_site_fract_x
_atom_site_fract_y
_atom_site_fract_z
Si Si1 0.105295 0.421849 0.138023
Si Si2 0.674906 0.197353 0.056939
Si Si3 0.149510 0.441855 0.801343
Si Si4 0.196365 0.869932 0.230657
Si Si5 0.087278 0.852536 0.759433
Si Si6 0.940096 0.631184 0.578201
O O1 0.173234 0.519507 0.089412
O O2 0.092045 0.525279 0.224413
O O3 0.114223 0.253655 0.178279
O O4 0.030289 0.407342 0.081785
O O5 0.671667 0.306032 0.139281
O O6 0.750000 0.250000 0.000000
O O7 0.597930 0.202467 0.003507
O O8 0.185866 0.275342 0.792122
O O9 0.218319 0.563084 0.783447
O O10 0.106962 0.480056 0.891059
O O11 0.144054 0.007654 0.265296
O O12 0.080512 0.747820 0.843622
O O13 0.000000 0.907524 0.750000
#
# Coordination Sequence:
#
# PCOD9263591 Si02
#       6
#     8   8   8   8   8   8
#     4   9  20  36  61  81 115 159 192 236 292 356
#     4  11  22  37  56  88 124 153 196 245 297 355
#     4  10  19  34  58  84 112 149 203 239 295 351
#     4  11  22  36  59  85 116 154 195 251 297 354
#     4   9  20  39  61  85 114 153 200 245 294 351
#     4  10  19  39  60  85 117 153 196 243 298 355
#
# _framework density 20.203593000000001
#
# number of rings (size 3 to 8) (size 9 to 14) (size 15 to 20)
#    0.000    2.000    1.667    4.000    2.333    2.667 
#    0.000    5.833    0.000    0.000    0.000    0.000 
#    0.000    0.000    0.000    0.000    0.000    0.000 
#
# Total GULP energy -133772.547017 kJ/mol
# GULP energy per Si atom -5573.856126 kJ/mol
# Density = 2.015761 g / cm^3
# Si number density = 20.203593 Si / 1000 Ang^3
#
#
#
# Elastic Constant Matrix: (Units=GPa)
#
#
# Indices 1 2 3 4 5 6 
#
# 1 97.9772 41.5694 19.8712 0.0000 5.1475 0.0000
# 2 41.5694 77.6281 7.2164 0.0000 -13.5727 0.0000
# 3 19.8712 7.2164 58.0325 0.0000 1.8808 0.0000
# 4 0.0000 0.0000 0.0000 13.8655 0.0000 -5.7357
# 5 5.1475 -13.5727 1.8808 0.0000 29.9551 0.0000
# 6 0.0000 0.0000 0.0000 -5.7357 0.0000 38.7427
#
#
#
# Elastic Compliance Matrix: (Units=1/GPa)
#
#
# Indices 1 2 3 4 5 6 
#
# 1 0.015062 -0.008816 -0.003856 0.000000 -0.006341 0.000000
# 2 -0.008816 0.019374 0.000276 0.000000 0.010276 0.000000
# 3 -0.003856 0.000276 0.018530 0.000000 -0.000376 0.000000
# 4 0.000000 0.000000 0.000000 0.076827 0.000000 0.011374
# 5 -0.006341 0.010276 -0.000376 0.000000 0.039152 0.000000
# 6 0.000000 0.000000 0.000000 0.011374 0.000000 0.027495
#
#
# Mechanical properties :
#
#
# Convention : Reuss Voigt Hill
#
# Bulk Modulus (GPa) = 35.49191 41.21685 38.35438
# Shear Modulus (GPa) = 21.68060 27.51138 24.59599
#
# Velocity S-wave (km/s) = 3.27938 3.69414 3.49292
# Velocity P-wave (km/s) = 5.65194 6.21615 5.94075
#
# Compressibility (1/GPa) = 0.02817544
#
# Stress axis : x y z
#
# Youngs Moduli (GPa) = 66.39290 51.61662 53.96720
#
# Poissons Ratio (x) = 0.45504 0.20808
# Poissons Ratio (y) = 0.58530 -0.01492
# Poissons Ratio (z) = 0.25599 -0.01427
#
# Static dielectric constant tensor:
#      x y z
#    x 1.756440 0.000000 0.026690 
#    y 0.000000 1.712980 0.000000 
#    z 0.026690 0.000000 1.766440 
# 
# From -- ./inp_files/208576.got.cif
#   From: 2010.05.17/outbox.cif.g08.bks.cpg/sg15_105_cif.got.tgz:208576.got - 2010.06.03 18:47:42.
