data_PCOD9263542
_publ_section_title
;
Structure prediction by ZEFSAII (Michael W. Deem and Ramdas Pophale) SiO2 
 PCOD9263542
Probable space group: C 2/C
;
_chemical_formula_sum "Si O2"
_cell_formula_units_Z 48
_cell_length_a 15.607357
_cell_length_b 31.870778
_cell_length_c 5.189038
_cell_angle_alpha 90.000000
_cell_angle_beta 61.190382
_cell_angle_gamma 90.000000
_cell_volume 2261.647497
_symmetry_space_group_name_H-M "C 2/C"
_symmetry_group_IT_number 15
_symmetry_cell_setting 'monoclinic'
loop_
_space_group_symop_operation_xyz
x,y,z
-x,y,1/2-z
-x,-y,-z
x,-y,1/2+z
1/2+x,1/2+y,z
1/2-x,1/2+y,1/2-z
1/2-x,1/2-y,-z
1/2+x,1/2-y,1/2+z
loop_
_atom_site_type_symbol
_atom_site_label
_atom_site_fract_x
_atom_site_fract_y
_atom_site_fract_z
Si Si1 0.666255 0.758590 0.831519
Si Si2 0.500000 0.470489 0.750000
Si Si3 0.500000 0.029534 0.250000
Si Si4 0.695540 0.416016 0.484814
Si Si5 0.681489 0.081041 0.210334
Si Si6 0.275348 0.678531 0.564279
Si Si7 0.399787 0.835863 0.775227
O O1 0.750000 0.750000 0.500000
O O2 0.642726 0.711813 0.958065
O O3 0.581502 0.789038 0.856903
O O4 0.719874 0.791184 0.944979
O O5 0.500000 0.500000 0.500000
O O6 0.595684 0.441448 0.628848
O O7 0.594304 0.057385 0.186881
O O8 0.500000 0.000000 0.500000
O O9 0.769777 0.435044 0.594628
O O10 0.683591 0.366565 0.575146
O O11 0.737521 0.416703 0.132677
O O12 0.637069 0.126665 0.352741
O O13 0.189935 0.668854 0.895596
O O14 0.500000 0.850871 0.750000
#
# Coordination Sequence:
#
# PCOD9263542 Si02
#       7
#     8   4   4   8   8   8   8
#     4   9  17  34  56  84 125 165 216 261 311 374
#     4  12  28  50  74 104 126 164 234 298 342 414
#     4  12  26  42  62  98 136 168 212 262 322 402
#     4  11  24  44  71  96 131 174 218 277 347 390
#     4  11  23  42  66  97 132 177 213 263 330 406
#     4   9  19  35  59  89 123 173 212 264 328 385
#     4  10  19  34  57  89 128 173 220 261 307 389
#
# _framework density 21.223466999999999
#
# number of rings (size 3 to 8) (size 9 to 14) (size 15 to 20)
#    0.000    1.667    2.500    2.000    0.000    4.667 
#    0.000    5.000    0.000    0.000    0.000    0.000 
#    0.000    0.000    0.000    0.000    0.000    0.000 
#
# Total GULP energy -133605.959674 kJ/mol
# GULP energy per Si atom -5566.914986 kJ/mol
# Density = 2.117516 g / cm^3
# Si number density = 21.223467 Si / 1000 Ang^3
#
#
#
# Elastic Constant Matrix: (Units=GPa)
#
#
# Indices 1 2 3 4 5 6 
#
# 1 114.9256 57.5804 14.1409 0.0000 0.4444 0.0000
# 2 57.5804 133.0200 28.4437 0.0000 -12.8158 0.0000
# 3 14.1409 28.4437 31.1516 0.0000 10.6877 0.0000
# 4 0.0000 0.0000 0.0000 25.1001 0.0000 2.7688
# 5 0.4444 -12.8158 10.6877 0.0000 31.1339 0.0000
# 6 0.0000 0.0000 0.0000 2.7688 0.0000 40.5679
#
#
#
# Elastic Compliance Matrix: (Units=1/GPa)
#
#
# Indices 1 2 3 4 5 6 
#
# 1 0.011266 -0.005226 0.000510 0.000000 -0.002487 0.000000
# 2 -0.005226 0.013724 -0.013741 0.000000 0.010441 0.000000
# 3 0.000510 -0.013741 0.052548 0.000000 -0.023702 0.000000
# 4 0.000000 0.000000 0.000000 0.040143 0.000000 -0.002740
# 5 -0.002487 0.010441 -0.023702 0.000000 0.044589 0.000000
# 6 0.000000 0.000000 0.000000 -0.002740 0.000000 0.024837
#
#
# Mechanical properties :
#
#
# Convention : Reuss Voigt Hill
#
# Bulk Modulus (GPa) = 24.61493 53.26968 38.94231
# Shear Modulus (GPa) = 21.04730 31.28919 26.16824
#
# Velocity S-wave (km/s) = 3.15254 3.84379 3.51520
# Velocity P-wave (km/s) = 4.98744 6.69728 5.90458
#
# Compressibility (1/GPa) = 0.04062575
#
# Stress axis : x y z
#
# Youngs Moduli (GPa) = 88.76088 72.86633 19.03038
#
# Poissons Ratio (x) = 0.38077 -0.00971
# Poissons Ratio (y) = 0.46383 0.26149
# Poissons Ratio (z) = -0.04531 1.00124
#
# Static dielectric constant tensor:
#      x y z
#    x 2.045980 0.000000 -0.003190 
#    y 0.000000 2.170820 0.000000 
#    z -0.003190 0.000000 1.824700 
# 
# From -- ./inp_files/8975.got.cif
#   From: 2010.05.17/outbox.cif.g08.bks.cpg/sg15_5_cif.got.tgz:8975.got - 2010.06.03 18:47:42.
