data_PCOD9263811
_publ_section_title
;
Structure prediction by ZEFSAII (Michael W. Deem and Ramdas Pophale) SiO2 
 PCOD9263811
Probable space group: C 2/C
;
_chemical_formula_sum "Si O2"
_cell_formula_units_Z 60
_cell_length_a 11.108664
_cell_length_b 9.692263
_cell_length_c 29.449723
_cell_angle_alpha 90.000000
_cell_angle_beta 41.946595
_cell_angle_gamma 90.000000
_cell_volume 2119.479058
_symmetry_space_group_name_H-M "C 2/C"
_symmetry_group_IT_number 15
_symmetry_cell_setting 'monoclinic'
loop_
_space_group_symop_operation_xyz
x,y,z
-x,y,1/2-z
-x,-y,-z
x,-y,1/2+z
1/2+x,1/2+y,z
1/2-x,1/2+y,1/2-z
1/2-x,1/2-y,-z
1/2+x,1/2-y,1/2+z
loop_
_atom_site_type_symbol
_atom_site_label
_atom_site_fract_x
_atom_site_fract_y
_atom_site_fract_z
Si Si1 0.340623 0.462957 0.498230
Si Si2 0.416124 0.839881 0.004950
Si Si3 0.298710 0.314813 0.177489
Si Si4 0.000000 0.621679 0.250000
Si Si5 0.894594 0.128384 0.127380
Si Si6 0.496261 0.944491 0.648500
Si Si7 0.216839 0.525263 0.876852
Si Si8 0.541855 0.300443 0.674669
O O1 0.424941 0.315233 0.485436
O O2 0.226236 0.428925 0.484867
O O3 0.515146 0.418701 0.551028
O O4 0.192320 0.492254 0.577993
O O5 0.348022 0.844337 0.075950
O O6 0.601901 0.913771 0.939747
O O7 0.352568 0.473530 0.159929
O O8 0.468223 0.216195 0.141356
O O9 0.191018 0.282164 0.161154
O O10 0.150732 0.255676 0.254379
O O11 0.807151 0.693256 0.313238
O O12 0.976188 0.545575 0.208030
O O13 0.027148 0.204932 0.124902
O O14 0.354765 0.016664 0.654288
O O15 0.414812 0.460564 0.824202
#
# Coordination Sequence:
#
# PCOD9263811 Si02
#       8
#     8   8   8   4   8   8   8   8
#     4  10  19  34  60  94 125 166 217 267 341 410
#     4   9  16  30  57  96 128 155 206 276 333 393
#     4  10  21  40  64  97 128 166 228 284 326 411
#     4  12  26  44  58  84 126 182 218 262 352 416
#     4  12  23  40  68  93 127 184 224 270 348 411
#     4  10  22  40  60  88 130 163 217 284 335 398
#     4   9  17  31  59  93 126 161 210 279 330 387
#     4  10  19  36  63  94 129 170 221 277 337 406
#
# _framework density 28.308841000000001
#
# number of rings (size 3 to 8) (size 9 to 14) (size 15 to 20)
#    0.000    1.867    2.667    4.000    0.000    0.533 
#    0.000    2.667    0.000    0.800    0.000    0.000 
#    0.000    0.000    0.000    0.000    0.000    0.000 
#
# Total GULP energy -167858.624180 kJ/mol
# GULP energy per Si atom -5595.287473 kJ/mol
# Density = 2.824441 g / cm^3
# Si number density = 28.308841 Si / 1000 Ang^3
#
#
#
# Elastic Constant Matrix: (Units=GPa)
#
#
# Indices 1 2 3 4 5 6 
#
# 1 122.6893 -2.1481 49.5435 0.0000 17.9961 0.0000
# 2 -2.1481 69.1241 12.6619 0.0000 -7.7849 0.0000
# 3 49.5435 12.6619 191.6960 0.0000 4.0698 0.0000
# 4 0.0000 0.0000 0.0000 41.1165 0.0000 -9.6607
# 5 17.9961 -7.7849 4.0698 0.0000 55.8077 0.0000
# 6 0.0000 0.0000 0.0000 -9.6607 0.0000 42.2706
#
#
#
# Elastic Compliance Matrix: (Units=1/GPa)
#
#
# Indices 1 2 3 4 5 6 
#
# 1 0.009560 0.000423 -0.002438 0.000000 -0.002846 0.000000
# 2 0.000423 0.014917 -0.001138 0.000000 0.002027 0.000000
# 3 -0.002438 -0.001138 0.005918 0.000000 0.000196 0.000000
# 4 0.000000 0.000000 0.000000 0.025701 0.000000 0.005874
# 5 -0.002846 0.002027 0.000196 0.000000 0.019105 0.000000
# 6 0.000000 0.000000 0.000000 0.005874 0.000000 0.025000
#
#
# Mechanical properties :
#
#
# Convention : Reuss Voigt Hill
#
# Bulk Modulus (GPa) = 41.51292 55.95824 48.73558
# Shear Modulus (GPa) = 43.65461 49.40244 46.52852
#
# Velocity S-wave (km/s) = 3.93120 4.18200 4.05854
# Velocity P-wave (km/s) = 5.94154 6.56725 6.26222
#
# Compressibility (1/GPa) = 0.02408889
#
# Stress axis : x y z
#
# Youngs Moduli (GPa) = 104.60072 67.03945 168.98277
#
# Poissons Ratio (x) = -0.02837 0.41204
# Poissons Ratio (y) = -0.04427 0.19225
# Poissons Ratio (z) = 0.25505 0.07627
#
# Static dielectric constant tensor:
#      x y z
#    x 2.147380 0.000000 -0.031440 
#    y 0.000000 2.315460 0.000000 
#    z -0.031440 0.000000 2.279720 
# 
# From -- ./inp_files/292244.got.cif
#   From: 2010.05.17/outbox.cif.g08.bks.cpg/sg15_147_cif.got.tgz:292244.got - 2010.06.03 18:47:42.
