data_PCOD9263151
_publ_section_title
;
Structure prediction by ZEFSAII (Michael W. Deem and Ramdas Pophale) SiO2 
 PCOD9263151
Probable space group: C 2/C
;
_chemical_formula_sum "Si O2"
_cell_formula_units_Z 56
_cell_length_a 15.598915
_cell_length_b 25.361030
_cell_length_c 8.342302
_cell_angle_alpha 90.000000
_cell_angle_beta 57.699981
_cell_angle_gamma 90.000000
_cell_volume 2789.577011
_symmetry_space_group_name_H-M "C 2/C"
_symmetry_group_IT_number 15
_symmetry_cell_setting 'monoclinic'
loop_
_space_group_symop_operation_xyz
x,y,z
-x,y,1/2-z
-x,-y,-z
x,-y,1/2+z
1/2+x,1/2+y,z
1/2-x,1/2+y,1/2-z
1/2-x,1/2-y,-z
1/2+x,1/2-y,1/2+z
loop_
_atom_site_type_symbol
_atom_site_label
_atom_site_fract_x
_atom_site_fract_y
_atom_site_fract_z
Si Si1 0.223642 0.678945 0.175168
Si Si2 0.094446 0.254423 0.551101
Si Si3 0.769646 0.953411 0.076620
Si Si4 0.971436 0.333694 0.461542
Si Si5 0.807292 0.070439 0.159696
Si Si6 0.460997 0.944846 0.107999
Si Si7 0.519410 0.559433 0.040805
O O1 0.160949 0.705777 0.094278
O O2 0.145380 0.681976 0.400520
O O3 0.247225 0.617377 0.137150
O O4 0.327801 0.710819 0.089015
O O5 0.000000 0.232455 0.750000
O O6 0.041656 0.289943 0.470796
O O7 0.660569 0.941284 0.259754
O O8 0.790549 0.015931 0.081377
O O9 0.775256 0.939135 0.880291
O O10 0.862043 0.926607 0.084858
O O11 0.000000 0.337551 0.250000
O O12 0.993165 0.391672 0.515147
O O13 0.926010 0.087884 0.048337
O O14 0.500000 0.945957 0.250000
O O15 0.500000 0.000000 0.000000
O O16 0.500000 0.560630 0.250000
O O17 0.500000 0.500000 0.000000
#
# Coordination Sequence:
#
# PCOD9263151 Si02
#       7
#     8   8   8   8   8   8   8
#     4  10  20  39  62  82 112 151 192 240 285 339
#     4   9  21  41  62  83 108 145 195 242 291 344
#     4  10  19  34  52  78 118 153 185 226 274 335
#     4  10  21  38  59  87 119 150 187 239 297 345
#     4  10  19  34  56  82 112 150 188 227 281 340
#     4  11  22  34  52  82 116 151 190 225 273 346
#     4   8  16  30  48  70 103 144 182 219 263 318
#
# _framework density 20.074726999999999
#
# number of rings (size 3 to 8) (size 9 to 14) (size 15 to 20)
#    0.000    2.286    0.000    3.429    0.000    4.571 
#    0.000   13.571    0.000    0.000    0.000    0.000 
#    0.000    0.000    0.000    0.000    0.000    0.000 
#
# Total GULP energy -156062.389975 kJ/mol
# GULP energy per Si atom -5573.656785 kJ/mol
# Density = 2.002904 g / cm^3
# Si number density = 20.074727 Si / 1000 Ang^3
#
#
#
# Elastic Constant Matrix: (Units=GPa)
#
#
# Indices 1 2 3 4 5 6 
#
# 1 86.0092 25.1497 42.7021 0.0000 -45.2985 0.0000
# 2 25.1497 79.0652 45.2971 0.0000 -15.6912 0.0000
# 3 42.7021 45.2971 75.3037 0.0000 -32.4227 0.0000
# 4 0.0000 0.0000 0.0000 17.2343 0.0000 -6.9899
# 5 -45.2985 -15.6912 -32.4227 0.0000 35.2464 0.0000
# 6 0.0000 0.0000 0.0000 -6.9899 0.0000 22.1271
#
#
#
# Elastic Compliance Matrix: (Units=1/GPa)
#
#
# Indices 1 2 3 4 5 6 
#
# 1 0.036483 -0.003056 0.001245 0.000000 0.046674 0.000000
# 2 -0.003056 0.019812 -0.013376 0.000000 -0.007411 0.000000
# 3 0.001245 -0.013376 0.031037 0.000000 0.024197 0.000000
# 4 0.000000 0.000000 0.000000 0.066550 0.000000 0.021023
# 5 0.046674 -0.007411 0.024197 0.000000 0.107315 0.000000
# 6 0.000000 0.000000 0.000000 0.021023 0.000000 0.051835
#
#
# Mechanical properties :
#
#
# Convention : Reuss Voigt Hill
#
# Bulk Modulus (GPa) = 17.55596 51.85290 34.70443
# Shear Modulus (GPa) = 13.79724 23.40352 18.60038
#
# Velocity S-wave (km/s) = 2.62447 3.41811 3.04724
# Velocity P-wave (km/s) = 4.23652 6.43926 5.45033
#
# Compressibility (1/GPa) = 0.05696071
#
# Stress axis : x y z
#
# Youngs Moduli (GPa) = 27.40966 50.47468 32.21940
#
# Poissons Ratio (x) = 0.15423 -0.04012
# Poissons Ratio (y) = 0.08375 0.43095
# Poissons Ratio (z) = -0.03413 0.67513
#
# Static dielectric constant tensor:
#      x y z
#    x 1.733110 0.000000 -0.041400 
#    y 0.000000 1.714720 0.000000 
#    z -0.041400 0.000000 1.747680 
# 
# From -- ./inp_files/42551.got.cif
#   From: 2010.05.17/outbox.cif.g08.bks.cpg/sg15_22_cif.got.tgz:42551.got - 2010.06.03 18:47:42.
