data_PCOD9263269
_publ_section_title
;
Structure prediction by ZEFSAII (Michael W. Deem and Ramdas Pophale) SiO2 
 PCOD9263269
Probable space group: C 2/C
;
_chemical_formula_sum "Si O2"
_cell_formula_units_Z 64
_cell_length_a 18.133054
_cell_length_b 15.994599
_cell_length_c 28.478115
_cell_angle_alpha 90.000000
_cell_angle_beta 161.547318
_cell_angle_gamma 90.000000
_cell_volume 2614.319055
_symmetry_space_group_name_H-M "C 2/C"
_symmetry_group_IT_number 15
_symmetry_cell_setting 'monoclinic'
loop_
_space_group_symop_operation_xyz
x,y,z
-x,y,1/2-z
-x,-y,-z
x,-y,1/2+z
1/2+x,1/2+y,z
1/2-x,1/2+y,1/2-z
1/2-x,1/2-y,-z
1/2+x,1/2-y,1/2+z
loop_
_atom_site_type_symbol
_atom_site_label
_atom_site_fract_x
_atom_site_fract_y
_atom_site_fract_z
Si Si1 0.572554 0.801275 0.546059
Si Si2 0.517381 0.408963 0.572128
Si Si3 0.716738 0.987902 0.003328
Si Si4 0.129721 0.510920 0.286616
Si Si5 0.781855 0.841299 0.574593
Si Si6 0.700843 0.029386 0.176312
Si Si7 0.602608 0.378912 0.259345
Si Si8 0.599265 0.748959 0.190232
O O1 0.737341 0.806792 0.599641
O O2 0.655623 0.883704 0.623874
O O3 0.294423 0.805335 0.369497
O O4 0.655071 0.735493 0.635555
O O5 0.276675 0.436227 0.401121
O O6 0.703151 0.431092 0.643766
O O7 0.583585 0.467822 0.656585
O O8 0.561731 0.318466 0.624451
O O9 0.576686 0.015817 0.872933
O O10 0.863130 0.064400 0.114726
O O11 0.522496 0.976946 0.925670
O O12 0.866464 0.902811 0.088259
O O13 0.000000 0.558830 0.250000
O O14 0.514267 0.834693 0.395000
O O15 0.934960 0.784453 0.633168
O O16 0.736816 0.956158 0.161098
O O17 0.500000 0.379147 0.250000
#
# Coordination Sequence:
#
# PCOD9263269 Si02
#       8
#     8   8   8   8   8   8   8   8
#     4  11  21  38  59  89 126 162 205 260 319 373
#     4   9  20  36  55  83 122 158 206 257 312 374
#     4  11  21  34  57  92 123 154 201 257 324 383
#     4  10  19  34  57  84 119 160 200 262 316 373
#     4  11  22  38  61  87 124 163 207 253 312 377
#     4  10  19  34  54  92 121 152 199 259 330 368
#     4  12  21  32  57  91 127 158 195 257 329 378
#     4  10  23  40  59  88 123 171 214 256 301 381
#
# _framework density 24.480561999999999
#
# number of rings (size 3 to 8) (size 9 to 14) (size 15 to 20)
#    0.000    1.500    2.500    4.500    0.000    1.000 
#    0.000    1.250    0.000    1.500    0.000    0.000 
#    0.000    0.000    0.000    0.000    0.000    0.000 
#
# Total GULP energy -178220.770257 kJ/mol
# GULP energy per Si atom -5569.399071 kJ/mol
# Density = 2.442484 g / cm^3
# Si number density = 24.480562 Si / 1000 Ang^3
#
#
#
# Elastic Constant Matrix: (Units=GPa)
#
#
# Indices 1 2 3 4 5 6 
#
# 1 158.2923 23.7468 26.5645 -0.0092 -0.4441 0.0028
# 2 23.7468 28.2759 24.8750 0.0122 -10.8372 0.0076
# 3 26.5645 24.8750 148.1580 -0.0127 -8.4431 0.0211
# 4 -0.0092 0.0122 -0.0127 30.0364 0.0297 0.1275
# 5 -0.4441 -10.8372 -8.4431 0.0297 40.6406 -0.0138
# 6 0.0028 0.0076 0.0211 0.1275 -0.0138 6.4570
#
#
#
# Elastic Compliance Matrix: (Units=1/GPa)
#
#
# Indices 1 2 3 4 5 6 
#
# 1 0.007350 -0.006560 -0.000315 0.000006 -0.001734 0.000002
# 2 -0.006560 0.051538 -0.006778 -0.000038 0.012263 -0.000009
# 3 -0.000315 -0.006778 0.007935 0.000006 -0.000162 -0.000018
# 4 0.000006 -0.000038 0.000006 0.033296 -0.000033 -0.000657
# 5 -0.001734 0.012263 -0.000162 -0.000033 0.027823 0.000047
# 6 0.000002 -0.000009 -0.000018 -0.000657 0.000047 0.154884
#
#
# Mechanical properties :
#
#
# Convention : Reuss Voigt Hill
#
# Bulk Modulus (GPa) = 25.30606 53.89985 39.60295
# Shear Modulus (GPa) = 15.46535 32.72944 24.09740
#
# Velocity S-wave (km/s) = 2.51617 3.66041 3.14084
# Velocity P-wave (km/s) = 4.33603 6.31902 5.41900
#
# Compressibility (1/GPa) = 0.03951623
#
# Stress axis : x y z
#
# Youngs Moduli (GPa) = 136.06270 19.40326 126.02708
#
# Poissons Ratio (x) = 0.12728 0.03973
# Poissons Ratio (y) = 0.89254 0.85420
# Poissons Ratio (z) = 0.04289 0.13151
#
# Static dielectric constant tensor:
#      x y z
#    x 2.116050 -0.000050 0.015530 
#    y -0.000050 1.993890 -0.000020 
#    z 0.015530 -0.000020 2.245610 
# 
# From -- ./inp_files/299517.got.cif
#   From: 2010.05.17/outbox.cif.g08.bks.cpg/sg15_150_cif.got.tgz:299517.got - 2010.06.03 18:47:42.
