data_PCOD9263272
_publ_section_title
;
Structure prediction by ZEFSAII (Michael W. Deem and Ramdas Pophale) SiO2 
 PCOD9263272
Probable space group: C 2/C
;
_chemical_formula_sum "Si O2"
_cell_formula_units_Z 44
_cell_length_a 19.302628
_cell_length_b 14.484574
_cell_length_c 7.378120
_cell_angle_alpha 90.000000
_cell_angle_beta 102.560116
_cell_angle_gamma 90.000000
_cell_volume 2013.483730
_symmetry_space_group_name_H-M "C 2/C"
_symmetry_group_IT_number 15
_symmetry_cell_setting 'monoclinic'
loop_
_space_group_symop_operation_xyz
x,y,z
-x,y,1/2-z
-x,-y,-z
x,-y,1/2+z
1/2+x,1/2+y,z
1/2-x,1/2+y,1/2-z
1/2-x,1/2-y,-z
1/2+x,1/2-y,1/2+z
loop_
_atom_site_type_symbol
_atom_site_label
_atom_site_fract_x
_atom_site_fract_y
_atom_site_fract_z
Si Si1 0.157855 0.914661 0.245669
Si Si2 0.794703 0.883198 0.832397
Si Si3 0.000000 0.886353 0.250000
Si Si4 0.487688 0.893133 0.959111
Si Si5 0.585826 0.745612 0.037022
Si Si6 0.149937 0.286549 0.676063
O O1 0.202845 0.884362 0.447176
O O2 0.074567 0.935121 0.247863
O O3 0.156720 0.821585 0.123941
O O4 0.190417 0.010294 0.201660
O O5 0.723390 0.841064 0.712871
O O6 0.859991 0.815639 0.819523
O O7 0.022373 0.820905 0.430067
O O8 0.500000 0.879647 0.750000
O O9 0.548519 0.834798 0.094792
O O10 0.411254 0.847501 0.951353
O O11 0.500000 0.000000 0.000000
O O12 0.626199 0.776762 0.875086
#
# Coordination Sequence:
#
# PCOD9263272 Si02
#       6
#     8   8   4   8   8   8
#     4  10  19  35  54  82 102 141 175 219 263 310
#     4  10  21  32  56  80 106 138 177 213 270 313
#     4   8  14  32  56  70 100 136 178 210 248 318
#     4  10  19  34  55  76 100 138 179 218 257 306
#     4   9  15  33  53  74  99 140 178 210 252 316
#     4   9  18  35  53  76 107 142 174 211 259 325
#
# _framework density 21.852671000000001
#
# number of rings (size 3 to 8) (size 9 to 14) (size 15 to 20)
#    0.000    2.909    4.545    2.182    0.000    7.273 
#    0.000    2.727    0.000    0.000    0.000    0.000 
#    0.000    0.000    0.000    0.000    0.000    0.000 
#
# Total GULP energy -122581.583748 kJ/mol
# GULP energy per Si atom -5571.890170 kJ/mol
# Density = 2.180293 g / cm^3
# Si number density = 21.852671 Si / 1000 Ang^3
#
#
#
# Elastic Constant Matrix: (Units=GPa)
#
#
# Indices 1 2 3 4 5 6 
#
# 1 91.9419 83.5406 18.9498 0.0000 36.4406 0.0000
# 2 83.5406 208.1997 21.4667 0.0000 26.5858 0.0000
# 3 18.9498 21.4667 46.2084 0.0000 9.4209 0.0000
# 4 0.0000 0.0000 0.0000 20.7489 0.0000 1.0125
# 5 36.4406 26.5858 9.4209 0.0000 20.0131 0.0000
# 6 0.0000 0.0000 0.0000 1.0125 0.0000 35.1198
#
#
#
# Elastic Compliance Matrix: (Units=1/GPa)
#
#
# Indices 1 2 3 4 5 6 
#
# 1 0.054200 -0.011016 0.000031 0.000000 -0.084070 0.000000
# 2 -0.011016 0.008088 -0.001260 0.000000 0.009907 0.000000
# 3 0.000031 -0.001260 0.024207 0.000000 -0.009777 0.000000
# 4 0.000000 0.000000 0.000000 0.048263 0.000000 -0.001391
# 5 -0.084070 0.009907 -0.009777 0.000000 0.194488 0.000000
# 6 0.000000 0.000000 0.000000 -0.001391 0.000000 0.028514
#
#
# Mechanical properties :
#
#
# Convention : Reuss Voigt Hill
#
# Bulk Modulus (GPa) = 16.12761 66.02936 41.07848
# Shear Modulus (GPa) = 12.40945 30.00256 21.20600
#
# Velocity S-wave (km/s) = 2.38558 3.70935 3.11852
# Velocity P-wave (km/s) = 3.87094 6.97331 5.63964
#
# Compressibility (1/GPa) = 0.06200548
#
# Stress axis : x y z
#
# Youngs Moduli (GPa) = 18.45013 123.63892 41.31012
#
# Poissons Ratio (x) = 1.36198 -0.00126
# Poissons Ratio (y) = 0.20324 0.05204
# Poissons Ratio (z) = -0.00056 0.15574
#
# Static dielectric constant tensor:
#      x y z
#    x 1.815050 0.000000 -0.032430 
#    y 0.000000 1.837680 0.000000 
#    z -0.032430 0.000000 1.853970 
# 
# From -- ./inp_files/47164.got.cif
#   From: 2010.05.17/outbox.cif.g08.bks.cpg/sg15_24_cif.got.tgz:47164.got - 2010.06.03 18:47:42.
