data_PCOD9263416
_publ_section_title
;
Structure prediction by ZEFSAII (Michael W. Deem and Ramdas Pophale) SiO2 
 PCOD9263416
Probable space group: C 2/C
;
_chemical_formula_sum "Si O2"
_cell_formula_units_Z 56
_cell_length_a 6.987602
_cell_length_b 27.648005
_cell_length_c 17.925131
_cell_angle_alpha 90.000000
_cell_angle_beta 134.601781
_cell_angle_gamma 90.000000
_cell_volume 2465.680869
_symmetry_space_group_name_H-M "C 2/C"
_symmetry_group_IT_number 15
_symmetry_cell_setting 'monoclinic'
loop_
_space_group_symop_operation_xyz
x,y,z
-x,y,1/2-z
-x,-y,-z
x,-y,1/2+z
1/2+x,1/2+y,z
1/2-x,1/2+y,1/2-z
1/2-x,1/2-y,-z
1/2+x,1/2-y,1/2+z
loop_
_atom_site_type_symbol
_atom_site_label
_atom_site_fract_x
_atom_site_fract_y
_atom_site_fract_z
Si Si1 0.960013 0.432138 0.064487
Si Si2 0.567042 0.727898 0.160282
Si Si3 0.829180 0.851034 0.342948
Si Si4 0.201690 0.328183 0.461703
Si Si5 0.439709 0.748166 0.624783
Si Si6 0.302807 0.543622 0.857250
Si Si7 0.670116 0.480881 0.861002
O O1 0.994007 0.374329 0.081451
O O2 0.871376 0.444509 0.956098
O O3 0.735407 0.445381 0.065677
O O4 0.189878 0.472312 0.138539
O O5 0.350443 0.687123 0.078539
O O6 0.766364 0.729766 0.143587
O O7 0.763656 0.726958 0.286264
O O8 0.422545 0.779716 0.108617
O O9 0.500000 0.847861 0.250000
O O10 0.901360 0.843958 0.449997
O O11 0.891662 0.906216 0.341640
O O12 0.977843 0.808225 0.341026
O O13 0.250000 0.750000 0.500000
O O14 0.492229 0.502250 0.879246
O O15 0.000000 0.532970 0.750000
O O16 0.500000 0.456399 0.750000
#
# Coordination Sequence:
#
# PCOD9263416 Si02
#       7
#     8   8   8   8   8   8   8
#     4  10  23  40  63  89 121 162 203 253 310 367
#     4  10  22  35  59  83 117 156 198 245 299 351
#     4  10  19  34  56  85 117 151 199 246 300 358
#     4  10  20  40  58  83 116 157 200 247 300 357
#     4  11  21  35  54  85 119 153 197 243 294 355
#     4  10  20  37  63  91 119 159 198 254 313 362
#     4  11  22  39  64  92 125 155 203 256 308 374
#
# _framework density 22.711780000000001
#
# number of rings (size 3 to 8) (size 9 to 14) (size 15 to 20)
#    0.000    1.714    4.286    0.429    2.000    0.000 
#    0.000    1.429    3.143    0.000    0.000    0.000 
#    0.000    0.000    0.000    0.000    0.000    0.000 
#
# Total GULP energy -156008.048478 kJ/mol
# GULP energy per Si atom -5571.716017 kJ/mol
# Density = 2.266009 g / cm^3
# Si number density = 22.711780 Si / 1000 Ang^3
#
#
#
# Elastic Constant Matrix: (Units=GPa)
#
#
# Indices 1 2 3 4 5 6 
#
# 1 34.2214 5.3925 -7.1362 -0.0001 -4.4662 0.0000
# 2 5.3925 49.5598 8.3070 0.0000 -3.6269 0.0000
# 3 -7.1362 8.3070 130.5916 -0.0001 -10.2587 -0.0002
# 4 -0.0001 0.0000 -0.0001 9.3578 -0.0001 10.2058
# 5 -4.4662 -3.6269 -10.2587 -0.0001 18.2286 -0.0001
# 6 0.0000 0.0000 -0.0002 10.2058 -0.0001 14.2678
#
#
#
# Elastic Compliance Matrix: (Units=1/GPa)
#
#
# Indices 1 2 3 4 5 6 
#
# 1 0.031379 -0.003226 0.002588 0.000001 0.008503 0.000000
# 2 -0.003226 0.020940 -0.001301 0.000000 0.002644 0.000000
# 3 0.002588 -0.001301 0.008277 0.000000 0.005033 0.000000
# 4 0.000001 0.000000 0.000000 0.486016 0.000000 -0.347649
# 5 0.008503 0.002644 0.005033 0.000000 0.060301 0.000000
# 6 0.000000 0.000000 0.000000 -0.347649 0.000000 0.318763
#
#
# Mechanical properties :
#
#
# Convention : Reuss Voigt Hill
#
# Bulk Modulus (GPa) = 17.63071 25.27771 21.45421
# Shear Modulus (GPa) = 5.27171 22.22481 13.74826
#
# Velocity S-wave (km/s) = 1.52518 3.13159 2.46303
# Velocity P-wave (km/s) = 3.29867 4.92237 4.18992
#
# Compressibility (1/GPa) = 0.05671921
#
# Stress axis : x y z
#
# Youngs Moduli (GPa) = 31.86834 47.75522 120.81665
#
# Poissons Ratio (x) = 0.15405 -0.31266
# Poissons Ratio (y) = 0.10280 0.15713
# Poissons Ratio (z) = -0.08247 0.06211
#
# Static dielectric constant tensor:
#      x y z
#    x 1.968510 0.000000 -0.002760 
#    y 0.000000 1.854970 0.000000 
#    z -0.002760 0.000000 1.961100 
# 
# From -- ./inp_files/193887.got.cif
#   From: 2010.05.17/outbox.cif.g08.bks.cpg/sg15_97_cif.got.tgz:193887.got - 2010.06.03 18:47:42.
