data_PCOD9263339
_publ_section_title
;
Structure prediction by ZEFSAII (Michael W. Deem and Ramdas Pophale) SiO2 
 PCOD9263339
Probable space group: C 2/C
;
_chemical_formula_sum "Si O2"
_cell_formula_units_Z 60
_cell_length_a 14.346951
_cell_length_b 17.779140
_cell_length_c 25.507961
_cell_angle_alpha 90.000000
_cell_angle_beta 148.157585
_cell_angle_gamma 90.000000
_cell_volume 3432.720098
_symmetry_space_group_name_H-M "C 2/C"
_symmetry_group_IT_number 15
_symmetry_cell_setting 'monoclinic'
loop_
_space_group_symop_operation_xyz
x,y,z
-x,y,1/2-z
-x,-y,-z
x,-y,1/2+z
1/2+x,1/2+y,z
1/2-x,1/2+y,1/2-z
1/2-x,1/2-y,-z
1/2+x,1/2-y,1/2+z
loop_
_atom_site_type_symbol
_atom_site_label
_atom_site_fract_x
_atom_site_fract_y
_atom_site_fract_z
Si Si1 0.802144 0.663277 0.672634
Si Si2 0.504446 0.795743 0.415800
Si Si3 0.230477 0.415717 0.238462
Si Si4 0.417437 0.497136 0.109774
Si Si5 0.337967 0.359894 0.509714
Si Si6 0.012638 0.530611 0.445321
Si Si7 0.355060 0.817676 0.901779
Si Si8 0.500000 0.406385 0.750000
O O1 0.812759 0.598079 0.720969
O O2 0.708721 0.641301 0.573737
O O3 0.697025 0.735828 0.644795
O O4 0.000000 0.685864 0.750000
O O5 0.326707 0.837420 0.315496
O O6 0.526656 0.708035 0.413225
O O7 0.662018 0.838311 0.459118
O O8 0.538159 0.805473 0.493432
O O9 0.436297 0.434913 0.332083
O O10 0.110891 0.478589 0.151179
O O11 0.489009 0.541075 0.194572
O O12 0.408172 0.559856 0.060299
O O13 0.216773 0.473316 0.025765
O O14 0.948984 0.617143 0.413620
O O15 0.000000 0.500000 0.500000
O O16 0.171305 0.855247 0.830967
#
# Coordination Sequence:
#
# PCOD9263339 Si02
#       8
#     8   8   8   8   8   8   8   4
#     4  11  22  36  58  84 114 153 199 240 281 343
#     4  10  19  34  55  86 115 142 186 250 290 325
#     4  12  23  35  56  86 120 152 193 235 284 351
#     4  12  23  35  57  87 119 154 185 233 301 356
#     4  10  20  36  57  80 118 152 186 241 292 330
#     4  12  20  38  57  88 122 143 187 246 303 344
#     4  11  21  33  58  87 118 142 182 250 296 336
#     4  12  18  30  56  90 108 136 186 236 296 344
#
# _framework density 17.478850999999999
#
# number of rings (size 3 to 8) (size 9 to 14) (size 15 to 20)
#    0.000    0.800    8.667    0.000    1.867    0.533 
#    0.000    0.667    0.000    0.000    0.000    0.000 
#    0.000    0.000    0.000    0.000    0.000    0.000 
#
# Total GULP energy -167370.278264 kJ/mol
# GULP energy per Si atom -5579.009275 kJ/mol
# Density = 1.743907 g / cm^3
# Si number density = 17.478851 Si / 1000 Ang^3
#
#
#
# Elastic Constant Matrix: (Units=GPa)
#
#
# Indices 1 2 3 4 5 6 
#
# 1 54.4681 48.0380 43.5171 0.0000 0.5323 0.0000
# 2 48.0380 92.3038 56.3264 0.0002 6.3650 0.0001
# 3 43.5171 56.3264 88.2275 0.0006 6.1017 0.0008
# 4 0.0000 0.0002 0.0006 36.5401 0.0000 4.2321
# 5 0.5323 6.3650 6.1017 0.0000 36.1567 0.0000
# 6 0.0000 0.0001 0.0008 4.2321 0.0000 25.5270
#
#
#
# Elastic Compliance Matrix: (Units=1/GPa)
#
#
# Indices 1 2 3 4 5 6 
#
# 1 0.039364 -0.014314 -0.010534 0.000000 0.003718 0.000000
# 2 -0.014314 0.023007 -0.007449 0.000000 -0.002582 0.000000
# 3 -0.010534 -0.007449 0.021435 0.000000 -0.002151 -0.000001
# 4 0.000000 0.000000 0.000000 0.027903 0.000000 -0.004626
# 5 0.003718 -0.002582 -0.002151 0.000000 0.028420 0.000000
# 6 0.000000 0.000000 -0.000001 -0.004626 0.000000 0.039941
#
#
# Mechanical properties :
#
#
# Convention : Reuss Voigt Hill
#
# Bulk Modulus (GPa) = 52.05635 58.97361 55.51498
# Shear Modulus (GPa) = 19.91475 25.45260 22.68368
#
# Velocity S-wave (km/s) = 3.37911 3.82015 3.60638
# Velocity P-wave (km/s) = 6.71354 7.29872 7.01224
#
# Compressibility (1/GPa) = 0.01920995
#
# Stress axis : x y z
#
# Youngs Moduli (GPa) = 25.40401 43.46416 46.65296
#
# Poissons Ratio (x) = 0.62216 0.49145
# Poissons Ratio (y) = 0.36364 0.34754
# Poissons Ratio (z) = 0.26761 0.32379
#
# Static dielectric constant tensor:
#      x y z
#    x 1.594440 0.000000 -0.012670 
#    y 0.000000 1.616710 0.000000 
#    z -0.012670 0.000000 1.615630 
# 
# From -- ./inp_files/178703.got.cif
#   From: 2010.05.17/outbox.cif.g08.bks.cpg/sg15_90_cif.got.tgz:178703.got - 2010.06.03 18:47:42.
