data_PCOD9263158
_publ_section_title
;
Structure prediction by ZEFSAII (Michael W. Deem and Ramdas Pophale) SiO2 
 PCOD9263158
Probable space group: C 2/C
;
_chemical_formula_sum "Si O2"
_cell_formula_units_Z 52
_cell_length_a 14.193054
_cell_length_b 25.806412
_cell_length_c 8.194089
_cell_angle_alpha 90.000000
_cell_angle_beta 82.542281
_cell_angle_gamma 90.000000
_cell_volume 2975.875767
_symmetry_space_group_name_H-M "C 2/C"
_symmetry_group_IT_number 15
_symmetry_cell_setting 'monoclinic'
loop_
_space_group_symop_operation_xyz
x,y,z
-x,y,1/2-z
-x,-y,-z
x,-y,1/2+z
1/2+x,1/2+y,z
1/2-x,1/2+y,1/2-z
1/2-x,1/2-y,-z
1/2+x,1/2-y,1/2+z
loop_
_atom_site_type_symbol
_atom_site_label
_atom_site_fract_x
_atom_site_fract_y
_atom_site_fract_z
Si Si1 0.398098 0.476751 0.365631
Si Si2 0.479322 0.612545 0.061596
Si Si3 0.702950 0.242587 0.265896
Si Si4 0.807077 0.668177 0.936564
Si Si5 0.000000 0.704032 0.750000
Si Si6 0.397232 0.724078 0.023422
Si Si7 0.325990 0.424603 0.075484
O O1 0.500000 0.484825 0.250000
O O2 0.422513 0.437291 0.507301
O O3 0.327124 0.449903 0.253967
O O4 0.353029 0.529155 0.445026
O O5 0.500000 0.611564 0.250000
O O6 0.426904 0.664668 0.024285
O O7 0.581027 0.611594 0.951124
O O8 0.732272 0.293417 0.362652
O O9 0.680028 0.195203 0.390799
O O10 0.798306 0.228839 0.144318
O O11 0.622204 0.255952 0.153854
O O12 0.906755 0.671803 0.818875
O O13 0.762852 0.610994 0.948789
O O14 0.972608 0.741298 0.605112
#
# Coordination Sequence:
#
# PCOD9263158 Si02
#       7
#     8   8   8   8   4   8   8
#     4  10  21  35  50  81 113 139 181 228 276 332
#     4  11  19  30  53  82 113 147 175 211 274 337
#     4   9  20  34  53  78 111 142 190 224 261 341
#     4  10  21  37  54  77 106 148 187 230 281 323
#     4  10  22  38  52  78 114 144 190 232 268 322
#     4  10  19  34  52  82 115 148 176 221 272 324
#     4  11  21  35  54  77 107 145 181 229 275 334
#
# _framework density 17.473849000000001
#
# number of rings (size 3 to 8) (size 9 to 14) (size 15 to 20)
#    0.000    1.846    0.769    5.077    4.308    0.615 
#    0.000    0.000    0.000    0.923    0.000    0.000 
#    0.000    0.000    0.000    0.000    0.000    0.000 
#
# Total GULP energy -145193.142537 kJ/mol
# GULP energy per Si atom -5584.351636 kJ/mol
# Density = 1.743408 g / cm^3
# Si number density = 17.473849 Si / 1000 Ang^3
#
#
#
# Elastic Constant Matrix: (Units=GPa)
#
#
# Indices 1 2 3 4 5 6 
#
# 1 61.1915 64.6699 32.3407 0.0000 14.2454 0.0000
# 2 64.6699 138.8095 58.3760 0.0000 8.2411 0.0000
# 3 32.3407 58.3760 94.8907 0.0000 31.6777 0.0000
# 4 0.0000 0.0000 0.0000 12.4735 0.0000 0.9006
# 5 14.2454 8.2411 31.6777 0.0000 27.7963 0.0000
# 6 0.0000 0.0000 0.0000 0.9006 0.0000 35.8822
#
#
#
# Elastic Compliance Matrix: (Units=1/GPa)
#
#
# Indices 1 2 3 4 5 6 
#
# 1 0.037974 -0.018689 0.005169 0.000000 -0.019811 0.000000
# 2 -0.018689 0.019663 -0.011264 0.000000 0.016585 0.000000
# 3 0.005169 -0.011264 0.024979 0.000000 -0.027776 0.000000
# 4 0.000000 0.000000 0.000000 0.080315 0.000000 -0.002016
# 5 -0.019811 0.016585 -0.027776 0.000000 0.072867 0.000000
# 6 0.000000 0.000000 0.000000 -0.002016 0.000000 0.027920
#
#
# Mechanical properties :
#
#
# Convention : Reuss Voigt Hill
#
# Bulk Modulus (GPa) = 30.25920 67.29609 48.77765
# Shear Modulus (GPa) = 15.41771 24.53074 19.97423
#
# Velocity S-wave (km/s) = 2.97363 3.75087 3.38463
# Velocity P-wave (km/s) = 5.39855 7.57329 6.57644
#
# Compressibility (1/GPa) = 0.03304780
#
# Stress axis : x y z
#
# Youngs Moduli (GPa) = 26.33387 50.85566 40.03376
#
# Poissons Ratio (x) = 0.95045 -0.20692
# Poissons Ratio (y) = 0.49216 0.45093
# Poissons Ratio (z) = -0.13611 0.57283
#
# Static dielectric constant tensor:
#      x y z
#    x 1.592050 0.000000 0.011940 
#    y 0.000000 1.590020 0.000000 
#    z 0.011940 0.000000 1.647630 
# 
# From -- ./inp_files/41709.got.cif
#   From: 2010.05.17/outbox.cif.g08.bks.cpg/sg15_21_cif.got.tgz:41709.got - 2010.06.03 18:47:42.
