data_PCOD9263642
_publ_section_title
;
Structure prediction by ZEFSAII (Michael W. Deem and Ramdas Pophale) SiO2 
 PCOD9263642
Probable space group: C 2/C
;
_chemical_formula_sum "Si O2"
_cell_formula_units_Z 56
_cell_length_a 22.050167
_cell_length_b 8.039699
_cell_length_c 18.914196
_cell_angle_alpha 90.000000
_cell_angle_beta 41.157703
_cell_angle_gamma 90.000000
_cell_volume 2206.753245
_symmetry_space_group_name_H-M "C 2/C"
_symmetry_group_IT_number 15
_symmetry_cell_setting 'monoclinic'
loop_
_space_group_symop_operation_xyz
x,y,z
-x,y,1/2-z
-x,-y,-z
x,-y,1/2+z
1/2+x,1/2+y,z
1/2-x,1/2+y,1/2-z
1/2-x,1/2-y,-z
1/2+x,1/2-y,1/2+z
loop_
_atom_site_type_symbol
_atom_site_label
_atom_site_fract_x
_atom_site_fract_y
_atom_site_fract_z
Si Si1 0.000000 0.806622 0.250000
Si Si2 0.290363 0.046907 0.586924
Si Si3 0.511439 0.823768 0.598419
Si Si4 0.841396 0.046648 0.425660
Si Si5 0.336038 0.690155 0.579371
Si Si6 0.649173 0.657288 0.379573
Si Si7 0.500000 0.801068 0.250000
Si Si8 0.465021 0.153855 0.623431
O O1 0.041176 0.725824 0.284521
O O2 0.916967 0.901174 0.361793
O O3 0.292428 0.872750 0.627850
O O4 0.393380 0.078434 0.466440
O O5 0.227546 0.011134 0.574496
O O6 0.280318 0.215635 0.642225
O O7 0.554056 0.681055 0.510731
O O8 0.457131 0.964277 0.602233
O O9 0.801544 0.104815 0.535696
O O10 0.908042 0.195878 0.345222
O O11 0.327201 0.536515 0.640844
O O12 0.443619 0.739384 0.474404
O O13 0.618656 0.739473 0.332935
O O14 0.529337 0.878353 0.298023
#
# Coordination Sequence:
#
# PCOD9263642 Si02
#       8
#     4   8   8   8   8   8   4   8
#     4  11  19  34  58  88 124 162 204 254 312 352
#     4   9  21  36  59  87 122 155 206 255 299 364
#     4   9  20  33  57  88 115 157 198 245 302 350
#     4  10  19  37  56  86 125 155 204 257 298 365
#     4  10  19  34  58  89 111 155 195 246 308 347
#     4  10  20  36  59  86 119 152 202 254 300 358
#     4   9  21  34  62  84 112 166 200 250 316 352
#     4  10  19  37  58  85 121 149 204 255 296 365
#
# _framework density 25.376646999999998
#
# number of rings (size 3 to 8) (size 9 to 14) (size 15 to 20)
#    0.857    1.429    1.429    1.714    0.000    2.286 
#    0.000    1.429    6.286    0.000    0.000    0.000 
#    0.000    0.000    0.000    0.000    0.000    0.000 
#
# Total GULP energy -155985.273817 kJ/mol
# GULP energy per Si atom -5570.902636 kJ/mol
# Density = 2.531889 g / cm^3
# Si number density = 25.376647 Si / 1000 Ang^3
#
#
#
# Elastic Constant Matrix: (Units=GPa)
#
#
# Indices 1 2 3 4 5 6 
#
# 1 88.7381 -11.4671 -12.3451 0.0006 9.7269 -0.0008
# 2 -11.4671 114.0439 4.1610 0.0015 7.8009 -0.0020
# 3 -12.3451 4.1610 54.0439 0.0001 15.2127 -0.0005
# 4 0.0006 0.0015 0.0001 2.7295 -0.0001 17.3184
# 5 9.7269 7.8009 15.2127 -0.0001 32.3745 0.0000
# 6 -0.0008 -0.0020 -0.0005 17.3184 0.0000 25.9269
#
#
#
# Elastic Compliance Matrix: (Units=1/GPa)
#
#
# Indices 1 2 3 4 5 6 
#
# 1 0.012811 0.001557 0.004605 0.000003 -0.006388 -0.000001
# 2 0.001557 0.009105 0.000465 0.000003 -0.002881 -0.000001
# 3 0.004605 0.000465 0.022980 0.000002 -0.012294 -0.000001
# 4 0.000003 0.000003 0.000002 -0.113139 -0.000003 0.075573
# 5 -0.006388 -0.002881 -0.012294 -0.000003 0.039279 0.000001
# 6 -0.000001 -0.000001 -0.000001 0.075573 0.000001 -0.011911
#
#
# Mechanical properties :
#
#
# Convention : Reuss Voigt Hill
#
# Bulk Modulus (GPa) = 17.19660 24.16925 20.68293
# Shear Modulus (GPa) = -143.90490 30.63800 -56.63345
#
# Velocity S-wave (km/s) = -7.53862 3.47844 -4.72923
# Velocity P-wave (km/s) = 8.30560 5.06730 4.65325
#
# Compressibility (1/GPa) = 0.05815102
#
# Stress axis : x y z
#
# Youngs Moduli (GPa) = 78.05703 109.82765 43.51593
#
# Poissons Ratio (x) = -0.17101 -0.20038
# Poissons Ratio (y) = -0.12154 -0.02026
# Poissons Ratio (z) = -0.35943 -0.05112
#
# Static dielectric constant tensor:
#      x y z
#    x 1.941040 0.000000 0.059330 
#    y 0.000000 2.127340 0.000000 
#    z 0.059330 0.000000 2.050950 
# 
# From -- ./inp_files/254829.got.cif
#   From: 2010.05.17/outbox.cif.g08.bks.cpg/sg15_128_cif.got.tgz:254829.got - 2010.06.03 18:47:42.
