data_PCOD9263871
_publ_section_title
;
Structure prediction by ZEFSAII (Michael W. Deem and Ramdas Pophale) SiO2 
 PCOD9263871
Probable space group: C 2/C
;
_chemical_formula_sum "Si O2"
_cell_formula_units_Z 60
_cell_length_a 23.764626
_cell_length_b 7.677910
_cell_length_c 19.720850
_cell_angle_alpha 90.000000
_cell_angle_beta 43.205435
_cell_angle_gamma 90.000000
_cell_volume 2463.467489
_symmetry_space_group_name_H-M "C 2/C"
_symmetry_group_IT_number 15
_symmetry_cell_setting 'monoclinic'
loop_
_space_group_symop_operation_xyz
x,y,z
-x,y,1/2-z
-x,-y,-z
x,-y,1/2+z
1/2+x,1/2+y,z
1/2-x,1/2+y,1/2-z
1/2-x,1/2-y,-z
1/2+x,1/2-y,1/2+z
loop_
_atom_site_type_symbol
_atom_site_label
_atom_site_fract_x
_atom_site_fract_y
_atom_site_fract_z
Si Si1 0.670230 0.403063 0.125769
Si Si2 0.154949 0.508618 0.147124
Si Si3 0.069429 0.078826 0.856654
Si Si4 0.185483 0.212742 0.307615
Si Si5 0.649051 0.922569 0.802486
Si Si6 0.727189 0.790449 0.915528
Si Si7 0.000000 0.330638 0.250000
Si Si8 0.928683 0.915354 0.911237
O O1 0.614811 0.411069 0.243149
O O2 0.748725 0.522937 0.074733
O O3 0.618718 0.482044 0.107716
O O4 0.813552 0.301140 0.897884
O O5 0.119507 0.513326 0.255138
O O6 0.219447 0.353263 0.091215
O O7 0.078406 0.449569 0.170585
O O8 0.092341 0.260948 0.872027
O O9 0.112977 0.922986 0.859162
O O10 0.974919 0.040823 0.922907
O O11 0.257100 0.145477 0.294126
O O12 0.155637 0.409753 0.344975
O O13 0.237768 0.215818 0.191411
O O14 0.635898 0.717070 0.999081
O O15 0.999860 0.200982 0.186306
#
# Coordination Sequence:
#
# PCOD9263871 Si02
#       8
#     8   8   8   8   8   8   4   8
#     4  10  20  37  59  81 116 154 194 229 291 350
#     4  10  23  37  58  91 114 149 197 243 279 351
#     4  10  20  35  56  89 108 144 199 238 283 347
#     4  10  19  38  61  84 109 150 196 249 286 338
#     4  10  19  34  62  84 108 146 197 241 287 335
#     4  10  22  40  56  85 122 151 195 234 296 346
#     4  12  22  38  62  88 122 152 198 238 286 342
#     4  12  21  38  60  84 121 160 184 241 291 349
#
# _framework density 24.355915
#
# number of rings (size 3 to 8) (size 9 to 14) (size 15 to 20)
#    0.000    1.600    4.000    2.000    3.733    0.533 
#    0.000    0.667    0.000    3.200    0.000    0.000 
#    0.000    0.000    0.000    0.000    0.000    0.000 
#
# Total GULP energy -167840.045582 kJ/mol
# GULP energy per Si atom -5594.668186 kJ/mol
# Density = 2.430048 g / cm^3
# Si number density = 24.355915 Si / 1000 Ang^3
#
#
#
# Elastic Constant Matrix: (Units=GPa)
#
#
# Indices 1 2 3 4 5 6 
#
# 1 86.7643 35.4015 3.5872 0.0001 -13.3241 0.0022
# 2 35.4015 177.7210 3.8248 0.0123 -13.7359 -0.0034
# 3 3.5872 3.8248 46.3064 0.0088 8.1874 -0.0013
# 4 0.0001 0.0123 0.0088 -10.3038 -0.0053 0.2231
# 5 -13.3241 -13.7359 8.1874 -0.0053 30.7550 0.0004
# 6 0.0022 -0.0034 -0.0013 0.2231 0.0004 38.7328
#
#
#
# Elastic Compliance Matrix: (Units=1/GPa)
#
#
# Indices 1 2 3 4 5 6 
#
# 1 0.013306 -0.002206 -0.001777 -0.000007 0.005252 -0.000001
# 2 -0.002206 0.006237 -0.000701 0.000006 0.002016 0.000001
# 3 -0.001777 -0.000701 0.023068 0.000023 -0.007224 0.000001
# 4 -0.000007 0.000006 0.000023 -0.097039 -0.000023 0.000559
# 5 0.005252 0.002016 -0.007224 -0.000023 0.037614 -0.000001
# 6 -0.000001 0.000001 0.000001 0.000559 -0.000001 0.025815
#
#
# Mechanical properties :
#
#
# Convention : Reuss Voigt Hill
#
# Bulk Modulus (GPa) = 30.08190 44.04654 37.06422
# Shear Modulus (GPa) = 169.77780 29.70201 99.73991
#
# Velocity S-wave (km/s) = 8.35813 3.49592 6.40624
# Velocity P-wave (km/s) = 10.27240 5.86678 8.36485
#
# Compressibility (1/GPa) = 0.03324258
#
# Stress axis : x y z
#
# Youngs Moduli (GPa) = 75.15568 160.32815 43.34991
#
# Poissons Ratio (x) = 0.35373 0.07704
# Poissons Ratio (y) = 0.16581 0.03038
# Poissons Ratio (z) = 0.13356 0.11236
#
# Static dielectric constant tensor:
#      x y z
#    x 1.936600 0.000000 0.024200 
#    y 0.000000 1.919710 0.000000 
#    z 0.024200 0.000000 1.985800 
# 
# From -- ./inp_files/281657.got.cif
#   From: 2010.05.17/outbox.cif.g08.bks.cpg/sg15_141_cif.got.tgz:281657.got - 2010.06.03 18:47:42.
