data_PCOD9263375
_publ_section_title
;
Structure prediction by ZEFSAII (Michael W. Deem and Ramdas Pophale) SiO2 
 PCOD9263375
Probable space group: C 2/C
;
_chemical_formula_sum "Si O2"
_cell_formula_units_Z 40
_cell_length_a 8.887204
_cell_length_b 15.415716
_cell_length_c 12.840463
_cell_angle_alpha 90.000000
_cell_angle_beta 89.454129
_cell_angle_gamma 90.000000
_cell_volume 1759.097144
_symmetry_space_group_name_H-M "C 2/C"
_symmetry_group_IT_number 15
_symmetry_cell_setting 'monoclinic'
loop_
_space_group_symop_operation_xyz
x,y,z
-x,y,1/2-z
-x,-y,-z
x,-y,1/2+z
1/2+x,1/2+y,z
1/2-x,1/2+y,1/2-z
1/2-x,1/2-y,-z
1/2+x,1/2-y,1/2+z
loop_
_atom_site_type_symbol
_atom_site_label
_atom_site_fract_x
_atom_site_fract_y
_atom_site_fract_z
Si Si1 0.694618 0.241580 0.172701
Si Si2 0.745010 0.449472 0.773171
Si Si3 0.854242 0.633863 0.823492
Si Si4 0.996735 0.753737 0.525229
Si Si5 0.556492 0.560548 0.090650
O O1 0.680811 0.144762 0.219160
O O2 0.724063 0.312243 0.263255
O O3 0.844374 0.245722 0.097718
O O4 0.558412 0.254829 0.093118
O O5 0.822840 0.531686 0.825035
O O6 0.588003 0.436680 0.833712
O O7 0.699532 0.471803 0.654840
O O8 0.000000 0.646238 0.750000
O O9 0.901037 0.675578 0.933098
O O10 0.081516 0.842643 0.550669
O O11 0.500000 0.500000 0.000000
#
# Coordination Sequence:
#
# PCOD9263375 Si02
#       5
#     8   8   8   8   8
#     4   9  17  32  53  78 107 140 186 229 264 326
#     4  10  20  34  57  83 111 145 186 233 271 326
#     4  10  19  34  56  81 110 144 183 228 279 327
#     4   9  17  31  54  78 102 144 188 223 269 326
#     4  10  19  35  57  81 108 147 194 225 268 327
#
# _framework density 22.738937
#
# number of rings (size 3 to 8) (size 9 to 14) (size 15 to 20)
#    0.000    2.400    2.000    1.200    0.000    2.400 
#    0.000    1.000    8.800    0.000    0.000    0.000 
#    0.000    0.000    0.000    0.000    0.000    0.000 
#
# Total GULP energy -111687.186650 kJ/mol
# GULP energy per Si atom -5584.359333 kJ/mol
# Density = 2.268718 g / cm^3
# Si number density = 22.738937 Si / 1000 Ang^3
#
#
#
# Elastic Constant Matrix: (Units=GPa)
#
#
# Indices 1 2 3 4 5 6 
#
# 1 51.0524 8.0619 33.6484 0.0000 1.9795 0.0000
# 2 8.0619 107.6413 24.1399 0.0000 21.9650 0.0000
# 3 33.6484 24.1399 78.1981 0.0000 34.7036 0.0000
# 4 0.0000 0.0000 0.0000 33.2541 0.0000 5.7746
# 5 1.9795 21.9650 34.7036 0.0000 29.1784 0.0000
# 6 0.0000 0.0000 0.0000 5.7746 0.0000 18.4318
#
#
#
# Elastic Compliance Matrix: (Units=1/GPa)
#
#
# Indices 1 2 3 4 5 6 
#
# 1 0.042290 -0.003836 -0.036049 0.000000 0.042893 0.000000
# 2 -0.003836 0.011337 0.003860 0.000000 -0.012865 0.000000
# 3 -0.036049 0.003860 0.057844 0.000000 -0.069257 0.000000
# 4 0.000000 0.000000 0.000000 0.031802 0.000000 -0.009963
# 5 0.042893 -0.012865 -0.069257 0.000000 0.123418 0.000000
# 6 0.000000 0.000000 0.000000 -0.009963 0.000000 0.057375
#
#
# Mechanical properties :
#
#
# Convention : Reuss Voigt Hill
#
# Bulk Modulus (GPa) = 25.36654 40.95468 33.16061
# Shear Modulus (GPa) = 12.21733 27.57565 19.89649
#
# Velocity S-wave (km/s) = 2.32046 3.48617 2.96124
# Velocity P-wave (km/s) = 4.28476 5.85273 5.12901
#
# Compressibility (1/GPa) = 0.03942201
#
# Stress axis : x y z
#
# Youngs Moduli (GPa) = 23.64636 88.20742 17.28797
#
# Poissons Ratio (x) = 0.33833 0.62321
# Poissons Ratio (y) = 0.09070 -0.06673
# Poissons Ratio (z) = 0.85242 -0.34049
#
# Static dielectric constant tensor:
#      x y z
#    x 1.873130 0.000000 -0.015150 
#    y 0.000000 1.810280 0.000000 
#    z -0.015150 0.000000 1.854400 
# 
# From -- ./inp_files/85985.got.cif
#   From: 2010.05.17/outbox.cif.g08.bks.cpg/sg15_43_cif.got.tgz:85985.got - 2010.06.03 18:47:42.
