data_PCOD9263593
_publ_section_title
;
Structure prediction by ZEFSAII (Michael W. Deem and Ramdas Pophale) SiO2 
 PCOD9263593
Probable space group: C 2/C
;
_chemical_formula_sum "Si O2"
_cell_formula_units_Z 56
_cell_length_a 11.413015
_cell_length_b 19.220705
_cell_length_c 14.760883
_cell_angle_alpha 90.000000
_cell_angle_beta 140.756202
_cell_angle_gamma 90.000000
_cell_volume 2048.452920
_symmetry_space_group_name_H-M "C 2/C"
_symmetry_group_IT_number 15
_symmetry_cell_setting 'monoclinic'
loop_
_space_group_symop_operation_xyz
x,y,z
-x,y,1/2-z
-x,-y,-z
x,-y,1/2+z
1/2+x,1/2+y,z
1/2-x,1/2+y,1/2-z
1/2-x,1/2-y,-z
1/2+x,1/2-y,1/2+z
loop_
_atom_site_type_symbol
_atom_site_label
_atom_site_fract_x
_atom_site_fract_y
_atom_site_fract_z
Si Si1 0.766057 0.844206 0.216083
Si Si2 0.782142 0.302947 0.684526
Si Si3 0.139255 0.320206 0.466163
Si Si4 0.343538 0.876202 0.555794
Si Si5 0.355218 0.026035 0.547113
Si Si6 0.724090 0.490328 0.263728
Si Si7 0.623304 0.366429 0.734554
O O1 0.863486 0.771569 0.257255
O O2 0.585169 0.825688 0.168901
O O3 0.867351 0.915210 0.304812
O O4 0.701323 0.866746 0.076092
O O5 0.745002 0.319216 0.558753
O O6 0.602082 0.314655 0.637907
O O7 0.937868 0.359989 0.802139
O O8 0.250000 0.250000 0.500000
O O9 0.191235 0.395467 0.449617
O O10 0.193825 0.335629 0.603871
O O11 0.301384 0.954755 0.563827
O O12 0.576245 0.019278 0.663307
O O13 0.268218 0.012988 0.395049
O O14 0.612941 0.559634 0.177238
O O15 0.500000 0.364561 0.750000
#
# Coordination Sequence:
#
# PCOD9263593 Si02
#       7
#     8   8   8   8   8   8   8
#     4  10  19  36  58  82 113 150 191 233 283 341
#     4  11  21  33  57  84 111 150 189 241 294 324
#     4  10  19  34  58  84 114 149 188 232 284 341
#     4  10  19  36  57  80 114 146 196 236 272 353
#     4   8  14  31  58  76  99 140 184 226 266 330
#     4   8  15  31  54  77  99 140 187 222 268 333
#     4  11  20  35  55  81 116 146 189 238 287 342
#
# _framework density 27.337705
#
# number of rings (size 3 to 8) (size 9 to 14) (size 15 to 20)
#    0.000    2.286    2.857    3.000    0.000    0.000 
#    2.571    1.429    3.143    8.571    0.000    0.000 
#    0.000    0.000    0.000    0.000    0.000    0.000 
#
# Total GULP energy -156025.270748 kJ/mol
# GULP energy per Si atom -5572.331098 kJ/mol
# Density = 2.727548 g / cm^3
# Si number density = 27.337705 Si / 1000 Ang^3
#
#
#
# Elastic Constant Matrix: (Units=GPa)
#
#
# Indices 1 2 3 4 5 6 
#
# 1 110.9020 65.8449 10.1309 -0.0002 1.5035 -0.0002
# 2 65.8449 281.0850 7.5316 -0.0001 1.8094 0.0000
# 3 10.1309 7.5316 26.3185 -0.0003 7.8178 -0.0004
# 4 -0.0002 -0.0001 -0.0003 19.4672 -0.0002 7.3927
# 5 1.5035 1.8094 7.8178 -0.0002 15.7373 -0.0002
# 6 -0.0002 0.0000 -0.0004 7.3927 -0.0002 37.7064
#
#
#
# Elastic Compliance Matrix: (Units=1/GPa)
#
#
# Indices 1 2 3 4 5 6 
#
# 1 0.010793 -0.002434 -0.003795 0.000000 0.001134 0.000000
# 2 -0.002434 0.004134 -0.000204 0.000000 -0.000141 0.000000
# 3 -0.003795 -0.000204 0.046221 0.000000 -0.022575 0.000000
# 4 0.000000 0.000000 0.000000 0.055501 0.000000 -0.010882
# 5 0.001134 -0.000141 -0.022575 0.000000 0.074666 0.000000
# 6 0.000000 0.000000 0.000000 -0.010882 0.000000 0.028654
#
#
# Mechanical properties :
#
#
# Convention : Reuss Voigt Hill
#
# Bulk Modulus (GPa) = 20.71147 65.03560 42.87354
# Shear Modulus (GPa) = 20.08592 36.90203 28.49398
#
# Velocity S-wave (km/s) = 2.71354 3.67803 3.23196
# Velocity P-wave (km/s) = 4.17257 6.47136 5.44467
#
# Compressibility (1/GPa) = 0.04828243
#
# Stress axis : x y z
#
# Youngs Moduli (GPa) = 92.64929 241.88518 21.63506
#
# Poissons Ratio (x) = 0.58875 0.08211
# Poissons Ratio (y) = 0.22551 0.00442
# Poissons Ratio (z) = 0.35161 0.04938
#
# Static dielectric constant tensor:
#      x y z
#    x 2.311520 0.000000 0.115350 
#    y 0.000000 2.252880 0.000000 
#    z 0.115350 0.000000 2.247320 
# 
# From -- ./inp_files/199591.got.cif
#   From: 2010.05.17/outbox.cif.g08.bks.cpg/sg15_100_cif.got.tgz:199591.got - 2010.06.03 18:47:42.
