data_PCOD9263489
_publ_section_title
;
Structure prediction by ZEFSAII (Michael W. Deem and Ramdas Pophale) SiO2 
 PCOD9263489
Probable space group: C 2/C
;
_chemical_formula_sum "Si O2"
_cell_formula_units_Z 40
_cell_length_a 9.203265
_cell_length_b 25.301994
_cell_length_c 8.406994
_cell_angle_alpha 90.000000
_cell_angle_beta 67.913940
_cell_angle_gamma 90.000000
_cell_volume 1814.007790
_symmetry_space_group_name_H-M "C 2/C"
_symmetry_group_IT_number 15
_symmetry_cell_setting 'monoclinic'
loop_
_space_group_symop_operation_xyz
x,y,z
-x,y,1/2-z
-x,-y,-z
x,-y,1/2+z
1/2+x,1/2+y,z
1/2-x,1/2+y,1/2-z
1/2-x,1/2-y,-z
1/2+x,1/2-y,1/2+z
loop_
_atom_site_type_symbol
_atom_site_label
_atom_site_fract_x
_atom_site_fract_y
_atom_site_fract_z
Si Si1 0.671505 0.525237 0.097127
Si Si2 0.684343 0.223638 0.183749
Si Si3 0.687055 0.632494 0.196105
Si Si4 0.184780 0.318820 0.178755
Si Si5 0.673268 0.422380 0.242917
O O1 0.500000 0.519543 0.250000
O O2 0.749337 0.572760 0.164287
O O3 0.740453 0.467036 0.095393
O O4 0.661025 0.547884 0.921713
O O5 0.500000 0.215509 0.250000
O O6 0.768965 0.167789 0.173653
O O7 0.726639 0.266409 0.301654
O O8 0.750000 0.250000 0.000000
O O9 0.500000 0.630413 0.250000
O O10 0.758464 0.662955 0.016919
O O11 0.227359 0.369327 0.272389
O O12 0.000000 0.308776 0.250000
O O13 0.500000 0.407350 0.250000
#
# Coordination Sequence:
#
# PCOD9263489 Si02
#       5
#     8   8   8   8   8
#     4   9  18  32  56  84 111 148 188 231 279 331
#     4  12  24  38  60  89 113 145 191 241 285 335
#     4  10  21  40  60  81 113 154 189 227 284 343
#     4  11  23  40  58  82 117 155 187 230 288 342
#     4  10  19  34  57  84 112 148 192 233 274 333
#
# _framework density 22.050621
#
# number of rings (size 3 to 8) (size 9 to 14) (size 15 to 20)
#    0.000    1.600    0.000    6.600    0.000    4.800 
#    0.000    5.000    0.000    0.000    0.000    0.000 
#    0.000    0.000    0.000    0.000    0.000    0.000 
#
# Total GULP energy -111756.855027 kJ/mol
# GULP energy per Si atom -5587.842751 kJ/mol
# Density = 2.200043 g / cm^3
# Si number density = 22.050621 Si / 1000 Ang^3
#
#
#
# Elastic Constant Matrix: (Units=GPa)
#
#
# Indices 1 2 3 4 5 6 
#
# 1 91.9944 39.7186 -9.0992 0.0000 6.6182 0.0000
# 2 39.7186 125.5072 -16.8752 0.0000 28.1161 0.0000
# 3 -9.0992 -16.8752 32.9259 0.0000 5.4501 0.0000
# 4 0.0000 0.0000 0.0000 34.0555 0.0000 11.0889
# 5 6.6182 28.1161 5.4501 0.0000 27.4510 0.0000
# 6 0.0000 0.0000 0.0000 11.0889 0.0000 2.6919
#
#
#
# Elastic Compliance Matrix: (Units=1/GPa)
#
#
# Indices 1 2 3 4 5 6 
#
# 1 0.012675 -0.004012 0.001316 0.000000 0.000792 0.000000
# 2 -0.004012 0.013635 0.008304 0.000000 -0.014647 0.000000
# 3 0.001316 0.008304 0.037690 0.000000 -0.016305 0.000000
# 4 0.000000 0.000000 0.000000 -0.086025 0.000000 0.354374
# 5 0.000792 -0.014647 -0.016305 0.000000 0.054476 0.000000
# 6 0.000000 0.000000 0.000000 0.354374 0.000000 -1.088328
#
#
# Mechanical properties :
#
#
# Convention : Reuss Voigt Hill
#
# Bulk Modulus (GPa) = 13.29511 30.87956 22.08733
# Shear Modulus (GPa) = -4.79837 28.61857 11.91010
#
# Velocity S-wave (km/s) = -1.47675 3.60649 2.32658
# Velocity P-wave (km/s) = 1.77051 5.60149 4.15400
#
# Compressibility (1/GPa) = 0.07521564
#
# Stress axis : x y z
#
# Youngs Moduli (GPa) = 78.89236 73.34105 26.53249
#
# Poissons Ratio (x) = 0.29423 -0.03491
# Poissons Ratio (y) = 0.31650 -0.22032
# Poissons Ratio (z) = -0.10380 -0.60902
#
# Static dielectric constant tensor:
#      x y z
#    x 1.758920 0.000000 0.040090 
#    y 0.000000 1.829210 0.000000 
#    z 0.040090 0.000000 1.851880 
# 
# From -- ./inp_files/24435.got.cif
#   From: 2010.05.17/outbox.cif.g08.bks.cpg/sg15_13_cif.got.tgz:24435.got - 2010.06.03 18:47:42.
