data_PCOD9263686
_publ_section_title
;
Structure prediction by ZEFSAII (Michael W. Deem and Ramdas Pophale) SiO2 
 PCOD9263686
Probable space group: C 2/C
;
_chemical_formula_sum "Si O2"
_cell_formula_units_Z 48
_cell_length_a 11.197014
_cell_length_b 14.685506
_cell_length_c 19.466557
_cell_angle_alpha 90.000000
_cell_angle_beta 134.588696
_cell_angle_gamma 90.000000
_cell_volume 2279.610457
_symmetry_space_group_name_H-M "C 2/C"
_symmetry_group_IT_number 15
_symmetry_cell_setting 'monoclinic'
loop_
_space_group_symop_operation_xyz
x,y,z
-x,y,1/2-z
-x,-y,-z
x,-y,1/2+z
1/2+x,1/2+y,z
1/2-x,1/2+y,1/2-z
1/2-x,1/2-y,-z
1/2+x,1/2-y,1/2+z
loop_
_atom_site_type_symbol
_atom_site_label
_atom_site_fract_x
_atom_site_fract_y
_atom_site_fract_z
Si Si1 0.607598 0.415061 0.568570
Si Si2 0.900702 0.565871 0.281257
Si Si3 0.698269 0.619333 0.958443
Si Si4 0.426534 0.212898 0.932376
Si Si5 0.096857 0.459145 0.474805
Si Si6 0.097662 0.770569 0.216974
O O1 0.500000 0.500000 0.500000
O O2 0.711431 0.445487 0.677194
O O3 0.725717 0.382786 0.551605
O O4 0.520002 0.318113 0.545737
O O5 0.903212 0.668398 0.313111
O O6 0.000000 0.562547 0.250000
O O7 0.985702 0.493982 0.365777
O O8 0.826915 0.677331 0.961833
O O9 0.513558 0.659163 0.870977
O O10 0.728021 0.512948 0.953276
O O11 0.581269 0.147713 0.977943
O O12 0.284540 0.202715 0.815394
O O13 0.000000 0.500000 0.500000
O O14 0.000000 0.764351 0.250000
#
# Coordination Sequence:
#
# PCOD9263686 Si02
#       6
#     8   8   8   8   8   8
#     4  11  23  36  58  89 114 151 198 245 287 349
#     4  10  19  36  56  83 116 152 197 243 293 342
#     4  10  19  34  59  85 112 147 192 242 292 340
#     4   9  20  37  55  85 117 150 190 237 297 344
#     4  10  21  33  55  86 118 150 189 242 299 352
#     4   8  17  30  55  83 110 144 191 244 283 336
#
# _framework density 21.056229999999999
#
# number of rings (size 3 to 8) (size 9 to 14) (size 15 to 20)
#    0.000    2.333    1.667    1.500    7.000    0.000 
#    0.000    0.833    0.000    0.000    0.000    0.000 
#    0.000    0.000    0.000    0.000    0.000    0.000 
#
# Total GULP energy -133637.966591 kJ/mol
# GULP energy per Si atom -5568.248608 kJ/mol
# Density = 2.100830 g / cm^3
# Si number density = 21.056230 Si / 1000 Ang^3
#
#
#
# Elastic Constant Matrix: (Units=GPa)
#
#
# Indices 1 2 3 4 5 6 
#
# 1 17.9188 21.0054 10.8069 0.0000 -3.8918 0.0000
# 2 21.0054 157.8040 49.4628 0.0000 22.4509 0.0000
# 3 10.8069 49.4628 116.4516 0.0000 -1.8006 0.0000
# 4 0.0000 0.0000 0.0000 34.5588 0.0000 10.9892
# 5 -3.8918 22.4509 -1.8006 0.0000 26.9847 0.0000
# 6 0.0000 0.0000 0.0000 10.9892 0.0000 25.3889
#
#
#
# Elastic Compliance Matrix: (Units=1/GPa)
#
#
# Indices 1 2 3 4 5 6 
#
# 1 0.076310 -0.012820 -0.001302 0.000000 0.021585 0.000000
# 2 -0.012820 0.010715 -0.003532 0.000000 -0.011000 0.000000
# 3 -0.001302 -0.003532 0.010261 0.000000 0.003435 0.000000
# 4 0.000000 0.000000 0.000000 0.033554 0.000000 -0.014524
# 5 0.021585 -0.011000 0.003435 0.000000 0.049552 0.000000
# 6 0.000000 0.000000 0.000000 -0.014524 0.000000 0.045674
#
#
# Mechanical properties :
#
#
# Convention : Reuss Voigt Hill
#
# Bulk Modulus (GPa) = 16.13491 50.52495 33.32993
# Shear Modulus (GPa) = 17.72834 31.44643 24.58738
#
# Velocity S-wave (km/s) = 2.90479 3.86871 3.42087
# Velocity P-wave (km/s) = 4.35084 6.63349 5.60950
#
# Compressibility (1/GPa) = 0.06197743
#
# Stress axis : x y z
#
# Youngs Moduli (GPa) = 13.10451 93.32342 97.45311
#
# Poissons Ratio (x) = 1.19643 0.12693
# Poissons Ratio (y) = 0.16800 0.34418
# Poissons Ratio (z) = 0.01707 0.32959
#
# Static dielectric constant tensor:
#      x y z
#    x 1.819220 0.000000 0.034030 
#    y 0.000000 1.822820 0.000000 
#    z 0.034030 0.000000 1.821230 
# 
# From -- ./inp_files/243992.got.cif
#   From: 2010.05.17/outbox.cif.g08.bks.cpg/sg15_122_cif.got.tgz:243992.got - 2010.06.03 18:47:42.
