data_PCOD9263254
_publ_section_title
;
Structure prediction by ZEFSAII (Michael W. Deem and Ramdas Pophale) SiO2 
 PCOD9263254
Probable space group: C 2/C
;
_chemical_formula_sum "Si O2"
_cell_formula_units_Z 56
_cell_length_a 17.375076
_cell_length_b 28.663375
_cell_length_c 8.829283
_cell_angle_alpha 90.000000
_cell_angle_beta 41.599227
_cell_angle_gamma 90.000000
_cell_volume 2919.393869
_symmetry_space_group_name_H-M "C 2/C"
_symmetry_group_IT_number 15
_symmetry_cell_setting 'monoclinic'
loop_
_space_group_symop_operation_xyz
x,y,z
-x,y,1/2-z
-x,-y,-z
x,-y,1/2+z
1/2+x,1/2+y,z
1/2-x,1/2+y,1/2-z
1/2-x,1/2-y,-z
1/2+x,1/2-y,1/2+z
loop_
_atom_site_type_symbol
_atom_site_label
_atom_site_fract_x
_atom_site_fract_y
_atom_site_fract_z
Si Si1 0.083949 0.519607 0.506152
Si Si2 0.074438 0.911838 0.401209
Si Si3 0.722236 0.321280 0.598815
Si Si4 0.028608 0.189720 0.876509
Si Si5 0.236756 0.475838 0.520970
Si Si6 0.670834 0.579530 0.097947
Si Si7 0.871538 0.755663 0.011977
O O1 0.145586 0.479059 0.515705
O O2 0.000000 0.500000 0.500000
O O3 0.183034 0.543369 0.257160
O O4 0.000000 0.545339 0.750000
O O5 0.082645 0.861943 0.307735
O O6 0.149090 0.949008 0.198995
O O7 0.125018 0.908421 0.497051
O O8 0.940275 0.925146 0.627062
O O9 0.744301 0.375822 0.542063
O O10 0.812143 0.293891 0.571109
O O11 0.708280 0.293073 0.461204
O O12 0.594176 0.316325 0.857879
O O13 0.107893 0.226097 0.849705
O O14 0.000000 0.204200 0.750000
O O15 0.265598 0.530373 0.503073
O O16 0.000000 0.755037 0.750000
#
# Coordination Sequence:
#
# PCOD9263254 Si02
#       7
#     8   8   8   8   8   8   8
#     4   9  20  36  53  74 102 144 203 250 281 331
#     4  10  20  34  52  83 122 151 190 237 295 354
#     4   9  18  34  58  80 112 151 189 236 293 346
#     4  10  20  34  54  84 120 153 184 236 297 358
#     4  11  19  34  57  80 108 155 201 242 286 339
#     4  10  19  34  54  83 116 152 190 242 294 350
#     4   9  17  34  59  84 106 149 198 235 282 356
#
# _framework density 19.182064
#
# number of rings (size 3 to 8) (size 9 to 14) (size 15 to 20)
#    0.000    2.286    2.857    0.429    0.000    2.857 
#    2.571    2.143    0.000    0.000    0.000    2.000 
#    0.000    0.000    0.000    0.000    0.000    0.286 
#
# Total GULP energy -156045.837452 kJ/mol
# GULP energy per Si atom -5573.065623 kJ/mol
# Density = 1.913840 g / cm^3
# Si number density = 19.182064 Si / 1000 Ang^3
#
#
#
# Elastic Constant Matrix: (Units=GPa)
#
#
# Indices 1 2 3 4 5 6 
#
# 1 95.8307 46.6533 13.8912 0.0000 12.8816 0.0000
# 2 46.6533 101.5406 29.9967 0.0000 -1.8936 0.0000
# 3 13.8912 29.9967 81.9591 0.0000 14.7869 0.0000
# 4 0.0000 0.0000 0.0000 15.7321 0.0000 -5.2755
# 5 12.8816 -1.8936 14.7869 0.0000 29.1323 0.0000
# 6 0.0000 0.0000 0.0000 -5.2755 0.0000 23.2608
#
#
#
# Elastic Compliance Matrix: (Units=1/GPa)
#
#
# Indices 1 2 3 4 5 6 
#
# 1 0.014901 -0.007477 0.001638 0.000000 -0.007906 0.000000
# 2 -0.007477 0.015046 -0.005518 0.000000 0.007085 0.000000
# 3 0.001638 -0.005518 0.015564 0.000000 -0.008983 0.000000
# 4 0.000000 0.000000 0.000000 0.068797 0.000000 0.015603
# 5 -0.007906 0.007085 -0.008983 0.000000 0.042842 0.000000
# 6 0.000000 0.000000 0.000000 0.015603 0.000000 0.046529
#
#
# Mechanical properties :
#
#
# Convention : Reuss Voigt Hill
#
# Bulk Modulus (GPa) = 43.86868 51.15698 47.51283
# Shear Modulus (GPa) = 21.36831 26.21099 23.78965
#
# Velocity S-wave (km/s) = 3.34124 3.70054 3.52547
# Velocity P-wave (km/s) = 6.14854 6.70714 6.43390
#
# Compressibility (1/GPa) = 0.02279531
#
# Stress axis : x y z
#
# Youngs Moduli (GPa) = 67.11139 66.46337 64.25208
#
# Poissons Ratio (x) = 0.49697 -0.10521
# Poissons Ratio (y) = 0.50181 0.35452
# Poissons Ratio (z) = -0.10990 0.36672
#
# Static dielectric constant tensor:
#      x y z
#    x 1.704050 0.000000 0.001520 
#    y 0.000000 1.653710 0.000000 
#    z 0.001520 0.000000 1.709610 
# 
# From -- ./inp_files/34186.got.cif
#   From: 2010.05.17/outbox.cif.g08.bks.cpg/sg15_18_cif.got.tgz:34186.got - 2010.06.03 18:47:42.
