data_PCOD9263344
_publ_section_title
;
Structure prediction by ZEFSAII (Michael W. Deem and Ramdas Pophale) SiO2 
 PCOD9263344
Probable space group: C 2/C
;
_chemical_formula_sum "Si O2"
_cell_formula_units_Z 60
_cell_length_a 28.220386
_cell_length_b 19.343513
_cell_length_c 5.496977
_cell_angle_alpha 90.000000
_cell_angle_beta 76.272603
_cell_angle_gamma 90.000000
_cell_volume 2914.984877
_symmetry_space_group_name_H-M "C 2/C"
_symmetry_group_IT_number 15
_symmetry_cell_setting 'monoclinic'
loop_
_space_group_symop_operation_xyz
x,y,z
-x,y,1/2-z
-x,-y,-z
x,-y,1/2+z
1/2+x,1/2+y,z
1/2-x,1/2+y,1/2-z
1/2-x,1/2-y,-z
1/2+x,1/2-y,1/2+z
loop_
_atom_site_type_symbol
_atom_site_label
_atom_site_fract_x
_atom_site_fract_y
_atom_site_fract_z
Si Si1 0.226217 0.960643 0.779215
Si Si2 0.343099 0.960774 0.681919
Si Si3 0.500000 0.293075 0.750000
Si Si4 0.095359 0.209267 0.904538
Si Si5 0.628567 0.160933 0.631493
Si Si6 0.453065 0.186985 0.423047
Si Si7 0.724839 0.201217 0.732095
Si Si8 0.689585 0.332338 0.052138
O O1 0.284608 0.950512 0.734384
O O2 0.213421 0.997271 0.541185
O O3 0.199561 0.886946 0.829870
O O4 0.370340 0.888474 0.602111
O O5 0.355172 0.006510 0.427677
O O6 0.547811 0.328102 0.574930
O O7 0.477669 0.242707 0.574105
O O8 0.075284 0.265840 0.737125
O O9 0.136339 0.163040 0.731060
O O10 0.122045 0.258404 0.069855
O O11 0.681822 0.154071 0.683838
O O12 0.585161 0.144571 0.869792
O O13 0.500000 0.149249 0.250000
O O14 0.750000 0.250000 0.500000
O O15 0.766998 0.157284 0.806891
O O16 0.698981 0.253856 0.951887
#
# Coordination Sequence:
#
# PCOD9263344 Si02
#       8
#     8   8   4   8   8   8   8   8
#     4  10  24  41  57  77 114 168 206 237 271 332
#     4  10  24  39  56  77 110 159 208 243 272 335
#     4   8  18  34  52  82 112 144 178 222 296 372
#     4  10  19  34  55  87 111 145 180 238 300 350
#     4  11  21  33  57  81 114 151 193 235 297 346
#     4   9  18  34  55  79 113 140 183 230 298 361
#     4  11  22  33  50  85 119 149 179 241 295 344
#     4  11  23  34  55  84 119 150 193 236 289 345
#
# _framework density 20.583296000000001
#
# number of rings (size 3 to 8) (size 9 to 14) (size 15 to 20)
#    0.000    1.867    2.667    0.800   11.200    0.000 
#    0.000    0.000    0.000    0.800    0.000    0.933 
#    0.000    0.000    0.000    0.000    0.000    0.000 
#
# Total GULP energy -167523.578114 kJ/mol
# GULP energy per Si atom -5584.119270 kJ/mol
# Density = 2.053645 g / cm^3
# Si number density = 20.583296 Si / 1000 Ang^3
#
#
#
# Elastic Constant Matrix: (Units=GPa)
#
#
# Indices 1 2 3 4 5 6 
#
# 1 84.6459 8.3015 38.3231 0.0000 -14.2464 0.0000
# 2 8.3015 43.8772 23.3583 0.0000 -11.6571 0.0000
# 3 38.3231 23.3583 106.5409 0.0000 -23.6094 0.0000
# 4 0.0000 0.0000 0.0000 43.2782 0.0000 -3.1674
# 5 -14.2464 -11.6571 -23.6094 0.0000 35.6912 0.0000
# 6 0.0000 0.0000 0.0000 -3.1674 0.0000 10.4202
#
#
#
# Elastic Compliance Matrix: (Units=1/GPa)
#
#
# Indices 1 2 3 4 5 6 
#
# 1 0.014342 0.000508 -0.004646 0.000000 0.002817 0.000000
# 2 0.000508 0.026772 -0.004769 0.000000 0.005792 0.000000
# 3 -0.004646 -0.004769 0.013296 0.000000 0.005383 0.000000
# 4 0.000000 0.000000 0.000000 0.023632 0.000000 0.007183
# 5 0.002817 0.005792 0.005383 0.000000 0.034595 0.000000
# 6 0.000000 0.000000 0.000000 0.007183 0.000000 0.098151
#
#
# Mechanical properties :
#
#
# Convention : Reuss Voigt Hill
#
# Bulk Modulus (GPa) = 27.32483 41.66998 34.49740
# Shear Modulus (GPa) = 20.76413 28.88332 24.82372
#
# Velocity S-wave (km/s) = 3.17958 3.75005 3.47654
# Velocity P-wave (km/s) = 5.17530 6.24812 5.73684
#
# Compressibility (1/GPa) = 0.03659675
#
# Stress axis : x y z
#
# Youngs Moduli (GPa) = 69.72703 37.35199 75.21292
#
# Poissons Ratio (x) = -0.01899 0.34943
# Poissons Ratio (y) = -0.03544 0.35868
# Poissons Ratio (z) = 0.32394 0.17813
#
# Static dielectric constant tensor:
#      x y z
#    x 1.754600 0.000000 0.020700 
#    y 0.000000 1.716260 0.000000 
#    z 0.020700 0.000000 1.843690 
# 
# From -- ./inp_files/18437.got.cif
#   From: 2010.05.17/outbox.cif.g08.bks.cpg/sg15_10_cif.got.tgz:18437.got - 2010.06.03 18:47:42.
