data_PCOD9263936
_publ_section_title
;
Structure prediction by ZEFSAII (Michael W. Deem and Ramdas Pophale) SiO2 
 PCOD9263936
Probable space group: C 2/C
;
_chemical_formula_sum "Si O2"
_cell_formula_units_Z 64
_cell_length_a 13.515247
_cell_length_b 15.918759
_cell_length_c 13.549465
_cell_angle_alpha 90.000000
_cell_angle_beta 115.507265
_cell_angle_gamma 90.000000
_cell_volume 2630.978631
_symmetry_space_group_name_H-M "C 2/C"
_symmetry_group_IT_number 15
_symmetry_cell_setting 'monoclinic'
loop_
_space_group_symop_operation_xyz
x,y,z
-x,y,1/2-z
-x,-y,-z
x,-y,1/2+z
1/2+x,1/2+y,z
1/2-x,1/2+y,1/2-z
1/2-x,1/2-y,-z
1/2+x,1/2-y,1/2+z
loop_
_atom_site_type_symbol
_atom_site_label
_atom_site_fract_x
_atom_site_fract_y
_atom_site_fract_z
Si Si1 0.714921 0.995309 0.000138
Si Si2 0.243717 0.780920 0.660406
Si Si3 0.015413 0.459764 0.136128
Si Si4 0.863721 0.155508 0.591146
Si Si5 0.475181 0.224337 0.852830
Si Si6 0.069382 0.939790 0.106242
Si Si7 0.237093 0.538235 0.274035
Si Si8 0.675690 0.667014 0.490448
O O1 0.584285 0.988604 0.952145
O O2 0.732238 0.980707 0.889542
O O3 0.769343 0.087142 0.042455
O O4 0.779281 0.919537 0.076720
O O5 0.175428 0.807185 0.531940
O O6 0.344164 0.726358 0.664220
O O7 0.153110 0.734699 0.685745
O O8 0.276963 0.862463 0.735533
O O9 0.995751 0.365485 0.088935
O O10 0.137607 0.493534 0.177254
O O11 0.000000 0.461293 0.250000
O O12 0.981172 0.114277 0.626933
O O13 0.500000 0.214064 0.750000
O O14 0.551877 0.301999 0.914874
O O15 0.143501 0.003313 0.201402
O O16 0.152568 0.873523 0.088786
O O17 0.000000 0.000000 0.000000
O O18 0.750000 0.750000 0.500000
#
# Coordination Sequence:
#
# PCOD9263936 Si02
#       8
#     8   8   8   8   8   8   8   8
#     4   9  17  32  58  91 118 159 207 257 311 367
#     4  10  20  37  59  91 117 160 206 264 312 369
#     4   9  18  34  57  81 117 168 201 242 314 386
#     4  10  19  34  64  90 122 156 212 266 314 369
#     4  11  22  36  59  86 123 164 204 262 321 372
#     4  11  17  33  62  96 117 166 211 254 314 381
#     4   9  18  33  62  81 119 170 212 242 316 386
#     4  11  19  32  59  95 121 155 213 261 307 369
#
# _framework density 24.32555
#
# number of rings (size 3 to 8) (size 9 to 14) (size 15 to 20)
#    0.000    2.000    6.250    0.000    1.750    0.000 
#    0.000    1.875   19.250    1.500    0.000    0.000 
#    0.000    0.000    0.000    0.000    0.000    0.000 
#
# Total GULP energy -178762.140304 kJ/mol
# GULP energy per Si atom -5586.316884 kJ/mol
# Density = 2.427018 g / cm^3
# Si number density = 24.325550 Si / 1000 Ang^3
#
#
#
# Elastic Constant Matrix: (Units=GPa)
#
#
# Indices 1 2 3 4 5 6 
#
# 1 147.2210 54.0564 15.2430 0.0000 19.0660 0.0000
# 2 54.0564 110.0571 17.4406 0.0000 8.9888 0.0000
# 3 15.2430 17.4406 58.9736 0.0000 -0.3265 0.0000
# 4 0.0000 0.0000 0.0000 14.2264 0.0000 10.3835
# 5 19.0660 8.9888 -0.3265 0.0000 34.1381 0.0000
# 6 0.0000 0.0000 0.0000 10.3835 0.0000 36.4309
#
#
#
# Elastic Compliance Matrix: (Units=1/GPa)
#
#
# Indices 1 2 3 4 5 6 
#
# 1 0.008829 -0.003830 -0.001171 0.000000 -0.003934 0.000000
# 2 -0.003830 0.011419 -0.002392 0.000000 -0.000891 0.000000
# 3 -0.001171 -0.002392 0.017975 0.000000 0.001456 0.000000
# 4 0.000000 0.000000 0.000000 0.088755 0.000000 -0.025297
# 5 -0.003934 -0.000891 0.001456 0.000000 0.031738 0.000000
# 6 0.000000 0.000000 0.000000 -0.025297 0.000000 0.034659
#
#
# Mechanical properties :
#
#
# Convention : Reuss Voigt Hill
#
# Bulk Modulus (GPa) = 42.66737 54.41462 48.54100
# Shear Modulus (GPa) = 23.15081 32.25986 27.70534
#
# Velocity S-wave (km/s) = 3.08832 3.64561 3.37848
# Velocity P-wave (km/s) = 5.50411 6.33550 5.93438
#
# Compressibility (1/GPa) = 0.02343711
#
# Stress axis : x y z
#
# Youngs Moduli (GPa) = 113.25678 87.57267 55.63292
#
# Poissons Ratio (x) = 0.33539 0.06516
# Poissons Ratio (y) = 0.43375 0.13308
# Poissons Ratio (z) = 0.13266 0.20948
#
# Static dielectric constant tensor:
#      x y z
#    x 1.961510 0.000000 -0.037070 
#    y 0.000000 1.978620 0.000000 
#    z -0.037070 0.000000 1.972110 
# 
# From -- ./inp_files/205429.got.cif
#   From: 2010.05.17/outbox.cif.g08.bks.cpg/sg15_103_cif.got.tgz:205429.got - 2010.06.03 18:47:42.
