data_PCOD9263539
_publ_section_title
;
Structure prediction by ZEFSAII (Michael W. Deem and Ramdas Pophale) SiO2 
 PCOD9263539
Probable space group: C 2/C
;
_chemical_formula_sum "Si O2"
_cell_formula_units_Z 56
_cell_length_a 17.304989
_cell_length_b 4.991132
_cell_length_c 29.730360
_cell_angle_alpha 90.000000
_cell_angle_beta 93.402518
_cell_angle_gamma 90.000000
_cell_volume 2563.328761
_symmetry_space_group_name_H-M "C 2/C"
_symmetry_group_IT_number 15
_symmetry_cell_setting 'monoclinic'
loop_
_space_group_symop_operation_xyz
x,y,z
-x,y,1/2-z
-x,-y,-z
x,-y,1/2+z
1/2+x,1/2+y,z
1/2-x,1/2+y,1/2-z
1/2-x,1/2-y,-z
1/2+x,1/2-y,1/2+z
loop_
_atom_site_type_symbol
_atom_site_label
_atom_site_fract_x
_atom_site_fract_y
_atom_site_fract_z
Si Si1 0.837941 0.494929 0.662334
Si Si2 0.049530 0.385079 0.412349
Si Si3 0.728194 0.005938 0.148342
Si Si4 0.686708 0.946481 0.477807
Si Si5 0.824117 0.220848 0.439652
Si Si6 0.530548 0.409348 0.050897
Si Si7 0.198934 0.606163 0.743256
O O1 0.911926 0.531524 0.633216
O O2 0.799656 0.202812 0.656762
O O3 0.854342 0.555793 0.715460
O O4 0.769390 0.705658 0.645795
O O5 0.122874 0.307981 0.445981
O O6 0.004048 0.626288 0.435269
O O7 0.998000 0.123474 0.412825
O O8 0.679262 0.898409 0.104882
O O9 0.677913 0.982325 0.192262
O O10 0.750000 0.750000 0.500000
O O11 0.735373 0.148810 0.448371
O O12 0.647824 0.108385 0.516711
O O13 0.877293 0.957731 0.442414
O O14 0.500000 0.500000 0.000000
O O15 0.273236 0.413324 0.755934
#
# Coordination Sequence:
#
# PCOD9263539 Si02
#       7
#     8   8   8   8   8   8   8
#     4  10  19  35  58  87 116 146 193 240 294 355
#     4  12  24  40  60  82 118 159 199 236 292 355
#     4  10  19  34  57  89 115 147 188 250 295 345
#     4  11  23  37  60  84 114 156 196 250 293 332
#     4  11  24  37  57  85 118 153 197 245 291 347
#     4  12  26  42  56  81 121 163 196 237 292 354
#     4   8  16  30  53  84 117 141 176 238 302 341
#
# _framework density 21.846592000000001
#
# number of rings (size 3 to 8) (size 9 to 14) (size 15 to 20)
#    0.000    1.429    2.857    3.000    4.000    0.000 
#    0.000    0.000    0.000    0.857    0.000    2.000 
#    0.000    0.000    0.000    0.000    0.000    0.000 
#
# Total GULP energy -156464.084182 kJ/mol
# GULP energy per Si atom -5588.003006 kJ/mol
# Density = 2.179687 g / cm^3
# Si number density = 21.846592 Si / 1000 Ang^3
#
#
#
# Elastic Constant Matrix: (Units=GPa)
#
#
# Indices 1 2 3 4 5 6 
#
# 1 59.8294 10.2803 32.1973 0.0000 -20.2927 0.0000
# 2 10.2803 83.4354 -4.3222 0.0000 -5.8093 0.0000
# 3 32.1973 -4.3222 127.7227 0.0000 -24.9933 0.0000
# 4 0.0000 0.0000 0.0000 26.6515 0.0000 -3.6750
# 5 -20.2927 -5.8093 -24.9933 0.0000 26.3908 0.0000
# 6 0.0000 0.0000 0.0000 -3.6750 0.0000 32.2834
#
#
#
# Elastic Compliance Matrix: (Units=1/GPa)
#
#
# Indices 1 2 3 4 5 6 
#
# 1 0.023811 -0.002063 -0.003165 0.000000 0.014858 0.000000
# 2 -0.002063 0.012490 0.001437 0.000000 0.002523 0.000000
# 3 -0.003165 0.001437 0.010141 0.000000 0.007486 0.000000
# 4 0.000000 0.000000 0.000000 0.038120 0.000000 0.004339
# 5 0.014858 0.002523 0.007486 0.000000 0.056962 0.000000
# 6 0.000000 0.000000 0.000000 0.004339 0.000000 0.031470
#
#
# Mechanical properties :
#
#
# Convention : Reuss Voigt Hill
#
# Bulk Modulus (GPa) = 25.73442 38.58872 32.16157
# Shear Modulus (GPa) = 25.83584 32.58727 29.21156
#
# Velocity S-wave (km/s) = 3.44263 3.86637 3.66063
# Velocity P-wave (km/s) = 5.25428 6.13462 5.71144
#
# Compressibility (1/GPa) = 0.03885846
#
# Stress axis : x y z
#
# Youngs Moduli (GPa) = 41.99676 80.06633 98.61050
#
# Poissons Ratio (x) = 0.16520 0.31210
# Poissons Ratio (y) = 0.08665 -0.14166
# Poissons Ratio (z) = 0.13292 -0.11502
#
# Static dielectric constant tensor:
#      x y z
#    x 1.841180 0.000000 -0.045470 
#    y 0.000000 1.833110 0.000000 
#    z -0.045470 0.000000 1.861190 
# 
# From -- ./inp_files/312368.got.cif
#   From: 2010.05.17/outbox.cif.g08.bks.cpg/sg15_157_cif.got.tgz:312368.got - 2010.06.03 18:47:42.
