data_PCOD9263796
_publ_section_title
;
Structure prediction by ZEFSAII (Michael W. Deem and Ramdas Pophale) SiO2 
 PCOD9263796
Probable space group: C 2/C
;
_chemical_formula_sum "Si O2"
_cell_formula_units_Z 56
_cell_length_a 8.950392
_cell_length_b 27.352297
_cell_length_c 11.709793
_cell_angle_alpha 90.000000
_cell_angle_beta 61.474214
_cell_angle_gamma 90.000000
_cell_volume 2518.705572
_symmetry_space_group_name_H-M "C 2/C"
_symmetry_group_IT_number 15
_symmetry_cell_setting 'monoclinic'
loop_
_space_group_symop_operation_xyz
x,y,z
-x,y,1/2-z
-x,-y,-z
x,-y,1/2+z
1/2+x,1/2+y,z
1/2-x,1/2+y,1/2-z
1/2-x,1/2-y,-z
1/2+x,1/2-y,1/2+z
loop_
_atom_site_type_symbol
_atom_site_label
_atom_site_fract_x
_atom_site_fract_y
_atom_site_fract_z
Si Si1 0.240737 0.039439 0.906968
Si Si2 0.814947 0.673682 0.372385
Si Si3 0.860973 0.874247 0.899187
Si Si4 0.000913 0.224216 0.386752
Si Si5 0.399631 0.925749 0.133701
Si Si6 0.489784 0.170702 0.976734
Si Si7 0.328477 0.935364 0.889568
O O1 0.432749 0.044584 0.889791
O O2 0.251775 0.057343 0.772339
O O3 0.206610 0.981869 0.919404
O O4 0.144321 0.077659 0.022058
O O5 0.688503 0.712408 0.364966
O O6 0.755501 0.617401 0.380294
O O7 0.000000 0.678462 0.250000
O O8 0.858845 0.679255 0.489172
O O9 0.000000 0.879265 0.750000
O O10 0.901922 0.825247 0.956109
O O11 0.674427 0.859571 0.916510
O O12 0.000000 0.226490 0.250000
O O13 0.937348 0.275804 0.455671
O O14 0.438489 0.868286 0.140053
O O15 0.369309 0.932496 0.010193
O O16 0.500000 0.942011 0.750000
#
# Coordination Sequence:
#
# PCOD9263796 Si02
#       7
#     8   8   8   8   8   8   8
#     4  10  19  34  60  90 127 164 206 270 312 371
#     4  10  21  39  61  92 127 163 210 254 312 382
#     4  10  22  39  58  93 126 166 216 263 317 384
#     4  11  23  39  63  92 127 164 212 262 321 379
#     4   9  19  34  58  99 123 155 216 260 319 369
#     4  10  21  39  67  89 127 163 205 270 313 382
#     4  10  19  34  62  94 128 166 206 263 313 379
#
# _framework density 22.233644000000002
#
# number of rings (size 3 to 8) (size 9 to 14) (size 15 to 20)
#    0.000    2.000    1.429    3.000    4.000    2.286 
#    0.000    0.714    0.000    0.000    0.000    0.000 
#    0.000    0.000    0.000    0.000    0.000    0.000 
#
# Total GULP energy -156278.776706 kJ/mol
# GULP energy per Si atom -5581.384882 kJ/mol
# Density = 2.218304 g / cm^3
# Si number density = 22.233644 Si / 1000 Ang^3
#
#
#
# Elastic Constant Matrix: (Units=GPa)
#
#
# Indices 1 2 3 4 5 6 
#
# 1 77.7418 24.2321 27.8575 0.0000 5.8748 0.0000
# 2 24.2321 160.3272 56.9338 0.0000 -12.2331 0.0000
# 3 27.8575 56.9338 107.2314 0.0000 11.0460 0.0000
# 4 0.0000 0.0000 0.0000 19.4696 0.0000 -6.6508
# 5 5.8748 -12.2331 11.0460 0.0000 26.4647 0.0000
# 6 0.0000 0.0000 0.0000 -6.6508 0.0000 7.0865
#
#
#
# Elastic Compliance Matrix: (Units=1/GPa)
#
#
# Indices 1 2 3 4 5 6 
#
# 1 0.014492 -0.001433 -0.002721 0.000000 -0.002744 0.000000
# 2 -0.001433 0.008677 -0.004891 0.000000 0.006370 0.000000
# 3 -0.002721 -0.004891 0.013375 0.000000 -0.007239 0.000000
# 4 0.000000 0.000000 0.000000 0.075599 0.000000 0.070950
# 5 -0.002744 0.006370 -0.007239 0.000000 0.044361 0.000000
# 6 0.000000 0.000000 0.000000 0.070950 0.000000 0.207701
#
#
# Mechanical properties :
#
#
# Convention : Reuss Voigt Hill
#
# Bulk Modulus (GPa) = 54.19062 62.59411 58.39236
# Shear Modulus (GPa) = 12.87178 26.35595 19.61386
#
# Velocity S-wave (km/s) = 2.40871 3.44671 2.97336
# Velocity P-wave (km/s) = 5.67116 6.63730 6.17316
#
# Compressibility (1/GPa) = 0.01845338
#
# Stress axis : x y z
#
# Youngs Moduli (GPa) = 69.00190 115.25179 74.76684
#
# Poissons Ratio (x) = 0.16520 0.20346
# Poissons Ratio (y) = 0.09891 0.36566
# Poissons Ratio (z) = 0.18777 0.56365
#
# Static dielectric constant tensor:
#      x y z
#    x 1.890430 0.000000 0.000660 
#    y 0.000000 1.848190 0.000000 
#    z 0.000660 0.000000 1.853240 
# 
# From -- ./inp_files/81284.got.cif
#   From: 2010.05.17/outbox.cif.g08.bks.cpg/sg15_41_cif.got.tgz:81284.got - 2010.06.03 18:47:42.
