data_PCOD9263087
_publ_section_title
;
Structure prediction by ZEFSAII (Michael W. Deem and Ramdas Pophale) SiO2 
 PCOD9263087
Probable space group: C 2/C
;
_chemical_formula_sum "Si O2"
_cell_formula_units_Z 64
_cell_length_a 13.396490
_cell_length_b 14.220218
_cell_length_c 21.918311
_cell_angle_alpha 90.000000
_cell_angle_beta 130.210536
_cell_angle_gamma 90.000000
_cell_volume 3188.704382
_symmetry_space_group_name_H-M "C 2/C"
_symmetry_group_IT_number 15
_symmetry_cell_setting 'monoclinic'
loop_
_space_group_symop_operation_xyz
x,y,z
-x,y,1/2-z
-x,-y,-z
x,-y,1/2+z
1/2+x,1/2+y,z
1/2-x,1/2+y,1/2-z
1/2-x,1/2-y,-z
1/2+x,1/2-y,1/2+z
loop_
_atom_site_type_symbol
_atom_site_label
_atom_site_fract_x
_atom_site_fract_y
_atom_site_fract_z
Si Si1 0.446554 0.038610 0.543196
Si Si2 0.050493 0.155313 0.134205
Si Si3 0.273213 0.315962 0.567561
Si Si4 0.811576 0.661433 0.823045
Si Si5 0.855126 0.830556 0.119303
Si Si6 0.095789 0.063024 0.663561
Si Si7 0.112033 0.342934 0.939445
Si Si8 0.559192 0.706808 0.543584
O O1 0.307319 0.088151 0.476355
O O2 0.547839 0.115367 0.607691
O O3 0.500000 0.000000 0.500000
O O4 0.439047 0.948586 0.584087
O O5 0.161906 0.232720 0.188742
O O6 0.927210 0.168411 0.130965
O O7 0.094081 0.048256 0.156461
O O8 0.998593 0.177961 0.044915
O O9 0.250000 0.250000 0.500000
O O10 0.197798 0.259613 0.590364
O O11 0.726537 0.659727 0.851463
O O12 0.731338 0.600666 0.743502
O O13 0.893745 0.721628 0.122670
O O14 0.979790 0.897613 0.161688
O O15 0.758111 0.851748 0.024217
O O16 0.070544 0.115484 0.589775
O O17 0.033013 0.282338 0.958795
#
# Coordination Sequence:
#
# PCOD9263087 Si02
#       8
#     8   8   8   8   8   8   8   8
#     4  12  19  36  65  92 121 162 207 251 298 366
#     4  11  22  43  64  89 122 165 206 258 303 373
#     4  10  19  37  64  93 119 155 204 257 301 343
#     4  12  24  43  58  89 132 159 197 261 318 361
#     4  10  20  40  59  90 124 153 204 256 303 359
#     4  11  26  38  63  90 121 164 205 248 316 380
#     4  10  19  33  66  97 113 157 210 252 297 357
#     4  10  19  41  63  93 122 159 204 257 302 367
#
# _framework density 20.070848000000002
#
# number of rings (size 3 to 8) (size 9 to 14) (size 15 to 20)
#    0.000    1.250    6.250    1.500    0.000    2.000 
#    4.500    0.625    0.000    0.000    0.000    0.000 
#    0.000    0.000    0.000    0.000    0.000    0.000 
#
# Total GULP energy -178732.851987 kJ/mol
# GULP energy per Si atom -5585.401625 kJ/mol
# Density = 2.002517 g / cm^3
# Si number density = 20.070848 Si / 1000 Ang^3
#
#
#
# Elastic Constant Matrix: (Units=GPa)
#
#
# Indices 1 2 3 4 5 6 
#
# 1 61.2233 26.3053 12.4750 0.0000 12.7898 0.0000
# 2 26.3053 168.0934 24.1938 0.0000 8.6125 0.0000
# 3 12.4750 24.1938 43.0876 0.0000 10.3763 0.0000
# 4 0.0000 0.0000 0.0000 23.0479 0.0000 10.7020
# 5 12.7898 8.6125 10.3763 0.0000 14.8691 0.0000
# 6 0.0000 0.0000 0.0000 10.7020 0.0000 28.6301
#
#
#
# Elastic Compliance Matrix: (Units=1/GPa)
#
#
# Indices 1 2 3 4 5 6 
#
# 1 0.020846 -0.002316 -0.000889 0.000000 -0.015969 0.000000
# 2 -0.002316 0.006756 -0.003198 0.000000 0.000310 0.000000
# 3 -0.000889 -0.003198 0.029607 0.000000 -0.018044 0.000000
# 4 0.000000 0.000000 0.000000 0.052501 0.000000 -0.019625
# 5 -0.015969 0.000310 -0.018044 0.000000 0.093401 0.000000
# 6 0.000000 0.000000 0.000000 -0.019625 0.000000 0.042264
#
#
# Mechanical properties :
#
#
# Convention : Reuss Voigt Hill
#
# Bulk Modulus (GPa) = 22.52134 44.26138 33.39136
# Shear Modulus (GPa) = 18.31626 27.27141 22.79384
#
# Velocity S-wave (km/s) = 3.02417 3.69013 3.37362
# Velocity P-wave (km/s) = 4.84143 6.34480 5.64340
#
# Compressibility (1/GPa) = 0.04440234
#
# Stress axis : x y z
#
# Youngs Moduli (GPa) = 47.97103 148.01995 33.77604
#
# Poissons Ratio (x) = 0.34282 0.03004
# Poissons Ratio (y) = 0.11110 0.10800
# Poissons Ratio (z) = 0.04267 0.47332
#
# Static dielectric constant tensor:
#      x y z
#    x 1.736930 0.000000 0.019850 
#    y 0.000000 1.698350 0.000000 
#    z 0.019850 0.000000 1.716030 
# 
# From -- ./inp_files/296415.got.cif
#   From: 2010.05.17/outbox.cif.g08.bks.cpg/sg15_149_cif.got.tgz:296415.got - 2010.06.03 18:47:42.
