data_PCOD9263409
_publ_section_title
;
Structure prediction by ZEFSAII (Michael W. Deem and Ramdas Pophale) SiO2 
 PCOD9263409
Probable space group: C 2/C
;
_chemical_formula_sum "Si O2"
_cell_formula_units_Z 60
_cell_length_a 16.219243
_cell_length_b 11.444323
_cell_length_c 20.621070
_cell_angle_alpha 90.000000
_cell_angle_beta 38.336436
_cell_angle_gamma 90.000000
_cell_volume 2374.205130
_symmetry_space_group_name_H-M "C 2/C"
_symmetry_group_IT_number 15
_symmetry_cell_setting 'monoclinic'
loop_
_space_group_symop_operation_xyz
x,y,z
-x,y,1/2-z
-x,-y,-z
x,-y,1/2+z
1/2+x,1/2+y,z
1/2-x,1/2+y,1/2-z
1/2-x,1/2-y,-z
1/2+x,1/2-y,1/2+z
loop_
_atom_site_type_symbol
_atom_site_label
_atom_site_fract_x
_atom_site_fract_y
_atom_site_fract_z
Si Si1 0.996694 0.359864 0.166089
Si Si2 0.962915 0.215691 0.075692
Si Si3 0.296991 0.403937 0.148581
Si Si4 0.796197 0.664177 0.327066
Si Si5 0.570682 0.125116 0.121284
Si Si6 0.250000 0.250000 0.000000
Si Si7 0.414973 0.501045 0.202931
Si Si8 0.303411 0.489964 0.414428
O O1 0.013848 0.332416 0.078516
O O2 0.841219 0.337250 0.271731
O O3 0.023620 0.492874 0.166841
O O4 0.108372 0.276743 0.125765
O O5 0.831310 0.236236 0.115952
O O6 0.933173 0.122748 0.152053
O O7 0.084029 0.158367 0.962136
O O8 0.265725 0.532715 0.138966
O O9 0.339589 0.423952 0.196228
O O10 0.856689 0.679209 0.361022
O O11 0.925015 0.680881 0.200731
O O12 0.683776 0.101701 0.998741
O O13 0.235850 0.110202 0.025226
O O14 0.336455 0.510477 0.318763
O O15 0.560411 0.452742 0.133043
#
# Coordination Sequence:
#
# PCOD9263409 Si02
#       8
#     8   8   8   8   8   4   8   8
#     4  10  22  35  54  88 121 154 194 250 321 361
#     4  11  20  37  56  84 118 162 204 252 309 378
#     4  10  21  37  57  77 118 165 205 252 300 378
#     4   9  18  34  59  81 116 160 210 240 299 382
#     4   9  18  35  53  88 114 156 198 253 303 359
#     4  10  20  38  52  86 130 150 182 246 324 372
#     4  10  20  36  55  85 116 163 213 241 302 376
#     4  10  19  34  56  84 119 155 194 253 302 369
#
# _framework density 25.271616999999999
#
# number of rings (size 3 to 8) (size 9 to 14) (size 15 to 20)
#    0.000    2.133    1.333    3.200    1.867    2.133 
#   12.000   12.000    0.000    3.200    0.000    9.333 
#    0.000    0.000    0.000    0.000    0.000    0.000 
#
# Total GULP energy -167251.103322 kJ/mol
# GULP energy per Si atom -5575.036777 kJ/mol
# Density = 2.521410 g / cm^3
# Si number density = 25.271617 Si / 1000 Ang^3
#
#
#
# Elastic Constant Matrix: (Units=GPa)
#
#
# Indices 1 2 3 4 5 6 
#
# 1 136.0190 31.1613 62.5489 0.0000 -10.7924 0.0000
# 2 31.1613 63.6070 24.4351 0.0000 -4.9370 0.0000
# 3 62.5489 24.4351 161.6140 0.0000 -11.4662 0.0000
# 4 0.0000 0.0000 0.0000 14.4847 0.0000 -7.2858
# 5 -10.7924 -4.9370 -11.4662 0.0000 38.8388 0.0000
# 6 0.0000 0.0000 0.0000 -7.2858 0.0000 37.6892
#
#
#
# Elastic Compliance Matrix: (Units=1/GPa)
#
#
# Indices 1 2 3 4 5 6 
#
# 1 0.009687 -0.003438 -0.003135 0.000000 0.001329 0.000000
# 2 -0.003438 0.017987 -0.001322 0.000000 0.000941 0.000000
# 3 -0.003135 -0.001322 0.007688 0.000000 0.001231 0.000000
# 4 0.000000 0.000000 0.000000 0.076475 0.000000 0.014783
# 5 0.001329 0.000941 0.001231 0.000000 0.026600 0.000000
# 6 0.000000 0.000000 0.000000 0.014783 0.000000 0.029391
#
#
# Mechanical properties :
#
#
# Convention : Reuss Voigt Hill
#
# Bulk Modulus (GPa) = 51.09508 66.39227 58.74367
# Shear Modulus (GPa) = 26.29638 34.40884 30.35261
#
# Velocity S-wave (km/s) = 3.22926 3.69394 3.46938
# Velocity P-wave (km/s) = 5.84520 6.67249 6.27250
#
# Compressibility (1/GPa) = 0.01957136
#
# Stress axis : x y z
#
# Youngs Moduli (GPa) = 103.23543 55.59638 130.07178
#
# Poissons Ratio (x) = 0.19114 0.40776
# Poissons Ratio (y) = 0.35493 0.17197
# Poissons Ratio (z) = 0.32363 0.07351
#
# Static dielectric constant tensor:
#      x y z
#    x 2.098520 0.000000 0.050350 
#    y 0.000000 1.980960 0.000000 
#    z 0.050350 0.000000 2.243600 
# 
# From -- ./inp_files/244689.got.cif
#   From: 2010.05.17/outbox.cif.g08.bks.cpg/sg15_123_cif.got.tgz:244689.got - 2010.06.03 18:47:42.
