data_PCOD9263357
_publ_section_title
;
Structure prediction by ZEFSAII (Michael W. Deem and Ramdas Pophale) SiO2 
 PCOD9263357
Probable space group: C 2/C
;
_chemical_formula_sum "Si O2"
_cell_formula_units_Z 64
_cell_length_a 17.349980
_cell_length_b 25.132191
_cell_length_c 13.489802
_cell_angle_alpha 90.000000
_cell_angle_beta 33.941565
_cell_angle_gamma 90.000000
_cell_volume 3284.272345
_symmetry_space_group_name_H-M "C 2/C"
_symmetry_group_IT_number 15
_symmetry_cell_setting 'monoclinic'
loop_
_space_group_symop_operation_xyz
x,y,z
-x,y,1/2-z
-x,-y,-z
x,-y,1/2+z
1/2+x,1/2+y,z
1/2-x,1/2+y,1/2-z
1/2-x,1/2-y,-z
1/2+x,1/2-y,1/2+z
loop_
_atom_site_type_symbol
_atom_site_label
_atom_site_fract_x
_atom_site_fract_y
_atom_site_fract_z
Si Si1 0.362451 0.431370 0.590402
Si Si2 0.298497 0.467965 0.865674
Si Si3 0.005581 0.581788 0.635765
Si Si4 0.617593 0.228872 0.204123
Si Si5 0.724711 0.917742 0.380008
Si Si6 0.556958 0.659751 0.800271
Si Si7 0.429701 0.119865 0.136726
Si Si8 0.711658 0.542056 0.905693
O O1 0.383496 0.443930 0.683936
O O2 0.459123 0.382744 0.457879
O O3 0.206255 0.415690 0.727893
O O4 0.371648 0.487991 0.526371
O O5 0.285791 0.532014 0.875723
O O6 0.335698 0.443178 0.932235
O O7 0.143690 0.452226 0.997375
O O8 0.015964 0.623050 0.534809
O O9 0.000000 0.608145 0.750000
O O10 0.878032 0.542102 0.750070
O O11 0.500000 0.217655 0.250000
O O12 0.567692 0.279390 0.323107
O O13 0.622841 0.175265 0.262015
O O14 0.750000 0.250000 0.000000
O O15 0.791747 0.865560 0.355150
O O16 0.559407 0.908614 0.553282
O O17 0.782557 0.926403 0.205323
O O18 0.500000 0.662548 0.750000
#
# Coordination Sequence:
#
# PCOD9263357 Si02
#       8
#     8   8   8   8   8   8   8   8
#     4  10  20  33  52  76 105 139 170 204 259 308
#     4   9  17  30  49  77 109 138 167 207 252 305
#     4   8  15  29  51  79 109 134 164 211 264 303
#     4  11  23  38  55  77 103 134 174 219 268 312
#     4  10  20  33  53  77 102 137 176 208 252 306
#     4  11  23  38  51  71 103 135 168 214 262 309
#     4  10  19  34  56  78 100 133 176 219 255 304
#     4   9  17  30  49  77 108 137 171 209 246 305
#
# _framework density 19.486813000000001
#
# number of rings (size 3 to 8) (size 9 to 14) (size 15 to 20)
#    0.000    2.250    0.000    3.750    0.000    6.000 
#    0.000    1.875    0.000    1.500    0.000    7.875 
#    0.000    0.000    0.000    0.000    0.000    0.000 
#
# Total GULP energy -178175.020305 kJ/mol
# GULP energy per Si atom -5567.969385 kJ/mol
# Density = 1.944246 g / cm^3
# Si number density = 19.486813 Si / 1000 Ang^3
#
#
#
# Elastic Constant Matrix: (Units=GPa)
#
#
# Indices 1 2 3 4 5 6 
#
# 1 56.4226 23.8643 21.8851 0.0003 2.0489 -0.0003
# 2 23.8643 88.4560 22.2411 -0.0005 10.0140 0.0001
# 3 21.8851 22.2411 70.3082 -0.0038 -9.3692 0.0013
# 4 0.0003 -0.0005 -0.0038 24.6023 0.0014 -2.5694
# 5 2.0489 10.0140 -9.3692 0.0014 30.0028 -0.0002
# 6 -0.0003 0.0001 0.0013 -2.5694 -0.0002 19.9860
#
#
#
# Elastic Compliance Matrix: (Units=1/GPa)
#
#
# Indices 1 2 3 4 5 6 
#
# 1 0.021790 -0.004239 -0.005688 -0.000001 -0.001849 0.000001
# 2 -0.004239 0.014059 -0.003876 0.000000 -0.005613 0.000000
# 3 -0.005688 -0.003876 0.018201 0.000002 0.007366 -0.000001
# 4 -0.000001 0.000000 0.000002 0.041200 -0.000001 0.005297
# 5 -0.001849 -0.005613 0.007366 -0.000001 0.037630 0.000000
# 6 0.000001 0.000000 -0.000001 0.005297 0.000000 0.050716
#
#
# Mechanical properties :
#
#
# Convention : Reuss Voigt Hill
#
# Bulk Modulus (GPa) = 37.81587 39.01863 38.41725
# Shear Modulus (GPa) = 22.72561 24.73131 23.72846
#
# Velocity S-wave (km/s) = 3.41868 3.56635 3.49329
# Velocity P-wave (km/s) = 5.91871 6.08482 6.00234
#
# Compressibility (1/GPa) = 0.02644392
#
# Stress axis : x y z
#
# Youngs Moduli (GPa) = 45.89313 71.13051 54.94123
#
# Poissons Ratio (x) = 0.30153 0.31251
# Poissons Ratio (y) = 0.19454 0.21294
# Poissons Ratio (z) = 0.26104 0.27569
#
# Static dielectric constant tensor:
#      x y z
#    x 1.713570 0.000000 0.010100 
#    y 0.000000 1.669390 0.000000 
#    z 0.010100 0.000000 1.801910 
# 
# From -- ./inp_files/164212.got.cif
#   From: 2010.05.17/outbox.cif.g08.bks.cpg/sg15_83_cif.got.tgz:164212.got - 2010.06.03 18:47:42.
