data_PCOD9263289
_publ_section_title
;
Structure prediction by ZEFSAII (Michael W. Deem and Ramdas Pophale) SiO2 
 PCOD9263289
Probable space group: C 2/C
;
_chemical_formula_sum "Si O2"
_cell_formula_units_Z 56
_cell_length_a 8.006198
_cell_length_b 33.871259
_cell_length_c 11.275605
_cell_angle_alpha 90.000000
_cell_angle_beta 58.049649
_cell_angle_gamma 90.000000
_cell_volume 2594.495581
_symmetry_space_group_name_H-M "C 2/C"
_symmetry_group_IT_number 15
_symmetry_cell_setting 'monoclinic'
loop_
_space_group_symop_operation_xyz
x,y,z
-x,y,1/2-z
-x,-y,-z
x,-y,1/2+z
1/2+x,1/2+y,z
1/2-x,1/2+y,1/2-z
1/2-x,1/2-y,-z
1/2+x,1/2-y,1/2+z
loop_
_atom_site_type_symbol
_atom_site_label
_atom_site_fract_x
_atom_site_fract_y
_atom_site_fract_z
Si Si1 0.976737 0.261993 0.898694
Si Si2 0.462497 0.322718 0.120471
Si Si3 0.604424 0.843915 0.585634
Si Si4 0.179782 0.902068 0.430674
Si Si5 0.713817 0.534059 0.727731
Si Si6 0.147486 0.947649 0.808197
Si Si7 0.486209 0.078626 0.022151
O O1 0.098551 0.222592 0.884957
O O2 0.003578 0.306335 0.937646
O O3 0.000000 0.267403 0.750000
O O4 0.750000 0.250000 0.000000
O O5 0.500000 0.325552 0.250000
O O6 0.334160 0.357960 0.115064
O O7 0.673171 0.330024 0.979900
O O8 0.500000 0.851557 0.750000
O O9 0.613508 0.883128 0.504528
O O10 0.252360 0.929905 0.299257
O O11 0.330764 0.908153 0.480739
O O12 0.969800 0.921539 0.552074
O O13 0.500000 0.538910 0.750000
O O14 0.699266 0.493694 0.808922
O O15 0.882755 0.540981 0.565573
O O16 0.351193 0.929848 0.686893
O O17 0.000000 0.948772 0.750000
#
# Coordination Sequence:
#
# PCOD9263289 Si02
#       7
#     8   8   8   8   8   8   8
#     4   8  16  30  51  76 104 137 177 220 257 301
#     4  10  19  34  55  79 107 143 182 218 260 315
#     4  10  19  34  55  80 106 139 182 222 260 314
#     4  11  21  36  55  80 111 142 174 221 276 322
#     4  11  22  38  57  77 103 142 186 223 262 320
#     4   9  21  38  55  76 106 141 179 221 269 320
#     4  11  22  36  55  82 111 138 174 225 276 320
#
# _framework density 21.584157999999999
#
# number of rings (size 3 to 8) (size 9 to 14) (size 15 to 20)
#    0.000    2.000    0.000    4.286    0.000    0.000 
#    0.000    6.429    0.000    0.000    0.000   16.000 
#    0.000    0.000    0.000    0.000    0.000    0.143 
#
# Total GULP energy -156086.995580 kJ/mol
# GULP energy per Si atom -5574.535556 kJ/mol
# Density = 2.153503 g / cm^3
# Si number density = 21.584158 Si / 1000 Ang^3
#
#
#
# Elastic Constant Matrix: (Units=GPa)
#
#
# Indices 1 2 3 4 5 6 
#
# 1 39.7075 20.0426 -1.7839 0.0000 1.1080 0.0000
# 2 20.0426 138.1144 -15.2110 0.0000 8.2014 0.0000
# 3 -1.7839 -15.2110 74.3130 0.0000 -17.7272 0.0000
# 4 0.0000 0.0000 0.0000 35.6584 0.0000 1.1803
# 5 1.1080 8.2014 -17.7272 0.0000 20.4431 0.0000
# 6 0.0000 0.0000 0.0000 1.1803 0.0000 13.6672
#
#
#
# Elastic Compliance Matrix: (Units=1/GPa)
#
#
# Indices 1 2 3 4 5 6 
#
# 1 0.027176 -0.003960 -0.000165 0.000000 -0.000027 0.000000
# 2 -0.003960 0.008056 0.001052 0.000000 -0.002105 0.000000
# 3 -0.000165 0.001052 0.017108 0.000000 0.014422 0.000000
# 4 0.000000 0.000000 0.000000 0.028124 0.000000 -0.002429
# 5 -0.000027 -0.002105 0.014422 0.000000 0.062269 0.000000
# 6 0.000000 0.000000 0.000000 -0.002429 0.000000 0.073378
#
#
# Mechanical properties :
#
#
# Convention : Reuss Voigt Hill
#
# Bulk Modulus (GPa) = 21.64775 28.69226 25.17001
# Shear Modulus (GPa) = 21.03880 30.55954 25.79917
#
# Velocity S-wave (km/s) = 3.12546 3.76684 3.46104
# Velocity P-wave (km/s) = 4.80374 5.67810 5.25912
#
# Compressibility (1/GPa) = 0.04619418
#
# Stress axis : x y z
#
# Youngs Moduli (GPa) = 36.79652 124.13251 58.45094
#
# Poissons Ratio (x) = 0.49160 0.00963
# Poissons Ratio (y) = 0.14572 -0.06147
# Poissons Ratio (z) = 0.00606 -0.13055
#
# Static dielectric constant tensor:
#      x y z
#    x 1.846990 0.000000 0.012550 
#    y 0.000000 1.893330 0.000000 
#    z 0.012550 0.000000 1.791440 
# 
# From -- ./inp_files/82449.got.cif
#   From: 2010.05.17/outbox.cif.g08.bks.cpg/sg15_42_cif.got.tgz:82449.got - 2010.06.03 18:47:42.
