data_PCOD9263413
_publ_section_title
;
Structure prediction by ZEFSAII (Michael W. Deem and Ramdas Pophale) SiO2 
 PCOD9263413
Probable space group: C 2/C
;
_chemical_formula_sum "Si O2"
_cell_formula_units_Z 64
_cell_length_a 22.203044
_cell_length_b 13.490506
_cell_length_c 13.609396
_cell_angle_alpha 90.000000
_cell_angle_beta 46.059091
_cell_angle_gamma 90.000000
_cell_volume 2935.254673
_symmetry_space_group_name_H-M "C 2/C"
_symmetry_group_IT_number 15
_symmetry_cell_setting 'monoclinic'
loop_
_space_group_symop_operation_xyz
x,y,z
-x,y,1/2-z
-x,-y,-z
x,-y,1/2+z
1/2+x,1/2+y,z
1/2-x,1/2+y,1/2-z
1/2-x,1/2-y,-z
1/2+x,1/2-y,1/2+z
loop_
_atom_site_type_symbol
_atom_site_label
_atom_site_fract_x
_atom_site_fract_y
_atom_site_fract_z
Si Si1 0.156393 0.736720 0.468641
Si Si2 0.767730 0.655066 0.696316
Si Si3 0.003527 0.197462 0.996864
Si Si4 0.536776 0.888316 0.840707
Si Si5 0.614178 0.973341 0.951268
Si Si6 0.654067 0.240377 0.070911
Si Si7 0.913348 0.138047 0.284788
Si Si8 0.388987 0.582692 0.759151
O O1 0.235912 0.784379 0.325324
O O2 0.079765 0.771509 0.484034
O O3 0.150756 0.617599 0.473329
O O4 0.142461 0.786912 0.589329
O O5 0.818553 0.555235 0.653402
O O6 0.827534 0.722999 0.562824
O O7 0.688125 0.620310 0.720741
O O8 0.930586 0.177661 0.155936
O O9 0.995839 0.288215 0.930453
O O10 0.031114 0.102904 0.900942
O O11 0.587021 0.929248 0.877245
O O12 0.600569 0.848093 0.684268
O O13 0.465196 0.971938 0.906859
O O14 0.608562 0.340870 0.153097
O O15 0.750000 0.250000 0.000000
O O16 0.000000 0.129842 0.250000
O O17 0.879341 0.027441 0.309093
#
# Coordination Sequence:
#
# PCOD9263413 Si02
#       8
#     8   8   8   8   8   8   8   8
#     4   9  20  37  56  79 119 158 192 236 301 361
#     4  10  21  37  56  80 112 156 198 239 293 356
#     4   8  16  35  57  80 115 144 187 242 294 342
#     4   9  19  37  59  85 114 151 197 243 296 355
#     4  10  20  39  57  84 114 153 194 247 298 347
#     4   9  18  36  59  82 113 152 188 238 295 344
#     4  10  19  34  56  85 113 153 188 236 306 358
#     4   9  18  35  58  80 112 151 190 237 289 355
#
# _framework density 21.803899999999999
#
# number of rings (size 3 to 8) (size 9 to 14) (size 15 to 20)
#    0.000    2.750    0.000    2.625    0.000    3.500 
#   20.250    0.625    0.000    0.000    0.000    0.000 
#    0.000    0.000    0.000    0.000    0.000    0.000 
#
# Total GULP energy -178500.431480 kJ/mol
# GULP energy per Si atom -5578.138484 kJ/mol
# Density = 2.175427 g / cm^3
# Si number density = 21.803900 Si / 1000 Ang^3
#
#
#
# Elastic Constant Matrix: (Units=GPa)
#
#
# Indices 1 2 3 4 5 6 
#
# 1 27.1578 5.4086 28.0896 0.0000 -2.1118 0.0000
# 2 5.4086 130.5021 85.3987 0.0000 2.2465 0.0000
# 3 28.0896 85.3987 190.4593 0.0000 4.3373 0.0000
# 4 0.0000 0.0000 0.0000 23.4964 0.0000 -6.8052
# 5 -2.1118 2.2465 4.3373 0.0000 13.6245 0.0000
# 6 0.0000 0.0000 0.0000 -6.8052 0.0000 20.1966
#
#
#
# Elastic Compliance Matrix: (Units=1/GPa)
#
#
# Indices 1 2 3 4 5 6 
#
# 1 0.045652 0.003528 -0.008524 0.000000 0.009208 0.000000
# 2 0.003528 0.011118 -0.005516 0.000000 0.000470 0.000000
# 3 -0.008524 -0.005516 0.009056 0.000000 -0.003295 0.000000
# 4 0.000000 0.000000 0.000000 0.047162 0.000000 0.015891
# 5 0.009208 0.000470 -0.003295 0.000000 0.075796 0.000000
# 6 0.000000 0.000000 0.000000 0.015891 0.000000 0.054868
#
#
# Mechanical properties :
#
#
# Convention : Reuss Voigt Hill
#
# Bulk Modulus (GPa) = 22.32110 65.10143 43.71127
# Shear Modulus (GPa) = 17.88196 26.74499 22.31347
#
# Velocity S-wave (km/s) = 2.86689 3.50611 3.20249
# Velocity P-wave (km/s) = 4.60632 6.80536 5.81081
#
# Compressibility (1/GPa) = 0.04480065
#
# Stress axis : x y z
#
# Youngs Moduli (GPa) = 21.90477 89.94335 110.42348
#
# Poissons Ratio (x) = -0.31729 0.94129
# Poissons Ratio (y) = -0.07727 0.60911
# Poissons Ratio (z) = 0.18672 0.49614
#
# Static dielectric constant tensor:
#      x y z
#    x 1.868370 0.000000 -0.030480 
#    y 0.000000 1.792680 0.000000 
#    z -0.030480 0.000000 1.798020 
# 
# From -- ./inp_files/177822.got.cif
#   From: 2010.05.17/outbox.cif.g08.bks.cpg/sg15_89_cif.got.tgz:177822.got - 2010.06.03 18:47:42.
