data_PCOD9263039
_publ_section_title
;
Structure prediction by ZEFSAII (Michael W. Deem and Ramdas Pophale) SiO2 
 PCOD9263039
Probable space group: C 2/C
;
_chemical_formula_sum "Si O2"
_cell_formula_units_Z 52
_cell_length_a 8.782783
_cell_length_b 18.261532
_cell_length_c 16.141745
_cell_angle_alpha 90.000000
_cell_angle_beta 111.435694
_cell_angle_gamma 90.000000
_cell_volume 2409.846798
_symmetry_space_group_name_H-M "C 2/C"
_symmetry_group_IT_number 15
_symmetry_cell_setting 'monoclinic'
loop_
_space_group_symop_operation_xyz
x,y,z
-x,y,1/2-z
-x,-y,-z
x,-y,1/2+z
1/2+x,1/2+y,z
1/2-x,1/2+y,1/2-z
1/2-x,1/2-y,-z
1/2+x,1/2-y,1/2+z
loop_
_atom_site_type_symbol
_atom_site_label
_atom_site_fract_x
_atom_site_fract_y
_atom_site_fract_z
Si Si1 0.895597 0.744131 0.357123
Si Si2 0.179831 0.363402 0.926558
Si Si3 0.352410 0.859930 0.381460
Si Si4 0.500000 0.640847 0.750000
Si Si5 0.530427 0.008454 0.104330
Si Si6 0.666158 0.619089 0.328364
Si Si7 0.013728 0.791990 0.943577
O O1 0.750889 0.689759 0.303141
O O2 0.895875 0.764228 0.454777
O O3 0.061679 0.699931 0.369888
O O4 0.909559 0.814644 0.304829
O O5 0.361578 0.341276 0.942712
O O6 0.112767 0.442022 0.885054
O O7 0.148609 0.360366 0.018665
O O8 0.165946 0.886843 0.325691
O O9 0.434444 0.779882 0.381921
O O10 0.458423 0.925310 0.363449
O O11 0.696978 0.056128 0.144599
O O12 0.500000 0.000000 0.000000
O O13 0.500000 0.596722 0.250000
O O14 0.620359 0.653863 0.408224
#
# Coordination Sequence:
#
# PCOD9263039 Si02
#       7
#     8   8   8   4   8   8   8
#     4  10  20  34  58  91 116 156 195 252 296 355
#     4   9  17  37  59  83 110 155 206 227 285 367
#     4  10  19  33  60  87 115 153 193 245 295 346
#     4  12  18  30  60  92 118 144 204 252 294 352
#     4   9  21  40  60  81 122 164 196 238 308 362
#     4  11  24  38  59  91 125 156 198 254 309 353
#     4  11  19  39  64  89 115 153 211 245 290 364
#
# _framework density 21.578135
#
# number of rings (size 3 to 8) (size 9 to 14) (size 15 to 20)
#    0.000    1.846    3.077    3.231    1.077    0.000 
#    0.000    3.077    3.385    3.692    0.000    0.000 
#    0.000    0.000    0.000    0.000    0.000    0.000 
#
# Total GULP energy -144834.221328 kJ/mol
# GULP energy per Si atom -5570.546974 kJ/mol
# Density = 2.152902 g / cm^3
# Si number density = 21.578135 Si / 1000 Ang^3
#
#
#
# Elastic Constant Matrix: (Units=GPa)
#
#
# Indices 1 2 3 4 5 6 
#
# 1 17.8479 16.1789 4.2034 0.0000 5.0556 0.0000
# 2 16.1789 98.9513 14.4284 0.0000 1.0548 0.0000
# 3 4.2034 14.4284 48.3612 0.0000 17.9554 0.0000
# 4 0.0000 0.0000 0.0000 28.7784 0.0000 10.2037
# 5 5.0556 1.0548 17.9554 0.0000 29.2321 0.0000
# 6 0.0000 0.0000 0.0000 10.2037 0.0000 6.0479
#
#
#
# Elastic Compliance Matrix: (Units=1/GPa)
#
#
# Indices 1 2 3 4 5 6 
#
# 1 0.069684 -0.011579 0.002225 0.000000 -0.013000 0.000000
# 2 -0.011579 0.012582 -0.004304 0.000000 0.004192 0.000000
# 3 0.002225 -0.004304 0.028310 0.000000 -0.017618 0.000000
# 4 0.000000 0.000000 0.000000 0.086482 0.000000 -0.145908
# 5 -0.013000 0.004192 -0.017618 0.000000 0.047128 0.000000
# 6 0.000000 0.000000 0.000000 -0.145908 0.000000 0.411517
#
#
# Mechanical properties :
#
#
# Convention : Reuss Voigt Hill
#
# Bulk Modulus (GPa) = 12.01073 26.08686 19.04880
# Shear Modulus (GPa) = 7.03459 21.50165 14.26812
#
# Velocity S-wave (km/s) = 1.80752 3.16009 2.57423
# Velocity P-wave (km/s) = 3.15189 5.04288 4.20506
#
# Compressibility (1/GPa) = 0.08325887
#
# Stress axis : x y z
#
# Youngs Moduli (GPa) = 14.35044 79.47770 35.32365
#
# Poissons Ratio (x) = 0.92031 -0.07859
# Poissons Ratio (y) = 0.16617 0.15203
# Poissons Ratio (z) = -0.03193 0.34206
#
# Static dielectric constant tensor:
#      x y z
#    x 1.770090 0.000000 0.023110 
#    y 0.000000 1.833470 0.000000 
#    z 0.023110 0.000000 1.841310 
# 
# From -- ./inp_files/191139.got.cif
#   From: 2010.05.17/outbox.cif.g08.bks.cpg/sg15_96_cif.got.tgz:191139.got - 2010.06.03 18:47:42.
