data_PCOD9263074
_publ_section_title
;
Structure prediction by ZEFSAII (Michael W. Deem and Ramdas Pophale) SiO2 
 PCOD9263074
Probable space group: C 2/C
;
_chemical_formula_sum "Si O2"
_cell_formula_units_Z 64
_cell_length_a 22.578914
_cell_length_b 20.698087
_cell_length_c 11.033512
_cell_angle_alpha 90.000000
_cell_angle_beta 149.022926
_cell_angle_gamma 90.000000
_cell_volume 2653.976189
_symmetry_space_group_name_H-M "C 2/C"
_symmetry_group_IT_number 15
_symmetry_cell_setting 'monoclinic'
loop_
_space_group_symop_operation_xyz
x,y,z
-x,y,1/2-z
-x,-y,-z
x,-y,1/2+z
1/2+x,1/2+y,z
1/2-x,1/2+y,1/2-z
1/2-x,1/2-y,-z
1/2+x,1/2-y,1/2+z
loop_
_atom_site_type_symbol
_atom_site_label
_atom_site_fract_x
_atom_site_fract_y
_atom_site_fract_z
Si Si1 0.472075 0.385274 0.453280
Si Si2 0.819548 0.153972 0.504345
Si Si3 0.251537 0.584665 0.713641
Si Si4 0.713107 0.815249 0.579452
Si Si5 0.859395 0.181896 0.091309
Si Si6 0.893703 0.972000 0.997022
Si Si7 0.077659 0.557675 0.770490
Si Si8 0.890453 0.583840 0.243360
O O1 0.354849 0.418009 0.293987
O O2 0.526528 0.353452 0.666100
O O3 0.559223 0.436683 0.543161
O O4 0.420138 0.328642 0.275098
O O5 0.872309 0.088038 0.546324
O O6 0.698631 0.133206 0.350379
O O7 0.790104 0.193987 0.334369
O O8 0.132254 0.600134 0.438566
O O9 0.285253 0.637536 0.871209
O O10 0.275477 0.512165 0.799945
O O11 0.792564 0.812685 0.601522
O O12 0.627717 0.754917 0.430091
O O13 0.654269 0.885269 0.462535
O O14 0.000000 0.008768 0.250000
O O15 0.136288 0.493772 0.815773
O O16 0.000000 0.536452 0.750000
O O17 0.002804 0.585433 0.525716
#
# Coordination Sequence:
#
# PCOD9263074 Si02
#       8
#     8   8   8   8   8   8   8   8
#     4  10  21  38  61  96 126 162 206 260 318 390
#     4  10  20  40  65  92 126 163 209 257 326 379
#     4  11  23  38  60  95 134 163 202 262 317 378
#     4  11  24  44  65  90 122 180 217 263 319 377
#     4  11  25  42  63  92 131 170 221 259 312 385
#     4  10  19  33  62  93 128 162 195 248 323 382
#     4  11  23  42  68  94 129 166 216 264 321 379
#     4  10  24  40  64 102 122 162 213 267 323 376
#
# _framework density 24.11476
#
# number of rings (size 3 to 8) (size 9 to 14) (size 15 to 20)
#    0.000    1.500    2.500    2.250    1.750    3.000 
#    2.250    1.250    0.000    0.000    0.000    0.000 
#    0.000    0.000    0.000    0.000    0.000    0.000 
#
# Total GULP energy -178345.525412 kJ/mol
# GULP energy per Si atom -5573.297669 kJ/mol
# Density = 2.405987 g / cm^3
# Si number density = 24.114760 Si / 1000 Ang^3
#
#
#
# Elastic Constant Matrix: (Units=GPa)
#
#
# Indices 1 2 3 4 5 6 
#
# 1 53.0605 4.4306 27.5554 0.0000 -10.6390 0.0000
# 2 4.4306 51.7625 14.6551 0.0000 -9.2208 0.0000
# 3 27.5554 14.6551 136.9536 0.0000 -35.1688 0.0000
# 4 0.0000 0.0000 0.0000 8.9552 0.0000 2.6660
# 5 -10.6390 -9.2208 -35.1688 0.0000 36.3594 0.0000
# 6 0.0000 0.0000 0.0000 2.6660 0.0000 -7.8373
#
#
#
# Elastic Compliance Matrix: (Units=1/GPa)
#
#
# Indices 1 2 3 4 5 6 
#
# 1 0.021259 -0.000334 -0.003547 0.000000 0.002705 0.000000
# 2 -0.000334 0.020370 -0.001079 0.000000 0.004024 0.000000
# 3 -0.003547 -0.001079 0.010370 0.000000 0.008719 0.000000
# 4 0.000000 0.000000 0.000000 0.101399 0.000000 0.034492
# 5 0.002705 0.004024 0.008719 0.000000 0.037749 0.000000
# 6 0.000000 0.000000 0.000000 0.034492 0.000000 -0.115861
#
#
# Mechanical properties :
#
#
# Convention : Reuss Voigt Hill
#
# Bulk Modulus (GPa) = 23.76480 37.22876 30.49678
# Shear Modulus (GPa) = 50.38789 20.50448 35.44619
#
# Velocity S-wave (km/s) = 4.57607 2.91913 3.83808
# Velocity P-wave (km/s) = 6.14791 5.18010 5.68464
#
# Compressibility (1/GPa) = 0.04207904
#
# Stress axis : x y z
#
# Youngs Moduli (GPa) = 47.03967 49.09180 96.43399
#
# Poissons Ratio (x) = 0.01637 0.34205
# Poissons Ratio (y) = 0.01569 0.10407
# Poissons Ratio (z) = 0.16685 0.05298
#
# Static dielectric constant tensor:
#      x y z
#    x 2.021680 0.000000 -0.029810 
#    y 0.000000 1.958800 0.000000 
#    z -0.029810 0.000000 2.194150 
# 
# From -- ./inp_files/124308.got.cif
#   From: 2010.05.17/outbox.cif.g08.bks.cpg/sg15_63_cif.got.tgz:124308.got - 2010.06.03 18:47:42.
