data_PCOD9263178
_publ_section_title
;
Structure prediction by ZEFSAII (Michael W. Deem and Ramdas Pophale) SiO2 
 PCOD9263178
Probable space group: C 2/C
;
_chemical_formula_sum "Si O2"
_cell_formula_units_Z 44
_cell_length_a 10.968764
_cell_length_b 14.203885
_cell_length_c 21.506974
_cell_angle_alpha 90.000000
_cell_angle_beta 32.525915
_cell_angle_gamma 90.000000
_cell_volume 1801.643491
_symmetry_space_group_name_H-M "C 2/C"
_symmetry_group_IT_number 15
_symmetry_cell_setting 'monoclinic'
loop_
_space_group_symop_operation_xyz
x,y,z
-x,y,1/2-z
-x,-y,-z
x,-y,1/2+z
1/2+x,1/2+y,z
1/2-x,1/2+y,1/2-z
1/2-x,1/2-y,-z
1/2+x,1/2-y,1/2+z
loop_
_atom_site_type_symbol
_atom_site_label
_atom_site_fract_x
_atom_site_fract_y
_atom_site_fract_z
Si Si1 0.000000 0.085427 0.750000
Si Si2 0.048655 0.245500 0.812989
Si Si3 0.368423 0.046567 0.222572
Si Si4 0.229466 0.425002 0.129422
Si Si5 0.984235 0.242110 0.985601
Si Si6 0.745169 0.585274 0.134826
O O1 0.127933 0.153162 0.743031
O O2 0.833613 0.014912 0.859720
O O3 0.151079 0.344822 0.748898
O O4 0.073909 0.236761 0.875592
O O5 0.783166 0.252364 0.909123
O O6 0.333141 0.051581 0.164437
O O7 0.616855 0.002468 0.131909
O O8 0.206089 0.983450 0.335975
O O9 0.413067 0.351409 0.028015
O O10 0.000000 0.370652 0.250000
O O11 0.088790 0.339434 0.966410
O O12 0.500000 0.633840 0.250000
#
# Coordination Sequence:
#
# PCOD9263178 Si02
#       6
#     4   8   8   8   8   8
#     4  10  20  32  52  72 102 138 164 200 266 286
#     4  10  20  33  52  76 105 137 161 214 248 313
#     4   8  17  32  50  75 100 126 174 199 256 295
#     4   8  17  30  57  74  96 132 168 214 237 305
#     4  10  19  34  53  77 102 130 178 204 253 289
#     4   9  19  32  50  75  99 137 165 212 243 311
#
# _framework density 24.422143999999999
#
# number of rings (size 3 to 8) (size 9 to 14) (size 15 to 20)
#    1.636    1.091    0.000    2.727    0.000    1.455 
#    0.000    0.000    0.000    1.091    0.000    0.000 
#    0.000    0.000    0.000    0.000    0.000    0.000 
#
# Total GULP energy -122543.949940 kJ/mol
# GULP energy per Si atom -5570.179543 kJ/mol
# Density = 2.436656 g / cm^3
# Si number density = 24.422144 Si / 1000 Ang^3
#
#
#
# Elastic Constant Matrix: (Units=GPa)
#
#
# Indices 1 2 3 4 5 6 
#
# 1 58.5527 5.2963 1.2108 0.0000 -0.7171 -0.0004
# 2 5.2963 165.8683 34.3554 -0.0015 -9.8457 -0.0006
# 3 1.2108 34.3554 70.3446 -0.0050 -14.0215 -0.0079
# 4 0.0000 -0.0015 -0.0050 28.1083 -0.0028 -13.7185
# 5 -0.7171 -9.8457 -14.0215 -0.0028 22.9213 0.0009
# 6 -0.0004 -0.0006 -0.0079 -13.7185 0.0009 20.1229
#
#
#
# Elastic Compliance Matrix: (Units=1/GPa)
#
#
# Indices 1 2 3 4 5 6 
#
# 1 0.017130 -0.000534 0.000031 0.000000 0.000325 0.000000
# 2 -0.000534 0.006744 -0.003087 -0.000001 0.000992 -0.000002
# 3 0.000031 -0.003087 0.017605 0.000011 0.009445 0.000014
# 4 0.000000 -0.000001 0.000011 0.053317 0.000011 0.036348
# 5 0.000325 0.000992 0.009445 0.000011 0.049841 0.000009
# 6 0.000000 -0.000002 0.000014 0.036348 0.000009 0.074474
#
#
# Mechanical properties :
#
#
# Convention : Reuss Voigt Hill
#
# Bulk Modulus (GPa) = 29.15486 41.83229 35.49358
# Shear Modulus (GPa) = 21.03266 31.15736 26.09501
#
# Velocity S-wave (km/s) = 2.93783 3.57569 3.27233
# Velocity P-wave (km/s) = 4.84475 5.84922 5.37052
#
# Compressibility (1/GPa) = 0.03429960
#
# Stress axis : x y z
#
# Youngs Moduli (GPa) = 58.37616 148.27610 56.80097
#
# Poissons Ratio (x) = 0.07919 -0.00175
# Poissons Ratio (y) = 0.03118 0.17534
# Poissons Ratio (z) = -0.00180 0.45771
#
# Static dielectric constant tensor:
#      x y z
#    x 1.959270 0.000000 0.005670 
#    y 0.000000 1.986230 0.000000 
#    z 0.005670 0.000000 1.989910 
# 
# From -- ./inp_files/310891.got.cif
#   From: 2010.05.17/outbox.cif.g08.bks.cpg/sg15_156_cif.got.tgz:310891.got - 2010.06.03 18:47:42.
