data_PCOD9263029
_publ_section_title
;
Structure prediction by ZEFSAII (Michael W. Deem and Ramdas Pophale) SiO2 
 PCOD9263029
Probable space group: C 2/C
;
_chemical_formula_sum "Si O2"
_cell_formula_units_Z 48
_cell_length_a 17.218947
_cell_length_b 5.446003
_cell_length_c 19.655322
_cell_angle_alpha 90.000000
_cell_angle_beta 93.867423
_cell_angle_gamma 90.000000
_cell_volume 1838.969476
_symmetry_space_group_name_H-M "C 2/C"
_symmetry_group_IT_number 15
_symmetry_cell_setting 'monoclinic'
loop_
_space_group_symop_operation_xyz
x,y,z
-x,y,1/2-z
-x,-y,-z
x,-y,1/2+z
1/2+x,1/2+y,z
1/2-x,1/2+y,1/2-z
1/2-x,1/2-y,-z
1/2+x,1/2-y,1/2+z
loop_
_atom_site_type_symbol
_atom_site_label
_atom_site_fract_x
_atom_site_fract_y
_atom_site_fract_z
Si Si1 0.874443 0.768429 0.227980
Si Si2 0.332349 0.260429 0.046260
Si Si3 0.424832 0.720101 0.419636
Si Si4 0.781915 0.741416 0.579487
Si Si5 0.704816 0.424383 0.680316
Si Si6 0.018535 0.295899 0.639507
O O1 0.790004 0.652073 0.209592
O O2 0.849807 0.032760 0.257791
O O3 0.921118 0.657508 0.294979
O O4 0.936653 0.752058 0.171725
O O5 0.400588 0.299788 0.996595
O O6 0.250000 0.250000 0.000000
O O7 0.321472 0.497996 0.092798
O O8 0.337967 0.993222 0.079482
O O9 0.342598 0.748173 0.373801
O O10 0.458730 0.460023 0.396102
O O11 0.474740 0.961351 0.406309
O O12 0.750000 0.750000 0.500000
O O13 0.719881 0.664872 0.633059
#
# Coordination Sequence:
#
# PCOD9263029 Si02
#       6
#     8   8   8   8   8   8
#     4  10  24  40  61  96 128 169 207 264 317 382
#     4  10  19  33  59  97 118 155 212 259 309 361
#     4  11  21  38  68  91 123 168 209 263 307 384
#     4  10  20  35  60  96 122 158 200 275 310 360
#     4  11  22  39  68  97 130 158 223 268 310 366
#     4  10  24  42  61  88 132 173 205 245 333 390
#
# _framework density 26.101573999999999
#
# number of rings (size 3 to 8) (size 9 to 14) (size 15 to 20)
#    0.000    1.667    3.333    2.000    7.000    8.000 
#    0.000    0.000    0.000    6.000    0.000    0.000 
#    0.000    0.000    0.000    0.000    0.000    0.000 
#
# Total GULP energy -134262.954135 kJ/mol
# GULP energy per Si atom -5594.289756 kJ/mol
# Density = 2.604217 g / cm^3
# Si number density = 26.101574 Si / 1000 Ang^3
#
#
#
# Elastic Constant Matrix: (Units=GPa)
#
#
# Indices 1 2 3 4 5 6 
#
# 1 144.1673 36.1068 41.5596 0.0000 -8.4424 0.0000
# 2 36.1068 195.5490 55.8404 0.0000 -35.6182 0.0000
# 3 41.5596 55.8404 113.9003 0.0000 -53.5440 0.0000
# 4 0.0000 0.0000 0.0000 39.9703 0.0000 -9.1098
# 5 -8.4424 -35.6182 -53.5440 0.0000 62.8921 0.0000
# 6 0.0000 0.0000 0.0000 -9.1098 0.0000 25.9666
#
#
#
# Elastic Compliance Matrix: (Units=1/GPa)
#
#
# Indices 1 2 3 4 5 6 
#
# 1 0.008085 -0.000901 -0.003731 0.000000 -0.002602 0.000000
# 2 -0.000901 0.006130 -0.001836 0.000000 0.001787 0.000000
# 3 -0.003731 -0.001836 0.017201 0.000000 0.013104 0.000000
# 4 0.000000 0.000000 0.000000 0.027193 0.000000 0.009540
# 5 -0.002602 0.001787 0.013104 0.000000 0.027719 0.000000
# 6 0.000000 0.000000 0.000000 0.009540 0.000000 0.041858
#
#
# Mechanical properties :
#
#
# Convention : Reuss Voigt Hill
#
# Bulk Modulus (GPa) = 54.11538 80.07003 67.09271
# Shear Modulus (GPa) = 33.94782 47.10645 40.52713
#
# Velocity S-wave (km/s) = 3.61030 4.25283 3.94467
# Velocity P-wave (km/s) = 6.17711 7.40664 6.81964
#
# Compressibility (1/GPa) = 0.01847903
#
# Stress axis : x y z
#
# Youngs Moduli (GPa) = 123.67916 163.12831 58.13483
#
# Poissons Ratio (x) = 0.14703 0.21693
# Poissons Ratio (y) = 0.11147 0.10675
# Poissons Ratio (z) = 0.46151 0.29953
#
# Static dielectric constant tensor:
#      x y z
#    x 2.105220 0.000000 0.091400 
#    y 0.000000 2.077420 0.000000 
#    z 0.091400 0.000000 2.135060 
# 
# From -- ./inp_files/275836.got.cif
#   From: 2010.05.17/outbox.cif.g08.bks.cpg/sg15_138_cif.got.tgz:275836.got - 2010.06.03 18:47:42.
