data_PCOD9263174
_publ_section_title
;
Structure prediction by ZEFSAII (Michael W. Deem and Ramdas Pophale) SiO2 
 PCOD9263174
Probable space group: C 2/C
;
_chemical_formula_sum "Si O2"
_cell_formula_units_Z 48
_cell_length_a 13.670448
_cell_length_b 5.639527
_cell_length_c 25.207751
_cell_angle_alpha 90.000000
_cell_angle_beta 63.218208
_cell_angle_gamma 90.000000
_cell_volume 1734.918982
_symmetry_space_group_name_H-M "C 2/C"
_symmetry_group_IT_number 15
_symmetry_cell_setting 'monoclinic'
loop_
_space_group_symop_operation_xyz
x,y,z
-x,y,1/2-z
-x,-y,-z
x,-y,1/2+z
1/2+x,1/2+y,z
1/2-x,1/2+y,1/2-z
1/2-x,1/2-y,-z
1/2+x,1/2-y,1/2+z
loop_
_atom_site_type_symbol
_atom_site_label
_atom_site_fract_x
_atom_site_fract_y
_atom_site_fract_z
Si Si1 0.635039 0.932251 0.732134
Si Si2 0.144801 0.077009 0.261345
Si Si3 0.262783 0.951278 0.622000
Si Si4 0.672642 0.599938 0.980020
Si Si5 0.508229 0.883751 0.439533
Si Si6 0.139462 0.324994 0.606826
O O1 0.763631 0.929000 0.715966
O O2 0.590368 0.682903 0.768604
O O3 0.629324 0.925625 0.669537
O O4 0.585755 0.167951 0.772501
O O5 0.215357 0.097450 0.190450
O O6 0.364806 0.129475 0.604984
O O7 0.157596 0.047092 0.614649
O O8 0.317851 0.734920 0.578336
O O9 0.742054 0.369106 0.950788
O O10 0.750000 0.750000 0.000000
O O11 0.554011 0.632998 0.035343
O O12 0.500000 0.000000 0.500000
O O13 0.446439 0.050964 0.411607
#
# Coordination Sequence:
#
# PCOD9263174 Si02
#       6
#     8   8   8   8   8   8
#     4   9  17  31  56  85 108 147 191 231 284 353
#     4   9  17  31  56  84 111 145 190 233 287 343
#     4  10  19  34  53  75 109 145 182 238 287 338
#     4   9  18  32  51  74 103 141 183 230 272 341
#     4   9  20  34  50  78 108 141 192 237 279 347
#     4  10  19  34  55  75 107 148 186 233 293 342
#
# _framework density 27.667000000000002
#
# number of rings (size 3 to 8) (size 9 to 14) (size 15 to 20)
#    0.000    2.667    1.667    0.000    0.000    6.667 
#    0.000    5.833    0.000    0.000    0.000    7.000 
#    0.000    0.000    0.000    0.000    0.000    0.000 
#
# Total GULP energy -133972.476549 kJ/mol
# GULP energy per Si atom -5582.186523 kJ/mol
# Density = 2.760403 g / cm^3
# Si number density = 27.667000 Si / 1000 Ang^3
#
#
#
# Elastic Constant Matrix: (Units=GPa)
#
#
# Indices 1 2 3 4 5 6 
#
# 1 116.0417 35.0792 54.5341 -0.0001 25.8626 -0.0005
# 2 35.0792 135.1363 48.2179 -0.0004 12.1746 -0.0008
# 3 54.5341 48.2179 127.9716 0.0000 43.8004 -0.0002
# 4 -0.0001 -0.0004 0.0000 51.5594 -0.0001 14.4186
# 5 25.8626 12.1746 43.8004 -0.0001 51.4283 -0.0003
# 6 -0.0005 -0.0008 -0.0002 14.4186 -0.0003 21.7613
#
#
#
# Elastic Compliance Matrix: (Units=1/GPa)
#
#
# Indices 1 2 3 4 5 6 
#
# 1 0.011192 -0.001479 -0.003395 0.000000 -0.002387 0.000000
# 2 -0.001479 0.008782 -0.003136 0.000000 0.001335 0.000000
# 3 -0.003395 -0.003136 0.013556 0.000000 -0.009095 0.000000
# 4 0.000000 0.000000 0.000000 0.023806 0.000000 -0.015774
# 5 -0.002387 0.001335 -0.009095 0.000000 0.028075 0.000000
# 6 0.000000 0.000000 0.000000 -0.015774 0.000000 0.056404
#
#
# Mechanical properties :
#
#
# Convention : Reuss Voigt Hill
#
# Bulk Modulus (GPa) = 57.11049 72.75689 64.93369
# Shear Modulus (GPa) = 30.54872 41.03769 35.79321
#
# Velocity S-wave (km/s) = 3.32649 3.85551 3.60073
# Velocity P-wave (km/s) = 5.95323 6.79517 6.38809
#
# Compressibility (1/GPa) = 0.01750992
#
# Stress axis : x y z
#
# Youngs Moduli (GPa) = 89.34770 113.86347 73.76916
#
# Poissons Ratio (x) = 0.16838 0.25048
# Poissons Ratio (y) = 0.13213 0.23134
# Poissons Ratio (z) = 0.30338 0.35708
#
# Static dielectric constant tensor:
#      x y z
#    x 2.172420 0.000000 0.053360 
#    y 0.000000 2.553700 0.000000 
#    z 0.053360 0.000000 2.101440 
# 
# From -- ./inp_files/294441.got.cif
#   From: 2010.05.17/outbox.cif.g08.bks.cpg/sg15_148_cif.got.tgz:294441.got - 2010.06.03 18:47:42.
