data_PCOD9263298
_publ_section_title
;
Structure prediction by ZEFSAII (Michael W. Deem and Ramdas Pophale) SiO2 
 PCOD9263298
Probable space group: C 2/C
;
_chemical_formula_sum "Si O2"
_cell_formula_units_Z 64
_cell_length_a 26.865914
_cell_length_b 20.811951
_cell_length_c 18.169298
_cell_angle_alpha 90.000000
_cell_angle_beta 16.946713
_cell_angle_gamma 90.000000
_cell_volume 2961.178422
_symmetry_space_group_name_H-M "C 2/C"
_symmetry_group_IT_number 15
_symmetry_cell_setting 'monoclinic'
loop_
_space_group_symop_operation_xyz
x,y,z
-x,y,1/2-z
-x,-y,-z
x,-y,1/2+z
1/2+x,1/2+y,z
1/2-x,1/2+y,1/2-z
1/2-x,1/2-y,-z
1/2+x,1/2-y,1/2+z
loop_
_atom_site_type_symbol
_atom_site_label
_atom_site_fract_x
_atom_site_fract_y
_atom_site_fract_z
Si Si1 0.512698 0.764104 0.993469
Si Si2 0.299446 0.540587 0.193624
Si Si3 0.891943 0.230181 0.472632
Si Si4 0.400572 0.032153 0.728542
Si Si5 0.199016 0.482881 0.487724
Si Si6 0.975448 0.397310 0.989434
Si Si7 0.376293 0.404129 0.059002
Si Si8 0.932950 0.131184 0.641493
O O1 0.307353 0.760637 0.267763
O O2 0.559956 0.758702 0.013907
O O3 0.564827 0.832623 0.886070
O O4 0.592315 0.706533 0.832592
O O5 0.293341 0.513237 0.285149
O O6 0.384255 0.480290 0.030539
O O7 0.100725 0.548650 0.457027
O O8 0.404555 0.605833 0.042660
O O9 0.929087 0.153877 0.431444
O O10 0.000000 0.255111 0.250000
O O11 0.355286 0.080118 0.728148
O O12 0.295452 0.031408 0.951390
O O13 0.405864 0.957746 0.695803
O O14 0.280087 0.413353 0.387131
O O15 0.000000 0.476241 0.750000
O O16 0.829016 0.391338 0.135011
O O17 0.464136 0.389406 0.012424
#
# Coordination Sequence:
#
# PCOD9263298 Si02
#       8
#     8   8   8   8   8   8   8   8
#     4  10  22  37  56  80 112 161 186 224 292 348
#     4   9  17  32  54  80 107 138 179 228 279 327
#     4  10  20  37  53  81 115 149 194 232 271 340
#     4   9  18  33  57  79 103 140 185 238 274 330
#     4   9  17  32  54  84 106 133 186 236 277 324
#     4   9  18  35  53  74 108 146 185 217 286 341
#     4   8  16  32  50  71 102 143 180 215 273 327
#     4  10  19  34  55  80 111 143 181 227 281 336
#
# _framework density 21.613016999999999
#
# number of rings (size 3 to 8) (size 9 to 14) (size 15 to 20)
#    0.000    2.750    0.000    2.625    1.750    0.000 
#   15.750    0.625    0.000    0.000    0.000    0.000 
#    0.000    0.000    0.000    0.000    0.000    0.000 
#
# Total GULP energy -178210.024092 kJ/mol
# GULP energy per Si atom -5569.063253 kJ/mol
# Density = 2.156383 g / cm^3
# Si number density = 21.613017 Si / 1000 Ang^3
#
#
#
# Elastic Constant Matrix: (Units=GPa)
#
#
# Indices 1 2 3 4 5 6 
#
# 1 78.6040 15.3031 8.3754 0.0056 -14.1898 -0.0050
# 2 15.3031 87.5454 -9.8107 0.0189 -9.5649 -0.0046
# 3 8.3754 -9.8107 31.1846 0.0145 -10.7162 -0.0026
# 4 0.0056 0.0189 0.0145 19.2200 -0.0035 -5.9881
# 5 -14.1898 -9.5649 -10.7162 -0.0035 20.2472 0.0036
# 6 -0.0050 -0.0046 -0.0026 -5.9881 0.0036 27.6634
#
#
#
# Elastic Compliance Matrix: (Units=1/GPa)
#
#
# Indices 1 2 3 4 5 6 
#
# 1 0.014811 -0.001813 -0.001559 0.000001 0.008698 0.000001
# 2 -0.001813 0.013671 0.008031 -0.000018 0.009438 -0.000002
# 3 -0.001559 0.008031 0.043931 -0.000038 0.025952 -0.000006
# 4 0.000001 -0.000018 -0.000038 0.055792 -0.000021 0.012077
# 5 0.008698 0.009438 0.025952 -0.000021 0.073680 -0.000008
# 6 0.000001 -0.000002 -0.000006 0.012077 -0.000008 0.038763
#
#
# Mechanical properties :
#
#
# Convention : Reuss Voigt Hill
#
# Bulk Modulus (GPa) = 12.23555 25.00773 18.62164
# Shear Modulus (GPa) = 19.33681 25.65719 22.49700
#
# Velocity S-wave (km/s) = 2.99437 3.44920 3.22980
# Velocity P-wave (km/s) = 4.19863 5.24008 4.74799
#
# Compressibility (1/GPa) = 0.08172904
#
# Stress axis : x y z
#
# Youngs Moduli (GPa) = 67.51536 73.14867 22.76318
#
# Poissons Ratio (x) = 0.13265 0.03550
# Poissons Ratio (y) = 0.12244 -0.18281
# Poissons Ratio (z) = 0.10529 -0.58746
#
# Static dielectric constant tensor:
#      x y z
#    x 1.887590 0.000000 -0.023600 
#    y 0.000000 1.829970 0.000000 
#    z -0.023600 0.000000 1.777850 
# 
# From -- ./inp_files/223141.got.cif
#   From: 2010.05.17/outbox.cif.g08.bks.cpg/sg15_112_cif.got.tgz:223141.got - 2010.06.03 18:47:42.
