data_PCOD9263827
_publ_section_title
;
Structure prediction by ZEFSAII (Michael W. Deem and Ramdas Pophale) SiO2 
 PCOD9263827
Probable space group: C 2/C
;
_chemical_formula_sum "Si O2"
_cell_formula_units_Z 56
_cell_length_a 10.987098
_cell_length_b 9.893547
_cell_length_c 25.509926
_cell_angle_alpha 90.000000
_cell_angle_beta 71.108613
_cell_angle_gamma 90.000000
_cell_volume 2623.595556
_symmetry_space_group_name_H-M "C 2/C"
_symmetry_group_IT_number 15
_symmetry_cell_setting 'monoclinic'
loop_
_space_group_symop_operation_xyz
x,y,z
-x,y,1/2-z
-x,-y,-z
x,-y,1/2+z
1/2+x,1/2+y,z
1/2-x,1/2+y,1/2-z
1/2-x,1/2-y,-z
1/2+x,1/2-y,1/2+z
loop_
_atom_site_type_symbol
_atom_site_label
_atom_site_fract_x
_atom_site_fract_y
_atom_site_fract_z
Si Si1 0.729598 0.391892 0.530286
Si Si2 0.715774 0.984171 0.578093
Si Si3 0.408812 0.262440 0.858196
Si Si4 0.330818 0.754073 0.130742
Si Si5 0.352862 0.377483 0.263384
Si Si6 0.436317 0.974807 0.581020
Si Si7 0.726618 0.137552 0.298352
O O1 0.750000 0.250000 0.500000
O O2 0.697909 0.486719 0.485502
O O3 0.629710 0.371493 0.591348
O O4 0.864566 0.423153 0.539809
O O5 0.784920 0.879042 0.606859
O O6 0.582663 0.934094 0.570298
O O7 0.663835 0.121606 0.614711
O O8 0.562916 0.261027 0.838090
O O9 0.350606 0.305599 0.811369
O O10 0.206842 0.824917 0.173454
O O11 0.406948 0.864156 0.084964
O O12 0.500000 0.415357 0.250000
O O13 0.339105 0.254135 0.225474
O O14 0.268913 0.507411 0.259105
O O15 0.364436 0.915291 0.642227
#
# Coordination Sequence:
#
# PCOD9263827 Si02
#       7
#     8   8   8   8   8   8   8
#     4   9  18  35  57  84 115 158 200 240 299 359
#     4  10  19  34  61  85 115 160 197 240 297 359
#     4   9  21  38  58  84 123 154 196 245 298 358
#     4  10  22  37  58  88 116 155 199 246 306 357
#     4  11  25  41  61  90 118 153 207 248 301 367
#     4   9  19  39  55  83 121 150 196 254 295 351
#     4  10  23  41  61  86 120 158 194 254 302 353
#
# _framework density 21.344753000000001
#
# number of rings (size 3 to 8) (size 9 to 14) (size 15 to 20)
#    0.000    2.286    0.000    1.286    4.000    1.143 
#    0.000    8.571    0.000    0.000    0.000    0.000 
#    0.000    0.000    0.000    0.000    0.000    0.000 
#
# Total GULP energy -156182.616942 kJ/mol
# GULP energy per Si atom -5577.950605 kJ/mol
# Density = 2.129617 g / cm^3
# Si number density = 21.344753 Si / 1000 Ang^3
#
#
#
# Elastic Constant Matrix: (Units=GPa)
#
#
# Indices 1 2 3 4 5 6 
#
# 1 50.9827 19.4032 -7.4831 0.0000 -6.9955 0.0000
# 2 19.4032 82.3814 13.0144 0.0000 19.0336 0.0000
# 3 -7.4831 13.0144 34.5803 0.0000 2.7553 0.0000
# 4 0.0000 0.0000 0.0000 29.4974 0.0000 13.5375
# 5 -6.9955 19.0336 2.7553 0.0000 20.5513 0.0000
# 6 0.0000 0.0000 0.0000 13.5375 0.0000 35.6918
#
#
#
# Elastic Compliance Matrix: (Units=1/GPa)
#
#
# Indices 1 2 3 4 5 6 
#
# 1 0.028804 -0.013048 0.009501 0.000000 0.020615 0.000000
# 2 -0.013048 0.022157 -0.009272 0.000000 -0.023719 0.000000
# 3 0.009501 -0.009272 0.033884 0.000000 0.007279 0.000000
# 4 0.000000 0.000000 0.000000 0.041046 0.000000 -0.015568
# 5 0.020615 -0.023719 0.007279 0.000000 0.076667 0.000000
# 6 0.000000 0.000000 0.000000 -0.015568 0.000000 0.033923
#
#
# Mechanical properties :
#
#
# Convention : Reuss Voigt Hill
#
# Bulk Modulus (GPa) = 16.89032 24.20150 20.54591
# Shear Modulus (GPa) = 17.73968 26.68209 22.21088
#
# Velocity S-wave (km/s) = 2.88601 3.53945 3.22930
# Velocity P-wave (km/s) = 4.36299 5.29779 4.85295
#
# Compressibility (1/GPa) = 0.05920549
#
# Stress axis : x y z
#
# Youngs Moduli (GPa) = 34.71787 45.13300 29.51255
#
# Poissons Ratio (x) = 0.58890 -0.28040
# Poissons Ratio (y) = 0.45300 0.27365
# Poissons Ratio (z) = -0.32986 0.41849
#
# Static dielectric constant tensor:
#      x y z
#    x 1.771000 0.000000 -0.025440 
#    y 0.000000 1.824380 0.000000 
#    z -0.025440 0.000000 1.818440 
# 
# From -- ./inp_files/291522.got.cif
#   From: 2010.05.17/outbox.cif.g08.bks.cpg/sg15_146_cif.got.tgz:291522.got - 2010.06.03 18:47:42.
