data_PCOD9263828
_publ_section_title
;
Structure prediction by ZEFSAII (Michael W. Deem and Ramdas Pophale) SiO2 
 PCOD9263828
Probable space group: C 2/C
;
_chemical_formula_sum "Si O2"
_cell_formula_units_Z 56
_cell_length_a 9.980912
_cell_length_b 13.980607
_cell_length_c 18.119386
_cell_angle_alpha 90.000000
_cell_angle_beta 82.651447
_cell_angle_gamma 90.000000
_cell_volume 2507.597825
_symmetry_space_group_name_H-M "C 2/C"
_symmetry_group_IT_number 15
_symmetry_cell_setting 'monoclinic'
loop_
_space_group_symop_operation_xyz
x,y,z
-x,y,1/2-z
-x,-y,-z
x,-y,1/2+z
1/2+x,1/2+y,z
1/2-x,1/2+y,1/2-z
1/2-x,1/2-y,-z
1/2+x,1/2-y,1/2+z
loop_
_atom_site_type_symbol
_atom_site_label
_atom_site_fract_x
_atom_site_fract_y
_atom_site_fract_z
Si Si1 0.490004 0.634289 0.124195
Si Si2 0.218434 0.003234 0.451156
Si Si3 0.803478 0.170193 0.937472
Si Si4 0.909406 0.799951 0.024411
Si Si5 0.284355 0.156411 0.137952
Si Si6 0.957243 0.549830 0.330517
Si Si7 0.762270 0.724555 0.294656
O O1 0.403186 0.553932 0.087008
O O2 0.636467 0.609101 0.145268
O O3 0.384912 0.676966 0.188699
O O4 0.523431 0.714842 0.060126
O O5 0.237873 0.070578 0.521401
O O6 0.353486 0.998602 0.392467
O O7 0.168767 0.899299 0.474408
O O8 0.763629 0.192097 0.855873
O O9 0.964794 0.181784 0.929858
O O10 0.750000 0.250000 0.000000
O O11 0.821487 0.715810 0.063081
O O12 0.403720 0.081217 0.141798
O O13 0.288900 0.232541 0.205929
O O14 0.872618 0.646279 0.314836
O O15 0.000000 0.501530 0.250000
#
# Coordination Sequence:
#
# PCOD9263828 Si02
#       7
#     8   8   8   8   8   8   8
#     4  10  20  36  59  89 113 149 193 249 287 340
#     4  10  21  37  62  86 121 154 195 243 300 348
#     4  11  16  33  63  86 107 150 209 241 271 349
#     4  11  21  36  60  89 122 155 188 248 301 351
#     4  11  21  35  61  86 116 151 201 245 291 347
#     4   9  18  35  60  81 110 158 202 234 283 357
#     4  10  19  34  61  86 108 151 208 243 280 340
#
# _framework density 22.332128000000001
#
# number of rings (size 3 to 8) (size 9 to 14) (size 15 to 20)
#    0.000    1.714    5.714    2.571    0.000    0.000 
#    0.000    2.143   34.571    0.000    0.000    0.000 
#    0.000    0.000    0.000    0.000    0.000    0.000 
#
# Total GULP energy -156327.512760 kJ/mol
# GULP energy per Si atom -5583.125456 kJ/mol
# Density = 2.228130 g / cm^3
# Si number density = 22.332128 Si / 1000 Ang^3
#
#
#
# Elastic Constant Matrix: (Units=GPa)
#
#
# Indices 1 2 3 4 5 6 
#
# 1 161.3954 22.4376 39.4419 0.0000 -16.9295 0.0000
# 2 22.4376 41.0406 23.7407 0.0000 -3.0188 0.0000
# 3 39.4419 23.7407 114.4181 0.0000 -13.2736 0.0000
# 4 0.0000 0.0000 0.0000 9.1946 0.0000 0.3194
# 5 -16.9295 -3.0188 -13.2736 0.0000 36.0876 0.0000
# 6 0.0000 0.0000 0.0000 0.3194 0.0000 19.2873
#
#
#
# Elastic Compliance Matrix: (Units=1/GPa)
#
#
# Indices 1 2 3 4 5 6 
#
# 1 0.007255 -0.002845 -0.001612 0.000000 0.002573 0.000000
# 2 -0.002845 0.028807 -0.005089 0.000000 -0.000797 0.000000
# 3 -0.001612 -0.005089 0.010670 0.000000 0.002742 0.000000
# 4 0.000000 0.000000 0.000000 0.108822 0.000000 -0.001802
# 5 0.002573 -0.000797 0.002742 0.000000 0.029859 0.000000
# 6 0.000000 0.000000 0.000000 -0.001802 0.000000 0.051877
#
#
# Mechanical properties :
#
#
# Convention : Reuss Voigt Hill
#
# Bulk Modulus (GPa) = 36.17979 54.23273 45.20626
# Shear Modulus (GPa) = 18.82561 28.32949 23.57755
#
# Velocity S-wave (km/s) = 2.90657 3.56554 3.25278
# Velocity P-wave (km/s) = 5.24406 6.42558 5.86465
#
# Compressibility (1/GPa) = 0.02763974
#
# Stress axis : x y z
#
# Youngs Moduli (GPa) = 137.83004 34.71434 93.72316
#
# Poissons Ratio (x) = 0.09875 0.15111
# Poissons Ratio (y) = 0.39208 0.47695
# Poissons Ratio (z) = 0.22223 0.17666
#
# Static dielectric constant tensor:
#      x y z
#    x 1.873670 0.000000 0.047690 
#    y 0.000000 1.779570 0.000000 
#    z 0.047690 0.000000 1.871970 
# 
# From -- ./inp_files/232112.got.cif
#   From: 2010.05.17/outbox.cif.g08.bks.cpg/sg15_117_cif.got.tgz:232112.got - 2010.06.03 18:47:42.
