data_PCOD9263121
_publ_section_title
;
Structure prediction by ZEFSAII (Michael W. Deem and Ramdas Pophale) SiO2 
 PCOD9263121
Probable space group: C 2/C
;
_chemical_formula_sum "Si O2"
_cell_formula_units_Z 40
_cell_length_a 6.373380
_cell_length_b 33.490203
_cell_length_c 11.113088
_cell_angle_alpha 90.000000
_cell_angle_beta 74.225645
_cell_angle_gamma 90.000000
_cell_volume 2282.710199
_symmetry_space_group_name_H-M "C 2/C"
_symmetry_group_IT_number 15
_symmetry_cell_setting 'monoclinic'
loop_
_space_group_symop_operation_xyz
x,y,z
-x,y,1/2-z
-x,-y,-z
x,-y,1/2+z
1/2+x,1/2+y,z
1/2-x,1/2+y,1/2-z
1/2-x,1/2-y,-z
1/2+x,1/2-y,1/2+z
loop_
_atom_site_type_symbol
_atom_site_label
_atom_site_fract_x
_atom_site_fract_y
_atom_site_fract_z
Si Si1 0.500000 0.709658 0.250000
Si Si2 0.500000 0.068745 0.750000
Si Si3 0.299688 0.314919 0.543376
Si Si4 0.067666 0.748963 0.377711
Si Si5 0.679981 0.609960 0.624532
Si Si6 0.556238 0.527599 0.877734
O O1 0.636245 0.684265 0.325869
O O2 0.320330 0.737650 0.341882
O O3 0.392460 0.096707 0.665447
O O4 0.308100 0.041186 0.832998
O O5 0.493266 0.288824 0.454981
O O6 0.281279 0.357039 0.481664
O O7 0.082775 0.288274 0.557136
O O8 0.000000 0.754780 0.250000
O O9 0.500000 0.624748 0.750000
O O10 0.579680 0.568796 0.589621
O O11 0.500000 0.512019 0.750000
O O12 0.500000 0.500000 0.000000
#
# Coordination Sequence:
#
# PCOD9263121 Si02
#       6
#     4   4   8   8   8   8
#     4  10  20  34  51  72 106 148 174 220 272 309
#     4   8  18  36  59  82 110 142 172 228 276 309
#     4  10  19  34  51  75 106 137 180 221 264 321
#     4   9  19  33  51  72 101 140 183 224 264 314
#     4   9  19  34  55  82 106 135 178 222 262 317
#     4   9  19  36  58  85 113 142 181 222 269 335
#
# _framework density 17.523029999999999
#
# number of rings (size 3 to 8) (size 9 to 14) (size 15 to 20)
#    0.000    3.200    0.000    1.200    0.000    6.400 
#    1.800   13.000    6.600    0.000    0.000    0.000 
#    0.000    0.000    0.000    0.000    0.000    0.000 
#
# Total GULP energy -111416.827817 kJ/mol
# GULP energy per Si atom -5570.841391 kJ/mol
# Density = 1.748315 g / cm^3
# Si number density = 17.523030 Si / 1000 Ang^3
#
#
#
# Elastic Constant Matrix: (Units=GPa)
#
#
# Indices 1 2 3 4 5 6 
#
# 1 116.4057 39.4705 33.3690 0.0000 -7.5909 0.0000
# 2 39.4705 87.8850 58.8600 0.0000 6.5775 0.0000
# 3 33.3690 58.8600 83.0226 0.0000 2.7296 0.0000
# 4 0.0000 0.0000 0.0000 41.7301 0.0000 4.3258
# 5 -7.5909 6.5775 2.7296 0.0000 18.2139 0.0000
# 6 0.0000 0.0000 0.0000 4.3258 0.0000 1.1298
#
#
#
# Elastic Compliance Matrix: (Units=1/GPa)
#
#
# Indices 1 2 3 4 5 6 
#
# 1 0.010918 -0.004380 -0.001492 0.000000 0.006355 0.000000
# 2 -0.004380 0.023996 -0.014981 0.000000 -0.008246 0.000000
# 3 -0.001492 -0.014981 0.023222 0.000000 0.001308 0.000000
# 4 0.000000 0.000000 0.000000 0.039735 0.000000 -0.152141
# 5 0.006355 -0.008246 0.001308 0.000000 0.060334 0.000000
# 6 0.000000 0.000000 0.000000 -0.152141 0.000000 1.467675
#
#
# Mechanical properties :
#
#
# Convention : Reuss Voigt Hill
#
# Bulk Modulus (GPa) = 60.86044 61.19026 61.02535
# Shear Modulus (GPa) = 2.98853 22.58900 12.78877
#
# Velocity S-wave (km/s) = 1.30736 3.59430 2.70446
# Velocity P-wave (km/s) = 6.08983 7.22642 6.68233
#
# Compressibility (1/GPa) = 0.01643103
#
# Stress axis : x y z
#
# Youngs Moduli (GPa) = 91.59284 41.67387 43.06181
#
# Poissons Ratio (x) = 0.18252 0.06425
# Poissons Ratio (y) = 0.40115 0.64510
# Poissons Ratio (z) = 0.13666 0.62431
#
# Static dielectric constant tensor:
#      x y z
#    x 1.633430 0.000000 0.010980 
#    y 0.000000 1.561390 0.000000 
#    z 0.010980 0.000000 1.643150 
# 
# From -- ./inp_files/73132.got.cif
#   From: 2010.05.17/outbox.cif.g08.bks.cpg/sg15_37_cif.got.tgz:73132.got - 2010.06.03 18:47:42.
