data_PCOD9263227
_publ_section_title
;
Structure prediction by ZEFSAII (Michael W. Deem and Ramdas Pophale) SiO2 
 PCOD9263227
Probable space group: C 2/C
;
_chemical_formula_sum "Si O2"
_cell_formula_units_Z 64
_cell_length_a 17.115505
_cell_length_b 21.779600
_cell_length_c 10.695043
_cell_angle_alpha 90.000000
_cell_angle_beta 123.878860
_cell_angle_gamma 90.000000
_cell_volume 3309.895675
_symmetry_space_group_name_H-M "C 2/C"
_symmetry_group_IT_number 15
_symmetry_cell_setting 'monoclinic'
loop_
_space_group_symop_operation_xyz
x,y,z
-x,y,1/2-z
-x,-y,-z
x,-y,1/2+z
1/2+x,1/2+y,z
1/2-x,1/2+y,1/2-z
1/2-x,1/2-y,-z
1/2+x,1/2-y,1/2+z
loop_
_atom_site_type_symbol
_atom_site_label
_atom_site_fract_x
_atom_site_fract_y
_atom_site_fract_z
Si Si1 0.071524 0.841176 0.427323
Si Si2 0.227840 0.240787 0.124056
Si Si3 0.794086 0.935197 0.515327
Si Si4 0.710264 0.571552 0.900127
Si Si5 0.742254 0.172122 0.128406
Si Si6 0.187114 0.637202 0.702860
Si Si7 0.102783 0.274692 0.302946
Si Si8 0.947286 0.935399 0.459182
O O1 0.118615 0.780220 0.523340
O O2 0.156877 0.882093 0.446068
O O3 0.000000 0.828664 0.250000
O O4 0.016800 0.880919 0.481409
O O5 0.278384 0.187002 0.246097
O O6 0.250114 0.303460 0.218497
O O7 0.250000 0.250000 0.000000
O O8 0.775773 0.895681 0.623139
O O9 0.729108 0.903947 0.351117
O O10 0.897957 0.928099 0.549215
O O11 0.774694 0.006348 0.521516
O O12 0.804167 0.597931 0.916392
O O13 0.634689 0.562982 0.719628
O O14 0.828293 0.218175 0.169077
O O15 0.655268 0.191984 0.965167
O O16 0.101318 0.673951 0.690505
O O17 0.000000 0.254310 0.250000
O O18 0.000000 0.000000 0.500000
#
# Coordination Sequence:
#
# PCOD9263227 Si02
#       8
#     8   8   8   8   8   8   8   8
#     4  10  21  36  52  83 120 164 207 244 300 367
#     4  11  21  38  57  74 116 163 203 256 298 357
#     4  10  20  34  57  81 123 159 192 249 303 372
#     4  10  19  34  54  78 120 164 192 239 305 366
#     4   9  21  36  56  90 116 151 209 244 308 378
#     4   9  20  37  55  82 109 151 203 246 300 358
#     4   9  18  39  62  84 118 153 194 259 317 363
#     4  10  20  32  49  83 126 157 199 238 291 377
#
# _framework density 19.335955999999999
#
# number of rings (size 3 to 8) (size 9 to 14) (size 15 to 20)
#    0.000    2.250    2.500    0.750    1.750    2.000 
#    4.500    0.000    0.000    3.000    0.000    3.500 
#    0.000    0.000    0.000    0.000    0.000    0.000 
#
# Total GULP energy -178201.045415 kJ/mol
# GULP energy per Si atom -5568.782669 kJ/mol
# Density = 1.929195 g / cm^3
# Si number density = 19.335956 Si / 1000 Ang^3
#
#
#
# Elastic Constant Matrix: (Units=GPa)
#
#
# Indices 1 2 3 4 5 6 
#
# 1 48.0409 15.0765 11.2211 0.0000 -9.1675 0.0000
# 2 15.0765 85.1931 27.4146 0.0000 -4.8954 0.0000
# 3 11.2211 27.4146 47.0819 0.0000 -11.3187 0.0000
# 4 0.0000 0.0000 0.0000 34.0090 0.0000 -6.7354
# 5 -9.1675 -4.8954 -11.3187 0.0000 29.2706 0.0000
# 6 0.0000 0.0000 0.0000 -6.7354 0.0000 31.2226
#
#
#
# Elastic Compliance Matrix: (Units=1/GPa)
#
#
# Indices 1 2 3 4 5 6 
#
# 1 0.023458 -0.003039 -0.002400 0.000000 0.005911 0.000000
# 2 -0.003039 0.014861 -0.008335 0.000000 -0.001690 0.000000
# 3 -0.002400 -0.008335 0.028829 0.000000 0.009002 0.000000
# 4 0.000000 0.000000 0.000000 0.030716 0.000000 0.006626
# 5 0.005911 -0.001690 0.009002 0.000000 0.039214 0.000000
# 6 0.000000 0.000000 0.000000 0.006626 0.000000 0.033458
#
#
# Mechanical properties :
#
#
# Convention : Reuss Voigt Hill
#
# Bulk Modulus (GPa) = 25.25312 31.97113 28.61213
# Shear Modulus (GPa) = 23.66484 27.34068 25.50276
#
# Velocity S-wave (km/s) = 3.50219 3.76437 3.63565
# Velocity P-wave (km/s) = 5.42608 5.95520 5.69679
#
# Compressibility (1/GPa) = 0.03959907
#
# Stress axis : x y z
#
# Youngs Moduli (GPa) = 42.62955 67.29037 34.68728
#
# Poissons Ratio (x) = 0.20452 0.08325
# Poissons Ratio (y) = 0.12957 0.28912
# Poissons Ratio (z) = 0.10232 0.56086
#
# Static dielectric constant tensor:
#      x y z
#    x 1.725260 0.000000 -0.053590 
#    y 0.000000 1.684860 0.000000 
#    z -0.053590 0.000000 1.726390 
# 
# From -- ./inp_files/107513.got.cif
#   From: 2010.05.17/outbox.cif.g08.bks.cpg/sg15_54_cif.got.tgz:107513.got - 2010.06.03 18:47:42.
