data_PCOD9263011
_publ_section_title
;
Structure prediction by ZEFSAII (Michael W. Deem and Ramdas Pophale) SiO2 
 PCOD9263011
Probable space group: C 2/C
;
_chemical_formula_sum "Si O2"
_cell_formula_units_Z 40
_cell_length_a 23.537126
_cell_length_b 19.335200
_cell_length_c 9.296321
_cell_angle_alpha 90.000000
_cell_angle_beta 149.630204
_cell_angle_gamma 90.000000
_cell_volume 2138.957961
_symmetry_space_group_name_H-M "C 2/C"
_symmetry_group_IT_number 15
_symmetry_cell_setting 'monoclinic'
loop_
_space_group_symop_operation_xyz
x,y,z
-x,y,1/2-z
-x,-y,-z
x,-y,1/2+z
1/2+x,1/2+y,z
1/2-x,1/2+y,1/2-z
1/2-x,1/2-y,-z
1/2+x,1/2-y,1/2+z
loop_
_atom_site_type_symbol
_atom_site_label
_atom_site_fract_x
_atom_site_fract_y
_atom_site_fract_z
Si Si1 0.866453 0.968396 0.432211
Si Si2 0.810860 0.088999 0.502943
Si Si3 0.620865 0.676933 0.428185
Si Si4 0.115556 0.304964 0.587286
Si Si5 0.020446 0.782954 0.135169
O O1 0.828895 0.898219 0.433959
O O2 0.807950 0.036323 0.364880
O O3 0.843847 0.954095 0.216428
O O4 0.000000 0.977783 0.750000
O O5 0.695971 0.130255 0.274396
O O6 0.905361 0.147773 0.690590
O O7 0.675022 0.742824 0.625471
O O8 0.500000 0.672556 0.250000
O O9 0.590336 0.694940 0.198038
O O10 0.082236 0.271847 0.666970
O O11 0.000000 0.321310 0.250000
O O12 0.000000 0.756332 0.250000
#
# Coordination Sequence:
#
# PCOD9263011 Si02
#       5
#     8   8   8   8   8
#     4  11  21  35  54  91 123 146 181 236 287 356
#     4  12  22  35  60  85 120 156 184 227 299 341
#     4   8  16  35  54  80 117 143 178 234 280 333
#     4   9  20  42  60  79 113 155 198 240 270 327
#     4  10  19  33  59  90 113 144 185 235 295 336
#
# _framework density 18.700696000000001
#
# number of rings (size 3 to 8) (size 9 to 14) (size 15 to 20)
#    0.000    2.400    6.000    1.800    2.800    0.000 
#    0.000    9.000    0.000    0.000    0.000    0.000 
#    0.000    0.000    0.000    0.000    0.000    0.000 
#
# Total GULP energy -111579.775734 kJ/mol
# GULP energy per Si atom -5578.988787 kJ/mol
# Density = 1.865813 g / cm^3
# Si number density = 18.700696 Si / 1000 Ang^3
#
#
#
# Elastic Constant Matrix: (Units=GPa)
#
#
# Indices 1 2 3 4 5 6 
#
# 1 74.4556 41.0000 35.8127 0.0000 -23.9798 0.0000
# 2 41.0000 86.9944 21.5380 0.0000 3.1315 0.0000
# 3 35.8127 21.5380 51.3256 0.0000 -11.7174 0.0000
# 4 0.0000 0.0000 0.0000 -106.0214 0.0000 -44.6355
# 5 -23.9798 3.1315 -11.7174 0.0000 17.8420 0.0000
# 6 0.0000 0.0000 0.0000 -44.6355 0.0000 1.1165
#
#
#
# Elastic Compliance Matrix: (Units=1/GPa)
#
#
# Indices 1 2 3 4 5 6 
#
# 1 0.058897 -0.027463 -0.012234 0.000000 0.075943 0.000000
# 2 -0.027463 0.026377 -0.001635 0.000000 -0.042613 0.000000
# 3 -0.012234 -0.001635 0.029430 0.000000 0.003172 0.000000
# 4 0.000000 0.000000 0.000000 -0.000529 0.000000 -0.021147
# 5 0.075943 -0.042613 0.003172 0.000000 0.167678 0.000000
# 6 0.000000 0.000000 0.000000 -0.021147 0.000000 0.050230
#
#
# Mechanical properties :
#
#
# Convention : Reuss Voigt Hill
#
# Bulk Modulus (GPa) = 31.21003 45.49747 38.35375
# Shear Modulus (GPa) = 11.75295 -9.78425 0.98435
#
# Velocity S-wave (km/s) = 2.50966 -2.28984 0.72630
# Velocity P-wave (km/s) = 5.01232 4.17024 4.61055
#
# Compressibility (1/GPa) = 0.03204098
#
# Stress axis : x y z
#
# Youngs Moduli (GPa) = 16.97882 37.91244 33.97922
#
# Poissons Ratio (x) = 1.04117 0.41570
# Poissons Ratio (y) = 0.46628 0.05554
# Poissons Ratio (z) = 0.20772 0.06197
#
# Static dielectric constant tensor:
#      x y z
#    x 1.665880 0.000000 0.002550 
#    y 0.000000 1.666920 0.000000 
#    z 0.002550 0.000000 1.682680 
# 
# From -- ./inp_files/63478.got.cif
#   From: 2010.05.17/outbox.cif.g08.bks.cpg/sg15_32_cif.got.tgz:63478.got - 2010.06.03 18:47:42.
