data_PCOD9263572
_publ_section_title
;
Structure prediction by ZEFSAII (Michael W. Deem and Ramdas Pophale) SiO2 
 PCOD9263572
Probable space group: C 2/C
;
_chemical_formula_sum "Si O2"
_cell_formula_units_Z 48
_cell_length_a 11.237281
_cell_length_b 18.858145
_cell_length_c 10.176159
_cell_angle_alpha 90.000000
_cell_angle_beta 99.246064
_cell_angle_gamma 90.000000
_cell_volume 2128.455170
_symmetry_space_group_name_H-M "C 2/C"
_symmetry_group_IT_number 15
_symmetry_cell_setting 'monoclinic'
loop_
_space_group_symop_operation_xyz
x,y,z
-x,y,1/2-z
-x,-y,-z
x,-y,1/2+z
1/2+x,1/2+y,z
1/2-x,1/2+y,1/2-z
1/2-x,1/2-y,-z
1/2+x,1/2-y,1/2+z
loop_
_atom_site_type_symbol
_atom_site_label
_atom_site_fract_x
_atom_site_fract_y
_atom_site_fract_z
Si Si1 0.500000 0.839774 0.750000
Si Si2 0.679176 0.477948 0.891341
Si Si3 0.641289 0.708252 0.128861
Si Si4 0.321624 0.713056 0.784349
Si Si5 0.000000 0.912791 0.250000
Si Si6 0.713693 0.930933 0.871730
Si Si7 0.875528 0.180795 0.061840
O O1 0.403481 0.784782 0.795434
O O2 0.583287 0.893283 0.847707
O O3 0.570238 0.533357 0.856814
O O4 0.746661 0.462835 0.763971
O O5 0.622960 0.404128 0.928725
O O6 0.768911 0.510162 0.014836
O O7 0.730353 0.775540 0.145415
O O8 0.696472 0.635255 0.088920
O O9 0.507059 0.713423 0.051229
O O10 0.641047 0.701132 0.288685
O O11 0.398484 0.642273 0.776835
O O12 0.283741 0.699198 0.928438
#
# Coordination Sequence:
#
# PCOD9263572 Si02
#       7
#     4   8   8   8   4   8   8
#     4   9  22  40  56  80 114 157 192 236 292 337
#     4  11  22  37  60  90 116 151 193 237 291 337
#     4   9  19  34  54  82 113 150 187 233 288 333
#     4  10  20  35  55  81 113 150 192 234 282 341
#     4  11  22  34  56  86 116 147 190 240 284 341
#     4  10  21  38  59  83 118 153 192 237 285 345
#     4  10  19  34  58  82 113 148 188 237 282 339
#
# _framework density 22.551568
#
# number of rings (size 3 to 8) (size 9 to 14) (size 15 to 20)
#    0.000    2.000    0.000    4.500    0.000    4.000 
#    0.000    5.000    0.000    8.000    0.000    0.000 
#    0.000    0.000    0.000    0.000    0.000    0.000 
#
# Total GULP energy -133789.805026 kJ/mol
# GULP energy per Si atom -5574.575209 kJ/mol
# Density = 2.250024 g / cm^3
# Si number density = 22.551568 Si / 1000 Ang^3
#
#
#
# Elastic Constant Matrix: (Units=GPa)
#
#
# Indices 1 2 3 4 5 6 
#
# 1 26.7138 9.9987 5.8466 0.0000 9.0358 0.0000
# 2 9.9987 101.9018 59.0506 0.0000 6.9908 0.0000
# 3 5.8466 59.0506 100.4502 0.0000 7.5210 0.0000
# 4 0.0000 0.0000 0.0000 40.1950 0.0000 8.0671
# 5 9.0358 6.9908 7.5210 0.0000 31.3525 0.0000
# 6 0.0000 0.0000 0.0000 8.0671 0.0000 10.3569
#
#
#
# Elastic Compliance Matrix: (Units=1/GPa)
#
#
# Indices 1 2 3 4 5 6 
#
# 1 0.042621 -0.003719 0.000573 0.000000 -0.011592 0.000000
# 2 -0.003719 0.015256 -0.008734 0.000000 -0.000235 0.000000
# 3 0.000573 -0.008734 0.015196 0.000000 -0.001863 0.000000
# 4 0.000000 0.000000 0.000000 0.029489 0.000000 -0.022969
# 5 -0.011592 -0.000235 -0.001863 0.000000 0.035735 0.000000
# 6 0.000000 0.000000 0.000000 -0.022969 0.000000 0.114445
#
#
# Mechanical properties :
#
#
# Convention : Reuss Voigt Hill
#
# Bulk Modulus (GPa) = 20.27863 42.09530 31.18697
# Shear Modulus (GPa) = 17.06843 26.65887 21.86365
#
# Velocity S-wave (km/s) = 2.75410 3.44194 3.11705
# Velocity P-wave (km/s) = 4.37322 5.87390 5.17821
#
# Compressibility (1/GPa) = 0.04931299
#
# Stress axis : x y z
#
# Youngs Moduli (GPa) = 23.46252 65.54927 65.80787
#
# Poissons Ratio (x) = 0.24379 -0.03774
# Poissons Ratio (y) = 0.08726 0.57478
# Poissons Ratio (z) = -0.01346 0.57252
#
# Static dielectric constant tensor:
#      x y z
#    x 2.061550 0.000000 -0.047010 
#    y 0.000000 1.847390 0.000000 
#    z -0.047010 0.000000 1.876940 
# 
# From -- ./inp_files/87914.got.cif
#   From: 2010.05.17/outbox.cif.g08.bks.cpg/sg15_44_cif.got.tgz:87914.got - 2010.06.03 18:47:42.
