data_PCOD9263285
_publ_section_title
;
Structure prediction by ZEFSAII (Michael W. Deem and Ramdas Pophale) SiO2 
 PCOD9263285
Probable space group: C 2/C
;
_chemical_formula_sum "Si O2"
_cell_formula_units_Z 56
_cell_length_a 25.398372
_cell_length_b 8.365509
_cell_length_c 13.441263
_cell_angle_alpha 90.000000
_cell_angle_beta 68.244626
_cell_angle_gamma 90.000000
_cell_volume 2652.459427
_symmetry_space_group_name_H-M "C 2/C"
_symmetry_group_IT_number 15
_symmetry_cell_setting 'monoclinic'
loop_
_space_group_symop_operation_xyz
x,y,z
-x,y,1/2-z
-x,-y,-z
x,-y,1/2+z
1/2+x,1/2+y,z
1/2-x,1/2+y,1/2-z
1/2-x,1/2-y,-z
1/2+x,1/2-y,1/2+z
loop_
_atom_site_type_symbol
_atom_site_label
_atom_site_fract_x
_atom_site_fract_y
_atom_site_fract_z
Si Si1 0.587266 0.217893 0.535516
Si Si2 0.119701 0.100532 0.810424
Si Si3 0.807409 0.699595 0.908020
Si Si4 0.704737 0.332942 0.805097
Si Si5 0.169606 0.395690 0.706119
Si Si6 0.112306 0.395095 0.419161
Si Si7 0.025828 0.871323 0.903723
O O1 0.598217 0.298992 0.420527
O O2 0.637805 0.264891 0.573716
O O3 0.526485 0.283217 0.611898
O O4 0.591358 0.027505 0.512111
O O5 0.138604 0.227074 0.714417
O O6 0.172568 0.000994 0.816896
O O7 0.071473 0.976235 0.811273
O O8 0.801115 0.760059 0.800538
O O9 0.815981 0.508851 0.895763
O O10 0.750000 0.750000 0.000000
O O11 0.769774 0.356016 0.786827
O O12 0.668262 0.213477 0.900614
O O13 0.130822 0.501779 0.808396
O O14 0.063004 0.267905 0.429761
O O15 0.000000 0.000000 0.000000
#
# Coordination Sequence:
#
# PCOD9263285 Si02
#       7
#     8   8   8   8   8   8   8
#     4  10  19  35  57  84 112 139 180 237 274 312
#     4   9  18  35  56  78 107 150 190 217 266 341
#     4  11  22  35  55  85 112 141 182 234 282 319
#     4  10  19  35  56  79 110 151 183 216 272 342
#     4  10  19  34  55  78 108 147 183 218 270 339
#     4   9  18  33  56  80 106 147 184 212 265 337
#     4   9  18  33  58  82 105 141 186 226 267 322
#
# _framework density 21.112483000000001
#
# number of rings (size 3 to 8) (size 9 to 14) (size 15 to 20)
#    0.000    2.286    0.000    4.714    0.000    0.000 
#    0.000   13.571    0.000    5.143    0.000    0.000 
#    0.000    0.000    0.000    0.000    0.000    0.000 
#
# Total GULP energy -156134.722868 kJ/mol
# GULP energy per Si atom -5576.240102 kJ/mol
# Density = 2.106443 g / cm^3
# Si number density = 21.112483 Si / 1000 Ang^3
#
#
#
# Elastic Constant Matrix: (Units=GPa)
#
#
# Indices 1 2 3 4 5 6 
#
# 1 154.9834 54.7609 40.5182 0.0000 -19.6883 0.0000
# 2 54.7609 135.4919 35.9912 0.0000 -22.0966 0.0000
# 3 40.5182 35.9912 34.7975 0.0000 -14.0130 0.0000
# 4 0.0000 0.0000 0.0000 24.3264 0.0000 4.4110
# 5 -19.6883 -22.0966 -14.0130 0.0000 22.2377 0.0000
# 6 0.0000 0.0000 0.0000 4.4110 0.0000 6.1697
#
#
#
# Elastic Compliance Matrix: (Units=1/GPa)
#
#
# Indices 1 2 3 4 5 6 
#
# 1 0.009454 -0.001128 -0.009277 0.000000 0.001404 0.000000
# 2 -0.001128 0.010685 -0.007859 0.000000 0.004666 0.000000
# 3 -0.009277 -0.007859 0.055232 0.000000 0.018782 0.000000
# 4 0.000000 0.000000 0.000000 0.047230 0.000000 -0.033767
# 5 0.001404 0.004666 0.018782 0.000000 0.062684 0.000000
# 6 0.000000 0.000000 0.000000 -0.033767 0.000000 0.186224
#
#
# Mechanical properties :
#
#
# Convention : Reuss Voigt Hill
#
# Bulk Modulus (GPa) = 25.74425 65.31260 45.52843
# Shear Modulus (GPa) = 11.87692 23.48026 17.67859
#
# Velocity S-wave (km/s) = 2.37440 3.33851 2.89684
# Velocity P-wave (km/s) = 4.44267 6.77226 5.72717
#
# Compressibility (1/GPa) = 0.03884363
#
# Stress axis : x y z
#
# Youngs Moduli (GPa) = 105.76988 93.58898 18.10558
#
# Poissons Ratio (x) = 0.10557 0.16796
# Poissons Ratio (y) = 0.11930 0.14229
# Poissons Ratio (z) = 0.98120 0.73552
#
# Static dielectric constant tensor:
#      x y z
#    x 1.773440 0.000000 -0.046260 
#    y 0.000000 1.812820 0.000000 
#    z -0.046260 0.000000 1.829390 
# 
# From -- ./inp_files/176164.got.cif
#   From: 2010.05.17/outbox.cif.g08.bks.cpg/sg15_89_cif.got.tgz:176164.got - 2010.06.03 18:47:42.
