data_PCOD9263725
_publ_section_title
;
Structure prediction by ZEFSAII (Michael W. Deem and Ramdas Pophale) SiO2 
 PCOD9263725
Probable space group: C 2/C
;
_chemical_formula_sum "Si O2"
_cell_formula_units_Z 36
_cell_length_a 15.903067
_cell_length_b 20.291532
_cell_length_c 9.502618
_cell_angle_alpha 90.000000
_cell_angle_beta 140.426525
_cell_angle_gamma 90.000000
_cell_volume 1953.548744
_symmetry_space_group_name_H-M "C 2/C"
_symmetry_group_IT_number 15
_symmetry_cell_setting 'monoclinic'
loop_
_space_group_symop_operation_xyz
x,y,z
-x,y,1/2-z
-x,-y,-z
x,-y,1/2+z
1/2+x,1/2+y,z
1/2-x,1/2+y,1/2-z
1/2-x,1/2-y,-z
1/2+x,1/2-y,1/2+z
loop_
_atom_site_type_symbol
_atom_site_label
_atom_site_fract_x
_atom_site_fract_y
_atom_site_fract_z
Si Si1 0.403229 0.974543 0.494616
Si Si2 0.351522 0.312717 0.993448
Si Si3 0.500000 0.510624 0.250000
Si Si4 0.654161 0.163154 0.491196
Si Si5 0.344149 0.567206 0.303564
O O1 0.334919 0.901924 0.397215
O O2 0.500000 0.000000 0.500000
O O3 0.293696 0.029481 0.377463
O O4 0.500000 0.968662 0.750000
O O5 0.500000 0.315289 0.250000
O O6 0.249915 0.342231 0.978841
O O7 0.315523 0.236703 0.914846
O O8 0.339684 0.356940 0.840238
O O9 0.411512 0.553758 0.240825
O O10 0.579038 0.465749 0.464006
O O11 0.500000 0.166725 0.250000
#
# Coordination Sequence:
#
# PCOD9263725 Si02
#       5
#     8   8   4   8   8
#     4  11  22  37  60  84 114 152 196 237 283 345
#     4  10  19  34  59  89 115 144 196 247 291 335
#     4  10  22  32  54  84 116 146 182 234 294 340
#     4   9  19  35  56  87 113 150 196 245 280 338
#     4  11  20  36  56  85 116 147 189 236 289 346
#
# _framework density 18.428001999999999
#
# number of rings (size 3 to 8) (size 9 to 14) (size 15 to 20)
#    0.000    1.778    1.111    5.333    3.111    0.000 
#    0.000    0.000    2.444    2.667    0.000    0.000 
#    0.000    0.000    0.000    0.000    0.000    0.000 
#
# Total GULP energy -100302.439436 kJ/mol
# GULP energy per Si atom -5572.357746 kJ/mol
# Density = 1.838606 g / cm^3
# Si number density = 18.428002 Si / 1000 Ang^3
#
#
#
# Elastic Constant Matrix: (Units=GPa)
#
#
# Indices 1 2 3 4 5 6 
#
# 1 163.0424 46.6635 26.9750 0.0000 -3.7966 0.0000
# 2 46.6635 96.7552 14.2686 0.0000 -19.6608 0.0000
# 3 26.9750 14.2686 34.6782 0.0000 6.1945 0.0000
# 4 0.0000 0.0000 0.0000 25.8376 0.0000 -0.5889
# 5 -3.7966 -19.6608 6.1945 0.0000 29.7269 0.0000
# 6 0.0000 0.0000 0.0000 -0.5889 0.0000 55.5681
#
#
#
# Elastic Compliance Matrix: (Units=1/GPa)
#
#
# Indices 1 2 3 4 5 6 
#
# 1 0.007804 -0.003060 -0.004807 0.000000 -0.000026 0.000000
# 2 -0.003060 0.014778 -0.005584 0.000000 0.010546 0.000000
# 3 -0.004807 -0.005584 0.037021 0.000000 -0.012021 0.000000
# 4 0.000000 0.000000 0.000000 0.038713 0.000000 0.000410
# 5 -0.000026 0.010546 -0.012021 0.000000 0.043117 0.000000
# 6 0.000000 0.000000 0.000000 0.000410 0.000000 0.018000
#
#
# Mechanical properties :
#
#
# Convention : Reuss Voigt Hill
#
# Bulk Modulus (GPa) = 30.58054 52.25445 41.41749
# Shear Modulus (GPa) = 25.35070 35.99777 30.67423
#
# Velocity S-wave (km/s) = 3.71302 4.42455 4.08431
# Velocity P-wave (km/s) = 5.91715 7.38375 6.69076
#
# Compressibility (1/GPa) = 0.03270054
#
# Stress axis : x y z
#
# Youngs Moduli (GPa) = 128.14238 67.66950 27.01206
#
# Poissons Ratio (x) = 0.20707 0.12984
# Poissons Ratio (y) = 0.39212 0.15084
# Poissons Ratio (z) = 0.61594 0.37787
#
# Static dielectric constant tensor:
#      x y z
#    x 1.584170 0.000000 0.010470 
#    y 0.000000 1.745060 0.000000 
#    z 0.010470 0.000000 1.624730 
# 
# From -- ./inp_files/30095.got.cif
#   From: 2010.05.17/outbox.cif.g08.bks.cpg/sg15_16_cif.got.tgz:30095.got - 2010.06.03 18:47:42.
