data_PCOD9263450
_publ_section_title
;
Structure prediction by ZEFSAII (Michael W. Deem and Ramdas Pophale) SiO2 
 PCOD9263450
Probable space group: C 2/C
;
_chemical_formula_sum "Si O2"
_cell_formula_units_Z 40
_cell_length_a 7.084829
_cell_length_b 17.716731
_cell_length_c 21.756752
_cell_angle_alpha 90.000000
_cell_angle_beta 40.970259
_cell_angle_gamma 90.000000
_cell_volume 1790.566583
_symmetry_space_group_name_H-M "C 2/C"
_symmetry_group_IT_number 15
_symmetry_cell_setting 'monoclinic'
loop_
_space_group_symop_operation_xyz
x,y,z
-x,y,1/2-z
-x,-y,-z
x,-y,1/2+z
1/2+x,1/2+y,z
1/2-x,1/2+y,1/2-z
1/2-x,1/2-y,-z
1/2+x,1/2-y,1/2+z
loop_
_atom_site_type_symbol
_atom_site_label
_atom_site_fract_x
_atom_site_fract_y
_atom_site_fract_z
Si Si1 0.342363 0.503377 0.448559
Si Si2 0.950223 0.638961 0.426612
Si Si3 0.730244 0.948136 0.746986
Si Si4 0.857601 0.777172 0.040117
Si Si5 0.109053 0.575769 0.622530
O O1 0.153215 0.427499 0.501181
O O2 0.456762 0.546151 0.360428
O O3 0.184208 0.560159 0.533343
O O4 0.640308 0.471494 0.404646
O O5 0.658582 0.674786 0.467063
O O6 0.147387 0.604975 0.324072
O O7 0.094430 0.705629 0.428755
O O8 0.500000 0.928362 0.750000
O O9 0.671986 0.033475 0.785523
O O10 0.632140 0.835772 0.125748
O O11 0.750000 0.750000 0.000000
#
# Coordination Sequence:
#
# PCOD9263450 Si02
#       5
#     8   8   8   8   8
#     4   8  14  29  56  81 108 141 198 242 279 330
#     4   9  19  34  58  87 105 156 200 229 292 359
#     4   9  15  29  60  82 110 146 199 248 286 332
#     4  10  19  34  57  77 121 151 188 235 299 349
#     4   8  15  28  52  80 104 150 190 225 290 349
#
# _framework density 22.339296999999998
#
# number of rings (size 3 to 8) (size 9 to 14) (size 15 to 20)
#    0.000    3.200    0.000    3.600    0.000    0.000 
#    0.000    4.000   57.200    9.600    0.000    0.000 
#    0.000    0.000    0.000    0.800    0.000    0.000 
#
# Total GULP energy -111621.101343 kJ/mol
# GULP energy per Si atom -5581.055067 kJ/mol
# Density = 2.228845 g / cm^3
# Si number density = 22.339297 Si / 1000 Ang^3
#
#
#
# Elastic Constant Matrix: (Units=GPa)
#
#
# Indices 1 2 3 4 5 6 
#
# 1 118.7641 28.2679 38.2073 0.0006 17.3880 0.0015
# 2 28.2679 114.3149 40.3209 -0.0003 12.8312 0.0029
# 3 38.2073 40.3209 148.1575 -0.0027 13.9168 0.0014
# 4 0.0006 -0.0003 -0.0027 10.4768 -0.0003 12.9278
# 5 17.3880 12.8312 13.9168 -0.0003 27.3917 -0.0009
# 6 0.0015 0.0029 0.0014 12.9278 -0.0009 9.5420
#
#
#
# Elastic Compliance Matrix: (Units=1/GPa)
#
#
# Indices 1 2 3 4 5 6 
#
# 1 0.010010 -0.001307 -0.001771 -0.000001 -0.004842 0.000000
# 2 -0.001307 0.010150 -0.002160 -0.000005 -0.002828 0.000004
# 3 -0.001771 -0.002160 0.007974 -0.000004 -0.001916 0.000005
# 4 -0.000001 -0.000005 -0.000004 -0.142081 0.000010 0.192497
# 5 -0.004842 -0.002828 -0.001916 0.000010 0.041879 -0.000007
# 6 0.000000 0.000004 0.000005 0.192497 -0.000007 -0.156002
#
#
# Mechanical properties :
#
#
# Convention : Reuss Voigt Hill
#
# Bulk Modulus (GPa) = 56.62938 66.09210 61.36074
# Shear Modulus (GPa) = -23.61741 27.77812 2.08035
#
# Velocity S-wave (km/s) = -3.25501 3.53010 0.96606
# Velocity P-wave (km/s) = 3.35826 6.80186 5.36392
#
# Compressibility (1/GPa) = 0.01765868
#
# Stress axis : x y z
#
# Youngs Moduli (GPa) = 99.90228 98.52085 125.40902
#
# Poissons Ratio (x) = 0.12878 0.22207
# Poissons Ratio (y) = 0.13059 0.27084
# Poissons Ratio (z) = 0.17691 0.21277
#
# Static dielectric constant tensor:
#      x y z
#    x 1.967980 0.000000 -0.014810 
#    y 0.000000 1.815370 0.000000 
#    z -0.014810 0.000000 1.819050 
# 
# From -- ./inp_files/265109.got.cif
#   From: 2010.05.17/outbox.cif.g08.bks.cpg/sg15_133_cif.got.tgz:265109.got - 2010.06.03 18:47:42.
