data_PCOD9263878
_publ_section_title
;
Structure prediction by ZEFSAII (Michael W. Deem and Ramdas Pophale) SiO2 
 PCOD9263878
Probable space group: C 2/C
;
_chemical_formula_sum "Si O2"
_cell_formula_units_Z 36
_cell_length_a 7.671027
_cell_length_b 19.033269
_cell_length_c 12.528487
_cell_angle_alpha 90.000000
_cell_angle_beta 57.093168
_cell_angle_gamma 90.000000
_cell_volume 1535.729485
_symmetry_space_group_name_H-M "C 2/C"
_symmetry_group_IT_number 15
_symmetry_cell_setting 'monoclinic'
loop_
_space_group_symop_operation_xyz
x,y,z
-x,y,1/2-z
-x,-y,-z
x,-y,1/2+z
1/2+x,1/2+y,z
1/2-x,1/2+y,1/2-z
1/2-x,1/2-y,-z
1/2+x,1/2-y,1/2+z
loop_
_atom_site_type_symbol
_atom_site_label
_atom_site_fract_x
_atom_site_fract_y
_atom_site_fract_z
Si Si1 0.736329 0.228822 0.675476
Si Si2 0.281450 0.592454 0.549020
Si Si3 0.500000 0.793398 0.750000
Si Si4 0.089320 0.374445 0.914084
Si Si5 0.136570 0.012669 0.297785
O O1 0.500000 0.207932 0.750000
O O2 0.849143 0.166868 0.576248
O O3 0.765572 0.305719 0.614728
O O4 0.818299 0.243855 0.766951
O O5 0.078813 0.597295 0.538414
O O6 0.468746 0.560492 0.416627
O O7 0.258463 0.539752 0.654996
O O8 0.437260 0.840318 0.874841
O O9 0.201751 0.435273 0.810945
O O10 0.000000 0.976096 0.250000
#
# Coordination Sequence:
#
# PCOD9263878 Si02
#       5
#     8   8   4   8   8
#     4  10  20  38  59  84 118 154 191 242 284 336
#     4  10  19  34  62  87 111 162 192 230 294 352
#     4   8  22  36  60  84 118 154 190 242 292 332
#     4   9  19  39  57  85 116 152 193 241 288 339
#     4   9  19  35  60  85 122 152 188 240 295 337
#
# _framework density 23.441628000000001
#
# number of rings (size 3 to 8) (size 9 to 14) (size 15 to 20)
#    1.333    1.333    0.000    2.667    1.556    0.000 
#    2.000    5.556    0.000    0.000    0.000    0.000 
#    0.000    0.000    0.000    0.000    0.000    0.000 
#
# Total GULP energy -100229.468336 kJ/mol
# GULP energy per Si atom -5568.303796 kJ/mol
# Density = 2.338827 g / cm^3
# Si number density = 23.441628 Si / 1000 Ang^3
#
#
#
# Elastic Constant Matrix: (Units=GPa)
#
#
# Indices 1 2 3 4 5 6 
#
# 1 105.5263 21.6079 57.7366 0.0000 55.3175 0.0000
# 2 21.6079 30.8825 63.7134 0.0000 59.2943 0.0000
# 3 57.7366 63.7134 104.7149 0.0000 55.6300 0.0000
# 4 0.0000 0.0000 0.0000 37.0994 0.0000 26.6681
# 5 55.3175 59.2943 55.6300 0.0000 40.5055 0.0000
# 6 0.0000 0.0000 0.0000 26.6681 0.0000 36.4588
#
#
#
# Elastic Compliance Matrix: (Units=1/GPa)
#
#
# Indices 1 2 3 4 5 6 
#
# 1 0.010752 -0.011358 -0.000184 0.000000 0.002195 0.000000
# 2 -0.011358 -0.002926 -0.009147 0.000000 0.032356 0.000000
# 3 -0.000184 -0.009147 0.029476 0.000000 -0.026842 0.000000
# 4 0.000000 0.000000 0.000000 0.056842 0.000000 -0.041577
# 5 0.002195 0.032356 -0.026842 0.000000 0.011191 0.000000
# 6 0.000000 0.000000 0.000000 -0.041577 0.000000 0.057840
#
#
# Mechanical properties :
#
#
# Convention : Reuss Voigt Hill
#
# Bulk Modulus (GPa) = -245.45777 58.58220 -93.43779
# Shear Modulus (GPa) = 24.60712 29.35046 26.97879
#
# Velocity S-wave (km/s) = 3.24345 3.54229 3.39616
# Velocity P-wave (km/s) = 9.53472 6.46339 4.95659
#
# Compressibility (1/GPa) = -0.00407402
#
# Stress axis : x y z
#
# Youngs Moduli (GPa) = 93.00589 -341.76508 33.92563
#
# Poissons Ratio (x) = -3.88170 0.00623
# Poissons Ratio (y) = 1.05634 0.31031
# Poissons Ratio (z) = 0.01708 -3.12604
#
# Static dielectric constant tensor:
#      x y z
#    x 1.921410 0.000000 0.039160 
#    y 0.000000 1.892690 0.000000 
#    z 0.039160 0.000000 1.984630 
# 
# From -- ./inp_files/133505.got.cif
#   From: 2010.05.17/outbox.cif.g08.bks.cpg/sg15_67_cif.got.tgz:133505.got - 2010.06.03 18:47:42.
