data_PCOD9263240
_publ_section_title
;
Structure prediction by ZEFSAII (Michael W. Deem and Ramdas Pophale) SiO2 
 PCOD9263240
Probable space group: C 2/C
;
_chemical_formula_sum "Si O2"
_cell_formula_units_Z 52
_cell_length_a 12.118411
_cell_length_b 26.156313
_cell_length_c 9.359698
_cell_angle_alpha 90.000000
_cell_angle_beta 75.242830
_cell_angle_gamma 90.000000
_cell_volume 2868.909395
_symmetry_space_group_name_H-M "C 2/C"
_symmetry_group_IT_number 15
_symmetry_cell_setting 'monoclinic'
loop_
_space_group_symop_operation_xyz
x,y,z
-x,y,1/2-z
-x,-y,-z
x,-y,1/2+z
1/2+x,1/2+y,z
1/2-x,1/2+y,1/2-z
1/2-x,1/2-y,-z
1/2+x,1/2-y,1/2+z
loop_
_atom_site_type_symbol
_atom_site_label
_atom_site_fract_x
_atom_site_fract_y
_atom_site_fract_z
Si Si1 0.375351 0.515235 0.481795
Si Si2 0.638993 0.568319 0.725976
Si Si3 0.196270 0.726405 0.373465
Si Si4 0.607577 0.318121 0.878278
Si Si5 0.521599 0.207071 0.904093
Si Si6 0.282614 0.318770 0.347561
Si Si7 0.000000 0.907692 0.750000
O O1 0.500000 0.500000 0.500000
O O2 0.323554 0.540265 0.640129
O O3 0.321789 0.465909 0.422618
O O4 0.402358 0.556437 0.348771
O O5 0.500000 0.570721 0.750000
O O6 0.686289 0.625297 0.718240
O O7 0.250000 0.750000 0.500000
O O8 0.290249 0.691136 0.267159
O O9 0.175854 0.773546 0.271134
O O10 0.082255 0.696612 0.455529
O O11 0.526126 0.268978 0.894400
O O12 0.545153 0.370396 0.859348
O O13 0.658206 0.315721 0.019019
O O14 0.500000 0.188205 0.750000
O O15 0.646699 0.189105 0.908437
#
# Coordination Sequence:
#
# PCOD9263240 Si02
#       7
#     8   8   8   8   8   8   4
#     4  10  19  34  54  81 117 147 186 245 297 351
#     4  10  21  36  55  85 117 149 188 244 300 355
#     4  11  21  38  58  82 117 159 198 239 290 348
#     4  11  23  36  54  87 119 156 199 235 289 350
#     4  11  21  39  56  80 123 152 196 245 275 352
#     4  11  25  36  57  88 117 160 201 236 297 348
#     4  12  20  34  60  82 122 156 186 238 302 352
#
# _framework density 18.125354000000002
#
# number of rings (size 3 to 8) (size 9 to 14) (size 15 to 20)
#    0.000    1.231    6.154    3.692    6.462    1.846 
#    0.000    0.000    0.000    0.000    0.000    4.308 
#    0.000    0.000    0.000    0.000    0.000    0.000 
#
# Total GULP energy -145110.304750 kJ/mol
# GULP energy per Si atom -5581.165567 kJ/mol
# Density = 1.808410 g / cm^3
# Si number density = 18.125354 Si / 1000 Ang^3
#
#
#
# Elastic Constant Matrix: (Units=GPa)
#
#
# Indices 1 2 3 4 5 6 
#
# 1 41.9969 5.0068 17.8729 0.0000 4.5789 0.0000
# 2 5.0068 55.5316 -3.2957 0.0000 0.0340 0.0000
# 3 17.8729 -3.2957 74.4481 0.0000 5.7717 0.0000
# 4 0.0000 0.0000 0.0000 19.4005 0.0000 0.2382
# 5 4.5789 0.0340 5.7717 0.0000 37.3699 0.0000
# 6 0.0000 0.0000 0.0000 0.2382 0.0000 -0.3878
#
#
#
# Elastic Compliance Matrix: (Units=1/GPa)
#
#
# Indices 1 2 3 4 5 6 
#
# 1 0.027153 -0.002830 -0.006464 0.000000 -0.002326 0.000000
# 2 -0.002830 0.018351 0.001484 0.000000 0.000101 0.000000
# 3 -0.006464 0.001484 0.015170 0.000000 -0.001552 0.000000
# 4 0.000000 0.000000 0.000000 0.051159 0.000000 0.031427
# 5 -0.002326 0.000101 -0.001552 0.000000 0.027284 0.000000
# 6 0.000000 0.000000 0.000000 0.031427 0.000000 -2.559500
#
#
# Mechanical properties :
#
#
# Convention : Reuss Voigt Hill
#
# Bulk Modulus (GPa) = 22.19553 23.46051 22.82802
# Shear Modulus (GPa) = -2.09227 21.43601 9.67187
#
# Velocity S-wave (km/s) = -1.07557 3.44270 2.31251
# Velocity P-wave (km/s) = 3.27562 5.36419 4.44433
#
# Compressibility (1/GPa) = 0.04505411
#
# Stress axis : x y z
#
# Youngs Moduli (GPa) = 36.82819 54.49300 65.91970
#
# Poissons Ratio (x) = 0.15423 0.42608
# Poissons Ratio (y) = 0.10424 -0.09783
# Poissons Ratio (z) = 0.23804 -0.08087
#
# Static dielectric constant tensor:
#      x y z
#    x 1.649940 0.000000 -0.040710 
#    y 0.000000 1.630570 0.000000 
#    z -0.040710 0.000000 1.672600 
# 
# From -- ./inp_files/33562.got.cif
#   From: 2010.05.17/outbox.cif.g08.bks.cpg/sg15_17_cif.got.tgz:33562.got - 2010.06.03 18:47:42.
