data_PCOD9263559
_publ_section_title
;
Structure prediction by ZEFSAII (Michael W. Deem and Ramdas Pophale) SiO2 
 PCOD9263559
Probable space group: C 2/C
;
_chemical_formula_sum "Si O2"
_cell_formula_units_Z 56
_cell_length_a 11.264500
_cell_length_b 13.696305
_cell_length_c 18.950423
_cell_angle_alpha 90.000000
_cell_angle_beta 123.724639
_cell_angle_gamma 90.000000
_cell_volume 2431.694501
_symmetry_space_group_name_H-M "C 2/C"
_symmetry_group_IT_number 15
_symmetry_cell_setting 'monoclinic'
loop_
_space_group_symop_operation_xyz
x,y,z
-x,y,1/2-z
-x,-y,-z
x,-y,1/2+z
1/2+x,1/2+y,z
1/2-x,1/2+y,1/2-z
1/2-x,1/2-y,-z
1/2+x,1/2-y,1/2+z
loop_
_atom_site_type_symbol
_atom_site_label
_atom_site_fract_x
_atom_site_fract_y
_atom_site_fract_z
Si Si1 0.180919 0.930545 0.110185
Si Si2 0.034672 0.682155 0.835085
Si Si3 0.042918 0.750193 0.988886
Si Si4 0.158045 0.545291 0.057876
Si Si5 0.236013 0.910835 0.285573
Si Si6 0.198718 0.771100 0.390403
Si Si7 0.772010 0.913040 0.975647
O O1 0.342784 0.894648 0.145879
O O2 0.090037 0.846449 0.043848
O O3 0.160833 0.935636 0.187538
O O4 0.154981 0.034678 0.066117
O O5 0.000000 0.736110 0.750000
O O6 0.894429 0.625083 0.815538
O O7 0.073608 0.748390 0.915003
O O8 0.132311 0.660063 0.050406
O O9 0.873543 0.732286 0.943848
O O10 0.240316 0.498879 0.151424
O O11 0.226496 0.504692 0.008698
O O12 0.000000 0.500000 0.000000
O O13 0.162621 0.821970 0.304586
O O14 0.161357 0.843344 0.442085
O O15 0.158723 0.661492 0.400660
#
# Coordination Sequence:
#
# PCOD9263559 Si02
#       7
#     8   8   8   8   8   8   8
#     4  11  21  31  54  84 114 137 185 232 276 328
#     4   9  17  31  50  78 109 137 175 230 272 317
#     4  11  20  33  56  83 110 142 182 229 281 327
#     4  11  17  34  59  80 105 140 186 232 278 321
#     4   9  19  34  53  79 116 139 177 235 279 317
#     4   9  20  37  57  75 108 151 184 219 273 335
#     4  10  19  34  58  79 103 146 190 215 274 340
#
# _framework density 23.029208000000001
#
# number of rings (size 3 to 8) (size 9 to 14) (size 15 to 20)
#    0.000    2.000    5.714    0.429    0.000    1.714 
#    0.000    0.000    3.143    6.857    0.000    0.000 
#    0.000    0.000    0.000    0.000    0.000    0.000 
#
# Total GULP energy -156227.161208 kJ/mol
# GULP energy per Si atom -5579.541472 kJ/mol
# Density = 2.297679 g / cm^3
# Si number density = 23.029208 Si / 1000 Ang^3
#
#
#
# Elastic Constant Matrix: (Units=GPa)
#
#
# Indices 1 2 3 4 5 6 
#
# 1 62.8672 5.6920 32.2293 0.0000 -6.5735 0.0000
# 2 5.6920 118.5356 75.5435 0.0000 -9.9769 0.0000
# 3 32.2293 75.5435 179.0113 0.0000 -54.6184 0.0000
# 4 0.0000 0.0000 0.0000 28.4276 0.0000 -8.3155
# 5 -6.5735 -9.9769 -54.6184 0.0000 40.0489 0.0000
# 6 0.0000 0.0000 0.0000 -8.3155 0.0000 20.9084
#
#
#
# Elastic Compliance Matrix: (Units=1/GPa)
#
#
# Indices 1 2 3 4 5 6 
#
# 1 0.018045 0.002213 -0.005328 0.000000 -0.003753 0.000000
# 2 0.002213 0.012874 -0.008121 0.000000 -0.007505 0.000000
# 3 -0.005328 -0.008121 0.015566 0.000000 0.018331 0.000000
# 4 0.000000 0.000000 0.000000 0.039808 0.000000 0.015832
# 5 -0.003753 -0.007505 0.018331 0.000000 0.047483 0.000000
# 6 0.000000 0.000000 0.000000 0.015832 0.000000 0.054124
#
#
# Mechanical properties :
#
#
# Convention : Reuss Voigt Hill
#
# Bulk Modulus (GPa) = 41.64486 65.26041 53.45264
# Shear Modulus (GPa) = 22.89624 34.34027 28.61826
#
# Velocity S-wave (km/s) = 3.15656 3.86575 3.52901
# Velocity P-wave (km/s) = 5.60427 6.95161 6.31399
#
# Compressibility (1/GPa) = 0.02401257
#
# Stress axis : x y z
#
# Youngs Moduli (GPa) = 55.41666 77.67547 64.24434
#
# Poissons Ratio (x) = -0.17190 0.34228
# Poissons Ratio (y) = -0.12264 0.52175
# Poissons Ratio (z) = 0.29525 0.63083
#
# Static dielectric constant tensor:
#      x y z
#    x 1.963260 0.000000 0.032670 
#    y 0.000000 1.879530 0.000000 
#    z 0.032670 0.000000 1.949070 
# 
# From -- ./inp_files/204096.got.cif
#   From: 2010.05.17/outbox.cif.g08.bks.cpg/sg15_103_cif.got.tgz:204096.got - 2010.06.03 18:47:42.
