data_PCOD9263290
_publ_section_title
;
Structure prediction by ZEFSAII (Michael W. Deem and Ramdas Pophale) SiO2 
 PCOD9263290
Probable space group: C 2/C
;
_chemical_formula_sum "Si O2"
_cell_formula_units_Z 52
_cell_length_a 22.643021
_cell_length_b 27.352188
_cell_length_c 5.292664
_cell_angle_alpha 90.000000
_cell_angle_beta 49.746219
_cell_angle_gamma 90.000000
_cell_volume 2501.689125
_symmetry_space_group_name_H-M "C 2/C"
_symmetry_group_IT_number 15
_symmetry_cell_setting 'monoclinic'
loop_
_space_group_symop_operation_xyz
x,y,z
-x,y,1/2-z
-x,-y,-z
x,-y,1/2+z
1/2+x,1/2+y,z
1/2-x,1/2+y,1/2-z
1/2-x,1/2-y,-z
1/2+x,1/2-y,1/2+z
loop_
_atom_site_type_symbol
_atom_site_label
_atom_site_fract_x
_atom_site_fract_y
_atom_site_fract_z
Si Si1 0.698318 0.298220 0.376807
Si Si2 0.108104 0.360512 0.127078
Si Si3 0.291875 0.471344 0.599310
Si Si4 0.500000 0.209843 0.250000
Si Si5 0.631662 0.777463 0.716430
Si Si6 0.788976 0.140475 0.176151
Si Si7 0.396812 0.971586 0.395300
O O1 0.644850 0.253500 0.435150
O O2 0.677732 0.328090 0.683620
O O3 0.785969 0.276785 0.152821
O O4 0.699485 0.333244 0.125598
O O5 0.053726 0.325905 0.438179
O O6 0.078678 0.415532 0.196646
O O7 0.114678 0.333634 0.838423
O O8 0.196274 0.361243 0.983043
O O9 0.316202 0.494166 0.264513
O O10 0.316439 0.415446 0.580263
O O11 0.197685 0.470536 0.848687
O O12 0.441479 0.240133 0.237845
O O13 0.420250 0.995666 0.593485
#
# Coordination Sequence:
#
# PCOD9263290 Si02
#       7
#     8   8   8   4   8   8   8
#     4  10  21  36  57  80 103 138 180 226 270 322
#     4  10  22  35  55  76 104 139 187 227 272 319
#     4   9  16  27  47  76 106 138 173 212 264 312
#     4  12  22  38  54  76 102 144 180 230 272 322
#     4  10  23  36  56  76 105 135 183 226 277 321
#     4  10  19  34  55  79 109 141 180 226 263 312
#     4   9  19  33  52  72  98 134 180 230 272 305
#
# _framework density 20.785957
#
# number of rings (size 3 to 8) (size 9 to 14) (size 15 to 20)
#    0.000    2.154    1.538    1.385    4.308    5.538 
#    0.000    0.769    0.000    0.000    0.000    0.000 
#    0.000    0.000    0.000   13.846    0.000   12.615 
#
# Total GULP energy -145330.862914 kJ/mol
# GULP energy per Si atom -5589.648574 kJ/mol
# Density = 2.073865 g / cm^3
# Si number density = 20.785957 Si / 1000 Ang^3
#
#
#
# Elastic Constant Matrix: (Units=GPa)
#
#
# Indices 1 2 3 4 5 6 
#
# 1 110.7110 48.4249 20.0877 0.0000 25.3117 0.0000
# 2 48.4249 123.1773 26.6991 0.0000 12.6995 0.0000
# 3 20.0877 26.6991 53.8728 0.0000 18.3866 0.0000
# 4 0.0000 0.0000 0.0000 25.0581 0.0000 10.2764
# 5 25.3117 12.6995 18.3866 0.0000 26.9259 0.0000
# 6 0.0000 0.0000 0.0000 10.2764 0.0000 17.0373
#
#
#
# Elastic Compliance Matrix: (Units=1/GPa)
#
#
# Indices 1 2 3 4 5 6 
#
# 1 0.013271 -0.004281 0.000967 0.000000 -0.011117 0.000000
# 2 -0.004281 0.010528 -0.004303 0.000000 0.001997 0.000000
# 3 0.000967 -0.004303 0.026015 0.000000 -0.016644 0.000000
# 4 0.000000 0.000000 0.000000 0.053023 0.000000 -0.031982
# 5 -0.011117 0.001997 -0.016644 0.000000 0.058013 0.000000
# 6 0.000000 0.000000 0.000000 -0.031982 0.000000 0.077985
#
#
# Mechanical properties :
#
#
# Convention : Reuss Voigt Hill
#
# Bulk Modulus (GPa) = 28.91778 53.13160 41.02469
# Shear Modulus (GPa) = 18.82561 26.64090 22.73325
#
# Velocity S-wave (km/s) = 3.01273 3.58394 3.31068
# Velocity P-wave (km/s) = 5.10338 6.53781 5.86461
#
# Compressibility (1/GPa) = 0.03458080
#
# Stress axis : x y z
#
# Youngs Moduli (GPa) = 75.35181 94.98391 38.43981
#
# Poissons Ratio (x) = 0.40661 -0.03718
# Poissons Ratio (y) = 0.32256 0.16541
# Poissons Ratio (z) = -0.07289 0.40872
#
# Static dielectric constant tensor:
#      x y z
#    x 1.790950 0.000000 0.016030 
#    y 0.000000 1.750340 0.000000 
#    z 0.016030 0.000000 1.759810 
# 
# From -- ./inp_files/11297.got.cif
#   From: 2010.05.17/outbox.cif.g08.bks.cpg/sg15_6_cif.got.tgz:11297.got - 2010.06.03 18:47:42.
