data_PCOD9263912
_publ_section_title
;
Structure prediction by ZEFSAII (Michael W. Deem and Ramdas Pophale) SiO2 
 PCOD9263912
Probable space group: C 2/C
;
_chemical_formula_sum "Si O2"
_cell_formula_units_Z 48
_cell_length_a 8.401143
_cell_length_b 15.791126
_cell_length_c 29.666794
_cell_angle_alpha 90.000000
_cell_angle_beta 148.814968
_cell_angle_gamma 90.000000
_cell_volume 2037.919868
_symmetry_space_group_name_H-M "C 2/C"
_symmetry_group_IT_number 15
_symmetry_cell_setting 'monoclinic'
loop_
_space_group_symop_operation_xyz
x,y,z
-x,y,1/2-z
-x,-y,-z
x,-y,1/2+z
1/2+x,1/2+y,z
1/2-x,1/2+y,1/2-z
1/2-x,1/2-y,-z
1/2+x,1/2-y,1/2+z
loop_
_atom_site_type_symbol
_atom_site_label
_atom_site_fract_x
_atom_site_fract_y
_atom_site_fract_z
Si Si1 0.363651 0.163179 0.918783
Si Si2 0.706983 0.585074 0.051654
Si Si3 0.765868 0.259994 0.069462
Si Si4 0.643167 0.971269 0.735035
Si Si5 0.361074 0.026381 0.418007
Si Si6 0.224697 0.838431 0.259945
O O1 0.502636 0.227967 0.916473
O O2 0.378613 0.069730 0.901439
O O3 0.003967 0.180646 0.836908
O O4 0.573515 0.175635 0.013611
O O5 0.928600 0.581959 0.149137
O O6 0.923266 0.582535 0.060531
O O7 0.500000 0.500000 0.000000
O O8 0.481268 0.664711 0.994165
O O9 0.991937 0.274858 0.165699
O O10 0.500000 0.970023 0.750000
O O11 0.647689 0.067185 0.716519
O O12 0.003690 0.947805 0.827978
O O13 0.500000 0.000000 0.500000
O O14 0.000000 0.834806 0.250000
#
# Coordination Sequence:
#
# PCOD9263912 Si02
#       6
#     8   8   8   8   8   8
#     4   9  19  36  56  90 119 161 204 250 305 375
#     4  12  20  37  62  92 120 161 209 259 311 369
#     4  10  19  34  63  86 124 156 209 254 306 369
#     4  11  22  36  60  88 120 159 208 258 311 373
#     4  11  23  40  62  88 127 160 207 260 318 379
#     4   9  17  35  59  82 114 167 202 245 308 377
#
# _framework density 23.553428
#
# number of rings (size 3 to 8) (size 9 to 14) (size 15 to 20)
#    0.000    1.667    3.333    3.500    0.000    0.000 
#    3.000    1.667    0.000    0.000    0.000    0.000 
#    0.000    0.000    0.000    0.000    0.000    0.000 
#
# Total GULP energy -133967.279252 kJ/mol
# GULP energy per Si atom -5581.969969 kJ/mol
# Density = 2.349982 g / cm^3
# Si number density = 23.553428 Si / 1000 Ang^3
#
#
#
# Elastic Constant Matrix: (Units=GPa)
#
#
# Indices 1 2 3 4 5 6 
#
# 1 116.9518 11.8804 38.1902 -0.0001 3.9046 0.0000
# 2 11.8804 44.7041 5.8677 -0.0001 17.4274 -0.0002
# 3 38.1902 5.8677 152.0511 -0.0005 12.3783 -0.0009
# 4 -0.0001 -0.0001 -0.0005 36.5146 -0.0003 3.7993
# 5 3.9046 17.4274 12.3783 -0.0003 34.2939 -0.0001
# 6 0.0000 -0.0002 -0.0009 3.7993 -0.0001 17.8224
#
#
#
# Elastic Compliance Matrix: (Units=1/GPa)
#
#
# Indices 1 2 3 4 5 6 
#
# 1 0.009565 -0.002669 -0.002391 0.000000 0.001130 0.000000
# 2 -0.002669 0.028641 0.000747 0.000000 -0.014521 0.000000
# 3 -0.002391 0.000747 0.007374 0.000000 -0.002769 0.000000
# 4 0.000000 0.000000 0.000000 0.028008 0.000000 -0.005971
# 5 0.001130 -0.014521 -0.002769 0.000000 0.037410 0.000000
# 6 0.000000 0.000000 0.000000 -0.005971 0.000000 0.057382
#
#
# Mechanical properties :
#
#
# Convention : Reuss Voigt Hill
#
# Bulk Modulus (GPa) = 27.06061 47.28708 37.17385
# Shear Modulus (GPa) = 26.40989 34.91075 30.66032
#
# Velocity S-wave (km/s) = 3.35218 3.85410 3.61187
# Velocity P-wave (km/s) = 5.14750 6.31867 5.76291
#
# Compressibility (1/GPa) = 0.03695408
#
# Stress axis : x y z
#
# Youngs Moduli (GPa) = 104.55020 34.91473 135.61228
#
# Poissons Ratio (x) = 0.09318 0.32430
# Poissons Ratio (y) = 0.27901 -0.10132
# Poissons Ratio (z) = 0.25002 -0.02609
#
# Static dielectric constant tensor:
#      x y z
#    x 1.868050 0.000000 -0.045090 
#    y 0.000000 1.978900 0.000000 
#    z -0.045090 0.000000 2.046170 
# 
# From -- ./inp_files/308845.got.cif
#   From: 2010.05.17/outbox.cif.g08.bks.cpg/sg15_155_cif.got.tgz:308845.got - 2010.06.03 18:47:42.
