data_PCOD9263271
_publ_section_title
;
Structure prediction by ZEFSAII (Michael W. Deem and Ramdas Pophale) SiO2 
 PCOD9263271
Probable space group: C 2/C
;
_chemical_formula_sum "Si O2"
_cell_formula_units_Z 24
_cell_length_a 15.110843
_cell_length_b 13.164496
_cell_length_c 8.889440
_cell_angle_alpha 90.000000
_cell_angle_beta 30.756457
_cell_angle_gamma 90.000000
_cell_volume 904.314530
_symmetry_space_group_name_H-M "C 2/C"
_symmetry_group_IT_number 15
_symmetry_cell_setting 'monoclinic'
loop_
_space_group_symop_operation_xyz
x,y,z
-x,y,1/2-z
-x,-y,-z
x,-y,1/2+z
1/2+x,1/2+y,z
1/2-x,1/2+y,1/2-z
1/2-x,1/2-y,-z
1/2+x,1/2-y,1/2+z
loop_
_atom_site_type_symbol
_atom_site_label
_atom_site_fract_x
_atom_site_fract_y
_atom_site_fract_z
Si Si1 0.822160 0.900052 0.657086
Si Si2 0.967356 0.245099 0.477051
Si Si3 0.830766 0.439334 0.300442
O O1 0.996971 0.851823 0.469709
O O2 0.821689 0.999400 0.556130
O O3 0.707247 0.810403 0.748251
O O4 0.709855 0.935412 0.965000
O O5 0.120126 0.323295 0.304251
O O6 0.000000 0.224568 0.250000
O O7 0.000000 0.500000 0.000000
#
# Coordination Sequence:
#
# PCOD9263271 Si02
#       3
#     8   8   8
#     4  10  19  34  55  75  97 130 169 203 239 290
#     4   9  17  32  53  74  96 132 169 196 236 300
#     4   9  17  30  51  75  97 128 165 199 239 294
#
# _framework density 26.539439000000002
#
# number of rings (size 3 to 8) (size 9 to 14) (size 15 to 20)
#    0.000    2.667    0.000    7.000    0.000    0.000 
#    0.000    8.333    0.000   16.000    0.000    0.000 
#    0.000    0.000    0.000    0.000    0.000    0.000 
#
# Total GULP energy -67061.354892 kJ/mol
# GULP energy per Si atom -5588.446241 kJ/mol
# Density = 2.647903 g / cm^3
# Si number density = 26.539439 Si / 1000 Ang^3
#
#
#
# Elastic Constant Matrix: (Units=GPa)
#
#
# Indices 1 2 3 4 5 6 
#
# 1 107.2713 93.7843 15.0223 -0.0001 -26.9703 0.0000
# 2 93.7843 111.2485 20.3340 0.0000 -22.3291 0.0001
# 3 15.0223 20.3340 103.7576 -0.0005 -5.9486 0.0002
# 4 -0.0001 0.0000 -0.0005 23.0395 0.0002 -19.0167
# 5 -26.9703 -22.3291 -5.9486 0.0002 26.9335 0.0000
# 6 0.0000 0.0001 0.0002 -19.0167 0.0000 92.8820
#
#
#
# Elastic Compliance Matrix: (Units=1/GPa)
#
#
# Indices 1 2 3 4 5 6 
#
# 1 0.039721 -0.030778 0.001112 0.000000 0.014505 0.000000
# 2 -0.030778 0.034907 -0.002525 0.000000 -0.002438 0.000000
# 3 0.001112 -0.002525 0.010043 0.000000 0.001239 0.000000
# 4 0.000000 0.000000 0.000000 0.052230 0.000000 0.010694
# 5 0.014505 -0.002438 0.001239 0.000000 0.049906 0.000000
# 6 0.000000 0.000000 0.000000 0.010694 0.000000 0.012956
#
#
# Mechanical properties :
#
#
# Convention : Reuss Voigt Hill
#
# Bulk Modulus (GPa) = 49.28263 64.50650 56.89457
# Shear Modulus (GPa) = 18.45657 41.44681 29.95169
#
# Velocity S-wave (km/s) = 2.63998 3.95613 3.36307
# Velocity P-wave (km/s) = 5.28229 6.72507 6.04687
#
# Compressibility (1/GPa) = 0.02029112
#
# Stress axis : x y z
#
# Youngs Moduli (GPa) = 25.17544 28.64753 99.57583
#
# Poissons Ratio (x) = 0.88170 -0.11076
# Poissons Ratio (y) = 0.77484 0.25140
# Poissons Ratio (z) = -0.02800 0.07233
#
# Static dielectric constant tensor:
#      x y z
#    x 2.100850 0.000000 -0.073400 
#    y 0.000000 2.045810 0.000000 
#    z -0.073400 0.000000 2.070760 
# 
# From -- ./inp_files/27065.got.cif
#   From: 2010.05.17/outbox.cif.g08.bks.cpg/sg15_14_cif.got.tgz:27065.got - 2010.06.03 18:47:42.
