data_PCOD9263752
_publ_section_title
;
Structure prediction by ZEFSAII (Michael W. Deem and Ramdas Pophale) SiO2 
 PCOD9263752
Probable space group: C 2/C
;
_chemical_formula_sum "Si O2"
_cell_formula_units_Z 60
_cell_length_a 24.575259
_cell_length_b 18.950847
_cell_length_c 8.813441
_cell_angle_alpha 90.000000
_cell_angle_beta 122.481221
_cell_angle_gamma 90.000000
_cell_volume 3462.518254
_symmetry_space_group_name_H-M "C 2/C"
_symmetry_group_IT_number 15
_symmetry_cell_setting 'monoclinic'
loop_
_space_group_symop_operation_xyz
x,y,z
-x,y,1/2-z
-x,-y,-z
x,-y,1/2+z
1/2+x,1/2+y,z
1/2-x,1/2+y,1/2-z
1/2-x,1/2-y,-z
1/2+x,1/2-y,1/2+z
loop_
_atom_site_type_symbol
_atom_site_label
_atom_site_fract_x
_atom_site_fract_y
_atom_site_fract_z
Si Si1 0.269761 0.963056 0.672236
Si Si2 0.827347 0.300180 0.266520
Si Si3 0.919063 0.433341 0.839023
Si Si4 0.000000 0.540499 0.750000
Si Si5 0.272646 0.171786 0.365640
Si Si6 0.926033 0.707779 0.143449
Si Si7 0.736811 0.597341 0.798220
Si Si8 0.180883 0.232822 0.814709
O O1 0.347758 0.961802 0.775675
O O2 0.252527 0.902985 0.769145
O O3 0.245647 0.938568 0.472999
O O4 0.238183 0.036253 0.676058
O O5 0.787689 0.226154 0.209951
O O6 0.900108 0.296565 0.431772
O O7 0.796737 0.352752 0.344578
O O8 0.810195 0.332764 0.079258
O O9 0.953544 0.491770 0.784577
O O10 0.919686 0.364188 0.732625
O O11 0.957493 0.421275 0.055494
O O12 0.320660 0.207848 0.316644
O O13 0.876428 0.760197 0.152767
O O14 0.000000 0.729065 0.250000
O O15 0.682095 0.656581 0.736272
O O16 0.250000 0.250000 0.000000
#
# Coordination Sequence:
#
# PCOD9263752 Si02
#       8
#     8   8   8   4   8   8   8   8
#     4  12  20  32  51  81  99 144 182 242 282 327
#     4  10  20  36  52  83 108 150 185 238 282 340
#     4  11  21  36  49  69 108 150 195 228 264 332
#     4  10  24  36  44  66 110 160 190 216 276 328
#     4  10  19  34  60  76 111 144 190 234 290 335
#     4  12  22  36  57  81 112 151 195 233 283 339
#     4  11  21  33  57  79 113 140 191 239 282 341
#     4  11  18  41  58  77 112 155 188 238 289 336
#
# _framework density 17.328427999999999
#
# number of rings (size 3 to 8) (size 9 to 14) (size 15 to 20)
#    0.000    1.067    7.333    1.600    0.000    1.067 
#    0.000    0.000    0.000    0.000    0.000    3.733 
#    0.000    0.000    0.000    0.667    0.000    0.000 
#
# Total GULP energy -167237.688598 kJ/mol
# GULP energy per Si atom -5574.589620 kJ/mol
# Density = 1.728899 g / cm^3
# Si number density = 17.328428 Si / 1000 Ang^3
#
#
#
# Elastic Constant Matrix: (Units=GPa)
#
#
# Indices 1 2 3 4 5 6 
#
# 1 58.1386 18.8612 23.2232 0.0000 -0.0303 0.0000
# 2 18.8612 74.3630 4.2138 0.0000 0.4352 0.0000
# 3 23.2232 4.2138 87.8859 0.0000 -3.0632 0.0000
# 4 0.0000 0.0000 0.0000 22.9540 0.0000 -13.5362
# 5 -0.0303 0.4352 -3.0632 0.0000 20.2455 0.0000
# 6 0.0000 0.0000 0.0000 -13.5362 0.0000 23.0896
#
#
#
# Elastic Compliance Matrix: (Units=1/GPa)
#
#
# Indices 1 2 3 4 5 6 
#
# 1 0.020949 -0.005008 -0.005319 0.000000 -0.000666 0.000000
# 2 -0.005008 0.014685 0.000611 0.000000 -0.000231 0.000000
# 3 -0.005319 0.000611 0.012821 0.000000 0.001919 0.000000
# 4 0.000000 0.000000 0.000000 0.066584 0.000000 0.039035
# 5 -0.000666 -0.000231 0.001919 0.000000 0.049688 0.000000
# 6 0.000000 0.000000 0.000000 0.039035 0.000000 0.066193
#
#
# Mechanical properties :
#
#
# Convention : Reuss Voigt Hill
#
# Bulk Modulus (GPa) = 34.45453 34.77600 34.61526
# Shear Modulus (GPa) = 19.22878 24.86378 22.04628
#
# Velocity S-wave (km/s) = 3.33478 3.79206 3.57075
# Velocity P-wave (km/s) = 5.89526 6.26780 6.08438
#
# Compressibility (1/GPa) = 0.02902376
#
# Stress axis : x y z
#
# Youngs Moduli (GPa) = 47.73445 68.09889 77.99464
#
# Poissons Ratio (x) = 0.34105 0.41483
# Poissons Ratio (y) = 0.23906 -0.04768
# Poissons Ratio (z) = 0.25389 -0.04163
#
# Static dielectric constant tensor:
#      x y z
#    x 1.608490 0.000000 -0.018890 
#    y 0.000000 1.625270 0.000000 
#    z -0.018890 0.000000 1.627570 
# 
# From -- ./inp_files/67032.got.cif
#   From: 2010.05.17/outbox.cif.g08.bks.cpg/sg15_34_cif.got.tgz:67032.got - 2010.06.03 18:47:42.
