data_PCOD9263404
_publ_section_title
;
Structure prediction by ZEFSAII (Michael W. Deem and Ramdas Pophale) SiO2 
 PCOD9263404
Probable space group: C 2/C
;
_chemical_formula_sum "Si O2"
_cell_formula_units_Z 64
_cell_length_a 26.613459
_cell_length_b 20.992454
_cell_length_c 21.879779
_cell_angle_alpha 90.000000
_cell_angle_beta 162.466904
_cell_angle_gamma 90.000000
_cell_volume 3682.511453
_symmetry_space_group_name_H-M "C 2/C"
_symmetry_group_IT_number 15
_symmetry_cell_setting 'monoclinic'
loop_
_space_group_symop_operation_xyz
x,y,z
-x,y,1/2-z
-x,-y,-z
x,-y,1/2+z
1/2+x,1/2+y,z
1/2-x,1/2+y,1/2-z
1/2-x,1/2-y,-z
1/2+x,1/2-y,1/2+z
loop_
_atom_site_type_symbol
_atom_site_label
_atom_site_fract_x
_atom_site_fract_y
_atom_site_fract_z
Si Si1 0.359365 0.436982 0.402046
Si Si2 0.495598 0.984563 0.174578
Si Si3 0.362320 0.484592 0.541308
Si Si4 0.496738 0.865440 0.676625
Si Si5 0.647321 0.182588 0.610902
Si Si6 0.863036 0.134590 0.542917
Si Si7 0.720232 0.182659 0.256645
Si Si8 0.225839 0.936887 0.768530
O O1 0.370134 0.447463 0.486945
O O2 0.252408 0.375633 0.259878
O O3 0.543549 0.431618 0.587184
O O4 0.275516 0.500068 0.275535
O O5 0.500000 0.963229 0.250000
O O6 0.678675 0.979863 0.357372
O O7 0.447039 0.059735 0.118961
O O8 0.363402 0.947426 0.980212
O O9 0.396777 0.559761 0.568698
O O10 0.500000 0.463260 0.750000
O O11 0.500000 0.842228 0.750000
O O12 0.379189 0.829677 0.492408
O O13 0.683729 0.861869 0.867456
O O14 0.465263 0.183089 0.430565
O O15 0.736291 0.249952 0.722552
O O16 0.847286 0.170364 0.460506
O O17 0.000000 0.157804 0.750000
O O18 0.737681 0.124495 0.230168
#
# Coordination Sequence:
#
# PCOD9263404 Si02
#       8
#     8   8   8   8   8   8   8   8
#     4  11  22  36  58  86 113 147 190 236 283 335
#     4  10  19  34  56  84 115 147 185 232 284 335
#     4  10  19  34  56  84 115 147 185 232 284 335
#     4   9  19  33  52  77 110 149 188 228 275 329
#     4  11  23  39  56  80 113 152 192 235 285 337
#     4   9  19  33  52  77 110 149 188 228 275 329
#     4  11  23  39  56  80 113 152 192 235 285 337
#     4  11  22  36  58  86 113 147 190 236 283 335
#
# _framework density 17.379442999999998
#
# number of rings (size 3 to 8) (size 9 to 14) (size 15 to 20)
#    0.000    1.750    2.500    2.250    0.000    4.500 
#    0.000    2.500    0.000    0.750    0.000    5.250 
#    0.000    0.000    0.000    0.000    0.000    0.000 
#
# Total GULP energy -178752.519147 kJ/mol
# GULP energy per Si atom -5586.016223 kJ/mol
# Density = 1.733989 g / cm^3
# Si number density = 17.379443 Si / 1000 Ang^3
#
#
#
# Elastic Constant Matrix: (Units=GPa)
#
#
# Indices 1 2 3 4 5 6 
#
# 1 95.9628 56.2902 36.8186 -0.0144 -21.3741 -0.0155
# 2 56.2902 117.5412 59.7517 -0.0102 -9.8774 -0.0216
# 3 36.8186 59.7517 109.9070 0.0071 -18.2725 -0.0128
# 4 -0.0144 -0.0102 0.0071 14.3407 -0.0052 -6.5873
# 5 -21.3741 -9.8774 -18.2725 -0.0052 24.6747 -0.0131
# 6 -0.0155 -0.0216 -0.0128 -6.5873 -0.0131 11.9911
#
#
#
# Elastic Compliance Matrix: (Units=1/GPa)
#
#
# Indices 1 2 3 4 5 6 
#
# 1 0.017430 -0.007441 0.000253 0.000036 0.012307 0.000043
# 2 -0.007441 0.014934 -0.006505 0.000009 -0.005285 0.000009
# 3 0.000253 -0.006505 0.013860 -0.000004 0.007879 0.000010
# 4 0.000036 0.000009 -0.000004 0.093266 0.000079 0.051236
# 5 0.012307 -0.005285 0.007879 0.000079 0.054907 0.000118
# 6 0.000043 0.000009 0.000010 0.051236 0.000118 0.111541
#
#
# Mechanical properties :
#
#
# Convention : Reuss Voigt Hill
#
# Bulk Modulus (GPa) = 53.08673 69.90354 61.49514
# Shear Modulus (GPa) = 14.72300 21.57133 18.14717
#
# Velocity S-wave (km/s) = 2.91374 3.52689 3.23487
# Velocity P-wave (km/s) = 6.47548 7.54285 7.02945
#
# Compressibility (1/GPa) = 0.01883710
#
# Stress axis : x y z
#
# Youngs Moduli (GPa) = 57.37269 66.96212 72.14915
#
# Poissons Ratio (x) = 0.49829 -0.01823
# Poissons Ratio (y) = 0.42693 0.46930
# Poissons Ratio (z) = -0.01449 0.43557
#
# Static dielectric constant tensor:
#      x y z
#    x 1.577730 0.000000 -0.000900 
#    y 0.000000 1.578150 0.000000 
#    z -0.000900 0.000000 1.578140 
# 
# From -- ./inp_files/56638.got.cif
#   From: 2010.05.17/outbox.cif.g08.bks.cpg/sg15_29_cif.got.tgz:56638.got - 2010.06.03 18:47:42.
