data_PCOD9263136
_publ_section_title
;
Structure prediction by ZEFSAII (Michael W. Deem and Ramdas Pophale) SiO2 
 PCOD9263136
Probable space group: C 2/C
;
_chemical_formula_sum "Si O2"
_cell_formula_units_Z 64
_cell_length_a 20.658603
_cell_length_b 24.079049
_cell_length_c 8.176557
_cell_angle_alpha 90.000000
_cell_angle_beta 68.723411
_cell_angle_gamma 90.000000
_cell_volume 3790.110739
_symmetry_space_group_name_H-M "C 2/C"
_symmetry_group_IT_number 15
_symmetry_cell_setting 'monoclinic'
loop_
_space_group_symop_operation_xyz
x,y,z
-x,y,1/2-z
-x,-y,-z
x,-y,1/2+z
1/2+x,1/2+y,z
1/2-x,1/2+y,1/2-z
1/2-x,1/2-y,-z
1/2+x,1/2-y,1/2+z
loop_
_atom_site_type_symbol
_atom_site_label
_atom_site_fract_x
_atom_site_fract_y
_atom_site_fract_z
Si Si1 0.154362 0.945358 0.262430
Si Si2 0.250410 0.152536 0.695827
Si Si3 0.717155 0.324206 0.848578
Si Si4 0.863794 0.932065 0.610903
Si Si5 0.985653 0.760266 0.070342
Si Si6 0.664386 0.245350 0.418065
Si Si7 0.511363 0.389615 0.437486
Si Si8 0.371117 0.774950 0.175030
O O1 0.219886 0.908341 0.257283
O O2 0.083935 0.920012 0.406123
O O3 0.160020 0.010175 0.292316
O O4 0.144378 0.937227 0.077584
O O5 0.240996 0.163246 0.510866
O O6 0.200742 0.197026 0.832497
O O7 0.328578 0.169319 0.672158
O O8 0.681044 0.377980 0.803822
O O9 0.781464 0.301615 0.686248
O O10 0.660974 0.274325 0.907796
O O11 0.944620 0.919999 0.573834
O O12 0.000000 0.758794 0.250000
O O13 0.908827 0.739132 0.104667
O O14 0.987788 0.825016 0.013847
O O15 0.046810 0.726355 0.926118
O O16 0.649271 0.242290 0.623303
O O17 0.500000 0.390106 0.250000
#
# Coordination Sequence:
#
# PCOD9263136 Si02
#       8
#     8   8   8   8   8   8   8   8
#     4  10  20  33  50  71  98 134 176 211 246 291
#     4  10  19  34  52  70  96 137 174 203 248 307
#     4  10  19  34  52  70  96 137 174 203 248 307
#     4  10  20  33  50  71  98 134 176 211 246 291
#     4  11  19  34  54  72 100 137 172 201 245 312
#     4  11  21  32  49  76 103 126 163 215 260 294
#     4   9  17  32  48  68  97 134 174 206 233 286
#     4  11  21  32  49  76 103 126 163 215 260 294
#
# _framework density 16.886049
#
# number of rings (size 3 to 8) (size 9 to 14) (size 15 to 20)
#    0.000    1.750    2.500    5.250    0.000    2.000 
#    0.000    0.000    0.000    0.000    0.000    0.875 
#    0.000    0.000    0.000    0.000    0.000    0.000 
#
# Total GULP energy -178677.856872 kJ/mol
# GULP energy per Si atom -5583.683027 kJ/mol
# Density = 1.684762 g / cm^3
# Si number density = 16.886049 Si / 1000 Ang^3
#
#
#
# Elastic Constant Matrix: (Units=GPa)
#
#
# Indices 1 2 3 4 5 6 
#
# 1 58.4637 27.7982 -2.3287 0.0000 -18.9013 0.0000
# 2 27.7982 91.9302 8.8912 0.0000 -22.3298 0.0000
# 3 -2.3287 8.8912 43.4106 0.0000 -12.8557 0.0000
# 4 0.0000 0.0000 0.0000 20.9255 0.0000 -3.5251
# 5 -18.9013 -22.3298 -12.8557 0.0000 24.9740 0.0000
# 6 0.0000 0.0000 0.0000 -3.5251 0.0000 18.2779
#
#
#
# Elastic Compliance Matrix: (Units=1/GPa)
#
#
# Indices 1 2 3 4 5 6 
#
# 1 0.025773 -0.003607 0.008192 0.000000 0.020498 0.000000
# 2 -0.003607 0.014436 -0.000161 0.000000 0.010095 0.000000
# 3 0.008192 -0.000161 0.029852 0.000000 0.021423 0.000000
# 4 0.000000 0.000000 0.000000 0.049393 0.000000 0.009526
# 5 0.020498 0.010095 0.021423 0.000000 0.075609 0.000000
# 6 0.000000 0.000000 0.000000 0.009526 0.000000 0.056548
#
#
# Mechanical properties :
#
#
# Convention : Reuss Voigt Hill
#
# Bulk Modulus (GPa) = 12.67269 29.16955 20.92112
# Shear Modulus (GPa) = 18.58276 23.46507 21.02391
#
# Velocity S-wave (km/s) = 3.32095 3.73180 3.53235
# Velocity P-wave (km/s) = 4.71445 5.99001 5.39010
#
# Compressibility (1/GPa) = 0.07890985
#
# Stress axis : x y z
#
# Youngs Moduli (GPa) = 38.80074 69.27091 33.49810
#
# Poissons Ratio (x) = 0.24983 -0.27440
# Poissons Ratio (y) = 0.13994 0.00538
# Poissons Ratio (z) = -0.31784 0.01112
#
# Static dielectric constant tensor:
#      x y z
#    x 1.586040 0.000000 0.012220 
#    y 0.000000 1.558870 0.000000 
#    z 0.012220 0.000000 1.591480 
# 
# From -- ./inp_files/58469.got.cif
#   From: 2010.05.17/outbox.cif.g08.bks.cpg/sg15_30_cif.got.tgz:58469.got - 2010.06.03 18:47:42.
