data_PCOD9263736
_publ_section_title
;
Structure prediction by ZEFSAII (Michael W. Deem and Ramdas Pophale) SiO2 
 PCOD9263736
Probable space group: C 2/C
;
_chemical_formula_sum "Si O2"
_cell_formula_units_Z 40
_cell_length_a 29.846645
_cell_length_b 14.394102
_cell_length_c 9.182100
_cell_angle_alpha 90.000000
_cell_angle_beta 31.137314
_cell_angle_gamma 90.000000
_cell_volume 2039.806540
_symmetry_space_group_name_H-M "C 2/C"
_symmetry_group_IT_number 15
_symmetry_cell_setting 'monoclinic'
loop_
_space_group_symop_operation_xyz
x,y,z
-x,y,1/2-z
-x,-y,-z
x,-y,1/2+z
1/2+x,1/2+y,z
1/2-x,1/2+y,1/2-z
1/2-x,1/2-y,-z
1/2+x,1/2-y,1/2+z
loop_
_atom_site_type_symbol
_atom_site_label
_atom_site_fract_x
_atom_site_fract_y
_atom_site_fract_z
Si Si1 0.950112 0.424888 0.237795
Si Si2 0.697773 0.495287 0.685354
Si Si3 0.968595 0.279510 0.672380
Si Si4 0.310972 0.072925 0.625322
Si Si5 0.077940 0.074385 0.773233
O O1 0.858934 0.473493 0.516001
O O2 0.000000 0.413938 0.250000
O O3 0.000000 0.500000 0.000000
O O4 0.957242 0.331840 0.126252
O O5 0.757757 0.557717 0.624602
O O6 0.750783 0.422902 0.435969
O O7 0.642250 0.556529 0.728353
O O8 0.631732 0.443886 0.976451
O O9 0.953200 0.179726 0.645889
O O10 0.000000 0.270572 0.750000
O O11 0.882351 0.345555 0.912948
O O12 0.000000 0.000000 0.000000
#
# Coordination Sequence:
#
# PCOD9263736 Si02
#       5
#     8   8   8   8   8
#     4  10  19  34  59  91 125 154 183 231 288 349
#     4  10  22  39  61  81 116 156 185 247 296 335
#     4  11  22  37  62  88 117 157 195 236 284 348
#     4  10  19  37  60  91 120 142 187 237 299 350
#     4  11  24  43  60  80 113 158 206 240 284 346
#
# _framework density 19.609704000000001
#
# number of rings (size 3 to 8) (size 9 to 14) (size 15 to 20)
#    0.000    1.600    0.000    7.800    0.000    3.200 
#    0.000    8.000    0.000    0.000    0.000    0.000 
#    0.000    0.000    0.000    0.000    0.000    0.000 
#
# Total GULP energy -111665.118990 kJ/mol
# GULP energy per Si atom -5583.255949 kJ/mol
# Density = 1.956507 g / cm^3
# Si number density = 19.609704 Si / 1000 Ang^3
#
#
#
# Elastic Constant Matrix: (Units=GPa)
#
#
# Indices 1 2 3 4 5 6 
#
# 1 101.8161 9.9234 6.2473 0.0000 -4.2402 0.0000
# 2 9.9234 106.9061 15.6049 0.0000 -18.6080 0.0000
# 3 6.2473 15.6049 74.1282 0.0000 -2.5340 0.0000
# 4 0.0000 0.0000 0.0000 17.5272 0.0000 -8.5322
# 5 -4.2402 -18.6080 -2.5340 0.0000 30.2654 0.0000
# 6 0.0000 0.0000 0.0000 -8.5322 0.0000 13.7414
#
#
#
# Elastic Compliance Matrix: (Units=1/GPa)
#
#
# Indices 1 2 3 4 5 6 
#
# 1 0.009966 -0.000666 -0.000668 0.000000 0.000931 0.000000
# 2 -0.000666 0.010821 -0.002003 0.000000 0.006392 0.000000
# 3 -0.000668 -0.002003 0.013963 0.000000 -0.000156 0.000000
# 4 0.000000 0.000000 0.000000 0.081770 0.000000 0.050772
# 5 0.000931 0.006392 -0.000156 0.000000 0.037088 0.000000
# 6 0.000000 0.000000 0.000000 0.050772 0.000000 0.104297
#
#
# Mechanical properties :
#
#
# Convention : Reuss Voigt Hill
#
# Bulk Modulus (GPa) = 35.61735 38.48905 37.05320
# Shear Modulus (GPa) = 18.25231 29.04512 23.64871
#
# Velocity S-wave (km/s) = 3.05418 3.85276 3.47648
# Velocity P-wave (km/s) = 5.53533 6.28187 5.92038
#
# Compressibility (1/GPa) = 0.02807621
#
# Stress axis : x y z
#
# Youngs Moduli (GPa) = 100.33855 92.41481 71.61873
#
# Poissons Ratio (x) = 0.06150 0.04784
# Poissons Ratio (y) = 0.06678 0.14348
# Poissons Ratio (z) = 0.06703 0.18514
#
# Static dielectric constant tensor:
#      x y z
#    x 1.674160 0.000000 -0.011160 
#    y 0.000000 1.678440 0.000000 
#    z -0.011160 0.000000 1.734460 
# 
# From -- ./inp_files/38043.got.cif
#   From: 2010.05.17/outbox.cif.g08.bks.cpg/sg15_20_cif.got.tgz:38043.got - 2010.06.03 18:47:42.
