data_PCOD9263826
_publ_section_title
;
Structure prediction by ZEFSAII (Michael W. Deem and Ramdas Pophale) SiO2 
 PCOD9263826
Probable space group: C 2/C
;
_chemical_formula_sum "Si O2"
_cell_formula_units_Z 52
_cell_length_a 17.070465
_cell_length_b 6.578754
_cell_length_c 18.535303
_cell_angle_alpha 90.000000
_cell_angle_beta 87.202600
_cell_angle_gamma 90.000000
_cell_volume 2079.078341
_symmetry_space_group_name_H-M "C 2/C"
_symmetry_group_IT_number 15
_symmetry_cell_setting 'monoclinic'
loop_
_space_group_symop_operation_xyz
x,y,z
-x,y,1/2-z
-x,-y,-z
x,-y,1/2+z
1/2+x,1/2+y,z
1/2-x,1/2+y,1/2-z
1/2-x,1/2-y,-z
1/2+x,1/2-y,1/2+z
loop_
_atom_site_type_symbol
_atom_site_label
_atom_site_fract_x
_atom_site_fract_y
_atom_site_fract_z
Si Si1 0.622970 0.356087 0.504527
Si Si2 0.126905 0.544767 0.924588
Si Si3 0.500000 0.439888 0.250000
Si Si4 0.841139 0.172319 0.825205
Si Si5 0.247342 0.923126 0.924653
Si Si6 0.769391 0.301890 0.681597
Si Si7 0.980500 0.886592 0.602134
O O1 0.708777 0.455423 0.494281
O O2 0.570918 0.409874 0.575786
O O3 0.570249 0.452934 0.442085
O O4 0.627746 0.115996 0.489588
O O5 0.188115 0.730519 0.926614
O O6 0.155258 0.417885 0.854466
O O7 0.045714 0.661205 0.918958
O O8 0.570975 0.320310 0.209287
O O9 0.534407 0.573983 0.313561
O O10 0.826994 0.307586 0.897371
O O11 0.785050 0.262643 0.764332
O O12 0.805427 0.944447 0.829517
O O13 0.237969 0.095798 0.863850
#
# Coordination Sequence:
#
# PCOD9263826 Si02
#       7
#     8   8   4   8   8   8   8
#     4   9  18  37  65  88 114 171 228 250 291 390
#     4   9  17  32  60  88 110 150 215 261 295 363
#     4  12  26  38  56  98 142 156 194 280 342 364
#     4  11  21  36  58  86 128 166 208 258 316 374
#     4   9  18  33  58  88 110 151 218 263 290 359
#     4  10  19  34  61  85 113 166 218 249 297 388
#     4  10  21  37  56  88 133 167 202 263 323 373
#
# _framework density 25.011081999999998
#
# number of rings (size 3 to 8) (size 9 to 14) (size 15 to 20)
#    0.000    2.154    1.538    3.231    2.154    0.000 
#    0.000    7.692    0.000    8.308    0.000    0.000 
#    0.000    0.000    0.000    0.000    0.000    0.000 
#
# Total GULP energy -145312.008940 kJ/mol
# GULP energy per Si atom -5588.923421 kJ/mol
# Density = 2.495416 g / cm^3
# Si number density = 25.011082 Si / 1000 Ang^3
#
#
#
# Elastic Constant Matrix: (Units=GPa)
#
#
# Indices 1 2 3 4 5 6 
#
# 1 137.2583 48.7426 39.6271 0.0000 -33.2180 0.0000
# 2 48.7426 156.3288 40.5069 0.0000 -16.3829 0.0000
# 3 39.6271 40.5069 102.6496 0.0000 -21.9730 0.0000
# 4 0.0000 0.0000 0.0000 40.6124 0.0000 -15.6936
# 5 -33.2180 -16.3829 -21.9730 0.0000 52.3747 0.0000
# 6 0.0000 0.0000 0.0000 -15.6936 0.0000 16.2269
#
#
#
# Elastic Compliance Matrix: (Units=1/GPa)
#
#
# Indices 1 2 3 4 5 6 
#
# 1 0.009705 -0.002031 -0.001938 0.000000 0.004707 0.000000
# 2 -0.002031 0.007614 -0.002183 0.000000 0.000178 0.000000
# 3 -0.001938 -0.002183 0.012022 0.000000 0.003132 0.000000
# 4 0.000000 0.000000 0.000000 0.039317 0.000000 0.038024
# 5 0.004707 0.000178 0.003132 0.000000 0.023448 0.000000
# 6 0.000000 0.000000 0.000000 0.038024 0.000000 0.098401
#
#
# Mechanical properties :
#
#
# Convention : Reuss Voigt Hill
#
# Bulk Modulus (GPa) = 58.68844 72.66554 65.67699
# Shear Modulus (GPa) = 23.98215 39.66680 31.82448
#
# Velocity S-wave (km/s) = 3.09991 3.98674 3.57096
# Velocity P-wave (km/s) = 6.02731 7.09285 6.58168
#
# Compressibility (1/GPa) = 0.01703913
#
# Stress axis : x y z
#
# Youngs Moduli (GPa) = 103.03644 131.33474 83.18382
#
# Poissons Ratio (x) = 0.26670 0.16118
# Poissons Ratio (y) = 0.20923 0.18156
# Poissons Ratio (z) = 0.19965 0.28665
#
# Static dielectric constant tensor:
#      x y z
#    x 1.987870 0.000000 0.029260 
#    y 0.000000 1.965750 0.000000 
#    z 0.029260 0.000000 1.954140 
# 
# From -- ./inp_files/251041.got.cif
#   From: 2010.05.17/outbox.cif.g08.bks.cpg/sg15_126_cif.got.tgz:251041.got - 2010.06.03 18:47:42.
