data_PCOD9263984
_publ_section_title
;
Structure prediction by ZEFSAII (Michael W. Deem and Ramdas Pophale) SiO2 
 PCOD9263984
Probable space group: C 2/C
;
_chemical_formula_sum "Si O2"
_cell_formula_units_Z 64
_cell_length_a 18.344103
_cell_length_b 15.995141
_cell_length_c 14.314329
_cell_angle_alpha 90.000000
_cell_angle_beta 114.039121
_cell_angle_gamma 90.000000
_cell_volume 3835.778888
_symmetry_space_group_name_H-M "C 2/C"
_symmetry_group_IT_number 15
_symmetry_cell_setting 'monoclinic'
loop_
_space_group_symop_operation_xyz
x,y,z
-x,y,1/2-z
-x,-y,-z
x,-y,1/2+z
1/2+x,1/2+y,z
1/2-x,1/2+y,1/2-z
1/2-x,1/2-y,-z
1/2+x,1/2-y,1/2+z
loop_
_atom_site_type_symbol
_atom_site_label
_atom_site_fract_x
_atom_site_fract_y
_atom_site_fract_z
Si Si1 0.213166 0.903212 0.215059
Si Si2 0.481824 0.549977 0.349089
Si Si3 0.370212 0.782744 0.076090
Si Si4 0.698428 0.566796 0.294332
Si Si5 0.029822 0.136601 0.660681
Si Si6 0.720664 0.613986 0.509455
Si Si7 0.488514 0.282144 0.955220
Si Si8 0.329803 0.253348 0.764381
O O1 0.125825 0.874487 0.205498
O O2 0.207607 0.927216 0.102465
O O3 0.273092 0.825113 0.251805
O O4 0.244526 0.984348 0.286901
O O5 0.500000 0.564720 0.250000
O O6 0.386155 0.554911 0.301413
O O7 0.505601 0.455436 0.385797
O O8 0.513536 0.627077 0.424824
O O9 0.313733 0.863584 0.040516
O O10 0.453123 0.783631 0.064870
O O11 0.375537 0.760533 0.188932
O O12 0.321571 0.704768 0.006413
O O13 0.688793 0.567639 0.401366
O O14 0.721197 0.661286 0.277568
O O15 0.000000 0.152793 0.750000
O O16 0.002420 0.205422 0.571969
O O17 0.397892 0.264874 0.877478
#
# Coordination Sequence:
#
# PCOD9263984 Si02
#       8
#     8   8   8   8   8   8   8   8
#     4  10  19  35  52  71 103 135 163 211 245 287
#     4   9  17  28  42  71 101 123 153 198 248 307
#     4   9  16  27  51  78  98 120 158 212 256 298
#     4   9  18  30  48  74 102 128 165 202 244 299
#     4  10  21  32  44  68  97 138 170 191 239 309
#     4   9  16  29  50  76  95 126 169 199 251 296
#     4  11  17  29  50  72  99 129 153 209 261 287
#     4   9  19  32  50  80 101 123 169 204 252 304
#
# _framework density 16.685006999999999
#
# number of rings (size 3 to 8) (size 9 to 14) (size 15 to 20)
#    0.000    2.500    1.250    3.750    0.000    0.000 
#   11.250    0.625    0.000    0.750    0.000    0.000 
#    0.000    0.000    0.000    0.000    0.000    0.000 
#
# Total GULP energy -178202.317162 kJ/mol
# GULP energy per Si atom -5568.822411 kJ/mol
# Density = 1.664703 g / cm^3
# Si number density = 16.685007 Si / 1000 Ang^3
#
#
#
# Elastic Constant Matrix: (Units=GPa)
#
#
# Indices 1 2 3 4 5 6 
#
# 1 69.6284 31.9514 32.5646 0.0000 -10.0033 0.0000
# 2 31.9514 59.8016 23.3711 0.0000 -6.6104 0.0000
# 3 32.5646 23.3711 61.4084 0.0000 -6.2963 0.0000
# 4 0.0000 0.0000 0.0000 16.4184 0.0000 -3.8348
# 5 -10.0033 -6.6104 -6.2963 0.0000 19.8368 0.0000
# 6 0.0000 0.0000 0.0000 -3.8348 0.0000 20.5561
#
#
#
# Elastic Compliance Matrix: (Units=1/GPa)
#
#
# Indices 1 2 3 4 5 6 
#
# 1 0.022991 -0.008323 -0.008393 0.000000 0.006156 0.000000
# 2 -0.008323 0.023021 -0.004126 0.000000 0.002165 0.000000
# 3 -0.008393 -0.004126 0.022461 0.000000 0.001522 0.000000
# 4 0.000000 0.000000 0.000000 0.063682 0.000000 0.011880
# 5 0.006156 0.002165 0.001522 0.000000 0.054720 0.000000
# 6 0.000000 0.000000 0.000000 0.011880 0.000000 0.050863
#
#
# Mechanical properties :
#
#
# Convention : Reuss Voigt Hill
#
# Bulk Modulus (GPa) = 37.32845 40.73471 39.03158
# Shear Modulus (GPa) = 17.33983 18.22567 17.78275
#
# Velocity S-wave (km/s) = 3.22723 3.30864 3.26819
# Velocity P-wave (km/s) = 6.02559 6.25005 6.13884
#
# Compressibility (1/GPa) = 0.02678921
#
# Stress axis : x y z
#
# Youngs Moduli (GPa) = 43.49468 43.43931 44.52065
#
# Poissons Ratio (x) = 0.36156 0.37367
# Poissons Ratio (y) = 0.36202 0.18367
# Poissons Ratio (z) = 0.36506 0.17921
#
# Static dielectric constant tensor:
#      x y z
#    x 1.596680 0.000000 0.010290 
#    y 0.000000 1.602830 0.000000 
#    z 0.010290 0.000000 1.590910 
# 
# From -- ./inp_files/162816.got.cif
#   From: 2010.05.17/outbox.cif.g08.bks.cpg/sg15_82_cif.got.tgz:162816.got - 2010.06.03 18:47:42.
