data_PCOD9263372
_publ_section_title
;
Structure prediction by ZEFSAII (Michael W. Deem and Ramdas Pophale) SiO2 
 PCOD9263372
Probable space group: C 2/C
;
_chemical_formula_sum "Si O2"
_cell_formula_units_Z 48
_cell_length_a 22.440622
_cell_length_b 15.207436
_cell_length_c 17.293072
_cell_angle_alpha 90.000000
_cell_angle_beta 20.680570
_cell_angle_gamma 90.000000
_cell_volume 2084.162569
_symmetry_space_group_name_H-M "C 2/C"
_symmetry_group_IT_number 15
_symmetry_cell_setting 'monoclinic'
loop_
_space_group_symop_operation_xyz
x,y,z
-x,y,1/2-z
-x,-y,-z
x,-y,1/2+z
1/2+x,1/2+y,z
1/2-x,1/2+y,1/2-z
1/2-x,1/2-y,-z
1/2+x,1/2-y,1/2+z
loop_
_atom_site_type_symbol
_atom_site_label
_atom_site_fract_x
_atom_site_fract_y
_atom_site_fract_z
Si Si1 0.702509 0.836151 0.007370
Si Si2 0.735248 0.631926 0.762322
Si Si3 0.674538 0.631105 0.457259
Si Si4 0.330659 0.932536 0.608214
Si Si5 0.055599 0.239246 0.852863
Si Si6 0.258913 0.941114 0.397444
O O1 0.500000 0.834824 0.250000
O O2 0.778294 0.908070 0.972527
O O3 0.750000 0.750000 0.000000
O O4 0.738761 0.871405 0.876957
O O5 0.762940 0.533301 0.694335
O O6 0.599164 0.685016 0.877637
O O7 0.698300 0.617765 0.898287
O O8 0.903850 0.691265 0.549774
O O9 0.773466 0.614673 0.255819
O O10 0.782788 0.704995 0.367478
O O11 0.497167 0.670114 0.648208
O O12 0.683304 0.537080 0.483464
O O13 0.535021 0.940956 0.359409
#
# Coordination Sequence:
#
# PCOD9263372 Si02
#       6
#     8   8   8   8   8   8
#     4  10  24  38  56  79 109 146 178 215 267 320
#     4  10  19  34  56  80 111 137 182 219 270 309
#     4  10  19  34  56  80 111 137 182 219 270 309
#     4  10  19  36  54  78 110 148 175 215 275 316
#     4  10  20  30  56  86 102 136 176 240 254 312
#     4  10  19  36  54  78 110 148 175 215 275 316
#
# _framework density 23.030833000000001
#
# number of rings (size 3 to 8) (size 9 to 14) (size 15 to 20)
#    0.000    2.000    3.333    1.000    4.667    2.667 
#    3.000    0.000    0.000    6.000    0.000    0.000 
#    0.000    0.000    0.000    0.000    0.000    0.000 
#
# Total GULP energy -134057.106572 kJ/mol
# GULP energy per Si atom -5585.712774 kJ/mol
# Density = 2.297841 g / cm^3
# Si number density = 23.030833 Si / 1000 Ang^3
#
#
#
# Elastic Constant Matrix: (Units=GPa)
#
#
# Indices 1 2 3 4 5 6 
#
# 1 108.3584 70.6423 40.6378 -0.0002 -26.4478 0.0001
# 2 70.6423 121.8808 22.8963 0.0009 -22.4867 -0.0005
# 3 40.6378 22.8963 53.8285 0.0060 -11.4842 -0.0015
# 4 -0.0002 0.0009 0.0060 11.4352 -0.0020 -25.7549
# 5 -26.4478 -22.4867 -11.4842 -0.0020 33.2278 0.0008
# 6 0.0001 -0.0005 -0.0015 -25.7549 0.0008 48.3279
#
#
#
# Elastic Compliance Matrix: (Units=1/GPa)
#
#
# Indices 1 2 3 4 5 6 
#
# 1 0.020352 -0.008611 -0.010244 -0.000031 0.006831 -0.000017
# 2 -0.008611 0.013440 0.001363 0.000005 0.002712 0.000003
# 3 -0.010244 0.001363 0.026115 0.000058 0.001794 0.000032
# 4 -0.000031 0.000005 0.000058 -0.436663 -0.000022 -0.232707
# 5 0.006831 0.002712 0.001794 -0.000022 0.037988 -0.000012
# 6 -0.000017 0.000003 0.000032 -0.232707 -0.000012 -0.103322
#
#
# Mechanical properties :
#
#
# Convention : Reuss Voigt Hill
#
# Bulk Modulus (GPa) = 40.12670 61.38007 50.75339
# Shear Modulus (GPa) = -12.53766 28.59094 8.02664
#
# Velocity S-wave (km/s) = -2.33574 3.52720 1.86889
# Velocity P-wave (km/s) = 3.19165 6.58007 5.17126
#
# Compressibility (1/GPa) = 0.02492106
#
# Stress axis : x y z
#
# Youngs Moduli (GPa) = 49.13584 74.40372 38.29283
#
# Poissons Ratio (x) = 0.64070 0.39229
# Poissons Ratio (y) = 0.42311 -0.05219
# Poissons Ratio (z) = 0.50337 -0.10140
#
# Static dielectric constant tensor:
#      x y z
#    x 1.868190 0.000000 0.014910 
#    y 0.000000 1.950100 0.000000 
#    z 0.014910 0.000000 1.900460 
# 
# From -- ./inp_files/55422.got.cif
#   From: 2010.05.17/outbox.cif.g08.bks.cpg/sg15_28_cif.got.tgz:55422.got - 2010.06.03 18:47:42.
