data_PCOD9263365
_publ_section_title
;
Structure prediction by ZEFSAII (Michael W. Deem and Ramdas Pophale) SiO2 
 PCOD9263365
Probable space group: C 2/C
;
_chemical_formula_sum "Si O2"
_cell_formula_units_Z 40
_cell_length_a 7.000514
_cell_length_b 24.860916
_cell_length_c 14.262139
_cell_angle_alpha 90.000000
_cell_angle_beta 135.657249
_cell_angle_gamma 90.000000
_cell_volume 1734.911280
_symmetry_space_group_name_H-M "C 2/C"
_symmetry_group_IT_number 15
_symmetry_cell_setting 'monoclinic'
loop_
_space_group_symop_operation_xyz
x,y,z
-x,y,1/2-z
-x,-y,-z
x,-y,1/2+z
1/2+x,1/2+y,z
1/2-x,1/2+y,1/2-z
1/2-x,1/2-y,-z
1/2+x,1/2-y,1/2+z
loop_
_atom_site_type_symbol
_atom_site_label
_atom_site_fract_x
_atom_site_fract_y
_atom_site_fract_z
Si Si1 0.393662 0.458663 0.356613
Si Si2 0.517540 0.580106 0.420558
Si Si3 0.450118 0.690770 0.343611
Si Si4 0.538911 0.808132 0.151583
Si Si5 0.395002 0.916883 0.420391
O O1 0.381036 0.521998 0.372282
O O2 0.348028 0.419921 0.428769
O O3 0.695677 0.440220 0.428692
O O4 0.186964 0.450743 0.199529
O O5 0.339201 0.632716 0.337352
O O6 0.782889 0.579480 0.445281
O O7 0.500000 0.687452 0.250000
O O8 0.321576 0.749653 0.313852
O O9 0.735528 0.693488 0.500359
O O10 0.500000 0.816384 0.250000
O O11 0.671444 0.856420 0.138713
#
# Coordination Sequence:
#
# PCOD9263365 Si02
#       5
#     8   8   8   8   8
#     4  10  21  33  54  85 107 149 190 229 282 347
#     4  10  20  36  53  78 116 144 185 236 287 333
#     4   9  18  31  56  83 109 145 186 234 285 331
#     4   9  17  33  56  82 107 146 193 229 278 338
#     4  10  19  34  56  79 107 145 190 233 277 338
#
# _framework density 23.055934000000001
#
# number of rings (size 3 to 8) (size 9 to 14) (size 15 to 20)
#    0.000    2.400    0.000    3.600    2.800    0.000 
#    0.000    1.000    0.000    4.800    0.000    0.000 
#    0.000    0.000    0.000    0.000    0.000    0.000 
#
# Total GULP energy -111463.386900 kJ/mol
# GULP energy per Si atom -5573.169345 kJ/mol
# Density = 2.300346 g / cm^3
# Si number density = 23.055934 Si / 1000 Ang^3
#
#
#
# Elastic Constant Matrix: (Units=GPa)
#
#
# Indices 1 2 3 4 5 6 
#
# 1 44.6841 1.1104 6.6600 0.0000 -4.0344 0.0000
# 2 1.1104 199.0597 2.7122 0.0000 -13.7075 0.0000
# 3 6.6600 2.7122 59.0418 0.0000 -10.1960 0.0000
# 4 0.0000 0.0000 0.0000 13.8197 0.0000 12.9361
# 5 -4.0344 -13.7075 -10.1960 0.0000 21.3583 0.0000
# 6 0.0000 0.0000 0.0000 12.9361 0.0000 -7.7980
#
#
#
# Elastic Compliance Matrix: (Units=1/GPa)
#
#
# Indices 1 2 3 4 5 6 
#
# 1 0.022988 0.000138 -0.001999 0.000000 0.003477 0.000000
# 2 0.000138 0.005264 0.000360 0.000000 0.003577 0.000000
# 3 -0.001999 0.000360 0.018659 0.000000 0.008761 0.000000
# 4 0.000000 0.000000 0.000000 0.028345 0.000000 0.047022
# 5 0.003477 0.003577 0.008761 0.000000 0.053955 0.000000
# 6 0.000000 0.000000 0.000000 0.047022 0.000000 -0.050233
#
#
# Mechanical properties :
#
#
# Convention : Reuss Voigt Hill
#
# Bulk Modulus (GPa) = 22.77371 35.97231 29.37301
# Shear Modulus (GPa) = 51.75188 24.96287 38.35737
#
# Velocity S-wave (km/s) = 4.74289 3.29402 4.08323
# Velocity P-wave (km/s) = 6.31604 5.48667 5.91590
#
# Compressibility (1/GPa) = 0.04391029
#
# Stress axis : x y z
#
# Youngs Moduli (GPa) = 43.50142 189.96135 53.59334
#
# Poissons Ratio (x) = -0.02629 0.10713
# Poissons Ratio (y) = -0.00602 -0.01931
# Poissons Ratio (z) = 0.08696 -0.06843
#
# Static dielectric constant tensor:
#      x y z
#    x 1.896870 0.000000 0.015110 
#    y 0.000000 1.968610 0.000000 
#    z 0.015110 0.000000 1.863130 
# 
# From -- ./inp_files/78676.got.cif
#   From: 2010.05.17/outbox.cif.g08.bks.cpg/sg15_40_cif.got.tgz:78676.got - 2010.06.03 18:47:42.
