data_PCOD9263727
_publ_section_title
;
Structure prediction by ZEFSAII (Michael W. Deem and Ramdas Pophale) SiO2 
 PCOD9263727
Probable space group: C 2/C
;
_chemical_formula_sum "Si O2"
_cell_formula_units_Z 56
_cell_length_a 17.214970
_cell_length_b 18.648439
_cell_length_c 9.447853
_cell_angle_alpha 90.000000
_cell_angle_beta 67.766570
_cell_angle_gamma 90.000000
_cell_volume 2807.557592
_symmetry_space_group_name_H-M "C 2/C"
_symmetry_group_IT_number 15
_symmetry_cell_setting 'monoclinic'
loop_
_space_group_symop_operation_xyz
x,y,z
-x,y,1/2-z
-x,-y,-z
x,-y,1/2+z
1/2+x,1/2+y,z
1/2-x,1/2+y,1/2-z
1/2-x,1/2-y,-z
1/2+x,1/2-y,1/2+z
loop_
_atom_site_type_symbol
_atom_site_label
_atom_site_fract_x
_atom_site_fract_y
_atom_site_fract_z
Si Si1 0.788697 0.946679 0.058974
Si Si2 0.220458 0.572396 0.301031
Si Si3 0.026178 0.430939 0.893287
Si Si4 0.369918 0.668857 0.159984
Si Si5 0.945730 0.042343 0.924461
Si Si6 0.000407 0.709260 0.919291
Si Si7 0.666232 0.704996 0.005070
O O1 0.755666 0.000682 0.201250
O O2 0.728733 0.935356 0.965008
O O3 0.807774 0.865945 0.100546
O O4 0.869123 0.989208 0.941470
O O5 0.125359 0.578703 0.326789
O O6 0.273277 0.642377 0.213782
O O7 0.000000 0.437497 0.750000
O O8 0.990588 0.362107 0.997779
O O9 0.000000 0.500000 0.000000
O O10 0.418952 0.742205 0.096599
O O11 0.376754 0.668383 0.326350
O O12 0.415321 0.611413 0.030570
O O13 0.000000 0.059759 0.750000
O O14 0.000000 0.000000 0.000000
O O15 0.909114 0.747616 0.007981
O O16 0.000000 0.695044 0.750000
O O17 0.750000 0.750000 0.000000
#
# Coordination Sequence:
#
# PCOD9263727 Si02
#       7
#     8   8   8   8   8   8   8
#     4  10  20  35  59  89 121 162 207 251 306 367
#     4  10  21  40  60  87 121 157 204 258 309 373
#     4  12  26  44  65  89 117 155 204 261 319 379
#     4   9  20  35  57  88 121 155 198 249 307 371
#     4  11  20  33  56  89 128 167 207 255 308 372
#     4  10  21  39  62  89 121 160 203 249 305 377
#     4  10  19  34  59  89 122 162 207 257 307 367
#
# _framework density 19.946162000000001
#
# number of rings (size 3 to 8) (size 9 to 14) (size 15 to 20)
#    0.000    1.714    0.000    6.429    0.000    5.143 
#    0.000    2.143    0.000    0.000    0.000    0.000 
#    0.000    0.000    0.000    0.000    0.000    0.000 
#
# Total GULP energy -156051.557929 kJ/mol
# GULP energy per Si atom -5573.269926 kJ/mol
# Density = 1.990076 g / cm^3
# Si number density = 19.946162 Si / 1000 Ang^3
#
#
#
# Elastic Constant Matrix: (Units=GPa)
#
#
# Indices 1 2 3 4 5 6 
#
# 1 91.3341 43.8836 32.2167 0.0000 12.3958 0.0000
# 2 43.8836 158.3810 53.5614 0.0000 0.0510 0.0000
# 3 32.2167 53.5614 84.0297 0.0000 5.4076 0.0000
# 4 0.0000 0.0000 0.0000 30.1336 0.0000 6.0936
# 5 12.3958 0.0510 5.4076 0.0000 24.5882 0.0000
# 6 0.0000 0.0000 0.0000 6.0936 0.0000 12.4421
#
#
#
# Elastic Compliance Matrix: (Units=1/GPa)
#
#
# Indices 1 2 3 4 5 6 
#
# 1 0.014364 -0.002878 -0.003253 0.000000 -0.006520 0.000000
# 2 -0.002878 0.008656 -0.004571 0.000000 0.002438 0.000000
# 3 -0.003253 -0.004571 0.016185 0.000000 -0.001910 0.000000
# 4 0.000000 0.000000 0.000000 0.036833 0.000000 -0.018039
# 5 -0.006520 0.002438 -0.001910 0.000000 0.044372 0.000000
# 6 0.000000 0.000000 0.000000 -0.018039 0.000000 0.089207
#
#
# Mechanical properties :
#
#
# Convention : Reuss Voigt Hill
#
# Bulk Modulus (GPa) = 56.17841 65.89648 61.03744
# Shear Modulus (GPa) = 21.10110 27.03833 24.06971
#
# Velocity S-wave (km/s) = 3.25607 3.68579 3.47758
# Velocity P-wave (km/s) = 6.50862 7.15698 6.84049
#
# Compressibility (1/GPa) = 0.01780043
#
# Stress axis : x y z
#
# Youngs Moduli (GPa) = 69.61938 115.52235 61.78740
#
# Poissons Ratio (x) = 0.33243 0.20101
# Poissons Ratio (y) = 0.20034 0.28245
# Poissons Ratio (z) = 0.22649 0.52809
#
# Static dielectric constant tensor:
#      x y z
#    x 5.900690 0.000000 2.172510 
#    y 0.000000 1.858050 0.000000 
#    z 2.172510 0.000000 2.874820 
# 
# From -- ./inp_files/49026.got.cif
#   From: 2010.05.17/outbox.cif.g08.bks.cpg/sg15_25_cif.got.tgz:49026.got - 2010.06.03 18:47:42.
