data_PCOD9263080
_publ_section_title
;
Structure prediction by ZEFSAII (Michael W. Deem and Ramdas Pophale) SiO2 
 PCOD9263080
Probable space group: C 2/C
;
_chemical_formula_sum "Si O2"
_cell_formula_units_Z 48
_cell_length_a 8.660543
_cell_length_b 19.861764
_cell_length_c 21.826775
_cell_angle_alpha 90.000000
_cell_angle_beta 143.200537
_cell_angle_gamma 90.000000
_cell_volume 2249.008008
_symmetry_space_group_name_H-M "C 2/C"
_symmetry_group_IT_number 15
_symmetry_cell_setting 'monoclinic'
loop_
_space_group_symop_operation_xyz
x,y,z
-x,y,1/2-z
-x,-y,-z
x,-y,1/2+z
1/2+x,1/2+y,z
1/2-x,1/2+y,1/2-z
1/2-x,1/2-y,-z
1/2+x,1/2-y,1/2+z
loop_
_atom_site_type_symbol
_atom_site_label
_atom_site_fract_x
_atom_site_fract_y
_atom_site_fract_z
Si Si1 0.763491 0.681491 0.366959
Si Si2 0.530622 0.004148 0.663465
Si Si3 0.801179 0.366479 0.571478
Si Si4 0.695881 0.698214 0.536919
Si Si5 0.427320 0.530614 0.888621
Si Si6 0.343607 0.918224 0.006786
O O1 0.500000 0.660317 0.250000
O O2 0.728299 0.757083 0.381266
O O3 0.838261 0.626706 0.443956
O O4 0.010246 0.684504 0.401776
O O5 0.499349 0.923304 0.659772
O O6 0.757711 0.037076 0.774139
O O7 0.266610 0.023970 0.615658
O O8 0.543940 0.025473 0.595830
O O9 0.597732 0.328572 0.550180
O O10 0.621483 0.409370 0.467283
O O11 0.750000 0.750000 0.500000
O O12 0.858643 0.634267 0.567906
O O13 0.582930 0.461546 0.927871
#
# Coordination Sequence:
#
# PCOD9263080 Si02
#       6
#     8   8   8   8   8   8
#     4  11  25  39  59  89 125 172 208 252 308 367
#     4  10  19  33  63  95 120 157 205 253 313 373
#     4  11  20  40  61  89 127 159 204 257 315 370
#     4  10  21  39  61  80 115 160 208 258 302 358
#     4  10  19  33  63  96 119 160 204 253 314 372
#     4  10  19  40  57  87 123 156 202 257 310 358
#
# _framework density 21.342742999999999
#
# number of rings (size 3 to 8) (size 9 to 14) (size 15 to 20)
#    0.000    1.667    3.333    2.500    0.000    4.000 
#    0.000    2.500    0.000    8.000    0.000    0.000 
#    0.000    0.000    0.000    0.000    0.000    0.000 
#
# Total GULP energy -133604.920458 kJ/mol
# GULP energy per Si atom -5566.871686 kJ/mol
# Density = 2.129417 g / cm^3
# Si number density = 21.342743 Si / 1000 Ang^3
#
#
#
# Elastic Constant Matrix: (Units=GPa)
#
#
# Indices 1 2 3 4 5 6 
#
# 1 46.3893 18.5053 14.7879 -0.0008 4.7503 -0.0016
# 2 18.5053 61.7860 -4.9454 -0.0018 4.9336 -0.0014
# 3 14.7879 -4.9454 44.5881 0.0025 12.2693 -0.0006
# 4 -0.0008 -0.0018 0.0025 17.8245 -0.0004 -3.4051
# 5 4.7503 4.9336 12.2693 -0.0004 14.7921 -0.0006
# 6 -0.0016 -0.0014 -0.0006 -3.4051 -0.0006 41.2934
#
#
#
# Elastic Compliance Matrix: (Units=1/GPa)
#
#
# Indices 1 2 3 4 5 6 
#
# 1 0.028837 -0.009869 -0.011682 0.000002 0.003721 0.000001
# 2 -0.009869 0.020688 0.008545 0.000000 -0.010818 0.000000
# 3 -0.011682 0.008545 0.034987 -0.000005 -0.028118 -0.000001
# 4 0.000002 0.000000 -0.000005 0.057000 0.000005 0.004700
# 5 0.003721 -0.010818 -0.028118 0.000005 0.093339 0.000001
# 6 0.000001 0.000000 -0.000001 0.004700 0.000001 0.024605
#
#
# Mechanical properties :
#
#
# Convention : Reuss Voigt Hill
#
# Bulk Modulus (GPa) = 17.09446 23.27323 20.18384
# Shear Modulus (GPa) = 16.39511 23.07637 19.73574
#
# Velocity S-wave (km/s) = 2.77462 3.29177 3.04419
# Velocity P-wave (km/s) = 4.27686 5.03745 4.67265
#
# Compressibility (1/GPa) = 0.05849849
#
# Stress axis : x y z
#
# Youngs Moduli (GPa) = 34.67814 48.33615 28.58214
#
# Poissons Ratio (x) = 0.47703 0.33390
# Poissons Ratio (y) = 0.34224 -0.24422
# Poissons Ratio (z) = 0.40512 -0.41301
#
# Static dielectric constant tensor:
#      x y z
#    x 1.831260 0.000000 -0.046880 
#    y 0.000000 1.911370 0.000000 
#    z -0.046880 0.000000 1.811330 
# 
# From -- ./inp_files/191968.got.cif
#   From: 2010.05.17/outbox.cif.g08.bks.cpg/sg15_96_cif.got.tgz:191968.got - 2010.06.03 18:47:42.
