data_PCOD9263815
_publ_section_title
;
Structure prediction by ZEFSAII (Michael W. Deem and Ramdas Pophale) SiO2 
 PCOD9263815
Probable space group: C 2/C
;
_chemical_formula_sum "Si O2"
_cell_formula_units_Z 24
_cell_length_a 7.231645
_cell_length_b 25.161897
_cell_length_c 8.963202
_cell_angle_alpha 90.000000
_cell_angle_beta 147.498612
_cell_angle_gamma 90.000000
_cell_volume 876.348204
_symmetry_space_group_name_H-M "C 2/C"
_symmetry_group_IT_number 15
_symmetry_cell_setting 'monoclinic'
loop_
_space_group_symop_operation_xyz
x,y,z
-x,y,1/2-z
-x,-y,-z
x,-y,1/2+z
1/2+x,1/2+y,z
1/2-x,1/2+y,1/2-z
1/2-x,1/2-y,-z
1/2+x,1/2-y,1/2+z
loop_
_atom_site_type_symbol
_atom_site_label
_atom_site_fract_x
_atom_site_fract_y
_atom_site_fract_z
Si Si1 0.222610 0.718347 0.747481
Si Si2 0.830361 0.379084 0.881407
Si Si3 0.080128 0.055735 0.630326
O O1 0.000000 0.715678 0.750000
O O2 0.096351 0.768221 0.562530
O O3 0.120246 0.666385 0.585764
O O4 0.500000 0.359910 0.750000
O O5 0.665332 0.401535 0.618804
O O6 0.019748 0.426957 0.098160
O O7 0.000000 0.053306 0.750000
O O8 0.000000 0.000000 0.500000
#
# Coordination Sequence:
#
# PCOD9263815 Si02
#       3
#     8   8   8
#     4  10  19  34  61 100 137 170 216 273 324 378
#     4  12  24  42  70 102 134 173 223 277 330 389
#     4  12  27  47  68  95 133 176 223 275 338 402
#
# _framework density 27.386374
#
# number of rings (size 3 to 8) (size 9 to 14) (size 15 to 20)
#    0.000    0.667    0.000   11.000    0.000    2.667 
#    0.000    0.000    0.000   20.000    0.000    0.000 
#    0.000    0.000    0.000    0.000    0.000    0.000 
#
# Total GULP energy -67297.913852 kJ/mol
# GULP energy per Si atom -5608.159488 kJ/mol
# Density = 2.732404 g / cm^3
# Si number density = 27.386374 Si / 1000 Ang^3
#
#
#
# Elastic Constant Matrix: (Units=GPa)
#
#
# Indices 1 2 3 4 5 6 
#
# 1 74.1265 11.8793 36.8104 0.0000 -26.7653 0.0000
# 2 11.8793 143.4440 92.4596 0.0000 -27.8189 0.0000
# 3 36.8104 92.4596 267.4979 0.0000 -27.7385 0.0000
# 4 0.0000 0.0000 0.0000 88.8684 0.0000 -11.5380
# 5 -26.7653 -27.8189 -27.7385 0.0000 59.1451 0.0000
# 6 0.0000 0.0000 0.0000 -11.5380 0.0000 9.3536
#
#
#
# Elastic Compliance Matrix: (Units=1/GPa)
#
#
# Indices 1 2 3 4 5 6 
#
# 1 0.016934 0.001328 -0.002029 0.000000 0.007336 0.000000
# 2 0.001328 0.009576 -0.003115 0.000000 0.003644 0.000000
# 3 -0.002029 -0.003115 0.005095 0.000000 0.000006 0.000000
# 4 0.000000 0.000000 0.000000 0.013398 0.000000 0.016527
# 5 0.007336 0.003644 0.000006 0.000000 0.021945 0.000000
# 6 0.000000 0.000000 0.000000 0.016527 0.000000 0.127299
#
#
# Mechanical properties :
#
#
# Convention : Reuss Voigt Hill
#
# Bulk Modulus (GPa) = 41.71193 85.26301 63.48747
# Shear Modulus (GPa) = 23.82451 54.40135 39.11293
#
# Velocity S-wave (km/s) = 2.95267 4.46178 3.78324
# Velocity P-wave (km/s) = 5.18540 7.59897 6.50510
#
# Compressibility (1/GPa) = 0.02397396
#
# Stress axis : x y z
#
# Youngs Moduli (GPa) = 59.05277 104.43066 196.28124
#
# Poissons Ratio (x) = -0.13868 0.39816
# Poissons Ratio (y) = -0.07842 0.61135
# Poissons Ratio (z) = 0.11979 0.32527
#
# Static dielectric constant tensor:
#      x y z
#    x 2.228930 0.000000 0.022840 
#    y 0.000000 2.196600 0.000000 
#    z 0.022840 0.000000 1.998840 
# 
# From -- ./inp_files/25230.got.cif
#   From: 2010.05.17/outbox.cif.g08.bks.cpg/sg15_13_cif.got.tgz:25230.got - 2010.06.03 18:47:42.
