data_PCOD9263047
_publ_section_title
;
Structure prediction by ZEFSAII (Michael W. Deem and Ramdas Pophale) SiO2 
 PCOD9263047
Probable space group: C 2/C
;
_chemical_formula_sum "Si O2"
_cell_formula_units_Z 60
_cell_length_a 13.397769
_cell_length_b 15.095060
_cell_length_c 16.279136
_cell_angle_alpha 90.000000
_cell_angle_beta 115.807001
_cell_angle_gamma 90.000000
_cell_volume 2963.939457
_symmetry_space_group_name_H-M "C 2/C"
_symmetry_group_IT_number 15
_symmetry_cell_setting 'monoclinic'
loop_
_space_group_symop_operation_xyz
x,y,z
-x,y,1/2-z
-x,-y,-z
x,-y,1/2+z
1/2+x,1/2+y,z
1/2-x,1/2+y,1/2-z
1/2-x,1/2-y,-z
1/2+x,1/2-y,1/2+z
loop_
_atom_site_type_symbol
_atom_site_label
_atom_site_fract_x
_atom_site_fract_y
_atom_site_fract_z
Si Si1 0.231516 0.492423 0.318584
Si Si2 0.407532 0.214967 0.338183
Si Si3 0.000000 0.415352 0.750000
Si Si4 0.738139 0.306267 0.913384
Si Si5 0.612193 0.178292 0.744005
Si Si6 0.947657 0.863168 0.029979
Si Si7 0.307921 0.684875 0.341460
Si Si8 0.120476 0.052883 0.471205
O O1 0.112633 0.531548 0.299475
O O2 0.194434 0.404553 0.255301
O O3 0.297788 0.580049 0.309275
O O4 0.295607 0.458732 0.421909
O O5 0.487509 0.144150 0.326198
O O6 0.349797 0.180630 0.401185
O O7 0.477207 0.300759 0.387587
O O8 0.309090 0.224007 0.234510
O O9 0.667565 0.243667 0.829496
O O10 0.750000 0.250000 0.000000
O O11 0.677345 0.395581 0.917777
O O12 0.500000 0.148811 0.750000
O O13 0.602874 0.245815 0.664230
O O14 0.837653 0.822011 0.948455
O O15 0.919600 0.954754 0.064749
O O16 0.020182 0.892102 0.975907
#
# Coordination Sequence:
#
# PCOD9263047 Si02
#       8
#     8   8   4   8   8   8   8   8
#     4  10  19  37  59  83 117 167 202 253 313 370
#     4  10  21  39  64  84 122 172 204 258 311 370
#     4  10  22  42  62  82 122 170 218 250 314 384
#     4  11  19  34  60  92 123 154 208 264 310 367
#     4  11  20  32  60  89 117 159 203 253 310 363
#     4  10  19  36  64  91 122 172 197 252 325 373
#     4   9  21  36  58  93 123 156 213 251 305 382
#     4  10  19  33  60  92 125 154 206 255 316 379
#
# _framework density 20.243328999999999
#
# number of rings (size 3 to 8) (size 9 to 14) (size 15 to 20)
#    0.000    1.867    3.333    1.600    0.000    0.000 
#    0.000    6.667   54.267    0.000    0.000    0.000 
#    0.000    0.000    0.000    0.000    0.000    0.000 
#
# Total GULP energy -167022.133576 kJ/mol
# GULP energy per Si atom -5567.404453 kJ/mol
# Density = 2.019725 g / cm^3
# Si number density = 20.243329 Si / 1000 Ang^3
#
#
#
# Elastic Constant Matrix: (Units=GPa)
#
#
# Indices 1 2 3 4 5 6 
#
# 1 63.8482 50.8957 8.5257 0.0000 -5.9632 0.0000
# 2 50.8957 140.2662 39.5446 0.0000 4.3868 0.0000
# 3 8.5257 39.5446 63.8892 0.0000 12.3503 0.0000
# 4 0.0000 0.0000 0.0000 30.4178 0.0000 10.2802
# 5 -5.9632 4.3868 12.3503 0.0000 20.9778 0.0000
# 6 0.0000 0.0000 0.0000 10.2802 0.0000 36.9325
#
#
#
# Elastic Compliance Matrix: (Units=1/GPa)
#
#
# Indices 1 2 3 4 5 6 
#
# 1 0.023489 -0.009028 0.000900 0.000000 0.008035 0.000000
# 2 -0.009028 0.012149 -0.006012 0.000000 -0.001567 0.000000
# 3 0.000900 -0.006012 0.021396 0.000000 -0.011083 0.000000
# 4 0.000000 0.000000 0.000000 0.036289 0.000000 -0.010101
# 5 0.008035 -0.001567 -0.011083 0.000000 0.056806 0.000000
# 6 0.000000 0.000000 0.000000 -0.010101 0.000000 0.029888
#
#
# Mechanical properties :
#
#
# Convention : Reuss Voigt Hill
#
# Bulk Modulus (GPa) = 34.77767 51.77060 43.27413
# Shear Modulus (GPa) = 22.94822 28.93480 25.94151
#
# Velocity S-wave (km/s) = 3.37058 3.78478 3.58367
# Velocity P-wave (km/s) = 5.68901 6.68798 6.20862
#
# Compressibility (1/GPa) = 0.02875408
#
# Stress axis : x y z
#
# Youngs Moduli (GPa) = 42.57311 82.31055 46.73857
#
# Poissons Ratio (x) = 0.74311 -0.04208
# Poissons Ratio (y) = 0.38435 0.28099
# Poissons Ratio (z) = -0.03833 0.49485
#
# Static dielectric constant tensor:
#      x y z
#    x 1.749650 0.000000 -0.077640 
#    y 0.000000 1.789630 0.000000 
#    z -0.077640 0.000000 1.314630 
# 
# From -- ./inp_files/244226.got.cif
#   From: 2010.05.17/outbox.cif.g08.bks.cpg/sg15_123_cif.got.tgz:244226.got - 2010.06.03 18:47:42.
