data_PCOD9263248
_publ_section_title
;
Structure prediction by ZEFSAII (Michael W. Deem and Ramdas Pophale) SiO2 
 PCOD9263248
Probable space group: C 2/C
;
_chemical_formula_sum "Si O2"
_cell_formula_units_Z 56
_cell_length_a 11.025424
_cell_length_b 25.960657
_cell_length_c 13.657392
_cell_angle_alpha 90.000000
_cell_angle_beta 33.134809
_cell_angle_gamma 90.000000
_cell_volume 2136.765992
_symmetry_space_group_name_H-M "C 2/C"
_symmetry_group_IT_number 15
_symmetry_cell_setting 'monoclinic'
loop_
_space_group_symop_operation_xyz
x,y,z
-x,y,1/2-z
-x,-y,-z
x,-y,1/2+z
1/2+x,1/2+y,z
1/2-x,1/2+y,1/2-z
1/2-x,1/2-y,-z
1/2+x,1/2-y,1/2+z
loop_
_atom_site_type_symbol
_atom_site_label
_atom_site_fract_x
_atom_site_fract_y
_atom_site_fract_z
Si Si1 0.528783 0.043190 0.606131
Si Si2 0.195423 0.956132 0.179302
Si Si3 0.097655 0.857515 0.921068
Si Si4 0.798464 0.189671 0.460319
Si Si5 0.102961 0.045259 0.020794
Si Si6 0.551866 0.285008 0.321686
Si Si7 0.971808 0.318151 0.535753
O O1 0.378628 0.070482 0.624211
O O2 0.325689 0.028720 0.815025
O O3 0.754902 0.072902 0.487038
O O4 0.640087 0.989811 0.498891
O O5 0.000000 0.928592 0.250000
O O6 0.055366 0.001049 0.331476
O O7 0.323774 0.852711 0.707004
O O8 0.891559 0.831780 0.999224
O O9 0.030337 0.917042 0.960255
O O10 0.105877 0.826261 0.016695
O O11 0.750000 0.250000 0.500000
O O12 0.591982 0.172692 0.534396
O O13 0.000000 0.181731 0.250000
O O14 0.500000 0.260711 0.250000
O O15 0.587981 0.238945 0.376112
O O16 0.766379 0.317268 0.144955
#
# Coordination Sequence:
#
# PCOD9263248 Si02
#       7
#     8   8   8   8   8   8   8
#     4   9  19  36  59  91 120 157 199 247 300 373
#     4   9  18  35  64  91 121 157 203 247 300 376
#     4  11  25  38  58  93 128 166 203 267 323 361
#     4  10  19  34  54  82 116 150 206 257 305 356
#     4  10  21  37  59  91 128 159 201 249 320 372
#     4  12  24  40  64  88 116 167 225 263 301 369
#     4  11  22  38  62  88 118 163 215 265 309 360
#
# _framework density 26.207830999999999
#
# number of rings (size 3 to 8) (size 9 to 14) (size 15 to 20)
#    0.000    1.714    2.857    1.714    0.000    8.571 
#    0.000    0.714    0.000   10.286    0.000    0.000 
#    0.000    0.000    0.000    0.000    0.000    0.000 
#
# Total GULP energy -156041.233672 kJ/mol
# GULP energy per Si atom -5572.901203 kJ/mol
# Density = 2.614818 g / cm^3
# Si number density = 26.207831 Si / 1000 Ang^3
#
#
#
# Elastic Constant Matrix: (Units=GPa)
#
#
# Indices 1 2 3 4 5 6 
#
# 1 69.3483 10.6148 -35.7314 0.0000 -10.4482 0.0000
# 2 10.6148 71.1787 25.2793 0.0000 5.8483 0.0000
# 3 -35.7314 25.2793 131.5838 -0.0001 -1.1666 0.0000
# 4 0.0000 0.0000 -0.0001 16.6569 0.0000 -2.7367
# 5 -10.4482 5.8483 -1.1666 0.0000 42.3570 0.0000
# 6 0.0000 0.0000 0.0000 -2.7367 0.0000 32.3851
#
#
#
# Elastic Compliance Matrix: (Units=1/GPa)
#
#
# Indices 1 2 3 4 5 6 
#
# 1 0.019463 -0.005657 0.006423 0.000000 0.005759 0.000000
# 2 -0.005657 0.016923 -0.004821 0.000000 -0.003865 0.000000
# 3 0.006423 -0.004821 0.010293 0.000000 0.002534 0.000000
# 4 0.000000 0.000000 0.000000 0.060881 0.000000 0.005145
# 5 0.005759 -0.003865 0.002534 0.000000 0.025633 0.000000
# 6 0.000000 0.000000 0.000000 0.005145 0.000000 0.031313
#
#
# Mechanical properties :
#
#
# Convention : Reuss Voigt Hill
#
# Bulk Modulus (GPa) = 25.92861 30.27069 28.09965
# Shear Modulus (GPa) = 26.95841 36.40968 31.68405
#
# Velocity S-wave (km/s) = 3.21072 3.73133 3.48077
# Velocity P-wave (km/s) = 4.86414 5.48991 5.18647
#
# Compressibility (1/GPa) = 0.03856744
#
# Stress axis : x y z
#
# Youngs Moduli (GPa) = 51.38006 59.09254 97.15742
#
# Poissons Ratio (x) = 0.33427 -0.62403
# Poissons Ratio (y) = 0.29064 0.46844
# Poissons Ratio (z) = -0.33001 0.28491
#
# Static dielectric constant tensor:
#      x y z
#    x 2.717170 0.000000 0.143670 
#    y 0.000000 2.046350 0.000000 
#    z 0.143670 0.000000 1.995230 
# 
# From -- ./inp_files/149263.got.cif
#   From: 2010.05.17/outbox.cif.g08.bks.cpg/sg15_75_cif.got.tgz:149263.got - 2010.06.03 18:47:42.
