data_PCOD9263550
_publ_section_title
;
Structure prediction by ZEFSAII (Michael W. Deem and Ramdas Pophale) SiO2 
 PCOD9263550
Probable space group: C 2/C
;
_chemical_formula_sum "Si O2"
_cell_formula_units_Z 48
_cell_length_a 17.645116
_cell_length_b 9.045119
_cell_length_c 19.908831
_cell_angle_alpha 90.000000
_cell_angle_beta 35.234028
_cell_angle_gamma 90.000000
_cell_volume 1833.151205
_symmetry_space_group_name_H-M "C 2/C"
_symmetry_group_IT_number 15
_symmetry_cell_setting 'monoclinic'
loop_
_space_group_symop_operation_xyz
x,y,z
-x,y,1/2-z
-x,-y,-z
x,-y,1/2+z
1/2+x,1/2+y,z
1/2-x,1/2+y,1/2-z
1/2-x,1/2-y,-z
1/2+x,1/2-y,1/2+z
loop_
_atom_site_type_symbol
_atom_site_label
_atom_site_fract_x
_atom_site_fract_y
_atom_site_fract_z
Si Si1 0.872682 0.834487 0.010948
Si Si2 0.113960 0.653678 0.891872
Si Si3 0.957206 0.960067 0.183208
Si Si4 0.601443 0.181247 0.114238
Si Si5 0.733984 0.456309 0.802230
Si Si6 0.278596 0.972640 0.562575
O O1 0.984318 0.750593 0.974814
O O2 0.816973 0.970594 0.093285
O O3 0.771832 0.702661 0.073531
O O4 0.937090 0.907746 0.898835
O O5 0.135932 0.542794 0.813692
O O6 0.133489 0.553018 0.942818
O O7 0.227706 0.780437 0.811067
O O8 0.863396 0.000521 0.188443
O O9 0.865283 0.963106 0.315633
O O10 0.023050 0.801288 0.126192
O O11 0.500000 0.167397 0.250000
O O12 0.750000 0.250000 0.000000
O O13 0.641931 0.018719 0.060526
#
# Coordination Sequence:
#
# PCOD9263550 Si02
#       6
#     8   8   8   8   8   8
#     4  11  20  36  59  93 136 170 211 251 320 390
#     4  10  20  34  58  92 135 172 212 250 310 389
#     4  10  22  41  63  94 132 168 214 270 323 381
#     4  12  25  49  73  93 121 164 224 282 336 390
#     4  10  19  34  57  92 134 175 207 256 314 383
#     4  11  23  40  64  97 129 171 218 268 323 385
#
# _framework density 26.184418999999998
#
# number of rings (size 3 to 8) (size 9 to 14) (size 15 to 20)
#    0.000    1.333    1.667    7.500    0.000    2.667 
#    6.000    1.667    0.000    0.000    0.000    0.000 
#    0.000    0.000    0.000    0.000    0.000    0.000 
#
# Total GULP energy -134163.724526 kJ/mol
# GULP energy per Si atom -5590.155189 kJ/mol
# Density = 2.612482 g / cm^3
# Si number density = 26.184419 Si / 1000 Ang^3
#
#
#
# Elastic Constant Matrix: (Units=GPa)
#
#
# Indices 1 2 3 4 5 6 
#
# 1 43.0595 -4.8308 27.6942 0.0000 -7.2012 0.0000
# 2 -4.8308 147.7555 49.4025 0.0000 9.6309 0.0000
# 3 27.6942 49.4025 179.3415 0.0000 6.5095 0.0000
# 4 0.0000 0.0000 0.0000 64.7586 0.0000 -1.1170
# 5 -7.2012 9.6309 6.5095 0.0000 38.6126 0.0000
# 6 0.0000 0.0000 0.0000 -1.1170 0.0000 19.1392
#
#
#
# Elastic Compliance Matrix: (Units=1/GPa)
#
#
# Indices 1 2 3 4 5 6 
#
# 1 0.027662 0.002250 -0.005090 0.000000 0.005456 0.000000
# 2 0.002250 0.007728 -0.002436 0.000000 -0.001097 0.000000
# 3 -0.005090 -0.002436 0.007089 0.000000 -0.001537 0.000000
# 4 0.000000 0.000000 0.000000 0.015458 0.000000 0.000902
# 5 0.005456 -0.001097 -0.001537 0.000000 0.027448 0.000000
# 6 0.000000 0.000000 0.000000 0.000902 0.000000 0.052301
#
#
# Mechanical properties :
#
#
# Convention : Reuss Voigt Hill
#
# Bulk Modulus (GPa) = 31.32098 57.18760 44.25429
# Shear Modulus (GPa) = 31.47045 44.36145 37.91595
#
# Velocity S-wave (km/s) = 3.47057 4.12052 3.80943
# Velocity P-wave (km/s) = 5.29599 6.67278 6.02385
#
# Compressibility (1/GPa) = 0.03192748
#
# Stress axis : x y z
#
# Youngs Moduli (GPa) = 36.15069 129.40560 141.06730
#
# Poissons Ratio (x) = -0.29123 0.71797
# Poissons Ratio (y) = -0.08136 0.34370
# Poissons Ratio (z) = 0.18399 0.31529
#
# Static dielectric constant tensor:
#      x y z
#    x 2.215020 0.000000 -0.052280 
#    y 0.000000 1.990990 0.000000 
#    z -0.052280 0.000000 2.115880 
# 
# From -- ./inp_files/281594.got.cif
#   From: 2010.05.17/outbox.cif.g08.bks.cpg/sg15_141_cif.got.tgz:281594.got - 2010.06.03 18:47:42.
