data_PCOD9263157
_publ_section_title
;
Structure prediction by ZEFSAII (Michael W. Deem and Ramdas Pophale) SiO2 
 PCOD9263157
Probable space group: C 2/C
;
_chemical_formula_sum "Si O2"
_cell_formula_units_Z 56
_cell_length_a 27.285691
_cell_length_b 18.248282
_cell_length_c 8.408411
_cell_angle_alpha 90.000000
_cell_angle_beta 138.151814
_cell_angle_gamma 90.000000
_cell_volume 2793.189110
_symmetry_space_group_name_H-M "C 2/C"
_symmetry_group_IT_number 15
_symmetry_cell_setting 'monoclinic'
loop_
_space_group_symop_operation_xyz
x,y,z
-x,y,1/2-z
-x,-y,-z
x,-y,1/2+z
1/2+x,1/2+y,z
1/2-x,1/2+y,1/2-z
1/2-x,1/2-y,-z
1/2+x,1/2-y,1/2+z
loop_
_atom_site_type_symbol
_atom_site_label
_atom_site_fract_x
_atom_site_fract_y
_atom_site_fract_z
Si Si1 0.409437 0.429590 0.314166
Si Si2 0.965918 0.823910 0.993896
Si Si3 0.803084 0.642018 0.572680
Si Si4 0.063613 0.684797 0.793331
Si Si5 0.346451 0.424242 0.808086
Si Si6 0.289090 0.765814 0.339932
Si Si7 0.155807 0.204922 0.725512
O O1 0.488518 0.392735 0.468914
O O2 0.391543 0.508837 0.340421
O O3 0.380238 0.373615 0.376199
O O4 0.365648 0.426264 0.041244
O O5 0.000000 0.811311 0.250000
O O6 0.967894 0.749487 0.897367
O O7 0.882190 0.851029 0.816611
O O8 0.880729 0.632950 0.670475
O O9 0.741430 0.578288 0.431111
O O10 0.759018 0.705029 0.367901
O O11 0.817389 0.676478 0.780783
O O12 0.000000 0.650985 0.750000
O O13 0.113858 0.731619 0.034456
O O14 0.235740 0.802397 0.341541
O O15 0.345840 0.724987 0.591749
#
# Coordination Sequence:
#
# PCOD9263157 Si02
#       7
#     8   8   8   8   8   8   8
#     4  11  23  35  53  78 117 154 196 232 270 342
#     4  10  22  38  54  78 117 156 194 234 278 340
#     4  10  20  35  56  78 108 149 189 242 288 337
#     4  11  22  34  58  83 113 144 189 243 302 337
#     4  11  23  37  53  79 114 161 200 227 274 343
#     4   9  18  33  56  76 108 141 186 240 292 338
#     4  10  19  34  52  81 109 145 185 237 288 337
#
# _framework density 20.048770000000001
#
# number of rings (size 3 to 8) (size 9 to 14) (size 15 to 20)
#    0.000    1.714    2.857    3.000    6.000    0.000 
#    0.000    0.000    0.000    0.000    0.000    1.000 
#    0.000    0.000    0.000    0.000    0.000    0.000 
#
# Total GULP energy -156089.724960 kJ/mol
# GULP energy per Si atom -5574.633034 kJ/mol
# Density = 2.000314 g / cm^3
# Si number density = 20.048770 Si / 1000 Ang^3
#
#
#
# Elastic Constant Matrix: (Units=GPa)
#
#
# Indices 1 2 3 4 5 6 
#
# 1 114.0859 14.7443 24.4511 0.0000 16.0657 0.0000
# 2 14.7443 15.8043 4.9889 0.0000 10.2726 0.0000
# 3 24.4511 4.9889 49.2961 0.0000 -2.5305 0.0000
# 4 0.0000 0.0000 0.0000 11.3558 0.0000 7.2032
# 5 16.0657 10.2726 -2.5305 0.0000 33.8508 0.0000
# 6 0.0000 0.0000 0.0000 7.2032 0.0000 16.5234
#
#
#
# Elastic Compliance Matrix: (Units=1/GPa)
#
#
# Indices 1 2 3 4 5 6 
#
# 1 0.011218 -0.006408 -0.005109 0.000000 -0.003761 0.000000
# 2 -0.006408 0.086910 -0.006841 0.000000 -0.023844 0.000000
# 3 -0.005109 -0.006841 0.023834 0.000000 0.006282 0.000000
# 4 0.000000 0.000000 0.000000 0.121720 0.000000 -0.053062
# 5 -0.003761 -0.023844 0.006282 0.000000 0.039032 0.000000
# 6 0.000000 0.000000 0.000000 -0.053062 0.000000 0.083652
#
#
# Mechanical properties :
#
#
# Convention : Reuss Voigt Hill
#
# Bulk Modulus (GPa) = 11.73068 29.72831 20.72949
# Shear Modulus (GPa) = 11.58754 21.34615 16.46684
#
# Velocity S-wave (km/s) = 2.40670 3.26653 2.86901
# Velocity P-wave (km/s) = 3.68602 5.39325 4.61919
#
# Compressibility (1/GPa) = 0.08524657
#
# Stress axis : x y z
#
# Youngs Moduli (GPa) = 89.14162 11.50616 41.95615
#
# Poissons Ratio (x) = 0.07373 0.21435
# Poissons Ratio (y) = 0.57123 0.28702
# Poissons Ratio (z) = 0.45541 0.07871
#
# Static dielectric constant tensor:
#      x y z
#    x 1.790030 0.000000 0.042070 
#    y 0.000000 1.719280 0.000000 
#    z 0.042070 0.000000 1.774060 
# 
# From -- ./inp_files/70527.got.cif
#   From: 2010.05.17/outbox.cif.g08.bks.cpg/sg15_36_cif.got.tgz:70527.got - 2010.06.03 18:47:42.
