data_PCOD9263872
_publ_section_title
;
Structure prediction by ZEFSAII (Michael W. Deem and Ramdas Pophale) SiO2 
 PCOD9263872
Probable space group: C 2/C
;
_chemical_formula_sum "Si O2"
_cell_formula_units_Z 44
_cell_length_a 16.222711
_cell_length_b 9.241589
_cell_length_c 12.876616
_cell_angle_alpha 90.000000
_cell_angle_beta 109.250855
_cell_angle_gamma 90.000000
_cell_volume 1822.562835
_symmetry_space_group_name_H-M "C 2/C"
_symmetry_group_IT_number 15
_symmetry_cell_setting 'monoclinic'
loop_
_space_group_symop_operation_xyz
x,y,z
-x,y,1/2-z
-x,-y,-z
x,-y,1/2+z
1/2+x,1/2+y,z
1/2-x,1/2+y,1/2-z
1/2-x,1/2-y,-z
1/2+x,1/2-y,1/2+z
loop_
_atom_site_type_symbol
_atom_site_label
_atom_site_fract_x
_atom_site_fract_y
_atom_site_fract_z
Si Si1 0.854234 0.240592 0.548589
Si Si2 0.430086 0.023282 0.378799
Si Si3 0.432052 0.699580 0.353645
Si Si4 0.309560 0.049796 0.510378
Si Si5 0.500000 0.744253 0.750000
Si Si6 0.127494 0.861916 0.888011
O O1 0.750000 0.250000 0.500000
O O2 0.889558 0.201425 0.449239
O O3 0.862454 0.414583 0.578726
O O4 0.919141 0.166471 0.658468
O O5 0.339403 0.049945 0.401839
O O6 0.455390 0.158911 0.320589
O O7 0.500000 0.000000 0.500000
O O8 0.432222 0.869773 0.322391
O O9 0.381122 0.622008 0.239674
O O10 0.530447 0.638454 0.395865
O O11 0.204140 0.040089 0.468827
O O12 0.338088 0.198982 0.573694
#
# Coordination Sequence:
#
# PCOD9263872 Si02
#       6
#     8   8   8   8   4   8
#     4  11  24  40  58  87 122 160 204 237 297 370
#     4  11  18  33  57  85 113 145 203 247 298 344
#     4  10  19  36  54  86 115 155 191 245 297 358
#     4  10  20  36  56  91 113 146 198 249 294 357
#     4  12  20  36  62  78 114 160 188 250 298 340
#     4  10  19  34  62  84 116 146 194 251 303 343
#
# _framework density 24.141828
#
# number of rings (size 3 to 8) (size 9 to 14) (size 15 to 20)
#    0.000    1.455    5.455    2.182    2.545    0.000 
#    0.000    2.727    0.000    0.000    0.000    0.000 
#    0.000    0.000    0.000    0.000    0.000    0.000 
#
# Total GULP energy -122844.687810 kJ/mol
# GULP energy per Si atom -5583.849446 kJ/mol
# Density = 2.408688 g / cm^3
# Si number density = 24.141828 Si / 1000 Ang^3
#
#
#
# Elastic Constant Matrix: (Units=GPa)
#
#
# Indices 1 2 3 4 5 6 
#
# 1 170.2933 13.9668 71.6611 0.0000 20.6304 0.0000
# 2 13.9668 49.0282 28.8907 0.0000 3.9756 0.0000
# 3 71.6611 28.8907 123.7050 0.0000 11.0367 0.0000
# 4 0.0000 0.0000 0.0000 35.4351 0.0000 8.4580
# 5 20.6304 3.9756 11.0367 0.0000 34.3100 0.0000
# 6 0.0000 0.0000 0.0000 8.4580 0.0000 3.4922
#
#
#
# Elastic Compliance Matrix: (Units=1/GPa)
#
#
# Indices 1 2 3 4 5 6 
#
# 1 0.008168 0.000651 -0.004570 0.000000 -0.003517 0.000000
# 2 0.000651 0.023736 -0.005807 0.000000 -0.001274 0.000000
# 3 -0.004570 -0.005807 0.012130 0.000000 -0.000481 0.000000
# 4 0.000000 0.000000 0.000000 0.066890 0.000000 -0.162004
# 5 -0.003517 -0.001274 -0.000481 0.000000 0.031563 0.000000
# 6 0.000000 0.000000 0.000000 -0.162004 0.000000 0.678720
#
#
# Mechanical properties :
#
#
# Convention : Reuss Voigt Hill
#
# Bulk Modulus (GPa) = 40.67889 63.56263 52.12076
# Shear Modulus (GPa) = 5.89030 29.88133 17.88581
#
# Velocity S-wave (km/s) = 1.56370 3.52197 2.72483
# Velocity P-wave (km/s) = 4.48852 6.55172 5.61568
#
# Compressibility (1/GPa) = 0.02458278
#
# Stress axis : x y z
#
# Youngs Moduli (GPa) = 122.43022 42.12986 82.43876
#
# Poissons Ratio (x) = -0.02744 0.37674
# Poissons Ratio (y) = -0.07973 0.47873
# Poissons Ratio (z) = 0.55950 0.24465
#
# Static dielectric constant tensor:
#      x y z
#    x 1.964440 0.000000 0.016630 
#    y 0.000000 2.069460 0.000000 
#    z 0.016630 0.000000 1.920670 
# 
# From -- ./inp_files/103895.got.cif
#   From: 2010.05.17/outbox.cif.g08.bks.cpg/sg15_52_cif.got.tgz:103895.got - 2010.06.03 18:47:42.
