data_PCOD9263733
_publ_section_title
;
Structure prediction by ZEFSAII (Michael W. Deem and Ramdas Pophale) SiO2 
 PCOD9263733
Probable space group: C 2/C
;
_chemical_formula_sum "Si O2"
_cell_formula_units_Z 40
_cell_length_a 7.230434
_cell_length_b 27.414460
_cell_length_c 10.604136
_cell_angle_alpha 90.000000
_cell_angle_beta 130.512714
_cell_angle_gamma 90.000000
_cell_volume 1598.021211
_symmetry_space_group_name_H-M "C 2/C"
_symmetry_group_IT_number 15
_symmetry_cell_setting 'monoclinic'
loop_
_space_group_symop_operation_xyz
x,y,z
-x,y,1/2-z
-x,-y,-z
x,-y,1/2+z
1/2+x,1/2+y,z
1/2-x,1/2+y,1/2-z
1/2-x,1/2-y,-z
1/2+x,1/2-y,1/2+z
loop_
_atom_site_type_symbol
_atom_site_label
_atom_site_fract_x
_atom_site_fract_y
_atom_site_fract_z
Si Si1 0.235654 0.718239 0.199988
Si Si2 0.869480 0.316634 0.325375
Si Si3 0.775519 0.482875 0.812658
Si Si4 0.144600 0.117481 0.180673
Si Si5 0.151783 0.081640 0.692380
O O1 0.500000 0.723122 0.250000
O O2 0.178455 0.772360 0.224523
O O3 0.256666 0.671898 0.301889
O O4 0.046193 0.702033 0.011407
O O5 0.801751 0.372706 0.313357
O O6 0.000000 0.319796 0.250000
O O7 0.500000 0.476623 0.750000
O O8 0.823233 0.428319 0.782789
O O9 0.755238 0.528051 0.706188
O O10 0.000000 0.500000 0.000000
O O11 0.000000 0.123212 0.250000
O O12 0.978565 0.101742 0.989701
O O13 0.000000 0.070163 0.750000
#
# Coordination Sequence:
#
# PCOD9263733 Si02
#       5
#     8   8   8   8   8
#     4  10  19  34  59  91 118 154 211 272 312 361
#     4  11  20  36  61  89 121 164 212 261 312 379
#     4  10  22  42  66  96 130 170 215 266 322 384
#     4  10  20  40  65  91 120 164 217 265 313 380
#     4  11  24  42  61  93 132 166 202 260 325 384
#
# _framework density 25.030958999999999
#
# number of rings (size 3 to 8) (size 9 to 14) (size 15 to 20)
#    0.000    1.600    0.000    7.800    0.000    1.600 
#    0.000   21.000    0.000    0.000    0.000    0.000 
#    0.000    0.000    0.000    0.000    0.000    0.000 
#
# Total GULP energy -111565.768307 kJ/mol
# GULP energy per Si atom -5578.288415 kJ/mol
# Density = 2.497399 g / cm^3
# Si number density = 25.030959 Si / 1000 Ang^3
#
#
#
# Elastic Constant Matrix: (Units=GPa)
#
#
# Indices 1 2 3 4 5 6 
#
# 1 89.9501 -6.7634 -11.1705 0.0000 -5.8067 0.0000
# 2 -6.7634 187.2046 -33.1264 0.0000 10.2391 0.0000
# 3 -11.1705 -33.1264 86.9829 0.0000 -3.5435 0.0000
# 4 0.0000 0.0000 0.0000 76.1918 0.0000 22.0366
# 5 -5.8067 10.2391 -3.5435 0.0000 20.1764 0.0000
# 6 0.0000 0.0000 0.0000 22.0366 0.0000 54.4789
#
#
#
# Elastic Compliance Matrix: (Units=1/GPa)
#
#
# Indices 1 2 3 4 5 6 
#
# 1 0.011606 0.000560 0.001842 0.000000 0.003379 0.000000
# 2 0.000560 0.005887 0.002215 0.000000 -0.002437 0.000000
# 3 0.001842 0.002215 0.012643 0.000000 0.001626 0.000000
# 4 0.000000 0.000000 0.000000 0.014864 0.000000 -0.006012
# 5 0.003379 -0.002437 0.001626 0.000000 0.052058 0.000000
# 6 0.000000 0.000000 0.000000 -0.006012 0.000000 0.020788
#
#
# Mechanical properties :
#
#
# Convention : Reuss Voigt Hill
#
# Bulk Modulus (GPa) = 25.40037 29.11300 27.25669
# Shear Modulus (GPa) = 41.07265 57.84927 49.46096
#
# Velocity S-wave (km/s) = 4.05516 4.81261 4.45003
# Velocity P-wave (km/s) = 5.66528 6.52210 6.10873
#
# Compressibility (1/GPa) = 0.03936950
#
# Stress axis : x y z
#
# Youngs Moduli (GPa) = 86.16045 169.85964 79.09690
#
# Poissons Ratio (x) = -0.09518 -0.14566
# Poissons Ratio (y) = -0.04828 -0.17518
# Poissons Ratio (z) = -0.15867 -0.37620
#
# Static dielectric constant tensor:
#      x y z
#    x 1.850360 0.000000 0.048030 
#    y 0.000000 2.195880 0.000000 
#    z 0.048030 0.000000 1.941640 
# 
# From -- ./inp_files/82382.got.cif
#   From: 2010.05.17/outbox.cif.g08.bks.cpg/sg15_42_cif.got.tgz:82382.got - 2010.06.03 18:47:42.
