data_PCOD9263683
_publ_section_title
;
Structure prediction by ZEFSAII (Michael W. Deem and Ramdas Pophale) SiO2 
 PCOD9263683
Probable space group: C 2/C
;
_chemical_formula_sum "Si O2"
_cell_formula_units_Z 64
_cell_length_a 11.091453
_cell_length_b 11.475486
_cell_length_c 19.343298
_cell_angle_alpha 90.000000
_cell_angle_beta 93.062196
_cell_angle_gamma 90.000000
_cell_volume 2458.495943
_symmetry_space_group_name_H-M "C 2/C"
_symmetry_group_IT_number 15
_symmetry_cell_setting 'monoclinic'
loop_
_space_group_symop_operation_xyz
x,y,z
-x,y,1/2-z
-x,-y,-z
x,-y,1/2+z
1/2+x,1/2+y,z
1/2-x,1/2+y,1/2-z
1/2-x,1/2-y,-z
1/2+x,1/2-y,1/2+z
loop_
_atom_site_type_symbol
_atom_site_label
_atom_site_fract_x
_atom_site_fract_y
_atom_site_fract_z
Si Si1 0.113763 0.043520 0.663951
Si Si2 0.675969 0.412778 0.017060
Si Si3 0.628064 0.193118 0.615775
Si Si4 0.970114 0.725563 0.160915
Si Si5 0.253199 0.848623 0.737900
Si Si6 0.908400 0.169196 0.520691
Si Si7 0.902765 0.448572 0.940304
Si Si8 0.560569 0.331615 0.827974
O O1 0.193266 0.066089 0.598894
O O2 0.054614 0.164614 0.683995
O O3 0.199521 0.976677 0.719715
O O4 0.003497 0.950389 0.645228
O O5 0.639660 0.539797 0.987974
O O6 0.553481 0.337645 0.011608
O O7 0.795215 0.383523 0.978173
O O8 0.693729 0.256881 0.681454
O O9 0.645182 0.254886 0.542523
O O10 0.487811 0.223245 0.630561
O O11 0.647296 0.058630 0.603979
O O12 0.889786 0.665158 0.217721
O O13 0.036808 0.631153 0.115688
O O14 0.888773 0.784787 0.097217
O O15 0.201601 0.826930 0.813231
O O16 0.000000 0.500000 0.000000
O O17 0.500000 0.326229 0.750000
#
# Coordination Sequence:
#
# PCOD9263683 Si02
#       8
#     8   8   8   8   8   8   8   8
#     4   9  18  35  59  82 112 148 204 242 293 362
#     4  10  20  34  55  85 118 154 194 247 291 365
#     4  10  19  37  58  84 117 151 200 249 298 363
#     4  11  23  36  54  90 122 158 192 242 305 376
#     4  10  20  40  67  82 110 157 213 260 301 347
#     4  10  19  34  59  84 113 151 208 238 295 361
#     4  12  24  35  51  87 137 162 188 233 318 383
#     4   8  17  37  64  85 103 147 209 261 297 347
#
# _framework density 26.032177000000001
#
# number of rings (size 3 to 8) (size 9 to 14) (size 15 to 20)
#    0.000    2.250    3.750    1.500    0.000    3.000 
#    4.500    0.000    0.000    6.750    0.000    0.000 
#    0.000    0.000    0.000    0.000    0.000    0.000 
#
# Total GULP energy -178930.757831 kJ/mol
# GULP energy per Si atom -5591.586182 kJ/mol
# Density = 2.597293 g / cm^3
# Si number density = 26.032177 Si / 1000 Ang^3
#
#
#
# Elastic Constant Matrix: (Units=GPa)
#
#
# Indices 1 2 3 4 5 6 
#
# 1 129.1824 41.7706 40.5536 0.0000 -48.7934 0.0000
# 2 41.7706 99.8055 19.5118 0.0000 -19.3558 0.0000
# 3 40.5536 19.5118 97.5100 0.0000 -47.6613 0.0000
# 4 0.0000 0.0000 0.0000 28.1706 0.0000 -2.2120
# 5 -48.7934 -19.3558 -47.6613 0.0000 70.2617 0.0000
# 6 0.0000 0.0000 0.0000 -2.2120 0.0000 34.2831
#
#
#
# Elastic Compliance Matrix: (Units=1/GPa)
#
#
# Indices 1 2 3 4 5 6 
#
# 1 0.011584 -0.003407 -0.000991 0.000000 0.006433 0.000000
# 2 -0.003407 0.011657 -0.000752 0.000000 0.000336 0.000000
# 3 -0.000991 -0.000752 0.015529 0.000000 0.009639 0.000000
# 4 0.000000 0.000000 0.000000 0.035679 0.000000 0.002302
# 5 0.006433 0.000336 0.009639 0.000000 0.025331 0.000000
# 6 0.000000 0.000000 0.000000 0.002302 0.000000 0.029317
#
#
# Mechanical properties :
#
#
# Convention : Reuss Voigt Hill
#
# Bulk Modulus (GPa) = 35.12365 58.90777 47.01571
# Shear Modulus (GPa) = 33.58255 41.52054 37.55154
#
# Velocity S-wave (km/s) = 3.59561 3.99804 3.80215
# Velocity P-wave (km/s) = 5.54613 6.63252 6.11351
#
# Compressibility (1/GPa) = 0.02847085
#
# Stress axis : x y z
#
# Youngs Moduli (GPa) = 86.32870 85.78340 64.39454
#
# Poissons Ratio (x) = 0.29222 0.06384
# Poissons Ratio (y) = 0.29408 0.04841
# Poissons Ratio (z) = 0.08558 0.06449
#
# Static dielectric constant tensor:
#      x y z
#    x 2.328540 0.000000 0.017640 
#    y 0.000000 2.007010 0.000000 
#    z 0.017640 0.000000 2.038590 
# 
# From -- ./inp_files/268844.got.cif
#   From: 2010.05.17/outbox.cif.g08.bks.cpg/sg15_135_cif.got.tgz:268844.got - 2010.06.03 18:47:42.
