data_PCOD9263702
_publ_section_title
;
Structure prediction by ZEFSAII (Michael W. Deem and Ramdas Pophale) SiO2 
 PCOD9263702
Probable space group: C 2/C
;
_chemical_formula_sum "Si O2"
_cell_formula_units_Z 60
_cell_length_a 5.406940
_cell_length_b 30.124173
_cell_length_c 17.534544
_cell_angle_alpha 90.000000
_cell_angle_beta 70.731286
_cell_angle_gamma 90.000000
_cell_volume 2696.028906
_symmetry_space_group_name_H-M "C 2/C"
_symmetry_group_IT_number 15
_symmetry_cell_setting 'monoclinic'
loop_
_space_group_symop_operation_xyz
x,y,z
-x,y,1/2-z
-x,-y,-z
x,-y,1/2+z
1/2+x,1/2+y,z
1/2-x,1/2+y,1/2-z
1/2-x,1/2-y,-z
1/2+x,1/2-y,1/2+z
loop_
_atom_site_type_symbol
_atom_site_label
_atom_site_fract_x
_atom_site_fract_y
_atom_site_fract_z
Si Si1 0.000000 0.652490 0.750000
Si Si2 0.809090 0.662961 0.609661
Si Si3 0.516676 0.958770 0.660650
Si Si4 0.264473 0.181944 0.051467
Si Si5 0.592422 0.412759 0.606489
Si Si6 0.535661 0.583247 0.825411
Si Si7 0.511113 0.731049 0.934242
Si Si8 0.767568 0.967839 0.048846
O O1 0.958123 0.675908 0.672681
O O2 0.751845 0.620542 0.785981
O O3 0.716731 0.612286 0.627793
O O4 0.575258 0.698507 0.624160
O O5 0.966457 0.664726 0.514388
O O6 0.500000 0.974171 0.750000
O O7 0.263860 0.930563 0.660247
O O8 0.793263 0.930976 0.630378
O O9 0.533795 0.000071 0.599527
O O10 0.110084 0.140559 0.101401
O O11 0.317869 0.224899 0.098839
O O12 0.131892 0.201788 0.989319
O O13 0.749249 0.432022 0.516447
O O14 0.500000 0.557225 0.750000
O O15 0.634983 0.555353 0.884694
O O16 0.250000 0.750000 0.000000
O O17 0.000000 0.000000 0.000000
#
# Coordination Sequence:
#
# PCOD9263702 Si02
#       8
#     4   8   8   8   8   8   8   8
#     4  10  20  34  52  90 118 178 198 252 316 414
#     4  10  19  34  59  86 134 161 211 255 327 389
#     4  11  26  46  67  95 131 177 221 276 334 399
#     4  10  21  36  62  96 125 159 218 270 321 382
#     4  11  24  43  71  97 130 174 224 275 331 389
#     4  10  22  38  59  91 133 174 208 260 335 406
#     4   9  19  34  59  95 123 161 202 271 326 382
#     4  10  23  40  63  97 129 163 223 274 329 383
#
# _framework density 22.254953
#
# number of rings (size 3 to 8) (size 9 to 14) (size 15 to 20)
#    0.000    1.867    0.000    3.200    8.400    2.133 
#    4.800    0.000    0.000    7.200   13.867    0.000 
#    0.000    0.000    0.000    0.000    0.000    0.000 
#
# Total GULP energy -167457.997951 kJ/mol
# GULP energy per Si atom -5581.933265 kJ/mol
# Density = 2.220430 g / cm^3
# Si number density = 22.254953 Si / 1000 Ang^3
#
#
#
# Elastic Constant Matrix: (Units=GPa)
#
#
# Indices 1 2 3 4 5 6 
#
# 1 61.5581 1.4232 -5.0084 0.0000 8.3731 0.0000
# 2 1.4232 67.7432 -4.4008 0.0000 2.7780 0.0000
# 3 -5.0084 -4.4008 44.7642 0.0000 4.8436 0.0000
# 4 0.0000 0.0000 0.0000 20.2674 0.0000 10.3047
# 5 8.3731 2.7780 4.8436 0.0000 34.3238 0.0000
# 6 0.0000 0.0000 0.0000 10.3047 0.0000 29.1603
#
#
#
# Elastic Compliance Matrix: (Units=1/GPa)
#
#
# Indices 1 2 3 4 5 6 
#
# 1 0.017051 -0.000018 0.002392 0.000000 -0.004496 0.000000
# 2 -0.000018 0.014926 0.001620 0.000000 -0.001432 0.000000
# 3 0.002392 0.001620 0.023198 0.000000 -0.003988 0.000000
# 4 0.000000 0.000000 0.000000 0.060147 0.000000 -0.021255
# 5 -0.004496 -0.001432 -0.003988 0.000000 0.030910 0.000000
# 6 0.000000 0.000000 0.000000 -0.021255 0.000000 0.041804
#
#
# Mechanical properties :
#
#
# Convention : Reuss Voigt Hill
#
# Bulk Modulus (GPa) = 15.83188 17.56594 16.69891
# Shear Modulus (GPa) = 24.86301 28.88708 26.87505
#
# Velocity S-wave (km/s) = 3.34607 3.60669 3.47882
# Velocity P-wave (km/s) = 4.69654 5.02539 4.86374
#
# Compressibility (1/GPa) = 0.06316369
#
# Stress axis : x y z
#
# Youngs Moduli (GPa) = 58.64622 66.99717 43.10755
#
# Poissons Ratio (x) = 0.00124 -0.10313
# Poissons Ratio (y) = 0.00108 -0.06985
# Poissons Ratio (z) = -0.14031 -0.10855
#
# Static dielectric constant tensor:
#      x y z
#    x 1.959420 0.000000 -0.066720 
#    y 0.000000 1.839520 0.000000 
#    z -0.066720 0.000000 1.814900 
# 
# From -- ./inp_files/186713.got.cif
#   From: 2010.05.17/outbox.cif.g08.bks.cpg/sg15_94_cif.got.tgz:186713.got - 2010.06.03 18:47:42.
