data_PCOD9263575
_publ_section_title
;
Structure prediction by ZEFSAII (Michael W. Deem and Ramdas Pophale) SiO2 
 PCOD9263575
Probable space group: C 2/C
;
_chemical_formula_sum "Si O2"
_cell_formula_units_Z 64
_cell_length_a 6.755078
_cell_length_b 12.649715
_cell_length_c 27.920514
_cell_angle_alpha 90.000000
_cell_angle_beta 89.895004
_cell_angle_gamma 90.000000
_cell_volume 2385.798652
_symmetry_space_group_name_H-M "C 2/C"
_symmetry_group_IT_number 15
_symmetry_cell_setting 'monoclinic'
loop_
_space_group_symop_operation_xyz
x,y,z
-x,y,1/2-z
-x,-y,-z
x,-y,1/2+z
1/2+x,1/2+y,z
1/2-x,1/2+y,1/2-z
1/2-x,1/2-y,-z
1/2+x,1/2-y,1/2+z
loop_
_atom_site_type_symbol
_atom_site_label
_atom_site_fract_x
_atom_site_fract_y
_atom_site_fract_z
Si Si1 0.982395 0.141798 0.945765
Si Si2 0.922292 0.034717 0.698829
Si Si3 0.195760 0.142367 0.165080
Si Si4 0.707805 0.430523 0.523441
Si Si5 0.277383 0.820757 0.768433
Si Si6 0.585531 0.031181 0.070041
Si Si7 0.852357 0.702482 0.368412
Si Si8 0.847314 0.344683 0.376380
O O1 0.849584 0.215734 0.912440
O O2 0.186675 0.155774 0.918188
O O3 0.899443 0.022671 0.947000
O O4 0.053371 0.153582 0.001504
O O5 0.780904 0.937548 0.713649
O O6 0.000000 0.079235 0.750000
O O7 0.102917 0.974676 0.670681
O O8 0.787064 0.113599 0.668177
O O9 0.162761 0.191556 0.218556
O O10 0.424657 0.160210 0.149072
O O11 0.082785 0.225631 0.131270
O O12 0.804999 0.493523 0.477961
O O13 0.901252 0.397073 0.552456
O O14 0.500000 0.821371 0.750000
O O15 0.270340 0.754592 0.817733
O O16 0.724120 0.096139 0.105956
O O17 0.509475 0.933949 0.102796
#
# Coordination Sequence:
#
# PCOD9263575 Si02
#       8
#     8   8   8   8   8   8   8   8
#     4   9  20  36  56  81 109 147 191 233 290 356
#     4  10  20  36  59  84 119 155 192 240 291 347
#     4   9  21  36  57  82 120 152 185 240 289 342
#     4   9  20  38  53  76 116 146 182 247 295 341
#     4   9  18  36  56  79 120 150 176 241 285 330
#     4  10  20  35  57  78 113 148 185 245 289 347
#     4  10  19  34  58  83 107 148 192 230 289 348
#     4  10  20  37  57  86 112 151 197 231 286 361
#
# _framework density 26.825396999999999
#
# number of rings (size 3 to 8) (size 9 to 14) (size 15 to 20)
#    0.000    2.500    1.250    0.000    1.750    4.500 
#    0.000    1.875    0.000    0.000    0.000    0.000 
#    0.000    0.000    0.000    0.000    0.000    0.000 
#
# Total GULP energy -178333.586858 kJ/mol
# GULP energy per Si atom -5572.924589 kJ/mol
# Density = 2.676434 g / cm^3
# Si number density = 26.825397 Si / 1000 Ang^3
#
#
#
# Elastic Constant Matrix: (Units=GPa)
#
#
# Indices 1 2 3 4 5 6 
#
# 1 64.8476 9.7634 18.2929 0.0000 2.9705 0.0000
# 2 9.7634 75.5143 36.9053 0.0000 -6.5167 0.0000
# 3 18.2929 36.9053 162.6230 0.0000 8.4313 0.0000
# 4 0.0000 0.0000 0.0000 41.2409 0.0000 5.6897
# 5 2.9705 -6.5167 8.4313 0.0000 41.3278 0.0000
# 6 0.0000 0.0000 0.0000 5.6897 0.0000 31.4455
#
#
#
# Elastic Compliance Matrix: (Units=1/GPa)
#
#
# Indices 1 2 3 4 5 6 
#
# 1 0.016094 -0.001484 -0.001417 0.000000 -0.001102 0.000000
# 2 -0.001484 0.015427 -0.003503 0.000000 0.003254 0.000000
# 3 -0.001417 -0.003503 0.007203 0.000000 -0.001920 0.000000
# 4 0.000000 0.000000 0.000000 0.024869 0.000000 -0.004500
# 5 -0.001102 0.003254 -0.001920 0.000000 0.025181 0.000000
# 6 0.000000 0.000000 0.000000 -0.004500 0.000000 0.032615
#
#
# Mechanical properties :
#
#
# Convention : Reuss Voigt Hill
#
# Bulk Modulus (GPa) = 38.58280 48.10089 43.34185
# Shear Modulus (GPa) = 35.00563 38.67105 36.83834
#
# Velocity S-wave (km/s) = 3.61632 3.80094 3.70978
# Velocity P-wave (km/s) = 5.64369 6.10187 5.87725
#
# Compressibility (1/GPa) = 0.02591828
#
# Stress axis : x y z
#
# Youngs Moduli (GPa) = 62.13409 64.82134 138.83109
#
# Poissons Ratio (x) = 0.09617 0.19666
# Poissons Ratio (y) = 0.09218 0.48630
# Poissons Ratio (z) = 0.08802 0.22706
#
# Static dielectric constant tensor:
#      x y z
#    x 2.251690 0.000000 0.134210 
#    y 0.000000 2.151500 0.000000 
#    z 0.134210 0.000000 2.222240 
# 
# From -- ./inp_files/288801.got.cif
#   From: 2010.05.17/outbox.cif.g08.bks.cpg/sg15_145_cif.got.tgz:288801.got - 2010.06.03 18:47:42.
