data_PCOD9263160
_publ_section_title
;
Structure prediction by ZEFSAII (Michael W. Deem and Ramdas Pophale) SiO2 
 PCOD9263160
Probable space group: C 2/C
;
_chemical_formula_sum "Si O2"
_cell_formula_units_Z 40
_cell_length_a 6.742223
_cell_length_b 19.000462
_cell_length_c 15.139597
_cell_angle_alpha 90.000000
_cell_angle_beta 121.851688
_cell_angle_gamma 90.000000
_cell_volume 1647.413120
_symmetry_space_group_name_H-M "C 2/C"
_symmetry_group_IT_number 15
_symmetry_cell_setting 'monoclinic'
loop_
_space_group_symop_operation_xyz
x,y,z
-x,y,1/2-z
-x,-y,-z
x,-y,1/2+z
1/2+x,1/2+y,z
1/2-x,1/2+y,1/2-z
1/2-x,1/2-y,-z
1/2+x,1/2-y,1/2+z
loop_
_atom_site_type_symbol
_atom_site_label
_atom_site_fract_x
_atom_site_fract_y
_atom_site_fract_z
Si Si1 0.255279 0.469779 0.912777
Si Si2 0.391710 0.804337 0.093247
Si Si3 0.251780 0.479481 0.705392
Si Si4 0.846622 0.214848 0.796678
Si Si5 0.481435 0.144663 0.431107
O O1 0.008028 0.510763 0.873907
O O2 0.255166 0.460119 0.808539
O O3 0.207272 0.395608 0.948213
O O4 0.500000 0.500000 0.000000
O O5 0.236087 0.833093 0.138825
O O6 0.250000 0.750000 0.000000
O O7 0.492700 0.851246 0.038695
O O8 0.500000 0.516936 0.750000
O O9 0.106231 0.734212 0.690930
O O10 0.232922 0.407262 0.644926
O O11 0.956368 0.282428 0.871889
O O12 0.000000 0.188812 0.750000
#
# Coordination Sequence:
#
# PCOD9263160 Si02
#       5
#     8   8   8   8   8
#     4   9  19  36  58  91 125 165 223 287 343 402
#     4   9  20  32  52  85 125 172 223 264 315 381
#     4   9  19  34  59  90 123 165 215 282 334 396
#     4  10  19  34  52  83 129 175 217 265 311 385
#     4   9  19  36  55  90 129 171 229 270 326 402
#
# _framework density 24.28049
#
# number of rings (size 3 to 8) (size 9 to 14) (size 15 to 20)
#    1.200    1.600    0.000    1.200    5.600    4.000 
#    3.600    0.000    0.000    1.200    0.000    0.000 
#    0.000    0.000    0.000    0.800    0.000    1.000 
#
# Total GULP energy -111339.905367 kJ/mol
# GULP energy per Si atom -5566.995268 kJ/mol
# Density = 2.422523 g / cm^3
# Si number density = 24.280490 Si / 1000 Ang^3
#
#
#
# Elastic Constant Matrix: (Units=GPa)
#
#
# Indices 1 2 3 4 5 6 
#
# 1 177.4751 24.7140 73.9635 0.0000 -3.3872 0.0000
# 2 24.7140 51.1239 34.3880 0.0000 -11.2313 0.0000
# 3 73.9635 34.3880 149.4946 0.0000 -24.3891 0.0000
# 4 0.0000 0.0000 0.0000 -0.0028 0.0000 22.9115
# 5 -3.3872 -11.2313 -24.3891 0.0000 62.4525 0.0000
# 6 0.0000 0.0000 0.0000 22.9115 0.0000 17.8742
#
#
#
# Elastic Compliance Matrix: (Units=1/GPa)
#
#
# Indices 1 2 3 4 5 6 
#
# 1 0.007252 -0.001450 -0.003453 0.000000 -0.001216 0.000000
# 2 -0.001450 0.023724 -0.004332 0.000000 0.002496 0.000000
# 3 -0.003453 -0.004332 0.009865 0.000000 0.002886 0.000000
# 4 0.000000 0.000000 0.000000 -0.034047 0.000000 0.043642
# 5 -0.001216 0.002496 0.002886 0.000000 0.017522 0.000000
# 6 0.000000 0.000000 0.000000 0.043642 0.000000 0.000005
#
#
# Mechanical properties :
#
#
# Convention : Reuss Voigt Hill
#
# Bulk Modulus (GPa) = 44.70303 71.58050 58.14176
# Shear Modulus (GPa) = 99.50271 32.39997 65.95134
#
# Velocity S-wave (km/s) = 6.40855 3.65691 5.21740
# Velocity P-wave (km/s) = 8.55631 6.88297 7.76485
#
# Compressibility (1/GPa) = 0.02236985
#
# Stress axis : x y z
#
# Youngs Moduli (GPa) = 137.88589 42.15147 101.36896
#
# Poissons Ratio (x) = 0.06114 0.35001
# Poissons Ratio (y) = 0.20000 0.43917
# Poissons Ratio (z) = 0.47610 0.18262
#
# Static dielectric constant tensor:
#      x y z
#    x 1.981510 0.000000 -0.029080 
#    y 0.000000 2.028110 0.000000 
#    z -0.029080 0.000000 1.858700 
# 
# From -- ./inp_files/133286.got.cif
#   From: 2010.05.17/outbox.cif.g08.bks.cpg/sg15_67_cif.got.tgz:133286.got - 2010.06.03 18:47:42.
