data_PCOD9263528
_publ_section_title
;
Structure prediction by ZEFSAII (Michael W. Deem and Ramdas Pophale) SiO2 
 PCOD9263528
Probable space group: C 2/C
;
_chemical_formula_sum "Si O2"
_cell_formula_units_Z 52
_cell_length_a 17.398474
_cell_length_b 9.770726
_cell_length_c 18.533822
_cell_angle_alpha 90.000000
_cell_angle_beta 66.653750
_cell_angle_gamma 90.000000
_cell_volume 2892.714960
_symmetry_space_group_name_H-M "C 2/C"
_symmetry_group_IT_number 15
_symmetry_cell_setting 'monoclinic'
loop_
_space_group_symop_operation_xyz
x,y,z
-x,y,1/2-z
-x,-y,-z
x,-y,1/2+z
1/2+x,1/2+y,z
1/2-x,1/2+y,1/2-z
1/2-x,1/2-y,-z
1/2+x,1/2-y,1/2+z
loop_
_atom_site_type_symbol
_atom_site_label
_atom_site_fract_x
_atom_site_fract_y
_atom_site_fract_z
Si Si1 0.253240 0.592833 0.517834
Si Si2 0.568210 0.340091 0.949727
Si Si3 0.000000 0.871469 0.250000
Si Si4 0.208704 0.653823 0.952647
Si Si5 0.319996 0.725793 0.774798
Si Si6 0.226336 0.993981 0.329776
Si Si7 0.443818 0.523327 0.413114
O O1 0.250000 0.750000 0.500000
O O2 0.196015 0.494619 0.491162
O O3 0.238657 0.564288 0.607667
O O4 0.345993 0.543616 0.460913
O O5 0.621379 0.210890 0.955012
O O6 0.638381 0.436149 0.885644
O O7 0.493143 0.341151 0.920573
O O8 0.533658 0.407063 0.036200
O O9 0.919574 0.785767 0.252040
O O10 0.968652 0.968278 0.326462
O O11 0.273555 0.664779 0.862706
O O12 0.250000 0.750000 0.000000
O O13 0.292271 0.627060 0.719444
O O14 0.285123 0.881273 0.780049
#
# Coordination Sequence:
#
# PCOD9263528 Si02
#       7
#     8   8   4   8   8   8   8
#     4  11  23  39  61  89 116 158 208 251 296 356
#     4   9  18  35  58  82 112 146 201 238 289 337
#     4  12  20  32  62  94 112 158 204 244 292 368
#     4  11  18  38  61  84 110 158 200 247 290 358
#     4  11  22  36  60  89 120 156 198 244 303 355
#     4  10  22  38  59  86 120 155 194 247 295 364
#     4  10  19  34  57  88 112 151 197 248 283 363
#
# _framework density 17.976194
#
# number of rings (size 3 to 8) (size 9 to 14) (size 15 to 20)
#    0.000    1.538    7.692    0.000    2.154    0.000 
#    0.000    0.769    6.769    0.000    0.000    1.077 
#    0.000    0.000    0.000    0.000    0.000    0.000 
#
# Total GULP energy -144880.571025 kJ/mol
# GULP energy per Si atom -5572.329655 kJ/mol
# Density = 1.793528 g / cm^3
# Si number density = 17.976194 Si / 1000 Ang^3
#
#
#
# Elastic Constant Matrix: (Units=GPa)
#
#
# Indices 1 2 3 4 5 6 
#
# 1 85.2524 40.6898 31.0383 0.0000 0.6410 0.0000
# 2 40.6898 120.6050 44.0372 0.0000 12.2662 0.0000
# 3 31.0383 44.0372 104.0050 0.0000 3.7570 0.0000
# 4 0.0000 0.0000 0.0000 23.4812 0.0000 9.2122
# 5 0.6410 12.2662 3.7570 0.0000 11.7528 0.0000
# 6 0.0000 0.0000 0.0000 9.2122 0.0000 30.2667
#
#
#
# Elastic Compliance Matrix: (Units=1/GPa)
#
#
# Indices 1 2 3 4 5 6 
#
# 1 0.014822 -0.004502 -0.002689 0.000000 0.004750 0.000000
# 2 -0.004502 0.012219 -0.003418 0.000000 -0.011415 0.000000
# 3 -0.002689 -0.003418 0.011867 0.000000 -0.000080 0.000000
# 4 0.000000 0.000000 0.000000 0.048362 0.000000 -0.014720
# 5 0.004750 -0.011415 -0.000080 0.000000 0.096766 0.000000
# 6 0.000000 0.000000 0.000000 -0.014720 0.000000 0.037520
#
#
# Mechanical properties :
#
#
# Convention : Reuss Voigt Hill
#
# Bulk Modulus (GPa) = 56.52467 60.15476 58.33971
# Shear Modulus (GPa) = 20.10689 26.03996 23.07342
#
# Velocity S-wave (km/s) = 3.34807 3.81015 3.58656
# Velocity P-wave (km/s) = 6.81605 7.27273 7.04809
#
# Compressibility (1/GPa) = 0.01769139
#
# Stress axis : x y z
#
# Youngs Moduli (GPa) = 67.46851 81.83717 84.26435
#
# Poissons Ratio (x) = 0.36842 0.22656
# Poissons Ratio (y) = 0.30374 0.28802
# Poissons Ratio (z) = 0.18140 0.27972
#
# Static dielectric constant tensor:
#      x y z
#    x 1.668920 0.000000 0.016110 
#    y 0.000000 1.650330 0.000000 
#    z 0.016110 0.000000 1.608710 
# 
# From -- ./inp_files/209040.got.cif
#   From: 2010.05.17/outbox.cif.g08.bks.cpg/sg15_105_cif.got.tgz:209040.got - 2010.06.03 18:47:42.
