data_PCOD9263177
_publ_section_title
;
Structure prediction by ZEFSAII (Michael W. Deem and Ramdas Pophale) SiO2 
 PCOD9263177
Probable space group: C 2/C
;
_chemical_formula_sum "Si O2"
_cell_formula_units_Z 40
_cell_length_a 17.059968
_cell_length_b 13.910920
_cell_length_c 15.645481
_cell_angle_alpha 90.000000
_cell_angle_beta 153.576732
_cell_angle_gamma 90.000000
_cell_volume 1652.273419
_symmetry_space_group_name_H-M "C 2/C"
_symmetry_group_IT_number 15
_symmetry_cell_setting 'monoclinic'
loop_
_space_group_symop_operation_xyz
x,y,z
-x,y,1/2-z
-x,-y,-z
x,-y,1/2+z
1/2+x,1/2+y,z
1/2-x,1/2+y,1/2-z
1/2-x,1/2-y,-z
1/2+x,1/2-y,1/2+z
loop_
_atom_site_type_symbol
_atom_site_label
_atom_site_fract_x
_atom_site_fract_y
_atom_site_fract_z
Si Si1 0.000000 0.921119 0.750000
Si Si2 0.500000 0.246186 0.250000
Si Si3 0.037904 0.086692 0.650704
Si Si4 0.105754 0.601758 0.598195
Si Si5 0.653217 0.900398 0.793839
Si Si6 0.858457 0.624779 0.678641
O O1 0.936237 0.993365 0.763330
O O2 0.836560 0.864065 0.550278
O O3 0.469849 0.319984 0.297674
O O4 0.346016 0.167044 0.121795
O O5 0.193425 0.090372 0.735097
O O6 0.836176 0.087858 0.421559
O O7 0.107571 0.656058 0.690456
O O8 0.000000 0.500000 0.500000
O O9 0.996104 0.644877 0.412474
O O10 0.616908 0.008600 0.788842
O O11 0.000000 0.661303 0.750000
#
# Coordination Sequence:
#
# PCOD9263177 Si02
#       6
#     4   4   8   8   8   8
#     4   9  18  30  50  74 106 142 185 226 276 337
#     4  11  22  36  60  88 126 160 187 224 290 369
#     4  10  22  33  51  85 115 155 189 225 285 352
#     4  10  22  35  52  76 116 153 196 237 284 338
#     4  10  21  34  54  82 118 156 184 231 283 353
#     4  10  19  34  53  76 106 148 193 234 283 335
#
# _framework density 24.209067999999998
#
# number of rings (size 3 to 8) (size 9 to 14) (size 15 to 20)
#    0.000    2.000    1.000    3.000    8.400    8.800 
#    0.000    0.000    0.000    0.000    0.000    1.400 
#    0.000    0.000    0.000    0.000    0.000    0.000 
#
# Total GULP energy -111587.997681 kJ/mol
# GULP energy per Si atom -5579.399884 kJ/mol
# Density = 2.415397 g / cm^3
# Si number density = 24.209068 Si / 1000 Ang^3
#
#
#
# Elastic Constant Matrix: (Units=GPa)
#
#
# Indices 1 2 3 4 5 6 
#
# 1 166.0185 8.8888 75.5320 0.0017 25.8878 0.0022
# 2 8.8888 69.7820 8.0293 0.0031 -2.2387 0.0044
# 3 75.5320 8.0293 158.9003 0.0034 0.9280 0.0039
# 4 0.0017 0.0031 0.0034 64.4611 0.0006 69.5674
# 5 25.8878 -2.2387 0.9280 0.0006 45.5286 0.0005
# 6 0.0022 0.0044 0.0039 69.5674 0.0005 126.2506
#
#
#
# Elastic Compliance Matrix: (Units=1/GPa)
#
#
# Indices 1 2 3 4 5 6 
#
# 1 0.008672 -0.000795 -0.004054 0.000000 -0.004888 0.000000
# 2 -0.000795 0.014511 -0.000362 0.000000 0.001173 0.000000
# 3 -0.004054 -0.000362 0.008226 0.000000 0.002119 0.000000
# 4 0.000000 0.000000 0.000000 0.038274 0.000000 -0.021090
# 5 -0.004888 0.001173 0.002119 0.000000 0.024758 0.000000
# 6 0.000000 0.000000 0.000000 -0.021090 0.000000 0.019542
#
#
# Mechanical properties :
#
#
# Convention : Reuss Voigt Hill
#
# Bulk Modulus (GPa) = 47.64711 64.40010 56.02361
# Shear Modulus (GPa) = 38.05167 67.39810 52.72488
#
# Velocity S-wave (km/s) = 3.96889 5.28209 4.67186
# Velocity P-wave (km/s) = 6.38177 7.99125 7.23142
#
# Compressibility (1/GPa) = 0.02098763
#
# Stress axis : x y z
#
# Youngs Moduli (GPa) = 115.30849 68.91357 121.56520
#
# Poissons Ratio (x) = 0.05479 0.49278
# Poissons Ratio (y) = 0.09168 0.04403
# Poissons Ratio (z) = 0.46742 0.02496
#
# Static dielectric constant tensor:
#      x y z
#    x 2.026300 0.000000 -0.143950 
#    y 0.000000 1.947220 0.000000 
#    z -0.143950 0.000000 2.221030 
# 
# From -- ./inp_files/156064.got.cif
#   From: 2010.05.17/outbox.cif.g08.bks.cpg/sg15_79_cif.got.tgz:156064.got - 2010.06.03 18:47:42.
