data_PCOD9263111
_publ_section_title
;
Structure prediction by ZEFSAII (Michael W. Deem and Ramdas Pophale) SiO2 
 PCOD9263111
Probable space group: C 2/C
;
_chemical_formula_sum "Si O2"
_cell_formula_units_Z 56
_cell_length_a 14.968139
_cell_length_b 25.665499
_cell_length_c 7.363069
_cell_angle_alpha 90.000000
_cell_angle_beta 66.372961
_cell_angle_gamma 90.000000
_cell_volume 2591.517874
_symmetry_space_group_name_H-M "C 2/C"
_symmetry_group_IT_number 15
_symmetry_cell_setting 'monoclinic'
loop_
_space_group_symop_operation_xyz
x,y,z
-x,y,1/2-z
-x,-y,-z
x,-y,1/2+z
1/2+x,1/2+y,z
1/2-x,1/2+y,1/2-z
1/2-x,1/2-y,-z
1/2+x,1/2-y,1/2+z
loop_
_atom_site_type_symbol
_atom_site_label
_atom_site_fract_x
_atom_site_fract_y
_atom_site_fract_z
Si Si1 0.000656 0.670244 0.964889
Si Si2 0.283157 0.616696 0.457374
Si Si3 0.770449 0.210578 0.215065
Si Si4 0.890673 0.570803 0.120083
Si Si5 0.270973 0.172139 0.647161
Si Si6 0.497202 0.284562 0.463372
Si Si7 0.500000 0.998364 0.250000
Si Si8 0.500000 0.369435 0.750000
O O1 0.112530 0.668081 0.932845
O O2 0.000000 0.661463 0.750000
O O3 0.934969 0.627651 0.115046
O O4 0.959319 0.727601 0.039040
O O5 0.252594 0.673532 0.400045
O O6 0.208138 0.577938 0.415262
O O7 0.268573 0.626819 0.685802
O O8 0.394918 0.603299 0.307269
O O9 0.732141 0.269966 0.239137
O O10 0.751772 0.176019 0.049015
O O11 0.885922 0.220680 0.117476
O O12 0.969018 0.541373 0.931017
O O13 0.905547 0.535053 0.285535
O O14 0.500000 0.297126 0.250000
O O15 0.531041 0.331690 0.559055
#
# Coordination Sequence:
#
# PCOD9263111 Si02
#       8
#     8   8   8   8   8   8   4   4
#     4  11  20  34  53  85 114 151 200 225 277 354
#     4  11  21  36  59  81 111 154 189 237 280 335
#     4   9  21  32  48  82 111 158 207 226 270 327
#     4  11  23  40  62  87 113 147 182 240 309 361
#     4  10  19  34  50  77 123 154 190 243 267 317
#     4  10  20  34  52  78 122 165 196 234 270 308
#     4  10  24  43  62  88 114 136 180 237 318 388
#     4  10  22  37  56  84 120 158 204 231 260 322
#
# _framework density 21.608957
#
# number of rings (size 3 to 8) (size 9 to 14) (size 15 to 20)
#    0.000    1.714    2.857    1.286    3.000    3.429 
#    0.000    0.000    0.000    0.857    0.000    0.000 
#    0.000    0.000    0.000    0.000    0.000    0.000 
#
# Total GULP energy -156156.015993 kJ/mol
# GULP energy per Si atom -5577.000571 kJ/mol
# Density = 2.155977 g / cm^3
# Si number density = 21.608957 Si / 1000 Ang^3
#
#
#
# Elastic Constant Matrix: (Units=GPa)
#
#
# Indices 1 2 3 4 5 6 
#
# 1 103.4440 28.5324 -4.3264 0.0000 -12.5423 0.0000
# 2 28.5324 42.7035 12.2379 0.0000 -4.4056 0.0000
# 3 -4.3264 12.2379 48.0328 0.0000 13.7247 0.0000
# 4 0.0000 0.0000 0.0000 2.3348 0.0000 8.4166
# 5 -12.5423 -4.4056 13.7247 0.0000 40.1597 0.0000
# 6 0.0000 0.0000 0.0000 8.4166 0.0000 24.2967
#
#
#
# Elastic Compliance Matrix: (Units=1/GPa)
#
#
# Indices 1 2 3 4 5 6 
#
# 1 0.012495 -0.008966 0.002855 0.000000 0.001943 0.000000
# 2 -0.008966 0.032846 -0.010423 0.000000 0.004365 0.000000
# 3 0.002855 -0.010423 0.026380 0.000000 -0.009267 0.000000
# 4 0.000000 0.000000 0.000000 -1.721610 0.000000 0.596384
# 5 0.001943 0.004365 -0.009267 0.000000 0.029154 0.000000
# 6 0.000000 0.000000 0.000000 0.596384 0.000000 -0.165436
#
#
# Mechanical properties :
#
#
# Convention : Reuss Voigt Hill
#
# Bulk Modulus (GPa) = 25.87271 29.67422 27.77346
# Shear Modulus (GPa) = -2.87320 23.87398 10.50039
#
# Velocity S-wave (km/s) = -1.15435 3.32749 2.20677
# Velocity P-wave (km/s) = 3.19725 5.34089 4.40156
#
# Compressibility (1/GPa) = 0.03865076
#
# Stress axis : x y z
#
# Youngs Moduli (GPa) = 80.03082 30.44549 37.90754
#
# Poissons Ratio (x) = 0.27298 -0.10821
# Poissons Ratio (y) = 0.71758 0.39513
# Poissons Ratio (z) = -0.22846 0.31735
#
# Static dielectric constant tensor:
#      x y z
#    x 1.931980 0.000000 0.060820 
#    y 0.000000 1.785540 0.000000 
#    z 0.060820 0.000000 1.872800 
# 
# From -- ./inp_files/42155.got.cif
#   From: 2010.05.17/outbox.cif.g08.bks.cpg/sg15_22_cif.got.tgz:42155.got - 2010.06.03 18:47:42.
