data_PCOD9263672
_publ_section_title
;
Structure prediction by ZEFSAII (Michael W. Deem and Ramdas Pophale) SiO2 
 PCOD9263672
Probable space group: C 2/C
;
_chemical_formula_sum "Si O2"
_cell_formula_units_Z 56
_cell_length_a 19.321817
_cell_length_b 19.323164
_cell_length_c 18.315285
_cell_angle_alpha 90.000000
_cell_angle_beta 151.887311
_cell_angle_gamma 90.000000
_cell_volume 3222.195083
_symmetry_space_group_name_H-M "C 2/C"
_symmetry_group_IT_number 15
_symmetry_cell_setting 'monoclinic'
loop_
_space_group_symop_operation_xyz
x,y,z
-x,y,1/2-z
-x,-y,-z
x,-y,1/2+z
1/2+x,1/2+y,z
1/2-x,1/2+y,1/2-z
1/2-x,1/2-y,-z
1/2+x,1/2-y,1/2+z
loop_
_atom_site_type_symbol
_atom_site_label
_atom_site_fract_x
_atom_site_fract_y
_atom_site_fract_z
Si Si1 0.143225 0.775691 0.838538
Si Si2 0.593684 0.667299 0.573088
Si Si3 0.292633 0.573848 0.112157
Si Si4 0.897439 0.558061 0.439750
Si Si5 0.418397 0.803184 0.363521
Si Si6 0.385288 0.444495 0.927103
Si Si7 0.120625 0.055616 0.467237
O O1 0.208645 0.845251 0.864798
O O2 0.109397 0.717737 0.747271
O O3 0.000000 0.798429 0.750000
O O4 0.250000 0.750000 0.000000
O O5 0.509202 0.737394 0.475768
O O6 0.758051 0.686277 0.750066
O O7 0.487554 0.623128 0.527151
O O8 0.617740 0.618771 0.522934
O O9 0.166596 0.537071 0.040591
O O10 0.451717 0.546544 0.284834
O O11 0.286535 0.571141 0.019021
O O12 0.752839 0.568324 0.254463
O O13 0.000000 0.500000 0.500000
O O14 0.991218 0.627349 0.538793
O O15 0.500000 0.500000 0.000000
O O16 0.331097 0.485018 0.948235
#
# Coordination Sequence:
#
# PCOD9263672 Si02
#       7
#     8   8   8   8   8   8   8
#     4  12  21  33  51  79 116 155 186 224 274 337
#     4  11  20  36  54  80 113 149 193 232 282 334
#     4  11  19  35  55  82 113 149 195 227 276 347
#     4  12  24  37  54  81 116 152 195 242 286 342
#     4  12  23  34  53  80 113 155 193 235 279 337
#     4  10  19  37  56  76 111 149 193 240 284 332
#     4  10  19  34  59  80 111 153 191 231 282 335
#
# _framework density 17.379456999999999
#
# number of rings (size 3 to 8) (size 9 to 14) (size 15 to 20)
#    0.000    0.857    5.714    6.000    0.000    0.000 
#    0.000    3.571    0.000    0.000    0.000    1.000 
#    0.000    0.000    0.000    0.000    0.000    0.000 
#
# Total GULP energy -156241.531917 kJ/mol
# GULP energy per Si atom -5580.054711 kJ/mol
# Density = 1.733990 g / cm^3
# Si number density = 17.379457 Si / 1000 Ang^3
#
#
#
# Elastic Constant Matrix: (Units=GPa)
#
#
# Indices 1 2 3 4 5 6 
#
# 1 80.4311 55.0175 26.8907 0.0001 11.5446 0.0001
# 2 55.0175 103.3829 42.8223 0.0002 0.0072 0.0001
# 3 26.8907 42.8223 93.5452 -0.0008 10.6368 -0.0005
# 4 0.0001 0.0002 -0.0008 33.7650 -0.0001 -2.5642
# 5 11.5446 0.0072 10.6368 -0.0001 29.4229 0.0000
# 6 0.0001 0.0001 -0.0005 -2.5642 0.0000 29.3776
#
#
#
# Elastic Compliance Matrix: (Units=1/GPa)
#
#
# Indices 1 2 3 4 5 6 
#
# 1 0.021447 -0.011422 0.000021 0.000000 -0.008420 0.000000
# 2 -0.011422 0.018139 -0.005766 0.000000 0.006562 0.000000
# 3 0.000021 -0.005766 0.013896 0.000000 -0.005030 0.000000
# 4 0.000000 0.000000 0.000000 0.029814 0.000000 0.002602
# 5 -0.008420 0.006562 -0.005030 0.000000 0.039108 0.000000
# 6 0.000000 0.000000 0.000000 0.002602 0.000000 0.034267
#
#
# Mechanical properties :
#
#
# Convention : Reuss Voigt Hill
#
# Bulk Modulus (GPa) = 52.22640 58.53558 55.38099
# Shear Modulus (GPa) = 25.33078 28.68834 27.00956
#
# Velocity S-wave (km/s) = 3.82188 4.06729 3.94650
# Velocity P-wave (km/s) = 7.04213 7.47069 7.25957
#
# Compressibility (1/GPa) = 0.01914740
#
# Stress axis : x y z
#
# Youngs Moduli (GPa) = 46.62555 55.12946 71.96442
#
# Poissons Ratio (x) = 0.62967 -0.00148
# Poissons Ratio (y) = 0.53254 0.41497
# Poissons Ratio (z) = -0.00096 0.31790
#
# Static dielectric constant tensor:
#      x y z
#    x 1.626550 0.000000 0.001610 
#    y 0.000000 1.614090 0.000000 
#    z 0.001610 0.000000 1.641440 
# 
# From -- ./inp_files/211894.got.cif
#   From: 2010.05.17/outbox.cif.g08.bks.cpg/sg15_106_cif.got.tgz:211894.got - 2010.06.03 18:47:42.
