data_PCOD9263380
_publ_section_title
;
Structure prediction by ZEFSAII (Michael W. Deem and Ramdas Pophale) SiO2 
 PCOD9263380
Probable space group: C 2/C
;
_chemical_formula_sum "Si O2"
_cell_formula_units_Z 60
_cell_length_a 23.717235
_cell_length_b 7.546732
_cell_length_c 20.992173
_cell_angle_alpha 90.000000
_cell_angle_beta 144.804744
_cell_angle_gamma 90.000000
_cell_volume 2165.597404
_symmetry_space_group_name_H-M "C 2/C"
_symmetry_group_IT_number 15
_symmetry_cell_setting 'monoclinic'
loop_
_space_group_symop_operation_xyz
x,y,z
-x,y,1/2-z
-x,-y,-z
x,-y,1/2+z
1/2+x,1/2+y,z
1/2-x,1/2+y,1/2-z
1/2-x,1/2-y,-z
1/2+x,1/2-y,1/2+z
loop_
_atom_site_type_symbol
_atom_site_label
_atom_site_fract_x
_atom_site_fract_y
_atom_site_fract_z
Si Si1 0.924144 0.052793 0.082619
Si Si2 0.455019 0.334413 0.998471
Si Si3 0.308047 0.565227 0.223193
Si Si4 0.277229 0.182500 0.232986
Si Si5 0.000156 0.323640 0.077562
Si Si6 0.908453 0.573217 0.244557
Si Si7 0.500000 0.197346 0.750000
Si Si8 0.683387 0.394903 0.403034
O O1 0.908124 0.202612 0.014799
O O2 0.001054 0.163444 0.194368
O O3 0.846453 0.011937 0.064277
O O4 0.963572 0.886178 0.080253
O O5 0.338045 0.306952 0.887394
O O6 0.499914 0.175258 0.999124
O O7 0.500000 0.500000 0.000000
O O8 0.331078 0.369565 0.273817
O O9 0.222820 0.618737 0.194394
O O10 0.396871 0.706964 0.314666
O O11 0.283246 0.513815 0.126872
O O12 0.320264 0.067412 0.214471
O O13 0.006342 0.494269 0.129817
O O14 0.900642 0.765117 0.204144
O O15 0.913212 0.436645 0.189460
O O16 0.750000 0.250000 0.500000
#
# Coordination Sequence:
#
# PCOD9263380 Si02
#       8
#     8   8   8   8   8   8   4   8
#     4  10  19  36  59  83 118 158 196 243 306 367
#     4   9  18  34  59  85 112 149 195 245 297 355
#     4  10  20  34  55  83 113 149 198 247 301 362
#     4  10  19  34  56  82 109 148 198 253 302 354
#     4   9  19  37  60  86 111 152 202 249 302 356
#     4  10  21  37  58  84 117 153 202 253 296 359
#     4  10  22  38  58  88 118 158 204 248 306 370
#     4  11  23  37  55  86 122 161 199 243 304 365
#
# _framework density 27.705978999999999
#
# number of rings (size 3 to 8) (size 9 to 14) (size 15 to 20)
#    0.000    2.133    0.000    4.800    0.000    2.667 
#    0.000    8.667    0.000    0.000    0.000   68.133 
#    0.000    0.000    0.000    0.000    0.000    0.000 
#
# Total GULP energy -167079.030867 kJ/mol
# GULP energy per Si atom -5569.301029 kJ/mol
# Density = 2.764292 g / cm^3
# Si number density = 27.705979 Si / 1000 Ang^3
#
#
#
# Elastic Constant Matrix: (Units=GPa)
#
#
# Indices 1 2 3 4 5 6 
#
# 1 242.0140 39.1749 38.1614 0.0000 -40.2143 0.0000
# 2 39.1749 122.2695 29.1378 0.0000 -6.5792 0.0000
# 3 38.1614 29.1378 89.2730 0.0000 -28.6117 0.0000
# 4 0.0000 0.0000 0.0000 36.5586 0.0000 -5.6132
# 5 -40.2143 -6.5792 -28.6117 0.0000 50.9554 0.0000
# 6 0.0000 0.0000 0.0000 -5.6132 0.0000 42.4329
#
#
#
# Elastic Compliance Matrix: (Units=1/GPa)
#
#
# Indices 1 2 3 4 5 6 
#
# 1 0.005007 -0.001271 -0.000624 0.000000 0.003437 0.000000
# 2 -0.001271 0.009205 -0.002929 0.000000 -0.001459 0.000000
# 3 -0.000624 -0.002929 0.014811 0.000000 0.007446 0.000000
# 4 0.000000 0.000000 0.000000 0.027920 0.000000 0.003693
# 5 0.003437 -0.001459 0.007446 0.000000 0.026330 0.000000
# 6 0.000000 0.000000 0.000000 0.003693 0.000000 0.024055
#
#
# Mechanical properties :
#
#
# Convention : Reuss Voigt Hill
#
# Bulk Modulus (GPa) = 51.61063 74.05608 62.83336
# Shear Modulus (GPa) = 40.50728 49.12819 44.81774
#
# Velocity S-wave (km/s) = 3.82781 4.21550 4.02633
# Velocity P-wave (km/s) = 6.18099 7.10502 6.65905
#
# Compressibility (1/GPa) = 0.01937585
#
# Stress axis : x y z
#
# Youngs Moduli (GPa) = 199.71132 108.63380 67.51919
#
# Poissons Ratio (x) = 0.13803 0.04214
# Poissons Ratio (y) = 0.25376 0.19776
# Poissons Ratio (z) = 0.12464 0.31818
#
# Static dielectric constant tensor:
#      x y z
#    x 2.236060 0.000000 -0.084560 
#    y 0.000000 2.278270 0.000000 
#    z -0.084560 0.000000 2.439160 
# 
# From -- ./inp_files/283231.got.cif
#   From: 2010.05.17/outbox.cif.g08.bks.cpg/sg15_142_cif.got.tgz:283231.got - 2010.06.03 18:47:42.
