data_PCOD9263250
_publ_section_title
;
Structure prediction by ZEFSAII (Michael W. Deem and Ramdas Pophale) SiO2 
 PCOD9263250
Probable space group: C 2/C
;
_chemical_formula_sum "Si O2"
_cell_formula_units_Z 60
_cell_length_a 20.148229
_cell_length_b 14.594087
_cell_length_c 23.586413
_cell_angle_alpha 90.000000
_cell_angle_beta 27.088377
_cell_angle_gamma 90.000000
_cell_volume 3158.164131
_symmetry_space_group_name_H-M "C 2/C"
_symmetry_group_IT_number 15
_symmetry_cell_setting 'monoclinic'
loop_
_space_group_symop_operation_xyz
x,y,z
-x,y,1/2-z
-x,-y,-z
x,-y,1/2+z
1/2+x,1/2+y,z
1/2-x,1/2+y,1/2-z
1/2-x,1/2-y,-z
1/2+x,1/2-y,1/2+z
loop_
_atom_site_type_symbol
_atom_site_label
_atom_site_fract_x
_atom_site_fract_y
_atom_site_fract_z
Si Si1 0.876832 0.853266 0.724334
Si Si2 0.096447 0.287443 0.097436
Si Si3 0.589630 0.098236 0.494059
Si Si4 0.805240 0.303126 0.745569
Si Si5 0.946724 0.277584 0.013443
Si Si6 0.137996 0.500165 0.254538
Si Si7 0.500000 0.049039 0.750000
Si Si8 0.065413 0.090461 0.979743
O O1 0.780013 0.798672 0.750413
O O2 0.961835 0.784278 0.701886
O O3 0.001080 0.903781 0.592588
O O4 0.755348 0.917401 0.846808
O O5 0.102770 0.316113 0.026970
O O6 0.075723 0.379227 0.149681
O O7 0.250000 0.250000 0.000000
O O8 0.496435 0.134258 0.511804
O O9 0.494431 0.026177 0.602337
O O10 0.792084 0.407061 0.775967
O O11 0.974238 0.284603 0.606435
O O12 0.724374 0.235911 0.849778
O O13 0.012544 0.183851 0.990352
O O14 0.089971 0.510982 0.225884
O O15 0.260588 0.420794 0.158623
O O16 0.000000 0.000000 0.000000
#
# Coordination Sequence:
#
# PCOD9263250 Si02
#       8
#     8   8   8   8   8   8   4   8
#     4  10  20  33  50  83 110 150 189 233 281 338
#     4  11  19  33  52  79 114 156 193 225 275 347
#     4  10  21  33  54  77 120 145 189 236 284 343
#     4  10  20  36  56  80 115 141 193 236 291 348
#     4  10  19  34  54  83 106 147 181 239 285 344
#     4  11  22  39  53  83 114 155 192 235 290 342
#     4  10  24  32  56  78 110 160 186 224 278 348
#     4  11  19  34  55  81 116 148 188 230 286 347
#
# _framework density 18.998377999999999
#
# number of rings (size 3 to 8) (size 9 to 14) (size 15 to 20)
#    0.000    1.600    5.333    2.400    5.600    2.133 
#    2.400    0.000    0.000    0.800    0.000    0.000 
#    0.000    0.000    0.000    0.000    0.000    0.000 
#
# Total GULP energy -167104.701744 kJ/mol
# GULP energy per Si atom -5570.156725 kJ/mol
# Density = 1.895514 g / cm^3
# Si number density = 18.998378 Si / 1000 Ang^3
#
#
#
# Elastic Constant Matrix: (Units=GPa)
#
#
# Indices 1 2 3 4 5 6 
#
# 1 42.9530 20.2788 10.6623 0.0004 -6.9635 -0.0001
# 2 20.2788 30.4140 10.3550 0.0011 2.1905 -0.0003
# 3 10.6623 10.3550 129.9124 0.0021 12.5115 -0.0008
# 4 0.0004 0.0011 0.0021 26.1954 -0.0008 0.4634
# 5 -6.9635 2.1905 12.5115 -0.0008 18.4413 0.0004
# 6 -0.0001 -0.0003 -0.0008 0.4634 0.0004 14.4171
#
#
#
# Elastic Compliance Matrix: (Units=1/GPa)
#
#
# Indices 1 2 3 4 5 6 
#
# 1 0.040255 -0.027262 -0.003110 0.000001 0.020549 -0.000001
# 2 -0.027262 0.052354 -0.000369 -0.000002 -0.016262 0.000001
# 3 -0.003110 -0.000369 0.008657 -0.000001 -0.007004 0.000001
# 4 0.000001 -0.000002 -0.000001 0.038196 0.000003 -0.001228
# 5 0.020549 -0.016262 -0.007004 0.000003 0.068669 -0.000002
# 6 -0.000001 0.000001 0.000001 -0.001228 -0.000002 0.069402
#
#
# Mechanical properties :
#
#
# Convention : Reuss Voigt Hill
#
# Bulk Modulus (GPa) = 25.13600 31.76351 28.44976
# Shear Modulus (GPa) = 14.19344 22.60964 18.40154
#
# Velocity S-wave (km/s) = 2.73625 3.45350 3.11559
# Velocity P-wave (km/s) = 4.82101 5.71468 5.28676
#
# Compressibility (1/GPa) = 0.03978358
#
# Stress axis : x y z
#
# Youngs Moduli (GPa) = 24.84143 19.10086 115.51787
#
# Poissons Ratio (x) = 0.52072 0.35925
# Poissons Ratio (y) = 0.67722 0.04267
# Poissons Ratio (z) = 0.07725 0.00706
#
# Static dielectric constant tensor:
#      x y z
#    x 1.675300 0.000000 -0.007150 
#    y 0.000000 1.659100 0.000000 
#    z -0.007150 0.000000 1.774170 
# 
# From -- ./inp_files/280183.got.cif
#   From: 2010.05.17/outbox.cif.g08.bks.cpg/sg15_141_cif.got.tgz:280183.got - 2010.06.03 18:47:42.
