data_PCOD9263455
_publ_section_title
;
Structure prediction by ZEFSAII (Michael W. Deem and Ramdas Pophale) SiO2 
 PCOD9263455
Probable space group: C 2/C
;
_chemical_formula_sum "Si O2"
_cell_formula_units_Z 40
_cell_length_a 20.412771
_cell_length_b 6.814670
_cell_length_c 21.455592
_cell_angle_alpha 90.000000
_cell_angle_beta 132.534062
_cell_angle_gamma 90.000000
_cell_volume 2199.284711
_symmetry_space_group_name_H-M "C 2/C"
_symmetry_group_IT_number 15
_symmetry_cell_setting 'monoclinic'
loop_
_space_group_symop_operation_xyz
x,y,z
-x,y,1/2-z
-x,-y,-z
x,-y,1/2+z
1/2+x,1/2+y,z
1/2-x,1/2+y,1/2-z
1/2-x,1/2-y,-z
1/2+x,1/2-y,1/2+z
loop_
_atom_site_type_symbol
_atom_site_label
_atom_site_fract_x
_atom_site_fract_y
_atom_site_fract_z
Si Si1 0.204089 0.649473 0.910982
Si Si2 0.460725 0.341576 0.385198
Si Si3 0.570742 0.392192 0.746557
Si Si4 0.884014 0.867308 0.469410
Si Si5 0.048247 0.551141 0.890546
O O1 0.155023 0.814674 0.838369
O O2 0.284749 0.563791 0.922740
O O3 0.126308 0.513648 0.889892
O O4 0.250000 0.750000 0.000000
O O5 0.413018 0.458869 0.298927
O O6 0.399606 0.325886 0.406852
O O7 0.545595 0.471140 0.461628
O O8 0.498047 0.137830 0.383317
O O9 0.500000 0.481599 0.750000
O O10 0.520619 0.201867 0.685784
O O11 0.907761 0.671446 0.523924
#
# Coordination Sequence:
#
# PCOD9263455 Si02
#       5
#     8   8   8   8   8
#     4   9  18  36  55  75 109 144 176 227 272 314
#     4  10  19  34  57  79 105 144 180 219 272 334
#     4   9  19  35  53  74 107 138 176 225 274 317
#     4   9  19  35  54  80 112 139 176 224 275 323
#     4   9  18  34  57  78 103 145 182 218 268 329
#
# _framework density 18.187729999999998
#
# number of rings (size 3 to 8) (size 9 to 14) (size 15 to 20)
#    0.000    2.800    0.000    1.800    0.000    3.200 
#    3.600    4.000    0.000    0.000    0.000    0.000 
#    0.000    0.000    0.000    0.000    0.000    0.000 
#
# Total GULP energy -111463.144435 kJ/mol
# GULP energy per Si atom -5573.157222 kJ/mol
# Density = 1.814633 g / cm^3
# Si number density = 18.187730 Si / 1000 Ang^3
#
#
#
# Elastic Constant Matrix: (Units=GPa)
#
#
# Indices 1 2 3 4 5 6 
#
# 1 141.9942 39.7165 42.3339 0.0000 -22.0943 0.0002
# 2 39.7165 50.1589 13.6403 0.0001 -15.9062 0.0003
# 3 42.3339 13.6403 101.2660 0.0000 -19.5193 0.0001
# 4 0.0000 0.0001 0.0000 13.1421 0.0000 -4.7584
# 5 -22.0943 -15.9062 -19.5193 0.0000 28.4498 0.0000
# 6 0.0002 0.0003 0.0001 -4.7584 0.0000 9.7289
#
#
#
# Elastic Compliance Matrix: (Units=1/GPa)
#
#
# Indices 1 2 3 4 5 6 
#
# 1 0.010065 -0.006482 -0.002911 0.000000 0.002195 0.000000
# 2 -0.006482 0.028457 0.001121 -0.000001 0.011646 -0.000001
# 3 -0.002911 0.001121 0.012246 0.000000 0.006767 0.000000
# 4 0.000000 -0.000001 0.000000 0.092466 0.000000 0.045226
# 5 0.002195 0.011646 0.006767 0.000000 0.048009 -0.000001
# 6 0.000000 -0.000001 0.000000 0.045226 -0.000001 0.124907
#
#
# Mechanical properties :
#
#
# Convention : Reuss Voigt Hill
#
# Bulk Modulus (GPa) = 29.21933 53.86672 41.54302
# Shear Modulus (GPa) = 14.53058 23.44604 18.98831
#
# Velocity S-wave (km/s) = 2.82959 3.59432 3.23463
# Velocity P-wave (km/s) = 5.17452 6.84886 6.06970
#
# Compressibility (1/GPa) = 0.03422393
#
# Stress axis : x y z
#
# Youngs Moduli (GPa) = 99.35281 35.14045 81.66250
#
# Poissons Ratio (x) = 0.22778 0.23776
# Poissons Ratio (y) = 0.64399 -0.09157
# Poissons Ratio (z) = 0.28926 -0.03941
#
# Static dielectric constant tensor:
#      x y z
#    x 1.659160 0.000000 -0.006690 
#    y 0.000000 1.595490 0.000000 
#    z -0.006690 0.000000 1.623570 
# 
# From -- ./inp_files/212732.got.cif
#   From: 2010.05.17/outbox.cif.g08.bks.cpg/sg15_107_cif.got.tgz:212732.got - 2010.06.03 18:47:42.
