data_PCOD9263671
_publ_section_title
;
Structure prediction by ZEFSAII (Michael W. Deem and Ramdas Pophale) SiO2 
 PCOD9263671
Probable space group: C 2/C
;
_chemical_formula_sum "Si O2"
_cell_formula_units_Z 52
_cell_length_a 17.277946
_cell_length_b 7.562720
_cell_length_c 21.216174
_cell_angle_alpha 90.000000
_cell_angle_beta 85.093383
_cell_angle_gamma 90.000000
_cell_volume 2762.121474
_symmetry_space_group_name_H-M "C 2/C"
_symmetry_group_IT_number 15
_symmetry_cell_setting 'monoclinic'
loop_
_space_group_symop_operation_xyz
x,y,z
-x,y,1/2-z
-x,-y,-z
x,-y,1/2+z
1/2+x,1/2+y,z
1/2-x,1/2+y,1/2-z
1/2-x,1/2-y,-z
1/2+x,1/2-y,1/2+z
loop_
_atom_site_type_symbol
_atom_site_label
_atom_site_fract_x
_atom_site_fract_y
_atom_site_fract_z
Si Si1 0.500000 0.521344 0.250000
Si Si2 0.358097 0.563843 0.495870
Si Si3 0.806487 0.564463 0.046600
Si Si4 0.404977 0.739302 0.085710
Si Si5 0.433124 0.283921 0.876693
Si Si6 0.342179 0.461185 0.710049
Si Si7 0.222132 0.256152 0.166884
O O1 0.532474 0.637016 0.189997
O O2 0.578919 0.436626 0.272687
O O3 0.266601 0.520448 0.493603
O O4 0.355425 0.769474 0.516962
O O5 0.398813 0.433906 0.541873
O O6 0.400646 0.563552 0.425462
O O7 0.857681 0.395307 0.056829
O O8 0.767393 0.635500 0.113614
O O9 0.493413 0.797701 0.092882
O O10 0.367490 0.678761 0.154748
O O11 0.356403 0.175715 0.862460
O O12 0.279249 0.591554 0.685289
O O13 0.305505 0.359507 0.771860
#
# Coordination Sequence:
#
# PCOD9263671 Si02
#       7
#     4   8   8   8   8   8   8
#     4   8  18  36  56  82 104 152 182 226 282 330
#     4  10  20  37  56  82 115 150 181 231 279 329
#     4  10  21  35  57  83 116 142 189 234 272 327
#     4  11  20  36  58  85 107 152 186 229 278 334
#     4   9  20  35  58  79 115 147 183 230 285 320
#     4  10  19  34  59  79 112 146 189 225 281 329
#     4  10  19  37  55  83 112 151 181 234 277 329
#
# _framework density 18.82611
#
# number of rings (size 3 to 8) (size 9 to 14) (size 15 to 20)
#    0.000    2.154    1.538    1.846    0.000    0.615 
#    0.000    1.538    3.385    0.000    0.000    0.000 
#    0.000    0.000    0.000    0.000    0.000    0.000 
#
# Total GULP energy -144877.349090 kJ/mol
# GULP energy per Si atom -5572.205734 kJ/mol
# Density = 1.878326 g / cm^3
# Si number density = 18.826110 Si / 1000 Ang^3
#
#
#
# Elastic Constant Matrix: (Units=GPa)
#
#
# Indices 1 2 3 4 5 6 
#
# 1 125.1515 36.3054 18.3991 0.0000 20.0956 0.0000
# 2 36.3054 34.5938 9.6091 0.0000 10.1360 0.0000
# 3 18.3991 9.6091 77.3572 0.0000 -4.8024 0.0000
# 4 0.0000 0.0000 0.0000 22.7291 0.0000 15.9759
# 5 20.0956 10.1360 -4.8024 0.0000 36.4333 0.0000
# 6 0.0000 0.0000 0.0000 15.9759 0.0000 26.2847
#
#
#
# Elastic Compliance Matrix: (Units=1/GPa)
#
#
# Indices 1 2 3 4 5 6 
#
# 1 0.012066 -0.011068 -0.001731 0.000000 -0.003805 0.000000
# 2 -0.011068 0.043251 -0.003134 0.000000 -0.006341 0.000000
# 3 -0.001731 -0.003134 0.013956 0.000000 0.003666 0.000000
# 4 0.000000 0.000000 0.000000 0.076811 0.000000 -0.046686
# 5 -0.003805 -0.006341 0.003666 0.000000 0.031793 0.000000
# 6 0.000000 0.000000 0.000000 -0.046686 0.000000 0.066421
#
#
# Mechanical properties :
#
#
# Convention : Reuss Voigt Hill
#
# Bulk Modulus (GPa) = 26.73285 40.63665 33.68475
# Shear Modulus (GPa) = 17.32303 28.60868 22.96585
#
# Velocity S-wave (km/s) = 3.03670 3.90247 3.49649
# Velocity P-wave (km/s) = 5.15035 6.47594 5.85081
#
# Compressibility (1/GPa) = 0.03740716
#
# Stress axis : x y z
#
# Youngs Moduli (GPa) = 82.87456 23.12098 71.65529
#
# Poissons Ratio (x) = 0.25590 0.12406
# Poissons Ratio (y) = 0.91724 0.22455
# Poissons Ratio (z) = 0.14348 0.07245
#
# Static dielectric constant tensor:
#      x y z
#    x 1.701270 0.000000 0.014570 
#    y 0.000000 1.603490 0.000000 
#    z 0.014570 0.000000 1.673730 
# 
# From -- ./inp_files/242475.got.cif
#   From: 2010.05.17/outbox.cif.g08.bks.cpg/sg15_122_cif.got.tgz:242475.got - 2010.06.03 18:47:42.
