data_PCOD9263118
_publ_section_title
;
Structure prediction by ZEFSAII (Michael W. Deem and Ramdas Pophale) SiO2 
 PCOD9263118
Probable space group: C 2/C
;
_chemical_formula_sum "Si O2"
_cell_formula_units_Z 48
_cell_length_a 13.923624
_cell_length_b 29.351549
_cell_length_c 5.967334
_cell_angle_alpha 90.000000
_cell_angle_beta 93.288904
_cell_angle_gamma 90.000000
_cell_volume 2434.712934
_symmetry_space_group_name_H-M "C 2/C"
_symmetry_group_IT_number 15
_symmetry_cell_setting 'monoclinic'
loop_
_space_group_symop_operation_xyz
x,y,z
-x,y,1/2-z
-x,-y,-z
x,-y,1/2+z
1/2+x,1/2+y,z
1/2-x,1/2+y,1/2-z
1/2-x,1/2-y,-z
1/2+x,1/2-y,1/2+z
loop_
_atom_site_type_symbol
_atom_site_label
_atom_site_fract_x
_atom_site_fract_y
_atom_site_fract_z
Si Si1 0.741788 0.837477 0.934251
Si Si2 0.403474 0.214864 0.388009
Si Si3 0.290300 0.602046 0.059498
Si Si4 0.533305 0.552186 0.503607
Si Si5 0.103882 0.629842 0.796344
Si Si6 0.391508 0.315052 0.315470
O O1 0.689298 0.803076 0.759406
O O2 0.787328 0.880801 0.813558
O O3 0.657765 0.858067 0.075966
O O4 0.821437 0.812193 0.091895
O O5 0.500000 0.213132 0.250000
O O6 0.413522 0.178366 0.584930
O O7 0.389030 0.267473 0.448666
O O8 0.181555 0.602545 0.954433
O O9 0.348478 0.643138 0.946808
O O10 0.351914 0.558312 0.003329
O O11 0.500000 0.571650 0.250000
O O12 0.500000 0.500000 0.500000
O O13 0.500000 0.569930 0.750000
O O14 0.000000 0.607755 0.750000
O O15 0.500000 0.322665 0.250000
#
# Coordination Sequence:
#
# PCOD9263118 Si02
#       6
#     8   8   8   8   8   8
#     4  10  21  34  52  75 108 154 199 265 302 357
#     4  10  19  34  51  72 104 158 215 255 305 357
#     4  10  23  35  57  85 117 149 200 251 312 371
#     4  10  23  43  70  98 129 163 192 236 300 387
#     4  10  20  36  55  76 111 155 208 259 304 355
#     4  10  22  34  48  76 111 155 205 256 314 358
#
# _framework density 19.714852
#
# number of rings (size 3 to 8) (size 9 to 14) (size 15 to 20)
#    0.000    2.000    1.667    1.000    7.000    7.333 
#    0.000    0.000    0.000    0.000    0.000    4.667 
#    0.000    0.000    0.000    0.000    0.000    0.000 
#
# Total GULP energy -133794.390518 kJ/mol
# GULP energy per Si atom -5574.766272 kJ/mol
# Density = 1.966998 g / cm^3
# Si number density = 19.714852 Si / 1000 Ang^3
#
#
#
# Elastic Constant Matrix: (Units=GPa)
#
#
# Indices 1 2 3 4 5 6 
#
# 1 139.0056 26.9485 24.5817 0.0000 -0.5321 0.0000
# 2 26.9485 58.1646 4.0395 0.0000 -5.9334 0.0000
# 3 24.5817 4.0395 76.7353 0.0000 -8.4875 0.0000
# 4 0.0000 0.0000 0.0000 7.2045 0.0000 -15.8488
# 5 -0.5321 -5.9334 -8.4875 0.0000 27.2826 0.0000
# 6 0.0000 0.0000 0.0000 -15.8488 0.0000 90.4758
#
#
#
# Elastic Compliance Matrix: (Units=1/GPa)
#
#
# Indices 1 2 3 4 5 6 
#
# 1 0.008407 -0.003864 -0.002656 0.000000 -0.001503 0.000000
# 2 -0.003864 0.019379 0.000700 0.000000 0.004357 0.000000
# 3 -0.002656 0.000700 0.014351 0.000000 0.004565 0.000000
# 4 0.000000 0.000000 0.000000 0.225823 0.000000 0.039558
# 5 -0.001503 0.004357 0.004565 0.000000 0.038992 0.000000
# 6 0.000000 0.000000 0.000000 0.039558 0.000000 0.017982
#
#
# Mechanical properties :
#
#
# Convention : Reuss Voigt Hill
#
# Bulk Modulus (GPa) = 32.79146 42.78276 37.78711
# Shear Modulus (GPa) = 14.42009 39.54833 26.98421
#
# Velocity S-wave (km/s) = 2.70744 4.48372 3.70364
# Velocity P-wave (km/s) = 5.14224 6.96799 6.12354
#
# Compressibility (1/GPa) = 0.03049574
#
# Stress axis : x y z
#
# Youngs Moduli (GPa) = 118.94919 51.60325 69.68306
#
# Poissons Ratio (x) = 0.19939 0.18507
# Poissons Ratio (y) = 0.45961 -0.04875
# Poissons Ratio (z) = 0.31592 -0.03610
#
# Static dielectric constant tensor:
#      x y z
#    x 1.718840 0.000000 0.006970 
#    y 0.000000 1.696850 0.000000 
#    z 0.006970 0.000000 1.765740 
# 
# From -- ./inp_files/8761.got.cif
#   From: 2010.05.17/outbox.cif.g08.bks.cpg/sg15_5_cif.got.tgz:8761.got - 2010.06.03 18:47:42.
