data_PCOD9263969
_publ_section_title
;
Structure prediction by ZEFSAII (Michael W. Deem and Ramdas Pophale) SiO2 
 PCOD9263969
Probable space group: C 2/C
;
_chemical_formula_sum "Si O2"
_cell_formula_units_Z 64
_cell_length_a 22.382473
_cell_length_b 7.579567
_cell_length_c 21.824815
_cell_angle_alpha 90.000000
_cell_angle_beta 64.780438
_cell_angle_gamma 90.000000
_cell_volume 3349.645200
_symmetry_space_group_name_H-M "C 2/C"
_symmetry_group_IT_number 15
_symmetry_cell_setting 'monoclinic'
loop_
_space_group_symop_operation_xyz
x,y,z
-x,y,1/2-z
-x,-y,-z
x,-y,1/2+z
1/2+x,1/2+y,z
1/2-x,1/2+y,1/2-z
1/2-x,1/2-y,-z
1/2+x,1/2-y,1/2+z
loop_
_atom_site_type_symbol
_atom_site_label
_atom_site_fract_x
_atom_site_fract_y
_atom_site_fract_z
Si Si1 0.661761 0.671088 0.600384
Si Si2 0.696717 0.013742 0.333123
Si Si3 0.222535 0.527342 0.513582
Si Si4 0.797792 0.302851 0.790845
Si Si5 0.454502 0.675487 0.940557
Si Si6 0.400655 0.035067 0.013884
Si Si7 0.421242 0.390691 0.056690
Si Si8 0.265868 0.650755 0.622911
O O1 0.715741 0.526974 0.555834
O O2 0.693315 0.847043 0.556270
O O3 0.659996 0.709197 0.673785
O O4 0.592161 0.636584 0.597164
O O5 0.670611 0.118722 0.284846
O O6 0.638135 0.974451 0.407219
O O7 0.745909 0.158796 0.342173
O O8 0.739131 0.837677 0.301867
O O9 0.159371 0.592228 0.503924
O O10 0.246454 0.642200 0.560165
O O11 0.768413 0.481825 0.832552
O O12 0.431342 0.557800 0.008702
O O13 0.440770 0.878541 0.964879
O O14 0.531432 0.620453 0.904933
O O15 0.440277 0.211655 0.011605
O O16 0.343698 0.377242 0.100483
#
# Coordination Sequence:
#
# PCOD9263969 Si02
#       8
#     8   8   8   8   8   8   8   8
#     4   9  17  30  53  72 107 137 161 208 263 311
#     4  11  21  31  51  74 103 138 171 210 260 304
#     4   9  16  30  51  78 104 133 158 205 276 316
#     4  11  20  35  49  75 107 136 172 212 260 309
#     4  10  19  35  50  76 109 138 165 210 261 306
#     4  10  20  33  51  77 105 136 168 209 260 315
#     4  10  20  30  52  78 105 137 169 203 256 313
#     4  10  20  33  51  78 108 131 171 212 259 325
#
# _framework density 19.106501000000002
#
# number of rings (size 3 to 8) (size 9 to 14) (size 15 to 20)
#    0.000    2.000    3.750    1.125    0.000    3.000 
#    0.000    0.000    0.000    3.000    0.000    0.000 
#    7.500    0.000    0.000    0.000    0.000    0.000 
#
# Total GULP energy -178246.856825 kJ/mol
# GULP energy per Si atom -5570.214276 kJ/mol
# Density = 1.906301 g / cm^3
# Si number density = 19.106501 Si / 1000 Ang^3
#
#
#
# Elastic Constant Matrix: (Units=GPa)
#
#
# Indices 1 2 3 4 5 6 
#
# 1 99.8067 -5.7431 25.5379 -0.0004 32.7328 -0.0017
# 2 -5.7431 62.1806 -5.4054 -0.0009 4.7355 -0.0048
# 3 25.5379 -5.4054 67.4146 0.0000 26.8619 -0.0005
# 4 -0.0004 -0.0009 0.0000 26.7356 0.0001 5.8317
# 5 32.7328 4.7355 26.8619 0.0001 27.4487 -0.0006
# 6 -0.0017 -0.0048 -0.0005 5.8317 -0.0006 22.5243
#
#
#
# Elastic Compliance Matrix: (Units=1/GPa)
#
#
# Indices 1 2 3 4 5 6 
#
# 1 0.017578 0.003872 0.003721 0.000000 -0.025272 0.000002
# 2 0.003872 0.017827 0.004963 0.000000 -0.012550 0.000004
# 3 0.003721 0.004963 0.026114 0.000000 -0.030850 0.000001
# 4 0.000000 0.000000 0.000000 0.039642 -0.000001 -0.010264
# 5 -0.025272 -0.012550 -0.030850 -0.000001 0.098923 -0.000003
# 6 0.000002 0.000004 0.000001 -0.010264 -0.000003 0.047054
#
#
# Mechanical properties :
#
#
# Convention : Reuss Voigt Hill
#
# Bulk Modulus (GPa) = 11.54314 28.68676 20.11495
# Shear Modulus (GPa) = 19.92797 29.67590 24.80194
#
# Velocity S-wave (km/s) = 3.23305 3.94532 3.60681
# Velocity P-wave (km/s) = 4.47117 5.98338 5.28167
#
# Compressibility (1/GPa) = 0.08663151
#
# Stress axis : x y z
#
# Youngs Moduli (GPa) = 56.88889 56.09481 38.29329
#
# Poissons Ratio (x) = -0.21718 -0.14250
# Poissons Ratio (y) = -0.22025 -0.19006
# Poissons Ratio (z) = -0.21170 -0.27841
#
# Static dielectric constant tensor:
#      x y z
#    x 1.701100 0.000000 0.027050 
#    y 0.000000 1.729430 0.000000 
#    z 0.027050 0.000000 1.710040 
# 
# From -- ./inp_files/251554.got.cif
#   From: 2010.05.17/outbox.cif.g08.bks.cpg/sg15_126_cif.got.tgz:251554.got - 2010.06.03 18:47:42.
