data_PCOD9263181
_publ_section_title
;
Structure prediction by ZEFSAII (Michael W. Deem and Ramdas Pophale) SiO2 
 PCOD9263181
Probable space group: C 2/C
;
_chemical_formula_sum "Si O2"
_cell_formula_units_Z 52
_cell_length_a 8.594149
_cell_length_b 11.934952
_cell_length_c 24.220536
_cell_angle_alpha 90.000000
_cell_angle_beta 91.611817
_cell_angle_gamma 90.000000
_cell_volume 2483.335726
_symmetry_space_group_name_H-M "C 2/C"
_symmetry_group_IT_number 15
_symmetry_cell_setting 'monoclinic'
loop_
_space_group_symop_operation_xyz
x,y,z
-x,y,1/2-z
-x,-y,-z
x,-y,1/2+z
1/2+x,1/2+y,z
1/2-x,1/2+y,1/2-z
1/2-x,1/2-y,-z
1/2+x,1/2-y,1/2+z
loop_
_atom_site_type_symbol
_atom_site_label
_atom_site_fract_x
_atom_site_fract_y
_atom_site_fract_z
Si Si1 0.177424 0.840360 0.140683
Si Si2 0.383256 0.271129 0.546036
Si Si3 0.901776 0.005054 0.593667
Si Si4 0.477147 0.930989 0.172326
Si Si5 0.000000 0.224991 0.250000
Si Si6 0.583473 0.925017 0.047164
Si Si7 0.718431 0.888188 0.694114
O O1 0.295640 0.783135 0.097964
O O2 0.289559 0.926466 0.174879
O O3 0.135908 0.729328 0.175089
O O4 0.037435 0.909396 0.112008
O O5 0.250000 0.250000 0.500000
O O6 0.440611 0.395647 0.558227
O O7 0.532361 0.199311 0.532884
O O8 0.822551 0.949618 0.647483
O O9 0.765973 0.062041 0.556640
O O10 0.521935 0.809097 0.198021
O O11 0.516487 0.950985 0.107954
O O12 0.584220 0.022140 0.203188
O O13 0.153243 0.150788 0.260444
O O14 0.500000 0.000000 0.000000
#
# Coordination Sequence:
#
# PCOD9263181 Si02
#       7
#     8   8   8   8   4   8   8
#     4   9  20  36  56  84 116 147 197 237 281 349
#     4  10  19  34  53  77 114 155 188 236 288 331
#     4  10  20  36  58  82 112 152 194 235 284 343
#     4   9  20  38  59  83 118 149 185 242 287 337
#     4  10  20  38  60  88 110 148 192 232 294 348
#     4  10  19  36  58  83 115 154 192 235 288 346
#     4   9  20  38  60  81 114 146 182 238 291 340
#
# _framework density 20.939575999999999
#
# number of rings (size 3 to 8) (size 9 to 14) (size 15 to 20)
#    0.000    2.462    1.538    0.923    0.000    4.308 
#    0.000    3.846    0.000    0.000    0.000    0.000 
#    0.000    0.000    0.000    0.000    0.000    0.000 
#
# Total GULP energy -144760.926631 kJ/mol
# GULP energy per Si atom -5567.727947 kJ/mol
# Density = 2.089192 g / cm^3
# Si number density = 20.939576 Si / 1000 Ang^3
#
#
#
# Elastic Constant Matrix: (Units=GPa)
#
#
# Indices 1 2 3 4 5 6 
#
# 1 102.5368 82.5094 23.2968 0.0000 53.5939 0.0000
# 2 82.5094 117.0792 17.0732 0.0000 33.3068 0.0000
# 3 23.2968 17.0732 83.3197 0.0000 26.6188 0.0000
# 4 0.0000 0.0000 0.0000 27.6759 0.0000 21.7115
# 5 53.5939 33.3068 26.6188 0.0000 47.0681 0.0000
# 6 0.0000 0.0000 0.0000 21.7115 0.0000 38.3599
#
#
#
# Elastic Compliance Matrix: (Units=1/GPa)
#
#
# Indices 1 2 3 4 5 6 
#
# 1 0.050771 -0.024120 0.004592 0.000000 -0.043339 0.000000
# 2 -0.024120 0.022158 -0.001905 0.000000 0.012862 0.000000
# 3 0.004592 -0.001905 0.015071 0.000000 -0.012404 0.000000
# 4 0.000000 0.000000 0.000000 0.064989 0.000000 -0.036783
# 5 -0.043339 0.012862 -0.012404 0.000000 0.068507 0.000000
# 6 0.000000 0.000000 0.000000 -0.036783 0.000000 0.046888
#
#
# Mechanical properties :
#
#
# Convention : Reuss Voigt Hill
#
# Bulk Modulus (GPa) = 22.15653 60.96608 41.56131
# Shear Modulus (GPa) = 15.32356 34.62453 24.97405
#
# Velocity S-wave (km/s) = 2.70811 4.07079 3.45725
# Velocity P-wave (km/s) = 4.51471 7.16056 5.98566
#
# Compressibility (1/GPa) = 0.04513342
#
# Stress axis : x y z
#
# Youngs Moduli (GPa) = 19.69643 45.12962 66.35193
#
# Poissons Ratio (x) = 1.08854 -0.30472
# Poissons Ratio (y) = 0.47508 0.12643
# Poissons Ratio (z) = -0.09045 0.08599
#
# Static dielectric constant tensor:
#      x y z
#    x 1.762550 0.000000 -0.047780 
#    y 0.000000 1.851200 0.000000 
#    z -0.047780 0.000000 1.928020 
# 
# From -- ./inp_files/287626.got.cif
#   From: 2010.05.17/outbox.cif.g08.bks.cpg/sg15_144_cif.got.tgz:287626.got - 2010.06.03 18:47:42.
