data_PCOD9263781
_publ_section_title
;
Structure prediction by ZEFSAII (Michael W. Deem and Ramdas Pophale) SiO2 
 PCOD9263781
Probable space group: C 2/C
;
_chemical_formula_sum "Si O2"
_cell_formula_units_Z 56
_cell_length_a 7.749839
_cell_length_b 16.504696
_cell_length_c 23.681744
_cell_angle_alpha 90.000000
_cell_angle_beta 131.544043
_cell_angle_gamma 90.000000
_cell_volume 2267.119689
_symmetry_space_group_name_H-M "C 2/C"
_symmetry_group_IT_number 15
_symmetry_cell_setting 'monoclinic'
loop_
_space_group_symop_operation_xyz
x,y,z
-x,y,1/2-z
-x,-y,-z
x,-y,1/2+z
1/2+x,1/2+y,z
1/2-x,1/2+y,1/2-z
1/2-x,1/2-y,-z
1/2+x,1/2-y,1/2+z
loop_
_atom_site_type_symbol
_atom_site_label
_atom_site_fract_x
_atom_site_fract_y
_atom_site_fract_z
Si Si1 0.582775 0.749442 0.553232
Si Si2 0.000000 0.794889 0.250000
Si Si3 0.000000 0.413493 0.250000
Si Si4 0.109439 0.022926 0.217799
Si Si5 0.766720 0.691188 0.298022
Si Si6 0.005427 0.921042 0.922691
Si Si7 0.580640 0.236565 0.598957
Si Si8 0.294758 0.587232 0.919006
O O1 0.602994 0.797723 0.614947
O O2 0.440791 0.785674 0.471170
O O3 0.509101 0.656081 0.547791
O O4 0.837646 0.739285 0.579584
O O5 0.881359 0.744552 0.274979
O O6 0.768418 0.821897 0.167718
O O7 0.214734 0.462882 0.272323
O O8 0.109384 0.381650 0.332374
O O9 0.246792 0.100247 0.271550
O O10 0.000000 0.985277 0.250000
O O11 0.944054 0.055243 0.131528
O O12 0.500000 0.717271 0.250000
O O13 0.870412 0.834833 0.890378
O O14 0.212786 0.913855 0.013603
O O15 0.855314 0.995439 0.914751
#
# Coordination Sequence:
#
# PCOD9263781 Si02
#       8
#     8   4   4   8   8   8   8   8
#     4  10  21  39  57  89 126 164 193 253 328 373
#     4  12  21  34  62  90 110 159 206 258 287 366
#     4  10  21  36  58  90 110 159 202 248 291 382
#     4  10  19  34  60  87 113 151 202 254 296 354
#     4  11  21  35  59  88 118 155 200 257 301 367
#     4   9  17  37  57  91 112 160 209 257 293 375
#     4  10  20  35  63  89 121 155 211 258 305 371
#     4   9  20  33  63  82 121 161 203 243 319 373
#
# _framework density 24.700944
#
# number of rings (size 3 to 8) (size 9 to 14) (size 15 to 20)
#    0.000    2.000    2.857    1.286    3.000    0.571 
#    0.000    0.714   14.143    0.000    0.000    0.000 
#    0.000    0.000    0.000    0.000    0.000    0.000 
#
# Total GULP energy -156008.903021 kJ/mol
# GULP energy per Si atom -5571.746536 kJ/mol
# Density = 2.464472 g / cm^3
# Si number density = 24.700944 Si / 1000 Ang^3
#
#
#
# Elastic Constant Matrix: (Units=GPa)
#
#
# Indices 1 2 3 4 5 6 
#
# 1 68.2438 -10.3625 29.5347 0.0000 -25.1327 0.0000
# 2 -10.3625 60.5315 25.3680 0.0000 -15.4629 0.0000
# 3 29.5347 25.3680 248.8531 0.0000 -54.0731 0.0000
# 4 0.0000 0.0000 0.0000 47.3437 0.0000 -7.8866
# 5 -25.1327 -15.4629 -54.0731 0.0000 41.7441 0.0000
# 6 0.0000 0.0000 0.0000 -7.8866 0.0000 23.1466
#
#
#
# Elastic Compliance Matrix: (Units=1/GPa)
#
#
# Indices 1 2 3 4 5 6 
#
# 1 0.021718 0.007783 0.000135 0.000000 0.016133 0.000000
# 2 0.007783 0.021089 -0.000498 0.000000 0.011852 0.000000
# 3 0.000135 -0.000498 0.005610 0.000000 0.007163 0.000000
# 4 0.000000 0.000000 0.000000 0.022393 0.000000 0.007630
# 5 0.016133 0.011852 0.007163 0.000000 0.047338 0.000000
# 6 0.000000 0.000000 0.000000 0.007630 0.000000 0.045802
#
#
# Mechanical properties :
#
#
# Convention : Reuss Voigt Hill
#
# Bulk Modulus (GPa) = 15.80885 51.85655 33.83270
# Shear Modulus (GPa) = 29.37770 44.65276 37.01523
#
# Velocity S-wave (km/s) = 3.45242 4.25636 3.87529
# Velocity P-wave (km/s) = 4.72295 6.72271 5.80952
#
# Compressibility (1/GPa) = 0.06325571
#
# Stress axis : x y z
#
# Youngs Moduli (GPa) = 46.04399 47.41780 178.26313
#
# Poissons Ratio (x) = -0.36904 -0.02399
# Poissons Ratio (y) = -0.35835 0.08880
# Poissons Ratio (z) = -0.00620 0.02362
#
# Static dielectric constant tensor:
#      x y z
#    x 1.990280 0.000000 0.041380 
#    y 0.000000 2.082560 0.000000 
#    z 0.041380 0.000000 2.042480 
# 
# From -- ./inp_files/265629.got.cif
#   From: 2010.05.17/outbox.cif.g08.bks.cpg/sg15_133_cif.got.tgz:265629.got - 2010.06.03 18:47:42.
