data_PCOD9263606
_publ_section_title
;
Structure prediction by ZEFSAII (Michael W. Deem and Ramdas Pophale) SiO2 
 PCOD9263606
Probable space group: C 2/C
;
_chemical_formula_sum "Si O2"
_cell_formula_units_Z 40
_cell_length_a 5.346089
_cell_length_b 23.379858
_cell_length_c 14.860034
_cell_angle_alpha 90.000000
_cell_angle_beta 66.578796
_cell_angle_gamma 90.000000
_cell_volume 1704.334566
_symmetry_space_group_name_H-M "C 2/C"
_symmetry_group_IT_number 15
_symmetry_cell_setting 'monoclinic'
loop_
_space_group_symop_operation_xyz
x,y,z
-x,y,1/2-z
-x,-y,-z
x,-y,1/2+z
1/2+x,1/2+y,z
1/2-x,1/2+y,1/2-z
1/2-x,1/2-y,-z
1/2+x,1/2-y,1/2+z
loop_
_atom_site_type_symbol
_atom_site_label
_atom_site_fract_x
_atom_site_fract_y
_atom_site_fract_z
Si Si1 0.752329 0.645310 0.658274
Si Si2 0.670878 0.947489 0.082289
Si Si3 0.892572 0.982642 0.864311
Si Si4 0.454927 0.302876 0.476858
Si Si5 0.002260 0.763817 0.652879
O O1 0.500000 0.620897 0.750000
O O2 0.663681 0.646843 0.566410
O O3 0.035704 0.612638 0.630243
O O4 0.784993 0.712067 0.679728
O O5 0.395551 0.985579 0.113004
O O6 0.876550 0.975776 0.124415
O O7 0.814843 0.943794 0.963297
O O8 0.000000 0.962181 0.750000
O O9 0.250000 0.250000 0.500000
O O10 0.727448 0.273315 0.402368
O O11 0.480803 0.311003 0.579166
O O12 0.000000 0.790981 0.750000
#
# Coordination Sequence:
#
# PCOD9263606 Si02
#       5
#     8   8   8   8   8
#     4  11  21  34  58  92 129 157 211 280 324 367
#     4  10  23  37  63  98 124 162 214 262 322 392
#     4  10  21  41  62  91 128 171 205 256 327 398
#     4   9  20  35  53  85 120 163 205 257 318 384
#     4  10  19  34  58  85 120 168 211 263 318 381
#
# _framework density 23.469570999999998
#
# number of rings (size 3 to 8) (size 9 to 14) (size 15 to 20)
#    0.000    2.000    2.000    1.200    2.800    1.600 
#    0.000    0.000    0.000   13.200    5.200    0.000 
#    0.000    0.000    0.000    0.000    0.000    0.000 
#
# Total GULP energy -111628.872358 kJ/mol
# GULP energy per Si atom -5581.443618 kJ/mol
# Density = 2.341615 g / cm^3
# Si number density = 23.469571 Si / 1000 Ang^3
#
#
#
# Elastic Constant Matrix: (Units=GPa)
#
#
# Indices 1 2 3 4 5 6 
#
# 1 133.4604 26.6408 51.5702 0.0000 -9.0263 0.0000
# 2 26.6408 50.9736 21.9207 0.0000 -7.3935 0.0000
# 3 51.5702 21.9207 206.7026 0.0000 17.4156 0.0000
# 4 0.0000 0.0000 0.0000 17.0678 0.0000 -1.0182
# 5 -9.0263 -7.3935 17.4156 0.0000 50.0579 0.0000
# 6 0.0000 0.0000 0.0000 -1.0182 0.0000 32.6393
#
#
#
# Elastic Compliance Matrix: (Units=1/GPa)
#
#
# Indices 1 2 3 4 5 6 
#
# 1 0.009131 -0.003628 -0.002047 0.000000 0.001823 0.000000
# 2 -0.003628 0.022767 -0.001790 0.000000 0.003331 0.000000
# 3 -0.002047 -0.001790 0.005761 0.000000 -0.002638 0.000000
# 4 0.000000 0.000000 0.000000 0.058699 0.000000 0.001831
# 5 0.001823 0.003331 -0.002638 0.000000 0.021715 0.000000
# 6 0.000000 0.000000 0.000000 0.001831 0.000000 0.030695
#
#
# Mechanical properties :
#
#
# Convention : Reuss Voigt Hill
#
# Bulk Modulus (GPa) = 43.99583 65.71110 54.85347
# Shear Modulus (GPa) = 29.19297 39.35334 34.27315
#
# Velocity S-wave (km/s) = 3.53067 4.09929 3.82556
# Velocity P-wave (km/s) = 5.95042 7.10386 6.55257
#
# Compressibility (1/GPa) = 0.02272943
#
# Stress axis : x y z
#
# Youngs Moduli (GPa) = 109.51375 43.92335 173.59141
#
# Poissons Ratio (x) = 0.15934 0.35535
# Poissons Ratio (y) = 0.39728 0.31073
# Poissons Ratio (z) = 0.22418 0.07862
#
# Static dielectric constant tensor:
#      x y z
#    x 1.980360 0.000000 0.062100 
#    y 0.000000 1.929090 0.000000 
#    z 0.062100 0.000000 1.950450 
# 
# From -- ./inp_files/130193.got.cif
#   From: 2010.05.17/outbox.cif.g08.bks.cpg/sg15_66_cif.got.tgz:130193.got - 2010.06.03 18:47:42.
