data_PCOD9263252
_publ_section_title
;
Structure prediction by ZEFSAII (Michael W. Deem and Ramdas Pophale) SiO2 
 PCOD9263252
Probable space group: C 2/C
;
_chemical_formula_sum "Si O2"
_cell_formula_units_Z 56
_cell_length_a 17.993695
_cell_length_b 8.185372
_cell_length_c 27.126589
_cell_angle_alpha 90.000000
_cell_angle_beta 133.126800
_cell_angle_gamma 90.000000
_cell_volume 2915.970800
_symmetry_space_group_name_H-M "C 2/C"
_symmetry_group_IT_number 15
_symmetry_cell_setting 'monoclinic'
loop_
_space_group_symop_operation_xyz
x,y,z
-x,y,1/2-z
-x,-y,-z
x,-y,1/2+z
1/2+x,1/2+y,z
1/2-x,1/2+y,1/2-z
1/2-x,1/2-y,-z
1/2+x,1/2-y,1/2+z
loop_
_atom_site_type_symbol
_atom_site_label
_atom_site_fract_x
_atom_site_fract_y
_atom_site_fract_z
Si Si1 0.974385 0.401622 0.312749
Si Si2 0.160187 0.274711 0.332329
Si Si3 0.314070 0.825516 0.749365
Si Si4 0.982679 0.228935 0.520225
Si Si5 0.746532 0.991482 0.678029
Si Si6 0.515893 0.926710 0.070809
Si Si7 0.340087 0.495024 0.896573
O O1 0.890158 0.302575 0.244349
O O2 0.922254 0.583207 0.287949
O O3 0.986321 0.360175 0.375202
O O4 0.077814 0.350899 0.332110
O O5 0.195211 0.087841 0.341823
O O6 0.261231 0.379046 0.384161
O O7 0.284861 0.864095 0.792632
O O8 0.309341 0.636681 0.732278
O O9 0.225371 0.906918 0.675457
O O10 0.028264 0.305529 0.489939
O O11 0.968645 0.391413 0.546292
O O12 0.063520 0.100559 0.578558
O O13 0.884991 0.128882 0.457503
O O14 0.635430 0.054727 0.611514
#
# Coordination Sequence:
#
# PCOD9263252 Si02
#       7
#     8   8   8   8   8   8   8
#     4   9  21  38  57  81 116 148 184 236 298 344
#     4  10  20  38  57  79 115 152 182 233 297 348
#     4  10  20  33  60  91 112 144 193 248 294 333
#     4  10  20  32  56  83 116 145 193 241 282 322
#     4  11  19  34  60  88 112 145 195 246 291 342
#     4  10  19  35  56  87 109 148 193 244 275 346
#     4  10  19  34  54  83 114 147 188 237 287 335
#
# _framework density 19.204583
#
# number of rings (size 3 to 8) (size 9 to 14) (size 15 to 20)
#    0.000    2.000    2.857    2.571    2.000    0.000 
#    0.000    7.143    0.000    0.000    0.000    0.000 
#    0.000    0.000    0.000    0.000    0.000    0.000 
#
# Total GULP energy -155875.309595 kJ/mol
# GULP energy per Si atom -5566.975343 kJ/mol
# Density = 1.916087 g / cm^3
# Si number density = 19.204583 Si / 1000 Ang^3
#
#
#
# Elastic Constant Matrix: (Units=GPa)
#
#
# Indices 1 2 3 4 5 6 
#
# 1 77.6322 34.6888 27.7537 0.0000 3.2788 0.0000
# 2 34.6888 61.5427 2.5261 0.0000 3.9916 0.0000
# 3 27.7537 2.5261 68.2355 0.0000 -1.2633 0.0000
# 4 0.0000 0.0000 0.0000 36.5029 0.0000 1.5736
# 5 3.2788 3.9916 -1.2633 0.0000 24.4803 0.0000
# 6 0.0000 0.0000 0.0000 1.5736 0.0000 23.0373
#
#
#
# Elastic Compliance Matrix: (Units=1/GPa)
#
#
# Indices 1 2 3 4 5 6 
#
# 1 0.020920 -0.011370 -0.008113 0.000000 -0.001367 0.000000
# 2 -0.011370 0.022632 0.003750 0.000000 -0.001974 0.000000
# 3 -0.008113 0.003750 0.017842 0.000000 0.001396 0.000000
# 4 0.000000 0.000000 0.000000 0.027476 0.000000 -0.001877
# 5 -0.001367 -0.001974 0.001396 0.000000 0.041426 0.000000
# 6 0.000000 0.000000 0.000000 -0.001877 0.000000 0.043536
#
#
# Mechanical properties :
#
#
# Convention : Reuss Voigt Hill
#
# Bulk Modulus (GPa) = 33.41387 37.48305 35.44846
# Shear Modulus (GPa) = 23.22621 26.30022 24.76322
#
# Velocity S-wave (km/s) = 3.48143 3.70466 3.59478
# Velocity P-wave (km/s) = 5.79630 6.15300 5.97732
#
# Compressibility (1/GPa) = 0.02992769
#
# Stress axis : x y z
#
# Youngs Moduli (GPa) = 47.80111 44.18576 56.04725
#
# Poissons Ratio (x) = 0.50239 0.45473
# Poissons Ratio (y) = 0.54350 -0.21019
# Poissons Ratio (z) = 0.38782 -0.16571
#
# Static dielectric constant tensor:
#      x y z
#    x 1.671980 0.000000 0.004980 
#    y 0.000000 1.755230 0.000000 
#    z 0.004980 0.000000 1.695650 
# 
# From -- ./inp_files/298198.got.cif
#   From: 2010.05.17/outbox.cif.g08.bks.cpg/sg15_150_cif.got.tgz:298198.got - 2010.06.03 18:47:42.
