data_PCOD9263976
_publ_section_title
;
Structure prediction by ZEFSAII (Michael W. Deem and Ramdas Pophale) SiO2 
 PCOD9263976
Probable space group: C 2/C
;
_chemical_formula_sum "Si O2"
_cell_formula_units_Z 64
_cell_length_a 21.720905
_cell_length_b 17.620401
_cell_length_c 25.029490
_cell_angle_alpha 90.000000
_cell_angle_beta 158.825385
_cell_angle_gamma 90.000000
_cell_volume 3460.248055
_symmetry_space_group_name_H-M "C 2/C"
_symmetry_group_IT_number 15
_symmetry_cell_setting 'monoclinic'
loop_
_space_group_symop_operation_xyz
x,y,z
-x,y,1/2-z
-x,-y,-z
x,-y,1/2+z
1/2+x,1/2+y,z
1/2-x,1/2+y,1/2-z
1/2-x,1/2-y,-z
1/2+x,1/2-y,1/2+z
loop_
_atom_site_type_symbol
_atom_site_label
_atom_site_fract_x
_atom_site_fract_y
_atom_site_fract_z
Si Si1 0.061590 0.802287 0.174348
Si Si2 0.451827 0.863426 0.621302
Si Si3 0.068075 0.681483 0.581470
Si Si4 0.721772 0.070778 0.780670
Si Si5 0.609262 0.084425 0.147843
Si Si6 0.397954 0.576960 0.616320
Si Si7 0.552930 0.339683 0.533567
Si Si8 0.845007 0.495985 0.659709
O O1 0.253659 0.808204 0.307156
O O2 0.011622 0.722584 0.161014
O O3 0.020865 0.868229 0.182709
O O4 0.948228 0.814577 0.029234
O O5 0.458250 0.902958 0.568319
O O6 0.265398 0.874341 0.495242
O O7 0.584397 0.913593 0.763255
O O8 0.116203 0.644514 0.676684
O O9 0.994822 0.766169 0.520343
O O10 0.947480 0.623402 0.452397
O O11 0.665577 0.002642 0.695622
O O12 0.692189 0.042342 0.816742
O O13 0.917245 0.093216 0.929981
O O14 0.766983 0.131585 0.299835
O O15 0.500000 0.546153 0.750000
O O16 0.315986 0.516842 0.508920
O O17 0.000000 0.528875 0.750000
#
# Coordination Sequence:
#
# PCOD9263976 Si02
#       8
#     8   8   8   8   8   8   8   8
#     4  11  21  34  52  77 119 159 195 232 273 331
#     4  10  19  35  51  76 114 163 197 229 279 331
#     4  11  21  36  56  84 115 151 191 246 287 340
#     4  10  22  37  60  83 106 151 193 232 300 357
#     4  11  19  34  54  80 116 148 197 240 284 335
#     4  11  23  32  51  81 114 154 206 238 274 332
#     4  11  21  37  56  82 117 153 186 240 296 344
#     4   9  21  41  59  77 111 150 189 241 289 344
#
# _framework density 18.495782999999999
#
# number of rings (size 3 to 8) (size 9 to 14) (size 15 to 20)
#    0.000    1.500    2.500    4.125    0.000    2.500 
#    0.000    3.750    0.000    0.750    0.000    0.000 
#    0.000    0.000    0.000    0.000    0.000    0.000 
#
# Total GULP energy -178647.242045 kJ/mol
# GULP energy per Si atom -5582.726314 kJ/mol
# Density = 1.845369 g / cm^3
# Si number density = 18.495783 Si / 1000 Ang^3
#
#
#
# Elastic Constant Matrix: (Units=GPa)
#
#
# Indices 1 2 3 4 5 6 
#
# 1 57.2133 21.8781 13.9109 0.0090 -6.1188 -0.0003
# 2 21.8781 71.9391 11.9215 0.0072 -0.0018 0.0003
# 3 13.9109 11.9215 72.9945 0.0230 -14.0405 0.0006
# 4 0.0090 0.0072 0.0230 18.5156 0.0028 -0.0043
# 5 -6.1188 -0.0018 -14.0405 0.0028 27.9653 -0.0019
# 6 -0.0003 0.0003 0.0006 -0.0043 -0.0019 26.4053
#
#
#
# Elastic Compliance Matrix: (Units=1/GPa)
#
#
# Indices 1 2 3 4 5 6 
#
# 1 0.020658 -0.005896 -0.002329 -0.000005 0.003350 0.000001
# 2 -0.005896 0.016013 -0.001925 -0.000001 -0.002256 0.000000
# 3 -0.002329 -0.001925 0.015895 -0.000019 0.007471 0.000000
# 4 -0.000005 -0.000001 -0.000019 0.054009 -0.000016 0.000009
# 5 0.003350 -0.002256 0.007471 -0.000016 0.040242 0.000003
# 6 0.000001 0.000000 0.000000 0.000009 0.000003 0.037871
#
#
# Mechanical properties :
#
#
# Convention : Reuss Voigt Hill
#
# Bulk Modulus (GPa) = 30.99503 33.06308 32.02906
# Shear Modulus (GPa) = 23.17554 24.87299 24.02427
#
# Velocity S-wave (km/s) = 3.54364 3.67112 3.60794
# Velocity P-wave (km/s) = 5.79115 5.99035 5.89159
#
# Compressibility (1/GPa) = 0.03226324
#
# Stress axis : x y z
#
# Youngs Moduli (GPa) = 48.40774 62.44984 62.91271
#
# Poissons Ratio (x) = 0.36823 0.14655
# Poissons Ratio (y) = 0.28543 0.12113
# Poissons Ratio (z) = 0.11276 0.12024
#
# Static dielectric constant tensor:
#      x y z
#    x 1.648580 0.000000 -0.018450 
#    y 0.000000 1.651400 0.000000 
#    z -0.018450 0.000000 1.680130 
# 
# From -- ./inp_files/302447.got.cif
#   From: 2010.05.17/outbox.cif.g08.bks.cpg/sg15_152_cif.got.tgz:302447.got - 2010.06.03 18:47:42.
