data_PCOD9263201
_publ_section_title
;
Structure prediction by ZEFSAII (Michael W. Deem and Ramdas Pophale) SiO2 
 PCOD9263201
Probable space group: C 2/C
;
_chemical_formula_sum "Si O2"
_cell_formula_units_Z 64
_cell_length_a 22.031456
_cell_length_b 6.689611
_cell_length_c 23.041094
_cell_angle_alpha 90.000000
_cell_angle_beta 104.870677
_cell_angle_gamma 90.000000
_cell_volume 3282.104541
_symmetry_space_group_name_H-M "C 2/C"
_symmetry_group_IT_number 15
_symmetry_cell_setting 'monoclinic'
loop_
_space_group_symop_operation_xyz
x,y,z
-x,y,1/2-z
-x,-y,-z
x,-y,1/2+z
1/2+x,1/2+y,z
1/2-x,1/2+y,1/2-z
1/2-x,1/2-y,-z
1/2+x,1/2-y,1/2+z
loop_
_atom_site_type_symbol
_atom_site_label
_atom_site_fract_x
_atom_site_fract_y
_atom_site_fract_z
Si Si1 0.034426 0.281019 0.612035
Si Si2 0.123780 0.090047 0.113461
Si Si3 0.300981 0.285133 0.430268
Si Si4 0.827301 0.926932 0.567062
Si Si5 0.107619 0.326463 0.912816
Si Si6 0.421916 0.188395 0.666594
Si Si7 0.568459 0.143517 0.694735
Si Si8 0.903089 0.531480 0.963462
O O1 0.065195 0.413291 0.671503
O O2 0.040043 0.422914 0.556195
O O3 0.962026 0.231519 0.605584
O O4 0.072583 0.082187 0.609545
O O5 0.117295 0.231959 0.167830
O O6 0.103145 0.239586 0.057264
O O7 0.186515 0.968515 0.110936
O O8 0.233102 0.187359 0.421614
O O9 0.325284 0.366614 0.498745
O O10 0.345310 0.099261 0.424816
O O11 0.884108 0.849324 0.620566
O O12 0.836357 0.167073 0.571212
O O13 0.107931 0.476644 0.859503
O O14 0.105051 0.464582 0.969697
O O15 0.495221 0.202307 0.666713
O O16 0.418766 0.189798 0.735200
#
# Coordination Sequence:
#
# PCOD9263201 Si02
#       8
#     8   8   8   8   8   8   8   8
#     4   9  20  33  54  83 114 147 191 236 286 362
#     4  10  19  37  60  81 114 157 189 236 296 345
#     4  10  22  37  55  84 119 153 201 242 280 351
#     4  11  22  36  57  86 117 154 198 240 291 351
#     4  11  20  33  53  85 118 149 185 238 299 346
#     4  10  21  38  58  88 117 145 189 244 296 359
#     4   9  20  38  61  84 115 150 188 239 300 354
#     4  10  19  34  53  82 113 153 187 235 295 345
#
# _framework density 19.499683000000001
#
# number of rings (size 3 to 8) (size 9 to 14) (size 15 to 20)
#    0.000    2.000    2.500    1.125    0.000    3.000 
#    0.000    2.500    8.250    0.000    0.000    0.000 
#    0.000    0.000    0.000    0.000    0.000    0.000 
#
# Total GULP energy -178240.655881 kJ/mol
# GULP energy per Si atom -5570.020496 kJ/mol
# Density = 1.945530 g / cm^3
# Si number density = 19.499683 Si / 1000 Ang^3
#
#
#
# Elastic Constant Matrix: (Units=GPa)
#
#
# Indices 1 2 3 4 5 6 
#
# 1 46.4021 32.0900 23.5252 0.0000 -9.9125 0.0000
# 2 32.0900 79.3121 13.1998 0.0000 -1.2986 0.0000
# 3 23.5252 13.1998 68.2424 0.0000 -4.1893 0.0000
# 4 0.0000 0.0000 0.0000 16.3933 0.0000 -7.8017
# 5 -9.9125 -1.2986 -4.1893 0.0000 19.4121 0.0000
# 6 0.0000 0.0000 0.0000 -7.8017 0.0000 33.2994
#
#
#
# Elastic Compliance Matrix: (Units=1/GPa)
#
#
# Indices 1 2 3 4 5 6 
#
# 1 0.040289 -0.014344 -0.010043 0.000000 0.017446 0.000000
# 2 -0.014344 0.018137 0.001076 0.000000 -0.005879 0.000000
# 3 -0.010043 0.001076 0.017834 0.000000 -0.001208 0.000000
# 4 0.000000 0.000000 0.000000 0.068656 0.000000 0.016085
# 5 0.017446 -0.005879 -0.001208 0.000000 0.059769 0.000000
# 6 0.000000 0.000000 0.000000 0.016085 0.000000 0.033799
#
#
# Mechanical properties :
#
#
# Convention : Reuss Voigt Hill
#
# Bulk Modulus (GPa) = 33.74228 36.84296 35.29262
# Shear Modulus (GPa) = 16.94995 22.16373 19.55684
#
# Velocity S-wave (km/s) = 2.95149 3.37504 3.17034
# Velocity P-wave (km/s) = 5.38114 5.84149 5.61603
#
# Compressibility (1/GPa) = 0.02963641
#
# Stress axis : x y z
#
# Youngs Moduli (GPa) = 24.82043 55.13664 56.07364
#
# Poissons Ratio (x) = 0.79088 0.56317
# Poissons Ratio (y) = 0.35603 -0.06033
# Poissons Ratio (z) = 0.24928 -0.05932
#
# Static dielectric constant tensor:
#      x y z
#    x 1.730010 0.000000 -0.025610 
#    y 0.000000 1.708020 0.000000 
#    z -0.025610 0.000000 1.687230 
# 
# From -- ./inp_files/280996.got.cif
#   From: 2010.05.17/outbox.cif.g08.bks.cpg/sg15_141_cif.got.tgz:280996.got - 2010.06.03 18:47:42.
