data_PCOD9263640
_publ_section_title
;
Structure prediction by ZEFSAII (Michael W. Deem and Ramdas Pophale) SiO2 
 PCOD9263640
Probable space group: C 2/C
;
_chemical_formula_sum "Si O2"
_cell_formula_units_Z 52
_cell_length_a 22.418934
_cell_length_b 8.266012
_cell_length_c 22.302079
_cell_angle_alpha 90.000000
_cell_angle_beta 34.373966
_cell_angle_gamma 90.000000
_cell_volume 2333.410155
_symmetry_space_group_name_H-M "C 2/C"
_symmetry_group_IT_number 15
_symmetry_cell_setting 'monoclinic'
loop_
_space_group_symop_operation_xyz
x,y,z
-x,y,1/2-z
-x,-y,-z
x,-y,1/2+z
1/2+x,1/2+y,z
1/2-x,1/2+y,1/2-z
1/2-x,1/2-y,-z
1/2+x,1/2-y,1/2+z
loop_
_atom_site_type_symbol
_atom_site_label
_atom_site_fract_x
_atom_site_fract_y
_atom_site_fract_z
Si Si1 0.331123 0.863519 0.395996
Si Si2 0.000000 0.894919 0.750000
Si Si3 0.381095 0.487543 0.963302
Si Si4 0.559457 0.891911 0.076173
Si Si5 0.331192 0.872977 0.630732
Si Si6 0.661007 0.137388 0.790994
Si Si7 0.466682 0.672933 0.002044
O O1 0.250000 0.750000 0.500000
O O2 0.410529 0.732477 0.299921
O O3 0.399032 0.944196 0.393380
O O4 0.247093 0.979499 0.433417
O O5 0.940309 0.999246 0.849772
O O6 0.420735 0.303779 0.947513
O O7 0.418799 0.625356 0.977469
O O8 0.437050 0.924252 0.166445
O O9 0.625297 0.959027 0.965090
O O10 0.244100 0.742248 0.686203
O O11 0.429823 0.786172 0.581302
O O12 0.283817 0.994144 0.718644
O O13 0.610824 0.244020 0.886038
O O14 0.500000 0.500000 0.000000
#
# Coordination Sequence:
#
# PCOD9263640 Si02
#       7
#     8   4   8   8   8   8   8
#     4   8  17  32  50  90 116 159 204 244 291 343
#     4   8  16  32  52  90 120 166 206 242 290 348
#     4  10  19  34  58  88 128 154 205 247 293 361
#     4   9  18  34  58  82 125 153 197 254 283 352
#     4  11  23  38  58  90 118 162 203 247 314 360
#     4  11  23  37  58  88 120 162 202 252 303 367
#     4  11  20  40  57  90 124 157 195 250 310 357
#
# _framework density 22.284981999999999
#
# number of rings (size 3 to 8) (size 9 to 14) (size 15 to 20)
#    0.000    2.462    3.077    2.769    0.000    7.385 
#    0.000    0.000    0.000    3.692    0.000    0.000 
#    0.000    0.000    0.000    0.000    0.000    0.000 
#
# Total GULP energy -144995.026826 kJ/mol
# GULP energy per Si atom -5576.731801 kJ/mol
# Density = 2.223426 g / cm^3
# Si number density = 22.284982 Si / 1000 Ang^3
#
#
#
# Elastic Constant Matrix: (Units=GPa)
#
#
# Indices 1 2 3 4 5 6 
#
# 1 128.0485 11.2165 28.7330 0.0001 -8.7906 -0.0001
# 2 11.2165 20.0643 -0.1657 -0.0006 -0.1553 0.0004
# 3 28.7330 -0.1657 101.4030 -0.0003 -14.9877 0.0002
# 4 0.0001 -0.0006 -0.0003 26.0501 0.0002 -0.1646
# 5 -8.7906 -0.1553 -14.9877 0.0002 27.2599 -0.0001
# 6 -0.0001 0.0004 0.0002 -0.1646 -0.0001 33.2744
#
#
#
# Elastic Compliance Matrix: (Units=1/GPa)
#
#
# Indices 1 2 3 4 5 6 
#
# 1 0.008866 -0.004963 -0.002288 0.000000 0.001573 0.000000
# 2 -0.004963 0.052622 0.001415 0.000001 -0.000523 -0.000001
# 3 -0.002288 0.001415 0.011325 0.000000 0.005497 0.000000
# 4 0.000000 0.000001 0.000000 0.038389 0.000000 0.000190
# 5 0.001573 -0.000523 0.005497 0.000000 0.040210 0.000000
# 6 0.000000 -0.000001 0.000000 0.000190 0.000000 0.030054
#
#
# Mechanical properties :
#
#
# Convention : Reuss Voigt Hill
#
# Bulk Modulus (GPa) = 16.35570 36.56481 26.46025
# Shear Modulus (GPa) = 23.41740 31.29900 27.35820
#
# Velocity S-wave (km/s) = 3.24514 3.75172 3.50759
# Velocity P-wave (km/s) = 4.62564 5.93385 5.32011
#
# Compressibility (1/GPa) = 0.06114076
#
# Stress axis : x y z
#
# Youngs Moduli (GPa) = 112.79575 19.00359 88.30304
#
# Poissons Ratio (x) = 0.09431 0.20201
# Poissons Ratio (y) = 0.55978 -0.12495
# Poissons Ratio (z) = 0.25805 -0.02689
#
# Static dielectric constant tensor:
#      x y z
#    x 1.955580 0.000000 0.017690 
#    y 0.000000 1.827640 0.000000 
#    z 0.017690 0.000000 1.863440 
# 
# From -- ./inp_files/301965.got.cif
#   From: 2010.05.17/outbox.cif.g08.bks.cpg/sg15_151_cif.got.tgz:301965.got - 2010.06.03 18:47:42.
