data_PCOD9263748
_publ_section_title
;
Structure prediction by ZEFSAII (Michael W. Deem and Ramdas Pophale) SiO2 
 PCOD9263748
Probable space group: C 2/C
;
_chemical_formula_sum "Si O2"
_cell_formula_units_Z 48
_cell_length_a 12.771095
_cell_length_b 18.121416
_cell_length_c 12.940906
_cell_angle_alpha 90.000000
_cell_angle_beta 47.009977
_cell_angle_gamma 90.000000
_cell_volume 2190.700063
_symmetry_space_group_name_H-M "C 2/C"
_symmetry_group_IT_number 15
_symmetry_cell_setting 'monoclinic'
loop_
_space_group_symop_operation_xyz
x,y,z
-x,y,1/2-z
-x,-y,-z
x,-y,1/2+z
1/2+x,1/2+y,z
1/2-x,1/2+y,1/2-z
1/2-x,1/2-y,-z
1/2+x,1/2-y,1/2+z
loop_
_atom_site_type_symbol
_atom_site_label
_atom_site_fract_x
_atom_site_fract_y
_atom_site_fract_z
Si Si1 0.107042 0.138979 0.383901
Si Si2 0.701326 0.601666 0.855251
Si Si3 0.900286 0.212188 0.906061
Si Si4 0.335196 0.249879 0.833736
Si Si5 0.852519 0.052486 0.840184
Si Si6 0.337501 0.964349 0.851411
O O1 0.065762 0.203642 0.495685
O O2 0.159938 0.176954 0.242513
O O3 0.231763 0.087869 0.351986
O O4 0.952904 0.097671 0.481974
O O5 0.762909 0.683765 0.818305
O O6 0.673291 0.574402 0.758717
O O7 0.819143 0.545573 0.817865
O O8 0.881534 0.128338 0.882112
O O9 0.000000 0.246744 0.750000
O O10 0.750000 0.250000 0.000000
O O11 0.500000 0.234146 0.750000
O O12 0.250000 0.250000 0.000000
O O13 0.000000 0.007460 0.750000
O O14 0.720370 0.023501 0.993028
O O15 0.500000 0.937351 0.750000
#
# Coordination Sequence:
#
# PCOD9263748 Si02
#       6
#     8   8   8   8   8   8
#     4  11  24  44  70 103 140 192 236 286 365 432
#     4  12  23  47  74 102 146 189 239 294 361 431
#     4  10  19  34  59  95 130 172 223 282 340 405
#     4  12  27  47  70 107 145 189 243 290 356 432
#     4  10  21  41  65  99 136 181 234 285 352 427
#     4  11  26  45  71 111 142 182 243 306 362 420
#
# _framework density 21.910803000000001
#
# number of rings (size 3 to 8) (size 9 to 14) (size 15 to 20)
#    0.000    1.000    6.667    2.000    0.000    6.000 
#    0.000    0.000    0.000    0.000    0.000    0.000 
#    0.000    0.000    0.000    0.000    0.000    0.000 
#
# Total GULP energy -133800.952428 kJ/mol
# GULP energy per Si atom -5575.039685 kJ/mol
# Density = 2.186093 g / cm^3
# Si number density = 21.910803 Si / 1000 Ang^3
#
#
#
# Elastic Constant Matrix: (Units=GPa)
#
#
# Indices 1 2 3 4 5 6 
#
# 1 81.0817 19.1042 30.6965 -0.0001 -15.9963 0.0001
# 2 19.1042 29.1294 11.1626 0.0000 3.9029 0.0001
# 3 30.6965 11.1626 149.3345 -0.0001 5.4975 0.0002
# 4 -0.0001 0.0000 -0.0001 25.8171 0.0001 28.1541
# 5 -15.9963 3.9029 5.4975 0.0001 50.5556 -0.0001
# 6 0.0001 0.0001 0.0002 28.1541 -0.0001 96.5172
#
#
#
# Elastic Compliance Matrix: (Units=1/GPa)
#
#
# Indices 1 2 3 4 5 6 
#
# 1 0.017421 -0.011177 -0.002992 0.000000 0.006701 0.000000
# 2 -0.011177 0.042817 -0.000654 0.000000 -0.006771 0.000000
# 3 -0.002992 -0.000654 0.007423 0.000000 -0.001704 0.000000
# 4 0.000000 0.000000 0.000000 0.056804 0.000000 -0.016570
# 5 0.006701 -0.006771 -0.001704 0.000000 0.022608 0.000000
# 6 0.000000 0.000000 0.000000 -0.016570 0.000000 0.015194
#
#
# Mechanical properties :
#
#
# Convention : Reuss Voigt Hill
#
# Bulk Modulus (GPa) = 26.30464 42.38580 34.34522
# Shear Modulus (GPa) = 24.43961 47.81680 36.12821
#
# Velocity S-wave (km/s) = 3.34340 4.67662 4.06504
# Velocity P-wave (km/s) = 5.18998 6.96762 6.14343
#
# Compressibility (1/GPa) = 0.03801610
#
# Stress axis : x y z
#
# Youngs Moduli (GPa) = 57.40044 23.35497 134.71559
#
# Poissons Ratio (x) = 0.26103 0.40311
# Poissons Ratio (y) = 0.64155 0.08808
# Poissons Ratio (z) = 0.17176 0.01527
#
# Static dielectric constant tensor:
#      x y z
#    x 1.834600 0.000000 0.009410 
#    y 0.000000 1.816310 0.000000 
#    z 0.009410 0.000000 2.645710 
# 
# From -- ./inp_files/89420.got.cif
#   From: 2010.05.17/outbox.cif.g08.bks.cpg/sg15_45_cif.got.tgz:89420.got - 2010.06.03 18:47:42.
