data_PCOD9263214
_publ_section_title
;
Structure prediction by ZEFSAII (Michael W. Deem and Ramdas Pophale) SiO2 
 PCOD9263214
Probable space group: C 2/C
;
_chemical_formula_sum "Si O2"
_cell_formula_units_Z 64
_cell_length_a 26.779711
_cell_length_b 24.422206
_cell_length_c 11.899979
_cell_angle_alpha 90.000000
_cell_angle_beta 149.768114
_cell_angle_gamma 90.000000
_cell_volume 3918.656358
_symmetry_space_group_name_H-M "C 2/C"
_symmetry_group_IT_number 15
_symmetry_cell_setting 'monoclinic'
loop_
_space_group_symop_operation_xyz
x,y,z
-x,y,1/2-z
-x,-y,-z
x,-y,1/2+z
1/2+x,1/2+y,z
1/2-x,1/2+y,1/2-z
1/2-x,1/2-y,-z
1/2+x,1/2-y,1/2+z
loop_
_atom_site_type_symbol
_atom_site_label
_atom_site_fract_x
_atom_site_fract_y
_atom_site_fract_z
Si Si1 0.192682 0.898112 0.624352
Si Si2 0.788800 0.249752 0.703591
Si Si3 0.427412 0.502300 0.513667
Si Si4 0.520275 0.675055 0.412001
Si Si5 0.080286 0.918409 0.183185
Si Si6 0.634821 0.762401 0.300818
Si Si7 0.114995 0.655412 0.963348
Si Si8 0.391345 0.720797 0.488909
O O1 0.150710 0.955173 0.587774
O O2 0.158240 0.896854 0.426764
O O3 0.147600 0.842686 0.594918
O O4 0.309125 0.893893 0.872337
O O5 0.750000 0.250000 0.500000
O O6 0.691564 0.249875 0.594303
O O7 0.870396 0.202209 0.874317
O O8 0.850174 0.302115 0.870816
O O9 0.500000 0.477706 0.750000
O O10 0.380947 0.456142 0.343695
O O11 0.501973 0.542446 0.592108
O O12 0.500000 0.651132 0.250000
O O13 0.522064 0.631530 0.514555
O O14 0.432558 0.718713 0.262648
O O15 0.750000 0.750000 0.500000
O O16 0.630495 0.815326 0.372256
O O17 0.594468 0.756210 0.096327
O O18 0.000000 0.642496 0.750000
O O19 0.500000 0.716079 0.750000
#
# Coordination Sequence:
#
# PCOD9263214 Si02
#       8
#     8   8   8   8   8   8   8   8
#     4  10  19  34  54  75 104 134 184 214 273 324
#     4  11  20  33  47  70 107 142 177 216 259 310
#     4   9  18  35  52  78 104 129 171 228 268 332
#     4  12  20  32  47  74 108 144 169 213 265 326
#     4  10  20  31  53  77 105 136 167 218 282 325
#     4  12  19  33  49  72 108 142 183 222 248 310
#     4  11  21  36  52  77 106 149 184 226 258 318
#     4  11  21  32  51  77 101 147 181 216 261 313
#
# _framework density 16.332128999999998
#
# number of rings (size 3 to 8) (size 9 to 14) (size 15 to 20)
#    0.000    1.250    5.000    5.250    0.000    0.000 
#    0.000    0.000    0.000    0.750    0.000    0.875 
#    0.000    0.000    0.000    0.000    0.000    0.000 
#
# Total GULP energy -178172.104966 kJ/mol
# GULP energy per Si atom -5567.878280 kJ/mol
# Density = 1.629496 g / cm^3
# Si number density = 16.332129 Si / 1000 Ang^3
#
#
#
# Elastic Constant Matrix: (Units=GPa)
#
#
# Indices 1 2 3 4 5 6 
#
# 1 69.5917 17.2767 38.3548 0.0000 -5.0264 0.0000
# 2 17.2767 43.2414 25.5730 0.0000 -4.1465 0.0000
# 3 38.3548 25.5730 117.1277 0.0000 6.4823 0.0000
# 4 0.0000 0.0000 0.0000 17.7960 0.0000 -3.0649
# 5 -5.0264 -4.1465 6.4823 0.0000 35.0500 0.0000
# 6 0.0000 0.0000 0.0000 -3.0649 0.0000 5.2568
#
#
#
# Elastic Compliance Matrix: (Units=1/GPa)
#
#
# Indices 1 2 3 4 5 6 
#
# 1 0.018545 -0.003912 -0.005395 0.000000 0.003194 0.000000
# 2 -0.003912 0.028024 -0.005042 0.000000 0.003687 0.000000
# 3 -0.005395 -0.005042 0.011600 0.000000 -0.003515 0.000000
# 4 0.000000 0.000000 0.000000 0.062465 0.000000 0.036419
# 5 0.003194 0.003687 -0.003515 0.000000 0.030075 0.000000
# 6 0.000000 0.000000 0.000000 0.036419 0.000000 0.211462
#
#
# Mechanical properties :
#
#
# Convention : Reuss Voigt Hill
#
# Bulk Modulus (GPa) = 33.93222 43.59665 38.76443
# Shear Modulus (GPa) = 12.47838 21.53767 17.00803
#
# Velocity S-wave (km/s) = 2.76712 3.63537 3.23055
# Velocity P-wave (km/s) = 5.57053 6.66131 6.14019
#
# Compressibility (1/GPa) = 0.02947051
#
# Stress axis : x y z
#
# Youngs Moduli (GPa) = 53.92237 35.68347 86.20848
#
# Poissons Ratio (x) = 0.13961 0.46513
# Poissons Ratio (y) = 0.21096 0.43462
# Poissons Ratio (z) = 0.29093 0.17990
#
# Static dielectric constant tensor:
#      x y z
#    x 1.614640 0.000000 -0.037550 
#    y 0.000000 1.564340 0.000000 
#    z -0.037550 0.000000 1.597770 
# 
# From -- ./inp_files/124467.got.cif
#   From: 2010.05.17/outbox.cif.g08.bks.cpg/sg15_63_cif.got.tgz:124467.got - 2010.06.03 18:47:42.
