data_PCOD9263433
_publ_section_title
;
Structure prediction by ZEFSAII (Michael W. Deem and Ramdas Pophale) SiO2 
 PCOD9263433
Probable space group: C 2/C
;
_chemical_formula_sum "Si O2"
_cell_formula_units_Z 56
_cell_length_a 12.233966
_cell_length_b 16.889290
_cell_length_c 14.912203
_cell_angle_alpha 90.000000
_cell_angle_beta 63.936723
_cell_angle_gamma 90.000000
_cell_volume 2767.874511
_symmetry_space_group_name_H-M "C 2/C"
_symmetry_group_IT_number 15
_symmetry_cell_setting 'monoclinic'
loop_
_space_group_symop_operation_xyz
x,y,z
-x,y,1/2-z
-x,-y,-z
x,-y,1/2+z
1/2+x,1/2+y,z
1/2-x,1/2+y,1/2-z
1/2-x,1/2-y,-z
1/2+x,1/2-y,1/2+z
loop_
_atom_site_type_symbol
_atom_site_label
_atom_site_fract_x
_atom_site_fract_y
_atom_site_fract_z
Si Si1 0.139193 0.160203 0.038902
Si Si2 0.009910 0.999748 0.140093
Si Si3 0.414195 0.958413 0.131488
Si Si4 0.263905 0.433732 0.145029
Si Si5 0.096020 0.324808 0.993760
Si Si6 0.736706 0.944665 0.495908
Si Si7 0.480982 0.866317 0.860323
O O1 0.052582 0.087006 0.093275
O O2 0.259592 0.158222 0.057056
O O3 0.193311 0.145570 0.919578
O O4 0.078811 0.245709 0.058550
O O5 0.000000 0.999194 0.250000
O O6 0.882555 0.974990 0.144091
O O7 0.119093 0.941116 0.071130
O O8 0.337888 0.926555 0.243107
O O9 0.466072 0.044408 0.140382
O O10 0.517251 0.896192 0.064465
O O11 0.325414 0.966498 0.076936
O O12 0.220829 0.489498 0.078949
O O13 0.049365 0.314187 0.909302
O O14 0.660976 0.870861 0.561131
O O15 0.500000 0.846192 0.750000
#
# Coordination Sequence:
#
# PCOD9263433 Si02
#       7
#     8   8   8   8   8   8   8
#     4  10  22  42  58  84 124 163 196 242 297 366
#     4  11  21  37  62  89 118 155 203 252 302 352
#     4  11  20  35  61  92 118 150 201 253 303 350
#     4  11  21  36  63  88 117 156 202 255 300 350
#     4  10  23  40  59  86 127 158 197 245 300 367
#     4  10  19  34  56  88 118 145 190 251 301 347
#     4  11  20  34  62  91 118 154 198 253 303 350
#
# _framework density 20.232130000000002
#
# number of rings (size 3 to 8) (size 9 to 14) (size 15 to 20)
#    0.000    1.429    2.857    6.857    0.000    0.000 
#    5.143    0.714    0.000    6.857    0.000    0.000 
#    0.000    0.000    0.000    0.000    0.000    0.000 
#
# Total GULP energy -156359.929185 kJ/mol
# GULP energy per Si atom -5584.283185 kJ/mol
# Density = 2.018608 g / cm^3
# Si number density = 20.232130 Si / 1000 Ang^3
#
#
#
# Elastic Constant Matrix: (Units=GPa)
#
#
# Indices 1 2 3 4 5 6 
#
# 1 93.8096 29.9786 27.3017 0.0000 13.2592 0.0000
# 2 29.9786 32.1299 -1.1247 0.0000 1.9329 0.0000
# 3 27.3017 -1.1247 129.9407 0.0000 10.1654 0.0000
# 4 0.0000 0.0000 0.0000 11.2784 0.0000 4.1409
# 5 13.2592 1.9329 10.1654 0.0000 32.3460 0.0000
# 6 0.0000 0.0000 0.0000 4.1409 0.0000 24.1783
#
#
#
# Elastic Compliance Matrix: (Units=1/GPa)
#
#
# Indices 1 2 3 4 5 6 
#
# 1 0.017561 -0.016195 -0.003427 0.000000 -0.005154 0.000000
# 2 -0.016195 0.046195 0.003587 0.000000 0.002751 0.000000
# 3 -0.003427 0.003587 0.008564 0.000000 -0.001501 0.000000
# 4 0.000000 0.000000 0.000000 0.094615 0.000000 -0.016204
# 5 -0.005154 0.002751 -0.001501 0.000000 0.033336 0.000000
# 6 0.000000 0.000000 0.000000 -0.016204 0.000000 0.044135
#
#
# Mechanical properties :
#
#
# Convention : Reuss Voigt Hill
#
# Bulk Modulus (GPa) = 24.84413 40.91015 32.87714
# Shear Modulus (GPa) = 17.24785 26.87549 22.06167
#
# Velocity S-wave (km/s) = 2.92292 3.64862 3.30574
# Velocity P-wave (km/s) = 4.86801 6.16556 5.55480
#
# Compressibility (1/GPa) = 0.04025096
#
# Stress axis : x y z
#
# Youngs Moduli (GPa) = 56.94398 21.64754 116.76386
#
# Poissons Ratio (x) = 0.35059 0.40012
# Poissons Ratio (y) = 0.92222 -0.41888
# Poissons Ratio (z) = 0.19513 -0.07766
#
# Static dielectric constant tensor:
#      x y z
#    x 1.753450 0.000000 -0.006820 
#    y 0.000000 1.725080 0.000000 
#    z -0.006820 0.000000 1.721740 
# 
# From -- ./inp_files/146669.got.cif
#   From: 2010.05.17/outbox.cif.g08.bks.cpg/sg15_74_cif.got.tgz:146669.got - 2010.06.03 18:47:42.
