data_PCOD9263313
_publ_section_title
;
Structure prediction by ZEFSAII (Michael W. Deem and Ramdas Pophale) SiO2 
 PCOD9263313
Probable space group: C 2/C
;
_chemical_formula_sum "Si O2"
_cell_formula_units_Z 56
_cell_length_a 10.725347
_cell_length_b 21.549918
_cell_length_c 9.107777
_cell_angle_alpha 90.000000
_cell_angle_beta 84.220890
_cell_angle_gamma 90.000000
_cell_volume 2094.384557
_symmetry_space_group_name_H-M "C 2/C"
_symmetry_group_IT_number 15
_symmetry_cell_setting 'monoclinic'
loop_
_space_group_symop_operation_xyz
x,y,z
-x,y,1/2-z
-x,-y,-z
x,-y,1/2+z
1/2+x,1/2+y,z
1/2-x,1/2+y,1/2-z
1/2-x,1/2-y,-z
1/2+x,1/2-y,1/2+z
loop_
_atom_site_type_symbol
_atom_site_label
_atom_site_fract_x
_atom_site_fract_y
_atom_site_fract_z
Si Si1 0.820732 0.540193 0.370082
Si Si2 0.996900 0.154055 0.483078
Si Si3 0.008359 0.372351 0.487036
Si Si4 0.631710 0.758078 0.623499
Si Si5 0.788852 0.840515 0.786888
Si Si6 0.398022 0.545903 0.866312
Si Si7 0.813343 0.402658 0.291527
O O1 0.943971 0.567645 0.431370
O O2 0.771894 0.593912 0.263381
O O3 0.714914 0.525220 0.509848
O O4 0.847038 0.475521 0.291431
O O5 0.860240 0.162376 0.432619
O O6 0.044759 0.199220 0.604524
O O7 0.097637 0.165922 0.343152
O O8 0.016776 0.083992 0.531703
O O9 0.045165 0.314619 0.580355
O O10 0.104366 0.368055 0.339368
O O11 0.869863 0.377684 0.438202
O O12 0.750000 0.750000 0.500000
O O13 0.696882 0.782832 0.764298
O O14 0.500000 0.509811 0.750000
O O15 0.324947 0.592485 0.761550
#
# Coordination Sequence:
#
# PCOD9263313 Si02
#       7
#     8   8   8   8   8   8   8
#     4   9  18  36  55  79 117 157 196 247 311 359
#     4   9  17  32  54  80 116 150 185 248 302 351
#     4   9  19  33  56  90 119 144 200 243 297 381
#     4   9  16  29  55  88 119 150 191 242 296 363
#     4   8  16  30  50  81 112 145 190 234 295 370
#     4  10  22  39  53  83 116 158 211 257 297 368
#     4  10  19  34  55  82 118 158 193 252 303 348
#
# _framework density 26.738164999999999
#
# number of rings (size 3 to 8) (size 9 to 14) (size 15 to 20)
#    0.000    2.857    0.000    3.000    0.000    6.286 
#   10.286    0.000    0.000    3.429    7.429    0.000 
#    0.000    0.000    0.000    0.000    0.000    1.429 
#
# Total GULP energy -156367.840946 kJ/mol
# GULP energy per Si atom -5584.565748 kJ/mol
# Density = 2.667731 g / cm^3
# Si number density = 26.738165 Si / 1000 Ang^3
#
#
#
# Elastic Constant Matrix: (Units=GPa)
#
#
# Indices 1 2 3 4 5 6 
#
# 1 155.0235 9.1457 65.5033 0.0000 0.4534 0.0000
# 2 9.1457 55.0705 11.9903 0.0000 12.9343 0.0000
# 3 65.5033 11.9903 88.8384 0.0000 32.5791 0.0000
# 4 0.0000 0.0000 0.0000 53.2272 0.0000 -91.6301
# 5 0.4534 12.9343 32.5791 0.0000 69.6751 0.0000
# 6 0.0000 0.0000 0.0000 -91.6301 0.0000 286.7891
#
#
#
# Elastic Compliance Matrix: (Units=1/GPa)
#
#
# Indices 1 2 3 4 5 6 
#
# 1 0.010328 -0.000750 -0.009101 0.000000 0.004327 0.000000
# 2 -0.000750 0.019215 -0.000886 0.000000 -0.003148 0.000000
# 3 -0.009101 -0.000886 0.021730 0.000000 -0.009937 0.000000
# 4 0.000000 0.000000 0.000000 0.041752 0.000000 0.013340
# 5 0.004327 -0.003148 -0.009937 0.000000 0.019555 0.000000
# 6 0.000000 0.000000 0.000000 0.013340 0.000000 0.007749
#
#
# Mechanical properties :
#
#
# Convention : Reuss Voigt Hill
#
# Bulk Modulus (GPa) = 33.55704 52.46790 43.01247
# Shear Modulus (GPa) = 32.95211 96.09115 64.52163
#
# Velocity S-wave (km/s) = 3.51436 6.00132 4.91765
# Velocity P-wave (km/s) = 5.38936 8.22718 6.95456
#
# Compressibility (1/GPa) = 0.02980000
#
# Stress axis : x y z
#
# Youngs Moduli (GPa) = 96.82850 52.04175 46.01888
#
# Poissons Ratio (x) = 0.03903 0.41880
# Poissons Ratio (y) = 0.07263 0.04077
# Poissons Ratio (z) = 0.88119 0.04611
#
# Static dielectric constant tensor:
#      x y z
#    x 2.136180 0.000000 -0.057840 
#    y 0.000000 2.055440 0.000000 
#    z -0.057840 0.000000 2.181890 
# 
# From -- ./inp_files/89054.got.cif
#   From: 2010.05.17/outbox.cif.g08.bks.cpg/sg15_45_cif.got.tgz:89054.got - 2010.06.03 18:47:42.
