data_PCOD9263350
_publ_section_title
;
Structure prediction by ZEFSAII (Michael W. Deem and Ramdas Pophale) SiO2 
 PCOD9263350
Probable space group: C 2/C
;
_chemical_formula_sum "Si O2"
_cell_formula_units_Z 56
_cell_length_a 8.678778
_cell_length_b 16.522929
_cell_length_c 19.144448
_cell_angle_alpha 90.000000
_cell_angle_beta 121.683925
_cell_angle_gamma 90.000000
_cell_volume 2336.129142
_symmetry_space_group_name_H-M "C 2/C"
_symmetry_group_IT_number 15
_symmetry_cell_setting 'monoclinic'
loop_
_space_group_symop_operation_xyz
x,y,z
-x,y,1/2-z
-x,-y,-z
x,-y,1/2+z
1/2+x,1/2+y,z
1/2-x,1/2+y,1/2-z
1/2-x,1/2-y,-z
1/2+x,1/2-y,1/2+z
loop_
_atom_site_type_symbol
_atom_site_label
_atom_site_fract_x
_atom_site_fract_y
_atom_site_fract_z
Si Si1 0.628625 0.481255 0.835700
Si Si2 0.555842 0.245162 0.093339
Si Si3 0.266974 0.623106 0.495925
Si Si4 0.634995 0.117969 0.620640
Si Si5 0.605340 0.425336 0.610171
Si Si6 0.219982 0.364628 0.524633
Si Si7 0.794419 0.276940 0.724976
O O1 0.500000 0.435697 0.750000
O O2 0.726855 0.552067 0.815889
O O3 0.486893 0.496496 0.866319
O O4 0.779444 0.426060 0.908118
O O5 0.449515 0.328310 0.057702
O O6 0.650407 0.216892 0.044285
O O7 0.697721 0.239259 0.190217
O O8 0.386907 0.184468 0.069828
O O9 0.186157 0.601085 0.551496
O O10 0.304790 0.559381 0.443370
O O11 0.419692 0.108991 0.568250
O O12 0.682379 0.206695 0.659186
O O13 0.427335 0.370446 0.553515
O O14 0.730438 0.366030 0.686259
O O15 0.000000 0.265126 0.750000
#
# Coordination Sequence:
#
# PCOD9263350 Si02
#       7
#     8   8   8   8   8   8   8
#     4  10  22  40  61  87 118 158 202 248 301 367
#     4  10  19  34  57  86 122 147 200 248 299 350
#     4  10  19  34  55  89 117 154 194 246 299 358
#     4  11  22  38  64  87 119 161 203 250 302 367
#     4  10  22  37  59  87 119 159 200 245 301 364
#     4   9  22  39  60  85 119 161 199 242 299 375
#     4  12  20  34  60  94 118 155 204 259 301 346
#
# _framework density 23.971277000000001
#
# number of rings (size 3 to 8) (size 9 to 14) (size 15 to 20)
#    0.857    0.857    2.857    3.429    0.000    2.857 
#    0.000    0.000    0.000    0.000    0.000    0.000 
#    0.000    0.000    0.000    0.000    0.000    0.000 
#
# Total GULP energy -156082.014020 kJ/mol
# GULP energy per Si atom -5574.357644 kJ/mol
# Density = 2.391672 g / cm^3
# Si number density = 23.971277 Si / 1000 Ang^3
#
#
#
# Elastic Constant Matrix: (Units=GPa)
#
#
# Indices 1 2 3 4 5 6 
#
# 1 38.0335 -13.5757 23.6093 0.0000 2.5780 0.0000
# 2 -13.5757 50.4116 16.2850 0.0000 10.0442 0.0000
# 3 23.6093 16.2850 111.8377 0.0000 15.2575 0.0000
# 4 0.0000 0.0000 0.0000 26.8897 0.0000 5.7554
# 5 2.5780 10.0442 15.2575 0.0000 36.0734 0.0000
# 6 0.0000 0.0000 0.0000 5.7554 0.0000 23.9004
#
#
#
# Elastic Compliance Matrix: (Units=1/GPa)
#
#
# Indices 1 2 3 4 5 6 
#
# 1 0.037194 0.013566 -0.009497 0.000000 -0.002418 0.000000
# 2 0.013566 0.026574 -0.005934 0.000000 -0.005859 0.000000
# 3 -0.009497 -0.005934 0.012196 0.000000 -0.002827 0.000000
# 4 0.000000 0.000000 0.000000 0.039210 0.000000 -0.009442
# 5 -0.002418 -0.005859 -0.002827 0.000000 0.030721 0.000000
# 6 0.000000 0.000000 0.000000 -0.009442 0.000000 0.044114
#
#
# Mechanical properties :
#
#
# Convention : Reuss Voigt Hill
#
# Bulk Modulus (GPa) = 13.84379 28.10221 20.97300
# Shear Modulus (GPa) = 22.95485 28.97033 25.96259
#
# Velocity S-wave (km/s) = 3.09787 3.48018 3.29457
# Velocity P-wave (km/s) = 4.31085 5.28182 4.82084
#
# Compressibility (1/GPa) = 0.07223457
#
# Stress axis : x y z
#
# Youngs Moduli (GPa) = 26.88582 37.63019 81.99224
#
# Poissons Ratio (x) = -0.51050 0.77871
# Poissons Ratio (y) = -0.36474 0.48655
# Poissons Ratio (z) = 0.25534 0.22330
#
# Static dielectric constant tensor:
#      x y z
#    x 1.931270 0.000000 -0.030310 
#    y 0.000000 2.002950 0.000000 
#    z -0.030310 0.000000 2.036080 
# 
# From -- ./inp_files/233577.got.cif
#   From: 2010.05.17/outbox.cif.g08.bks.cpg/sg15_117_cif.got.tgz:233577.got - 2010.06.03 18:47:42.
