data_PCOD9263420
_publ_section_title
;
Structure prediction by ZEFSAII (Michael W. Deem and Ramdas Pophale) SiO2 
 PCOD9263420
Probable space group: C 2/C
;
_chemical_formula_sum "Si O2"
_cell_formula_units_Z 56
_cell_length_a 7.481209
_cell_length_b 14.772438
_cell_length_c 24.196340
_cell_angle_alpha 90.000000
_cell_angle_beta 63.880270
_cell_angle_gamma 90.000000
_cell_volume 2400.988161
_symmetry_space_group_name_H-M "C 2/C"
_symmetry_group_IT_number 15
_symmetry_cell_setting 'monoclinic'
loop_
_space_group_symop_operation_xyz
x,y,z
-x,y,1/2-z
-x,-y,-z
x,-y,1/2+z
1/2+x,1/2+y,z
1/2-x,1/2+y,1/2-z
1/2-x,1/2-y,-z
1/2+x,1/2-y,1/2+z
loop_
_atom_site_type_symbol
_atom_site_label
_atom_site_fract_x
_atom_site_fract_y
_atom_site_fract_z
Si Si1 0.915127 0.038969 0.595478
Si Si2 0.900561 0.158861 0.113007
Si Si3 0.756923 0.662676 0.667130
Si Si4 0.474192 0.713747 0.985481
Si Si5 0.199086 0.161137 0.796016
Si Si6 0.277649 0.832305 0.631982
Si Si7 0.369961 0.985884 0.073603
O O1 0.772994 0.090983 0.657982
O O2 0.961705 0.112791 0.542339
O O3 0.141991 0.018556 0.583939
O O4 0.831600 0.938074 0.599908
O O5 0.742788 0.231276 0.154767
O O6 0.996689 0.209542 0.047589
O O7 0.051698 0.151840 0.143468
O O8 0.816278 0.651612 0.722910
O O9 0.528962 0.635150 0.688498
O O10 0.893687 0.605633 0.606281
O O11 0.250000 0.750000 0.000000
O O12 0.615388 0.779567 0.932545
O O13 0.213469 0.263070 0.818170
O O14 0.380535 0.930447 0.615139
O O15 0.500000 0.000000 0.000000
#
# Coordination Sequence:
#
# PCOD9263420 Si02
#       7
#     8   8   8   8   8   8   8
#     4   9  20  35  56  82 113 147 184 235 286 338
#     4  11  21  34  55  85 112 142 180 230 291 336
#     4  10  21  37  60  80 109 151 195 235 279 349
#     4  11  20  36  58  81 112 150 187 224 274 343
#     4   9  20  41  58  78 107 150 199 235 278 340
#     4  10  21  35  55  81 114 143 180 235 284 334
#     4  10  19  34  56  86 115 148 187 232 291 349
#
# _framework density 23.323729
#
# number of rings (size 3 to 8) (size 9 to 14) (size 15 to 20)
#    0.000    2.000    0.000    5.143    0.000    2.857 
#    0.000    8.571    0.000    0.000    0.000    0.000 
#    0.000    0.000    0.000    0.000    0.000    0.000 
#
# Total GULP energy -156066.148535 kJ/mol
# GULP energy per Si atom -5573.791019 kJ/mol
# Density = 2.327064 g / cm^3
# Si number density = 23.323729 Si / 1000 Ang^3
#
#
#
# Elastic Constant Matrix: (Units=GPa)
#
#
# Indices 1 2 3 4 5 6 
#
# 1 51.0894 -0.5056 10.0211 0.0000 -1.0961 0.0000
# 2 -0.5056 147.8888 52.3499 0.0000 -0.7730 0.0000
# 3 10.0211 52.3499 104.8763 0.0000 9.5389 0.0000
# 4 0.0000 0.0000 0.0000 15.9822 0.0000 1.7850
# 5 -1.0961 -0.7730 9.5389 0.0000 24.0276 0.0000
# 6 0.0000 0.0000 0.0000 1.7850 0.0000 19.8044
#
#
#
# Elastic Compliance Matrix: (Units=1/GPa)
#
#
# Indices 1 2 3 4 5 6 
#
# 1 0.020137 0.001001 -0.002604 0.000000 0.001985 0.000000
# 2 0.001001 0.008353 -0.004455 0.000000 0.002083 0.000000
# 3 -0.002604 -0.004455 0.012482 0.000000 -0.005217 0.000000
# 4 0.000000 0.000000 0.000000 0.063206 0.000000 -0.005697
# 5 0.001985 0.002083 -0.005217 0.000000 0.043848 0.000000
# 6 0.000000 0.000000 0.000000 -0.005697 0.000000 0.051007
#
#
# Mechanical properties :
#
#
# Convention : Reuss Voigt Hill
#
# Bulk Modulus (GPa) = 34.65458 47.50948 41.08203
# Shear Modulus (GPa) = 22.64836 28.09548 25.37192
#
# Velocity S-wave (km/s) = 3.11954 3.47448 3.30178
# Velocity P-wave (km/s) = 5.27880 6.04234 5.67343
#
# Compressibility (1/GPa) = 0.02885621
#
# Stress axis : x y z
#
# Youngs Moduli (GPa) = 49.66020 119.71787 80.11565
#
# Poissons Ratio (x) = -0.11985 0.20865
# Poissons Ratio (y) = -0.04972 0.35688
# Poissons Ratio (z) = 0.12933 0.53329
#
# Static dielectric constant tensor:
#      x y z
#    x 1.948860 0.000000 0.015370 
#    y 0.000000 1.966550 0.000000 
#    z 0.015370 0.000000 1.881530 
# 
# From -- ./inp_files/288658.got.cif
#   From: 2010.05.17/outbox.cif.g08.bks.cpg/sg15_145_cif.got.tgz:288658.got - 2010.06.03 18:47:42.
