data_PCOD9263129
_publ_section_title
;
Structure prediction by ZEFSAII (Michael W. Deem and Ramdas Pophale) SiO2 
 PCOD9263129
Probable space group: C 2/C
;
_chemical_formula_sum "Si O2"
_cell_formula_units_Z 52
_cell_length_a 18.686204
_cell_length_b 19.631650
_cell_length_c 8.741682
_cell_angle_alpha 90.000000
_cell_angle_beta 59.990361
_cell_angle_gamma 90.000000
_cell_volume 2776.906988
_symmetry_space_group_name_H-M "C 2/C"
_symmetry_group_IT_number 15
_symmetry_cell_setting 'monoclinic'
loop_
_space_group_symop_operation_xyz
x,y,z
-x,y,1/2-z
-x,-y,-z
x,-y,1/2+z
1/2+x,1/2+y,z
1/2-x,1/2+y,1/2-z
1/2-x,1/2-y,-z
1/2+x,1/2-y,1/2+z
loop_
_atom_site_type_symbol
_atom_site_label
_atom_site_fract_x
_atom_site_fract_y
_atom_site_fract_z
Si Si1 0.532094 0.431909 0.043463
Si Si2 0.406556 0.345648 0.002290
Si Si3 0.787764 0.154053 0.367255
Si Si4 0.272344 0.545856 0.148556
Si Si5 0.000000 0.725106 0.750000
Si Si6 0.845701 0.299478 0.238158
Si Si7 0.251489 0.402919 0.331778
O O1 0.500000 0.423751 0.250000
O O2 0.500000 0.500000 0.000000
O O3 0.490614 0.375888 0.979403
O O4 0.629511 0.440444 0.946869
O O5 0.361788 0.375203 0.896777
O O6 0.434624 0.271138 0.917040
O O7 0.336880 0.361393 0.204668
O O8 0.743852 0.099510 0.306831
O O9 0.826049 0.218936 0.235468
O O10 0.719318 0.180089 0.559509
O O11 0.251718 0.468855 0.219385
O O12 0.246878 0.566932 0.006172
O O13 0.061466 0.688977 0.802173
O O14 0.820265 0.349068 0.128259
#
# Coordination Sequence:
#
# PCOD9263129 Si02
#       7
#     8   8   8   8   4   8   8
#     4  12  22  29  45  76 119 150 175 212 258 324
#     4  10  19  34  51  81 110 150 176 222 264 344
#     4   9  20  36  60  78 113 147 195 217 285 331
#     4  12  22  36  54  86 114 159 177 233 268 341
#     4  10  20  36  66  78 106 144 194 232 294 316
#     4   9  19  38  58  83 104 149 185 240 269 346
#     4  11  22  36  56  81 119 147 195 217 284 330
#
# _framework density 18.725868999999999
#
# number of rings (size 3 to 8) (size 9 to 14) (size 15 to 20)
#    0.000    1.538    3.077    4.615    3.231    0.615 
#    0.000    0.000    0.000    3.692    0.000    0.000 
#    0.000    0.000    0.000    0.000    0.000    0.000 
#
# Total GULP energy -144870.427619 kJ/mol
# GULP energy per Si atom -5571.939524 kJ/mol
# Density = 1.868325 g / cm^3
# Si number density = 18.725869 Si / 1000 Ang^3
#
#
#
# Elastic Constant Matrix: (Units=GPa)
#
#
# Indices 1 2 3 4 5 6 
#
# 1 85.5718 25.4140 7.3166 0.0000 25.6405 0.0000
# 2 25.4140 59.7304 10.9504 0.0000 22.6671 0.0000
# 3 7.3166 10.9504 49.5974 0.0000 21.1775 0.0000
# 4 0.0000 0.0000 0.0000 21.4947 0.0000 11.9174
# 5 25.6405 22.6671 21.1775 0.0000 27.5782 0.0000
# 6 0.0000 0.0000 0.0000 11.9174 0.0000 30.3662
#
#
#
# Elastic Compliance Matrix: (Units=1/GPa)
#
#
# Indices 1 2 3 4 5 6 
#
# 1 0.017530 -0.000855 0.006341 0.000000 -0.020465 0.000000
# 2 -0.000855 0.025136 0.004551 0.000000 -0.023359 0.000000
# 3 0.006341 0.004551 0.033233 0.000000 -0.035156 0.000000
# 4 0.000000 0.000000 0.000000 0.059461 0.000000 -0.023336
# 5 -0.020465 -0.023359 -0.035156 0.000000 0.101483 0.000000
# 6 0.000000 0.000000 0.000000 -0.023336 0.000000 0.042090
#
#
# Mechanical properties :
#
#
# Convention : Reuss Voigt Hill
#
# Bulk Modulus (GPa) = 10.41966 31.36241 20.89103
# Shear Modulus (GPa) = 17.19095 25.96906 21.58000
#
# Velocity S-wave (km/s) = 3.03319 3.72802 3.39841
# Velocity P-wave (km/s) = 4.22414 5.94267 5.15552
#
# Compressibility (1/GPa) = 0.09597245
#
# Stress axis : x y z
#
# Youngs Moduli (GPa) = 57.04566 39.78347 30.09034
#
# Poissons Ratio (x) = 0.03401 -0.19080
# Poissons Ratio (y) = 0.04877 -0.13693
# Poissons Ratio (z) = -0.36172 -0.18104
#
# Static dielectric constant tensor:
#      x y z
#    x 1.625720 0.000000 -0.149880 
#    y 0.000000 1.693600 0.000000 
#    z -0.149880 0.000000 1.858390 
# 
# From -- ./inp_files/49655.got.cif
#   From: 2010.05.17/outbox.cif.g08.bks.cpg/sg15_25_cif.got.tgz:49655.got - 2010.06.03 18:47:42.
