data_PCOD9263439
_publ_section_title
;
Structure prediction by ZEFSAII (Michael W. Deem and Ramdas Pophale) SiO2 
 PCOD9263439
Probable space group: C 2/C
;
_chemical_formula_sum "Si O2"
_cell_formula_units_Z 64
_cell_length_a 16.015019
_cell_length_b 8.057138
_cell_length_c 29.281752
_cell_angle_alpha 90.000000
_cell_angle_beta 131.008801
_cell_angle_gamma 90.000000
_cell_volume 2851.196715
_symmetry_space_group_name_H-M "C 2/C"
_symmetry_group_IT_number 15
_symmetry_cell_setting 'monoclinic'
loop_
_space_group_symop_operation_xyz
x,y,z
-x,y,1/2-z
-x,-y,-z
x,-y,1/2+z
1/2+x,1/2+y,z
1/2-x,1/2+y,1/2-z
1/2-x,1/2-y,-z
1/2+x,1/2-y,1/2+z
loop_
_atom_site_type_symbol
_atom_site_label
_atom_site_fract_x
_atom_site_fract_y
_atom_site_fract_z
Si Si1 0.894738 0.142814 0.092822
Si Si2 0.484131 0.860517 0.929798
Si Si3 0.905831 0.034376 0.503672
Si Si4 0.843216 0.215994 0.803226
Si Si5 0.155425 0.425429 0.532595
Si Si6 0.233769 0.766606 0.609471
Si Si7 0.864400 0.821355 0.826665
Si Si8 0.034090 0.861971 0.309692
O O1 0.893312 0.100397 0.038391
O O2 0.766835 0.174568 0.060400
O O3 0.923970 0.987967 0.136733
O O4 0.011203 0.238986 0.139977
O O5 0.558604 0.695934 0.954326
O O6 0.390507 0.842351 0.857970
O O7 0.420554 0.848020 0.955381
O O8 0.570306 0.013327 0.962683
O O9 0.800466 0.082992 0.435750
O O10 0.000000 0.000000 0.500000
O O11 0.721657 0.256343 0.741767
O O12 0.927407 0.228322 0.791216
O O13 0.854224 0.023836 0.823263
O O14 0.194899 0.599779 0.569572
O O15 0.171388 0.769688 0.635343
O O16 0.364117 0.758783 0.663279
O O17 0.000000 0.948058 0.250000
#
# Coordination Sequence:
#
# PCOD9263439 Si02
#       8
#     8   8   8   8   8   8   8   8
#     4  10  21  37  59  92 116 152 209 244 306 360
#     4  10  20  39  59  89 119 159 200 246 308 364
#     4  11  19  35  61  85 118 155 196 252 302 355
#     4  11  23  37  63  85 124 158 209 246 302 362
#     4   9  22  36  63  89 121 154 198 253 309 369
#     4  10  20  33  60  85 118 148 199 247 304 347
#     4  11  22  39  59  90 119 164 202 250 300 369
#     4  10  19  34  56  89 114 150 201 258 281 351
#
# _framework density 22.446715999999999
#
# number of rings (size 3 to 8) (size 9 to 14) (size 15 to 20)
#    0.000    1.750    5.000    0.000    3.500    2.500 
#    0.000    0.625    8.250    0.000    0.000    0.000 
#    0.000    0.000    0.000    0.000    0.000    0.000 
#
# Total GULP energy -178567.035500 kJ/mol
# GULP energy per Si atom -5580.219859 kJ/mol
# Density = 2.239563 g / cm^3
# Si number density = 22.446716 Si / 1000 Ang^3
#
#
#
# Elastic Constant Matrix: (Units=GPa)
#
#
# Indices 1 2 3 4 5 6 
#
# 1 100.0048 7.9106 43.4214 0.0000 25.6872 0.0000
# 2 7.9106 45.4962 32.1547 0.0000 9.7274 0.0000
# 3 43.4214 32.1547 156.2319 0.0000 9.3857 0.0000
# 4 0.0000 0.0000 0.0000 32.7631 0.0000 2.7884
# 5 25.6872 9.7274 9.3857 0.0000 45.7747 0.0000
# 6 0.0000 0.0000 0.0000 2.7884 0.0000 21.4503
#
#
#
# Elastic Compliance Matrix: (Units=1/GPa)
#
#
# Indices 1 2 3 4 5 6 
#
# 1 0.013247 0.001767 -0.003621 0.000000 -0.007067 0.000000
# 2 0.001767 0.026878 -0.005690 0.000000 -0.005536 0.000000
# 3 -0.003621 -0.005690 0.008488 0.000000 0.001501 0.000000
# 4 0.000000 0.000000 0.000000 0.030864 0.000000 -0.004012
# 5 -0.007067 -0.005536 0.001501 0.000000 0.026681 0.000000
# 6 0.000000 0.000000 0.000000 -0.004012 0.000000 0.047141
#
#
# Mechanical properties :
#
#
# Convention : Reuss Voigt Hill
#
# Bulk Modulus (GPa) = 29.82908 52.07848 40.95378
# Shear Modulus (GPa) = 27.84554 34.54737 31.19645
#
# Velocity S-wave (km/s) = 3.52592 3.92737 3.73205
# Velocity P-wave (km/s) = 5.46752 6.61944 6.07086
#
# Compressibility (1/GPa) = 0.03352434
#
# Stress axis : x y z
#
# Youngs Moduli (GPa) = 75.48826 37.20503 117.81259
#
# Poissons Ratio (x) = -0.06573 0.42658
# Poissons Ratio (y) = -0.13336 0.67039
# Poissons Ratio (z) = 0.27333 0.21171
#
# Static dielectric constant tensor:
#      x y z
#    x 1.825020 0.000000 0.027180 
#    y 0.000000 1.902210 0.000000 
#    z 0.027180 0.000000 1.855950 
# 
# From -- ./inp_files/313154.got.cif
#   From: 2010.05.17/outbox.cif.g08.bks.cpg/sg15_157_cif.got.tgz:313154.got - 2010.06.03 18:47:42.
