data_PCOD9263231
_publ_section_title
;
Structure prediction by ZEFSAII (Michael W. Deem and Ramdas Pophale) SiO2 
 PCOD9263231
Probable space group: C 2/C
;
_chemical_formula_sum "Si O2"
_cell_formula_units_Z 60
_cell_length_a 28.302239
_cell_length_b 14.494550
_cell_length_c 19.714415
_cell_angle_alpha 90.000000
_cell_angle_beta 157.218099
_cell_angle_gamma 90.000000
_cell_volume 3131.641925
_symmetry_space_group_name_H-M "C 2/C"
_symmetry_group_IT_number 15
_symmetry_cell_setting 'monoclinic'
loop_
_space_group_symop_operation_xyz
x,y,z
-x,y,1/2-z
-x,-y,-z
x,-y,1/2+z
1/2+x,1/2+y,z
1/2-x,1/2+y,1/2-z
1/2-x,1/2-y,-z
1/2+x,1/2-y,1/2+z
loop_
_atom_site_type_symbol
_atom_site_label
_atom_site_fract_x
_atom_site_fract_y
_atom_site_fract_z
Si Si1 0.262150 0.781928 0.218367
Si Si2 0.453961 0.407518 0.612198
Si Si3 0.000000 0.428703 0.750000
Si Si4 0.495100 0.192859 0.107643
Si Si5 0.354765 0.722541 0.799270
Si Si6 0.098888 0.130787 0.176492
Si Si7 0.268309 0.549929 0.615781
Si Si8 0.515330 0.395611 0.190400
O O1 0.381414 0.830582 0.408610
O O2 0.192422 0.740622 0.191806
O O3 0.304661 0.704918 0.222052
O O4 0.169896 0.852849 0.062336
O O5 0.500000 0.407291 0.750000
O O6 0.556868 0.364452 0.699164
O O7 0.438621 0.513969 0.568761
O O8 0.009660 0.368032 0.693736
O O9 0.870751 0.481883 0.577853
O O10 0.612091 0.201378 0.212672
O O11 0.477578 0.299270 0.107930
O O12 0.261842 0.647361 0.646592
O O13 0.475507 0.659729 0.973526
O O14 0.154933 0.028641 0.243495
O O15 0.348304 0.576846 0.655033
O O16 0.500000 0.384496 0.250000
#
# Coordination Sequence:
#
# PCOD9263231 Si02
#       8
#     8   8   4   8   8   8   8   8
#     4  10  19  34  54  80 110 142 182 233 272 320
#     4   9  19  36  59  85 104 139 188 236 279 313
#     4  12  22  34  54  84 124 154 168 220 296 340
#     4  10  20  33  53  85 112 144 180 224 278 332
#     4   9  18  34  58  80 105 144 194 236 264 317
#     4   9  19  35  57  81 107 145 191 228 274 325
#     4  10  20  34  54  82 116 150 183 223 272 343
#     4   9  18  35  59  83 109 141 191 234 268 319
#
# _framework density 19.159278
#
# number of rings (size 3 to 8) (size 9 to 14) (size 15 to 20)
#    0.000    2.400    2.000    0.400    0.000    6.933 
#    1.200    0.000   11.733    0.800    0.000    0.000 
#    0.000    0.000    0.000    0.000    0.000    0.000 
#
# Total GULP energy -167082.726419 kJ/mol
# GULP energy per Si atom -5569.424214 kJ/mol
# Density = 1.911567 g / cm^3
# Si number density = 19.159278 Si / 1000 Ang^3
#
#
#
# Elastic Constant Matrix: (Units=GPa)
#
#
# Indices 1 2 3 4 5 6 
#
# 1 52.4193 11.4577 -0.8225 0.0000 -8.4681 0.0000
# 2 11.4577 25.5499 5.9909 0.0000 5.5159 0.0000
# 3 -0.8225 5.9909 56.0433 0.0000 9.6662 0.0000
# 4 0.0000 0.0000 0.0000 18.2004 0.0000 5.2707
# 5 -8.4681 5.5159 9.6662 0.0000 23.1896 0.0000
# 6 0.0000 0.0000 0.0000 5.2707 0.0000 20.8135
#
#
#
# Elastic Compliance Matrix: (Units=1/GPa)
#
#
# Indices 1 2 3 4 5 6 
#
# 1 0.023906 -0.013241 -0.000304 0.000000 0.012006 0.000000
# 2 -0.013241 0.049042 -0.002792 0.000000 -0.015337 0.000000
# 3 -0.000304 -0.002792 0.019440 0.000000 -0.007550 0.000000
# 4 0.000000 0.000000 0.000000 0.059292 0.000000 -0.015015
# 5 0.012006 -0.015337 -0.007550 0.000000 0.054302 0.000000
# 6 0.000000 0.000000 0.000000 -0.015015 0.000000 0.051848
#
#
# Mechanical properties :
#
#
# Convention : Reuss Voigt Hill
#
# Bulk Modulus (GPa) = 16.74659 18.58497 17.66578
# Shear Modulus (GPa) = 16.10779 20.26646 18.18712
#
# Velocity S-wave (km/s) = 2.90268 3.25589 3.08435
# Velocity P-wave (km/s) = 4.47144 4.88424 4.68239
#
# Compressibility (1/GPa) = 0.05971365
#
# Stress axis : x y z
#
# Youngs Moduli (GPa) = 41.83067 20.39051 51.44154
#
# Poissons Ratio (x) = 0.26999 0.01566
# Poissons Ratio (y) = 0.55388 0.14360
# Poissons Ratio (z) = 0.01274 0.05692
#
# Static dielectric constant tensor:
#      x y z
#    x 1.711640 0.000000 0.023390 
#    y 0.000000 1.657080 0.000000 
#    z 0.023390 0.000000 1.704860 
# 
# From -- ./inp_files/248990.got.cif
#   From: 2010.05.17/outbox.cif.g08.bks.cpg/sg15_125_cif.got.tgz:248990.got - 2010.06.03 18:47:42.
