data_PCOD9263501
_publ_section_title
;
Structure prediction by ZEFSAII (Michael W. Deem and Ramdas Pophale) SiO2 
 PCOD9263501
Probable space group: C 2/C
;
_chemical_formula_sum "Si O2"
_cell_formula_units_Z 56
_cell_length_a 22.585997
_cell_length_b 21.650413
_cell_length_c 18.453234
_cell_angle_alpha 90.000000
_cell_angle_beta 19.329639
_cell_angle_gamma 90.000000
_cell_volume 2986.821801
_symmetry_space_group_name_H-M "C 2/C"
_symmetry_group_IT_number 15
_symmetry_cell_setting 'monoclinic'
loop_
_space_group_symop_operation_xyz
x,y,z
-x,y,1/2-z
-x,-y,-z
x,-y,1/2+z
1/2+x,1/2+y,z
1/2-x,1/2+y,1/2-z
1/2-x,1/2-y,-z
1/2+x,1/2-y,1/2+z
loop_
_atom_site_type_symbol
_atom_site_label
_atom_site_fract_x
_atom_site_fract_y
_atom_site_fract_z
Si Si1 0.364158 0.568802 0.085055
Si Si2 0.564234 0.178569 0.094735
Si Si3 0.991805 0.605145 0.477852
Si Si4 0.012562 0.803242 0.396484
Si Si5 0.078562 0.067771 0.988056
Si Si6 0.952036 0.272214 0.107875
Si Si7 0.408166 0.682950 0.431909
O O1 0.449205 0.576244 0.067612
O O2 0.150070 0.562581 0.324722
O O3 0.419897 0.632516 0.981856
O O4 0.439467 0.503795 0.969466
O O5 0.500000 0.166988 0.250000
O O6 0.499912 0.246784 0.144959
O O7 0.492986 0.125461 0.123316
O O8 0.778229 0.181490 0.835283
O O9 0.029847 0.669329 0.476146
O O10 0.787152 0.582878 0.726688
O O11 0.924943 0.775852 0.571928
O O12 0.037349 0.116692 0.098594
O O13 0.802134 0.306292 0.329493
O O14 0.053638 0.231918 0.048843
O O15 0.500000 0.695304 0.250000
#
# Coordination Sequence:
#
# PCOD9263501 Si02
#       7
#     8   8   8   8   8   8   8
#     4  11  20  36  64  84 108 155 206 243 279 337
#     4  11  22  36  56  89 125 150 184 248 307 354
#     4  10  20  38  61  86 115 148 198 246 289 346
#     4  11  19  36  58  85 115 149 199 237 287 356
#     4  10  22  38  58  86 114 152 204 244 282 346
#     4  10  19  34  57  85 107 146 188 232 290 349
#     4  11  21  36  55  83 120 147 182 242 299 346
#
# _framework density 18.749027000000002
#
# number of rings (size 3 to 8) (size 9 to 14) (size 15 to 20)
#    0.000    1.429    2.857    5.571    0.000    0.000 
#    0.000    2.143    0.000    0.000    0.000    0.000 
#    0.000    0.000    0.000    0.000    0.000    0.000 
#
# Total GULP energy -155900.692706 kJ/mol
# GULP energy per Si atom -5567.881882 kJ/mol
# Density = 1.870635 g / cm^3
# Si number density = 18.749027 Si / 1000 Ang^3
#
#
#
# Elastic Constant Matrix: (Units=GPa)
#
#
# Indices 1 2 3 4 5 6 
#
# 1 67.8569 10.7598 38.7072 -1.0464 7.7529 1.6143
# 2 10.7598 67.2507 5.0210 1.4003 6.2590 -2.2057
# 3 38.7072 5.0210 67.2232 2.2497 -5.5469 -3.5441
# 4 -1.0464 1.4003 2.2497 689.1616 -0.3769-1051.1188
# 5 7.7529 6.2590 -5.5469 -0.3769 34.3771 0.5870
# 6 1.6143 -2.2057 -3.5441-1051.1188 0.5870 1641.4030
#
#
#
# Elastic Compliance Matrix: (Units=1/GPa)
#
#
# Indices 1 2 3 4 5 6 
#
# 1 0.024079 -0.002101 -0.014318 -0.000001 -0.007357 -0.000055
# 2 -0.002101 0.015436 -0.000137 0.000010 -0.002359 0.000030
# 3 -0.014318 -0.000137 0.023718 0.000019 0.007080 0.000074
# 4 -0.000001 0.000010 0.000019 0.062313 0.000003 0.039904
# 5 -0.007357 -0.002359 0.007080 0.000003 0.032320 0.000010
# 6 -0.000055 0.000030 0.000074 0.039904 0.000010 0.026163
#
#
# Mechanical properties :
#
#
# Convention : Reuss Voigt Hill
#
# Bulk Modulus (GPa) = 33.19769 34.58966 33.89368
# Shear Modulus (GPa) = 22.00888 482.84454 252.42671
#
# Velocity S-wave (km/s) = 3.42989 16.06517 11.61580
# Velocity P-wave (km/s) = 5.78190 19.04227 14.07193
#
# Compressibility (1/GPa) = 0.03012258
#
# Stress axis : x y z
#
# Youngs Moduli (GPa) = 41.52970 64.78207 42.16250
#
# Poissons Ratio (x) = 0.13608 0.60368
# Poissons Ratio (y) = 0.08724 0.00577
# Poissons Ratio (z) = 0.59462 0.00887
#
# Static dielectric constant tensor:
#      x y z
#    x 1.657870 -0.000010 -0.063620 
#    y -0.000010 1.668930 0.000010 
#    z -0.063620 0.000010 1.700050 
# 
# From -- ./inp_files/216612.got.cif
#   From: 2010.05.17/outbox.cif.g08.bks.cpg/sg15_109_cif.got.tgz:216612.got - 2010.06.03 18:47:42.
