data_PCOD9263845
_publ_section_title
;
Structure prediction by ZEFSAII (Michael W. Deem and Ramdas Pophale) SiO2 
 PCOD9263845
Probable space group: C 2/C
;
_chemical_formula_sum "Si O2"
_cell_formula_units_Z 52
_cell_length_a 16.080067
_cell_length_b 31.440186
_cell_length_c 8.340746
_cell_angle_alpha 90.000000
_cell_angle_beta 137.791822
_cell_angle_gamma 90.000000
_cell_volume 2832.923653
_symmetry_space_group_name_H-M "C 2/C"
_symmetry_group_IT_number 15
_symmetry_cell_setting 'monoclinic'
loop_
_space_group_symop_operation_xyz
x,y,z
-x,y,1/2-z
-x,-y,-z
x,-y,1/2+z
1/2+x,1/2+y,z
1/2-x,1/2+y,1/2-z
1/2-x,1/2-y,-z
1/2+x,1/2-y,1/2+z
loop_
_atom_site_type_symbol
_atom_site_label
_atom_site_fract_x
_atom_site_fract_y
_atom_site_fract_z
Si Si1 0.643244 0.435503 0.467740
Si Si2 0.811469 0.366719 0.860562
Si Si3 0.733846 0.515680 0.783400
Si Si4 0.000000 0.518815 0.750000
Si Si5 0.858226 0.716225 0.613759
Si Si6 0.343795 0.077328 0.725951
Si Si7 0.549871 0.846935 0.992203
O O1 0.500000 0.425781 0.250000
O O2 0.716288 0.392301 0.613860
O O3 0.672168 0.471147 0.645725
O O4 0.680356 0.458449 0.355199
O O5 0.939459 0.363847 0.947368
O O6 0.798774 0.318190 0.904686
O O7 0.818658 0.395000 0.031983
O O8 0.737720 0.545450 0.631401
O O9 0.877426 0.506649 0.031826
O O10 0.961125 0.548513 0.843710
O O11 0.750000 0.750000 0.500000
O O12 0.000000 0.728408 0.750000
O O13 0.885922 0.690375 0.816952
O O14 0.365511 0.111121 0.898315
O O15 0.500000 0.833277 0.750000
#
# Coordination Sequence:
#
# PCOD9263845 Si02
#       7
#     8   8   8   4   8   8   8
#     4  12  24  40  54  76 119 166 207 250 295 352
#     4  10  20  39  57  82 117 154 199 239 298 356
#     4  12  24  34  54  83 113 158 211 252 300 341
#     4  12  20  32  54  82 114 146 198 256 292 330
#     4   9  20  41  67  91 120 155 188 240 305 373
#     4  11  19  33  55  83 117 152 193 255 301 337
#     4  10  19  34  61  91 120 150 192 246 297 353
#
# _framework density 18.355595000000001
#
# number of rings (size 3 to 8) (size 9 to 14) (size 15 to 20)
#    0.000    1.231    4.615    2.769    3.231    0.000 
#    0.000    8.462    0.000    0.000    0.000    0.000 
#    0.000    0.000    0.000    0.000    0.000    0.000 
#
# Total GULP energy -144894.793545 kJ/mol
# GULP energy per Si atom -5572.876675 kJ/mol
# Density = 1.831382 g / cm^3
# Si number density = 18.355595 Si / 1000 Ang^3
#
#
#
# Elastic Constant Matrix: (Units=GPa)
#
#
# Indices 1 2 3 4 5 6 
#
# 1 62.5064 47.2458 29.0330 0.0000 -4.0079 0.0000
# 2 47.2458 105.1951 42.0162 0.0000 15.6025 0.0000
# 3 29.0330 42.0162 72.7378 0.0000 9.9123 0.0000
# 4 0.0000 0.0000 0.0000 5.5856 0.0000 12.2584
# 5 -4.0079 15.6025 9.9123 0.0000 29.9562 0.0000
# 6 0.0000 0.0000 0.0000 12.2584 0.0000 25.5770
#
#
#
# Elastic Compliance Matrix: (Units=1/GPa)
#
#
# Indices 1 2 3 4 5 6 
#
# 1 0.029020 -0.012439 -0.006084 0.000000 0.012374 0.000000
# 2 -0.012439 0.018232 -0.004237 0.000000 -0.009758 0.000000
# 3 -0.006084 -0.004237 0.019305 0.000000 -0.004995 0.000000
# 4 0.000000 0.000000 0.000000 -3.452952 0.000000 1.654914
# 5 0.012374 -0.009758 -0.004995 0.000000 0.041773 0.000000
# 6 0.000000 0.000000 0.000000 1.654914 0.000000 -0.754062
#
#
# Mechanical properties :
#
#
# Convention : Reuss Voigt Hill
#
# Bulk Modulus (GPa) = 47.53618 53.00327 50.26972
# Shear Modulus (GPa) = -1.23574 20.36671 9.56548
#
# Velocity S-wave (km/s) = -0.82139 3.33463 2.28528
# Velocity P-wave (km/s) = 5.00540 6.61550 5.86595
#
# Compressibility (1/GPa) = 0.02103661
#
# Stress axis : x y z
#
# Youngs Moduli (GPa) = 34.45929 54.84740 51.80083
#
# Poissons Ratio (x) = 0.68223 0.31517
# Poissons Ratio (y) = 0.42863 0.21948
# Poissons Ratio (z) = 0.20966 0.23239
#
# Static dielectric constant tensor:
#      x y z
#    x 1.664920 0.000000 -0.029140 
#    y 0.000000 1.667540 0.000000 
#    z -0.029140 0.000000 1.652510 
# 
# From -- ./inp_files/44914.got.cif
#   From: 2010.05.17/outbox.cif.g08.bks.cpg/sg15_23_cif.got.tgz:44914.got - 2010.06.03 18:47:42.
