data_PCOD9263759
_publ_section_title
;
Structure prediction by ZEFSAII (Michael W. Deem and Ramdas Pophale) SiO2 
 PCOD9263759
Probable space group: C 2/C
;
_chemical_formula_sum "Si O2"
_cell_formula_units_Z 56
_cell_length_a 18.441740
_cell_length_b 10.178595
_cell_length_c 15.682776
_cell_angle_alpha 90.000000
_cell_angle_beta 125.820331
_cell_angle_gamma 90.000000
_cell_volume 2387.022487
_symmetry_space_group_name_H-M "C 2/C"
_symmetry_group_IT_number 15
_symmetry_cell_setting 'monoclinic'
loop_
_space_group_symop_operation_xyz
x,y,z
-x,y,1/2-z
-x,-y,-z
x,-y,1/2+z
1/2+x,1/2+y,z
1/2-x,1/2+y,1/2-z
1/2-x,1/2-y,-z
1/2+x,1/2-y,1/2+z
loop_
_atom_site_type_symbol
_atom_site_label
_atom_site_fract_x
_atom_site_fract_y
_atom_site_fract_z
Si Si1 0.338337 0.072304 0.304432
Si Si2 0.322024 0.036374 0.607462
Si Si3 0.043191 0.962558 0.188116
Si Si4 0.063526 0.361093 0.463172
Si Si5 0.293566 0.354204 0.265509
Si Si6 0.418772 0.754099 0.263185
Si Si7 0.129308 0.061545 0.505135
O O1 0.417876 0.108020 0.425262
O O2 0.274817 0.201992 0.267618
O O3 0.350692 0.049799 0.210372
O O4 0.288761 0.946592 0.311851
O O5 0.385387 0.042085 0.568131
O O6 0.334441 0.180921 0.659647
O O7 0.217559 0.018553 0.513661
O O8 0.090177 0.105080 0.216238
O O9 0.000000 0.953266 0.250000
O O10 0.119720 0.855679 0.234396
O O11 0.957441 0.971151 0.066901
O O12 0.101545 0.213139 0.470456
O O13 0.959933 0.344367 0.366329
O O14 0.335382 0.430993 0.375157
O O15 0.500000 0.759540 0.250000
#
# Coordination Sequence:
#
# PCOD9263759 Si02
#       7
#     8   8   8   8   8   8   8
#     4  10  23  38  60  91 117 160 202 244 305 348
#     4  10  19  34  60  82 123 151 202 247 293 348
#     4  10  20  33  59  88 119 155 199 243 299 350
#     4   9  18  34  56  85 120 156 200 244 293 356
#     4  10  22  39  60  85 125 153 200 248 295 361
#     4   8  17  32  54  90 115 155 200 248 290 348
#     4   9  19  34  56  89 112 156 204 239 293 345
#
# _framework density 23.460190000000001
#
# number of rings (size 3 to 8) (size 9 to 14) (size 15 to 20)
#    0.000    2.571    0.000    1.714    8.000    0.571 
#    0.000    2.857    6.286    0.000    0.000    0.000 
#    0.000    0.000    0.000    0.000    0.000    0.000 
#
# Total GULP energy -156067.654688 kJ/mol
# GULP energy per Si atom -5573.844810 kJ/mol
# Density = 2.340679 g / cm^3
# Si number density = 23.460190 Si / 1000 Ang^3
#
#
#
# Elastic Constant Matrix: (Units=GPa)
#
#
# Indices 1 2 3 4 5 6 
#
# 1 90.6819 23.5050 11.8669 0.0000 5.3396 0.0000
# 2 23.5050 56.2781 5.8716 0.0000 -0.3774 0.0000
# 3 11.8669 5.8716 77.3891 0.0000 2.7046 0.0000
# 4 0.0000 0.0000 0.0000 24.5529 0.0000 -0.0979
# 5 5.3396 -0.3774 2.7046 0.0000 37.7771 0.0000
# 6 0.0000 0.0000 0.0000 -0.0979 0.0000 22.7528
#
#
#
# Elastic Compliance Matrix: (Units=1/GPa)
#
#
# Indices 1 2 3 4 5 6 
#
# 1 0.012658 -0.005143 -0.001490 0.000000 -0.001734 0.000000
# 2 -0.005143 0.020003 -0.000763 0.000000 0.000981 0.000000
# 3 -0.001490 -0.000763 0.013234 0.000000 -0.000744 0.000000
# 4 0.000000 0.000000 0.000000 0.040729 0.000000 0.000175
# 5 -0.001734 0.000981 -0.000744 0.000000 0.026779 0.000000
# 6 0.000000 0.000000 0.000000 0.000175 0.000000 0.043951
#
#
# Mechanical properties :
#
#
# Convention : Reuss Voigt Hill
#
# Bulk Modulus (GPa) = 32.15192 34.09292 33.12242
# Shear Modulus (GPa) = 27.39508 29.22359 28.30933
#
# Velocity S-wave (km/s) = 3.42091 3.53323 3.47752
# Velocity P-wave (km/s) = 5.41647 5.58648 5.50213
#
# Compressibility (1/GPa) = 0.03110234
#
# Stress axis : x y z
#
# Youngs Moduli (GPa) = 79.00347 49.99243 75.56203
#
# Poissons Ratio (x) = 0.25710 0.11260
# Poissons Ratio (y) = 0.40629 0.05768
# Poissons Ratio (z) = 0.11773 0.03816
#
# Static dielectric constant tensor:
#      x y z
#    x 2.083940 0.000000 0.049730 
#    y 0.000000 1.937840 0.000000 
#    z 0.049730 0.000000 1.975390 
# 
# From -- ./inp_files/214857.got.cif
#   From: 2010.05.17/outbox.cif.g08.bks.cpg/sg15_108_cif.got.tgz:214857.got - 2010.06.03 18:47:42.
