data_PCOD9263193
_publ_section_title
;
Structure prediction by ZEFSAII (Michael W. Deem and Ramdas Pophale) SiO2 
 PCOD9263193
Probable space group: C 2/C
;
_chemical_formula_sum "Si O2"
_cell_formula_units_Z 56
_cell_length_a 15.203977
_cell_length_b 22.066977
_cell_length_c 15.402658
_cell_angle_alpha 90.000000
_cell_angle_beta 141.858886
_cell_angle_gamma 90.000000
_cell_volume 3191.562018
_symmetry_space_group_name_H-M "C 2/C"
_symmetry_group_IT_number 15
_symmetry_cell_setting 'monoclinic'
loop_
_space_group_symop_operation_xyz
x,y,z
-x,y,1/2-z
-x,-y,-z
x,-y,1/2+z
1/2+x,1/2+y,z
1/2-x,1/2+y,1/2-z
1/2-x,1/2-y,-z
1/2+x,1/2-y,1/2+z
loop_
_atom_site_type_symbol
_atom_site_label
_atom_site_fract_x
_atom_site_fract_y
_atom_site_fract_z
Si Si1 0.587973 0.690258 0.727740
Si Si2 0.000000 0.360338 0.750000
Si Si3 0.705804 0.965347 0.872405
Si Si4 0.074084 0.292076 0.985482
Si Si5 0.195308 0.509691 0.166687
Si Si6 0.005276 0.602028 0.560283
Si Si7 0.474966 0.449431 0.332648
Si Si8 0.500000 0.068389 0.750000
O O1 0.500000 0.696976 0.750000
O O2 0.505393 0.727873 0.588785
O O3 0.579997 0.619273 0.697849
O O4 0.752993 0.710380 0.871408
O O5 0.863584 0.403975 0.647722
O O6 0.975511 0.323282 0.643374
O O7 0.661818 0.971936 0.738811
O O8 0.633619 0.022147 0.864701
O O9 0.873470 0.961252 0.007347
O O10 0.018787 0.334475 0.021222
O O11 0.112903 0.445278 0.095039
O O12 0.357978 0.495162 0.276649
O O13 0.140625 0.565022 0.066739
O O14 0.027849 0.604149 0.681879
O O15 0.500000 0.457656 0.250000
#
# Coordination Sequence:
#
# PCOD9263193 Si02
#       8
#     8   4   8   8   8   8   8   4
#     4  11  24  36  54  80 115 150 184 224 270 334
#     4  11  20  34  56  80 116 144 184 219 268 334
#     4  10  20  32  53  85 111 148 177 224 273 337
#     4  12  23  38  56  82 113 148 189 225 274 331
#     4  10  19  34  53  81 112 144 179 225 276 334
#     4  10  20  36  57  79 107 144 187 228 275 330
#     4  11  21  33  51  79 119 148 180 219 277 324
#     4   9  20  36  58  80 108 142 190 223 280 330
#
# _framework density 17.546267
#
# number of rings (size 3 to 8) (size 9 to 14) (size 15 to 20)
#    0.000    1.429    3.571    3.429    4.000    0.000 
#    0.000    0.000    0.000    0.857    0.000    0.000 
#    0.000    0.000    0.000    0.000    0.000    0.000 
#
# Total GULP energy -156122.668539 kJ/mol
# GULP energy per Si atom -5575.809591 kJ/mol
# Density = 1.750633 g / cm^3
# Si number density = 17.546267 Si / 1000 Ang^3
#
#
#
# Elastic Constant Matrix: (Units=GPa)
#
#
# Indices 1 2 3 4 5 6 
#
# 1 62.8626 26.7958 25.1403 0.0000 5.0911 0.0000
# 2 26.7958 37.8437 10.4598 0.0000 -3.6498 0.0000
# 3 25.1403 10.4598 78.9240 0.0000 15.0082 0.0000
# 4 0.0000 0.0000 0.0000 5.0073 0.0000 2.7938
# 5 5.0911 -3.6498 15.0082 0.0000 38.5590 0.0000
# 6 0.0000 0.0000 0.0000 2.7938 0.0000 13.2303
#
#
#
# Elastic Compliance Matrix: (Units=1/GPa)
#
#
# Indices 1 2 3 4 5 6 
#
# 1 0.025440 -0.016818 -0.005328 0.000000 -0.002877 0.000000
# 2 -0.016818 0.039235 -0.001048 0.000000 0.006342 0.000000
# 3 -0.005328 -0.001048 0.015542 0.000000 -0.005445 0.000000
# 4 0.000000 0.000000 0.000000 0.226380 0.000000 -0.047803
# 5 -0.002877 0.006342 -0.005445 0.000000 0.029034 0.000000
# 6 0.000000 0.000000 0.000000 -0.047803 0.000000 0.085678
#
#
# Mechanical properties :
#
#
# Convention : Reuss Voigt Hill
#
# Bulk Modulus (GPa) = 29.56167 33.82469 31.69318
# Shear Modulus (GPa) = 10.43898 19.17496 14.80697
#
# Velocity S-wave (km/s) = 2.44179 3.30937 2.90812
# Velocity P-wave (km/s) = 4.98339 5.82425 5.42015
#
# Compressibility (1/GPa) = 0.03382759
#
# Stress axis : x y z
#
# Youngs Moduli (GPa) = 39.30748 25.48777 64.34230
#
# Poissons Ratio (x) = 0.42867 0.34279
# Poissons Ratio (y) = 0.66109 0.06746
# Poissons Ratio (z) = 0.20942 0.02672
#
# Static dielectric constant tensor:
#      x y z
#    x 1.595650 0.000000 0.005890 
#    y 0.000000 1.615430 0.000000 
#    z 0.005890 0.000000 1.601310 
# 
# From -- ./inp_files/156261.got.cif
#   From: 2010.05.17/outbox.cif.g08.bks.cpg/sg15_79_cif.got.tgz:156261.got - 2010.06.03 18:47:42.
