data_PCOD9263128
_publ_section_title
;
Structure prediction by ZEFSAII (Michael W. Deem and Ramdas Pophale) SiO2 
 PCOD9263128
Probable space group: C 2/C
;
_chemical_formula_sum "Si O2"
_cell_formula_units_Z 64
_cell_length_a 6.863875
_cell_length_b 21.755267
_cell_length_c 20.424452
_cell_angle_alpha 90.000000
_cell_angle_beta 55.614320
_cell_angle_gamma 90.000000
_cell_volume 2516.936101
_symmetry_space_group_name_H-M "C 2/C"
_symmetry_group_IT_number 15
_symmetry_cell_setting 'monoclinic'
loop_
_space_group_symop_operation_xyz
x,y,z
-x,y,1/2-z
-x,-y,-z
x,-y,1/2+z
1/2+x,1/2+y,z
1/2-x,1/2+y,1/2-z
1/2-x,1/2-y,-z
1/2+x,1/2-y,1/2+z
loop_
_atom_site_type_symbol
_atom_site_label
_atom_site_fract_x
_atom_site_fract_y
_atom_site_fract_z
Si Si1 0.865238 0.105762 0.144971
Si Si2 0.509324 0.927450 0.509728
Si Si3 0.153655 0.623660 0.323027
Si Si4 0.565285 0.267024 0.935138
Si Si5 0.504361 0.475295 0.071357
Si Si6 0.595318 0.248760 0.392687
Si Si7 0.643471 0.140157 0.860093
Si Si8 0.319191 0.623161 0.688841
O O1 0.824109 0.107849 0.230598
O O2 0.604770 0.108577 0.160221
O O3 0.976579 0.167277 0.091162
O O4 0.000290 0.041845 0.107054
O O5 0.788893 0.923648 0.472165
O O6 0.500000 0.000000 0.500000
O O7 0.373472 0.906578 0.599958
O O8 0.479914 0.893778 0.445394
O O9 0.215375 0.693330 0.331606
O O10 0.825598 0.264711 0.920039
O O11 0.590946 0.212118 0.878331
O O12 0.403769 0.249733 0.028449
O O13 0.305650 0.436612 0.145848
O O14 0.500000 0.500000 0.000000
O O15 0.685710 0.313794 0.350323
O O16 0.646373 0.122137 0.783786
O O17 0.912780 0.125348 0.831513
#
# Coordination Sequence:
#
# PCOD9263128 Si02
#       8
#     8   8   8   8   8   8   8   8
#     4  10  20  31  54  80 112 140 179 224 274 325
#     4  11  23  37  55  75 111 145 183 220 270 325
#     4  10  19  34  51  81 109 142 178 228 271 321
#     4   9  15  26  49  77 106 138 172 220 274 319
#     4  11  21  37  54  79 111 144 178 220 271 327
#     4   9  15  26  48  76 109 135 171 221 277 316
#     4   9  17  32  48  74 105 139 176 220 267 317
#     4   9  18  28  49  77 106 136 173 221 269 316
#
# _framework density 25.427741999999999
#
# number of rings (size 3 to 8) (size 9 to 14) (size 15 to 20)
#    0.000    2.250    2.500    1.500    5.250    3.000 
#    0.000    0.000    0.000    0.750    0.000    0.000 
#    0.000    0.000    0.000    0.000    0.000    0.000 
#
# Total GULP energy -178699.039122 kJ/mol
# GULP energy per Si atom -5584.344973 kJ/mol
# Density = 2.536987 g / cm^3
# Si number density = 25.427742 Si / 1000 Ang^3
#
#
#
# Elastic Constant Matrix: (Units=GPa)
#
#
# Indices 1 2 3 4 5 6 
#
# 1 68.7802 9.9489 35.8290 0.0000 4.6756 0.0000
# 2 9.9489 169.8815 111.0733 0.0000 13.5244 0.0000
# 3 35.8290 111.0733 280.7229 0.0000 32.3759 0.0000
# 4 0.0000 0.0000 0.0000 41.4234 0.0000 -1.0587
# 5 4.6756 13.5244 32.3759 0.0000 40.2729 0.0000
# 6 0.0000 0.0000 0.0000 -1.0587 0.0000 29.5673
#
#
#
# Elastic Compliance Matrix: (Units=1/GPa)
#
#
# Indices 1 2 3 4 5 6 
#
# 1 0.015611 0.000525 -0.002172 0.000000 -0.000242 0.000000
# 2 0.000525 0.007959 -0.003197 0.000000 -0.000163 0.000000
# 3 -0.002172 -0.003197 0.005458 0.000000 -0.003062 0.000000
# 4 0.000000 0.000000 0.000000 0.024163 0.000000 0.000865
# 5 -0.000242 -0.000163 -0.003062 0.000000 0.027375 0.000000
# 6 0.000000 0.000000 0.000000 0.000865 0.000000 0.033852
#
#
# Mechanical properties :
#
#
# Convention : Reuss Voigt Hill
#
# Bulk Modulus (GPa) = 51.70808 92.56522 72.13665
# Shear Modulus (GPa) = 38.29848 46.42162 42.36005
#
# Velocity S-wave (km/s) = 3.88515 4.27737 4.08597
# Velocity P-wave (km/s) = 6.36438 7.80236 7.11977
#
# Compressibility (1/GPa) = 0.01933934
#
# Stress axis : x y z
#
# Youngs Moduli (GPa) = 64.05656 125.63952 183.22661
#
# Poissons Ratio (x) = -0.06601 0.39804
# Poissons Ratio (y) = -0.03366 0.58586
# Poissons Ratio (z) = 0.13916 0.40173
#
# Static dielectric constant tensor:
#      x y z
#    x 2.996520 0.000000 0.006880 
#    y 0.000000 1.896030 0.000000 
#    z 0.006880 0.000000 1.793300 
# 
# From -- ./inp_files/239794.got.cif
#   From: 2010.05.17/outbox.cif.g08.bks.cpg/sg15_120_cif.got.tgz:239794.got - 2010.06.03 18:47:42.
