data_PCOD9263434
_publ_section_title
;
Structure prediction by ZEFSAII (Michael W. Deem and Ramdas Pophale) SiO2 
 PCOD9263434
Probable space group: C 2/C
;
_chemical_formula_sum "Si O2"
_cell_formula_units_Z 40
_cell_length_a 20.493661
_cell_length_b 12.625593
_cell_length_c 8.051616
_cell_angle_alpha 90.000000
_cell_angle_beta 122.732400
_cell_angle_gamma 90.000000
_cell_volume 1752.493071
_symmetry_space_group_name_H-M "C 2/C"
_symmetry_group_IT_number 15
_symmetry_cell_setting 'monoclinic'
loop_
_space_group_symop_operation_xyz
x,y,z
-x,y,1/2-z
-x,-y,-z
x,-y,1/2+z
1/2+x,1/2+y,z
1/2-x,1/2+y,1/2-z
1/2-x,1/2-y,-z
1/2+x,1/2-y,1/2+z
loop_
_atom_site_type_symbol
_atom_site_label
_atom_site_fract_x
_atom_site_fract_y
_atom_site_fract_z
Si Si1 0.048257 0.633500 0.659462
Si Si2 0.139908 0.046122 0.633616
Si Si3 0.354271 0.668333 0.512128
Si Si4 0.000000 0.156186 0.250000
Si Si5 0.778962 0.328854 0.181831
Si Si6 0.000000 0.320778 0.750000
O O1 0.043569 0.760624 0.689351
O O2 0.139753 0.615333 0.759536
O O3 0.003621 0.615205 0.426288
O O4 0.000000 0.590633 0.750000
O O5 0.151873 0.097957 0.830324
O O6 0.213939 0.085898 0.632261
O O7 0.061331 0.089442 0.439700
O O8 0.136251 0.919790 0.618548
O O9 0.291304 0.752499 0.359432
O O10 0.426559 0.744260 0.646196
O O11 0.750000 0.250000 0.000000
#
# Coordination Sequence:
#
# PCOD9263434 Si02
#       6
#     8   8   8   4   8   4
#     4   9  18  34  56  83 116 156 188 239 290 353
#     4  12  23  37  57  89 120 157 200 235 299 352
#     4  11  24  36  58  86 122 156 191 246 290 360
#     4  10  19  34  58  82 123 152 187 240 290 360
#     4  11  21  38  57  83 119 156 196 238 296 351
#     4  10  19  34  56  88 119 154 189 232 308 364
#
# _framework density 22.824628000000001
#
# number of rings (size 3 to 8) (size 9 to 14) (size 15 to 20)
#    0.600    0.800    4.000    2.400    2.800    1.600 
#    0.000    0.000    0.000    0.000    0.000   18.200 
#    0.000    0.800    0.000    0.000    0.000    0.000 
#
# Total GULP energy -111727.720582 kJ/mol
# GULP energy per Si atom -5586.386029 kJ/mol
# Density = 2.277268 g / cm^3
# Si number density = 22.824628 Si / 1000 Ang^3
#
#
#
# Elastic Constant Matrix: (Units=GPa)
#
#
# Indices 1 2 3 4 5 6 
#
# 1 105.3900 26.8551 55.8726 0.0000 -11.1569 0.0000
# 2 26.8551 91.5245 36.8157 0.0000 0.2090 0.0000
# 3 55.8726 36.8157 154.7720 0.0000 -11.2737 0.0000
# 4 0.0000 0.0000 0.0000 24.3763 0.0000 -14.5253
# 5 -11.1569 0.2090 -11.2737 0.0000 44.0264 0.0000
# 6 0.0000 0.0000 0.0000 -14.5253 0.0000 15.8740
#
#
#
# Elastic Compliance Matrix: (Units=1/GPa)
#
#
# Indices 1 2 3 4 5 6 
#
# 1 0.012244 -0.002082 -0.003769 0.000000 0.002148 0.000000
# 2 -0.002082 0.012464 -0.002299 0.000000 -0.001175 0.000000
# 3 -0.003769 -0.002299 0.008457 0.000000 0.001222 0.000000
# 4 0.000000 0.000000 0.000000 0.090210 0.000000 0.082545
# 5 0.002148 -0.001175 0.001222 0.000000 0.023576 0.000000
# 6 0.000000 0.000000 0.000000 0.082545 0.000000 0.138527
#
#
# Mechanical properties :
#
#
# Convention : Reuss Voigt Hill
#
# Bulk Modulus (GPa) = 59.28582 65.64149 62.46365
# Shear Modulus (GPa) = 16.26543 32.33156 24.29849
#
# Velocity S-wave (km/s) = 2.67240 3.76775 3.26632
# Velocity P-wave (km/s) = 5.96265 6.91010 6.45378
#
# Compressibility (1/GPa) = 0.01686744
#
# Stress axis : x y z
#
# Youngs Moduli (GPa) = 81.67061 80.22904 118.23947
#
# Poissons Ratio (x) = 0.16701 0.44559
# Poissons Ratio (y) = 0.17002 0.27183
# Poissons Ratio (z) = 0.30778 0.18445
#
# Static dielectric constant tensor:
#      x y z
#    x 1.886500 0.000000 -0.090310 
#    y 0.000000 1.806090 0.000000 
#    z -0.090310 0.000000 1.955570 
# 
# From -- ./inp_files/46761.got.cif
#   From: 2010.05.17/outbox.cif.g08.bks.cpg/sg15_24_cif.got.tgz:46761.got - 2010.06.03 18:47:42.
