data_PCOD9263331
_publ_section_title
;
Structure prediction by ZEFSAII (Michael W. Deem and Ramdas Pophale) SiO2 
 PCOD9263331
Probable space group: C 2/C
;
_chemical_formula_sum "Si O2"
_cell_formula_units_Z 56
_cell_length_a 17.987356
_cell_length_b 8.349425
_cell_length_c 24.959647
_cell_angle_alpha 90.000000
_cell_angle_beta 43.917697
_cell_angle_gamma 90.000000
_cell_volume 2600.079753
_symmetry_space_group_name_H-M "C 2/C"
_symmetry_group_IT_number 15
_symmetry_cell_setting 'monoclinic'
loop_
_space_group_symop_operation_xyz
x,y,z
-x,y,1/2-z
-x,-y,-z
x,-y,1/2+z
1/2+x,1/2+y,z
1/2-x,1/2+y,1/2-z
1/2-x,1/2-y,-z
1/2+x,1/2-y,1/2+z
loop_
_atom_site_type_symbol
_atom_site_label
_atom_site_fract_x
_atom_site_fract_y
_atom_site_fract_z
Si Si1 0.788030 0.632484 0.783792
Si Si2 0.612324 0.461343 0.915002
Si Si3 0.408425 0.386354 0.387652
Si Si4 0.979715 0.504232 0.947612
Si Si5 0.199944 0.728896 0.953381
Si Si6 0.472129 0.318137 0.647579
Si Si7 0.121865 0.702648 0.298186
O O1 0.696171 0.607774 0.875767
O O2 0.886705 0.753826 0.735237
O O3 0.835834 0.453809 0.754337
O O4 0.722512 0.691870 0.765128
O O5 0.660967 0.306383 0.918527
O O6 0.586926 0.429195 0.866000
O O7 0.500000 0.500000 0.000000
O O8 0.325227 0.308965 0.389419
O O9 0.346746 0.346194 0.475936
O O10 0.435490 0.574313 0.374339
O O11 0.524033 0.299829 0.322863
O O12 0.992551 0.666586 0.907105
O O13 0.063712 0.376767 0.879850
O O14 0.861100 0.435119 0.001976
O O15 0.000000 0.500000 0.000000
#
# Coordination Sequence:
#
# PCOD9263331 Si02
#       7
#     8   8   8   8   8   8   8
#     4  11  21  35  60  89 121 161 208 265 321 368
#     4  12  20  36  64  97 119 160 219 270 310 378
#     4  10  20  38  59  87 125 164 205 250 323 388
#     4  10  20  32  55  89 121 149 202 258 302 367
#     4  10  21  36  59  89 123 162 203 260 315 374
#     4  11  21  35  60  92 128 163 206 261 322 385
#     4  10  19  34  55  84 114 160 203 247 307 381
#
# _framework density 21.537801000000002
#
# number of rings (size 3 to 8) (size 9 to 14) (size 15 to 20)
#    0.000    1.429    5.714    0.857    0.000    0.571 
#    0.000    0.714    0.000    1.714    0.000    0.000 
#    0.000    0.000    0.000    0.000    0.000    0.000 
#
# Total GULP energy -156154.807715 kJ/mol
# GULP energy per Si atom -5576.957418 kJ/mol
# Density = 2.148878 g / cm^3
# Si number density = 21.537801 Si / 1000 Ang^3
#
#
#
# Elastic Constant Matrix: (Units=GPa)
#
#
# Indices 1 2 3 4 5 6 
#
# 1 51.6504 25.5167 18.6412 0.0000 -28.2677 0.0003
# 2 25.5167 98.4263 34.5879 0.0000 -26.5274 0.0007
# 3 18.6412 34.5879 94.5663 0.0000 -24.7569 0.0000
# 4 0.0000 0.0000 0.0000 36.3399 0.0000 -11.4449
# 5 -28.2677 -26.5274 -24.7569 0.0000 32.0211 0.0000
# 6 0.0003 0.0007 0.0000 -11.4449 0.0000 27.7804
#
#
#
# Elastic Compliance Matrix: (Units=1/GPa)
#
#
# Indices 1 2 3 4 5 6 
#
# 1 0.037792 -0.001382 0.001868 0.000000 0.033662 0.000000
# 2 -0.001382 0.013597 -0.002597 0.000000 0.008037 0.000000
# 3 0.001868 -0.002597 0.013822 0.000000 0.010185 0.000000
# 4 0.000000 0.000000 0.000000 0.031621 0.000000 0.013027
# 5 0.033662 0.008037 0.010185 0.000000 0.075478 -0.000001
# 6 0.000000 0.000000 0.000000 0.013027 -0.000001 0.041363
#
#
# Mechanical properties :
#
#
# Convention : Reuss Voigt Hill
#
# Bulk Modulus (GPa) = 16.39586 44.68161 30.53873
# Shear Modulus (GPa) = 20.98869 30.28812 25.63840
#
# Velocity S-wave (km/s) = 3.12509 3.75410 3.45395
# Velocity P-wave (km/s) = 4.54431 6.29140 5.48783
#
# Compressibility (1/GPa) = 0.06099102
#
# Stress axis : x y z
#
# Youngs Moduli (GPa) = 26.46048 73.54820 72.34650
#
# Poissons Ratio (x) = 0.10161 -0.13516
# Poissons Ratio (y) = 0.03656 0.18786
# Poissons Ratio (z) = -0.04943 0.19098
#
# Static dielectric constant tensor:
#      x y z
#    x 1.812090 0.000000 -0.014530 
#    y 0.000000 1.822060 0.000000 
#    z -0.014530 0.000000 1.833640 
# 
# From -- ./inp_files/298515.got.cif
#   From: 2010.05.17/outbox.cif.g08.bks.cpg/sg15_150_cif.got.tgz:298515.got - 2010.06.03 18:47:42.
