data_PCOD9263775
_publ_section_title
;
Structure prediction by ZEFSAII (Michael W. Deem and Ramdas Pophale) SiO2 
 PCOD9263775
Probable space group: C 2/C
;
_chemical_formula_sum "Si O2"
_cell_formula_units_Z 64
_cell_length_a 23.109486
_cell_length_b 21.247601
_cell_length_c 16.894676
_cell_angle_alpha 90.000000
_cell_angle_beta 159.381130
_cell_angle_gamma 90.000000
_cell_volume 2921.309985
_symmetry_space_group_name_H-M "C 2/C"
_symmetry_group_IT_number 15
_symmetry_cell_setting 'monoclinic'
loop_
_space_group_symop_operation_xyz
x,y,z
-x,y,1/2-z
-x,-y,-z
x,-y,1/2+z
1/2+x,1/2+y,z
1/2-x,1/2+y,1/2-z
1/2-x,1/2-y,-z
1/2+x,1/2-y,1/2+z
loop_
_atom_site_type_symbol
_atom_site_label
_atom_site_fract_x
_atom_site_fract_y
_atom_site_fract_z
Si Si1 0.887928 0.336686 0.683266
Si Si2 0.561168 0.942395 0.468728
Si Si3 0.547114 0.304196 0.218328
Si Si4 0.423438 0.242119 0.797215
Si Si5 0.425824 0.370056 0.548378
Si Si6 0.255781 0.115972 0.520482
Si Si7 0.604995 0.919870 0.071310
Si Si8 0.254224 0.680483 0.223018
O O1 0.704625 0.348988 0.418203
O O2 0.895454 0.266520 0.729974
O O3 0.000000 0.336315 0.750000
O O4 0.966894 0.383737 0.845716
O O5 0.410424 0.929866 0.215733
O O6 0.474125 0.929387 0.442912
O O7 0.696583 0.889307 0.626258
O O8 0.629956 0.012231 0.563410
O O9 0.500000 0.303111 0.250000
O O10 0.397280 0.321500 0.970479
O O11 0.512181 0.298255 0.863369
O O12 0.332314 0.187877 0.628149
O O13 0.317393 0.276404 0.730076
O O14 0.584071 0.208646 0.039614
O O15 0.338066 0.391275 0.516135
O O16 0.278916 0.382099 0.298455
O O17 0.606916 0.399637 0.770125
#
# Coordination Sequence:
#
# PCOD9263775 Si02
#       8
#     8   8   8   8   8   8   8   8
#     4  10  22  36  59  89 120 155 197 249 307 356
#     4   9  21  40  60  85 115 162 209 243 284 366
#     4  10  22  36  56  90 122 153 199 251 297 366
#     4  11  21  36  58  92 122 156 183 247 312 366
#     4  10  19  34  60  86 116 154 197 244 294 361
#     4   9  19  36  56  89 119 149 197 245 301 358
#     4  10  20  40  64  81 117 167 205 244 297 351
#     4  11  23  36  61  90 121 155 198 244 305 364
#
# _framework density 21.907979000000001
#
# number of rings (size 3 to 8) (size 9 to 14) (size 15 to 20)
#    0.000    2.000    1.250    1.875   10.500    0.000 
#    2.250    1.875    0.000    0.000    0.000    0.000 
#    0.000    0.000    0.000    0.000    0.000    0.000 
#
# Total GULP energy -178409.104432 kJ/mol
# GULP energy per Si atom -5575.284514 kJ/mol
# Density = 2.185812 g / cm^3
# Si number density = 21.907979 Si / 1000 Ang^3
#
#
#
# Elastic Constant Matrix: (Units=GPa)
#
#
# Indices 1 2 3 4 5 6 
#
# 1 57.3698 12.1018 20.5334 0.0000 14.3890 0.0000
# 2 12.1018 59.6338 48.1624 0.0000 13.7922 0.0000
# 3 20.5334 48.1624 175.1418 0.0000 1.7489 0.0000
# 4 0.0000 0.0000 0.0000 16.0361 0.0000 -3.1914
# 5 14.3890 13.7922 1.7489 0.0000 16.9791 0.0000
# 6 0.0000 0.0000 0.0000 -3.1914 0.0000 22.2752
#
#
#
# Elastic Compliance Matrix: (Units=1/GPa)
#
#
# Indices 1 2 3 4 5 6 
#
# 1 0.023533 0.003062 -0.003380 0.000000 -0.022082 0.000000
# 2 0.003062 0.028220 -0.007873 0.000000 -0.024707 0.000000
# 3 -0.003380 -0.007873 0.008187 0.000000 0.008416 0.000000
# 4 0.000000 0.000000 0.000000 0.064190 0.000000 0.009196
# 5 -0.022082 -0.024707 0.008416 0.000000 0.096813 0.000000
# 6 0.000000 0.000000 0.000000 0.009196 0.000000 0.046211
#
#
# Mechanical properties :
#
#
# Convention : Reuss Voigt Hill
#
# Bulk Modulus (GPa) = 22.95803 50.41561 36.68682
# Shear Modulus (GPa) = 16.77543 25.14792 20.96168
#
# Velocity S-wave (km/s) = 2.77017 3.39173 3.09658
# Velocity P-wave (km/s) = 4.55344 6.19684 5.43758
#
# Compressibility (1/GPa) = 0.04355774
#
# Stress axis : x y z
#
# Youngs Moduli (GPa) = 42.49289 35.43569 122.14775
#
# Poissons Ratio (x) = -0.10849 0.41292
# Poissons Ratio (y) = -0.13010 0.96161
# Poissons Ratio (z) = 0.14365 0.27897
#
# Static dielectric constant tensor:
#      x y z
#    x 1.832620 0.000000 -0.025450 
#    y 0.000000 1.884110 0.000000 
#    z -0.025450 0.000000 1.827460 
# 
# From -- ./inp_files/220278.got.cif
#   From: 2010.05.17/outbox.cif.g08.bks.cpg/sg15_111_cif.got.tgz:220278.got - 2010.06.03 18:47:42.
