data_PCOD9263817
_publ_section_title
;
Structure prediction by ZEFSAII (Michael W. Deem and Ramdas Pophale) SiO2 
 PCOD9263817
Probable space group: C 2/C
;
_chemical_formula_sum "Si O2"
_cell_formula_units_Z 24
_cell_length_a 10.304665
_cell_length_b 24.899831
_cell_length_c 8.572286
_cell_angle_alpha 90.000000
_cell_angle_beta 30.154617
_cell_angle_gamma 90.000000
_cell_volume 1104.893836
_symmetry_space_group_name_H-M "C 2/C"
_symmetry_group_IT_number 15
_symmetry_cell_setting 'monoclinic'
loop_
_space_group_symop_operation_xyz
x,y,z
-x,y,1/2-z
-x,-y,-z
x,-y,1/2+z
1/2+x,1/2+y,z
1/2-x,1/2+y,1/2-z
1/2-x,1/2-y,-z
1/2+x,1/2-y,1/2+z
loop_
_atom_site_type_symbol
_atom_site_label
_atom_site_fract_x
_atom_site_fract_y
_atom_site_fract_z
Si Si1 0.965177 0.892502 0.463448
Si Si2 0.951721 0.559225 0.616819
Si Si3 0.173476 0.228608 0.753827
O O1 0.331472 0.901712 0.683194
O O2 0.163422 0.923412 0.369485
O O3 0.058558 0.830772 0.369479
O O4 0.000000 0.912370 0.250000
O O5 0.000000 0.559360 0.750000
O O6 0.000000 0.500000 0.500000
O O7 0.250000 0.250000 0.500000
O O8 0.446741 0.233803 0.555261
#
# Coordination Sequence:
#
# PCOD9263817 Si02
#       3
#     8   8   8
#     4  12  23  40  73 104 130 179 229 279 344 393
#     4  12  27  47  67  96 140 177 230 287 346 409
#     4  10  19  34  61 102 136 163 225 281 312 391
#
# _framework density 21.721543
#
# number of rings (size 3 to 8) (size 9 to 14) (size 15 to 20)
#    0.000    0.667    3.333    7.000    4.667    0.000 
#    0.000    0.000    0.000   20.000    0.000    0.000 
#    0.000    0.000    0.000    0.000    0.000    0.000 
#
# Total GULP energy -67068.480948 kJ/mol
# GULP energy per Si atom -5589.040079 kJ/mol
# Density = 2.167210 g / cm^3
# Si number density = 21.721543 Si / 1000 Ang^3
#
#
#
# Elastic Constant Matrix: (Units=GPa)
#
#
# Indices 1 2 3 4 5 6 
#
# 1 87.9134 -11.4145 7.5442 0.0000 1.1154 0.0000
# 2 -11.4145 90.1771 -4.6334 0.0000 -5.0320 0.0000
# 3 7.5442 -4.6334 82.3062 0.0000 -19.6787 0.0000
# 4 0.0000 0.0000 0.0000 21.2358 0.0000 -10.0589
# 5 1.1154 -5.0320 -19.6787 0.0000 54.9205 0.0000
# 6 0.0000 0.0000 0.0000 -10.0589 0.0000 21.4021
#
#
#
# Elastic Compliance Matrix: (Units=1/GPa)
#
#
# Indices 1 2 3 4 5 6 
#
# 1 0.011657 0.001390 -0.001112 0.000000 -0.000508 0.000000
# 2 0.001390 0.011381 0.000827 0.000000 0.001311 0.000000
# 3 -0.001112 0.000827 0.013476 0.000000 0.004927 0.000000
# 4 0.000000 0.000000 0.000000 0.060576 0.000000 0.028470
# 5 -0.000508 0.001311 0.004927 0.000000 0.020104 0.000000
# 6 0.000000 0.000000 0.000000 0.028470 0.000000 0.060105
#
#
# Mechanical properties :
#
#
# Convention : Reuss Voigt Hill
#
# Bulk Modulus (GPa) = 25.82349 27.04327 26.43338
# Shear Modulus (GPa) = 26.59611 37.43836 32.01724
#
# Velocity S-wave (km/s) = 3.50296 4.15608 3.84342
# Velocity P-wave (km/s) = 5.31744 5.95883 5.64725
#
# Compressibility (1/GPa) = 0.03872443
#
# Stress axis : x y z
#
# Youngs Moduli (GPa) = 85.78422 87.86683 74.20492
#
# Poissons Ratio (x) = -0.12214 0.08249
# Poissons Ratio (y) = -0.11925 -0.06134
# Poissons Ratio (z) = 0.09536 -0.07263
#
# Static dielectric constant tensor:
#      x y z
#    x 1.975720 0.000000 -0.053280 
#    y 0.000000 1.811030 0.000000 
#    z -0.053280 0.000000 1.789240 
# 
# From -- ./inp_files/22031.got.cif
#   From: 2010.05.17/outbox.cif.g08.bks.cpg/sg15_12_cif.got.tgz:22031.got - 2010.06.03 18:47:42.
