data_PCOD9263406
_publ_section_title
;
Structure prediction by ZEFSAII (Michael W. Deem and Ramdas Pophale) SiO2 
 PCOD9263406
Probable space group: C 2/C
;
_chemical_formula_sum "Si O2"
_cell_formula_units_Z 64
_cell_length_a 14.649324
_cell_length_b 7.557201
_cell_length_c 25.376780
_cell_angle_alpha 90.000000
_cell_angle_beta 95.825090
_cell_angle_gamma 90.000000
_cell_volume 2794.902888
_symmetry_space_group_name_H-M "C 2/C"
_symmetry_group_IT_number 15
_symmetry_cell_setting 'monoclinic'
loop_
_space_group_symop_operation_xyz
x,y,z
-x,y,1/2-z
-x,-y,-z
x,-y,1/2+z
1/2+x,1/2+y,z
1/2-x,1/2+y,1/2-z
1/2-x,1/2-y,-z
1/2+x,1/2-y,1/2+z
loop_
_atom_site_type_symbol
_atom_site_label
_atom_site_fract_x
_atom_site_fract_y
_atom_site_fract_z
Si Si1 0.118598 0.837072 0.597988
Si Si2 0.850549 0.246750 0.871057
Si Si3 0.561646 0.670856 0.355835
Si Si4 0.290064 0.336340 0.554465
Si Si5 0.798422 0.849820 0.717654
Si Si6 0.444253 0.239443 0.128976
Si Si7 0.355645 0.702029 0.517003
Si Si8 0.725454 0.249569 0.321698
O O1 0.095125 0.791174 0.536488
O O2 0.214366 0.755326 0.622096
O O3 0.039129 0.774279 0.632763
O O4 0.133809 0.049293 0.604794
O O5 0.797751 0.359532 0.912482
O O6 0.783003 0.245375 0.817088
O O7 0.950547 0.316563 0.861326
O O8 0.635640 0.750664 0.401687
O O9 0.604042 0.708823 0.300961
O O10 0.558677 0.454676 0.362232
O O11 0.250000 0.250000 0.500000
O O12 0.345735 0.502633 0.536375
O O13 0.781949 0.840875 0.778439
O O14 0.786974 0.050976 0.698211
O O15 0.405903 0.200649 0.068006
O O16 0.372889 0.169168 0.168264
O O17 0.250000 0.750000 0.500000
#
# Coordination Sequence:
#
# PCOD9263406 Si02
#       8
#     8   8   8   8   8   8   8   8
#     4  11  21  36  62  87 114 155 197 236 285 342
#     4  10  21  38  60  87 116 151 199 240 282 342
#     4   8  20  36  57  84 114 149 197 235 275 350
#     4  10  19  34  56  84 116 153 195 233 275 330
#     4  10  22  42  62  84 116 148 191 247 294 341
#     4   9  20  37  59  85 116 157 196 227 286 355
#     4  11  21  36  57  84 124 159 190 232 286 346
#     4  11  22  41  64  84 115 153 192 242 296 347
#
# _framework density 22.898828000000002
#
# number of rings (size 3 to 8) (size 9 to 14) (size 15 to 20)
#    0.000    2.000    2.500    1.500    1.750    2.500 
#    0.000   10.625    0.000    0.000    0.000    0.000 
#    0.000    0.000    0.000    0.000    0.000    0.000 
#
# Total GULP energy -178620.647920 kJ/mol
# GULP energy per Si atom -5581.895248 kJ/mol
# Density = 2.284671 g / cm^3
# Si number density = 22.898828 Si / 1000 Ang^3
#
#
#
# Elastic Constant Matrix: (Units=GPa)
#
#
# Indices 1 2 3 4 5 6 
#
# 1 130.5649 -5.1756 31.0772 0.0000 -32.3496 0.0000
# 2 -5.1756 32.5470 9.7545 0.0000 -10.6890 0.0000
# 3 31.0772 9.7545 109.5441 0.0000 -30.9371 0.0000
# 4 0.0000 0.0000 0.0000 24.7419 0.0000 4.6799
# 5 -32.3496 -10.6890 -30.9371 0.0000 31.5028 0.0000
# 6 0.0000 0.0000 0.0000 4.6799 0.0000 14.9965
#
#
#
# Elastic Compliance Matrix: (Units=1/GPa)
#
#
# Indices 1 2 3 4 5 6 
#
# 1 0.011324 0.006328 0.000158 0.000000 0.013931 0.000000
# 2 0.006328 0.038123 0.000413 0.000000 0.019839 0.000000
# 3 0.000158 0.000413 0.012638 0.000000 0.012713 0.000000
# 4 0.000000 0.000000 0.000000 0.042953 0.000000 -0.013404
# 5 0.013931 0.019839 0.012713 0.000000 0.065265 0.000000
# 6 0.000000 0.000000 0.000000 -0.013404 0.000000 0.070865
#
#
# Mechanical properties :
#
#
# Convention : Reuss Voigt Hill
#
# Bulk Modulus (GPa) = 13.17811 38.21868 25.69840
# Shear Modulus (GPa) = 19.78925 30.04823 24.91874
#
# Velocity S-wave (km/s) = 2.94292 3.62638 3.30238
# Velocity P-wave (km/s) = 4.16115 5.85326 5.07818
#
# Compressibility (1/GPa) = 0.07588339
#
# Stress axis : x y z
#
# Youngs Moduli (GPa) = 88.30940 26.23098 79.12953
#
# Poissons Ratio (x) = -0.16600 -0.01253
# Poissons Ratio (y) = -0.55886 -0.03267
# Poissons Ratio (z) = -0.01398 -0.01083
#
# Static dielectric constant tensor:
#      x y z
#    x 1.816510 0.000000 -0.105150 
#    y 0.000000 1.913070 0.000000 
#    z -0.105150 0.000000 1.716930 
# 
# From -- ./inp_files/273166.got.cif
#   From: 2010.05.17/outbox.cif.g08.bks.cpg/sg15_137_cif.got.tgz:273166.got - 2010.06.03 18:47:42.
