data_PCOD9263718
_publ_section_title
;
Structure prediction by ZEFSAII (Michael W. Deem and Ramdas Pophale) SiO2 
 PCOD9263718
Probable space group: C 2/C
;
_chemical_formula_sum "Si O2"
_cell_formula_units_Z 52
_cell_length_a 30.039512
_cell_length_b 15.417230
_cell_length_c 5.306041
_cell_angle_alpha 90.000000
_cell_angle_beta 96.220285
_cell_angle_gamma 90.000000
_cell_volume 2442.898557
_symmetry_space_group_name_H-M "C 2/C"
_symmetry_group_IT_number 15
_symmetry_cell_setting 'monoclinic'
loop_
_space_group_symop_operation_xyz
x,y,z
-x,y,1/2-z
-x,-y,-z
x,-y,1/2+z
1/2+x,1/2+y,z
1/2-x,1/2+y,1/2-z
1/2-x,1/2-y,-z
1/2+x,1/2-y,1/2+z
loop_
_atom_site_type_symbol
_atom_site_label
_atom_site_fract_x
_atom_site_fract_y
_atom_site_fract_z
Si Si1 0.089939 0.273285 0.105927
Si Si2 0.055629 0.946142 0.078419
Si Si3 0.418687 0.975792 0.396383
Si Si4 0.279482 0.240799 0.267912
Si Si5 0.871348 0.814990 0.373979
Si Si6 0.819285 0.451314 0.825214
Si Si7 0.500000 0.305058 0.750000
O O1 0.095479 0.376161 0.102573
O O2 0.117928 0.234144 0.357158
O O3 0.038554 0.249580 0.137546
O O4 0.105195 0.231861 0.851220
O O5 0.105746 0.908627 0.092569
O O6 0.048750 0.982245 0.355123
O O7 0.024681 0.866532 0.969022
O O8 0.444196 0.003256 0.659260
O O9 0.373396 0.035321 0.362824
O O10 0.250000 0.250000 0.500000
O O11 0.318787 0.311752 0.295494
O O12 0.304368 0.147405 0.286649
O O13 0.250000 0.250000 0.000000
O O14 0.803089 0.507369 0.577041
#
# Coordination Sequence:
#
# PCOD9263718 Si02
#       7
#     8   8   8   8   8   8   4
#     4  11  22  40  65  96 129 166 211 257 317 390
#     4  11  23  41  65  94 128 172 221 267 318 386
#     4  10  19  34  59  88 117 158 203 248 296 369
#     4  12  25  42  65  97 129 165 216 272 325 387
#     4  11  23  42  64  90 127 173 211 261 327 385
#     4  10  19  36  61  88 115 156 206 252 305 370
#     4  10  24  40  66 100 132 170 214 272 322 378
#
# _framework density 21.286190000000001
#
# number of rings (size 3 to 8) (size 9 to 14) (size 15 to 20)
#    0.000    1.231    0.000    8.769    0.000    4.923 
#    0.000    5.385    0.000    0.000    0.000    0.000 
#    0.000    0.000    0.000    0.000    0.000    0.000 
#
# Total GULP energy -145411.989441 kJ/mol
# GULP energy per Si atom -5592.768825 kJ/mol
# Density = 2.123774 g / cm^3
# Si number density = 21.286190 Si / 1000 Ang^3
#
#
#
# Elastic Constant Matrix: (Units=GPa)
#
#
# Indices 1 2 3 4 5 6 
#
# 1 112.8924 24.4702 27.3197 0.0000 13.2330 0.0000
# 2 24.4702 66.7873 16.9526 0.0000 0.9373 0.0000
# 3 27.3197 16.9526 154.7887 0.0000 -17.8795 0.0000
# 4 0.0000 0.0000 0.0000 28.0049 0.0000 -1.8897
# 5 13.2330 0.9373 -17.8795 0.0000 35.1463 0.0000
# 6 0.0000 0.0000 0.0000 -1.8897 0.0000 25.6228
#
#
#
# Elastic Compliance Matrix: (Units=1/GPa)
#
#
# Indices 1 2 3 4 5 6 
#
# 1 0.010668 -0.003306 -0.002098 0.000000 -0.004996 0.000000
# 2 -0.003306 0.016486 -0.001200 0.000000 0.000195 0.000000
# 3 -0.002098 -0.001200 0.007498 0.000000 0.004636 0.000000
# 4 0.000000 0.000000 0.000000 0.035887 0.000000 0.002647
# 5 -0.004996 0.000195 0.004636 0.000000 0.032687 0.000000
# 6 0.000000 0.000000 0.000000 0.002647 0.000000 0.039223
#
#
# Mechanical properties :
#
#
# Convention : Reuss Voigt Hill
#
# Bulk Modulus (GPa) = 46.63173 52.43927 49.53550
# Shear Modulus (GPa) = 30.71208 35.46985 33.09097
#
# Velocity S-wave (km/s) = 3.80256 4.08650 3.94709
# Velocity P-wave (km/s) = 6.42136 6.85236 6.64036
#
# Compressibility (1/GPa) = 0.02144463
#
# Stress axis : x y z
#
# Youngs Moduli (GPa) = 93.73992 60.65776 133.37697
#
# Poissons Ratio (x) = 0.20053 0.27980
# Poissons Ratio (y) = 0.30990 0.15999
# Poissons Ratio (z) = 0.19665 0.07276
#
# Static dielectric constant tensor:
#      x y z
#    x 1.768300 0.000000 -0.011250 
#    y 0.000000 1.758990 0.000000 
#    z -0.011250 0.000000 1.807110 
# 
# From -- ./inp_files/18252.got.cif
#   From: 2010.05.17/outbox.cif.g08.bks.cpg/sg15_10_cif.got.tgz:18252.got - 2010.06.03 18:47:42.
