data_PCOD9263374
_publ_section_title
;
Structure prediction by ZEFSAII (Michael W. Deem and Ramdas Pophale) SiO2 
 PCOD9263374
Probable space group: C 2/C
;
_chemical_formula_sum "Si O2"
_cell_formula_units_Z 56
_cell_length_a 14.457550
_cell_length_b 26.730487
_cell_length_c 9.421226
_cell_angle_alpha 90.000000
_cell_angle_beta 131.266167
_cell_angle_gamma 90.000000
_cell_volume 2736.697617
_symmetry_space_group_name_H-M "C 2/C"
_symmetry_group_IT_number 15
_symmetry_cell_setting 'monoclinic'
loop_
_space_group_symop_operation_xyz
x,y,z
-x,y,1/2-z
-x,-y,-z
x,-y,1/2+z
1/2+x,1/2+y,z
1/2-x,1/2+y,1/2-z
1/2-x,1/2-y,-z
1/2+x,1/2-y,1/2+z
loop_
_atom_site_type_symbol
_atom_site_label
_atom_site_fract_x
_atom_site_fract_y
_atom_site_fract_z
Si Si1 0.552428 0.170423 0.448949
Si Si2 0.723958 0.689960 0.616139
Si Si3 0.680815 0.044366 0.146269
Si Si4 0.266003 0.416719 0.456570
Si Si5 0.414995 0.513539 0.546192
Si Si6 0.607484 0.209026 0.973988
Si Si7 0.910052 0.439961 0.476030
O O1 0.500000 0.193178 0.250000
O O2 0.666604 0.193064 0.655410
O O3 0.439013 0.173866 0.445914
O O4 0.598146 0.113973 0.459301
O O5 0.678213 0.632944 0.558097
O O6 0.629940 0.734465 0.550737
O O7 0.776034 0.696541 0.507441
O O8 0.796350 0.041957 0.367334
O O9 0.659807 0.990176 0.045149
O O10 0.708961 0.085206 0.055445
O O11 0.554417 0.050286 0.103079
O O12 0.362977 0.461496 0.555658
O O13 0.151501 0.430898 0.239862
O O14 0.500000 0.539219 0.750000
O O15 0.500000 0.500000 0.500000
O O16 0.500000 0.208520 0.750000
#
# Coordination Sequence:
#
# PCOD9263374 Si02
#       7
#     8   8   8   8   8   8   8
#     4  10  20  34  54  83 115 142 170 223 280 338
#     4   9  19  36  57  82 103 140 186 226 273 319
#     4  10  19  34  56  81 109 149 182 236 267 327
#     4  10  19  34  58  79 109 143 188 231 273 323
#     4  11  22  38  53  74 108 153 192 224 267 324
#     4   9  18  35  58  80 108 139 179 230 271 323
#     4   9  20  33  52  86 112 141 182 224 284 329
#
# _framework density 20.462620000000001
#
# number of rings (size 3 to 8) (size 9 to 14) (size 15 to 20)
#    0.000    2.286    1.429    1.286    0.000    6.857 
#    2.571    0.000    0.000    0.857    0.000    0.000 
#    0.000    0.000    0.000    0.000    0.000    0.000 
#
# Total GULP energy -155971.516194 kJ/mol
# GULP energy per Si atom -5570.411293 kJ/mol
# Density = 2.041605 g / cm^3
# Si number density = 20.462620 Si / 1000 Ang^3
#
#
#
# Elastic Constant Matrix: (Units=GPa)
#
#
# Indices 1 2 3 4 5 6 
#
# 1 45.9542 -2.0821 18.0363 0.0000 0.3567 0.0000
# 2 -2.0821 52.4203 -2.5405 0.0000 -7.3450 0.0000
# 3 18.0363 -2.5405 96.2758 0.0000 -11.8957 0.0000
# 4 0.0000 0.0000 0.0000 21.4827 0.0000 2.9682
# 5 0.3567 -7.3450 -11.8957 0.0000 23.8946 0.0000
# 6 0.0000 0.0000 0.0000 2.9682 0.0000 17.9766
#
#
#
# Elastic Compliance Matrix: (Units=1/GPa)
#
#
# Indices 1 2 3 4 5 6 
#
# 1 0.023659 0.000344 -0.004746 0.000000 -0.002610 0.000000
# 2 0.000344 0.020111 0.001310 0.000000 0.006829 0.000000
# 3 -0.004746 0.001310 0.012114 0.000000 0.006504 0.000000
# 4 0.000000 0.000000 0.000000 0.047636 0.000000 -0.007866
# 5 -0.002610 0.006829 0.006504 0.000000 0.047227 0.000000
# 6 0.000000 0.000000 0.000000 -0.007866 0.000000 0.056927
#
#
# Mechanical properties :
#
#
# Convention : Reuss Voigt Hill
#
# Bulk Modulus (GPa) = 20.12053 24.60863 22.36458
# Shear Modulus (GPa) = 21.69917 24.75323 23.22620
#
# Velocity S-wave (km/s) = 3.25996 3.48182 3.37271
# Velocity P-wave (km/s) = 4.90142 5.31190 5.11079
#
# Compressibility (1/GPa) = 0.04970048
#
# Stress axis : x y z
#
# Youngs Moduli (GPa) = 42.26675 49.72510 82.54813
#
# Poissons Ratio (x) = -0.01711 0.39175
# Poissons Ratio (y) = -0.01454 -0.10814
# Poissons Ratio (z) = 0.20059 -0.06514
#
# Static dielectric constant tensor:
#      x y z
#    x 1.743690 0.000000 0.039770 
#    y 0.000000 1.821160 0.000000 
#    z 0.039770 0.000000 2.170330 
# 
# From -- ./inp_files/44590.got.cif
#   From: 2010.05.17/outbox.cif.g08.bks.cpg/sg15_23_cif.got.tgz:44590.got - 2010.06.03 18:47:42.
