data_PCOD9263329
_publ_section_title
;
Structure prediction by ZEFSAII (Michael W. Deem and Ramdas Pophale) SiO2 
 PCOD9263329
Probable space group: C 2/C
;
_chemical_formula_sum "Si O2"
_cell_formula_units_Z 56
_cell_length_a 15.389992
_cell_length_b 8.178571
_cell_length_c 22.687489
_cell_angle_alpha 90.000000
_cell_angle_beta 85.288613
_cell_angle_gamma 90.000000
_cell_volume 2845.983148
_symmetry_space_group_name_H-M "C 2/C"
_symmetry_group_IT_number 15
_symmetry_cell_setting 'monoclinic'
loop_
_space_group_symop_operation_xyz
x,y,z
-x,y,1/2-z
-x,-y,-z
x,-y,1/2+z
1/2+x,1/2+y,z
1/2-x,1/2+y,1/2-z
1/2-x,1/2-y,-z
1/2+x,1/2-y,1/2+z
loop_
_atom_site_type_symbol
_atom_site_label
_atom_site_fract_x
_atom_site_fract_y
_atom_site_fract_z
Si Si1 0.907854 0.749253 0.785607
Si Si2 0.259262 0.649014 0.558577
Si Si3 0.866004 0.561043 0.365427
Si Si4 0.802074 0.250665 0.173442
Si Si5 0.292331 0.548752 0.370979
Si Si6 0.920713 0.142091 0.935449
Si Si7 0.417106 0.594939 0.066677
O O1 0.908143 0.578269 0.821974
O O2 0.836843 0.752944 0.737439
O O3 0.877221 0.893642 0.830397
O O4 0.000000 0.776361 0.750000
O O5 0.250000 0.750000 0.500000
O O6 0.177855 0.531200 0.576477
O O7 0.256025 0.785891 0.609245
O O8 0.345831 0.544329 0.557013
O O9 0.783270 0.639129 0.335081
O O10 0.924672 0.706257 0.389538
O O11 0.770413 0.432204 0.161194
O O12 0.877679 0.196655 0.123167
O O13 0.328644 0.444651 0.424332
O O14 0.925159 0.191800 0.004188
O O15 0.994581 0.003169 0.924802
#
# Coordination Sequence:
#
# PCOD9263329 Si02
#       7
#     8   8   8   8   8   8   8
#     4  11  22  39  58  83 116 149 194 245 293 341
#     4  10  19  34  55  84 113 150 189 228 287 345
#     4   9  22  37  58  81 115 152 195 241 282 355
#     4  10  21  38  60  84 113 152 199 233 295 342
#     4  10  21  36  61  82 114 151 192 241 282 350
#     4  10  20  38  55  86 117 149 196 231 300 338
#     4  10  21  35  59  84 119 152 186 244 283 359
#
# _framework density 19.676856000000001
#
# number of rings (size 3 to 8) (size 9 to 14) (size 15 to 20)
#    0.000    2.000    1.429    1.714    2.000    2.857 
#    0.000    7.857    0.000    0.000    0.000    0.000 
#    0.000    0.000    0.000    0.000    0.000    0.000 
#
# Total GULP energy -156184.228988 kJ/mol
# GULP energy per Si atom -5578.008178 kJ/mol
# Density = 1.963207 g / cm^3
# Si number density = 19.676856 Si / 1000 Ang^3
#
#
#
# Elastic Constant Matrix: (Units=GPa)
#
#
# Indices 1 2 3 4 5 6 
#
# 1 33.8325 3.8145 22.2509 0.0000 2.2272 0.0000
# 2 3.8145 68.2041 22.9953 0.0000 6.5305 0.0000
# 3 22.2509 22.9953 89.9012 0.0000 15.3818 0.0000
# 4 0.0000 0.0000 0.0000 30.9825 0.0000 7.6983
# 5 2.2272 6.5305 15.3818 0.0000 24.9452 0.0000
# 6 0.0000 0.0000 0.0000 7.6983 0.0000 17.0073
#
#
#
# Elastic Compliance Matrix: (Units=1/GPa)
#
#
# Indices 1 2 3 4 5 6 
#
# 1 0.035502 0.000969 -0.009446 0.000000 0.002401 0.000000
# 2 0.000969 0.016150 -0.004061 0.000000 -0.001810 0.000000
# 3 -0.009446 -0.004061 0.015845 0.000000 -0.007864 0.000000
# 4 0.000000 0.000000 0.000000 0.036366 0.000000 -0.016461
# 5 0.002401 -0.001810 -0.007864 0.000000 0.045197 0.000000
# 6 0.000000 0.000000 0.000000 -0.016461 0.000000 0.066249
#
#
# Mechanical properties :
#
#
# Convention : Reuss Voigt Hill
#
# Bulk Modulus (GPa) = 23.57220 32.22879 27.90049
# Shear Modulus (GPa) = 19.64434 24.11215 21.87824
#
# Velocity S-wave (km/s) = 3.16309 3.50438 3.33810
# Velocity P-wave (km/s) = 5.03447 5.72615 5.39141
#
# Compressibility (1/GPa) = 0.04242286
#
# Stress axis : x y z
#
# Youngs Moduli (GPa) = 28.16722 61.91864 63.10954
#
# Poissons Ratio (x) = -0.06001 0.59611
# Poissons Ratio (y) = -0.02730 0.25629
# Poissons Ratio (z) = 0.26606 0.25146
#
# Static dielectric constant tensor:
#      x y z
#    x 1.679410 0.000000 -0.014490 
#    y 0.000000 1.699720 0.000000 
#    z -0.014490 0.000000 1.737270 
# 
# From -- ./inp_files/242778.got.cif
#   From: 2010.05.17/outbox.cif.g08.bks.cpg/sg15_122_cif.got.tgz:242778.got - 2010.06.03 18:47:42.
