data_PCOD9263753
_publ_section_title
;
Structure prediction by ZEFSAII (Michael W. Deem and Ramdas Pophale) SiO2 
 PCOD9263753
Probable space group: C 2/C
;
_chemical_formula_sum "Si O2"
_cell_formula_units_Z 36
_cell_length_a 16.833784
_cell_length_b 7.210358
_cell_length_c 13.894436
_cell_angle_alpha 90.000000
_cell_angle_beta 107.904100
_cell_angle_gamma 90.000000
_cell_volume 1604.801574
_symmetry_space_group_name_H-M "C 2/C"
_symmetry_group_IT_number 15
_symmetry_cell_setting 'monoclinic'
loop_
_space_group_symop_operation_xyz
x,y,z
-x,y,1/2-z
-x,-y,-z
x,-y,1/2+z
1/2+x,1/2+y,z
1/2-x,1/2+y,1/2-z
1/2-x,1/2-y,-z
1/2+x,1/2-y,1/2+z
loop_
_atom_site_type_symbol
_atom_site_label
_atom_site_fract_x
_atom_site_fract_y
_atom_site_fract_z
Si Si1 0.674649 0.741013 0.102287
Si Si2 0.500000 0.812730 0.750000
Si Si3 0.625742 0.601975 0.673205
Si Si4 0.159559 0.472552 0.909946
Si Si5 0.211592 0.792230 0.818850
O O1 0.614725 0.561406 0.090661
O O2 0.763445 0.640751 0.110867
O O3 0.675469 0.817056 0.211286
O O4 0.656225 0.891437 0.015676
O O5 0.543037 0.687873 0.684342
O O6 0.573771 0.928503 0.825208
O O7 0.690157 0.753571 0.655862
O O8 0.673505 0.493015 0.780433
O O9 0.179686 0.688573 0.901170
#
# Coordination Sequence:
#
# PCOD9263753 Si02
#       5
#     8   4   8   8   8
#     4   8  18  36  58  77 107 147 181 217 260 340
#     4  12  20  32  56  84 106 148 170 238 266 312
#     4   9  18  33  57  76 112 137 186 213 277 306
#     4  10  19  34  60  80 109 140 185 218 278 307
#     4   9  17  37  57  76 106 152 171 223 255 341
#
# _framework density 22.432679
#
# number of rings (size 3 to 8) (size 9 to 14) (size 15 to 20)
#    1.333    1.333    2.222    0.000    0.000    1.778 
#    0.000    2.222    4.889    0.000    0.000    0.000 
#    0.000    0.000    0.000    0.000    0.000    0.000 
#
# Total GULP energy -100270.541877 kJ/mol
# GULP energy per Si atom -5570.585660 kJ/mol
# Density = 2.238162 g / cm^3
# Si number density = 22.432679 Si / 1000 Ang^3
#
#
#
# Elastic Constant Matrix: (Units=GPa)
#
#
# Indices 1 2 3 4 5 6 
#
# 1 106.8347 23.2016 10.8376 0.0000 -5.0189 0.0000
# 2 23.2016 70.1697 4.3004 0.0000 -1.9836 0.0000
# 3 10.8376 4.3004 66.8201 0.0000 -0.4051 0.0000
# 4 0.0000 0.0000 0.0000 23.8546 0.0000 -2.9073
# 5 -5.0189 -1.9836 -0.4051 0.0000 21.3445 0.0000
# 6 0.0000 0.0000 0.0000 -2.9073 0.0000 30.7649
#
#
#
# Elastic Compliance Matrix: (Units=1/GPa)
#
#
# Indices 1 2 3 4 5 6 
#
# 1 0.010314 -0.003262 -0.001450 0.000000 0.002095 0.000000
# 2 -0.003262 0.015376 -0.000457 0.000000 0.000653 0.000000
# 3 -0.001450 -0.000457 0.015230 0.000000 -0.000094 0.000000
# 4 0.000000 0.000000 0.000000 0.042409 0.000000 0.004008
# 5 0.002095 0.000653 -0.000094 0.000000 0.047402 0.000000
# 6 0.000000 0.000000 0.000000 0.004008 0.000000 0.032883
#
#
# Mechanical properties :
#
#
# Convention : Reuss Voigt Hill
#
# Bulk Modulus (GPa) = 32.69894 35.61152 34.15523
# Shear Modulus (GPa) = 27.15229 28.89180 28.02205
#
# Velocity S-wave (km/s) = 3.48284 3.59267 3.53818
# Velocity P-wave (km/s) = 5.54812 5.75491 5.65246
#
# Compressibility (1/GPa) = 0.03058203
#
# Stress axis : x y z
#
# Youngs Moduli (GPa) = 96.95322 65.03523 65.66169
#
# Poissons Ratio (x) = 0.21217 0.09522
# Poissons Ratio (y) = 0.31629 0.02997
# Poissons Ratio (z) = 0.14060 0.02969
#
# Static dielectric constant tensor:
#      x y z
#    x 1.783930 0.000000 0.006370 
#    y 0.000000 1.876090 0.000000 
#    z 0.006370 0.000000 1.883720 
# 
# From -- ./inp_files/150169.got.cif
#   From: 2010.05.17/outbox.cif.g08.bks.cpg/sg15_76_cif.got.tgz:150169.got - 2010.06.03 18:47:42.
