data_PCOD9263760
_publ_section_title
;
Structure prediction by ZEFSAII (Michael W. Deem and Ramdas Pophale) SiO2 
 PCOD9263760
Probable space group: C 2/C
;
_chemical_formula_sum "Si O2"
_cell_formula_units_Z 48
_cell_length_a 13.644931
_cell_length_b 15.526588
_cell_length_c 10.473159
_cell_angle_alpha 90.000000
_cell_angle_beta 74.330068
_cell_angle_gamma 90.000000
_cell_volume 2136.369243
_symmetry_space_group_name_H-M "C 2/C"
_symmetry_group_IT_number 15
_symmetry_cell_setting 'monoclinic'
loop_
_space_group_symop_operation_xyz
x,y,z
-x,y,1/2-z
-x,-y,-z
x,-y,1/2+z
1/2+x,1/2+y,z
1/2-x,1/2+y,1/2-z
1/2-x,1/2-y,-z
1/2+x,1/2-y,1/2+z
loop_
_atom_site_type_symbol
_atom_site_label
_atom_site_fract_x
_atom_site_fract_y
_atom_site_fract_z
Si Si1 0.801463 0.690136 0.809551
Si Si2 0.609293 0.320342 0.537639
Si Si3 0.432754 0.693908 0.900880
Si Si4 0.424277 0.045610 0.892106
Si Si5 0.393701 0.132334 0.520508
Si Si6 0.071377 0.007349 0.599631
O O1 0.873825 0.763231 0.843300
O O2 0.837499 0.603323 0.864239
O O3 0.821731 0.670078 0.656231
O O4 0.689163 0.708950 0.900089
O O5 0.501247 0.310653 0.506129
O O6 0.631586 0.418383 0.571065
O O7 0.500000 0.689071 0.750000
O O8 0.375288 0.601323 0.921561
O O9 0.389923 0.790486 0.919905
O O10 0.500000 0.017737 0.750000
O O11 0.494199 0.108058 0.957210
O O12 0.373898 0.962472 0.973320
O O13 0.000000 0.003934 0.750000
O O14 0.000000 0.000000 0.500000
#
# Coordination Sequence:
#
# PCOD9263760 Si02
#       6
#     8   8   8   8   8   8
#     4  10  21  37  58  87 113 146 186 238 285 333
#     4  10  21  38  58  84 115 145 190 236 281 336
#     4  10  20  37  59  83 113 149 189 234 275 338
#     4   9  18  34  57  85 111 146 191 232 274 334
#     4  10  19  34  60  83 111 149 192 226 280 338
#     4   9  20  35  58  84 108 148 191 232 281 337
#
# _framework density 22.468025000000001
#
# number of rings (size 3 to 8) (size 9 to 14) (size 15 to 20)
#    0.000    2.333    1.667    0.500    4.667    0.000 
#    9.000    0.833    0.000    0.000    0.000    0.000 
#    0.000    0.000    0.000    0.000    0.000    0.000 
#
# Total GULP energy -133770.456399 kJ/mol
# GULP energy per Si atom -5573.769017 kJ/mol
# Density = 2.241689 g / cm^3
# Si number density = 22.468025 Si / 1000 Ang^3
#
#
#
# Elastic Constant Matrix: (Units=GPa)
#
#
# Indices 1 2 3 4 5 6 
#
# 1 20.6205 -5.6907 9.6395 0.0000 -0.9071 0.0000
# 2 -5.6907 153.0482 44.8590 0.0000 4.3523 0.0000
# 3 9.6395 44.8590 91.2921 0.0000 4.4147 0.0000
# 4 0.0000 0.0000 0.0000 40.4755 0.0000 -5.9286
# 5 -0.9071 4.3523 4.4147 0.0000 16.6219 0.0000
# 6 0.0000 0.0000 0.0000 -5.9286 0.0000 -11.3997
#
#
#
# Elastic Compliance Matrix: (Units=1/GPa)
#
#
# Indices 1 2 3 4 5 6 
#
# 1 0.053519 0.004195 -0.007902 0.000000 0.003921 0.000000
# 2 0.004195 0.007979 -0.004329 0.000000 -0.000710 0.000000
# 3 -0.007902 -0.004329 0.014062 0.000000 -0.003033 0.000000
# 4 0.000000 0.000000 0.000000 0.022957 0.000000 -0.011939
# 5 0.003921 -0.000710 -0.003033 0.000000 0.061367 0.000000
# 6 0.000000 0.000000 0.000000 -0.011939 0.000000 -0.081512
#
#
# Mechanical properties :
#
#
# Convention : Reuss Voigt Hill
#
# Bulk Modulus (GPa) = 16.81031 40.28630 28.54830
# Shear Modulus (GPa) = 43.75413 23.54973 33.65193
#
# Velocity S-wave (km/s) = 4.41772 3.24102 3.87430
# Velocity P-wave (km/s) = 5.78963 5.65465 5.72253
#
# Compressibility (1/GPa) = 0.05948731
#
# Stress axis : x y z
#
# Youngs Moduli (GPa) = 18.68485 125.32945 71.11285
#
# Poissons Ratio (x) = -0.52570 0.56192
# Poissons Ratio (y) = -0.07837 0.30786
# Poissons Ratio (z) = 0.14764 0.54258
#
# Static dielectric constant tensor:
#      x y z
#    x 1.878610 0.000000 -0.022530 
#    y 0.000000 1.855210 0.000000 
#    z -0.022530 0.000000 1.853240 
# 
# From -- ./inp_files/96194.got.cif
#   From: 2010.05.17/outbox.cif.g08.bks.cpg/sg15_49_cif.got.tgz:96194.got - 2010.06.03 18:47:42.
