data_PCOD9263574
_publ_section_title
;
Structure prediction by ZEFSAII (Michael W. Deem and Ramdas Pophale) SiO2 
 PCOD9263574
Probable space group: C 2/C
;
_chemical_formula_sum "Si O2"
_cell_formula_units_Z 48
_cell_length_a 8.459546
_cell_length_b 18.918727
_cell_length_c 14.425264
_cell_angle_alpha 90.000000
_cell_angle_beta 103.597722
_cell_angle_gamma 90.000000
_cell_volume 2243.963317
_symmetry_space_group_name_H-M "C 2/C"
_symmetry_group_IT_number 15
_symmetry_cell_setting 'monoclinic'
loop_
_space_group_symop_operation_xyz
x,y,z
-x,y,1/2-z
-x,-y,-z
x,-y,1/2+z
1/2+x,1/2+y,z
1/2-x,1/2+y,1/2-z
1/2-x,1/2-y,-z
1/2+x,1/2-y,1/2+z
loop_
_atom_site_type_symbol
_atom_site_label
_atom_site_fract_x
_atom_site_fract_y
_atom_site_fract_z
Si Si1 0.100959 0.456703 0.587649
Si Si2 0.076013 0.822499 0.951775
Si Si3 0.822387 0.895629 0.336952
Si Si4 0.500000 0.286575 0.250000
Si Si5 0.935506 0.703430 0.426904
Si Si6 0.516633 0.531190 0.399527
Si Si7 0.500000 0.961394 0.250000
O O1 0.028342 0.378603 0.570334
O O2 0.292348 0.462976 0.594353
O O3 0.077956 0.488969 0.684667
O O4 0.000000 0.500000 0.500000
O O5 0.127886 0.858626 0.058467
O O6 0.998380 0.749627 0.977568
O O7 0.236354 0.799897 0.914797
O O8 0.969983 0.884992 0.889614
O O9 0.857029 0.841794 0.257534
O O10 0.634916 0.913958 0.316879
O O11 0.916816 0.970155 0.333314
O O12 0.501087 0.238416 0.341574
O O13 0.500000 0.500000 0.500000
#
# Coordination Sequence:
#
# PCOD9263574 Si02
#       7
#     8   8   8   4   8   8   4
#     4  11  22  36  59  88 123 157 196 249 297 357
#     4   8  16  32  58  81 112 149 187 241 291 350
#     4  10  20  35  58  85 114 153 199 245 296 350
#     4  10  19  34  58  82 115 154 192 240 293 362
#     4   9  17  32  54  82 113 151 189 231 297 348
#     4   9  17  34  59  86 113 149 196 243 296 354
#     4  12  23  36  58  86 119 156 200 254 303 348
#
# _framework density 21.390725
#
# number of rings (size 3 to 8) (size 9 to 14) (size 15 to 20)
#    0.000    2.333    0.000    4.500    0.000    0.000 
#    0.000    0.000    0.000   82.000    0.000    1.167 
#    0.000    0.000    0.000    0.000    0.000    0.000 
#
# Total GULP energy -133663.725623 kJ/mol
# GULP energy per Si atom -5569.321901 kJ/mol
# Density = 2.134204 g / cm^3
# Si number density = 21.390725 Si / 1000 Ang^3
#
#
#
# Elastic Constant Matrix: (Units=GPa)
#
#
# Indices 1 2 3 4 5 6 
#
# 1 56.1817 32.6081 20.0989 0.0000 -19.1747 0.0000
# 2 32.6081 141.3526 22.4719 0.0000 -2.6059 0.0000
# 3 20.0989 22.4719 54.6033 0.0000 -24.8815 0.0000
# 4 0.0000 0.0000 0.0000 26.2639 0.0000 -18.6004
# 5 -19.1747 -2.6059 -24.8815 0.0000 39.8601 0.0000
# 6 0.0000 0.0000 0.0000 -18.6004 0.0000 19.3039
#
#
#
# Elastic Compliance Matrix: (Units=1/GPa)
#
#
# Indices 1 2 3 4 5 6 
#
# 1 0.025218 -0.005238 -0.002452 0.000000 0.010258 0.000000
# 2 -0.005238 0.008777 -0.003593 0.000000 -0.004189 0.000000
# 3 -0.002452 -0.003593 0.028021 0.000000 0.016077 0.000000
# 4 0.000000 0.000000 0.000000 0.119884 0.000000 0.115515
# 5 0.010258 -0.004189 0.016077 0.000000 0.039784 0.000000
# 6 0.000000 0.000000 0.000000 0.115515 0.000000 0.163108
#
#
# Mechanical properties :
#
#
# Convention : Reuss Voigt Hill
#
# Bulk Modulus (GPa) = 25.34914 44.72171 35.03543
# Shear Modulus (GPa) = 11.89037 28.88282 20.38659
#
# Velocity S-wave (km/s) = 2.36024 3.67856 3.09051
# Velocity P-wave (km/s) = 4.39362 6.24459 5.39902
#
# Compressibility (1/GPa) = 0.03944906
#
# Stress axis : x y z
#
# Youngs Moduli (GPa) = 39.65393 113.93577 35.68761
#
# Poissons Ratio (x) = 0.59685 0.08752
# Poissons Ratio (y) = 0.20773 0.12821
# Poissons Ratio (z) = 0.09725 0.40932
#
# Static dielectric constant tensor:
#      x y z
#    x 1.762470 0.000000 -0.023560 
#    y 0.000000 1.909900 0.000000 
#    z -0.023560 0.000000 2.055550 
# 
# From -- ./inp_files/189984.got.cif
#   From: 2010.05.17/outbox.cif.g08.bks.cpg/sg15_95_cif.got.tgz:189984.got - 2010.06.03 18:47:42.
