data_PCOD9263535
_publ_section_title
;
Structure prediction by ZEFSAII (Michael W. Deem and Ramdas Pophale) SiO2 
 PCOD9263535
Probable space group: C 2/C
;
_chemical_formula_sum "Si O2"
_cell_formula_units_Z 64
_cell_length_a 11.167305
_cell_length_b 21.039199
_cell_length_c 17.970972
_cell_angle_alpha 90.000000
_cell_angle_beta 129.205097
_cell_angle_gamma 90.000000
_cell_volume 3271.811150
_symmetry_space_group_name_H-M "C 2/C"
_symmetry_group_IT_number 15
_symmetry_cell_setting 'monoclinic'
loop_
_space_group_symop_operation_xyz
x,y,z
-x,y,1/2-z
-x,-y,-z
x,-y,1/2+z
1/2+x,1/2+y,z
1/2-x,1/2+y,1/2-z
1/2-x,1/2-y,-z
1/2+x,1/2-y,1/2+z
loop_
_atom_site_type_symbol
_atom_site_label
_atom_site_fract_x
_atom_site_fract_y
_atom_site_fract_z
Si Si1 0.584016 0.193400 0.593947
Si Si2 0.575968 0.417650 0.971150
Si Si3 0.055892 0.811185 0.477651
Si Si4 0.761675 0.189961 0.060039
Si Si5 0.623117 0.651143 0.855586
Si Si6 0.941359 0.021821 0.809684
Si Si7 0.705848 0.786525 0.302772
Si Si8 0.823011 0.565245 0.686768
O O1 0.602157 0.257224 0.553112
O O2 0.415983 0.166901 0.507967
O O3 0.719225 0.144541 0.627162
O O4 0.614275 0.214840 0.690052
O O5 0.639458 0.364530 0.938901
O O6 0.492275 0.470420 0.889994
O O7 0.473444 0.376635 0.989109
O O8 0.712748 0.449967 0.073214
O O9 0.164359 0.816680 0.449485
O O10 0.892270 0.791070 0.375446
O O11 0.821113 0.223910 0.158131
O O12 0.750000 0.250000 0.000000
O O13 0.500000 0.682751 0.750000
O O14 0.538635 0.587031 0.847836
O O15 0.770281 0.043212 0.774816
O O16 0.000000 0.997249 0.750000
O O17 0.668239 0.857451 0.317455
O O18 0.000000 0.541760 0.750000
#
# Coordination Sequence:
#
# PCOD9263535 Si02
#       8
#     8   8   8   8   8   8   8   8
#     4  11  21  34  60  87 122 157 193 257 307 352
#     4  11  22  40  63  87 125 160 202 255 312 363
#     4  10  20  36  57  89 115 157 204 238 304 369
#     4  11  21  38  56  93 122 153 207 250 305 378
#     4  11  20  38  60  86 120 159 210 246 292 374
#     4  11  24  42  64  92 123 166 212 251 308 375
#     4  10  19  34  57  88 121 150 199 256 301 352
#     4  11  21  38  67  92 115 161 216 261 300 358
#
# _framework density 19.561032000000001
#
# number of rings (size 3 to 8) (size 9 to 14) (size 15 to 20)
#    0.000    1.250    7.500    2.250    0.000    1.000 
#    0.000    2.500    0.000    0.750    0.000    0.000 
#    0.000    0.000    0.000    0.000    0.000    0.000 
#
# Total GULP energy -178150.423522 kJ/mol
# GULP energy per Si atom -5567.200735 kJ/mol
# Density = 1.951651 g / cm^3
# Si number density = 19.561032 Si / 1000 Ang^3
#
#
#
# Elastic Constant Matrix: (Units=GPa)
#
#
# Indices 1 2 3 4 5 6 
#
# 1 128.5555 31.6862 45.3443 0.0000 2.1117 0.0000
# 2 31.6862 40.1766 34.3631 0.0000 -5.6951 0.0000
# 3 45.3443 34.3631 95.1810 0.0000 -22.5265 0.0000
# 4 0.0000 0.0000 0.0000 26.2009 0.0000 -3.9755
# 5 2.1117 -5.6951 -22.5265 0.0000 33.8885 0.0000
# 6 0.0000 0.0000 0.0000 -3.9755 0.0000 18.5284
#
#
#
# Elastic Compliance Matrix: (Units=1/GPa)
#
#
# Indices 1 2 3 4 5 6 
#
# 1 0.010656 -0.005497 -0.004115 0.000000 -0.004323 0.000000
# 2 -0.005497 0.039117 -0.011709 0.000000 -0.000867 0.000000
# 3 -0.004115 -0.011709 0.019330 0.000000 0.011138 0.000000
# 4 0.000000 0.000000 0.000000 0.039451 0.000000 0.008465
# 5 -0.004323 -0.000867 0.011138 0.000000 0.037036 0.000000
# 6 0.000000 0.000000 0.000000 0.008465 0.000000 0.055787
#
#
# Mechanical properties :
#
#
# Convention : Reuss Voigt Hill
#
# Bulk Modulus (GPa) = 37.79129 54.07780 45.93455
# Shear Modulus (GPa) = 19.77531 25.89152 22.83342
#
# Velocity S-wave (km/s) = 3.18300 3.64212 3.42027
# Velocity P-wave (km/s) = 5.73326 6.73739 6.25550
#
# Compressibility (1/GPa) = 0.02646112
#
# Stress axis : x y z
#
# Youngs Moduli (GPa) = 93.84163 25.56409 51.73345
#
# Poissons Ratio (x) = 0.14054 0.21289
# Poissons Ratio (y) = 0.51589 0.60573
# Poissons Ratio (z) = 0.38617 0.29932
#
# Static dielectric constant tensor:
#      x y z
#    x 1.795270 0.000000 -0.015700 
#    y 0.000000 1.682730 0.000000 
#    z -0.015700 0.000000 1.731700 
# 
# From -- ./inp_files/200801.got.cif
#   From: 2010.05.17/outbox.cif.g08.bks.cpg/sg15_101_cif.got.tgz:200801.got - 2010.06.03 18:47:42.
