data_PCOD9263398
_publ_section_title
;
Structure prediction by ZEFSAII (Michael W. Deem and Ramdas Pophale) SiO2 
 PCOD9263398
Probable space group: C 2/C
;
_chemical_formula_sum "Si O2"
_cell_formula_units_Z 56
_cell_length_a 21.904639
_cell_length_b 22.161517
_cell_length_c 10.592880
_cell_angle_alpha 90.000000
_cell_angle_beta 34.046811
_cell_angle_gamma 90.000000
_cell_volume 2878.968216
_symmetry_space_group_name_H-M "C 2/C"
_symmetry_group_IT_number 15
_symmetry_cell_setting 'monoclinic'
loop_
_space_group_symop_operation_xyz
x,y,z
-x,y,1/2-z
-x,-y,-z
x,-y,1/2+z
1/2+x,1/2+y,z
1/2-x,1/2+y,1/2-z
1/2-x,1/2-y,-z
1/2+x,1/2-y,1/2+z
loop_
_atom_site_type_symbol
_atom_site_label
_atom_site_fract_x
_atom_site_fract_y
_atom_site_fract_z
Si Si1 0.100589 0.697079 0.321544
Si Si2 0.000000 0.271308 0.250000
Si Si3 0.818803 0.195016 0.437520
Si Si4 0.170801 0.833960 0.140622
Si Si5 0.406382 0.490033 0.006865
Si Si6 0.536512 0.397640 0.966349
Si Si7 0.000000 0.369702 0.750000
Si Si8 0.229740 0.602649 0.779321
O O1 0.029072 0.693505 0.571363
O O2 0.128168 0.766744 0.242488
O O3 0.040518 0.669618 0.301308
O O4 0.221590 0.668069 0.130756
O O5 0.898992 0.227180 0.398423
O O6 0.750000 0.250000 0.500000
O O7 0.896119 0.157108 0.210368
O O8 0.743363 0.147424 0.638759
O O9 0.216994 0.863097 0.191156
O O10 0.063881 0.870436 0.280711
O O11 0.500000 0.507229 0.750000
O O12 0.469468 0.439460 0.981886
O O13 0.381918 0.552948 0.116490
O O14 0.300837 0.456930 0.134603
O O15 0.104340 0.407416 0.526778
#
# Coordination Sequence:
#
# PCOD9263398 Si02
#       8
#     8   4   8   8   8   8   4   8
#     4  10  19  34  56  83 128 167 207 246 318 388
#     4  12  20  38  56  81 131 180 200 254 320 384
#     4  12  22  35  59  93 126 169 213 267 327 406
#     4   9  18  34  53  81 117 169 195 252 315 383
#     4  10  19  37  61  84 114 157 208 271 322 374
#     4  10  20  36  58  87 117 155 215 260 319 382
#     4  10  22  36  58  91 117 168 216 250 300 406
#     4  10  19  36  59  83 118 162 215 252 327 386
#
# _framework density 19.451414
#
# number of rings (size 3 to 8) (size 9 to 14) (size 15 to 20)
#    0.000    1.714    4.286    1.714    0.000    0.000 
#    3.857    0.000    0.000    1.714    0.000    0.000 
#    0.000    0.000    0.000    0.000    0.000    0.000 
#
# Total GULP energy -156017.654882 kJ/mol
# GULP energy per Si atom -5572.059103 kJ/mol
# Density = 1.940714 g / cm^3
# Si number density = 19.451414 Si / 1000 Ang^3
#
#
#
# Elastic Constant Matrix: (Units=GPa)
#
#
# Indices 1 2 3 4 5 6 
#
# 1 51.8496 31.1619 33.0050 0.0001 -8.8955 0.0000
# 2 31.1619 76.9635 36.9508 0.0001 -10.7412 0.0000
# 3 33.0050 36.9508 129.6075 0.0002 -2.6521 -0.0001
# 4 0.0001 0.0001 0.0002 11.2024 -0.0001 -16.5829
# 5 -8.8955 -10.7412 -2.6521 -0.0001 28.4887 0.0000
# 6 0.0000 0.0000 -0.0001 -16.5829 0.0000 16.8786
#
#
#
# Elastic Compliance Matrix: (Units=1/GPa)
#
#
# Indices 1 2 3 4 5 6 
#
# 1 0.028239 -0.008467 -0.004671 0.000000 0.005190 0.000000
# 2 -0.008467 0.018431 -0.003016 0.000000 0.004025 0.000000
# 3 -0.004671 -0.003016 0.009730 0.000000 -0.001690 0.000000
# 4 0.000000 0.000000 0.000000 -0.196463 -0.000001 -0.193021
# 5 0.005190 0.004025 -0.001690 -0.000001 0.038082 -0.000001
# 6 0.000000 0.000000 0.000000 -0.193021 -0.000001 -0.130392
#
#
# Mechanical properties :
#
#
# Convention : Reuss Voigt Hill
#
# Bulk Modulus (GPa) = 41.50684 51.18403 46.34543
# Shear Modulus (GPa) = -26.03719 21.80079 -2.11820
#
# Velocity S-wave (km/s) = -3.66262 3.35144 -1.04467
# Velocity P-wave (km/s) = 1.87046 6.43017 4.73528
#
# Compressibility (1/GPa) = 0.02409241
#
# Stress axis : x y z
#
# Youngs Moduli (GPa) = 35.41203 54.25613 102.77013
#
# Poissons Ratio (x) = 0.45937 0.48005
# Poissons Ratio (y) = 0.29982 0.30998
# Poissons Ratio (z) = 0.16541 0.16365
#
# Static dielectric constant tensor:
#      x y z
#    x 1.721850 0.000000 0.040600 
#    y 0.000000 1.702410 0.000000 
#    z 0.040600 0.000000 1.792000 
# 
# From -- ./inp_files/120150.got.cif
#   From: 2010.05.17/outbox.cif.g08.bks.cpg/sg15_61_cif.got.tgz:120150.got - 2010.06.03 18:47:42.
