data_PCOD9263794
_publ_section_title
;
Structure prediction by ZEFSAII (Michael W. Deem and Ramdas Pophale) SiO2 
 PCOD9263794
Probable space group: C 2/C
;
_chemical_formula_sum "Si O2"
_cell_formula_units_Z 60
_cell_length_a 11.691176
_cell_length_b 15.878337
_cell_length_c 17.346814
_cell_angle_alpha 90.000000
_cell_angle_beta 119.623055
_cell_angle_gamma 90.000000
_cell_volume 2799.307893
_symmetry_space_group_name_H-M "C 2/C"
_symmetry_group_IT_number 15
_symmetry_cell_setting 'monoclinic'
loop_
_space_group_symop_operation_xyz
x,y,z
-x,y,1/2-z
-x,-y,-z
x,-y,1/2+z
1/2+x,1/2+y,z
1/2-x,1/2+y,1/2-z
1/2-x,1/2-y,-z
1/2+x,1/2-y,1/2+z
loop_
_atom_site_type_symbol
_atom_site_label
_atom_site_fract_x
_atom_site_fract_y
_atom_site_fract_z
Si Si1 0.656265 0.486459 0.554802
Si Si2 0.696294 0.659392 0.192747
Si Si3 0.416113 0.066657 0.651014
Si Si4 0.326523 0.443327 0.115836
Si Si5 0.184561 0.239883 0.892488
Si Si6 0.519158 0.123255 0.144755
Si Si7 0.000000 0.910144 0.750000
Si Si8 0.463322 0.092677 0.958684
O O1 0.500000 0.500000 0.500000
O O2 0.678005 0.413470 0.623312
O O3 0.760185 0.558887 0.612963
O O4 0.699723 0.462438 0.482743
O O5 0.713739 0.742021 0.144382
O O6 0.830572 0.640299 0.283923
O O7 0.577413 0.646605 0.213583
O O8 0.500000 0.099771 0.750000
O O9 0.449995 0.116677 0.584972
O O10 0.473621 0.971346 0.653372
O O11 0.388783 0.350115 0.136922
O O12 0.400247 0.523083 0.175735
O O13 0.189102 0.422083 0.111112
O O14 0.079469 0.313262 0.847283
O O15 0.250000 0.250000 0.000000
O O16 0.492686 0.143347 0.045736
O O17 0.500000 0.000000 0.000000
#
# Coordination Sequence:
#
# PCOD9263794 Si02
#       8
#     8   8   8   8   8   8   4   8
#     4  12  22  37  59  96 137 171 223 285 343 397
#     4  12  24  41  67  96 136 184 228 273 345 427
#     4  11  19  34  60  90 126 170 224 276 323 394
#     4  12  24  39  63 100 131 171 222 293 348 389
#     4  12  22  41  69  99 128 172 227 296 344 396
#     4  11  20  36  64  95 122 172 228 273 334 406
#     4  12  28  42  64  98 144 180 220 282 352 420
#     4  10  19  34  60  89 126 165 224 274 334 403
#
# _framework density 21.433869999999999
#
# number of rings (size 3 to 8) (size 9 to 14) (size 15 to 20)
#    0.000    0.533    9.333    2.000    1.867    0.000 
#    0.000    0.000    1.467    0.800    0.000    0.000 
#    0.000    0.000    0.000    0.000    0.000    0.000 
#
# Total GULP energy -167355.425096 kJ/mol
# GULP energy per Si atom -5578.514170 kJ/mol
# Density = 2.138509 g / cm^3
# Si number density = 21.433870 Si / 1000 Ang^3
#
#
#
# Elastic Constant Matrix: (Units=GPa)
#
#
# Indices 1 2 3 4 5 6 
#
# 1 115.6930 18.4039 46.6290 0.0000 4.8369 0.0000
# 2 18.4039 36.6067 9.1835 0.0000 -4.6521 0.0000
# 3 46.6290 9.1835 110.4592 0.0000 -1.5258 0.0000
# 4 0.0000 0.0000 0.0000 20.9903 0.0000 -4.8718
# 5 4.8369 -4.6521 -1.5258 0.0000 44.6187 0.0000
# 6 0.0000 0.0000 0.0000 -4.8718 0.0000 19.1973
#
#
#
# Elastic Compliance Matrix: (Units=1/GPa)
#
#
# Indices 1 2 3 4 5 6 
#
# 1 0.011248 -0.004795 -0.004375 0.000000 -0.001869 0.000000
# 2 -0.004795 0.030305 -0.000445 0.000000 0.003664 0.000000
# 3 -0.004375 -0.000445 0.010948 0.000000 0.000802 0.000000
# 4 0.000000 0.000000 0.000000 0.050623 0.000000 0.012847
# 5 -0.001869 0.003664 0.000802 0.000000 0.023024 0.000000
# 6 0.000000 0.000000 0.000000 0.012847 0.000000 0.055351
#
#
# Mechanical properties :
#
#
# Convention : Reuss Voigt Hill
#
# Bulk Modulus (GPa) = 30.05589 45.68798 37.87193
# Shear Modulus (GPa) = 23.60498 29.53074 26.56786
#
# Velocity S-wave (km/s) = 3.32217 3.71585 3.52451
# Velocity P-wave (km/s) = 5.36366 6.30651 5.85410
#
# Compressibility (1/GPa) = 0.03327135
#
# Stress axis : x y z
#
# Youngs Moduli (GPa) = 88.90587 32.99765 91.33932
#
# Poissons Ratio (x) = 0.15821 0.39964
# Poissons Ratio (y) = 0.42628 0.04064
# Poissons Ratio (z) = 0.38899 0.01468
#
# Static dielectric constant tensor:
#      x y z
#    x 1.668590 0.000000 -0.215710 
#    y 0.000000 1.846830 0.000000 
#    z -0.215710 0.000000 1.663580 
# 
# From -- ./inp_files/199551.got.cif
#   From: 2010.05.17/outbox.cif.g08.bks.cpg/sg15_100_cif.got.tgz:199551.got - 2010.06.03 18:47:42.
