data_PCOD9263887
_publ_section_title
;
Structure prediction by ZEFSAII (Michael W. Deem and Ramdas Pophale) SiO2 
 PCOD9263887
Probable space group: C 2/C
;
_chemical_formula_sum "Si O2"
_cell_formula_units_Z 60
_cell_length_a 19.994023
_cell_length_b 17.357741
_cell_length_c 8.943243
_cell_angle_alpha 90.000000
_cell_angle_beta 113.212363
_cell_angle_gamma 90.000000
_cell_volume 2852.513515
_symmetry_space_group_name_H-M "C 2/C"
_symmetry_group_IT_number 15
_symmetry_cell_setting 'monoclinic'
loop_
_space_group_symop_operation_xyz
x,y,z
-x,y,1/2-z
-x,-y,-z
x,-y,1/2+z
1/2+x,1/2+y,z
1/2-x,1/2+y,1/2-z
1/2-x,1/2-y,-z
1/2+x,1/2-y,1/2+z
loop_
_atom_site_type_symbol
_atom_site_label
_atom_site_fract_x
_atom_site_fract_y
_atom_site_fract_z
Si Si1 0.297725 0.238081 0.334775
Si Si2 0.622223 0.401327 0.043392
Si Si3 0.806398 0.991473 0.667898
Si Si4 0.278421 0.092904 0.137059
Si Si5 0.032556 0.612772 0.612140
Si Si6 0.500000 0.341643 0.750000
Si Si7 0.635996 0.769837 0.301980
Si Si8 0.436742 0.054152 0.312701
O O1 0.336936 0.322402 0.365572
O O2 0.292240 0.182838 0.186474
O O3 0.341651 0.199940 0.513135
O O4 0.213215 0.243727 0.307637
O O5 0.632751 0.467020 0.176864
O O6 0.663291 0.432255 0.929615
O O7 0.538802 0.387138 0.919548
O O8 0.769307 0.060848 0.541108
O O9 0.754000 0.946886 0.739481
O O10 0.358758 0.063086 0.176425
O O11 0.100455 0.668002 0.662648
O O12 0.063238 0.528111 0.606835
O O13 0.000000 0.618951 0.750000
O O14 0.964047 0.622324 0.443707
O O15 0.430519 0.290716 0.740865
O O16 0.500000 0.049382 0.250000
#
# Coordination Sequence:
#
# PCOD9263887 Si02
#       8
#     8   8   8   8   8   4   8   8
#     4  10  22  37  63  93 126 160 215 249 310 371
#     4  10  23  43  65  98 123 162 207 264 314 376
#     4  10  24  41  64  92 126 162 212 259 312 364
#     4  11  23  39  63  90 127 170 208 258 301 376
#     4  10  20  34  56  83 121 162 203 247 300 362
#     4  10  20  36  64  92 122 160 208 260 320 362
#     4  10  19  34  62  90 121 164 208 258 298 372
#     4  10  24  35  52  88 125 160 203 247 308 366
#
# _framework density 21.034079999999999
#
# number of rings (size 3 to 8) (size 9 to 14) (size 15 to 20)
#    0.000    1.867    0.667    3.200   13.067    1.067 
#    0.000    0.000    0.000    0.000    1.733    0.000 
#    0.000    0.000    0.000    0.000    0.000    0.000 
#
# Total GULP energy -167115.797920 kJ/mol
# GULP energy per Si atom -5570.526597 kJ/mol
# Density = 2.098621 g / cm^3
# Si number density = 21.034080 Si / 1000 Ang^3
#
#
#
# Elastic Constant Matrix: (Units=GPa)
#
#
# Indices 1 2 3 4 5 6 
#
# 1 78.1004 17.2538 29.1417 0.0000 29.9464 0.0000
# 2 17.2538 80.2130 34.7264 0.0000 16.8063 0.0000
# 3 29.1417 34.7264 95.6433 0.0000 22.2058 0.0000
# 4 0.0000 0.0000 0.0000 33.6890 0.0000 10.4323
# 5 29.9464 16.8063 22.2058 0.0000 37.4035 0.0000
# 6 0.0000 0.0000 0.0000 10.4323 0.0000 22.7911
#
#
#
# Elastic Compliance Matrix: (Units=1/GPa)
#
#
# Indices 1 2 3 4 5 6 
#
# 1 0.019027 -0.000113 -0.002588 0.000000 -0.013647 0.000000
# 2 -0.000113 0.015330 -0.004585 0.000000 -0.004075 0.000000
# 3 -0.002588 -0.004585 0.013860 0.000000 -0.004096 0.000000
# 4 0.000000 0.000000 0.000000 0.034586 0.000000 -0.015831
# 5 -0.013647 -0.004075 -0.004096 0.000000 0.041924 0.000000
# 6 0.000000 0.000000 0.000000 -0.015831 0.000000 0.051123
#
#
# Mechanical properties :
#
#
# Convention : Reuss Voigt Hill
#
# Bulk Modulus (GPa) = 29.72281 46.24448 37.98364
# Shear Modulus (GPa) = 24.79690 30.29906 27.54798
#
# Velocity S-wave (km/s) = 3.43722 3.79948 3.62288
# Velocity P-wave (km/s) = 5.46938 6.42505 5.96638
#
# Compressibility (1/GPa) = 0.03364420
#
# Stress axis : x y z
#
# Youngs Moduli (GPa) = 52.55629 65.23081 72.15043
#
# Poissons Ratio (x) = 0.00738 0.18673
# Poissons Ratio (y) = 0.00594 0.33084
# Poissons Ratio (z) = 0.13602 0.29911
#
# Static dielectric constant tensor:
#      x y z
#    x 1.766580 0.000000 0.016510 
#    y 0.000000 1.880140 0.000000 
#    z 0.016510 0.000000 1.834170 
# 
# From -- ./inp_files/56677.got.cif
#   From: 2010.05.17/outbox.cif.g08.bks.cpg/sg15_29_cif.got.tgz:56677.got - 2010.06.03 18:47:42.
