data_PCOD9263617
_publ_section_title
;
Structure prediction by ZEFSAII (Michael W. Deem and Ramdas Pophale) SiO2 
 PCOD9263617
Probable space group: C 2/C
;
_chemical_formula_sum "Si O2"
_cell_formula_units_Z 52
_cell_length_a 21.902479
_cell_length_b 22.679864
_cell_length_c 15.737578
_cell_angle_alpha 90.000000
_cell_angle_beta 16.936253
_cell_angle_gamma 90.000000
_cell_volume 2277.316255
_symmetry_space_group_name_H-M "C 2/C"
_symmetry_group_IT_number 15
_symmetry_cell_setting 'monoclinic'
loop_
_space_group_symop_operation_xyz
x,y,z
-x,y,1/2-z
-x,-y,-z
x,-y,1/2+z
1/2+x,1/2+y,z
1/2-x,1/2+y,1/2-z
1/2-x,1/2-y,-z
1/2+x,1/2-y,1/2+z
loop_
_atom_site_type_symbol
_atom_site_label
_atom_site_fract_x
_atom_site_fract_y
_atom_site_fract_z
Si Si1 0.515716 0.665196 0.890856
Si Si2 0.208619 0.414096 0.080988
Si Si3 0.748240 0.997371 0.177930
Si Si4 0.000000 0.098620 0.750000
Si Si5 0.284074 0.440179 0.792241
Si Si6 0.227211 0.209470 0.931776
Si Si7 0.174842 0.233024 0.823405
O O1 0.431641 0.611896 0.061483
O O2 0.320341 0.709190 0.132720
O O3 0.596485 0.638855 0.695167
O O4 0.682405 0.701451 0.723323
O O5 0.293488 0.443555 0.054491
O O6 0.257928 0.345408 0.025153
O O7 0.956849 0.420671 0.407411
O O8 0.295559 0.444161 0.879072
O O9 0.810241 0.003107 0.194899
O O10 0.500000 0.000000 0.500000
O O11 0.839779 0.055719 0.011124
O O12 0.234390 0.191318 0.822870
O O13 0.432499 0.249465 0.662817
O O14 0.000000 0.238813 0.250000
#
# Coordination Sequence:
#
# PCOD9263617 Si02
#       7
#     8   8   8   4   8   8   8
#     4  10  20  40  59  87 121 163 210 251 310 369
#     4  10  19  34  58  86 116 159 204 245 317 362
#     4   9  20  39  60  85 119 156 203 257 304 369
#     4  10  22  40  66  86 118 166 208 254 326 368
#     4   9  18  36  58  81 117 161 197 256 305 368
#     4  11  21  34  55  87 122 159 204 252 305 374
#     4  10  22  37  57  84 126 166 201 259 304 359
#
# _framework density 22.833894999999998
#
# number of rings (size 3 to 8) (size 9 to 14) (size 15 to 20)
#    0.000    2.154    1.538    1.385    1.077    1.846 
#    2.769    1.538    0.000    0.000    0.000    0.000 
#    0.000    0.000    0.000    0.000    0.000    0.000 
#
# Total GULP energy -145148.161647 kJ/mol
# GULP energy per Si atom -5582.621602 kJ/mol
# Density = 2.278192 g / cm^3
# Si number density = 22.833895 Si / 1000 Ang^3
#
#
#
# Elastic Constant Matrix: (Units=GPa)
#
#
# Indices 1 2 3 4 5 6 
#
# 1 155.1534 36.3857 -2.0085 -0.0164 19.0817 0.0509
# 2 36.3857 59.3824 -4.9295 0.0404 8.7953 -0.0014
# 3 -2.0085 -4.9295 44.0313 0.0466 2.7204 -0.0190
# 4 -0.0164 0.0404 0.0466 12.4276 -0.0380 11.0994
# 5 19.0817 8.7953 2.7204 -0.0380 31.3145 0.0097
# 6 0.0509 -0.0014 -0.0190 11.0994 0.0097 38.1548
#
#
#
# Elastic Compliance Matrix: (Units=1/GPa)
#
#
# Indices 1 2 3 4 5 6 
#
# 1 0.007899 -0.004296 0.000103 0.000029 -0.003615 -0.000018
# 2 -0.004296 0.020139 0.002259 -0.000131 -0.003235 0.000047
# 3 0.000103 0.002259 0.023136 -0.000153 -0.002707 0.000057
# 4 0.000029 -0.000131 -0.000153 0.108713 0.000174 -0.031625
# 5 -0.003615 -0.003235 -0.002707 0.000174 0.035281 -0.000056
# 6 -0.000018 0.000047 0.000057 -0.031625 -0.000056 0.035409
#
#
# Mechanical properties :
#
#
# Convention : Reuss Voigt Hill
#
# Bulk Modulus (GPa) = 21.13941 35.27359 28.20650
# Shear Modulus (GPa) = 19.98291 31.65401 25.81846
#
# Velocity S-wave (km/s) = 2.96149 3.72731 3.36625
# Velocity P-wave (km/s) = 4.57951 5.83140 5.24295
#
# Compressibility (1/GPa) = 0.04730501
#
# Stress axis : x y z
#
# Youngs Moduli (GPa) = 126.60399 49.65501 43.22244
#
# Poissons Ratio (x) = 0.21331 -0.00444
# Poissons Ratio (y) = 0.54386 -0.09763
# Poissons Ratio (z) = -0.01300 -0.11216
#
# Static dielectric constant tensor:
#      x y z
#    x 1.917340 -0.000050 0.022310 
#    y -0.000050 1.839990 0.000130 
#    z 0.022310 0.000130 1.841370 
# 
# From -- ./inp_files/169849.got.cif
#   From: 2010.05.17/outbox.cif.g08.bks.cpg/sg15_85_cif.got.tgz:169849.got - 2010.06.03 18:47:42.
