data_PCOD9263921
_publ_section_title
;
Structure prediction by ZEFSAII (Michael W. Deem and Ramdas Pophale) SiO2 
 PCOD9263921
Probable space group: C 2/C
;
_chemical_formula_sum "Si O2"
_cell_formula_units_Z 44
_cell_length_a 22.720819
_cell_length_b 8.247252
_cell_length_c 9.707851
_cell_angle_alpha 90.000000
_cell_angle_beta 106.286888
_cell_angle_gamma 90.000000
_cell_volume 1746.097697
_symmetry_space_group_name_H-M "C 2/C"
_symmetry_group_IT_number 15
_symmetry_cell_setting 'monoclinic'
loop_
_space_group_symop_operation_xyz
x,y,z
-x,y,1/2-z
-x,-y,-z
x,-y,1/2+z
1/2+x,1/2+y,z
1/2-x,1/2+y,1/2-z
1/2-x,1/2-y,-z
1/2+x,1/2-y,1/2+z
loop_
_atom_site_type_symbol
_atom_site_label
_atom_site_fract_x
_atom_site_fract_y
_atom_site_fract_z
Si Si1 0.418285 0.716938 0.466146
Si Si2 0.000000 0.230143 0.750000
Si Si3 0.306695 0.422778 0.029822
Si Si4 0.153441 0.224659 0.335852
Si Si5 0.277933 0.212585 0.247762
Si Si6 0.601041 0.968325 0.692574
O O1 0.470303 0.643376 0.597590
O O2 0.356295 0.707582 0.513908
O O3 0.395176 0.643630 0.305411
O O4 0.430063 0.904455 0.433990
O O5 0.053509 0.343089 0.723561
O O6 0.337565 0.598294 0.036344
O O7 0.291469 0.381431 0.177628
O O8 0.249223 0.395711 0.895780
O O9 0.221880 0.233437 0.315828
O O10 0.126817 0.404678 0.324619
O O11 0.340170 0.123794 0.331970
#
# Coordination Sequence:
#
# PCOD9263921 Si02
#       6
#     8   4   8   8   8   8
#     4   9  22  40  59  89 116 162 208 247 300 355
#     4  12  20  42  68  80 126 164 210 252 294 362
#     4  10  19  38  61  87 128 161 187 257 315 357
#     4   9  21  36  59  92 124 148 204 254 297 364
#     4  10  19  34  63  91 125 159 198 242 314 368
#     4  10  22  38  62  96 115 162 210 248 293 368
#
# _framework density 25.199047
#
# number of rings (size 3 to 8) (size 9 to 14) (size 15 to 20)
#    1.091    1.091    1.818    1.636    2.545    0.727 
#    0.000    5.455    0.000    0.000    0.000    0.000 
#    0.000    0.000    0.000    0.000    0.000    0.000 
#
# Total GULP energy -122761.543191 kJ/mol
# GULP energy per Si atom -5580.070145 kJ/mol
# Density = 2.514169 g / cm^3
# Si number density = 25.199047 Si / 1000 Ang^3
#
#
#
# Elastic Constant Matrix: (Units=GPa)
#
#
# Indices 1 2 3 4 5 6 
#
# 1 46.6043 -5.6253 12.8956 0.0000 20.8409 0.0000
# 2 -5.6253 58.1385 13.2750 0.0000 5.9845 0.0000
# 3 12.8956 13.2750 80.8964 0.0000 23.7811 0.0000
# 4 0.0000 0.0000 0.0000 41.2184 0.0000 0.5916
# 5 20.8409 5.9845 23.7811 0.0000 37.6072 0.0000
# 6 0.0000 0.0000 0.0000 0.5916 0.0000 23.2517
#
#
#
# Elastic Compliance Matrix: (Units=1/GPa)
#
#
# Indices 1 2 3 4 5 6 
#
# 1 0.029732 0.004741 -0.000555 0.000000 -0.016880 0.000000
# 2 0.004741 0.018671 -0.002670 0.000000 -0.003910 0.000000
# 3 -0.000555 -0.002670 0.015567 0.000000 -0.009111 0.000000
# 4 0.000000 0.000000 0.000000 0.024270 0.000000 -0.000618
# 5 -0.016880 -0.003910 -0.009111 0.000000 0.042328 0.000000
# 6 0.000000 0.000000 0.000000 -0.000618 0.000000 0.043023
#
#
# Mechanical properties :
#
#
# Convention : Reuss Voigt Hill
#
# Bulk Modulus (GPa) = 14.92532 25.19219 20.05875
# Shear Modulus (GPa) = 25.92107 31.42174 28.67140
#
# Velocity S-wave (km/s) = 3.21074 3.53504 3.37678
# Velocity P-wave (km/s) = 4.43632 5.16536 4.81466
#
# Compressibility (1/GPa) = 0.06700024
#
# Stress axis : x y z
#
# Youngs Moduli (GPa) = 33.63430 53.55830 64.24047
#
# Poissons Ratio (x) = -0.25392 0.03568
# Poissons Ratio (y) = -0.15946 0.17154
# Poissons Ratio (z) = 0.01868 0.14301
#
# Static dielectric constant tensor:
#      x y z
#    x 1.894720 0.000000 -0.007090 
#    y 0.000000 2.045430 0.000000 
#    z -0.007090 0.000000 2.163460 
# 
# From -- ./inp_files/116527.got.cif
#   From: 2010.05.17/outbox.cif.g08.bks.cpg/sg15_59_cif.got.tgz:116527.got - 2010.06.03 18:47:42.
