data_PCOD9263662
_publ_section_title
;
Structure prediction by ZEFSAII (Michael W. Deem and Ramdas Pophale) SiO2 
 PCOD9263662
Probable space group: C 2/C
;
_chemical_formula_sum "Si O2"
_cell_formula_units_Z 64
_cell_length_a 15.240623
_cell_length_b 15.925692
_cell_length_c 16.826619
_cell_angle_alpha 90.000000
_cell_angle_beta 126.978001
_cell_angle_gamma 90.000000
_cell_volume 3262.662226
_symmetry_space_group_name_H-M "C 2/C"
_symmetry_group_IT_number 15
_symmetry_cell_setting 'monoclinic'
loop_
_space_group_symop_operation_xyz
x,y,z
-x,y,1/2-z
-x,-y,-z
x,-y,1/2+z
1/2+x,1/2+y,z
1/2-x,1/2+y,1/2-z
1/2-x,1/2-y,-z
1/2+x,1/2-y,1/2+z
loop_
_atom_site_type_symbol
_atom_site_label
_atom_site_fract_x
_atom_site_fract_y
_atom_site_fract_z
Si Si1 0.785439 0.864590 0.528279
Si Si2 0.821946 0.787004 0.145557
Si Si3 0.027985 0.834985 0.678114
Si Si4 0.425892 0.723232 0.865596
Si Si5 0.709854 0.771056 0.344738
Si Si6 0.634244 0.345288 0.574880
Si Si7 0.756854 0.943113 0.004269
Si Si8 0.546571 0.860880 0.861807
O O1 0.706104 0.838904 0.413048
O O2 0.755456 0.815585 0.591879
O O3 0.906779 0.826980 0.575536
O O4 0.792663 0.963298 0.541811
O O5 0.905768 0.802588 0.263224
O O6 0.714348 0.736672 0.118843
O O7 0.798217 0.873037 0.088285
O O8 0.874433 0.719937 0.112766
O O9 0.095901 0.751580 0.739801
O O10 0.101875 0.872211 0.646966
O O11 0.000000 0.875956 0.750000
O O12 0.309326 0.706860 0.842073
O O13 0.457147 0.822215 0.872449
O O14 0.523149 0.678480 0.966612
O O15 0.697613 0.414935 0.557500
O O16 0.625175 0.933667 0.934098
O O17 0.500000 0.882800 0.750000
#
# Coordination Sequence:
#
# PCOD9263662 Si02
#       8
#     8   8   8   8   8   8   8   8
#     4  10  23  41  62  82 117 158 199 260 301 347
#     4  10  19  34  58  92 126 156 194 238 295 369
#     4  10  21  40  61  85 110 156 206 248 293 348
#     4  11  18  33  63  87 112 162 205 239 284 355
#     4  10  21  41  59  81 108 159 218 244 288 353
#     4  11  19  35  62  92 119 159 194 241 300 362
#     4  11  21  38  57  93 132 152 189 249 312 360
#     4   9  18  33  57  87 122 161 193 234 294 353
#
# _framework density 19.615883
#
# number of rings (size 3 to 8) (size 9 to 14) (size 15 to 20)
#    0.000    1.750    5.000    0.750    0.000    0.500 
#    6.750    3.750    0.000    0.000    0.000    0.000 
#    0.000    0.000    0.000    0.000    0.000    0.000 
#
# Total GULP energy -178204.023852 kJ/mol
# GULP energy per Si atom -5568.875745 kJ/mol
# Density = 1.957124 g / cm^3
# Si number density = 19.615883 Si / 1000 Ang^3
#
#
#
# Elastic Constant Matrix: (Units=GPa)
#
#
# Indices 1 2 3 4 5 6 
#
# 1 47.3468 14.3541 1.5985 0.0000 -13.1755 0.0000
# 2 14.3541 64.6135 19.6475 0.0000 2.6581 0.0000
# 3 1.5985 19.6475 69.4010 0.0000 8.2850 0.0000
# 4 0.0000 0.0000 0.0000 12.1037 0.0000 3.3749
# 5 -13.1755 2.6581 8.2850 0.0000 41.8475 0.0000
# 6 0.0000 0.0000 0.0000 3.3749 0.0000 7.1380
#
#
#
# Elastic Compliance Matrix: (Units=1/GPa)
#
#
# Indices 1 2 3 4 5 6 
#
# 1 0.025242 -0.005986 0.000122 0.000000 0.008303 0.000000
# 2 -0.005986 0.018355 -0.004808 0.000000 -0.002099 0.000000
# 3 0.000122 -0.004808 0.016107 0.000000 -0.002845 0.000000
# 4 0.000000 0.000000 0.000000 0.095165 0.000000 -0.044995
# 5 0.008303 -0.002099 -0.002845 0.000000 0.027207 0.000000
# 6 0.000000 0.000000 0.000000 -0.044995 0.000000 0.161368
#
#
# Mechanical properties :
#
#
# Convention : Reuss Voigt Hill
#
# Bulk Modulus (GPa) = 26.06903 28.06242 27.06573
# Shear Modulus (GPa) = 13.24238 21.93526 17.58882
#
# Velocity S-wave (km/s) = 2.60106 3.34764 2.99768
# Velocity P-wave (km/s) = 4.72644 5.41103 5.08028
#
# Compressibility (1/GPa) = 0.03835969
#
# Stress axis : x y z
#
# Youngs Moduli (GPa) = 39.61629 54.48162 62.08504
#
# Poissons Ratio (x) = 0.32615 -0.00758
# Poissons Ratio (y) = 0.23716 0.29850
# Poissons Ratio (z) = -0.00484 0.26194
#
# Static dielectric constant tensor:
#      x y z
#    x 1.762540 0.000000 0.009030 
#    y 0.000000 1.658440 0.000000 
#    z 0.009030 0.000000 1.750280 
# 
# From -- ./inp_files/205431.got.cif
#   From: 2010.05.17/outbox.cif.g08.bks.cpg/sg15_103_cif.got.tgz:205431.got - 2010.06.03 18:47:42.
