data_PCOD9263213
_publ_section_title
;
Structure prediction by ZEFSAII (Michael W. Deem and Ramdas Pophale) SiO2 
 PCOD9263213
Probable space group: C 2/C
;
_chemical_formula_sum "Si O2"
_cell_formula_units_Z 56
_cell_length_a 20.587588
_cell_length_b 12.948627
_cell_length_c 7.825392
_cell_angle_alpha 90.000000
_cell_angle_beta 96.887829
_cell_angle_gamma 90.000000
_cell_volume 2071.045083
_symmetry_space_group_name_H-M "C 2/C"
_symmetry_group_IT_number 15
_symmetry_cell_setting 'monoclinic'
loop_
_space_group_symop_operation_xyz
x,y,z
-x,y,1/2-z
-x,-y,-z
x,-y,1/2+z
1/2+x,1/2+y,z
1/2-x,1/2+y,1/2-z
1/2-x,1/2-y,-z
1/2+x,1/2-y,1/2+z
loop_
_atom_site_type_symbol
_atom_site_label
_atom_site_fract_x
_atom_site_fract_y
_atom_site_fract_z
Si Si1 0.094585 0.504404 0.152007
Si Si2 0.219335 0.851371 0.147603
Si Si3 0.500000 0.642956 0.750000
Si Si4 0.500000 0.152785 0.750000
Si Si5 0.725031 0.633557 0.272825
Si Si6 0.587251 0.765856 0.515132
Si Si7 0.844743 0.375498 0.552005
Si Si8 0.864035 0.871174 0.057621
O O1 0.033947 0.425779 0.129776
O O2 0.096071 0.614527 0.061131
O O3 0.157026 0.430957 0.131131
O O4 0.100670 0.549428 0.347010
O O5 0.268979 0.759048 0.209384
O O6 0.152904 0.794585 0.061894
O O7 0.190654 0.899417 0.314241
O O8 0.237795 0.903584 0.972074
O O9 0.532826 0.714392 0.616852
O O10 0.563992 0.590089 0.859963
O O11 0.442030 0.228928 0.680487
O O12 0.716074 0.887397 0.841079
O O13 0.661648 0.601797 0.140391
O O14 0.864308 0.255461 0.559857
#
# Coordination Sequence:
#
# PCOD9263213 Si02
#       8
#     8   8   4   4   8   8   8   8
#     4  12  22  35  48  71 110 149 184 219 248 306
#     4   9  19  34  54  74  99 135 192 231 265 307
#     4  10  19  34  54  74 114 132 181 224 262 322
#     4  12  25  30  48  74 108 156 187 202 250 306
#     4  10  20  37  56  72  98 142 189 235 274 312
#     4  11  21  34  47  74 104 147 181 220 253 307
#     4  11  22  36  49  74 103 143 190 221 264 309
#     4  10  20  36  55  78 102 147 178 226 277 317
#
# _framework density 27.039491000000002
#
# number of rings (size 3 to 8) (size 9 to 14) (size 15 to 20)
#    0.000    1.429    5.714    3.429    4.000    0.000 
#    2.571    0.000    0.000    0.000    0.000    0.000 
#    0.000    1.143    0.000    0.571    0.000    0.286 
#
# Total GULP energy -156342.235281 kJ/mol
# GULP energy per Si atom -5583.651260 kJ/mol
# Density = 2.697795 g / cm^3
# Si number density = 27.039491 Si / 1000 Ang^3
#
#
#
# Elastic Constant Matrix: (Units=GPa)
#
#
# Indices 1 2 3 4 5 6 
#
# 1 109.6832 5.0424 29.2117 0.0000 -13.1056 0.0000
# 2 5.0424 56.3147 17.0987 0.0000 -9.6968 0.0000
# 3 29.2117 17.0987 110.8180 0.0000 0.8119 0.0000
# 4 0.0000 0.0000 0.0000 39.8901 0.0000 1.6540
# 5 -13.1056 -9.6968 0.8119 0.0000 60.8856 0.0000
# 6 0.0000 0.0000 0.0000 1.6540 0.0000 15.1517
#
#
#
# Elastic Compliance Matrix: (Units=1/GPa)
#
#
# Indices 1 2 3 4 5 6 
#
# 1 0.010099 0.000313 -0.002727 0.000000 0.002260 0.000000
# 2 0.000313 0.019207 -0.003069 0.000000 0.003167 0.000000
# 3 -0.002727 -0.003069 0.010225 0.000000 -0.001212 0.000000
# 4 0.000000 0.000000 0.000000 0.025183 0.000000 -0.002749
# 5 0.002260 0.003167 -0.001212 0.000000 0.017431 0.000000
# 6 0.000000 0.000000 0.000000 -0.002749 0.000000 0.066299
#
#
# Mechanical properties :
#
#
# Convention : Reuss Voigt Hill
#
# Bulk Modulus (GPa) = 35.00881 42.16905 38.58893
# Shear Modulus (GPa) = 29.59771 38.21635 33.90703
#
# Velocity S-wave (km/s) = 3.31208 3.76354 3.54500
# Velocity P-wave (km/s) = 5.25375 5.87493 5.57300
#
# Compressibility (1/GPa) = 0.02856424
#
# Stress axis : x y z
#
# Youngs Moduli (GPa) = 99.01887 52.06546 97.79881
#
# Poissons Ratio (x) = -0.01629 0.26669
# Poissons Ratio (y) = -0.03098 0.30016
# Poissons Ratio (z) = 0.27002 0.15980
#
# Static dielectric constant tensor:
#      x y z
#    x 2.168000 0.000000 0.133580 
#    y 0.000000 2.061290 0.000000 
#    z 0.133580 0.000000 2.659800 
# 
# From -- ./inp_files/58211.got.cif
#   From: 2010.05.17/outbox.cif.g08.bks.cpg/sg15_30_cif.got.tgz:58211.got - 2010.06.03 18:47:42.
