data_PCOD9263623
_publ_section_title
;
Structure prediction by ZEFSAII (Michael W. Deem and Ramdas Pophale) SiO2 
 PCOD9263623
Probable space group: C 2/C
;
_chemical_formula_sum "Si O2"
_cell_formula_units_Z 60
_cell_length_a 8.485690
_cell_length_b 22.423545
_cell_length_c 17.562291
_cell_angle_alpha 90.000000
_cell_angle_beta 89.185195
_cell_angle_gamma 90.000000
_cell_volume 3341.401680
_symmetry_space_group_name_H-M "C 2/C"
_symmetry_group_IT_number 15
_symmetry_cell_setting 'monoclinic'
loop_
_space_group_symop_operation_xyz
x,y,z
-x,y,1/2-z
-x,-y,-z
x,-y,1/2+z
1/2+x,1/2+y,z
1/2-x,1/2+y,1/2-z
1/2-x,1/2-y,-z
1/2+x,1/2-y,1/2+z
loop_
_atom_site_type_symbol
_atom_site_label
_atom_site_fract_x
_atom_site_fract_y
_atom_site_fract_z
Si Si1 0.199363 0.192063 0.955637
Si Si2 0.734343 0.054045 0.371164
Si Si3 0.500000 0.101604 0.250000
Si Si4 0.945829 0.185454 0.836348
Si Si5 0.330162 0.186583 0.372431
Si Si6 0.023693 0.119527 0.430295
Si Si7 0.477349 0.122590 0.002689
Si Si8 0.294606 0.575452 0.931534
O O1 0.106434 0.202300 0.879400
O O2 0.250000 0.250000 0.000000
O O3 0.352830 0.151352 0.946375
O O4 0.079464 0.159523 0.012929
O O5 0.628282 0.063876 0.296921
O O6 0.622485 0.079812 0.440119
O O7 0.898237 0.090924 0.373357
O O8 0.785335 0.986774 0.388090
O O9 0.407089 0.144991 0.307712
O O10 0.837801 0.244470 0.847964
O O11 0.866640 0.128438 0.878609
O O12 0.000000 0.173720 0.750000
O O13 0.158616 0.160002 0.391975
O O14 0.438105 0.173543 0.446307
O O15 0.107948 0.073744 0.489059
O O16 0.617452 0.090594 0.958272
#
# Coordination Sequence:
#
# PCOD9263623 Si02
#       8
#     8   8   4   8   8   8   8   8
#     4  10  19  34  58  87 113 147 195 240 290 340
#     4  10  20  40  58  86 118 148 196 238 295 342
#     4  10  22  38  58  78 114 158 186 238 284 350
#     4  11  23  38  55  82 126 161 181 237 302 357
#     4  10  19  37  59  85 112 146 197 236 295 337
#     4   9  21  34  62  88 106 146 197 252 282 333
#     4   9  19  35  63  88 106 148 196 250 281 334
#     4  10  21  38  60  86 117 150 195 236 296 349
#
# _framework density 17.956536
#
# number of rings (size 3 to 8) (size 9 to 14) (size 15 to 20)
#    0.000    2.133    2.000    0.800    1.867    2.133 
#    4.800    0.000    0.000    0.000    0.000    0.000 
#    0.000    0.000    0.000    0.000    0.000    0.000 
#
# Total GULP energy -167229.986710 kJ/mol
# GULP energy per Si atom -5574.332890 kJ/mol
# Density = 1.791567 g / cm^3
# Si number density = 17.956536 Si / 1000 Ang^3
#
#
#
# Elastic Constant Matrix: (Units=GPa)
#
#
# Indices 1 2 3 4 5 6 
#
# 1 124.1482 30.4290 39.7349 0.0000 18.1895 0.0000
# 2 30.4290 70.5047 17.1647 0.0000 19.0685 0.0000
# 3 39.7349 17.1647 71.6925 0.0000 24.8642 0.0000
# 4 0.0000 0.0000 0.0000 15.1876 0.0000 8.1906
# 5 18.1895 19.0685 24.8642 0.0000 27.0681 0.0000
# 6 0.0000 0.0000 0.0000 8.1906 0.0000 3.3082
#
#
#
# Elastic Compliance Matrix: (Units=1/GPa)
#
#
# Indices 1 2 3 4 5 6 
#
# 1 0.010468 -0.003261 -0.004957 0.000000 -0.000183 0.000000
# 2 -0.003261 0.018539 0.001671 0.000000 -0.012403 0.000000
# 3 -0.004957 0.001671 0.022818 0.000000 -0.018806 0.000000
# 4 0.000000 0.000000 0.000000 -0.196420 0.000000 0.486307
# 5 -0.000183 -0.012403 -0.018806 0.000000 0.063079 0.000000
# 6 0.000000 0.000000 0.000000 0.486307 0.000000 -0.901744
#
#
# Mechanical properties :
#
#
# Convention : Reuss Voigt Hill
#
# Bulk Modulus (GPa) = 25.82085 49.00030 37.41057
# Shear Modulus (GPa) = -5.22327 21.04721 7.91197
#
# Velocity S-wave (km/s) = -1.70738 3.42734 2.10137
# Velocity P-wave (km/s) = 3.24407 6.55818 5.17367
#
# Compressibility (1/GPa) = 0.03872839
#
# Stress axis : x y z
#
# Youngs Moduli (GPa) = 95.53181 53.94112 43.82442
#
# Poissons Ratio (x) = 0.17592 0.21725
# Poissons Ratio (y) = 0.31157 -0.07321
# Poissons Ratio (z) = 0.47358 -0.09011
#
# Static dielectric constant tensor:
#      x y z
#    x 1.666560 0.000000 0.065660 
#    y 0.000000 1.628920 0.000000 
#    z 0.065660 0.000000 1.657430 
# 
# From -- ./inp_files/192217.got.cif
#   From: 2010.05.17/outbox.cif.g08.bks.cpg/sg15_97_cif.got.tgz:192217.got - 2010.06.03 18:47:42.
