data_PCOD9263749
_publ_section_title
;
Structure prediction by ZEFSAII (Michael W. Deem and Ramdas Pophale) SiO2 
 PCOD9263749
Probable space group: C 2/C
;
_chemical_formula_sum "Si O2"
_cell_formula_units_Z 56
_cell_length_a 5.381228
_cell_length_b 31.638940
_cell_length_c 14.494587
_cell_angle_alpha 90.000000
_cell_angle_beta 76.968332
_cell_angle_gamma 90.000000
_cell_volume 2404.238841
_symmetry_space_group_name_H-M "C 2/C"
_symmetry_group_IT_number 15
_symmetry_cell_setting 'monoclinic'
loop_
_space_group_symop_operation_xyz
x,y,z
-x,y,1/2-z
-x,-y,-z
x,-y,1/2+z
1/2+x,1/2+y,z
1/2-x,1/2+y,1/2-z
1/2-x,1/2-y,-z
1/2+x,1/2-y,1/2+z
loop_
_atom_site_type_symbol
_atom_site_label
_atom_site_fract_x
_atom_site_fract_y
_atom_site_fract_z
Si Si1 0.264954 0.907910 0.113527
Si Si2 0.361854 0.527299 0.163135
Si Si3 0.008894 0.230744 0.073214
Si Si4 0.500000 0.101672 0.250000
Si Si5 0.265325 0.652799 0.389625
Si Si6 0.500000 0.957901 0.250000
Si Si7 0.657637 0.425494 0.499387
Si Si8 0.190180 0.314936 0.440895
O O1 0.305138 0.929134 0.209199
O O2 0.231284 0.857112 0.119373
O O3 0.540280 0.920137 0.044132
O O4 0.029517 0.924362 0.072679
O O5 0.500000 0.522483 0.250000
O O6 0.577269 0.534911 0.068958
O O7 0.189150 0.569429 0.182397
O O8 0.163024 0.489058 0.170622
O O9 0.077004 0.195293 0.141419
O O10 0.864131 0.273265 0.115957
O O11 0.250000 0.250000 0.000000
O O12 0.871672 0.203961 0.004390
O O13 0.649452 0.130539 0.310007
O O14 0.408927 0.616496 0.434765
O O15 0.048268 0.668953 0.478213
#
# Coordination Sequence:
#
# PCOD9263749 Si02
#       8
#     8   8   8   4   8   4   8   8
#     4  11  25  45  71 100 131 185 235 280 338 412
#     4  11  24  44  65  96 138 174 215 289 357 406
#     4   9  17  32  59  93 123 167 224 274 320 387
#     4  11  22  36  62  94 140 174 204 284 358 409
#     4  10  19  34  59  96 128 171 219 266 336 411
#     4  11  30  46  68  98 136 176 232 292 348 403
#     4  11  23  43  71  98 132 179 232 274 340 423
#     4   9  18  35  62  87 129 171 224 270 322 397
#
# _framework density 23.292196000000001
#
# number of rings (size 3 to 8) (size 9 to 14) (size 15 to 20)
#    0.000    1.714    2.857    1.714    4.000    1.143 
#    0.000    0.000    9.429    0.000    0.000    0.000 
#    0.000    0.000    0.000    0.000    0.000    0.000 
#
# Total GULP energy -156424.484537 kJ/mol
# GULP energy per Si atom -5586.588733 kJ/mol
# Density = 2.323918 g / cm^3
# Si number density = 23.292196 Si / 1000 Ang^3
#
#
#
# Elastic Constant Matrix: (Units=GPa)
#
#
# Indices 1 2 3 4 5 6 
#
# 1 91.1751 38.5302 19.9906 0.0000 12.3672 0.0000
# 2 38.5302 169.4674 45.9718 0.0000 18.1873 0.0000
# 3 19.9906 45.9718 67.0399 0.0000 22.3216 0.0000
# 4 0.0000 0.0000 0.0000 -245.7119 0.0000 194.9103
# 5 12.3672 18.1873 22.3216 0.0000 43.7050 0.0000
# 6 0.0000 0.0000 0.0000 194.9103 0.0000 -86.1626
#
#
#
# Elastic Compliance Matrix: (Units=1/GPa)
#
#
# Indices 1 2 3 4 5 6 
#
# 1 0.012500 -0.002212 -0.001614 0.000000 -0.001792 0.000000
# 2 -0.002212 0.007653 -0.004502 0.000000 -0.000259 0.000000
# 3 -0.001614 -0.004502 0.021338 0.000000 -0.008568 0.000000
# 4 0.000000 0.000000 0.000000 0.005123 0.000000 0.011589
# 5 -0.001792 -0.000259 -0.008568 0.000000 0.027872 0.000000
# 6 0.000000 0.000000 0.000000 0.011589 0.000000 0.014609
#
#
# Mechanical properties :
#
#
# Convention : Reuss Voigt Hill
#
# Bulk Modulus (GPa) = 40.26570 59.62974 49.94772
# Shear Modulus (GPa) = 43.84929 -42.75458 0.54736
#
# Velocity S-wave (km/s) = 4.34357 -4.28901 0.48529
# Velocity P-wave (km/s) = 6.51768 1.06247 4.66953
#
# Compressibility (1/GPa) = 0.02483504
#
# Stress axis : x y z
#
# Youngs Moduli (GPa) = 80.00291 130.67121 46.86583
#
# Poissons Ratio (x) = 0.28902 0.07563
# Poissons Ratio (y) = 0.17695 0.21098
# Poissons Ratio (z) = 0.12910 0.58827
#
# Static dielectric constant tensor:
#      x y z
#    x 1.723590 0.000000 -0.001350 
#    y 0.000000 1.970240 0.000000 
#    z -0.001350 0.000000 1.878160 
# 
# From -- ./inp_files/130832.got.cif
#   From: 2010.05.17/outbox.cif.g08.bks.cpg/sg15_66_cif.got.tgz:130832.got - 2010.06.03 18:47:42.
