data_PCOD9263716
_publ_section_title
;
Structure prediction by ZEFSAII (Michael W. Deem and Ramdas Pophale) SiO2 
 PCOD9263716
Probable space group: C 2/C
;
_chemical_formula_sum "Si O2"
_cell_formula_units_Z 44
_cell_length_a 10.774243
_cell_length_b 15.481003
_cell_length_c 12.475789
_cell_angle_alpha 90.000000
_cell_angle_beta 97.628939
_cell_angle_gamma 90.000000
_cell_volume 2062.493839
_symmetry_space_group_name_H-M "C 2/C"
_symmetry_group_IT_number 15
_symmetry_cell_setting 'monoclinic'
loop_
_space_group_symop_operation_xyz
x,y,z
-x,y,1/2-z
-x,-y,-z
x,-y,1/2+z
1/2+x,1/2+y,z
1/2-x,1/2+y,1/2-z
1/2-x,1/2-y,-z
1/2+x,1/2-y,1/2+z
loop_
_atom_site_type_symbol
_atom_site_label
_atom_site_fract_x
_atom_site_fract_y
_atom_site_fract_z
Si Si1 0.254995 0.367931 0.733833
Si Si2 0.000000 0.578818 0.250000
Si Si3 0.614827 0.035365 0.940361
Si Si4 0.633657 0.500434 0.402121
Si Si5 0.418877 0.770658 0.132273
Si Si6 0.576973 0.634063 0.044921
O O1 0.313217 0.460132 0.701670
O O2 0.312247 0.294985 0.661806
O O3 0.305364 0.354281 0.860794
O O4 0.105968 0.366627 0.703011
O O5 0.087284 0.517353 0.330240
O O6 0.614501 0.136349 0.915381
O O7 0.749429 0.016088 0.005314
O O8 0.500000 0.000000 0.000000
O O9 0.513295 0.559454 0.415063
O O10 0.603169 0.400996 0.428219
O O11 0.500000 0.782682 0.250000
O O12 0.498527 0.720814 0.051144
#
# Coordination Sequence:
#
# PCOD9263716 Si02
#       6
#     8   4   8   8   8   8
#     4  10  20  37  62  86 120 159 198 249 301 348
#     4  12  22  38  60  88 126 152 196 254 302 350
#     4  12  23  38  62  90 118 157 197 243 299 356
#     4  10  19  34  59  88 115 155 201 239 297 353
#     4   9  20  39  63  85 116 160 198 240 300 352
#     4   9  19  36  59  87 118 156 201 246 288 355
#
# _framework density 21.333397999999999
#
# number of rings (size 3 to 8) (size 9 to 14) (size 15 to 20)
#    0.000    1.818    4.545    1.636    0.000    2.909 
#    0.000    0.909    4.000    2.182    0.000    0.000 
#    0.000    0.000    0.000    0.000    0.000    0.000 
#
# Total GULP energy -122607.964205 kJ/mol
# GULP energy per Si atom -5573.089282 kJ/mol
# Density = 2.128484 g / cm^3
# Si number density = 21.333398 Si / 1000 Ang^3
#
#
#
# Elastic Constant Matrix: (Units=GPa)
#
#
# Indices 1 2 3 4 5 6 
#
# 1 86.3364 26.8009 11.9636 0.0000 10.1930 0.0000
# 2 26.8009 78.8833 13.5048 0.0000 -2.9754 0.0000
# 3 11.9636 13.5048 30.8790 0.0000 3.1225 0.0000
# 4 0.0000 0.0000 0.0000 20.6945 0.0000 -0.8002
# 5 10.1930 -2.9754 3.1225 0.0000 36.5700 0.0000
# 6 0.0000 0.0000 0.0000 -0.8002 0.0000 12.3950
#
#
#
# Elastic Compliance Matrix: (Units=1/GPa)
#
#
# Indices 1 2 3 4 5 6 
#
# 1 0.013812 -0.004317 -0.003065 0.000000 -0.003939 0.000000
# 2 -0.004317 0.015150 -0.005245 0.000000 0.002884 0.000000
# 3 -0.003065 -0.005245 0.036135 0.000000 -0.002658 0.000000
# 4 0.000000 0.000000 0.000000 0.048443 0.000000 0.003127
# 5 -0.003939 0.002884 -0.002658 0.000000 0.028904 0.000000
# 6 0.000000 0.000000 0.000000 0.003127 0.000000 0.080880
#
#
# Mechanical properties :
#
#
# Convention : Reuss Voigt Hill
#
# Bulk Modulus (GPa) = 25.09819 33.40414 29.25116
# Shear Modulus (GPa) = 19.09421 23.52051 21.30736
#
# Velocity S-wave (km/s) = 2.99496 3.32402 3.16378
# Velocity P-wave (km/s) = 4.87340 5.51582 5.20453
#
# Compressibility (1/GPa) = 0.03984351
#
# Stress axis : x y z
#
# Youngs Moduli (GPa) = 72.39856 66.00535 27.67425
#
# Poissons Ratio (x) = 0.28492 0.08483
# Poissons Ratio (y) = 0.31252 0.14515
# Poissons Ratio (z) = 0.22192 0.34620
#
# Static dielectric constant tensor:
#      x y z
#    x 1.845360 0.000000 -0.091980 
#    y 0.000000 1.770430 0.000000 
#    z -0.091980 0.000000 1.844030 
# 
# From -- ./inp_files/86167.got.cif
#   From: 2010.05.17/outbox.cif.g08.bks.cpg/sg15_44_cif.got.tgz:86167.got - 2010.06.03 18:47:42.
