data_PCOD9263144
_publ_section_title
;
Structure prediction by ZEFSAII (Michael W. Deem and Ramdas Pophale) SiO2 
 PCOD9263144
Probable space group: C 2/C
;
_chemical_formula_sum "Si O2"
_cell_formula_units_Z 40
_cell_length_a 12.203537
_cell_length_b 5.101816
_cell_length_c 27.217911
_cell_angle_alpha 90.000000
_cell_angle_beta 106.275476
_cell_angle_gamma 90.000000
_cell_volume 1626.682363
_symmetry_space_group_name_H-M "C 2/C"
_symmetry_group_IT_number 15
_symmetry_cell_setting 'monoclinic'
loop_
_space_group_symop_operation_xyz
x,y,z
-x,y,1/2-z
-x,-y,-z
x,-y,1/2+z
1/2+x,1/2+y,z
1/2-x,1/2+y,1/2-z
1/2-x,1/2-y,-z
1/2+x,1/2-y,1/2+z
loop_
_atom_site_type_symbol
_atom_site_label
_atom_site_fract_x
_atom_site_fract_y
_atom_site_fract_z
Si Si1 0.681064 0.556990 0.455750
Si Si2 0.915227 0.266549 0.474051
Si Si3 0.346578 0.756970 0.361804
Si Si4 0.805374 0.743791 0.648981
Si Si5 0.172425 0.866965 0.744172
O O1 0.750000 0.750000 0.500000
O O2 0.780234 0.348801 0.455564
O O3 0.588112 0.434029 0.480880
O O4 0.650202 0.689515 0.399865
O O5 0.927274 0.208578 0.417948
O O6 0.000000 0.500000 0.500000
O O7 0.240882 0.552367 0.354268
O O8 0.395676 0.694140 0.314154
O O9 0.302383 0.055737 0.358124
O O10 0.874804 0.807077 0.707562
O O11 0.279281 0.661953 0.752347
#
# Coordination Sequence:
#
# PCOD9263144 Si02
#       5
#     8   8   8   8   8
#     4  10  19  34  52  75 113 147 189 239 290 353
#     4  10  21  34  51  78 115 150 190 236 297 356
#     4   9  16  29  46  72 107 137 178 235 282 341
#     4   9  16  28  48  72 105 137 179 234 287 337
#     4   8  14  24  43  70 100 129 175 231 278 327
#
# _framework density 24.589924
#
# number of rings (size 3 to 8) (size 9 to 14) (size 15 to 20)
#    0.000    2.800    2.000    0.000    0.000    0.800 
#    0.000    0.000    0.000    0.000    0.000    1.400 
#   24.000    0.000    0.000    0.000    0.000    0.000 
#
# Total GULP energy -111529.509073 kJ/mol
# GULP energy per Si atom -5576.475454 kJ/mol
# Density = 2.453396 g / cm^3
# Si number density = 24.589924 Si / 1000 Ang^3
#
#
#
# Elastic Constant Matrix: (Units=GPa)
#
#
# Indices 1 2 3 4 5 6 
#
# 1 90.4438 4.2554 57.4325 0.0000 -34.8307 0.0000
# 2 4.2554 87.0061 32.9997 0.0000 -4.1734 0.0000
# 3 57.4325 32.9997 297.7473 0.0000 -47.1474 0.0000
# 4 0.0000 0.0000 0.0000 50.2221 0.0000 -5.0234
# 5 -34.8307 -4.1734 -47.1474 0.0000 40.3720 0.0000
# 6 0.0000 0.0000 0.0000 -5.0234 0.0000 25.6725
#
#
#
# Elastic Compliance Matrix: (Units=1/GPa)
#
#
# Indices 1 2 3 4 5 6 
#
# 1 0.016887 0.000261 -0.001196 0.000000 0.013199 0.000000
# 2 0.000261 0.012007 -0.001410 0.000000 -0.000180 0.000000
# 3 -0.001196 -0.001410 0.004366 0.000000 0.003922 0.000000
# 4 0.000000 0.000000 0.000000 0.020309 0.000000 0.003974
# 5 0.013199 -0.000180 0.003922 0.000000 0.040718 0.000000
# 6 0.000000 0.000000 0.000000 0.003974 0.000000 0.039730
#
#
# Mechanical properties :
#
#
# Convention : Reuss Voigt Hill
#
# Bulk Modulus (GPa) = 35.00106 73.84139 54.42122
# Shear Modulus (GPa) = 33.73125 48.62064 41.17595
#
# Velocity S-wave (km/s) = 3.70773 4.45146 4.09651
# Velocity P-wave (km/s) = 5.70916 7.51765 6.67494
#
# Compressibility (1/GPa) = 0.02857056
#
# Stress axis : x y z
#
# Youngs Moduli (GPa) = 59.21688 83.28714 229.01795
#
# Poissons Ratio (x) = -0.02173 0.27395
# Poissons Ratio (y) = -0.01545 0.32280
# Poissons Ratio (z) = 0.07084 0.11739
#
# Static dielectric constant tensor:
#      x y z
#    x 2.024540 0.000000 -0.101630 
#    y 0.000000 1.970190 0.000000 
#    z -0.101630 0.000000 1.956280 
# 
# From -- ./inp_files/294184.got.cif
#   From: 2010.05.17/outbox.cif.g08.bks.cpg/sg15_148_cif.got.tgz:294184.got - 2010.06.03 18:47:42.
