data_PCOD9263066
_publ_section_title
;
Structure prediction by ZEFSAII (Michael W. Deem and Ramdas Pophale) SiO2 
 PCOD9263066
Probable space group: C 2/C
;
_chemical_formula_sum "Si O2"
_cell_formula_units_Z 36
_cell_length_a 12.656107
_cell_length_b 5.064511
_cell_length_c 26.424548
_cell_angle_alpha 90.000000
_cell_angle_beta 129.721875
_cell_angle_gamma 90.000000
_cell_volume 1302.745085
_symmetry_space_group_name_H-M "C 2/C"
_symmetry_group_IT_number 15
_symmetry_cell_setting 'monoclinic'
loop_
_space_group_symop_operation_xyz
x,y,z
-x,y,1/2-z
-x,-y,-z
x,-y,1/2+z
1/2+x,1/2+y,z
1/2-x,1/2+y,1/2-z
1/2-x,1/2-y,-z
1/2+x,1/2-y,1/2+z
loop_
_atom_site_type_symbol
_atom_site_label
_atom_site_fract_x
_atom_site_fract_y
_atom_site_fract_z
Si Si1 0.706369 0.974346 0.376822
Si Si2 0.949411 0.238855 0.082635
Si Si3 0.661351 0.504586 0.711968
Si Si4 0.187916 0.515547 0.545127
Si Si5 0.000000 0.234130 0.750000
O O1 0.582626 0.933889 0.380246
O O2 0.804211 0.191499 0.432240
O O3 0.628978 0.085982 0.304602
O O4 0.779561 0.691468 0.399792
O O5 0.821679 0.033689 0.048919
O O6 0.088914 0.089995 0.138282
O O7 0.934516 0.403554 0.026775
O O8 0.744169 0.775478 0.736415
O O9 0.538072 0.555978 0.713999
#
# Coordination Sequence:
#
# PCOD9263066 Si02
#       5
#     8   8   8   8   4
#     4  10  19  33  61  97 118 173 215 261 329 386
#     4   9  20  37  62  95 129 165 227 268 319 395
#     4  12  28  43  67 101 134 178 223 270 336 401
#     4   9  19  32  64  97 121 167 230 261 322 397
#     4  12  24  46  68  94 146 174 218 278 330 402
#
# _framework density 27.633958
#
# number of rings (size 3 to 8) (size 9 to 14) (size 15 to 20)
#    1.333    0.444    2.222    2.000    0.000    8.000 
#    0.000    0.000    0.000    8.000    0.000    0.000 
#    0.000    0.000    0.000    0.000    0.000    0.000 
#
# Total GULP energy -100951.779847 kJ/mol
# GULP energy per Si atom -5608.432214 kJ/mol
# Density = 2.757106 g / cm^3
# Si number density = 27.633958 Si / 1000 Ang^3
#
#
#
# Elastic Constant Matrix: (Units=GPa)
#
#
# Indices 1 2 3 4 5 6 
#
# 1 74.9966 18.2789 21.7111 0.0001 8.6708 0.0000
# 2 18.2789 123.3868 18.9938 -0.0001 1.5814 0.0000
# 3 21.7111 18.9938 141.7118 0.0001 3.2031 0.0000
# 4 0.0001 -0.0001 0.0001 56.1452 0.0000 1.2383
# 5 8.6708 1.5814 3.2031 0.0000 52.7582 0.0000
# 6 0.0000 0.0000 0.0000 1.2383 0.0000 40.3820
#
#
#
# Elastic Compliance Matrix: (Units=1/GPa)
#
#
# Indices 1 2 3 4 5 6 
#
# 1 0.014601 -0.001836 -0.001941 0.000000 -0.002227 0.000000
# 2 -0.001836 0.008508 -0.000861 0.000000 0.000099 0.000000
# 3 -0.001941 -0.000861 0.007472 0.000000 -0.000109 0.000000
# 4 0.000000 0.000000 0.000000 0.017823 0.000000 -0.000547
# 5 -0.002227 0.000099 -0.000109 0.000000 0.019324 0.000000
# 6 0.000000 0.000000 0.000000 -0.000547 0.000000 0.024780
#
#
# Mechanical properties :
#
#
# Convention : Reuss Voigt Hill
#
# Bulk Modulus (GPa) = 46.93709 50.89588 48.91649
# Shear Modulus (GPa) = 45.92029 48.59784 47.25907
#
# Velocity S-wave (km/s) = 4.08086 4.19815 4.13992
# Velocity P-wave (km/s) = 6.26312 6.47743 6.37118
#
# Compressibility (1/GPa) = 0.02130511
#
# Stress axis : x y z
#
# Youngs Moduli (GPa) = 68.49043 117.53838 133.83692
#
# Poissons Ratio (x) = 0.21577 0.25971
# Poissons Ratio (y) = 0.12573 0.11528
# Poissons Ratio (z) = 0.13291 0.10124
#
# Static dielectric constant tensor:
#      x y z
#    x 2.332960 0.000000 -0.050990 
#    y 0.000000 2.031610 0.000000 
#    z -0.050990 0.000000 2.084720 
# 
# From -- ./inp_files/294351.got.cif
#   From: 2010.05.17/outbox.cif.g08.bks.cpg/sg15_148_cif.got.tgz:294351.got - 2010.06.03 18:47:42.
