data_PCOD9263894
_publ_section_title
;
Structure prediction by ZEFSAII (Michael W. Deem and Ramdas Pophale) SiO2 
 PCOD9263894
Probable space group: C 2/C
;
_chemical_formula_sum "Si O2"
_cell_formula_units_Z 36
_cell_length_a 7.572391
_cell_length_b 18.514630
_cell_length_c 19.016185
_cell_angle_alpha 90.000000
_cell_angle_beta 43.935112
_cell_angle_gamma 90.000000
_cell_volume 1849.834350
_symmetry_space_group_name_H-M "C 2/C"
_symmetry_group_IT_number 15
_symmetry_cell_setting 'monoclinic'
loop_
_space_group_symop_operation_xyz
x,y,z
-x,y,1/2-z
-x,-y,-z
x,-y,1/2+z
1/2+x,1/2+y,z
1/2-x,1/2+y,1/2-z
1/2-x,1/2-y,-z
1/2+x,1/2-y,1/2+z
loop_
_atom_site_type_symbol
_atom_site_label
_atom_site_fract_x
_atom_site_fract_y
_atom_site_fract_z
Si Si1 0.208635 0.087628 0.243602
Si Si2 0.000000 0.473284 0.250000
Si Si3 0.942776 0.419584 0.987074
Si Si4 0.046273 0.078614 0.952751
Si Si5 0.857293 0.172702 0.446007
O O1 0.444575 0.098661 0.123248
O O2 0.000000 0.056479 0.250000
O O3 0.068266 0.154402 0.323861
O O4 0.298834 0.027116 0.271730
O O5 0.840491 0.423464 0.347126
O O6 0.104916 0.369566 0.992254
O O7 0.642677 0.410990 0.058924
O O8 0.000000 0.500000 0.000000
O O9 0.016608 0.137229 0.021625
O O10 0.000000 0.000000 0.000000
O O11 0.750000 0.250000 0.500000
#
# Coordination Sequence:
#
# PCOD9263894 Si02
#       5
#     8   4   8   8   8
#     4  10  19  34  62  92 119 166 208 254 323 382
#     4  12  20  36  64  98 122 158 222 270 320 378
#     4  11  20  39  69  97 122 164 220 268 320 386
#     4  12  21  38  66  94 124 165 216 273 321 384
#     4  11  24  41  61  93 136 169 210 266 324 391
#
# _framework density 19.461202
#
# number of rings (size 3 to 8) (size 9 to 14) (size 15 to 20)
#    0.000    0.889    6.667    1.333    0.000    0.889 
#    6.000    0.000    4.889    0.000    0.000    0.000 
#    0.000    0.000    0.000    0.000    0.000    0.000 
#
# Total GULP energy -100228.178113 kJ/mol
# GULP energy per Si atom -5568.232117 kJ/mol
# Density = 1.941691 g / cm^3
# Si number density = 19.461202 Si / 1000 Ang^3
#
#
#
# Elastic Constant Matrix: (Units=GPa)
#
#
# Indices 1 2 3 4 5 6 
#
# 1 98.9555 41.7713 9.4214 0.0001 6.7590 -0.0002
# 2 41.7713 108.8620 31.8365 0.0000 5.5806 -0.0001
# 3 9.4214 31.8365 102.2912 0.0001 -2.7619 -0.0002
# 4 0.0001 0.0000 0.0001 18.7724 -0.0001 -1.6025
# 5 6.7590 5.5806 -2.7619 -0.0001 26.2451 0.0001
# 6 -0.0002 -0.0001 -0.0002 -1.6025 0.0001 29.5697
#
#
#
# Elastic Compliance Matrix: (Units=1/GPa)
#
#
# Indices 1 2 3 4 5 6 
#
# 1 0.012186 -0.004645 0.000266 0.000000 -0.002123 0.000000
# 2 -0.004645 0.012041 -0.003366 0.000000 -0.001718 0.000000
# 3 0.000266 -0.003366 0.010847 0.000000 0.001789 0.000000
# 4 0.000000 0.000000 0.000000 0.053517 0.000000 0.002900
# 5 -0.002123 -0.001718 0.001789 0.000000 0.039203 0.000000
# 6 0.000000 0.000000 0.000000 0.002900 0.000000 0.033976
#
#
# Mechanical properties :
#
#
# Convention : Reuss Voigt Hill
#
# Bulk Modulus (GPa) = 51.06160 52.90744 51.98452
# Shear Modulus (GPa) = 27.20534 30.05608 28.63071
#
# Velocity S-wave (km/s) = 3.74294 3.93416 3.83974
# Velocity P-wave (km/s) = 6.70627 6.91968 6.81381
#
# Compressibility (1/GPa) = 0.01958419
#
# Stress axis : x y z
#
# Youngs Moduli (GPa) = 82.06218 83.05191 92.18761
#
# Poissons Ratio (x) = 0.38576 -0.02452
# Poissons Ratio (y) = 0.38116 0.31031
# Poissons Ratio (z) = -0.02182 0.27956
#
# Static dielectric constant tensor:
#      x y z
#    x 1.600580 0.000000 -0.011970 
#    y 0.000000 1.660630 0.000000 
#    z -0.011970 0.000000 1.888860 
# 
# From -- ./inp_files/231527.got.cif
#   From: 2010.05.17/outbox.cif.g08.bks.cpg/sg15_116_cif.got.tgz:231527.got - 2010.06.03 18:47:42.
