data_PCOD9263931
_publ_section_title
;
Structure prediction by ZEFSAII (Michael W. Deem and Ramdas Pophale) SiO2 
 PCOD9263931
Probable space group: C 2/C
;
_chemical_formula_sum "Si O2"
_cell_formula_units_Z 56
_cell_length_a 6.797072
_cell_length_b 18.420034
_cell_length_c 17.612145
_cell_angle_alpha 90.000000
_cell_angle_beta 93.339048
_cell_angle_gamma 90.000000
_cell_volume 2201.337568
_symmetry_space_group_name_H-M "C 2/C"
_symmetry_group_IT_number 15
_symmetry_cell_setting 'monoclinic'
loop_
_space_group_symop_operation_xyz
x,y,z
-x,y,1/2-z
-x,-y,-z
x,-y,1/2+z
1/2+x,1/2+y,z
1/2-x,1/2+y,1/2-z
1/2-x,1/2-y,-z
1/2+x,1/2-y,1/2+z
loop_
_atom_site_type_symbol
_atom_site_label
_atom_site_fract_x
_atom_site_fract_y
_atom_site_fract_z
Si Si1 0.720684 0.957015 0.270719
Si Si2 0.214704 0.356811 0.854276
Si Si3 0.360428 0.696849 0.819159
Si Si4 0.760246 0.793898 0.078673
Si Si5 0.328798 0.061835 0.989220
Si Si6 0.754861 0.850852 0.680844
Si Si7 0.549608 0.513321 0.372130
O O1 0.500000 0.980160 0.250000
O O2 0.827052 0.994688 0.344316
O O3 0.781678 0.126672 0.269280
O O4 0.739317 0.872845 0.291352
O O5 0.283587 0.272927 0.865996
O O6 0.975414 0.361121 0.843521
O O7 0.239806 0.399611 0.934490
O O8 0.500000 0.714683 0.750000
O O9 0.516668 0.683150 0.890923
O O10 0.223119 0.765423 0.831281
O O11 0.663989 0.524919 0.803799
O O12 0.632414 0.867493 0.065093
O O13 0.750000 0.750000 0.000000
O O14 0.145104 0.021257 0.947413
O O15 0.500000 0.000000 0.000000
O O16 0.888567 0.902649 0.632882
#
# Coordination Sequence:
#
# PCOD9263931 Si02
#       7
#     8   8   8   8   8   8   8
#     4  11  25  43  68  96 140 189 238 297 355 420
#     4   9  18  31  56 102 141 192 230 277 363 418
#     4  11  17  37  65 100 139 180 237 291 347 427
#     4   9  17  30  54  93 140 187 227 278 352 424
#     4  11  19  31  59 102 147 184 234 288 352 429
#     4  10  19  34  64 101 147 177 237 295 346 423
#     4  11  23  41  67 102 142 181 240 293 359 417
#
# _framework density 25.439079
#
# number of rings (size 3 to 8) (size 9 to 14) (size 15 to 20)
#    0.000    1.714    7.143    0.000    2.000    0.000 
#    2.571    0.000    0.000    7.714    0.000   19.000 
#    4.286    0.000    0.000    0.571    0.000    0.000 
#
# Total GULP energy -156553.108916 kJ/mol
# GULP energy per Si atom -5591.182461 kJ/mol
# Density = 2.538118 g / cm^3
# Si number density = 25.439079 Si / 1000 Ang^3
#
#
#
# Elastic Constant Matrix: (Units=GPa)
#
#
# Indices 1 2 3 4 5 6 
#
# 1 106.9733 40.2914 47.9804 0.0000 25.1177 0.0000
# 2 40.2914 223.1351 63.8628 0.0000 13.2329 0.0000
# 3 47.9804 63.8628 143.6414 0.0000 31.8905 0.0000
# 4 0.0000 0.0000 0.0000 57.6713 0.0000 16.2791
# 5 25.1177 13.2329 31.8905 0.0000 38.8079 0.0000
# 6 0.0000 0.0000 0.0000 16.2791 0.0000 27.8071
#
#
#
# Elastic Compliance Matrix: (Units=1/GPa)
#
#
# Indices 1 2 3 4 5 6 
#
# 1 0.012133 -0.001208 -0.002279 0.000000 -0.005568 0.000000
# 2 -0.001208 0.005256 -0.002090 0.000000 0.000708 0.000000
# 3 -0.002279 -0.002090 0.009989 0.000000 -0.006021 0.000000
# 4 0.000000 0.000000 0.000000 0.020772 0.000000 -0.012161
# 5 -0.005568 0.000708 -0.006021 0.000000 0.034078 0.000000
# 6 0.000000 0.000000 0.000000 -0.012161 0.000000 0.043081
#
#
# Mechanical properties :
#
#
# Convention : Reuss Voigt Hill
#
# Bulk Modulus (GPa) = 61.64427 86.44654 74.04541
# Shear Modulus (GPa) = 35.24282 46.29827 40.77054
#
# Velocity S-wave (km/s) = 3.72611 4.27073 4.00768
# Velocity P-wave (km/s) = 6.54191 7.64032 7.11235
#
# Compressibility (1/GPa) = 0.01622211
#
# Stress axis : x y z
#
# Youngs Moduli (GPa) = 82.42037 190.25616 100.10818
#
# Poissons Ratio (x) = 0.22988 0.22819
# Poissons Ratio (y) = 0.09958 0.20926
# Poissons Ratio (z) = 0.18787 0.39770
#
# Static dielectric constant tensor:
#      x y z
#    x 2.082350 0.000000 0.014150 
#    y 0.000000 2.168100 0.000000 
#    z 0.014150 0.000000 1.996010 
# 
# From -- ./inp_files/288864.got.cif
#   From: 2010.05.17/outbox.cif.g08.bks.cpg/sg15_145_cif.got.tgz:288864.got - 2010.06.03 18:47:42.
