data_PCOD9263732
_publ_section_title
;
Structure prediction by ZEFSAII (Michael W. Deem and Ramdas Pophale) SiO2 
 PCOD9263732
Probable space group: C 2/C
;
_chemical_formula_sum "Si O2"
_cell_formula_units_Z 64
_cell_length_a 11.408967
_cell_length_b 25.144008
_cell_length_c 18.712919
_cell_angle_alpha 90.000000
_cell_angle_beta 146.820028
_cell_angle_gamma 90.000000
_cell_volume 2937.815795
_symmetry_space_group_name_H-M "C 2/C"
_symmetry_group_IT_number 15
_symmetry_cell_setting 'monoclinic'
loop_
_space_group_symop_operation_xyz
x,y,z
-x,y,1/2-z
-x,-y,-z
x,-y,1/2+z
1/2+x,1/2+y,z
1/2-x,1/2+y,1/2-z
1/2-x,1/2-y,-z
1/2+x,1/2-y,1/2+z
loop_
_atom_site_type_symbol
_atom_site_label
_atom_site_fract_x
_atom_site_fract_y
_atom_site_fract_z
Si Si1 0.752526 0.870321 0.619543
Si Si2 0.572753 0.458647 0.974592
Si Si3 0.790884 0.475947 0.826717
Si Si4 0.525315 0.700385 0.843063
Si Si5 0.905965 0.578571 0.128141
Si Si6 0.002083 0.573972 0.618008
Si Si7 0.562689 0.390626 0.091790
Si Si8 0.484178 0.188856 0.372624
O O1 0.755383 0.934414 0.634990
O O2 0.606815 0.873899 0.473799
O O3 0.644558 0.835217 0.626233
O O4 0.000000 0.854131 0.750000
O O5 0.413738 0.471091 0.829117
O O6 0.500000 0.500000 0.000000
O O7 0.813405 0.455477 0.066461
O O8 0.533483 0.400584 0.991847
O O9 0.983320 0.449613 0.880879
O O10 0.871948 0.536117 0.875654
O O11 0.500000 0.677878 0.750000
O O12 0.449550 0.664170 0.870812
O O13 0.412516 0.757775 0.795432
O O14 0.781065 0.703705 0.979300
O O15 0.000000 0.555893 0.250000
O O16 0.984438 0.639465 0.164058
O O17 0.651086 0.579435 0.988720
O O18 0.201795 0.587050 0.771433
#
# Coordination Sequence:
#
# PCOD9263732 Si02
#       8
#     8   8   8   8   8   8   8   8
#     4  11  23  44  61  90 128 169 219 259 321 384
#     4  12  23  40  60  89 127 167 214 256 312 379
#     4  11  23  38  62  87 120 170 216 259 304 383
#     4  10  20  41  66  94 130 160 208 270 327 377
#     4  10  19  34  59  90 123 157 212 260 308 377
#     4  12  25  40  62  88 130 170 213 269 320 376
#     4  11  23  36  61  95 128 165 205 271 323 368
#     4   9  21  38  63  93 119 166 211 259 316 386
#
# _framework density 21.784893
#
# number of rings (size 3 to 8) (size 9 to 14) (size 15 to 20)
#    0.000    1.250    3.750    2.625    0.000    0.000 
#    0.000    3.125    0.000    2.250    0.000    0.000 
#    0.000    0.000    0.000    0.000    0.000    0.000 
#
# Total GULP energy -178237.137656 kJ/mol
# GULP energy per Si atom -5569.910552 kJ/mol
# Density = 2.173531 g / cm^3
# Si number density = 21.784893 Si / 1000 Ang^3
#
#
#
# Elastic Constant Matrix: (Units=GPa)
#
#
# Indices 1 2 3 4 5 6 
#
# 1 85.9163 26.8010 36.0592 0.0004 23.0876 -0.0005
# 2 26.8010 64.0895 13.3504 0.0002 9.4921 -0.0002
# 3 36.0592 13.3504 119.0069 0.0146 25.6004 0.0037
# 4 0.0004 0.0002 0.0146 16.1560 0.0021 -1.9806
# 5 23.0876 9.4921 25.6004 0.0021 43.1232 0.0008
# 6 -0.0005 -0.0002 0.0037 -1.9806 0.0008 24.0266
#
#
#
# Elastic Compliance Matrix: (Units=1/GPa)
#
#
# Indices 1 2 3 4 5 6 
#
# 1 0.016079 -0.005250 -0.003072 0.000003 -0.005629 0.000001
# 2 -0.005250 0.017994 -0.000207 0.000000 -0.001027 0.000000
# 3 -0.003072 -0.000207 0.010310 -0.000009 -0.004430 -0.000002
# 4 0.000003 0.000000 -0.000009 0.062528 0.000000 0.005154
# 5 -0.005629 -0.001027 -0.004430 0.000000 0.029059 0.000000
# 6 0.000001 0.000000 -0.000002 0.005154 0.000000 0.042045
#
#
# Mechanical properties :
#
#
# Convention : Reuss Voigt Hill
#
# Bulk Modulus (GPa) = 36.59705 46.82598 41.71151
# Shear Modulus (GPa) = 24.48790 29.51464 27.00127
#
# Velocity S-wave (km/s) = 3.35636 3.68478 3.52440
# Velocity P-wave (km/s) = 5.64411 6.29642 5.97917
#
# Compressibility (1/GPa) = 0.02732461
#
# Stress axis : x y z
#
# Youngs Moduli (GPa) = 62.19283 55.57428 96.99372
#
# Poissons Ratio (x) = 0.29178 0.29797
# Poissons Ratio (y) = 0.32653 0.02006
# Poissons Ratio (z) = 0.19106 0.01149
#
# Static dielectric constant tensor:
#      x y z
#    x 1.818980 0.000000 -0.031440 
#    y 0.000000 1.885750 0.000000 
#    z -0.031440 0.000000 1.839520 
# 
# From -- ./inp_files/241024.got.cif
#   From: 2010.05.17/outbox.cif.g08.bks.cpg/sg15_121_cif.got.tgz:241024.got - 2010.06.03 18:47:42.
