data_PCOD9263676
_publ_section_title
;
Structure prediction by ZEFSAII (Michael W. Deem and Ramdas Pophale) SiO2 
 PCOD9263676
Probable space group: C 2/C
;
_chemical_formula_sum "Si O2"
_cell_formula_units_Z 40
_cell_length_a 19.978361
_cell_length_b 6.414558
_cell_length_c 22.692907
_cell_angle_alpha 90.000000
_cell_angle_beta 128.699262
_cell_angle_gamma 90.000000
_cell_volume 2269.631706
_symmetry_space_group_name_H-M "C 2/C"
_symmetry_group_IT_number 15
_symmetry_cell_setting 'monoclinic'
loop_
_space_group_symop_operation_xyz
x,y,z
-x,y,1/2-z
-x,-y,-z
x,-y,1/2+z
1/2+x,1/2+y,z
1/2-x,1/2+y,1/2-z
1/2-x,1/2-y,-z
1/2+x,1/2-y,1/2+z
loop_
_atom_site_type_symbol
_atom_site_label
_atom_site_fract_x
_atom_site_fract_y
_atom_site_fract_z
Si Si1 0.459457 0.422025 0.039498
Si Si2 0.790497 0.195883 0.959915
Si Si3 0.143971 0.572569 0.576725
Si Si4 0.742512 0.044338 0.322834
Si Si5 0.377355 0.237677 0.333271
O O1 0.383301 0.579361 0.015764
O O2 0.538765 0.381750 0.126849
O O3 0.500000 0.500000 0.000000
O O4 0.416650 0.202079 0.999705
O O5 0.750000 0.250000 0.000000
O O6 0.802761 0.412337 0.932831
O O7 0.735584 0.052311 0.884540
O O8 0.201962 0.746389 0.639608
O O9 0.102247 0.430946 0.604405
O O10 0.657147 0.112378 0.241894
O O11 0.799622 0.881077 0.316109
#
# Coordination Sequence:
#
# PCOD9263676 Si02
#       5
#     8   8   8   8   8
#     4  11  20  33  57  94 111 145 202 243 298 350
#     4  10  23  40  57  83 116 164 203 236 293 369
#     4  10  19  34  59  82 118 148 185 249 293 347
#     4  10  20  32  57  88 115 152 189 242 312 350
#     4  11  19  32  54  92 117 140 189 253 305 344
#
# _framework density 17.624005
#
# number of rings (size 3 to 8) (size 9 to 14) (size 15 to 20)
#    0.000    1.600    8.000    0.600    0.000    3.200 
#    0.000    0.000    0.000    7.200    0.000    0.000 
#    0.000    0.000    0.000    0.000    0.000    0.000 
#
# Total GULP energy -111437.532795 kJ/mol
# GULP energy per Si atom -5571.876640 kJ/mol
# Density = 1.758389 g / cm^3
# Si number density = 17.624005 Si / 1000 Ang^3
#
#
#
# Elastic Constant Matrix: (Units=GPa)
#
#
# Indices 1 2 3 4 5 6 
#
# 1 79.2412 26.8081 39.9755 0.0000 -11.3799 0.0000
# 2 26.8081 87.8837 17.6672 0.0001 -6.4855 0.0001
# 3 39.9755 17.6672 89.0498 0.0000 1.5569 0.0000
# 4 0.0000 0.0001 0.0000 32.4045 0.0000 -0.4442
# 5 -11.3799 -6.4855 1.5569 0.0000 21.5884 0.0000
# 6 0.0000 0.0001 0.0000 -0.4442 0.0000 16.1523
#
#
#
# Elastic Compliance Matrix: (Units=1/GPa)
#
#
# Indices 1 2 3 4 5 6 
#
# 1 0.019317 -0.003540 -0.008139 0.000000 0.009706 0.000000
# 2 -0.003540 0.012809 -0.000988 0.000000 0.002053 0.000000
# 3 -0.008139 -0.000988 0.015179 0.000000 -0.005682 0.000000
# 4 0.000000 0.000000 0.000000 0.030872 0.000000 0.000849
# 5 0.009706 0.002053 -0.005682 0.000000 0.052464 0.000000
# 6 0.000000 0.000000 0.000000 0.000849 0.000000 0.061934
#
#
# Mechanical properties :
#
#
# Convention : Reuss Voigt Hill
#
# Bulk Modulus (GPa) = 45.51561 47.23071 46.37316
# Shear Modulus (GPa) = 22.19934 25.47730 23.83832
#
# Velocity S-wave (km/s) = 3.55295 3.80623 3.68177
# Velocity P-wave (km/s) = 6.53553 6.79513 6.66660
#
# Compressibility (1/GPa) = 0.02197048
#
# Stress axis : x y z
#
# Youngs Moduli (GPa) = 51.76718 78.07220 65.88161
#
# Poissons Ratio (x) = 0.27638 0.53622
# Poissons Ratio (y) = 0.18326 0.06509
# Poissons Ratio (z) = 0.42134 0.07713
#
# Static dielectric constant tensor:
#      x y z
#    x 1.598690 0.000000 0.026090 
#    y 0.000000 1.616860 0.000000 
#    z 0.026090 0.000000 1.651620 
# 
# From -- ./inp_files/208044.got.cif
#   From: 2010.05.17/outbox.cif.g08.bks.cpg/sg15_105_cif.got.tgz:208044.got - 2010.06.03 18:47:42.
