data_PCOD9263388
_publ_section_title
;
Structure prediction by ZEFSAII (Michael W. Deem and Ramdas Pophale) SiO2 
 PCOD9263388
Probable space group: C 2/C
;
_chemical_formula_sum "Si O2"
_cell_formula_units_Z 56
_cell_length_a 28.499999
_cell_length_b 7.104842
_cell_length_c 9.705644
_cell_angle_alpha 90.000000
_cell_angle_beta 81.427375
_cell_angle_gamma 90.000000
_cell_volume 1943.319714
_symmetry_space_group_name_H-M "C 2/C"
_symmetry_group_IT_number 15
_symmetry_cell_setting 'monoclinic'
loop_
_space_group_symop_operation_xyz
x,y,z
-x,y,1/2-z
-x,-y,-z
x,-y,1/2+z
1/2+x,1/2+y,z
1/2-x,1/2+y,1/2-z
1/2-x,1/2-y,-z
1/2+x,1/2-y,1/2+z
loop_
_atom_site_type_symbol
_atom_site_label
_atom_site_fract_x
_atom_site_fract_y
_atom_site_fract_z
Si Si1 0.446274 0.738018 0.957781
Si Si2 0.796479 0.878939 0.483504
Si Si3 0.796104 0.642675 0.718090
Si Si4 0.382560 0.343236 0.252553
Si Si5 0.696884 0.257289 0.402966
Si Si6 0.468580 0.308343 0.903191
Si Si7 0.107286 0.292335 0.246713
O O1 0.426189 0.758471 0.811032
O O2 0.447895 0.505796 0.969441
O O3 0.499207 0.778559 0.989846
O O4 0.412776 0.827818 0.090580
O O5 0.702728 0.035433 0.384850
O O6 0.794423 0.103938 0.471511
O O7 0.811209 0.832328 0.633186
O O8 0.837063 0.805496 0.369247
O O9 0.750000 0.750000 0.500000
O O10 0.742457 0.664977 0.793483
O O11 0.841385 0.614005 0.797011
O O12 0.357753 0.291765 0.119422
O O13 0.391648 0.564838 0.258483
O O14 0.500000 0.350927 0.750000
O O15 0.429647 0.167266 0.859206
#
# Coordination Sequence:
#
# PCOD9263388 Si02
#       7
#     8   8   8   8   8   8   8
#     4   9  16  30  56  87 121 156 204 253 311 375
#     4  12  24  42  62  89 123 164 214 260 309 375
#     4  12  22  40  59  84 122 163 209 257 314 369
#     4  11  19  37  59  85 124 159 203 267 305 370
#     4  12  24  41  61  87 125 166 210 261 314 368
#     4   8  16  29  53  91 120 158 202 252 315 378
#     4  10  19  34  56  82 126 163 203 257 314 372
#
# _framework density 28.816669999999998
#
# number of rings (size 3 to 8) (size 9 to 14) (size 15 to 20)
#    0.000    1.429    5.714    0.000    0.000    0.571 
#    2.571    0.000    0.000    0.857    0.000   46.000 
#    0.000    0.000    0.000    0.000    0.000    0.000 
#
# Total GULP energy -156482.317010 kJ/mol
# GULP energy per Si atom -5588.654179 kJ/mol
# Density = 2.875108 g / cm^3
# Si number density = 28.816670 Si / 1000 Ang^3
#
#
#
# Elastic Constant Matrix: (Units=GPa)
#
#
# Indices 1 2 3 4 5 6 
#
# 1 142.2427 30.0758 70.5269 0.0000 44.9518 0.0000
# 2 30.0758 148.6719 8.2168 0.0000 8.0290 0.0000
# 3 70.5269 8.2168 91.3584 0.0000 26.3409 0.0000
# 4 0.0000 0.0000 0.0000 35.4132 0.0000 -2.6868
# 5 44.9518 8.0290 26.3409 0.0000 92.1849 0.0000
# 6 0.0000 0.0000 0.0000 -2.6868 0.0000 19.1844
#
#
#
# Elastic Compliance Matrix: (Units=1/GPa)
#
#
# Indices 1 2 3 4 5 6 
#
# 1 0.012932 -0.001936 -0.008761 0.000000 -0.003634 0.000000
# 2 -0.001936 0.007067 0.000833 0.000000 0.000090 0.000000
# 3 -0.008761 0.000833 0.017898 0.000000 -0.000914 0.000000
# 4 0.000000 0.000000 0.000000 0.028541 0.000000 0.003997
# 5 -0.003634 0.000090 -0.000914 0.000000 0.012873 0.000000
# 6 0.000000 0.000000 0.000000 0.003997 0.000000 0.052685
#
#
# Mechanical properties :
#
#
# Convention : Reuss Voigt Hill
#
# Bulk Modulus (GPa) = 55.04090 66.65691 60.84890
# Shear Modulus (GPa) = 31.68925 47.58673 39.63799
#
# Velocity S-wave (km/s) = 3.31975 4.06810 3.71283
# Velocity P-wave (km/s) = 5.81688 6.72663 6.28823
#
# Compressibility (1/GPa) = 0.01816831
#
# Stress axis : x y z
#
# Youngs Moduli (GPa) = 77.32750 141.50493 55.87108
#
# Poissons Ratio (x) = 0.27390 0.48951
# Poissons Ratio (y) = 0.14968 -0.04652
# Poissons Ratio (z) = 0.67750 -0.11781
#
# Static dielectric constant tensor:
#      x y z
#    x 2.313130 0.000000 0.139010 
#    y 0.000000 2.152350 0.000000 
#    z 0.139010 0.000000 2.470050 
# 
# From -- ./inp_files/122263.got.cif
#   From: 2010.05.17/outbox.cif.g08.bks.cpg/sg15_62_cif.got.tgz:122263.got - 2010.06.03 18:47:42.
