data_PCOD9263207
_publ_section_title
;
Structure prediction by ZEFSAII (Michael W. Deem and Ramdas Pophale) SiO2 
 PCOD9263207
Probable space group: C 2/C
;
_chemical_formula_sum "Si O2"
_cell_formula_units_Z 56
_cell_length_a 18.688565
_cell_length_b 10.843976
_cell_length_c 19.815747
_cell_angle_alpha 90.000000
_cell_angle_beta 135.295051
_cell_angle_gamma 90.000000
_cell_volume 2824.957702
_symmetry_space_group_name_H-M "C 2/C"
_symmetry_group_IT_number 15
_symmetry_cell_setting 'monoclinic'
loop_
_space_group_symop_operation_xyz
x,y,z
-x,y,1/2-z
-x,-y,-z
x,-y,1/2+z
1/2+x,1/2+y,z
1/2-x,1/2+y,1/2-z
1/2-x,1/2-y,-z
1/2+x,1/2-y,1/2+z
loop_
_atom_site_type_symbol
_atom_site_label
_atom_site_fract_x
_atom_site_fract_y
_atom_site_fract_z
Si Si1 0.924577 0.331437 0.862549
Si Si2 0.898518 0.704863 0.924179
Si Si3 0.921493 0.041579 0.389441
Si Si4 0.755000 0.356368 0.215856
Si Si5 0.105025 0.517068 0.779144
Si Si6 0.564573 0.380362 0.228843
Si Si7 0.231817 0.286057 0.911149
O O1 0.821496 0.261176 0.821186
O O2 0.913159 0.445848 0.804514
O O3 0.974434 0.229786 0.845626
O O4 0.003371 0.354085 0.975685
O O5 0.820245 0.625957 0.828022
O O6 0.835902 0.779177 0.939267
O O7 0.928442 0.812437 0.892736
O O8 0.816794 0.975507 0.340691
O O9 0.932392 0.991261 0.321254
O O10 0.000000 0.000000 0.500000
O O11 0.829753 0.363683 0.201267
O O12 0.173292 0.416393 0.865380
O O13 0.000000 0.538066 0.750000
O O14 0.500000 0.411976 0.250000
O O15 0.664095 0.317848 0.328191
O O16 0.250000 0.250000 0.000000
#
# Coordination Sequence:
#
# PCOD9263207 Si02
#       7
#     8   8   8   8   8   8   8
#     4  10  20  38  59  91 124 160 207 259 311 374
#     4  12  20  36  62  87 120 162 208 256 306 376
#     4  11  20  37  60  87 119 166 209 255 313 371
#     4  11  21  37  59  90 120 163 204 251 311 379
#     4  11  22  39  59  88 129 161 206 259 318 378
#     4  10  19  34  53  88 124 148 202 254 307 369
#     4  11  20  32  58  89 123 155 196 261 318 361
#
# _framework density 19.823305999999999
#
# number of rings (size 3 to 8) (size 9 to 14) (size 15 to 20)
#    0.000    1.143    8.571    3.429    0.000    0.571 
#    0.000    0.714    0.000    0.857    0.000    0.000 
#    0.000    0.000    0.000    0.000    0.000    0.000 
#
# Total GULP energy -155897.422507 kJ/mol
# GULP energy per Si atom -5567.765090 kJ/mol
# Density = 1.977819 g / cm^3
# Si number density = 19.823306 Si / 1000 Ang^3
#
#
#
# Elastic Constant Matrix: (Units=GPa)
#
#
# Indices 1 2 3 4 5 6 
#
# 1 136.3137 15.7152 30.8493 0.0000 -10.5748 0.0000
# 2 15.7152 23.3084 24.5033 0.0000 -8.5045 0.0000
# 3 30.8493 24.5033 161.8456 0.0000 5.6567 0.0000
# 4 0.0000 0.0000 0.0000 6.4158 0.0000 -0.4154
# 5 -10.5748 -8.5045 5.6567 0.0000 27.5636 0.0000
# 6 0.0000 0.0000 0.0000 -0.4154 0.0000 14.0580
#
#
#
# Elastic Compliance Matrix: (Units=1/GPa)
#
#
# Indices 1 2 3 4 5 6 
#
# 1 0.008168 -0.003516 -0.001104 0.000000 0.002275 0.000000
# 2 -0.003516 0.062502 -0.009487 0.000000 0.019882 0.000000
# 3 -0.001104 -0.009487 0.008000 0.000000 -0.004993 0.000000
# 4 0.000000 0.000000 0.000000 0.156164 0.000000 0.004615
# 5 0.002275 0.019882 -0.004993 0.000000 0.044312 0.000000
# 6 0.000000 0.000000 0.000000 0.004615 0.000000 0.071270
#
#
# Mechanical properties :
#
#
# Convention : Reuss Voigt Hill
#
# Bulk Modulus (GPa) = 19.81987 51.51149 35.66568
# Shear Modulus (GPa) = 12.64385 26.30081 19.47233
#
# Velocity S-wave (km/s) = 2.52826 3.64643 3.13756
# Velocity P-wave (km/s) = 4.30614 6.61591 5.58180
#
# Compressibility (1/GPa) = 0.05045442
#
# Stress axis : x y z
#
# Youngs Moduli (GPa) = 122.43277 15.99955 124.99923
#
# Poissons Ratio (x) = 0.05626 0.13800
# Poissons Ratio (y) = 0.43049 1.18592
# Poissons Ratio (z) = 0.13517 0.15179
#
# Static dielectric constant tensor:
#      x y z
#    x 1.794230 0.000000 0.070930 
#    y 0.000000 1.794120 0.000000 
#    z 0.070930 0.000000 1.764820 
# 
# From -- ./inp_files/210700.got.cif
#   From: 2010.05.17/outbox.cif.g08.bks.cpg/sg15_106_cif.got.tgz:210700.got - 2010.06.03 18:47:42.
