data_PCOD9263632
_publ_section_title
;
Structure prediction by ZEFSAII (Michael W. Deem and Ramdas Pophale) SiO2 
 PCOD9263632
Probable space group: C 2/C
;
_chemical_formula_sum "Si O2"
_cell_formula_units_Z 52
_cell_length_a 13.362972
_cell_length_b 28.113233
_cell_length_c 9.898410
_cell_angle_alpha 90.000000
_cell_angle_beta 51.527185
_cell_angle_gamma 90.000000
_cell_volume 2911.303523
_symmetry_space_group_name_H-M "C 2/C"
_symmetry_group_IT_number 15
_symmetry_cell_setting 'monoclinic'
loop_
_space_group_symop_operation_xyz
x,y,z
-x,y,1/2-z
-x,-y,-z
x,-y,1/2+z
1/2+x,1/2+y,z
1/2-x,1/2+y,1/2-z
1/2-x,1/2-y,-z
1/2+x,1/2-y,1/2+z
loop_
_atom_site_type_symbol
_atom_site_label
_atom_site_fract_x
_atom_site_fract_y
_atom_site_fract_z
Si Si1 0.792280 0.320928 0.911991
Si Si2 0.000000 0.091144 0.250000
Si Si3 0.000000 0.603889 0.250000
Si Si4 0.968658 0.145357 0.005534
Si Si5 0.878758 0.523079 0.173829
Si Si6 0.000000 0.930675 0.250000
Si Si7 0.791230 0.013422 0.444826
Si Si8 0.112905 0.227288 0.764420
O O1 0.885490 0.361423 0.886895
O O2 0.669847 0.341316 0.937400
O O3 0.861532 0.283649 0.752013
O O4 0.739521 0.293568 0.087961
O O5 0.957110 0.123480 0.162250
O O6 0.887422 0.056348 0.395550
O O7 0.064340 0.571245 0.310274
O O8 0.018727 0.104349 0.861484
O O9 0.061289 0.191785 0.922592
O O10 0.770900 0.524985 0.148442
O O11 0.817139 0.494519 0.351367
O O12 0.000000 0.500000 0.000000
O O13 0.877643 0.965400 0.368586
O O14 0.000000 0.222481 0.750000
#
# Coordination Sequence:
#
# PCOD9263632 Si02
#       8
#     8   4   4   8   8   4   8   8
#     4  10  19  34  58  88 113 139 188 240 289 340
#     4  11  24  38  60  85 115 160 192 250 291 348
#     4  12  22  33  58  83 113 156 191 226 286 348
#     4  11  21  37  59  89 116 144 199 238 296 345
#     4  12  24  39  55  84 122 162 194 240 288 351
#     4  11  20  37  64  88 106 154 205 258 279 326
#     4  11  23  40  58  81 120 155 204 244 292 329
#     4   9  18  35  58  87 115 136 179 252 292 330
#
# _framework density 17.861414
#
# number of rings (size 3 to 8) (size 9 to 14) (size 15 to 20)
#    0.000    1.231    4.615    3.692    0.000    3.692 
#    0.000    0.769    0.000    0.000    0.000    0.000 
#    0.000    0.000    0.000    0.000    0.000    0.000 
#
# Total GULP energy -144943.698253 kJ/mol
# GULP energy per Si atom -5574.757625 kJ/mol
# Density = 1.782076 g / cm^3
# Si number density = 17.861414 Si / 1000 Ang^3
#
#
#
# Elastic Constant Matrix: (Units=GPa)
#
#
# Indices 1 2 3 4 5 6 
#
# 1 56.7853 21.5487 16.9991 0.0000 -0.5470 0.0000
# 2 21.5487 87.9259 37.3699 0.0000 -9.5534 0.0000
# 3 16.9991 37.3699 78.1149 0.0000 -5.1151 0.0000
# 4 0.0000 0.0000 0.0000 19.9902 0.0000 -12.9075
# 5 -0.5470 -9.5534 -5.1151 0.0000 29.8835 0.0000
# 6 0.0000 0.0000 0.0000 -12.9075 0.0000 18.9130
#
#
#
# Elastic Compliance Matrix: (Units=1/GPa)
#
#
# Indices 1 2 3 4 5 6 
#
# 1 0.019846 -0.003936 -0.002523 0.000000 -0.001327 0.000000
# 2 -0.003936 0.015413 -0.006270 0.000000 0.003782 0.000000
# 3 -0.002523 -0.006270 0.016400 0.000000 0.000757 0.000000
# 4 0.000000 0.000000 0.000000 0.089435 0.000000 0.061037
# 5 -0.001327 0.003782 0.000757 0.000000 0.034778 0.000000
# 6 0.000000 0.000000 0.000000 0.061037 0.000000 0.094529
#
#
# Mechanical properties :
#
#
# Convention : Reuss Voigt Hill
#
# Bulk Modulus (GPa) = 38.16396 41.62906 39.89651
# Shear Modulus (GPa) = 16.41541 23.55123 19.98332
#
# Velocity S-wave (km/s) = 3.03486 3.63513 3.34847
# Velocity P-wave (km/s) = 5.80462 6.40126 6.11023
#
# Compressibility (1/GPa) = 0.02620273
#
# Stress axis : x y z
#
# Youngs Moduli (GPa) = 50.38753 64.87864 60.97730
#
# Poissons Ratio (x) = 0.25535 0.15384
# Poissons Ratio (y) = 0.19831 0.38230
# Poissons Ratio (z) = 0.12712 0.40676
#
# Static dielectric constant tensor:
#      x y z
#    x 1.609940 0.000000 -0.018990 
#    y 0.000000 1.656190 0.000000 
#    z -0.018990 0.000000 1.631270 
# 
# From -- ./inp_files/35128.got.cif
#   From: 2010.05.17/outbox.cif.g08.bks.cpg/sg15_18_cif.got.tgz:35128.got - 2010.06.03 18:47:42.
