data_PCOD9263196
_publ_section_title
;
Structure prediction by ZEFSAII (Michael W. Deem and Ramdas Pophale) SiO2 
 PCOD9263196
Probable space group: C 2/C
;
_chemical_formula_sum "Si O2"
_cell_formula_units_Z 56
_cell_length_a 9.360018
_cell_length_b 10.970856
_cell_length_c 28.359767
_cell_angle_alpha 90.000000
_cell_angle_beta 115.640276
_cell_angle_gamma 90.000000
_cell_volume 2625.423396
_symmetry_space_group_name_H-M "C 2/C"
_symmetry_group_IT_number 15
_symmetry_cell_setting 'monoclinic'
loop_
_space_group_symop_operation_xyz
x,y,z
-x,y,1/2-z
-x,-y,-z
x,-y,1/2+z
1/2+x,1/2+y,z
1/2-x,1/2+y,1/2-z
1/2-x,1/2-y,-z
1/2+x,1/2-y,1/2+z
loop_
_atom_site_type_symbol
_atom_site_label
_atom_site_fract_x
_atom_site_fract_y
_atom_site_fract_z
Si Si1 0.146271 0.653422 0.514386
Si Si2 0.161121 0.433916 0.680572
Si Si3 0.163034 0.848951 0.181432
Si Si4 0.500000 0.038642 0.750000
Si Si5 0.522552 0.442525 0.430390
Si Si6 0.852755 0.147950 0.988766
Si Si7 0.022772 0.548381 0.930280
Si Si8 0.000000 0.954610 0.250000
O O1 0.250000 0.750000 0.500000
O O2 0.294217 0.575030 0.556308
O O3 0.036168 0.572038 0.464734
O O4 0.043675 0.661538 0.547682
O O5 0.142836 0.292219 0.665357
O O6 0.068006 0.460309 0.716093
O O7 0.346898 0.466531 0.712603
O O8 0.081959 0.519315 0.629699
O O9 0.348183 0.881043 0.213305
O O10 0.086512 0.934062 0.130431
O O11 0.068686 0.875908 0.216385
O O12 0.536037 0.568845 0.460750
O O13 0.461599 0.337234 0.458306
O O14 0.707966 0.068472 0.945899
O O15 0.750000 0.250000 0.000000
#
# Coordination Sequence:
#
# PCOD9263196 Si02
#       8
#     8   8   8   4   8   8   8   4
#     4  10  19  34  53  81 117 150 186 240 293 352
#     4  11  22  41  63  88 122 160 203 260 309 358
#     4  11  22  41  64  88 122 163 202 259 315 357
#     4  10  24  42  62  90 122 158 212 258 310 374
#     4  10  21  35  57  85 114 155 203 236 292 369
#     4  10  21  38  56  85 125 158 192 245 296 356
#     4  10  21  34  56  86 114 152 203 238 290 368
#     4  10  24  40  60  92 120 154 214 256 306 378
#
# _framework density 21.329892000000001
#
# number of rings (size 3 to 8) (size 9 to 14) (size 15 to 20)
#    0.000    1.714    0.000    4.286    0.000    3.429 
#    0.000    8.571    0.000    0.000    0.000    0.000 
#    0.000    0.000    0.000    0.000    0.000    0.000 
#
# Total GULP energy -155998.519857 kJ/mol
# GULP energy per Si atom -5571.375709 kJ/mol
# Density = 2.128134 g / cm^3
# Si number density = 21.329892 Si / 1000 Ang^3
#
#
#
# Elastic Constant Matrix: (Units=GPa)
#
#
# Indices 1 2 3 4 5 6 
#
# 1 156.8871 35.1174 59.2682 0.0000 1.5643 0.0000
# 2 35.1174 68.5626 15.4987 0.0000 0.6436 0.0000
# 3 59.2682 15.4987 121.1785 0.0000 15.8733 0.0000
# 4 0.0000 0.0000 0.0000 15.4048 0.0000 -1.9946
# 5 1.5643 0.6436 15.8733 0.0000 22.7261 0.0000
# 6 0.0000 0.0000 0.0000 -1.9946 0.0000 30.6838
#
#
#
# Elastic Compliance Matrix: (Units=1/GPa)
#
#
# Indices 1 2 3 4 5 6 
#
# 1 0.008698 -0.003548 -0.004111 0.000000 0.002373 0.000000
# 2 -0.003548 0.016488 -0.000379 0.000000 0.000042 0.000000
# 3 -0.004111 -0.000379 0.011308 0.000000 -0.007604 0.000000
# 4 0.000000 0.000000 0.000000 0.065466 0.000000 0.004256
# 5 0.002373 0.000042 -0.007604 0.000000 0.049149 0.000000
# 6 0.000000 0.000000 0.000000 0.004256 0.000000 0.032867
#
#
# Mechanical properties :
#
#
# Convention : Reuss Voigt Hill
#
# Bulk Modulus (GPa) = 48.97894 62.93299 55.95596
# Shear Modulus (GPa) = 24.17137 29.54586 26.85862
#
# Velocity S-wave (km/s) = 3.36998 3.72585 3.55237
# Velocity P-wave (km/s) = 6.17696 6.93382 6.56630
#
# Compressibility (1/GPa) = 0.02041694
#
# Stress axis : x y z
#
# Youngs Moduli (GPa) = 114.97502 60.65146 88.43635
#
# Poissons Ratio (x) = 0.21518 0.36357
# Poissons Ratio (y) = 0.40791 0.03352
# Poissons Ratio (z) = 0.47267 0.02299
#
# Static dielectric constant tensor:
#      x y z
#    x 1.764370 0.000000 -0.014050 
#    y 0.000000 1.902090 0.000000 
#    z -0.014050 0.000000 1.768210 
# 
# From -- ./inp_files/288095.got.cif
#   From: 2010.05.17/outbox.cif.g08.bks.cpg/sg15_145_cif.got.tgz:288095.got - 2010.06.03 18:47:42.
