data_PCOD9263000
_publ_section_title
;
Structure prediction by ZEFSAII (Michael W. Deem and Ramdas Pophale) SiO2 
 PCOD9263000
Probable space group: C 2/C
;
_chemical_formula_sum "Si O2"
_cell_formula_units_Z 44
_cell_length_a 9.138441
_cell_length_b 11.738689
_cell_length_c 16.673806
_cell_angle_alpha 90.000000
_cell_angle_beta 104.920155
_cell_angle_gamma 90.000000
_cell_volume 1728.351004
_symmetry_space_group_name_H-M "C 2/C"
_symmetry_group_IT_number 15
_symmetry_cell_setting 'monoclinic'
loop_
_space_group_symop_operation_xyz
x,y,z
-x,y,1/2-z
-x,-y,-z
x,-y,1/2+z
1/2+x,1/2+y,z
1/2-x,1/2+y,1/2-z
1/2-x,1/2-y,-z
1/2+x,1/2-y,1/2+z
loop_
_atom_site_type_symbol
_atom_site_label
_atom_site_fract_x
_atom_site_fract_y
_atom_site_fract_z
Si Si1 0.739740 0.316505 0.205550
Si Si2 0.903435 0.840718 0.016864
Si Si3 0.232738 0.059544 0.557996
Si Si4 0.224728 0.410193 0.618452
Si Si5 0.500000 0.489486 0.250000
Si Si6 0.658697 0.837022 0.113142
O O1 0.821158 0.382862 0.143643
O O2 0.672720 0.200501 0.159130
O O3 0.620501 0.407756 0.223390
O O4 0.837113 0.286126 0.297682
O O5 0.934624 0.732963 0.965180
O O6 0.783492 0.923543 0.953254
O O7 0.823259 0.824076 0.091255
O O8 0.060462 0.902718 0.049888
O O9 0.271779 0.105930 0.476066
O O10 0.395265 0.436992 0.675051
O O11 0.131823 0.527622 0.616428
#
# Coordination Sequence:
#
# PCOD9263000 Si02
#       6
#     8   8   8   8   4   8
#     4  11  21  35  62  89 122 156 200 252 298 365
#     4   9  18  36  59  85 116 157 202 244 299 362
#     4  10  19  33  59  87 117 154 198 247 304 352
#     4  10  22  37  59  90 119 156 205 247 302 366
#     4  10  22  40  62  90 118 170 206 250 306 350
#     4   9  20  34  55  87 116 156 201 244 299 357
#
# _framework density 25.457791
#
# number of rings (size 3 to 8) (size 9 to 14) (size 15 to 20)
#    0.000    2.182    0.000    4.909    7.636    0.000 
#    0.000    0.909    8.000    0.000    0.000    0.000 
#    0.000    0.000    0.000    0.000    0.000    0.000 
#
# Total GULP energy -122990.460558 kJ/mol
# GULP energy per Si atom -5590.475480 kJ/mol
# Density = 2.539985 g / cm^3
# Si number density = 25.457791 Si / 1000 Ang^3
#
#
#
# Elastic Constant Matrix: (Units=GPa)
#
#
# Indices 1 2 3 4 5 6 
#
# 1 49.2422 17.6680 17.0290 0.0000 2.3666 0.0000
# 2 17.6680 117.1062 63.8083 0.0000 -9.5141 0.0000
# 3 17.0290 63.8083 197.5135 0.0000 -18.4031 0.0000
# 4 0.0000 0.0000 0.0000 38.3810 0.0000 -0.4086
# 5 2.3666 -9.5141 -18.4031 0.0000 17.4880 0.0000
# 6 0.0000 0.0000 0.0000 -0.4086 0.0000 31.9311
#
#
#
# Elastic Compliance Matrix: (Units=1/GPa)
#
#
# Indices 1 2 3 4 5 6 
#
# 1 0.022222 -0.003033 -0.001519 0.000000 -0.006256 0.000000
# 2 -0.003033 0.010865 -0.002949 0.000000 0.003219 0.000000
# 3 -0.001519 -0.002949 0.006670 0.000000 0.005621 0.000000
# 4 0.000000 0.000000 0.000000 0.026058 0.000000 0.000333
# 5 -0.006256 0.003219 0.005621 0.000000 0.065694 0.000000
# 6 0.000000 0.000000 0.000000 0.000333 0.000000 0.031322
#
#
# Mechanical properties :
#
#
# Convention : Reuss Voigt Hill
#
# Bulk Modulus (GPa) = 40.39490 62.31917 51.35703
# Shear Modulus (GPa) = 26.86947 35.25046 31.05997
#
# Velocity S-wave (km/s) = 3.25230 3.72514 3.49672
# Velocity P-wave (km/s) = 5.47769 6.56009 6.04317
#
# Compressibility (1/GPa) = 0.02475560
#
# Stress axis : x y z
#
# Youngs Moduli (GPa) = 45.00039 92.03846 149.92128
#
# Poissons Ratio (x) = 0.27918 0.22771
# Poissons Ratio (y) = 0.13650 0.44206
# Poissons Ratio (z) = 0.06835 0.27139
#
# Static dielectric constant tensor:
#      x y z
#    x 2.078670 0.000000 0.075870 
#    y 0.000000 2.043380 0.000000 
#    z 0.075870 0.000000 2.048290 
# 
# From -- ./inp_files/195652.got.cif
#   From: 2010.05.17/outbox.cif.g08.bks.cpg/sg15_98_cif.got.tgz:195652.got - 2010.06.03 18:47:42.
