data_PCOD9263540
_publ_section_title
;
Structure prediction by ZEFSAII (Michael W. Deem and Ramdas Pophale) SiO2 
 PCOD9263540
Probable space group: C 2/C
;
_chemical_formula_sum "Si O2"
_cell_formula_units_Z 56
_cell_length_a 14.571953
_cell_length_b 20.681227
_cell_length_c 8.864598
_cell_angle_alpha 90.000000
_cell_angle_beta 109.652558
_cell_angle_gamma 90.000000
_cell_volume 2515.871382
_symmetry_space_group_name_H-M "C 2/C"
_symmetry_group_IT_number 15
_symmetry_cell_setting 'monoclinic'
loop_
_space_group_symop_operation_xyz
x,y,z
-x,y,1/2-z
-x,-y,-z
x,-y,1/2+z
1/2+x,1/2+y,z
1/2-x,1/2+y,1/2-z
1/2-x,1/2-y,-z
1/2+x,1/2-y,1/2+z
loop_
_atom_site_type_symbol
_atom_site_label
_atom_site_fract_x
_atom_site_fract_y
_atom_site_fract_z
Si Si1 0.400448 0.093594 0.136183
Si Si2 0.911792 0.269103 0.099459
Si Si3 0.246547 0.625091 0.906487
Si Si4 0.793854 0.827337 0.935746
Si Si5 0.892948 0.877546 0.718314
Si Si6 0.650811 0.725390 0.734885
Si Si7 0.910049 0.468188 0.314406
O O1 0.500000 0.127905 0.250000
O O2 0.304792 0.137171 0.059515
O O3 0.381675 0.042036 0.260019
O O4 0.424834 0.053418 0.996219
O O5 0.821468 0.317208 0.067755
O O6 0.895976 0.197356 0.159412
O O7 0.000000 0.295940 0.250000
O O8 0.922599 0.258525 0.924796
O O9 0.318218 0.659245 0.828570
O O10 0.178483 0.574918 0.788884
O O11 0.308696 0.591872 0.071633
O O12 0.858700 0.873939 0.870359
O O13 0.745589 0.771713 0.804674
O O14 0.862643 0.794519 0.099196
O O15 0.000000 0.904512 0.750000
O O16 0.000000 0.454099 0.250000
#
# Coordination Sequence:
#
# PCOD9263540 Si02
#       7
#     8   8   8   8   8   8   8
#     4  11  25  41  63  98 130 168 213 254 326 387
#     4  10  19  34  57  89 124 169 208 248 317 391
#     4  11  19  38  60  90 128 167 212 256 316 383
#     4  11  21  39  63  84 132 167 210 273 318 371
#     4  10  21  36  60  87 117 170 214 257 313 371
#     4  10  20  37  57  89 124 165 215 259 312 385
#     4  11  24  40  64  96 130 168 212 260 310 396
#
# _framework density 22.258689
#
# number of rings (size 3 to 8) (size 9 to 14) (size 15 to 20)
#    0.000    1.429    4.286    3.000    4.000    1.143 
#    0.000    7.857    0.000    0.857    0.000    0.000 
#    0.000    0.000    0.000    0.000    0.000    0.000 
#
# Total GULP energy -156187.165347 kJ/mol
# GULP energy per Si atom -5578.113048 kJ/mol
# Density = 2.220803 g / cm^3
# Si number density = 22.258689 Si / 1000 Ang^3
#
#
#
# Elastic Constant Matrix: (Units=GPa)
#
#
# Indices 1 2 3 4 5 6 
#
# 1 68.6060 -3.8125 45.8799 0.0000 2.9845 0.0000
# 2 -3.8125 30.2511 4.1543 0.0000 1.5584 0.0000
# 3 45.8799 4.1543 177.2654 0.0000 15.1216 0.0000
# 4 0.0000 0.0000 0.0000 14.7749 0.0000 -0.8642
# 5 2.9845 1.5584 15.1216 0.0000 30.1005 0.0000
# 6 0.0000 0.0000 0.0000 -0.8642 0.0000 20.1358
#
#
#
# Elastic Compliance Matrix: (Units=1/GPa)
#
#
# Indices 1 2 3 4 5 6 
#
# 1 0.017883 0.002880 -0.004735 0.000000 0.000456 0.000000
# 2 0.002880 0.033683 -0.001423 0.000000 -0.001315 0.000000
# 3 -0.004735 -0.001423 0.007161 0.000000 -0.003054 0.000000
# 4 0.000000 0.000000 0.000000 0.067852 0.000000 0.002912
# 5 0.000456 -0.001315 -0.003054 0.000000 0.034779 0.000000
# 6 0.000000 0.000000 0.000000 0.002912 0.000000 0.049788
#
#
# Mechanical properties :
#
#
# Convention : Reuss Voigt Hill
#
# Bulk Modulus (GPa) = 19.16747 40.95177 30.05962
# Shear Modulus (GPa) = 21.26844 28.32898 24.79871
#
# Velocity S-wave (km/s) = 3.09449 3.57138 3.34146
# Velocity P-wave (km/s) = 4.62577 5.95352 5.33114
#
# Compressibility (1/GPa) = 0.05217174
#
# Stress axis : x y z
#
# Youngs Moduli (GPa) = 55.92041 29.68872 139.65319
#
# Poissons Ratio (x) = -0.08552 0.66123
# Poissons Ratio (y) = -0.16107 0.19869
# Poissons Ratio (z) = 0.26477 0.04224
#
# Static dielectric constant tensor:
#      x y z
#    x 1.867960 0.000000 0.000750 
#    y 0.000000 1.825100 0.000000 
#    z 0.000750 0.000000 1.893580 
# 
# From -- ./inp_files/42257.got.cif
#   From: 2010.05.17/outbox.cif.g08.bks.cpg/sg15_22_cif.got.tgz:42257.got - 2010.06.03 18:47:42.
