data_PCOD9263616
_publ_section_title
;
Structure prediction by ZEFSAII (Michael W. Deem and Ramdas Pophale) SiO2 
 PCOD9263616
Probable space group: C 2/C
;
_chemical_formula_sum "Si O2"
_cell_formula_units_Z 48
_cell_length_a 8.966103
_cell_length_b 18.874537
_cell_length_c 18.260980
_cell_angle_alpha 90.000000
_cell_angle_beta 43.773125
_cell_angle_gamma 90.000000
_cell_volume 2137.900683
_symmetry_space_group_name_H-M "C 2/C"
_symmetry_group_IT_number 15
_symmetry_cell_setting 'monoclinic'
loop_
_space_group_symop_operation_xyz
x,y,z
-x,y,1/2-z
-x,-y,-z
x,-y,1/2+z
1/2+x,1/2+y,z
1/2-x,1/2+y,1/2-z
1/2-x,1/2-y,-z
1/2+x,1/2-y,1/2+z
loop_
_atom_site_type_symbol
_atom_site_label
_atom_site_fract_x
_atom_site_fract_y
_atom_site_fract_z
Si Si1 0.832533 0.849858 0.525129
Si Si2 0.375113 0.534873 0.113112
Si Si3 0.302085 0.745646 0.763651
Si Si4 0.074845 0.149970 0.139184
Si Si5 0.511916 0.199263 0.037182
Si Si6 0.226479 0.388668 0.207065
O O1 0.745362 0.901855 0.618539
O O2 0.685683 0.856789 0.504952
O O3 0.854368 0.767012 0.537215
O O4 0.076880 0.868245 0.416530
O O5 0.533426 0.577622 0.110306
O O6 0.249433 0.474043 0.201951
O O7 0.500000 0.500000 0.000000
O O8 0.500000 0.754355 0.750000
O O9 0.398081 0.774358 0.652151
O O10 0.253810 0.661823 0.767867
O O11 0.077469 0.789762 0.842451
O O12 0.324367 0.172352 0.051682
O O13 0.000000 0.141065 0.250000
O O14 0.000000 0.370764 0.250000
#
# Coordination Sequence:
#
# PCOD9263616 Si02
#       6
#     8   8   8   8   8   8
#     4   9  18  36  58  85 118 155 195 247 304 356
#     4  10  22  39  57  85 123 161 200 243 306 370
#     4  10  19  34  58  86 116 153 202 254 302 356
#     4  10  21  37  61  92 120 157 207 253 301 361
#     4   9  18  34  58  88 121 151 199 256 298 354
#     4  10  21  38  56  79 117 158 200 249 299 361
#
# _framework density 22.451931999999999
#
# number of rings (size 3 to 8) (size 9 to 14) (size 15 to 20)
#    0.000    2.333    0.000    3.500    0.000    4.667 
#    0.000   13.333    0.000    0.000    0.000    0.000 
#    0.000    0.000    0.000    0.000    0.000    0.000 
#
# Total GULP energy -133781.411611 kJ/mol
# GULP energy per Si atom -5574.225484 kJ/mol
# Density = 2.240083 g / cm^3
# Si number density = 22.451932 Si / 1000 Ang^3
#
#
#
# Elastic Constant Matrix: (Units=GPa)
#
#
# Indices 1 2 3 4 5 6 
#
# 1 180.9509 69.6328 40.0875 0.0008 -17.6830 -0.0009
# 2 69.6328 109.8980 10.2982 -0.0004 -6.0322 0.0003
# 3 40.0875 10.2982 54.8987 -0.0012 -19.7837 0.0010
# 4 0.0008 -0.0004 -0.0012 -40.1282 -0.0003 66.6507
# 5 -17.6830 -6.0322 -19.7837 -0.0003 41.9407 0.0004
# 6 -0.0009 0.0003 0.0010 66.6507 0.0004 -6.2498
#
#
#
# Elastic Compliance Matrix: (Units=1/GPa)
#
#
# Indices 1 2 3 4 5 6 
#
# 1 0.008633 -0.004956 -0.005204 0.000000 0.000472 0.000000
# 2 -0.004956 0.012121 0.001470 0.000000 0.000347 0.000000
# 3 -0.005204 0.001470 0.025331 0.000000 0.009966 0.000000
# 4 0.000000 0.000000 0.000000 0.001491 0.000000 0.015901
# 5 0.000472 0.000347 0.009966 0.000000 0.028793 0.000000
# 6 0.000000 0.000000 0.000000 0.015901 0.000000 0.009574
#
#
# Mechanical properties :
#
#
# Convention : Reuss Voigt Hill
#
# Bulk Modulus (GPa) = 34.83646 65.08718 49.96182
# Shear Modulus (GPa) = 44.29111 14.16115 29.22613
#
# Velocity S-wave (km/s) = 4.44634 2.51416 3.61185
# Velocity P-wave (km/s) = 6.47376 6.12213 6.30040
#
# Compressibility (1/GPa) = 0.02870556
#
# Stress axis : x y z
#
# Youngs Moduli (GPa) = 115.84107 82.50222 39.47763
#
# Poissons Ratio (x) = 0.40889 0.20543
# Poissons Ratio (y) = 0.57412 -0.05805
# Poissons Ratio (z) = 0.60280 -0.12132
#
# Static dielectric constant tensor:
#      x y z
#    x 1.847710 0.000000 0.040480 
#    y 0.000000 2.063850 0.000000 
#    z 0.040480 0.000000 1.942460 
# 
# From -- ./inp_files/232499.got.cif
#   From: 2010.05.17/outbox.cif.g08.bks.cpg/sg15_117_cif.got.tgz:232499.got - 2010.06.03 18:47:42.
