data_PCOD9263537
_publ_section_title
;
Structure prediction by ZEFSAII (Michael W. Deem and Ramdas Pophale) SiO2 
 PCOD9263537
Probable space group: C 2/C
;
_chemical_formula_sum "Si O2"
_cell_formula_units_Z 56
_cell_length_a 24.765294
_cell_length_b 11.932168
_cell_length_c 21.160361
_cell_angle_alpha 90.000000
_cell_angle_beta 27.505092
_cell_angle_gamma 90.000000
_cell_volume 2887.790314
_symmetry_space_group_name_H-M "C 2/C"
_symmetry_group_IT_number 15
_symmetry_cell_setting 'monoclinic'
loop_
_space_group_symop_operation_xyz
x,y,z
-x,y,1/2-z
-x,-y,-z
x,-y,1/2+z
1/2+x,1/2+y,z
1/2-x,1/2+y,1/2-z
1/2-x,1/2-y,-z
1/2+x,1/2-y,1/2+z
loop_
_atom_site_type_symbol
_atom_site_label
_atom_site_fract_x
_atom_site_fract_y
_atom_site_fract_z
Si Si1 0.632289 0.903593 0.095582
Si Si2 0.490328 0.359522 0.922902
Si Si3 0.180703 0.804243 0.289708
Si Si4 0.763179 0.985634 0.835482
Si Si5 0.349286 0.171811 0.725780
Si Si6 0.877179 0.445144 0.646911
Si Si7 0.820998 0.160185 0.491402
O O1 0.500000 0.941057 0.250000
O O2 0.628967 0.767031 0.097428
O O3 0.680365 0.954235 0.980094
O O4 0.738786 0.919468 0.035108
O O5 0.611263 0.425218 0.796229
O O6 0.526798 0.227224 0.887521
O O7 0.421747 0.390455 0.930533
O O8 0.408550 0.369321 0.069717
O O9 0.298077 0.791472 0.211017
O O10 0.127700 0.683519 0.327775
O O11 0.211200 0.882056 0.199191
O O12 0.700720 0.952670 0.834874
O O13 0.338095 0.037487 0.738613
O O14 0.263624 0.215486 0.868318
O O15 0.000000 0.500000 0.500000
#
# Coordination Sequence:
#
# PCOD9263537 Si02
#       7
#     8   8   8   8   8   8   8
#     4  11  23  37  58  86 125 158 206 254 307 356
#     4  11  18  36  59  87 130 153 195 246 319 363
#     4  10  21  36  56  89 128 165 194 238 309 371
#     4  11  23  38  57  89 126 158 198 256 304 366
#     4  10  19  34  57  88 125 153 189 255 301 362
#     4  11  21  34  60  90 120 160 201 239 299 372
#     4  10  22  35  57  89 119 161 199 255 312 360
#
# _framework density 19.39199
#
# number of rings (size 3 to 8) (size 9 to 14) (size 15 to 20)
#    0.000    1.429    4.286    2.143    4.000    0.000 
#    0.000    0.000    0.000    0.857    0.000    0.000 
#    0.000    0.000    0.000    0.000    0.000    0.000 
#
# Total GULP energy -156036.972961 kJ/mol
# GULP energy per Si atom -5572.749034 kJ/mol
# Density = 1.934785 g / cm^3
# Si number density = 19.391990 Si / 1000 Ang^3
#
#
#
# Elastic Constant Matrix: (Units=GPa)
#
#
# Indices 1 2 3 4 5 6 
#
# 1 84.0340 21.7646 44.4128 0.0000 -8.6096 0.0000
# 2 21.7646 103.2801 33.6975 0.0000 3.0168 0.0000
# 3 44.4128 33.6975 102.4211 0.0000 -13.0841 0.0000
# 4 0.0000 0.0000 0.0000 28.2771 0.0000 0.0575
# 5 -8.6096 3.0168 -13.0841 0.0000 23.7086 0.0000
# 6 0.0000 0.0000 0.0000 0.0575 0.0000 17.5721
#
#
#
# Elastic Compliance Matrix: (Units=1/GPa)
#
#
# Indices 1 2 3 4 5 6 
#
# 1 0.015711 -0.001423 -0.006017 0.000000 0.002566 0.000000
# 2 -0.001423 0.011270 -0.003593 0.000000 -0.003934 0.000000
# 3 -0.006017 -0.003593 0.014346 0.000000 0.006189 0.000000
# 4 0.000000 0.000000 0.000000 0.035365 0.000000 -0.000116
# 5 0.002566 -0.003934 0.006189 0.000000 0.047027 0.000000
# 6 0.000000 0.000000 0.000000 -0.000116 0.000000 0.056909
#
#
# Mechanical properties :
#
#
# Convention : Reuss Voigt Hill
#
# Bulk Modulus (GPa) = 51.92009 54.38723 53.15366
# Shear Modulus (GPa) = 23.91053 26.56892 25.23973
#
# Velocity S-wave (km/s) = 3.51523 3.70550 3.61162
# Velocity P-wave (km/s) = 6.58088 6.81284 6.69786
#
# Compressibility (1/GPa) = 0.01926037
#
# Stress axis : x y z
#
# Youngs Moduli (GPa) = 63.64813 88.73472 69.70730
#
# Poissons Ratio (x) = 0.12624 0.41943
# Poissons Ratio (y) = 0.09055 0.25049
# Poissons Ratio (z) = 0.38298 0.31886
#
# Static dielectric constant tensor:
#      x y z
#    x 1.715340 0.000000 -0.017240 
#    y 0.000000 1.777480 0.000000 
#    z -0.017240 0.000000 1.766340 
# 
# From -- ./inp_files/117469.got.cif
#   From: 2010.05.17/outbox.cif.g08.bks.cpg/sg15_59_cif.got.tgz:117469.got - 2010.06.03 18:47:42.
