data_PCOD9263385
_publ_section_title
;
Structure prediction by ZEFSAII (Michael W. Deem and Ramdas Pophale) SiO2 
 PCOD9263385
Probable space group: C 2/C
;
_chemical_formula_sum "Si O2"
_cell_formula_units_Z 48
_cell_length_a 6.796053
_cell_length_b 27.601872
_cell_length_c 13.680692
_cell_angle_alpha 90.000000
_cell_angle_beta 83.073886
_cell_angle_gamma 90.000000
_cell_volume 2547.548545
_symmetry_space_group_name_H-M "C 2/C"
_symmetry_group_IT_number 15
_symmetry_cell_setting 'monoclinic'
loop_
_space_group_symop_operation_xyz
x,y,z
-x,y,1/2-z
-x,-y,-z
x,-y,1/2+z
1/2+x,1/2+y,z
1/2-x,1/2+y,1/2-z
1/2-x,1/2-y,-z
1/2+x,1/2-y,1/2+z
loop_
_atom_site_type_symbol
_atom_site_label
_atom_site_fract_x
_atom_site_fract_y
_atom_site_fract_z
Si Si1 0.812536 0.468631 0.981683
Si Si2 0.069061 0.218779 0.467717
Si Si3 0.161127 0.296592 0.102818
Si Si4 0.280826 0.881472 0.252344
Si Si5 0.559411 0.526497 0.849094
Si Si6 0.667318 0.138701 0.975894
O O1 0.720020 0.493463 0.892288
O O2 0.634495 0.470249 0.071769
O O3 0.876292 0.412832 0.973748
O O4 0.000000 0.500000 0.000000
O O5 0.250000 0.250000 0.500000
O O6 0.172099 0.166298 0.466137
O O7 0.977566 0.248586 0.381362
O O8 0.876307 0.216775 0.548458
O O9 0.204286 0.330143 0.193283
O O10 0.032154 0.330308 0.035347
O O11 0.500000 0.903720 0.250000
O O12 0.144835 0.920234 0.316193
O O13 0.752281 0.870400 0.360254
O O14 0.500000 0.503750 0.750000
#
# Coordination Sequence:
#
# PCOD9263385 Si02
#       6
#     8   8   8   8   8   8
#     4  11  23  37  56  86 120 160 202 249 305 359
#     4   9  18  32  50  76 110 143 177 227 287 347
#     4   9  18  30  51  81 109 140 180 229 288 352
#     4  10  19  34  58  87 117 147 187 249 300 351
#     4  11  23  37  57  87 120 157 199 250 305 366
#     4  10  19  34  56  82 114 149 190 240 297 350
#
# _framework density 18.841642
#
# number of rings (size 3 to 8) (size 9 to 14) (size 15 to 20)
#    0.000    2.000    1.667    3.000    0.000    1.333 
#    0.000    0.000    0.000    7.000    0.000   37.333 
#    0.000    0.000    0.000    0.000    0.000    0.000 
#
# Total GULP energy -133604.081503 kJ/mol
# GULP energy per Si atom -5566.836729 kJ/mol
# Density = 1.879876 g / cm^3
# Si number density = 18.841642 Si / 1000 Ang^3
#
#
#
# Elastic Constant Matrix: (Units=GPa)
#
#
# Indices 1 2 3 4 5 6 
#
# 1 128.9255 58.7229 33.7633 0.0000 -2.3445 0.0000
# 2 58.7229 131.6358 36.0125 0.0000 10.1904 0.0000
# 3 33.7633 36.0125 59.0593 0.0000 10.9276 0.0000
# 4 0.0000 0.0000 0.0000 28.5993 0.0000 0.1624
# 5 -2.3445 10.1904 10.9276 0.0000 31.9080 0.0000
# 6 0.0000 0.0000 0.0000 0.1624 0.0000 31.5993
#
#
#
# Elastic Compliance Matrix: (Units=1/GPa)
#
#
# Indices 1 2 3 4 5 6 
#
# 1 0.010738 -0.003848 -0.004448 0.000000 0.003541 0.000000
# 2 -0.003848 0.010531 -0.003787 0.000000 -0.002349 0.000000
# 3 -0.004448 -0.003787 0.023084 0.000000 -0.007023 0.000000
# 4 0.000000 0.000000 0.000000 0.034967 0.000000 -0.000180
# 5 0.003541 -0.002349 -0.007023 0.000000 0.034756 0.000000
# 6 0.000000 0.000000 0.000000 -0.000180 0.000000 0.031647
#
#
# Mechanical properties :
#
#
# Convention : Reuss Voigt Hill
#
# Bulk Modulus (GPa) = 49.53592 64.06867 56.80230
# Shear Modulus (GPa) = 28.30980 31.16277 29.73628
#
# Velocity S-wave (km/s) = 3.88043 4.07127 3.97699
# Velocity P-wave (km/s) = 6.81357 7.49519 7.16249
#
# Compressibility (1/GPa) = 0.02018737
#
# Stress axis : x y z
#
# Youngs Moduli (GPa) = 93.12612 94.95696 43.32064
#
# Poissons Ratio (x) = 0.36535 0.19268
# Poissons Ratio (y) = 0.35831 0.16407
# Poissons Ratio (z) = 0.41421 0.35963
#
# Static dielectric constant tensor:
#      x y z
#    x 1.696670 0.000000 -0.004080 
#    y 0.000000 1.715360 0.000000 
#    z -0.004080 0.000000 1.674430 
# 
# From -- ./inp_files/130313.got.cif
#   From: 2010.05.17/outbox.cif.g08.bks.cpg/sg15_66_cif.got.tgz:130313.got - 2010.06.03 18:47:42.
