data_PCOD9263739
_publ_section_title
;
Structure prediction by ZEFSAII (Michael W. Deem and Ramdas Pophale) SiO2 
 PCOD9263739
Probable space group: C 2/C
;
_chemical_formula_sum "Si O2"
_cell_formula_units_Z 32
_cell_length_a 8.784043
_cell_length_b 34.111821
_cell_length_c 5.226591
_cell_angle_alpha 90.000000
_cell_angle_beta 91.849189
_cell_angle_gamma 90.000000
_cell_volume 1565.278590
_symmetry_space_group_name_H-M "C 2/C"
_symmetry_group_IT_number 15
_symmetry_cell_setting 'monoclinic'
loop_
_space_group_symop_operation_xyz
x,y,z
-x,y,1/2-z
-x,-y,-z
x,-y,1/2+z
1/2+x,1/2+y,z
1/2-x,1/2+y,1/2-z
1/2-x,1/2-y,-z
1/2+x,1/2-y,1/2+z
loop_
_atom_site_type_symbol
_atom_site_label
_atom_site_fract_x
_atom_site_fract_y
_atom_site_fract_z
Si Si1 0.817569 0.270501 0.251882
Si Si2 0.820131 0.637636 0.782464
Si Si3 0.172928 0.015261 0.069535
Si Si4 0.174743 0.896161 0.774337
O O1 0.750000 0.250000 0.500000
O O2 0.779933 0.316677 0.245140
O O3 0.000000 0.266894 0.250000
O O4 0.750000 0.250000 0.000000
O O5 0.734860 0.612051 0.561949
O O6 0.000000 0.633011 0.750000
O O7 0.773805 0.625691 0.065968
O O8 0.244689 0.012207 0.792165
O O9 0.175246 0.058404 0.187566
O O10 0.000000 0.000000 0.000000
O O11 0.000000 0.882582 0.750000
#
# Coordination Sequence:
#
# PCOD9263739 Si02
#       4
#     8   8   8   8
#     4  11  24  43  68  93 126 173 211 262 316 384
#     4  11  26  44  61  92 139 173 200 252 347 390
#     4  10  19  34  59  92 122 156 206 268 327 359
#     4  12  23  38  68  99 120 165 222 275 303 371
#
# _framework density 20.443645
#
# number of rings (size 3 to 8) (size 9 to 14) (size 15 to 20)
#    0.000    1.000    2.500    5.250    3.500   10.000 
#    0.000    0.000    0.000   15.000    0.000    0.000 
#    0.000    0.000    0.000    0.000    0.000    0.000 
#
# Total GULP energy -89403.642910 kJ/mol
# GULP energy per Si atom -5587.727682 kJ/mol
# Density = 2.039711 g / cm^3
# Si number density = 20.443645 Si / 1000 Ang^3
#
#
#
# Elastic Constant Matrix: (Units=GPa)
#
#
# Indices 1 2 3 4 5 6 
#
# 1 30.1175 16.3020 -3.4645 0.0000 -7.8536 0.0000
# 2 16.3020 93.9773 10.0408 0.0000 4.4970 0.0000
# 3 -3.4645 10.0408 124.2210 0.0000 -0.5231 0.0000
# 4 0.0000 0.0000 0.0000 37.8970 0.0000 -1.9232
# 5 -7.8536 4.4970 -0.5231 0.0000 38.9883 0.0000
# 6 0.0000 0.0000 0.0000 -1.9232 0.0000 15.5198
#
#
#
# Elastic Compliance Matrix: (Units=1/GPa)
#
#
# Indices 1 2 3 4 5 6 
#
# 1 0.039797 -0.007517 0.001755 0.000000 0.008907 0.000000
# 2 -0.007517 0.012215 -0.001209 0.000000 -0.002939 0.000000
# 3 0.001755 -0.001209 0.008199 0.000000 0.000603 0.000000
# 4 0.000000 0.000000 0.000000 0.026554 0.000000 0.003290
# 5 0.008907 -0.002939 0.000603 0.000000 0.027790 0.000000
# 6 0.000000 0.000000 0.000000 0.003290 0.000000 0.064841
#
#
# Mechanical properties :
#
#
# Convention : Reuss Voigt Hill
#
# Bulk Modulus (GPa) = 21.61328 32.67472 27.14400
# Shear Modulus (GPa) = 23.95072 33.51020 28.73046
#
# Velocity S-wave (km/s) = 3.42650 4.05303 3.75287
# Velocity P-wave (km/s) = 5.12344 6.15795 5.66436
#
# Compressibility (1/GPa) = 0.04626784
#
# Stress axis : x y z
#
# Youngs Moduli (GPa) = 25.12774 81.86852 121.96006
#
# Poissons Ratio (x) = 0.61542 -0.21404
# Poissons Ratio (y) = 0.18889 0.14749
# Poissons Ratio (z) = -0.04410 0.09901
#
# Static dielectric constant tensor:
#      x y z
#    x 1.738410 0.000000 -0.067720 
#    y 0.000000 1.741200 0.000000 
#    z -0.067720 0.000000 1.775000 
# 
# From -- ./inp_files/2395.got.cif
#   From: 2010.05.17/outbox.cif.g08.bks.cpg/sg15_2_cif.got.tgz:2395.got - 2010.06.03 18:47:42.
