data_PCOD9263142
_publ_section_title
;
Structure prediction by ZEFSAII (Michael W. Deem and Ramdas Pophale) SiO2 
 PCOD9263142
Probable space group: C 2/C
;
_chemical_formula_sum "Si O2"
_cell_formula_units_Z 64
_cell_length_a 20.420714
_cell_length_b 25.178022
_cell_length_c 8.192168
_cell_angle_alpha 90.000000
_cell_angle_beta 130.605851
_cell_angle_gamma 90.000000
_cell_volume 3197.793045
_symmetry_space_group_name_H-M "C 2/C"
_symmetry_group_IT_number 15
_symmetry_cell_setting 'monoclinic'
loop_
_space_group_symop_operation_xyz
x,y,z
-x,y,1/2-z
-x,-y,-z
x,-y,1/2+z
1/2+x,1/2+y,z
1/2-x,1/2+y,1/2-z
1/2-x,1/2-y,-z
1/2+x,1/2-y,1/2+z
loop_
_atom_site_type_symbol
_atom_site_label
_atom_site_fract_x
_atom_site_fract_y
_atom_site_fract_z
Si Si1 0.823716 0.566406 0.739162
Si Si2 0.012420 0.600250 0.073876
Si Si3 0.942505 0.291863 0.350028
Si Si4 0.772992 0.322940 0.237295
Si Si5 0.294132 0.646981 0.515101
Si Si6 0.826708 0.277214 0.865068
Si Si7 0.806941 0.451494 0.599039
Si Si8 0.056907 0.780595 0.185129
O O1 0.774830 0.622589 0.635790
O O2 0.791794 0.513331 0.603655
O O3 0.925170 0.573880 0.862486
O O4 0.816427 0.556350 0.920861
O O5 0.000000 0.601033 0.250000
O O6 0.101415 0.570132 0.179907
O O7 0.007499 0.660638 0.003916
O O8 0.866887 0.298489 0.360614
O O9 0.987272 0.234280 0.432486
O O10 0.896290 0.300592 0.102707
O O11 0.754068 0.338778 0.392750
O O12 0.706898 0.275676 0.096742
O O13 0.249903 0.682781 0.303748
O O14 0.268547 0.585738 0.451983
O O15 0.393470 0.664320 0.701401
O O16 0.865139 0.256235 0.755149
O O17 0.000000 0.766825 0.250000
#
# Coordination Sequence:
#
# PCOD9263142 Si02
#       8
#     8   8   8   8   8   8   8   8
#     4   9  19  33  52  76 103 141 179 214 260 311
#     4   9  18  32  51  77 111 149 177 204 256 325
#     4  11  20  32  53  82 112 140 173 220 270 314
#     4   9  19  36  55  78 111 146 175 214 273 331
#     4  10  21  36  55  77 105 146 187 219 263 329
#     4  11  21  34  53  83 109 135 180 229 268 314
#     4  10  19  34  52  75 105 137 178 220 259 311
#     4  11  21  35  52  72 104 146 181 216 267 327
#
# _framework density 20.013804
#
# number of rings (size 3 to 8) (size 9 to 14) (size 15 to 20)
#    0.000    2.000    0.000    6.000    0.000    4.000 
#    0.000    1.250    0.000    0.000    0.000   14.000 
#    0.000    0.000    0.000    0.000    0.000    0.000 
#
# Total GULP energy -178299.054936 kJ/mol
# GULP energy per Si atom -5571.845467 kJ/mol
# Density = 1.996825 g / cm^3
# Si number density = 20.013804 Si / 1000 Ang^3
#
#
#
# Elastic Constant Matrix: (Units=GPa)
#
#
# Indices 1 2 3 4 5 6 
#
# 1 73.9512 33.7231 13.0493 0.0000 6.7151 0.0000
# 2 33.7231 110.8388 19.8223 0.0000 17.8283 0.0000
# 3 13.0493 19.8223 28.8001 0.0000 0.9395 0.0000
# 4 0.0000 0.0000 0.0000 32.3571 0.0000 5.6039
# 5 6.7151 17.8283 0.9395 0.0000 16.3573 0.0000
# 6 0.0000 0.0000 0.0000 5.6039 0.0000 26.3666
#
#
#
# Elastic Compliance Matrix: (Units=1/GPa)
#
#
# Indices 1 2 3 4 5 6 
#
# 1 0.016270 -0.003727 -0.004730 0.000000 -0.002345 0.000000
# 2 -0.003727 0.013494 -0.007182 0.000000 -0.012765 0.000000
# 3 -0.004730 -0.007182 0.041568 0.000000 0.007383 0.000000
# 4 0.000000 0.000000 0.000000 0.032086 0.000000 -0.006820
# 5 -0.002345 -0.012765 0.007383 0.000000 0.075586 0.000000
# 6 0.000000 0.000000 0.000000 -0.006820 0.000000 0.039376
#
#
# Mechanical properties :
#
#
# Convention : Reuss Voigt Hill
#
# Bulk Modulus (GPa) = 24.96721 38.53107 31.74914
# Shear Modulus (GPa) = 19.01076 24.81590 21.91333
#
# Velocity S-wave (km/s) = 3.08536 3.52510 3.31253
# Velocity P-wave (km/s) = 5.01943 5.98853 5.52527
#
# Compressibility (1/GPa) = 0.04005254
#
# Stress axis : x y z
#
# Youngs Moduli (GPa) = 61.46433 74.10862 24.05706
#
# Poissons Ratio (x) = 0.27620 0.11379
# Poissons Ratio (y) = 0.22907 0.17279
# Poissons Ratio (z) = 0.29073 0.53227
#
# Static dielectric constant tensor:
#      x y z
#    x 1.778300 0.000000 -0.007910 
#    y 0.000000 1.754770 0.000000 
#    z -0.007910 0.000000 1.742500 
# 
# From -- ./inp_files/58642.got.cif
#   From: 2010.05.17/outbox.cif.g08.bks.cpg/sg15_30_cif.got.tgz:58642.got - 2010.06.03 18:47:42.
