data_PCOD9263809
_publ_section_title
;
Structure prediction by ZEFSAII (Michael W. Deem and Ramdas Pophale) SiO2 
 PCOD9263809
Probable space group: C 2/C
;
_chemical_formula_sum "Si O2"
_cell_formula_units_Z 36
_cell_length_a 7.397648
_cell_length_b 23.486732
_cell_length_c 9.069157
_cell_angle_alpha 90.000000
_cell_angle_beta 107.986608
_cell_angle_gamma 90.000000
_cell_volume 1498.726788
_symmetry_space_group_name_H-M "C 2/C"
_symmetry_group_IT_number 15
_symmetry_cell_setting 'monoclinic'
loop_
_space_group_symop_operation_xyz
x,y,z
-x,y,1/2-z
-x,-y,-z
x,-y,1/2+z
1/2+x,1/2+y,z
1/2-x,1/2+y,1/2-z
1/2-x,1/2-y,-z
1/2+x,1/2-y,1/2+z
loop_
_atom_site_type_symbol
_atom_site_label
_atom_site_fract_x
_atom_site_fract_y
_atom_site_fract_z
Si Si1 0.128678 0.678877 0.631370
Si Si2 0.769861 0.940776 0.194615
Si Si3 0.825707 0.730722 0.357686
Si Si4 0.664265 0.458284 0.980015
Si Si5 0.500000 0.641635 0.250000
O O1 0.183314 0.614996 0.601646
O O2 0.299917 0.717682 0.737076
O O3 0.000000 0.677301 0.750000
O O4 0.026028 0.705669 0.462313
O O5 0.710557 0.942407 0.349916
O O6 0.000000 0.932256 0.250000
O O7 0.734009 0.002280 0.114127
O O8 0.750000 0.750000 0.500000
O O9 0.679212 0.682249 0.264345
O O10 0.568909 0.401632 0.893498
O O11 0.500000 0.500000 0.000000
#
# Coordination Sequence:
#
# PCOD9263809 Si02
#       5
#     8   8   8   8   4
#     4  10  20  38  60  95 124 162 215 261 310 365
#     4  10  21  39  65  89 129 167 212 251 317 376
#     4  10  19  34  60  93 121 162 214 257 306 376
#     4  10  19  36  62  93 116 171 208 249 308 380
#     4  12  18  34  66  90 124 160 222 250 302 388
#
# _framework density 24.020392000000001
#
# number of rings (size 3 to 8) (size 9 to 14) (size 15 to 20)
#    0.000    1.778    6.667    2.667    0.000    0.000 
#    0.000    5.556    0.000    0.000    0.000    0.000 
#    0.000    0.000    0.000    0.000    0.000    0.000 
#
# Total GULP energy -100520.656495 kJ/mol
# GULP energy per Si atom -5584.480916 kJ/mol
# Density = 2.396572 g / cm^3
# Si number density = 24.020392 Si / 1000 Ang^3
#
#
#
# Elastic Constant Matrix: (Units=GPa)
#
#
# Indices 1 2 3 4 5 6 
#
# 1 60.3421 21.7052 27.0260 0.0000 13.4970 0.0000
# 2 21.7052 131.0355 50.9077 0.0000 11.4244 0.0000
# 3 27.0260 50.9077 111.9215 0.0000 28.3268 0.0000
# 4 0.0000 0.0000 0.0000 27.5490 0.0000 15.0398
# 5 13.4970 11.4244 28.3268 0.0000 30.3145 0.0000
# 6 0.0000 0.0000 0.0000 15.0398 0.0000 20.7944
#
#
#
# Elastic Compliance Matrix: (Units=1/GPa)
#
#
# Indices 1 2 3 4 5 6 
#
# 1 0.019606 -0.001788 -0.002465 0.000000 -0.005752 0.000000
# 2 -0.001788 0.009441 -0.004143 0.000000 0.001110 0.000000
# 3 -0.002465 -0.004143 0.014069 0.000000 -0.010488 0.000000
# 4 0.000000 0.000000 0.000000 0.059983 0.000000 -0.043384
# 5 -0.005752 0.001110 -0.010488 0.000000 0.044930 0.000000
# 6 0.000000 0.000000 0.000000 -0.043384 0.000000 0.079468
#
#
# Mechanical properties :
#
#
# Convention : Reuss Voigt Hill
#
# Bulk Modulus (GPa) = 37.99063 55.84187 46.91625
# Shear Modulus (GPa) = 19.75784 29.30893 24.53338
#
# Velocity S-wave (km/s) = 2.87111 3.49688 3.19933
# Velocity P-wave (km/s) = 5.18087 6.29304 5.76384
#
# Compressibility (1/GPa) = 0.02632228
#
# Stress axis : x y z
#
# Youngs Moduli (GPa) = 51.00458 105.92535 71.07856
#
# Poissons Ratio (x) = 0.18944 0.17522
# Poissons Ratio (y) = 0.09122 0.29449
# Poissons Ratio (z) = 0.12573 0.43886
#
# Static dielectric constant tensor:
#      x y z
#    x 1.958370 0.000000 -0.014790 
#    y 0.000000 1.948420 0.000000 
#    z -0.014790 0.000000 1.984020 
# 
# From -- ./inp_files/23882.got.cif
#   From: 2010.05.17/outbox.cif.g08.bks.cpg/sg15_12_cif.got.tgz:23882.got - 2010.06.03 18:47:42.
