data_PCOD9263500
_publ_section_title
;
Structure prediction by ZEFSAII (Michael W. Deem and Ramdas Pophale) SiO2 
 PCOD9263500
Probable space group: C 2/C
;
_chemical_formula_sum "Si O2"
_cell_formula_units_Z 64
_cell_length_a 8.688930
_cell_length_b 27.725809
_cell_length_c 15.763233
_cell_angle_alpha 90.000000
_cell_angle_beta 57.068601
_cell_angle_gamma 90.000000
_cell_volume 3187.311163
_symmetry_space_group_name_H-M "C 2/C"
_symmetry_group_IT_number 15
_symmetry_cell_setting 'monoclinic'
loop_
_space_group_symop_operation_xyz
x,y,z
-x,y,1/2-z
-x,-y,-z
x,-y,1/2+z
1/2+x,1/2+y,z
1/2-x,1/2+y,1/2-z
1/2-x,1/2-y,-z
1/2+x,1/2-y,1/2+z
loop_
_atom_site_type_symbol
_atom_site_label
_atom_site_fract_x
_atom_site_fract_y
_atom_site_fract_z
Si Si1 0.051840 0.031973 0.142033
Si Si2 0.791940 0.552378 0.346975
Si Si3 0.146588 0.388398 0.994053
Si Si4 0.411579 0.803017 0.369110
Si Si5 0.347202 0.040729 0.530630
Si Si6 0.011210 0.239836 0.999840
Si Si7 0.237080 0.159300 0.358273
Si Si8 0.418283 0.819165 0.640535
O O1 0.195189 0.070656 0.057050
O O2 0.000000 0.051781 0.250000
O O3 0.868166 0.019412 0.144304
O O4 0.165105 0.982584 0.123175
O O5 0.807614 0.547638 0.442994
O O6 0.703661 0.603964 0.346278
O O7 0.000000 0.546412 0.250000
O O8 0.168140 0.350279 0.909566
O O9 0.137049 0.356118 0.080979
O O10 0.947151 0.412643 0.038742
O O11 0.500000 0.803463 0.250000
O O12 0.224212 0.772927 0.425026
O O13 0.524438 0.775124 0.409169
O O14 0.500000 0.000000 0.500000
O O15 0.981033 0.271933 0.925710
O O16 0.907486 0.190023 0.046037
O O17 0.419187 0.153319 0.360441
O O18 0.275262 0.187782 0.259410
#
# Coordination Sequence:
#
# PCOD9263500 Si02
#       8
#     8   8   8   8   8   8   8   8
#     4  11  23  38  63  93 119 151 200 245 305 371
#     4  12  21  38  62  88 121 155 197 249 300 363
#     4  10  20  40  61  85 119 161 194 251 305 355
#     4  10  21  38  57  83 119 162 206 246 299 356
#     4  10  21  40  60  85 117 152 192 245 304 360
#     4  10  21  34  55  84 121 160 203 250 293 349
#     4  11  19  33  57  88 115 158 203 243 299 355
#     4  10  19  34  57  84 122 157 198 247 297 348
#
# _framework density 20.079622000000001
#
# number of rings (size 3 to 8) (size 9 to 14) (size 15 to 20)
#    0.000    1.500    2.500    4.500    0.000    0.000 
#    0.000   10.625    0.000    0.000    0.000    0.000 
#    0.000    0.000    0.000    0.000    0.000    0.000 
#
# Total GULP energy -178298.540386 kJ/mol
# GULP energy per Si atom -5571.829387 kJ/mol
# Density = 2.003392 g / cm^3
# Si number density = 20.079622 Si / 1000 Ang^3
#
#
#
# Elastic Constant Matrix: (Units=GPa)
#
#
# Indices 1 2 3 4 5 6 
#
# 1 66.1689 6.8054 24.2504 0.0000 -3.6441 0.0000
# 2 6.8054 42.7652 31.3956 0.0000 -6.5942 0.0000
# 3 24.2504 31.3956 105.5706 0.0000 8.7439 0.0000
# 4 0.0000 0.0000 0.0000 29.2001 0.0000 -3.6180
# 5 -3.6441 -6.5942 8.7439 0.0000 29.3890 0.0000
# 6 0.0000 0.0000 0.0000 -3.6180 0.0000 27.8814
#
#
#
# Elastic Compliance Matrix: (Units=1/GPa)
#
#
# Indices 1 2 3 4 5 6 
#
# 1 0.016857 0.001228 -0.004545 0.000000 0.003718 0.000000
# 2 0.001228 0.032899 -0.010960 0.000000 0.010795 0.000000
# 3 -0.004545 -0.010960 0.014380 0.000000 -0.007301 0.000000
# 4 0.000000 0.000000 0.000000 0.034806 0.000000 0.004517
# 5 0.003718 0.010795 -0.007301 0.000000 0.039082 0.000000
# 6 0.000000 0.000000 0.000000 0.004517 0.000000 0.036452
#
#
# Mechanical properties :
#
#
# Convention : Reuss Voigt Hill
#
# Bulk Modulus (GPa) = 28.10461 37.71195 32.90828
# Shear Modulus (GPa) = 23.26757 27.43099 25.34928
#
# Velocity S-wave (km/s) = 3.40776 3.70010 3.55693
# Velocity P-wave (km/s) = 5.43238 6.08903 5.77005
#
# Compressibility (1/GPa) = 0.03558135
#
# Stress axis : x y z
#
# Youngs Moduli (GPa) = 59.32210 30.39646 69.53897
#
# Poissons Ratio (x) = -0.03731 0.31607
# Poissons Ratio (y) = -0.07282 0.76213
# Poissons Ratio (z) = 0.26963 0.33314
#
# Static dielectric constant tensor:
#      x y z
#    x 1.755000 0.000000 -0.008920 
#    y 0.000000 1.751860 0.000000 
#    z -0.008920 0.000000 1.721990 
# 
# From -- ./inp_files/139805.got.cif
#   From: 2010.05.17/outbox.cif.g08.bks.cpg/sg15_70_cif.got.tgz:139805.got - 2010.06.03 18:47:42.
