data_PCOD9263106
_publ_section_title
;
Structure prediction by ZEFSAII (Michael W. Deem and Ramdas Pophale) SiO2 
 PCOD9263106
Probable space group: C 2/C
;
_chemical_formula_sum "Si O2"
_cell_formula_units_Z 44
_cell_length_a 25.478420
_cell_length_b 17.144355
_cell_length_c 5.846374
_cell_angle_alpha 90.000000
_cell_angle_beta 109.738947
_cell_angle_gamma 90.000000
_cell_volume 2403.704961
_symmetry_space_group_name_H-M "C 2/C"
_symmetry_group_IT_number 15
_symmetry_cell_setting 'monoclinic'
loop_
_space_group_symop_operation_xyz
x,y,z
-x,y,1/2-z
-x,-y,-z
x,-y,1/2+z
1/2+x,1/2+y,z
1/2-x,1/2+y,1/2-z
1/2-x,1/2-y,-z
1/2+x,1/2-y,1/2+z
loop_
_atom_site_type_symbol
_atom_site_label
_atom_site_fract_x
_atom_site_fract_y
_atom_site_fract_z
Si Si1 0.285886 0.314153 0.424189
Si Si2 0.392193 0.314702 0.323067
Si Si3 0.655784 0.428645 0.628889
Si Si4 0.000000 0.809270 0.250000
Si Si5 0.948672 0.921690 0.790693
Si Si6 0.234912 0.471846 0.246501
O O1 0.250000 0.250000 0.500000
O O2 0.335621 0.277359 0.343395
O O3 0.316660 0.366395 0.659624
O O4 0.246300 0.378837 0.242579
O O5 0.474950 0.364827 0.018083
O O6 0.421244 0.363580 0.567166
O O7 0.367101 0.376702 0.109288
O O8 0.602077 0.467410 0.670245
O O9 0.703851 0.488633 0.640382
O O10 0.944118 0.769657 0.276838
O O11 0.000000 0.966632 0.750000
O O12 0.210499 0.494536 0.466681
#
# Coordination Sequence:
#
# PCOD9263106 Si02
#       6
#     8   8   8   4   8   8
#     4  10  20  31  46  68  93 123 161 204 243 286
#     4   9  15  28  43  64  88 119 161 195 240 275
#     4   9  17  29  47  63  91 126 161 197 239 283
#     4   8  14  24  44  64  84 118 152 200 236 274
#     4   8  14  24  43  65  87 115 158 200 235 266
#     4  10  19  34  50  67  90 128 162 198 243 291
#
# _framework density 18.305077000000001
#
# number of rings (size 3 to 8) (size 9 to 14) (size 15 to 20)
#    0.000    2.909    1.818    0.000    0.000    0.727 
#    0.000    0.000    2.000    5.455    0.000    0.000 
#    0.000    0.000    0.000    6.545    0.727   73.818 
#
# Total GULP energy -122474.305591 kJ/mol
# GULP energy per Si atom -5567.013890 kJ/mol
# Density = 1.826341 g / cm^3
# Si number density = 18.305077 Si / 1000 Ang^3
#
#
#
# Elastic Constant Matrix: (Units=GPa)
#
#
# Indices 1 2 3 4 5 6 
#
# 1 103.9224 36.0275 3.8480 0.0000 -33.3188 0.0000
# 2 36.0275 35.1731 -6.8807 0.0000 -12.3196 0.0000
# 3 3.8480 -6.8807 79.6026 0.0000 -12.5217 0.0000
# 4 0.0000 0.0000 0.0000 9.6116 0.0000 -9.9966
# 5 -33.3188 -12.3196 -12.5217 0.0000 24.4958 0.0000
# 6 0.0000 0.0000 0.0000 -9.9966 0.0000 21.5736
#
#
#
# Elastic Compliance Matrix: (Units=1/GPa)
#
#
# Indices 1 2 3 4 5 6 
#
# 1 0.021980 -0.013960 0.001446 0.000000 0.023615 0.000000
# 2 -0.013960 0.046453 0.005849 0.000000 0.007365 0.000000
# 3 0.001446 0.005849 0.014974 0.000000 0.012562 0.000000
# 4 0.000000 0.000000 0.000000 0.200827 0.000000 0.093058
# 5 0.023615 0.007365 0.012562 0.000000 0.083069 0.000000
# 6 0.000000 0.000000 0.000000 0.093058 0.000000 0.089474
#
#
# Mechanical properties :
#
#
# Convention : Reuss Voigt Hill
#
# Bulk Modulus (GPa) = 14.27018 31.63194 22.95106
# Shear Modulus (GPa) = 10.13241 23.51642 16.82442
#
# Velocity S-wave (km/s) = 2.35527 3.58815 3.03498
# Velocity P-wave (km/s) = 3.89988 5.87234 4.98465
#
# Compressibility (1/GPa) = 0.07007622
#
# Stress axis : x y z
#
# Youngs Moduli (GPa) = 45.49673 21.52703 66.78178
#
# Poissons Ratio (x) = 0.30051 -0.09653
# Poissons Ratio (y) = 0.63511 -0.39058
# Poissons Ratio (z) = -0.06577 -0.12590
#
# Static dielectric constant tensor:
#      x y z
#    x 1.730390 0.000000 -0.078240 
#    y 0.000000 1.580080 0.000000 
#    z -0.078240 0.000000 1.766690 
# 
# From -- ./inp_files/15502.got.cif
#   From: 2010.05.17/outbox.cif.g08.bks.cpg/sg15_8_cif.got.tgz:15502.got - 2010.06.03 18:47:42.
