data_PCOD9263820
_publ_section_title
;
Structure prediction by ZEFSAII (Michael W. Deem and Ramdas Pophale) SiO2 
 PCOD9263820
Probable space group: C 2/C
;
_chemical_formula_sum "Si O2"
_cell_formula_units_Z 40
_cell_length_a 22.846396
_cell_length_b 8.674248
_cell_length_c 10.757933
_cell_angle_alpha 90.000000
_cell_angle_beta 42.777811
_cell_angle_gamma 90.000000
_cell_volume 1447.933499
_symmetry_space_group_name_H-M "C 2/C"
_symmetry_group_IT_number 15
_symmetry_cell_setting 'monoclinic'
loop_
_space_group_symop_operation_xyz
x,y,z
-x,y,1/2-z
-x,-y,-z
x,-y,1/2+z
1/2+x,1/2+y,z
1/2-x,1/2+y,1/2-z
1/2-x,1/2-y,-z
1/2+x,1/2-y,1/2+z
loop_
_atom_site_type_symbol
_atom_site_label
_atom_site_fract_x
_atom_site_fract_y
_atom_site_fract_z
Si Si1 0.426477 0.182787 0.790277
Si Si2 0.096647 0.250628 0.647691
Si Si3 0.193322 0.049631 0.067512
Si Si4 0.254492 0.384092 0.273594
Si Si5 0.591304 0.143461 0.421084
O O1 0.500000 0.285334 0.750000
O O2 0.485905 0.149686 0.578892
O O3 0.342358 0.283110 0.145701
O O4 0.408530 0.069158 0.937076
O O5 0.118882 0.078372 0.662622
O O6 0.172474 0.280036 0.431175
O O7 0.111650 0.364962 0.742583
O O8 0.000000 0.256713 0.750000
O O9 0.234739 0.006518 0.132926
O O10 0.252380 0.042029 0.851718
O O11 0.152914 0.218641 0.129834
#
# Coordination Sequence:
#
# PCOD9263820 Si02
#       5
#     8   8   8   8   8
#     4   7  14  26  51  85 110 130 171 223 275 324
#     4  11  22  33  56  84 113 144 188 225 272 332
#     4  10  19  34  61  81 116 144 179 228 289 319
#     4  10  21  36  54  84 113 145 186 231 273 331
#     4   7  15  30  51  77 115 133 170 219 285 314
#
# _framework density 27.625575999999999
#
# number of rings (size 3 to 8) (size 9 to 14) (size 15 to 20)
#    1.200    1.600    0.000    3.000    2.800    1.600 
#    0.000    2.000    8.800    0.000    0.000    0.000 
#    0.000    0.000    0.000    0.000    0.000    0.000 
#
# Total GULP energy -111411.630765 kJ/mol
# GULP energy per Si atom -5570.581538 kJ/mol
# Density = 2.756270 g / cm^3
# Si number density = 27.625576 Si / 1000 Ang^3
#
#
#
# Elastic Constant Matrix: (Units=GPa)
#
#
# Indices 1 2 3 4 5 6 
#
# 1 170.5751 31.0319 71.3270 0.0000 8.6854 0.0000
# 2 31.0319 58.0852 38.8911 0.0000 -8.0778 0.0000
# 3 71.3270 38.8911 166.4932 0.0000 33.7985 0.0000
# 4 0.0000 0.0000 0.0000 42.5111 0.0000 2.0648
# 5 8.6854 -8.0778 33.7985 0.0000 61.8029 0.0000
# 6 0.0000 0.0000 0.0000 2.0648 0.0000 49.4090
#
#
#
# Elastic Compliance Matrix: (Units=1/GPa)
#
#
# Indices 1 2 3 4 5 6 
#
# 1 0.007365 -0.002106 -0.002697 0.000000 0.000164 0.000000
# 2 -0.002106 0.023147 -0.005825 0.000000 0.006507 0.000000
# 3 -0.002697 -0.005825 0.009674 0.000000 -0.005673 0.000000
# 4 0.000000 0.000000 0.000000 0.023571 0.000000 -0.000985
# 5 0.000164 0.006507 -0.005673 0.000000 0.020110 0.000000
# 6 0.000000 0.000000 0.000000 -0.000985 0.000000 0.020280
#
#
# Mechanical properties :
#
#
# Convention : Reuss Voigt Hill
#
# Bulk Modulus (GPa) = 52.82934 75.29483 64.06209
# Shear Modulus (GPa) = 37.96117 47.67149 42.81633
#
# Velocity S-wave (km/s) = 3.71095 4.15858 3.94112
# Velocity P-wave (km/s) = 6.12588 7.09739 6.62946
#
# Compressibility (1/GPa) = 0.01892887
#
# Stress axis : x y z
#
# Youngs Moduli (GPa) = 135.77870 43.20252 103.37186
#
# Poissons Ratio (x) = 0.09100 0.27874
# Poissons Ratio (y) = 0.28600 0.60218
# Poissons Ratio (z) = 0.36613 0.25167
#
# Static dielectric constant tensor:
#      x y z
#    x 2.082240 0.000000 0.020350 
#    y 0.000000 2.325790 0.000000 
#    z 0.020350 0.000000 2.315840 
# 
# From -- ./inp_files/122770.got.cif
#   From: 2010.05.17/outbox.cif.g08.bks.cpg/sg15_62_cif.got.tgz:122770.got - 2010.06.03 18:47:42.
