data_PCOD9263793
_publ_section_title
;
Structure prediction by ZEFSAII (Michael W. Deem and Ramdas Pophale) SiO2 
 PCOD9263793
Probable space group: C 2/C
;
_chemical_formula_sum "Si O2"
_cell_formula_units_Z 60
_cell_length_a 10.842534
_cell_length_b 22.665443
_cell_length_c 14.500915
_cell_angle_alpha 90.000000
_cell_angle_beta 45.699797
_cell_angle_gamma 90.000000
_cell_volume 2550.442388
_symmetry_space_group_name_H-M "C 2/C"
_symmetry_group_IT_number 15
_symmetry_cell_setting 'monoclinic'
loop_
_space_group_symop_operation_xyz
x,y,z
-x,y,1/2-z
-x,-y,-z
x,-y,1/2+z
1/2+x,1/2+y,z
1/2-x,1/2+y,1/2-z
1/2-x,1/2-y,-z
1/2+x,1/2-y,1/2+z
loop_
_atom_site_type_symbol
_atom_site_label
_atom_site_fract_x
_atom_site_fract_y
_atom_site_fract_z
Si Si1 0.000000 0.945266 0.750000
Si Si2 0.866125 0.505135 0.984236
Si Si3 0.089295 0.389131 0.330852
Si Si4 0.367286 0.652379 0.177327
Si Si5 0.703669 0.880595 0.485942
Si Si6 0.028514 0.281703 0.879941
Si Si7 0.555647 0.766440 0.084785
Si Si8 0.957674 0.852170 0.114382
O O1 0.829041 0.979163 0.878724
O O2 0.922287 0.902609 0.710759
O O3 0.862708 0.441797 0.935892
O O4 0.000000 0.500000 0.000000
O O5 0.956444 0.558293 0.882382
O O6 0.134302 0.384517 0.417440
O O7 0.280992 0.387020 0.190943
O O8 0.996353 0.329281 0.350689
O O9 0.166889 0.668552 0.279912
O O10 0.441859 0.713070 0.180515
O O11 0.447416 0.648307 0.034062
O O12 0.646537 0.816286 0.554385
O O13 0.907845 0.882671 0.388307
O O14 0.070177 0.214423 0.829181
O O15 0.029638 0.272939 0.988986
O O16 0.750000 0.750000 0.000000
#
# Coordination Sequence:
#
# PCOD9263793 Si02
#       8
#     4   8   8   8   8   8   8   8
#     4  12  24  44  70  94 128 182 224 270 336 392
#     4  10  23  41  71  95 123 177 231 268 313 395
#     4  10  20  40  63  94 134 167 220 266 320 393
#     4  11  22  39  61  95 130 168 218 269 335 389
#     4  10  22  41  68  94 125 178 224 263 328 381
#     4  10  21  40  60  95 135 168 215 272 325 399
#     4  10  19  34  60  89 124 167 210 263 328 386
#     4  11  23  39  65 100 134 169 213 277 332 390
#
# _framework density 23.52533
#
# number of rings (size 3 to 8) (size 9 to 14) (size 15 to 20)
#    0.000    1.600    1.333    4.800    3.733    0.533 
#    2.400    2.667    5.867    0.000    0.000    0.000 
#    0.000    0.000    0.000    0.000    0.000    0.000 
#
# Total GULP energy -167458.131658 kJ/mol
# GULP energy per Si atom -5581.937722 kJ/mol
# Density = 2.347178 g / cm^3
# Si number density = 23.525330 Si / 1000 Ang^3
#
#
#
# Elastic Constant Matrix: (Units=GPa)
#
#
# Indices 1 2 3 4 5 6 
#
# 1 68.0685 35.1914 22.2133 0.0000 -20.2413 0.0000
# 2 35.1914 120.1573 26.6614 0.0000 -17.1289 0.0000
# 3 22.2133 26.6614 86.0353 0.0000 -23.7462 0.0000
# 4 0.0000 0.0000 0.0000 3.1692 0.0000 -32.1521
# 5 -20.2413 -17.1289 -23.7462 0.0000 36.2778 0.0000
# 6 0.0000 0.0000 0.0000 -32.1521 0.0000 15.7957
#
#
#
# Elastic Compliance Matrix: (Units=1/GPa)
#
#
# Indices 1 2 3 4 5 6 
#
# 1 0.019810 -0.004314 -0.001574 0.000000 0.007986 0.000000
# 2 -0.004314 0.010141 -0.001674 0.000000 0.001285 0.000000
# 3 -0.001574 -0.001674 0.014753 0.000000 0.007988 0.000000
# 4 0.000000 0.000000 0.000000 -0.016058 0.000000 -0.032685
# 5 0.007986 0.001285 0.007988 0.000000 0.037857 0.000000
# 6 0.000000 0.000000 0.000000 -0.032685 0.000000 -0.003222
#
#
# Mechanical properties :
#
#
# Convention : Reuss Voigt Hill
#
# Bulk Modulus (GPa) = 33.80663 49.15482 41.48073
# Shear Modulus (GPa) = 56.64818 23.72822 40.18820
#
# Velocity S-wave (km/s) = 4.91243 3.17933 4.13764
# Velocity P-wave (km/s) = 6.82476 5.86663 6.36375
#
# Compressibility (1/GPa) = 0.02957999
#
# Stress axis : x y z
#
# Youngs Moduli (GPa) = 50.48003 98.61356 67.78294
#
# Poissons Ratio (x) = 0.42545 0.10666
# Poissons Ratio (y) = 0.21778 0.11346
# Poissons Ratio (z) = 0.07943 0.16506
#
# Static dielectric constant tensor:
#      x y z
#    x 1.986100 0.000000 -0.131690 
#    y 0.000000 1.971090 0.000000 
#    z -0.131690 0.000000 2.293990 
# 
# From -- ./inp_files/200491.got.cif
#   From: 2010.05.17/outbox.cif.g08.bks.cpg/sg15_101_cif.got.tgz:200491.got - 2010.06.03 18:47:42.
