data_PCOD9263822
_publ_section_title
;
Structure prediction by ZEFSAII (Michael W. Deem and Ramdas Pophale) SiO2 
 PCOD9263822
Probable space group: C 2/C
;
_chemical_formula_sum "Si O2"
_cell_formula_units_Z 40
_cell_length_a 22.314459
_cell_length_b 15.642588
_cell_length_c 12.227031
_cell_angle_alpha 90.000000
_cell_angle_beta 26.824128
_cell_angle_gamma 90.000000
_cell_volume 1925.912050
_symmetry_space_group_name_H-M "C 2/C"
_symmetry_group_IT_number 15
_symmetry_cell_setting 'monoclinic'
loop_
_space_group_symop_operation_xyz
x,y,z
-x,y,1/2-z
-x,-y,-z
x,-y,1/2+z
1/2+x,1/2+y,z
1/2-x,1/2+y,1/2-z
1/2-x,1/2-y,-z
1/2+x,1/2-y,1/2+z
loop_
_atom_site_type_symbol
_atom_site_label
_atom_site_fract_x
_atom_site_fract_y
_atom_site_fract_z
Si Si1 0.546838 0.818159 0.505157
Si Si2 0.188574 0.605415 0.987721
Si Si3 0.495881 0.625267 0.550259
Si Si4 0.912148 0.036874 0.304591
Si Si5 0.126013 0.541616 0.735665
O O1 0.396274 0.845015 0.781350
O O2 0.634081 0.860528 0.460827
O O3 0.544635 0.716332 0.510996
O O4 0.597327 0.858624 0.308269
O O5 0.150759 0.506295 0.079229
O O6 0.344298 0.623571 0.750044
O O7 0.590413 0.592797 0.300133
O O8 0.489775 0.549954 0.648819
O O9 0.761410 0.018875 0.579881
O O10 0.000000 0.084103 0.250000
O O11 0.000000 0.500000 0.000000
#
# Coordination Sequence:
#
# PCOD9263822 Si02
#       5
#     8   8   8   8   8
#     4  10  19  34  61  83 112 148 196 236 284 345
#     4   9  19  35  58  82 116 146 191 237 289 341
#     4  10  21  36  56  89 111 150 194 242 280 345
#     4  10  21  37  60  81 120 152 191 235 296 341
#     4   9  19  37  57  82 115 153 184 237 287 347
#
# _framework density 20.769380999999999
#
# number of rings (size 3 to 8) (size 9 to 14) (size 15 to 20)
#    0.000    2.400    0.000    1.800    2.800    0.800 
#    0.000    0.000   13.200    0.000    0.000    0.000 
#    0.000    0.000    0.000    0.000    0.000    0.000 
#
# Total GULP energy -111355.198134 kJ/mol
# GULP energy per Si atom -5567.759907 kJ/mol
# Density = 2.072211 g / cm^3
# Si number density = 20.769381 Si / 1000 Ang^3
#
#
#
# Elastic Constant Matrix: (Units=GPa)
#
#
# Indices 1 2 3 4 5 6 
#
# 1 52.6254 16.7029 40.7975 0.0000 -0.7004 0.0000
# 2 16.7029 96.6530 7.1997 0.0000 30.7337 0.0000
# 3 40.7975 7.1997 73.5108 0.0000 -4.2429 0.0000
# 4 0.0000 0.0000 0.0000 0.7386 0.0000 -19.1998
# 5 -0.7004 30.7337 -4.2429 0.0000 22.5229 0.0000
# 6 0.0000 0.0000 0.0000 -19.1998 0.0000 -5.4010
#
#
#
# Elastic Compliance Matrix: (Units=1/GPa)
#
#
# Indices 1 2 3 4 5 6 
#
# 1 0.035973 -0.007136 -0.018844 0.000000 0.007307 0.000000
# 2 -0.007136 0.020502 0.000329 0.000000 -0.028136 0.000000
# 3 -0.018844 0.000329 0.024233 0.000000 0.003531 0.000000
# 4 0.000000 0.000000 0.000000 0.014494 0.000000 -0.051526
# 5 0.007307 -0.028136 0.003531 0.000000 0.083684 0.000000
# 6 0.000000 0.000000 0.000000 -0.051526 0.000000 -0.001982
#
#
# Mechanical properties :
#
#
# Convention : Reuss Voigt Hill
#
# Bulk Modulus (GPa) = 34.00812 39.13216 36.57014
# Shear Modulus (GPa) = 21.00766 14.11138 17.55952
#
# Velocity S-wave (km/s) = 3.18382 2.60942 2.91082
# Velocity P-wave (km/s) = 5.47040 5.28781 5.37988
#
# Compressibility (1/GPa) = 0.02940474
#
# Stress axis : x y z
#
# Youngs Moduli (GPa) = 27.79864 48.77675 41.26594
#
# Poissons Ratio (x) = 0.34809 0.77761
# Poissons Ratio (y) = 0.19838 -0.01356
# Poissons Ratio (z) = 0.52383 -0.01603
#
# Static dielectric constant tensor:
#      x y z
#    x 1.800590 0.000000 0.030420 
#    y 0.000000 1.769760 0.000000 
#    z 0.030420 0.000000 1.757370 
# 
# From -- ./inp_files/142793.got.cif
#   From: 2010.05.17/outbox.cif.g08.bks.cpg/sg15_72_cif.got.tgz:142793.got - 2010.06.03 18:47:42.
