data_PCOD9263947
_publ_section_title
;
Structure prediction by ZEFSAII (Michael W. Deem and Ramdas Pophale) SiO2 
 PCOD9263947
Probable space group: C 2/C
;
_chemical_formula_sum "Si O2"
_cell_formula_units_Z 56
_cell_length_a 16.137360
_cell_length_b 11.032962
_cell_length_c 16.850349
_cell_angle_alpha 90.000000
_cell_angle_beta 115.318427
_cell_angle_gamma 90.000000
_cell_volume 2711.911706
_symmetry_space_group_name_H-M "C 2/C"
_symmetry_group_IT_number 15
_symmetry_cell_setting 'monoclinic'
loop_
_space_group_symop_operation_xyz
x,y,z
-x,y,1/2-z
-x,-y,-z
x,-y,1/2+z
1/2+x,1/2+y,z
1/2-x,1/2+y,1/2-z
1/2-x,1/2-y,-z
1/2+x,1/2-y,1/2+z
loop_
_atom_site_type_symbol
_atom_site_label
_atom_site_fract_x
_atom_site_fract_y
_atom_site_fract_z
Si Si1 0.996812 0.724191 0.576822
Si Si2 0.996867 0.008601 0.403428
Si Si3 0.821556 0.300109 0.244507
Si Si4 0.278134 0.110692 0.084730
Si Si5 0.284210 0.466267 0.771687
Si Si6 0.406289 0.270399 0.047949
Si Si7 0.813462 0.642401 0.556670
O O1 0.084079 0.696988 0.667512
O O2 0.028688 0.729931 0.498068
O O3 0.910182 0.639185 0.551700
O O4 0.964159 0.857394 0.594815
O O5 0.050263 0.890971 0.395462
O O6 0.891157 0.010077 0.334629
O O7 0.000000 0.000000 0.500000
O O8 0.757788 0.400727 0.262904
O O9 0.784442 0.160903 0.224034
O O10 0.833325 0.338012 0.158079
O O11 0.271063 0.075399 0.172931
O O12 0.372948 0.172245 0.097653
O O13 0.265363 0.987500 0.029895
O O14 0.189615 0.193026 0.032908
O O15 0.750000 0.750000 0.500000
#
# Coordination Sequence:
#
# PCOD9263947 Si02
#       7
#     8   8   8   8   8   8   8
#     4  10  20  38  60  87 120 161 197 245 308 362
#     4   9  16  33  61  86 111 153 197 246 292 357
#     4  10  22  40  61  86 124 165 197 255 304 379
#     4  10  20  37  57  92 121 154 194 255 301 361
#     4  10  20  40  63  85 123 163 209 244 316 362
#     4  10  19  34  65  86 122 154 199 247 306 351
#     4  11  24  37  60  91 120 155 209 251 306 363
#
# _framework density 20.649640999999999
#
# number of rings (size 3 to 8) (size 9 to 14) (size 15 to 20)
#    0.000    2.000    4.286    1.286    6.000    1.714 
#    5.143    0.000    0.000    0.000    0.000    0.000 
#    0.000    0.000    0.000    0.000    0.000    0.000 
#
# Total GULP energy -156007.137500 kJ/mol
# GULP energy per Si atom -5571.683482 kJ/mol
# Density = 2.060264 g / cm^3
# Si number density = 20.649641 Si / 1000 Ang^3
#
#
#
# Elastic Constant Matrix: (Units=GPa)
#
#
# Indices 1 2 3 4 5 6 
#
# 1 84.6714 17.5168 -0.4739 0.0000 -8.4968 0.0000
# 2 17.5168 48.4468 -11.4390 0.0000 -1.2135 0.0000
# 3 -0.4739 -11.4390 9.0185 0.0000 3.8521 0.0000
# 4 0.0000 0.0000 0.0000 25.4724 0.0000 7.1039
# 5 -8.4968 -1.2135 3.8521 0.0000 13.4048 0.0000
# 6 0.0000 0.0000 0.0000 7.1039 0.0000 49.9450
#
#
#
# Elastic Compliance Matrix: (Units=1/GPa)
#
#
# Indices 1 2 3 4 5 6 
#
# 1 0.014883 -0.008853 -0.016112 0.000000 0.013262 0.000000
# 2 -0.008853 0.035763 0.052334 0.000000 -0.017413 0.000000
# 3 -0.016112 0.052334 0.203766 0.000000 -0.064030 0.000000
# 4 0.000000 0.000000 0.000000 0.040880 0.000000 -0.005815
# 5 0.013262 -0.017413 -0.064030 0.000000 0.099830 0.000000
# 6 0.000000 0.000000 0.000000 -0.005815 0.000000 0.020849
#
#
# Mechanical properties :
#
#
# Convention : Reuss Voigt Hill
#
# Bulk Modulus (GPa) = 3.23469 17.03826 10.13648
# Shear Modulus (GPa) = 10.76933 26.86662 18.81798
#
# Velocity S-wave (km/s) = 2.28617 3.61095 3.02205
# Velocity P-wave (km/s) = 2.92210 5.06501 4.13479
#
# Compressibility (1/GPa) = 0.30914857
#
# Stress axis : x y z
#
# Youngs Moduli (GPa) = 67.19278 27.96208 4.90760
#
# Poissons Ratio (x) = 0.24755 0.07907
# Poissons Ratio (y) = 0.59486 -0.25683
# Poissons Ratio (z) = 1.08259 -1.46336
#
# Static dielectric constant tensor:
#      x y z
#    x 1.720050 0.000000 -0.011790 
#    y 0.000000 2.065890 0.000000 
#    z -0.011790 0.000000 1.702600 
# 
# From -- ./inp_files/204549.got.cif
#   From: 2010.05.17/outbox.cif.g08.bks.cpg/sg15_103_cif.got.tgz:204549.got - 2010.06.03 18:47:42.
