data_PCOD9263141
_publ_section_title
;
Structure prediction by ZEFSAII (Michael W. Deem and Ramdas Pophale) SiO2 
 PCOD9263141
Probable space group: C 2/C
;
_chemical_formula_sum "Si O2"
_cell_formula_units_Z 48
_cell_length_a 10.976948
_cell_length_b 7.903647
_cell_length_c 28.669371
_cell_angle_alpha 90.000000
_cell_angle_beta 82.445241
_cell_angle_gamma 90.000000
_cell_volume 2465.704494
_symmetry_space_group_name_H-M "C 2/C"
_symmetry_group_IT_number 15
_symmetry_cell_setting 'monoclinic'
loop_
_space_group_symop_operation_xyz
x,y,z
-x,y,1/2-z
-x,-y,-z
x,-y,1/2+z
1/2+x,1/2+y,z
1/2-x,1/2+y,1/2-z
1/2-x,1/2-y,-z
1/2+x,1/2-y,1/2+z
loop_
_atom_site_type_symbol
_atom_site_label
_atom_site_fract_x
_atom_site_fract_y
_atom_site_fract_z
Si Si1 0.122902 0.405240 0.939892
Si Si2 0.941223 0.227193 0.022131
Si Si3 0.477489 0.246110 0.363216
Si Si4 0.623680 0.912499 0.719734
Si Si5 0.107870 0.060320 0.774317
Si Si6 0.374794 0.489323 0.443184
O O1 0.108561 0.605840 0.950561
O O2 0.069495 0.352193 0.892892
O O3 0.267143 0.379089 0.938479
O O4 0.046912 0.300070 0.982087
O O5 0.855569 0.117028 0.992006
O O6 0.001139 0.095117 0.054726
O O7 0.405987 0.116501 0.333172
O O8 0.550341 0.373919 0.325635
O O9 0.390062 0.357065 0.400628
O O10 0.500000 0.991865 0.750000
O O11 0.629684 0.726188 0.741903
O O12 0.757326 0.986979 0.723295
O O13 0.000000 0.963676 0.750000
#
# Coordination Sequence:
#
# PCOD9263141 Si02
#       6
#     8   8   8   8   8   8
#     4  10  19  34  52  74 106 140 177 220 262 307
#     4   9  20  34  51  74 100 142 185 214 258 311
#     4   9  21  34  51  82 110 132 171 222 265 313
#     4   9  20  39  58  79 108 139 173 216 266 322
#     4   9  20  39  58  79 108 139 173 216 266 322
#     4  10  19  34  52  74 106 140 177 220 262 307
#
# _framework density 19.467051999999999
#
# number of rings (size 3 to 8) (size 9 to 14) (size 15 to 20)
#    0.000    3.000    0.000    1.000    0.000    8.667 
#    0.000    3.333    0.000    0.000    0.000    0.000 
#    0.000    0.000    0.000    0.000    0.000    0.000 
#
# Total GULP energy -133667.323311 kJ/mol
# GULP energy per Si atom -5569.471805 kJ/mol
# Density = 1.942274 g / cm^3
# Si number density = 19.467052 Si / 1000 Ang^3
#
#
#
# Elastic Constant Matrix: (Units=GPa)
#
#
# Indices 1 2 3 4 5 6 
#
# 1 147.0926 16.4033 47.1296 0.0000 22.6040 0.0000
# 2 16.4033 33.0796 8.2024 0.0000 8.0510 0.0000
# 3 47.1296 8.2024 94.3611 0.0000 24.7249 0.0000
# 4 0.0000 0.0000 0.0000 9.1023 0.0000 7.1144
# 5 22.6040 8.0510 24.7249 0.0000 16.3903 0.0000
# 6 0.0000 0.0000 0.0000 7.1144 0.0000 36.5524
#
#
#
# Elastic Compliance Matrix: (Units=1/GPa)
#
#
# Indices 1 2 3 4 5 6 
#
# 1 0.008960 -0.001925 -0.002179 0.000000 -0.008123 0.000000
# 2 -0.001925 0.035073 0.002863 0.000000 -0.018891 0.000000
# 3 -0.002179 0.002863 0.018220 0.000000 -0.025886 0.000000
# 4 0.000000 0.000000 0.000000 0.129574 0.000000 -0.025220
# 5 -0.008123 -0.018891 -0.025886 0.000000 0.120543 0.000000
# 6 0.000000 0.000000 0.000000 -0.025220 0.000000 0.032267
#
#
# Mechanical properties :
#
#
# Convention : Reuss Voigt Hill
#
# Bulk Modulus (GPa) = 16.73106 46.44488 31.58797
# Shear Modulus (GPa) = 13.62239 25.92886 19.77562
#
# Velocity S-wave (km/s) = 2.64818 3.65353 3.19070
# Velocity P-wave (km/s) = 4.23836 6.45815 5.46221
#
# Compressibility (1/GPa) = 0.05976909
#
# Stress axis : x y z
#
# Youngs Moduli (GPa) = 111.61084 28.51211 54.88535
#
# Poissons Ratio (x) = 0.05490 0.11960
# Poissons Ratio (y) = 0.21490 -0.15713
# Poissons Ratio (z) = 0.24321 -0.08163
#
# Static dielectric constant tensor:
#      x y z
#    x 1.741330 0.000000 -0.002020 
#    y 0.000000 1.683300 0.000000 
#    z -0.002020 0.000000 1.685760 
# 
# From -- ./inp_files/263163.got.cif
#   From: 2010.05.17/outbox.cif.g08.bks.cpg/sg15_132_cif.got.tgz:263163.got - 2010.06.03 18:47:42.
