data_PCOD9263126
_publ_section_title
;
Structure prediction by ZEFSAII (Michael W. Deem and Ramdas Pophale) SiO2 
 PCOD9263126
Probable space group: C 2/C
;
_chemical_formula_sum "Si O2"
_cell_formula_units_Z 48
_cell_length_a 8.466864
_cell_length_b 10.848826
_cell_length_c 23.956758
_cell_angle_alpha 90.000000
_cell_angle_beta 100.214737
_cell_angle_gamma 90.000000
_cell_volume 2165.681978
_symmetry_space_group_name_H-M "C 2/C"
_symmetry_group_IT_number 15
_symmetry_cell_setting 'monoclinic'
loop_
_space_group_symop_operation_xyz
x,y,z
-x,y,1/2-z
-x,-y,-z
x,-y,1/2+z
1/2+x,1/2+y,z
1/2-x,1/2+y,1/2-z
1/2-x,1/2-y,-z
1/2+x,1/2-y,1/2+z
loop_
_atom_site_type_symbol
_atom_site_label
_atom_site_fract_x
_atom_site_fract_y
_atom_site_fract_z
Si Si1 0.478024 0.278538 0.968767
Si Si2 0.819158 0.383960 0.715314
Si Si3 0.498524 0.955094 0.622017
Si Si4 0.269919 0.814926 0.928152
Si Si5 0.154742 0.621369 0.720778
Si Si6 0.717201 0.055498 0.496964
O O1 0.587992 0.267357 0.920352
O O2 0.372276 0.398848 0.972860
O O3 0.609095 0.266809 0.027182
O O4 0.352707 0.168456 0.971149
O O5 0.852708 0.413816 0.652751
O O6 0.736777 0.252994 0.718709
O O7 0.000000 0.372204 0.750000
O O8 0.752056 0.506667 0.742583
O O9 0.632789 0.847760 0.621338
O O10 0.418037 0.978258 0.557083
O O11 0.591466 0.064158 0.658805
O O12 0.251103 0.944042 0.959868
O O13 0.000000 0.641514 0.750000
#
# Coordination Sequence:
#
# PCOD9263126 Si02
#       6
#     8   8   8   8   8   8
#     4   9  19  32  50  72 106 152 189 220 257 310
#     4   9  20  40  59  81 110 141 181 232 287 343
#     4   9  19  34  55  82 111 144 184 233 277 329
#     4  10  19  34  51  77 114 150 186 224 266 316
#     4   9  20  40  61  82 111 143 182 234 290 343
#     4  10  19  34  52  77 112 151 187 222 267 317
#
# _framework density 22.163917999999999
#
# number of rings (size 3 to 8) (size 9 to 14) (size 15 to 20)
#    0.000    3.000    0.000    2.500    0.000    6.000 
#    0.000   33.333    0.000    0.000    0.000    0.000 
#    0.000    0.000    0.000    0.000    0.000    0.000 
#
# Total GULP energy -133853.293688 kJ/mol
# GULP energy per Si atom -5577.220570 kJ/mol
# Density = 2.211347 g / cm^3
# Si number density = 22.163918 Si / 1000 Ang^3
#
#
#
# Elastic Constant Matrix: (Units=GPa)
#
#
# Indices 1 2 3 4 5 6 
#
# 1 78.1953 34.3357 -1.7743 0.0000 -6.9543 0.0000
# 2 34.3357 137.6313 23.1791 0.0000 -8.8731 0.0000
# 3 -1.7743 23.1791 54.6300 0.0000 -14.2655 0.0000
# 4 0.0000 0.0000 0.0000 8.7166 0.0000 1.3864
# 5 -6.9543 -8.8731 -14.2655 0.0000 12.9668 0.0000
# 6 0.0000 0.0000 0.0000 1.3864 0.0000 54.9671
#
#
#
# Elastic Compliance Matrix: (Units=1/GPa)
#
#
# Indices 1 2 3 4 5 6 
#
# 1 0.015700 -0.004060 0.005199 0.000000 0.011362 0.000000
# 2 -0.004060 0.008928 -0.004059 0.000000 -0.000534 0.000000
# 3 0.005199 -0.004059 0.028341 0.000000 0.031190 0.000000
# 4 0.000000 0.000000 0.000000 0.115185 0.000000 -0.002905
# 5 0.011362 -0.000534 0.031190 0.000000 0.117161 0.000000
# 6 0.000000 0.000000 0.000000 -0.002905 0.000000 0.018266
#
#
# Mechanical properties :
#
#
# Convention : Reuss Voigt Hill
#
# Bulk Modulus (GPa) = 21.21854 42.43753 31.82803
# Shear Modulus (GPa) = 15.37847 29.64450 22.51149
#
# Velocity S-wave (km/s) = 2.63696 3.66117 3.19043
# Velocity P-wave (km/s) = 4.34346 6.08777 5.28803
#
# Compressibility (1/GPa) = 0.04712860
#
# Stress axis : x y z
#
# Youngs Moduli (GPa) = 63.69581 112.00912 35.28498
#
# Poissons Ratio (x) = 0.45474 -0.18346
# Poissons Ratio (y) = 0.25859 0.14323
# Poissons Ratio (z) = -0.33118 0.45468
#
# Static dielectric constant tensor:
#      x y z
#    x 1.872070 0.000000 -0.049070 
#    y 0.000000 1.895720 0.000000 
#    z -0.049070 0.000000 1.889210 
# 
# From -- ./inp_files/287386.got.cif
#   From: 2010.05.17/outbox.cif.g08.bks.cpg/sg15_144_cif.got.tgz:287386.got - 2010.06.03 18:47:42.
