data_PCOD9263393
_publ_section_title
;
Structure prediction by ZEFSAII (Michael W. Deem and Ramdas Pophale) SiO2 
 PCOD9263393
Probable space group: C 2/C
;
_chemical_formula_sum "Si O2"
_cell_formula_units_Z 64
_cell_length_a 5.545085
_cell_length_b 22.181160
_cell_length_c 26.330096
_cell_angle_alpha 90.000000
_cell_angle_beta 76.163579
_cell_angle_gamma 90.000000
_cell_volume 3144.533950
_symmetry_space_group_name_H-M "C 2/C"
_symmetry_group_IT_number 15
_symmetry_cell_setting 'monoclinic'
loop_
_space_group_symop_operation_xyz
x,y,z
-x,y,1/2-z
-x,-y,-z
x,-y,1/2+z
1/2+x,1/2+y,z
1/2-x,1/2+y,1/2-z
1/2-x,1/2-y,-z
1/2+x,1/2-y,1/2+z
loop_
_atom_site_type_symbol
_atom_site_label
_atom_site_fract_x
_atom_site_fract_y
_atom_site_fract_z
Si Si1 0.935972 0.077837 0.947218
Si Si2 0.643404 0.647165 0.398095
Si Si3 0.720981 0.670011 0.276424
Si Si4 0.517149 0.684936 0.884531
Si Si5 0.267967 0.306191 0.235548
Si Si6 0.044371 0.269533 0.065386
Si Si7 0.947292 0.656293 0.473660
Si Si8 0.674380 0.449629 0.536608
O O1 0.800235 0.130697 0.985803
O O2 0.010385 0.112177 0.892605
O O3 0.137329 0.053358 0.977400
O O4 0.779109 0.017207 0.947256
O O5 0.668721 0.652558 0.336987
O O6 0.448866 0.698234 0.425344
O O7 0.558570 0.581665 0.422383
O O8 0.880765 0.669331 0.418886
O O9 0.500000 0.648911 0.250000
O O10 0.729919 0.742874 0.267740
O O11 0.000000 0.648439 0.250000
O O12 0.644232 0.705796 0.826079
O O13 0.228395 0.707431 0.900150
O O14 0.717475 0.703627 0.917836
O O15 0.500000 0.338845 0.250000
O O16 0.000000 0.337077 0.250000
O O17 0.031169 0.291133 0.007560
O O18 0.111879 0.597209 0.463905
#
# Coordination Sequence:
#
# PCOD9263393 Si02
#       8
#     8   8   8   8   8   8   8   8
#     4   9  20  38  59  87 115 160 205 249 287 357
#     4  11  24  35  57  88 122 160 199 244 309 367
#     4  10  21  37  56  80 112 155 197 243 287 353
#     4  11  21  38  62  89 118 158 202 249 306 353
#     4  10  19  34  56  83 113 147 194 245 294 349
#     4  11  22  36  57  89 128 159 190 241 304 374
#     4  10  21  36  56  89 122 162 196 247 295 368
#     4  10  20  38  59  83 123 158 205 238 296 359
#
# _framework density 20.352778000000001
#
# number of rings (size 3 to 8) (size 9 to 14) (size 15 to 20)
#    0.000    1.750    1.250    4.500    3.500    0.500 
#    0.000    0.000    0.000    1.500    0.000    0.000 
#    0.000    0.000    0.000    0.000    0.000    0.000 
#
# Total GULP energy -178357.393549 kJ/mol
# GULP energy per Si atom -5573.668548 kJ/mol
# Density = 2.030645 g / cm^3
# Si number density = 20.352778 Si / 1000 Ang^3
#
#
#
# Elastic Constant Matrix: (Units=GPa)
#
#
# Indices 1 2 3 4 5 6 
#
# 1 129.8363 4.5607 37.1033 0.0000 6.6402 0.0000
# 2 4.5607 75.3711 15.6463 0.0000 0.7291 0.0000
# 3 37.1033 15.6463 129.0035 0.0000 10.1151 0.0000
# 4 0.0000 0.0000 0.0000 16.1017 0.0000 -2.5379
# 5 6.6402 0.7291 10.1151 0.0000 31.3244 0.0000
# 6 0.0000 0.0000 0.0000 -2.5379 0.0000 23.5961
#
#
#
# Elastic Compliance Matrix: (Units=1/GPa)
#
#
# Indices 1 2 3 4 5 6 
#
# 1 0.008424 -0.000014 -0.002340 0.000000 -0.001030 0.000000
# 2 -0.000014 0.013612 -0.001664 0.000000 0.000224 0.000000
# 3 -0.002340 -0.001664 0.008808 0.000000 -0.002309 0.000000
# 4 0.000000 0.000000 0.000000 0.063176 0.000000 0.006795
# 5 -0.001030 0.000224 -0.002309 0.000000 0.032883 0.000000
# 6 0.000000 0.000000 0.000000 0.006795 0.000000 0.043111
#
#
# Mechanical properties :
#
#
# Convention : Reuss Voigt Hill
#
# Bulk Modulus (GPa) = 43.84804 49.87018 46.85911
# Shear Modulus (GPa) = 26.93196 32.66449 29.79822
#
# Velocity S-wave (km/s) = 3.64161 4.01049 3.83049
# Velocity P-wave (km/s) = 6.26678 6.78243 6.52970
#
# Compressibility (1/GPa) = 0.02280604
#
# Stress axis : x y z
#
# Youngs Moduli (GPa) = 118.70874 73.46523 113.53551
#
# Poissons Ratio (x) = 0.00102 0.26572
# Poissons Ratio (y) = 0.00165 0.18898
# Poissons Ratio (z) = 0.27783 0.12228
#
# Static dielectric constant tensor:
#      x y z
#    x 1.874410 0.000000 -0.012840 
#    y 0.000000 1.790070 0.000000 
#    z -0.012840 0.000000 1.757280 
# 
# From -- ./inp_files/261683.got.cif
#   From: 2010.05.17/outbox.cif.g08.bks.cpg/sg15_131_cif.got.tgz:261683.got - 2010.06.03 18:47:42.
