data_PCOD9263879
_publ_section_title
;
Structure prediction by ZEFSAII (Michael W. Deem and Ramdas Pophale) SiO2 
 PCOD9263879
Probable space group: C 2/C
;
_chemical_formula_sum "Si O2"
_cell_formula_units_Z 48
_cell_length_a 25.185399
_cell_length_b 13.710832
_cell_length_c 19.889436
_cell_angle_alpha 90.000000
_cell_angle_beta 158.341917
_cell_angle_gamma 90.000000
_cell_volume 2534.779740
_symmetry_space_group_name_H-M "C 2/C"
_symmetry_group_IT_number 15
_symmetry_cell_setting 'monoclinic'
loop_
_space_group_symop_operation_xyz
x,y,z
-x,y,1/2-z
-x,-y,-z
x,-y,1/2+z
1/2+x,1/2+y,z
1/2-x,1/2+y,1/2-z
1/2-x,1/2-y,-z
1/2+x,1/2-y,1/2+z
loop_
_atom_site_type_symbol
_atom_site_label
_atom_site_fract_x
_atom_site_fract_y
_atom_site_fract_z
Si Si1 0.659357 0.451444 0.757047
Si Si2 0.916396 0.466233 0.334165
Si Si3 0.051052 0.742776 0.598952
Si Si4 0.355368 0.459647 0.920616
Si Si5 0.580152 0.925742 0.912242
Si Si6 0.226938 0.263407 0.172808
O O1 0.619251 0.337447 0.713776
O O2 0.679362 0.472006 0.700139
O O3 0.521669 0.511517 0.621053
O O4 0.803676 0.487911 0.961707
O O5 0.961132 0.354913 0.371887
O O6 0.749144 0.476379 0.156260
O O7 0.000000 0.500000 0.500000
O O8 0.966534 0.536224 0.333650
O O9 0.150609 0.712912 0.653483
O O10 0.896810 0.770372 0.385961
O O11 0.318390 0.348019 0.894699
O O12 0.500000 0.899106 0.750000
O O13 0.669278 0.836480 0.049021
#
# Coordination Sequence:
#
# PCOD9263879 Si02
#       6
#     8   8   8   8   8   8
#     4  10  20  36  56  90 117 149 192 248 294 330
#     4  12  19  38  61  89 114 153 199 240 285 340
#     4  11  20  32  65  90 111 143 199 252 284 335
#     4  10  19  34  62  87 119 145 196 252 281 336
#     4  12  25  40  56  82 125 161 189 236 301 360
#     4  11  19  34  55  89 114 149 191 238 298 339
#
# _framework density 18.936557000000001
#
# number of rings (size 3 to 8) (size 9 to 14) (size 15 to 20)
#    0.000    1.000    5.000    5.000    0.000    0.000 
#    0.000    9.167    0.000    0.000    0.000    0.000 
#    0.000    0.000    0.000    0.000    0.000    0.000 
#
# Total GULP energy -134100.700473 kJ/mol
# GULP energy per Si atom -5587.529186 kJ/mol
# Density = 1.889346 g / cm^3
# Si number density = 18.936557 Si / 1000 Ang^3
#
#
#
# Elastic Constant Matrix: (Units=GPa)
#
#
# Indices 1 2 3 4 5 6 
#
# 1 46.8806 16.4576 28.7009 -0.0003 12.5801 -0.0002
# 2 16.4576 116.3150 42.4149 -0.0002 -4.1688 -0.0001
# 3 28.7009 42.4149 62.0449 -0.0005 19.2378 -0.0004
# 4 -0.0003 -0.0002 -0.0005 22.6138 -0.0002 10.7306
# 5 12.5801 -4.1688 19.2378 -0.0002 26.7744 -0.0002
# 6 -0.0002 -0.0001 -0.0004 10.7306 -0.0002 18.1324
#
#
#
# Elastic Compliance Matrix: (Units=1/GPa)
#
#
# Indices 1 2 3 4 5 6 
#
# 1 0.030346 0.000041 -0.012412 0.000000 -0.005334 0.000000
# 2 0.000041 0.013717 -0.012934 0.000000 0.011409 0.000000
# 3 -0.012412 -0.012934 0.037978 0.000000 -0.023469 0.000000
# 4 0.000000 0.000000 0.000000 0.061488 0.000000 -0.036388
# 5 -0.005334 0.011409 -0.023469 0.000000 0.058495 0.000000
# 6 0.000000 0.000000 0.000000 -0.036388 0.000000 0.076684
#
#
# Mechanical properties :
#
#
# Convention : Reuss Voigt Hill
#
# Bulk Modulus (GPa) = 31.81502 44.48745 38.15123
# Shear Modulus (GPa) = 14.71480 22.68191 18.69835
#
# Velocity S-wave (km/s) = 2.79060 3.46466 3.14573
# Velocity P-wave (km/s) = 5.21733 6.28880 5.77796
#
# Compressibility (1/GPa) = 0.03143169
#
# Stress axis : x y z
#
# Youngs Moduli (GPa) = 32.95279 72.90346 26.33125
#
# Poissons Ratio (x) = -0.00301 0.32683
# Poissons Ratio (y) = -0.00136 0.34056
# Poissons Ratio (z) = 0.40901 0.94291
#
# Static dielectric constant tensor:
#      x y z
#    x 1.648170 0.000000 0.036620 
#    y 0.000000 1.719030 0.000000 
#    z 0.036620 0.000000 1.665210 
# 
# From -- ./inp_files/257759.got.cif
#   From: 2010.05.17/outbox.cif.g08.bks.cpg/sg15_129_cif.got.tgz:257759.got - 2010.06.03 18:47:42.
