data_PCOD9263768
_publ_section_title
;
Structure prediction by ZEFSAII (Michael W. Deem and Ramdas Pophale) SiO2 
 PCOD9263768
Probable space group: C 2/C
;
_chemical_formula_sum "Si O2"
_cell_formula_units_Z 48
_cell_length_a 7.781004
_cell_length_b 19.559576
_cell_length_c 18.735326
_cell_angle_alpha 90.000000
_cell_angle_beta 114.538999
_cell_angle_gamma 90.000000
_cell_volume 2593.847268
_symmetry_space_group_name_H-M "C 2/C"
_symmetry_group_IT_number 15
_symmetry_cell_setting 'monoclinic'
loop_
_space_group_symop_operation_xyz
x,y,z
-x,y,1/2-z
-x,-y,-z
x,-y,1/2+z
1/2+x,1/2+y,z
1/2-x,1/2+y,1/2-z
1/2-x,1/2-y,-z
1/2+x,1/2-y,1/2+z
loop_
_atom_site_type_symbol
_atom_site_label
_atom_site_fract_x
_atom_site_fract_y
_atom_site_fract_z
Si Si1 0.101159 0.400210 0.655073
Si Si2 0.595656 0.500170 0.845656
Si Si3 0.540338 0.748940 0.094054
Si Si4 0.647771 0.248940 0.094054
Si Si5 0.094122 0.156806 0.844122
Si Si6 0.708987 0.400210 0.655073
O O1 0.211343 0.457756 0.629687
O O2 0.125878 0.326445 0.623442
O O3 0.200833 0.396981 0.750000
O O4 0.881259 0.414798 0.631259
O O5 0.500000 0.501216 0.750000
O O6 0.622250 0.578412 0.872250
O O7 0.451970 0.457757 0.870313
O O8 0.368552 0.763687 0.118552
O O9 0.709289 0.802838 0.126866
O O10 0.621007 0.673555 0.123442
O O11 0.454360 0.750000 1.000000
O O12 0.544444 0.302838 0.126866
O O13 0.000000 0.157271 0.750000
#
# Coordination Sequence:
#
# PCOD9263768 Si02
#       6
#     8   8   8   8   8   8
#     4  10  19  34  60  86 108 149 196 233 283 349
#     4   9  20  37  56  84 121 145 184 245 291 334
#     4  11  23  38  60  85 120 154 194 238 289 342
#     4  11  23  38  60  85 120 154 194 238 289 342
#     4  11  23  39  61  90 117 149 191 245 294 334
#     4  10  19  34  60  86 108 149 196 233 283 349
#
# _framework density 18.505330000000001
#
# number of rings (size 3 to 8) (size 9 to 14) (size 15 to 20)
#    0.000    1.667    3.333    1.500    0.000    3.333 
#    0.000    5.000    0.000    0.000    0.000    0.000 
#    0.000    0.000    0.000    0.000    0.000    0.000 
#
# Total GULP energy -134058.560733 kJ/mol
# GULP energy per Si atom -5585.773364 kJ/mol
# Density = 1.846321 g / cm^3
# Si number density = 18.505330 Si / 1000 Ang^3
#
#
#
# Elastic Constant Matrix: (Units=GPa)
#
#
# Indices 1 2 3 4 5 6 
#
# 1 222.4269 123.7344 42.8152 0.0000 22.5014 0.0000
# 2 123.7344 199.2463 29.7871 0.0000 16.3123 0.0000
# 3 42.8152 29.7871 26.1357 0.0000 11.5811 0.0000
# 4 0.0000 0.0000 0.0000 -24.9852 0.0000 9.9266
# 5 22.5014 16.3123 11.5811 0.0000 26.9057 0.0000
# 6 0.0000 0.0000 0.0000 9.9266 0.0000 32.1847
#
#
#
# Elastic Compliance Matrix: (Units=1/GPa)
#
#
# Indices 1 2 3 4 5 6 
#
# 1 0.008467 -0.003823 -0.009147 0.000000 -0.000826 0.000000
# 2 -0.003823 0.007792 -0.002399 0.000000 -0.000494 0.000000
# 3 -0.009147 -0.002399 0.064190 0.000000 -0.018525 0.000000
# 4 0.000000 0.000000 0.000000 -0.035655 0.000000 0.010997
# 5 -0.000826 -0.000494 -0.018525 0.000000 0.046131 0.000000
# 6 0.000000 0.000000 0.000000 0.010997 0.000000 0.027679
#
#
# Mechanical properties :
#
#
# Convention : Reuss Voigt Hill
#
# Bulk Modulus (GPa) = 20.11660 93.38692 56.75176
# Shear Modulus (GPa) = 30.13635 23.58586 26.86110
#
# Velocity S-wave (km/s) = 4.03987 3.57395 3.81403
# Velocity P-wave (km/s) = 5.71446 8.22224 7.08027
#
# Compressibility (1/GPa) = 0.04971018
#
# Stress axis : x y z
#
# Youngs Moduli (GPa) = 118.10829 128.33516 15.57880
#
# Poissons Ratio (x) = 0.49061 0.14250
# Poissons Ratio (y) = 0.45151 0.03737
# Poissons Ratio (z) = 1.08037 0.30789
#
# Static dielectric constant tensor:
#      x y z
#    x 1.638990 0.000000 0.002820 
#    y 0.000000 1.599950 0.000000 
#    z 0.002820 0.000000 1.622730 
# 
# From -- ./inp_files/265362.got.cif
#   From: 2010.05.17/outbox.cif.g08.bks.cpg/sg15_133_cif.got.tgz:265362.got - 2010.06.03 18:47:42.
