data_PCOD9263425
_publ_section_title
;
Structure prediction by ZEFSAII (Michael W. Deem and Ramdas Pophale) SiO2 
 PCOD9263425
Probable space group: C 2/C
;
_chemical_formula_sum "Si O2"
_cell_formula_units_Z 56
_cell_length_a 5.425370
_cell_length_b 24.408684
_cell_length_c 19.620693
_cell_angle_alpha 90.000000
_cell_angle_beta 100.549848
_cell_angle_gamma 90.000000
_cell_volume 2554.371106
_symmetry_space_group_name_H-M "C 2/C"
_symmetry_group_IT_number 15
_symmetry_cell_setting 'monoclinic'
loop_
_space_group_symop_operation_xyz
x,y,z
-x,y,1/2-z
-x,-y,-z
x,-y,1/2+z
1/2+x,1/2+y,z
1/2-x,1/2+y,1/2-z
1/2-x,1/2-y,-z
1/2+x,1/2-y,1/2+z
loop_
_atom_site_type_symbol
_atom_site_label
_atom_site_fract_x
_atom_site_fract_y
_atom_site_fract_z
Si Si1 0.220955 0.632179 0.787928
Si Si2 0.399843 0.270911 0.915694
Si Si3 0.268040 0.486738 0.940401
Si Si4 0.276327 0.500584 0.790046
Si Si5 0.967563 0.409001 0.465179
Si Si6 0.418270 0.194264 0.453656
Si Si7 0.682315 0.337961 0.343496
O O1 0.500000 0.648075 0.750000
O O2 0.265615 0.567266 0.796081
O O3 0.380256 0.666412 0.849597
O O4 0.914879 0.642511 0.796424
O O5 0.168817 0.311300 0.920420
O O6 0.288316 0.222276 0.864132
O O7 0.659724 0.295387 0.901108
O O8 0.496754 0.243405 0.991426
O O9 0.334917 0.475719 0.866284
O O10 0.100576 0.541734 0.932284
O O11 0.500000 0.500000 0.000000
O O12 0.130741 0.437860 0.971575
O O13 0.500000 0.488011 0.750000
O O14 0.000000 0.484449 0.750000
O O15 0.126877 0.357972 0.499974
O O16 0.763760 0.383074 0.404381
#
# Coordination Sequence:
#
# PCOD9263425 Si02
#       7
#     8   8   8   8   8   8   8
#     4  10  20  32  54  83 122 161 205 241 325 376
#     4   9  19  33  54  82 113 153 197 238 299 367
#     4  11  25  37  63  95 129 165 218 273 329 373
#     4  11  23  41  61  86 127 171 209 253 316 397
#     4  10  22  38  59  89 129 166 206 265 326 373
#     4   9  19  36  53  83 117 155 195 241 301 374
#     4  10  19  34  56  86 123 160 199 257 315 390
#
# _framework density 21.923203000000001
#
# number of rings (size 3 to 8) (size 9 to 14) (size 15 to 20)
#    0.000    2.000    1.429    2.571    8.000    0.000 
#    2.571    0.000    0.000    0.000    3.714    5.000 
#    0.000    0.000    0.000    0.000    0.000    0.000 
#
# Total GULP energy -155924.733661 kJ/mol
# GULP energy per Si atom -5568.740488 kJ/mol
# Density = 2.187330 g / cm^3
# Si number density = 21.923203 Si / 1000 Ang^3
#
#
#
# Elastic Constant Matrix: (Units=GPa)
#
#
# Indices 1 2 3 4 5 6 
#
# 1 180.3808 34.1432 60.2458 0.0000 20.6526 0.0000
# 2 34.1432 44.3211 11.3372 0.0000 -1.3215 0.0000
# 3 60.2458 11.3372 112.5235 0.0000 -18.9966 0.0000
# 4 0.0000 0.0000 0.0000 25.0093 0.0000 1.4580
# 5 20.6526 -1.3215 -18.9966 0.0000 34.4549 0.0000
# 6 0.0000 0.0000 0.0000 1.4580 0.0000 2.5836
#
#
#
# Elastic Compliance Matrix: (Units=1/GPa)
#
#
# Indices 1 2 3 4 5 6 
#
# 1 0.009979 -0.006354 -0.006344 0.000000 -0.009723 0.000000
# 2 -0.006354 0.027212 0.001631 0.000000 0.005752 0.000000
# 3 -0.006344 0.001631 0.014082 0.000000 0.011629 0.000000
# 4 0.000000 0.000000 0.000000 0.041345 0.000000 -0.023333
# 5 -0.009723 0.005752 0.011629 0.000000 0.041484 0.000000
# 6 0.000000 0.000000 0.000000 -0.023333 0.000000 0.400230
#
#
# Mechanical properties :
#
#
# Convention : Reuss Voigt Hill
#
# Bulk Modulus (GPa) = 34.31730 60.96419 47.64075
# Shear Modulus (GPa) = 8.83113 27.84282 18.33698
#
# Velocity S-wave (km/s) = 2.00922 3.56759 2.89523
# Velocity P-wave (km/s) = 4.59021 6.69617 5.74059
#
# Compressibility (1/GPa) = 0.02913982
#
# Stress axis : x y z
#
# Youngs Moduli (GPa) = 100.21507 36.74866 71.01032
#
# Poissons Ratio (x) = 0.23351 0.45047
# Poissons Ratio (y) = 0.63679 -0.11585
# Poissons Ratio (z) = 0.63574 -0.05996
#
# Static dielectric constant tensor:
#      x y z
#    x 2.070470 0.000000 0.373890 
#    y 0.000000 1.648590 0.000000 
#    z 0.373890 0.000000 1.764630 
# 
# From -- ./inp_files/227904.got.cif
#   From: 2010.05.17/outbox.cif.g08.bks.cpg/sg15_114_cif.got.tgz:227904.got - 2010.06.03 18:47:42.
