data_PCOD9263858
_publ_section_title
;
Structure prediction by ZEFSAII (Michael W. Deem and Ramdas Pophale) SiO2 
 PCOD9263858
Probable space group: C 2/C
;
_chemical_formula_sum "Si O2"
_cell_formula_units_Z 52
_cell_length_a 11.373101
_cell_length_b 23.538359
_cell_length_c 8.598011
_cell_angle_alpha 90.000000
_cell_angle_beta 107.521686
_cell_angle_gamma 90.000000
_cell_volume 2194.930201
_symmetry_space_group_name_H-M "C 2/C"
_symmetry_group_IT_number 15
_symmetry_cell_setting 'monoclinic'
loop_
_space_group_symop_operation_xyz
x,y,z
-x,y,1/2-z
-x,-y,-z
x,-y,1/2+z
1/2+x,1/2+y,z
1/2-x,1/2+y,1/2-z
1/2-x,1/2-y,-z
1/2+x,1/2-y,1/2+z
loop_
_atom_site_type_symbol
_atom_site_label
_atom_site_fract_x
_atom_site_fract_y
_atom_site_fract_z
Si Si1 0.500000 0.629284 0.250000
Si Si2 0.722119 0.392892 0.645623
Si Si3 0.261176 0.580703 0.671357
Si Si4 0.167575 0.290163 0.665071
Si Si5 0.001519 0.640692 0.924406
Si Si6 0.622965 0.034499 0.095477
Si Si7 0.835846 0.829206 0.438434
O O1 0.379124 0.596129 0.259691
O O2 0.539890 0.666986 0.412220
O O3 0.666317 0.406195 0.457294
O O4 0.765626 0.328084 0.680746
O O5 0.843297 0.431565 0.731867
O O6 0.130757 0.613230 0.601476
O O7 0.226432 0.514425 0.648090
O O8 0.318853 0.610861 0.844499
O O9 0.167987 0.223118 0.682271
O O10 0.237326 0.309909 0.531535
O O11 0.033432 0.314548 0.570091
O O12 0.000000 0.665325 0.750000
O O13 0.101477 0.588507 0.972447
O O14 0.500000 0.000000 0.000000
#
# Coordination Sequence:
#
# PCOD9263858 Si02
#       7
#     4   8   8   8   8   8   8
#     4  10  24  44  62  80 124 164 220 254 316 368
#     4  10  23  42  60  94 124 164 204 265 308 380
#     4  11  23  37  63  92 125 155 212 252 315 368
#     4   9  20  37  61  90 127 160 206 247 322 367
#     4  10  19  34  61  95 126 154 191 248 320 377
#     4   9  22  37  63  93 129 155 191 255 322 380
#     4  10  21  39  62  86 117 172 211 258 297 378
#
# _framework density 23.690957999999998
#
# number of rings (size 3 to 8) (size 9 to 14) (size 15 to 20)
#    0.000    2.154    1.538    0.000    5.385    7.385 
#    0.000    4.615    0.000    0.000    0.000    0.000 
#    0.000    0.000    0.000    0.000    0.000    0.000 
#
# Total GULP energy -144809.484246 kJ/mol
# GULP energy per Si atom -5569.595548 kJ/mol
# Density = 2.363704 g / cm^3
# Si number density = 23.690958 Si / 1000 Ang^3
#
#
#
# Elastic Constant Matrix: (Units=GPa)
#
#
# Indices 1 2 3 4 5 6 
#
# 1 41.9517 9.4702 3.0685 0.0000 5.6668 0.0000
# 2 9.4702 93.6352 16.2921 0.0000 9.1599 0.0000
# 3 3.0685 16.2921 85.2779 0.0000 8.2147 0.0000
# 4 0.0000 0.0000 0.0000 9.1826 0.0000 0.3493
# 5 5.6668 9.1599 8.2147 0.0000 30.2913 0.0000
# 6 0.0000 0.0000 0.0000 0.3493 0.0000 10.6374
#
#
#
# Elastic Compliance Matrix: (Units=1/GPa)
#
#
# Indices 1 2 3 4 5 6 
#
# 1 0.024858 -0.002106 -0.000108 0.000000 -0.003984 0.000000
# 2 -0.002106 0.011469 -0.001868 0.000000 -0.002568 0.000000
# 3 -0.000108 -0.001868 0.012353 0.000000 -0.002765 0.000000
# 4 0.000000 0.000000 0.000000 0.109038 0.000000 -0.003580
# 5 -0.003984 -0.002568 -0.002765 0.000000 0.035284 0.000000
# 6 0.000000 0.000000 0.000000 -0.003580 0.000000 0.094125
#
#
# Mechanical properties :
#
#
# Convention : Reuss Voigt Hill
#
# Bulk Modulus (GPa) = 24.68109 30.94740 27.81424
# Shear Modulus (GPa) = 16.19179 22.82452 19.50816
#
# Velocity S-wave (km/s) = 2.61714 3.10728 2.87268
# Velocity P-wave (km/s) = 4.42415 5.09558 4.77169
#
# Compressibility (1/GPa) = 0.04051685
#
# Stress axis : x y z
#
# Youngs Moduli (GPa) = 40.22791 87.19227 80.94878
#
# Poissons Ratio (x) = 0.18359 0.00878
# Poissons Ratio (y) = 0.08470 0.15121
# Poissons Ratio (z) = 0.00436 0.16288
#
# Static dielectric constant tensor:
#      x y z
#    x 2.080140 0.000000 -0.021890 
#    y 0.000000 1.896510 0.000000 
#    z -0.021890 0.000000 1.944230 
# 
# From -- ./inp_files/33710.got.cif
#   From: 2010.05.17/outbox.cif.g08.bks.cpg/sg15_17_cif.got.tgz:33710.got - 2010.06.03 18:47:42.
