data_PCOD9263854
_publ_section_title
;
Structure prediction by ZEFSAII (Michael W. Deem and Ramdas Pophale) SiO2 
 PCOD9263854
Probable space group: C 2/C
;
_chemical_formula_sum "Si O2"
_cell_formula_units_Z 56
_cell_length_a 15.899625
_cell_length_b 9.008323
_cell_length_c 23.778162
_cell_angle_alpha 90.000000
_cell_angle_beta 127.722373
_cell_angle_gamma 90.000000
_cell_volume 2693.873424
_symmetry_space_group_name_H-M "C 2/C"
_symmetry_group_IT_number 15
_symmetry_cell_setting 'monoclinic'
loop_
_space_group_symop_operation_xyz
x,y,z
-x,y,1/2-z
-x,-y,-z
x,-y,1/2+z
1/2+x,1/2+y,z
1/2-x,1/2+y,1/2-z
1/2-x,1/2-y,-z
1/2+x,1/2-y,1/2+z
loop_
_atom_site_type_symbol
_atom_site_label
_atom_site_fract_x
_atom_site_fract_y
_atom_site_fract_z
Si Si1 0.224518 0.555565 0.866580
Si Si2 0.000000 0.359100 0.250000
Si Si3 0.237129 0.343507 0.552493
Si Si4 0.935421 0.887556 0.933708
Si Si5 0.976037 0.900529 0.654277
Si Si6 0.853176 0.299181 0.601666
Si Si7 0.500000 0.642190 0.750000
Si Si8 0.374333 0.858409 0.491849
O O1 0.113021 0.562101 0.788303
O O2 0.266771 0.717899 0.900516
O O3 0.317449 0.456606 0.878797
O O4 0.188840 0.467038 0.907935
O O5 0.011277 0.254110 0.308558
O O6 0.250000 0.250000 0.500000
O O7 0.349752 0.428669 0.605228
O O8 0.142996 0.464395 0.517809
O O9 0.988904 0.885564 0.895078
O O10 0.927618 0.729157 0.962160
O O11 0.000000 0.000000 0.000000
O O12 0.035853 0.027011 0.715288
O O13 0.745789 0.205365 0.555225
O O14 0.918715 0.301178 0.570336
O O15 0.918183 0.244727 0.682425
#
# Coordination Sequence:
#
# PCOD9263854 Si02
#       8
#     8   4   8   8   8   8   4   8
#     4  10  21  38  63  91 124 165 215 268 324 388
#     4   9  21  42  62  84 122 174 220 248 320 402
#     4  11  19  38  67  89 123 173 224 268 319 404
#     4  11  23  41  63  95 134 163 210 286 344 385
#     4  10  22  39  62  92 124 170 213 272 334 400
#     4  10  19  34  61  94 117 161 215 269 299 398
#     4  11  19  36  64  88 126 170 230 252 334 404
#     4  10  21  37  63  93 127 166 223 261 330 392
#
# _framework density 20.787911999999999
#
# number of rings (size 3 to 8) (size 9 to 14) (size 15 to 20)
#    0.000    1.714    2.857    2.143    2.000    0.000 
#    5.143    2.857    3.143    0.000    0.000    0.000 
#    0.000    0.000    0.000    0.000    0.000    0.000 
#
# Total GULP energy -156084.717036 kJ/mol
# GULP energy per Si atom -5574.454180 kJ/mol
# Density = 2.074060 g / cm^3
# Si number density = 20.787912 Si / 1000 Ang^3
#
#
#
# Elastic Constant Matrix: (Units=GPa)
#
#
# Indices 1 2 3 4 5 6 
#
# 1 64.4452 34.6679 17.9617 0.0000 -16.5938 0.0000
# 2 34.6679 109.8888 31.1708 0.0000 -4.8906 0.0000
# 3 17.9617 31.1708 84.4891 0.0000 -3.5018 0.0000
# 4 0.0000 0.0000 0.0000 26.5868 0.0000 11.2761
# 5 -16.5938 -4.8906 -3.5018 0.0000 42.2227 0.0000
# 6 0.0000 0.0000 0.0000 11.2761 0.0000 17.0792
#
#
#
# Elastic Compliance Matrix: (Units=1/GPa)
#
#
# Indices 1 2 3 4 5 6 
#
# 1 0.021099 -0.005741 -0.002059 0.000000 0.007456 0.000000
# 2 -0.005741 0.011758 -0.003165 0.000000 -0.001157 0.000000
# 3 -0.002059 -0.003165 0.013439 0.000000 -0.000061 0.000000
# 4 0.000000 0.000000 0.000000 0.052241 0.000000 -0.034490
# 5 0.007456 -0.001157 -0.000061 0.000000 0.026475 0.000000
# 6 0.000000 0.000000 0.000000 -0.034490 0.000000 0.081322
#
#
# Mechanical properties :
#
#
# Convention : Reuss Voigt Hill
#
# Bulk Modulus (GPa) = 41.04019 47.38042 44.21031
# Shear Modulus (GPa) = 21.15204 28.84594 24.99899
#
# Velocity S-wave (km/s) = 3.19331 3.72913 3.47158
# Velocity P-wave (km/s) = 5.77768 6.43301 6.11413
#
# Compressibility (1/GPa) = 0.02436636
#
# Stress axis : x y z
#
# Youngs Moduli (GPa) = 47.39613 85.05200 74.41192
#
# Poissons Ratio (x) = 0.48824 0.15318
# Poissons Ratio (y) = 0.27208 0.23554
# Poissons Ratio (z) = 0.09757 0.26921
#
# Static dielectric constant tensor:
#      x y z
#    x 2.212770 0.000000 -0.029790 
#    y 0.000000 1.834120 0.000000 
#    z -0.029790 0.000000 1.803550 
# 
# From -- ./inp_files/273275.got.cif
#   From: 2010.05.17/outbox.cif.g08.bks.cpg/sg15_137_cif.got.tgz:273275.got - 2010.06.03 18:47:42.
