data_PCOD9263363
_publ_section_title
;
Structure prediction by ZEFSAII (Michael W. Deem and Ramdas Pophale) SiO2 
 PCOD9263363
Probable space group: C 2/C
;
_chemical_formula_sum "Si O2"
_cell_formula_units_Z 52
_cell_length_a 8.842227
_cell_length_b 29.863747
_cell_length_c 16.065450
_cell_angle_alpha 90.000000
_cell_angle_beta 33.172695
_cell_angle_gamma 90.000000
_cell_volume 2321.222004
_symmetry_space_group_name_H-M "C 2/C"
_symmetry_group_IT_number 15
_symmetry_cell_setting 'monoclinic'
loop_
_space_group_symop_operation_xyz
x,y,z
-x,y,1/2-z
-x,-y,-z
x,-y,1/2+z
1/2+x,1/2+y,z
1/2-x,1/2+y,1/2-z
1/2-x,1/2-y,-z
1/2+x,1/2-y,1/2+z
loop_
_atom_site_type_symbol
_atom_site_label
_atom_site_fract_x
_atom_site_fract_y
_atom_site_fract_z
Si Si1 0.000000 0.815420 0.750000
Si Si2 0.908235 0.805360 0.376218
Si Si3 0.175853 0.545301 0.922924
Si Si4 0.444054 0.259695 0.041248
Si Si5 0.938783 0.403709 0.190287
Si Si6 0.292949 0.387832 0.515409
Si Si7 0.003557 0.149126 0.076864
O O1 0.759196 0.780574 0.886016
O O2 0.077321 0.847344 0.790504
O O3 0.734806 0.763857 0.422818
O O4 0.712997 0.839080 0.517250
O O5 0.000000 0.829976 0.250000
O O6 0.132323 0.784775 0.336309
O O7 0.500000 0.537582 0.750000
O O8 0.049864 0.572830 0.903836
O O9 0.171245 0.572502 0.013746
O O10 0.000000 0.500000 0.000000
O O11 0.491796 0.300087 0.957204
O O12 0.623825 0.387788 0.342669
O O13 0.000000 0.429724 0.250000
O O14 0.180968 0.367429 0.077071
O O15 0.309226 0.382604 0.608463
#
# Coordination Sequence:
#
# PCOD9263363 Si02
#       7
#     4   8   8   8   8   8   8
#     4  12  24  34  54  86 134 164 216 272 320 354
#     4  10  19  34  56  78 112 160 216 248 299 355
#     4  10  21  42  71 101 130 159 205 256 323 396
#     4  10  23  34  51  82 121 169 209 263 308 357
#     4   9  19  38  67  92 120 162 209 254 301 379
#     4   9  20  37  65  88 115 165 213 256 298 386
#     4  10  22  39  58  86 126 168 217 264 316 367
#
# _framework density 22.401993000000001
#
# number of rings (size 3 to 8) (size 9 to 14) (size 15 to 20)
#    0.000    2.154    0.000    2.769    9.692    0.000 
#    1.385    6.923    0.000    0.000    0.000    0.000 
#    0.000    0.000    0.000    0.000    0.000    0.000 
#
# Total GULP energy -144934.950236 kJ/mol
# GULP energy per Si atom -5574.421163 kJ/mol
# Density = 2.235101 g / cm^3
# Si number density = 22.401993 Si / 1000 Ang^3
#
#
#
# Elastic Constant Matrix: (Units=GPa)
#
#
# Indices 1 2 3 4 5 6 
#
# 1 157.5491 66.8622 44.5647 0.0000 35.5689 0.0000
# 2 66.8622 96.1381 12.2475 0.0000 10.8202 0.0000
# 3 44.5647 12.2475 25.6902 0.0000 15.1394 0.0000
# 4 0.0000 0.0000 0.0000 17.9563 0.0000 -7.1249
# 5 35.5689 10.8202 15.1394 0.0000 47.9584 0.0000
# 6 0.0000 0.0000 0.0000 -7.1249 0.0000 18.3010
#
#
#
# Elastic Compliance Matrix: (Units=1/GPa)
#
#
# Indices 1 2 3 4 5 6 
#
# 1 0.017935 -0.008922 -0.024823 0.000000 -0.003452 0.000000
# 2 -0.008922 0.015554 0.007655 0.000000 0.000692 0.000000
# 3 -0.024823 0.007655 0.084162 0.000000 -0.009885 0.000000
# 4 0.000000 0.000000 0.000000 0.065866 0.000000 0.025643
# 5 -0.003452 0.000692 -0.009885 0.000000 0.026376 0.000000
# 6 0.000000 0.000000 0.000000 0.025643 0.000000 0.064625
#
#
# Mechanical properties :
#
#
# Convention : Reuss Voigt Hill
#
# Bulk Modulus (GPa) = 15.27442 58.52511 36.89977
# Shear Modulus (GPa) = 14.34631 27.22335 20.78483
#
# Velocity S-wave (km/s) = 2.53336 3.48978 3.04930
# Velocity P-wave (km/s) = 3.92306 6.51305 5.37634
#
# Compressibility (1/GPa) = 0.06546892
#
# Stress axis : x y z
#
# Youngs Moduli (GPa) = 55.75775 64.29212 11.88188
#
# Poissons Ratio (x) = 0.57364 0.29495
# Poissons Ratio (y) = 0.49749 -0.09095
# Poissons Ratio (z) = 1.38408 -0.49214
#
# Static dielectric constant tensor:
#      x y z
#    x 1.997930 0.000000 0.050350 
#    y 0.000000 1.825040 0.000000 
#    z 0.050350 0.000000 1.950220 
# 
# From -- ./inp_files/139733.got.cif
#   From: 2010.05.17/outbox.cif.g08.bks.cpg/sg15_70_cif.got.tgz:139733.got - 2010.06.03 18:47:42.
