data_PCOD9263557
_publ_section_title
;
Structure prediction by ZEFSAII (Michael W. Deem and Ramdas Pophale) SiO2 
 PCOD9263557
Probable space group: C 2/C
;
_chemical_formula_sum "Si O2"
_cell_formula_units_Z 56
_cell_length_a 18.996419
_cell_length_b 33.064987
_cell_length_c 5.356887
_cell_angle_alpha 90.000000
_cell_angle_beta 113.532056
_cell_angle_gamma 90.000000
_cell_volume 3084.925186
_symmetry_space_group_name_H-M "C 2/C"
_symmetry_group_IT_number 15
_symmetry_cell_setting 'monoclinic'
loop_
_space_group_symop_operation_xyz
x,y,z
-x,y,1/2-z
-x,-y,-z
x,-y,1/2+z
1/2+x,1/2+y,z
1/2-x,1/2+y,1/2-z
1/2-x,1/2-y,-z
1/2+x,1/2-y,1/2+z
loop_
_atom_site_type_symbol
_atom_site_label
_atom_site_fract_x
_atom_site_fract_y
_atom_site_fract_z
Si Si1 0.523495 0.610228 0.533520
Si Si2 0.330461 0.340012 0.255473
Si Si3 0.953435 0.280670 0.435003
Si Si4 0.412325 0.983188 0.895933
Si Si5 0.914899 0.611399 0.524162
Si Si6 0.347682 0.851522 0.416591
Si Si7 0.905863 0.188117 0.362501
O O1 0.500000 0.588348 0.750000
O O2 0.612388 0.621618 0.661973
O O3 0.471076 0.652402 0.458502
O O4 0.500000 0.588489 0.250000
O O5 0.241568 0.349873 0.142165
O O6 0.356699 0.316578 0.541532
O O7 0.354155 0.317330 0.035187
O O8 0.877800 0.307864 0.361843
O O9 0.940537 0.232621 0.413128
O O10 0.000000 0.290850 0.250000
O O11 0.000000 0.290151 0.750000
O O12 0.376018 0.993725 0.578860
O O13 0.413518 0.935868 0.952456
O O14 0.500000 0.000000 0.000000
O O15 0.862529 0.620636 0.693039
O O16 0.000000 0.620754 0.750000
O O17 0.891883 0.634427 0.233857
#
# Coordination Sequence:
#
# PCOD9263557 Si02
#       7
#     8   8   8   8   8   8   8
#     4   8  14  27  48  70  84 115 162 219 272 291
#     4  10  20  35  50  75 101 125 179 213 277 336
#     4  12  23  38  52  72  97 130 192 230 274 322
#     4  10  19  34  58  88  97 121 177 244 239 262
#     4  12  23  39  57  74 110 141 180 212 258 305
#     4  12  26  36  50  76 110 152 162 205 282 346
#     4  10  19  34  58  71  89 127 177 248 268 298
#
# _framework density 18.152792000000002
#
# number of rings (size 3 to 8) (size 9 to 14) (size 15 to 20)
#    0.000    1.429    1.429    7.714    2.000    1.143 
#    0.000    0.000    0.000    0.000    0.000    0.000 
#    0.000    0.000    0.000    0.000    0.000  450.000 
#
# Total GULP energy -156123.205093 kJ/mol
# GULP energy per Si atom -5575.828753 kJ/mol
# Density = 1.811148 g / cm^3
# Si number density = 18.152792 Si / 1000 Ang^3
#
#
#
# Elastic Constant Matrix: (Units=GPa)
#
#
# Indices 1 2 3 4 5 6 
#
# 1 118.9024 13.5760 60.8750 0.0000 -14.5590 0.0000
# 2 13.5760 29.7833 10.6757 0.0000 -4.3294 0.0000
# 3 60.8750 10.6757 123.9381 0.0000 -40.4459 0.0000
# 4 0.0000 0.0000 0.0000 0.4963 0.0000 10.8677
# 5 -14.5590 -4.3294 -40.4459 0.0000 42.3559 0.0000
# 6 0.0000 0.0000 0.0000 10.8677 0.0000 -11.8774
#
#
#
# Elastic Compliance Matrix: (Units=1/GPa)
#
#
# Indices 1 2 3 4 5 6 
#
# 1 0.011691 -0.003440 -0.006173 0.000000 -0.002228 0.000000
# 2 -0.003440 0.035687 -0.000842 0.000000 0.001661 0.000000
# 3 -0.006173 -0.000842 0.015184 0.000000 0.012292 0.000000
# 4 0.000000 0.000000 0.000000 0.095785 0.000000 0.087642
# 5 -0.002228 0.001661 0.012292 0.000000 0.034751 0.000000
# 6 0.000000 0.000000 0.000000 0.087642 0.000000 -0.004002
#
#
# Mechanical properties :
#
#
# Convention : Reuss Voigt Hill
#
# Bulk Modulus (GPa) = 24.00847 49.20856 36.60852
# Shear Modulus (GPa) = 22.33236 18.69475 20.51356
#
# Velocity S-wave (km/s) = 3.51129 3.21262 3.36527
# Velocity P-wave (km/s) = 5.44916 6.39750 5.94228
#
# Compressibility (1/GPa) = 0.04165197
#
# Stress axis : x y z
#
# Youngs Moduli (GPa) = 85.53905 28.02113 65.85778
#
# Poissons Ratio (x) = 0.09640 0.40652
# Poissons Ratio (y) = 0.29426 0.05547
# Poissons Ratio (z) = 0.52801 0.02360
#
# Static dielectric constant tensor:
#      x y z
#    x 1.629470 0.000000 -0.048910 
#    y 0.000000 1.608350 0.000000 
#    z -0.048910 0.000000 1.709340 
# 
# From -- ./inp_files/12229.got.cif
#   From: 2010.05.17/outbox.cif.g08.bks.cpg/sg15_7_cif.got.tgz:12229.got - 2010.06.03 18:47:42.
