data_PCOD9263086
_publ_section_title
;
Structure prediction by ZEFSAII (Michael W. Deem and Ramdas Pophale) SiO2 
 PCOD9263086
Probable space group: C 2/C
;
_chemical_formula_sum "Si O2"
_cell_formula_units_Z 44
_cell_length_a 13.406763
_cell_length_b 21.001024
_cell_length_c 10.493131
_cell_angle_alpha 90.000000
_cell_angle_beta 49.461498
_cell_angle_gamma 90.000000
_cell_volume 2245.254569
_symmetry_space_group_name_H-M "C 2/C"
_symmetry_group_IT_number 15
_symmetry_cell_setting 'monoclinic'
loop_
_space_group_symop_operation_xyz
x,y,z
-x,y,1/2-z
-x,-y,-z
x,-y,1/2+z
1/2+x,1/2+y,z
1/2-x,1/2+y,1/2-z
1/2-x,1/2-y,-z
1/2+x,1/2-y,1/2+z
loop_
_atom_site_type_symbol
_atom_site_label
_atom_site_fract_x
_atom_site_fract_y
_atom_site_fract_z
Si Si1 0.207270 0.622945 0.767302
Si Si2 0.658780 0.308587 0.116582
Si Si3 0.843743 0.069302 0.063509
Si Si4 0.500000 0.911720 0.250000
Si Si5 0.146367 0.487597 0.926718
Si Si6 0.579902 0.431285 0.560856
O O1 0.274556 0.672977 0.804109
O O2 0.209701 0.557095 0.848925
O O3 0.304310 0.615387 0.568514
O O4 0.066239 0.626813 0.812855
O O5 0.500000 0.295853 0.250000
O O6 0.750000 0.250000 0.000000
O O7 0.675764 0.369256 0.007498
O O8 0.729840 0.057963 0.263615
O O9 0.980207 0.073363 0.026008
O O10 0.864681 0.003125 0.969751
O O11 0.388576 0.956875 0.407479
O O12 0.000000 0.500000 0.000000
O O13 0.500000 0.413640 0.750000
#
# Coordination Sequence:
#
# PCOD9263086 Si02
#       6
#     8   8   8   4   8   8
#     4  10  22  38  62  92 131 172 220 271 331 404
#     4  12  27  47  68  94 134 182 238 278 336 412
#     4  10  21  36  60  96 132 168 219 268 345 403
#     4  10  20  38  58  96 136 166 216 254 350 398
#     4   9  20  33  58  95 138 174 204 275 341 410
#     4  10  19  33  65  97 131 161 204 281 339 397
#
# _framework density 19.596886000000001
#
# number of rings (size 3 to 8) (size 9 to 14) (size 15 to 20)
#    0.000    1.818    1.818    1.636   12.727    2.909 
#    0.000    0.000    2.000    3.273    0.000    0.000 
#    0.000    0.000    0.000    0.000    0.000    0.000 
#
# Total GULP energy -122485.104854 kJ/mol
# GULP energy per Si atom -5567.504766 kJ/mol
# Density = 1.955228 g / cm^3
# Si number density = 19.596886 Si / 1000 Ang^3
#
#
#
# Elastic Constant Matrix: (Units=GPa)
#
#
# Indices 1 2 3 4 5 6 
#
# 1 136.3255 42.4097 18.6830 0.0000 -10.0573 0.0000
# 2 42.4097 78.1920 39.5465 0.0000 2.3461 0.0000
# 3 18.6830 39.5465 123.5972 0.0000 -8.7491 0.0000
# 4 0.0000 0.0000 0.0000 24.9543 0.0000 3.0787
# 5 -10.0573 2.3461 -8.7491 0.0000 29.4368 0.0000
# 6 0.0000 0.0000 0.0000 3.0787 0.0000 6.5233
#
#
#
# Elastic Compliance Matrix: (Units=1/GPa)
#
#
# Indices 1 2 3 4 5 6 
#
# 1 0.009215 -0.005418 0.000607 0.000000 0.003761 0.000000
# 2 -0.005418 0.018660 -0.005504 0.000000 -0.004974 0.000000
# 3 0.000607 -0.005504 0.010017 0.000000 0.003623 0.000000
# 4 0.000000 0.000000 0.000000 0.042551 0.000000 -0.020082
# 5 0.003761 -0.004974 0.003623 0.000000 0.036729 0.000000
# 6 0.000000 0.000000 0.000000 -0.020082 0.000000 0.162774
#
#
# Mechanical properties :
#
#
# Convention : Reuss Voigt Hill
#
# Bulk Modulus (GPa) = 57.92946 59.93258 58.93102
# Shear Modulus (GPa) = 16.32225 28.01457 22.16841
#
# Velocity S-wave (km/s) = 2.88913 3.78503 3.36701
# Velocity P-wave (km/s) = 6.38390 7.05344 6.72701
#
# Compressibility (1/GPa) = 0.01726237
#
# Stress axis : x y z
#
# Youngs Moduli (GPa) = 108.51774 53.58950 99.83465
#
# Poissons Ratio (x) = 0.29034 -0.06057
# Poissons Ratio (y) = 0.58792 0.54947
# Poissons Ratio (z) = -0.06584 0.29495
#
# Static dielectric constant tensor:
#      x y z
#    x 1.813330 0.000000 0.058300 
#    y 0.000000 1.698200 0.000000 
#    z 0.058300 0.000000 1.740290 
# 
# From -- ./inp_files/99662.got.cif
#   From: 2010.05.17/outbox.cif.g08.bks.cpg/sg15_50_cif.got.tgz:99662.got - 2010.06.03 18:47:42.
