data_PCOD9263595
_publ_section_title
;
Structure prediction by ZEFSAII (Michael W. Deem and Ramdas Pophale) SiO2 
 PCOD9263595
Probable space group: C 2/C
;
_chemical_formula_sum "Si O2"
_cell_formula_units_Z 56
_cell_length_a 10.911573
_cell_length_b 18.943580
_cell_length_c 14.633148
_cell_angle_alpha 90.000000
_cell_angle_beta 112.774489
_cell_angle_gamma 90.000000
_cell_volume 2788.912408
_symmetry_space_group_name_H-M "C 2/C"
_symmetry_group_IT_number 15
_symmetry_cell_setting 'monoclinic'
loop_
_space_group_symop_operation_xyz
x,y,z
-x,y,1/2-z
-x,-y,-z
x,-y,1/2+z
1/2+x,1/2+y,z
1/2-x,1/2+y,1/2-z
1/2-x,1/2-y,-z
1/2+x,1/2-y,1/2+z
loop_
_atom_site_type_symbol
_atom_site_label
_atom_site_fract_x
_atom_site_fract_y
_atom_site_fract_z
Si Si1 0.653624 0.115742 0.278104
Si Si2 0.472669 0.270736 0.567667
Si Si3 0.783282 0.660006 0.552429
Si Si4 0.155558 0.131126 0.799339
Si Si5 0.843072 0.551430 0.709705
Si Si6 0.272093 0.741617 0.230842
Si Si7 0.187086 0.175128 0.004654
O O1 0.500000 0.132351 0.250000
O O2 0.709942 0.163591 0.211933
O O3 0.737374 0.139343 0.390287
O O4 0.666514 0.031678 0.275766
O O5 0.347224 0.322898 0.543729
O O6 0.412234 0.192048 0.539250
O O7 0.583613 0.265751 0.678660
O O8 0.541460 0.303419 0.498144
O O9 0.789949 0.582781 0.597830
O O10 0.778929 0.712443 0.640750
O O11 0.255762 0.087471 0.764130
O O12 0.179758 0.211395 0.771597
O O13 0.192072 0.128437 0.916034
O O14 0.000000 0.112310 0.750000
O O15 0.000000 0.571341 0.750000
O O16 0.250000 0.250000 0.000000
#
# Coordination Sequence:
#
# PCOD9263595 Si02
#       7
#     8   8   8   8   8   8   8
#     4  10  22  38  58  89 120 154 196 248 293 347
#     4  10  20  34  54  93 109 146 202 240 295 345
#     4  10  20  35  60  81 116 157 193 240 296 357
#     4  11  21  38  63  90 115 159 203 243 300 356
#     4  10  22  41  60  81 122 163 197 235 302 359
#     4  10  19  34  58  84 116 147 198 253 285 340
#     4  11  21  35  61  89 116 144 197 254 295 337
#
# _framework density 20.079512000000001
#
# number of rings (size 3 to 8) (size 9 to 14) (size 15 to 20)
#    0.000    1.714    2.857    4.286    2.000    0.000 
#    0.000   15.000    0.000    0.000    0.000    0.000 
#    0.000    0.000    0.000    0.000    0.000    0.000 
#
# Total GULP energy -156112.733876 kJ/mol
# GULP energy per Si atom -5575.454781 kJ/mol
# Density = 2.003381 g / cm^3
# Si number density = 20.079512 Si / 1000 Ang^3
#
#
#
# Elastic Constant Matrix: (Units=GPa)
#
#
# Indices 1 2 3 4 5 6 
#
# 1 128.3608 39.7369 27.1019 0.0000 9.9792 0.0000
# 2 39.7369 72.8868 3.8497 0.0000 6.4218 0.0000
# 3 27.1019 3.8497 52.2034 0.0000 -0.5764 0.0000
# 4 0.0000 0.0000 0.0000 22.1856 0.0000 -4.2918
# 5 9.9792 6.4218 -0.5764 0.0000 28.2132 0.0000
# 6 0.0000 0.0000 0.0000 -4.2918 0.0000 25.0534
#
#
#
# Elastic Compliance Matrix: (Units=1/GPa)
#
#
# Indices 1 2 3 4 5 6 
#
# 1 0.010759 -0.005353 -0.005221 0.000000 -0.002694 0.000000
# 2 -0.005353 0.016723 0.001525 0.000000 -0.001882 0.000000
# 3 -0.005221 0.001525 0.021775 0.000000 0.001944 0.000000
# 4 0.000000 0.000000 0.000000 0.046619 0.000000 0.007986
# 5 -0.002694 -0.001882 0.001944 0.000000 0.036865 0.000000
# 6 0.000000 0.000000 0.000000 0.007986 0.000000 0.041283
#
#
# Mechanical properties :
#
#
# Convention : Reuss Voigt Hill
#
# Bulk Modulus (GPa) = 32.09168 43.86979 37.98073
# Shear Modulus (GPa) = 24.69015 27.27461 25.98238
#
# Velocity S-wave (km/s) = 3.51040 3.68955 3.60109
# Velocity P-wave (km/s) = 5.69627 6.32818 6.02052
#
# Compressibility (1/GPa) = 0.03116072
#
# Stress axis : x y z
#
# Youngs Moduli (GPa) = 92.94237 59.79633 45.92357
#
# Poissons Ratio (x) = 0.32007 0.23976
# Poissons Ratio (y) = 0.49750 -0.07003
# Poissons Ratio (z) = 0.48524 -0.09118
#
# Static dielectric constant tensor:
#      x y z
#    x 1.883380 0.000000 -0.062500 
#    y 0.000000 1.687120 0.000000 
#    z -0.062500 0.000000 1.769110 
# 
# From -- ./inp_files/146166.got.cif
#   From: 2010.05.17/outbox.cif.g08.bks.cpg/sg15_74_cif.got.tgz:146166.got - 2010.06.03 18:47:42.
