data_PCOD9263351
_publ_section_title
;
Structure prediction by ZEFSAII (Michael W. Deem and Ramdas Pophale) SiO2 
 PCOD9263351
Probable space group: C 2/C
;
_chemical_formula_sum "Si O2"
_cell_formula_units_Z 64
_cell_length_a 29.967023
_cell_length_b 20.612320
_cell_length_c 13.060376
_cell_angle_alpha 90.000000
_cell_angle_beta 155.199508
_cell_angle_gamma 90.000000
_cell_volume 3383.892698
_symmetry_space_group_name_H-M "C 2/C"
_symmetry_group_IT_number 15
_symmetry_cell_setting 'monoclinic'
loop_
_space_group_symop_operation_xyz
x,y,z
-x,y,1/2-z
-x,-y,-z
x,-y,1/2+z
1/2+x,1/2+y,z
1/2-x,1/2+y,1/2-z
1/2-x,1/2-y,-z
1/2+x,1/2-y,1/2+z
loop_
_atom_site_type_symbol
_atom_site_label
_atom_site_fract_x
_atom_site_fract_y
_atom_site_fract_z
Si Si1 0.402214 0.545382 0.329036
Si Si2 0.352141 0.315481 0.234473
Si Si3 0.287779 0.559051 0.698759
Si Si4 0.783053 0.430396 0.217861
Si Si5 0.406125 0.962321 0.864932
Si Si6 0.101669 0.678697 0.165991
Si Si7 0.059100 0.316788 0.980902
Si Si8 0.986502 0.827600 0.104655
O O1 0.500000 0.500000 0.500000
O O2 0.348700 0.508451 0.313199
O O3 0.433565 0.616372 0.429528
O O4 0.318806 0.552526 0.063078
O O5 0.365498 0.383300 0.321324
O O6 0.406276 0.251511 0.397662
O O7 0.402591 0.316043 0.225409
O O8 0.223910 0.315177 0.959036
O O9 0.247910 0.573446 0.728599
O O10 0.187596 0.550097 0.413537
O O11 0.865306 0.488681 0.366438
O O12 0.840408 0.363840 0.303424
O O13 0.420860 0.888929 0.939012
O O14 0.500000 0.000000 0.000000
O O15 0.023019 0.671129 0.098313
O O16 0.078779 0.239662 0.027635
O O17 0.000000 0.329535 0.750000
O O18 0.000000 0.848007 0.250000
#
# Coordination Sequence:
#
# PCOD9263351 Si02
#       8
#     8   8   8   8   8   8   8   8
#     4  11  24  41  58  86 121 160 203 251 308 356
#     4   9  17  34  54  87 113 152 201 235 296 350
#     4  10  22  37  58  85 118 154 202 248 301 364
#     4  11  24  37  60  90 119 159 202 250 304 366
#     4  10  19  34  55  89 122 156 189 242 305 361
#     4   9  17  30  56  80 120 152 186 247 289 350
#     4  10  19  36  60  92 118 155 203 242 306 367
#     4  10  22  37  63  87 117 157 201 255 299 359
#
# _framework density 18.913129000000001
#
# number of rings (size 3 to 8) (size 9 to 14) (size 15 to 20)
#    0.000    2.000    2.500    1.500    1.750    1.500 
#    0.000    0.000    0.000    0.000    3.250    0.000 
#    0.000    0.000    0.000    0.000    0.000    0.000 
#
# Total GULP energy -178149.476789 kJ/mol
# GULP energy per Si atom -5567.171150 kJ/mol
# Density = 1.887008 g / cm^3
# Si number density = 18.913129 Si / 1000 Ang^3
#
#
#
# Elastic Constant Matrix: (Units=GPa)
#
#
# Indices 1 2 3 4 5 6 
#
# 1 97.1726 23.5394 17.8461 0.0000 9.3341 0.0000
# 2 23.5394 95.6418 33.8286 0.0000 3.2516 0.0000
# 3 17.8461 33.8286 33.9274 0.0000 14.7567 0.0000
# 4 0.0000 0.0000 0.0000 27.2686 0.0000 14.4039
# 5 9.3341 3.2516 14.7567 0.0000 18.6851 0.0000
# 6 0.0000 0.0000 0.0000 14.4039 0.0000 23.4352
#
#
#
# Elastic Compliance Matrix: (Units=1/GPa)
#
#
# Indices 1 2 3 4 5 6 
#
# 1 0.011552 -0.001628 -0.003148 0.000000 -0.003001 0.000000
# 2 -0.001628 0.019760 -0.026968 0.000000 0.018673 0.000000
# 3 -0.003148 -0.026968 0.084227 0.000000 -0.060254 0.000000
# 4 0.000000 0.000000 0.000000 0.054302 0.000000 -0.033375
# 5 -0.003001 0.018673 -0.060254 0.000000 0.099354 0.000000
# 6 0.000000 0.000000 0.000000 -0.033375 0.000000 0.063184
#
#
# Mechanical properties :
#
#
# Convention : Reuss Voigt Hill
#
# Bulk Modulus (GPa) = 19.21168 41.90778 30.55973
# Shear Modulus (GPa) = 12.10018 23.97963 18.03990
#
# Velocity S-wave (km/s) = 2.53212 3.56460 3.09176
# Velocity P-wave (km/s) = 4.32768 6.25683 5.37944
#
# Compressibility (1/GPa) = 0.05205166
#
# Stress axis : x y z
#
# Youngs Moduli (GPa) = 86.56752 50.60728 11.87265
#
# Poissons Ratio (x) = 0.08237 0.03738
# Poissons Ratio (y) = 0.14090 0.32018
# Poissons Ratio (z) = 0.27252 1.36477
#
# Static dielectric constant tensor:
#      x y z
#    x 1.652120 0.000000 0.028030 
#    y 0.000000 1.777420 0.000000 
#    z 0.028030 0.000000 1.654570 
# 
# From -- ./inp_files/124299.got.cif
#   From: 2010.05.17/outbox.cif.g08.bks.cpg/sg15_63_cif.got.tgz:124299.got - 2010.06.03 18:47:42.
