data_PCOD9263999
_publ_section_title
;
Structure prediction by ZEFSAII (Michael W. Deem and Ramdas Pophale) SiO2 
 PCOD9263999
Probable space group: C 2/C
;
_chemical_formula_sum "Si O2"
_cell_formula_units_Z 40
_cell_length_a 20.929629
_cell_length_b 12.454727
_cell_length_c 8.493194
_cell_angle_alpha 90.000000
_cell_angle_beta 65.554808
_cell_angle_gamma 90.000000
_cell_volume 2015.481338
_symmetry_space_group_name_H-M "C 2/C"
_symmetry_group_IT_number 15
_symmetry_cell_setting 'monoclinic'
loop_
_space_group_symop_operation_xyz
x,y,z
-x,y,1/2-z
-x,-y,-z
x,-y,1/2+z
1/2+x,1/2+y,z
1/2-x,1/2+y,1/2-z
1/2-x,1/2-y,-z
1/2+x,1/2-y,1/2+z
loop_
_atom_site_type_symbol
_atom_site_label
_atom_site_fract_x
_atom_site_fract_y
_atom_site_fract_z
Si Si1 0.285112 0.391251 0.777642
Si Si2 0.655198 0.847340 0.727802
Si Si3 0.613521 0.237987 0.942654
Si Si4 0.016424 0.380985 0.048568
Si Si5 0.215658 0.429503 0.167919
O O1 0.229783 0.320641 0.730273
O O2 0.361473 0.351295 0.652730
O O3 0.266559 0.511760 0.740901
O O4 0.262072 0.382543 0.980700
O O5 0.631174 0.774794 0.608493
O O6 0.596227 0.854060 0.921956
O O7 0.668319 0.030119 0.153300
O O8 0.534854 0.202066 0.987163
O O9 0.837253 0.346952 0.200484
O O10 0.000000 0.377772 0.250000
O O11 0.000000 0.500000 0.000000
#
# Coordination Sequence:
#
# PCOD9263999 Si02
#       5
#     8   8   8   8   8
#     4  10  21  35  57  85 116 151 193 234 285 339
#     4  10  20  36  53  81 118 151 181 233 289 336
#     4  12  21  35  58  86 112 155 197 229 287 345
#     4  12  23  35  54  82 118 154 182 232 290 344
#     4  10  19  35  52  80 121 145 188 234 285 323
#
# _framework density 19.846374999999998
#
# number of rings (size 3 to 8) (size 9 to 14) (size 15 to 20)
#    1.200    0.000    4.000    4.200    0.000    0.000 
#    0.000    0.000    0.000    0.000    0.000   19.600 
#    0.000    0.000    0.000    0.000    0.000    0.000 
#
# Total GULP energy -111620.634831 kJ/mol
# GULP energy per Si atom -5581.031742 kJ/mol
# Density = 1.980120 g / cm^3
# Si number density = 19.846375 Si / 1000 Ang^3
#
#
#
# Elastic Constant Matrix: (Units=GPa)
#
#
# Indices 1 2 3 4 5 6 
#
# 1 58.4789 -1.9253 0.0069 0.0000 -6.0270 0.0000
# 2 -1.9253 20.1907 -6.2446 0.0000 -3.6048 0.0000
# 3 0.0069 -6.2446 107.1265 0.0000 -10.5375 0.0000
# 4 0.0000 0.0000 0.0000 24.1945 0.0000 -13.3897
# 5 -6.0270 -3.6048 -10.5375 0.0000 21.2448 0.0000
# 6 0.0000 0.0000 0.0000 -13.3897 0.0000 30.1029
#
#
#
# Elastic Compliance Matrix: (Units=1/GPa)
#
#
# Indices 1 2 3 4 5 6 
#
# 1 0.017810 0.002992 0.000757 0.000000 0.005936 0.000000
# 2 0.002992 0.053285 0.004288 0.000000 0.012017 0.000000
# 3 0.000757 0.004288 0.010174 0.000000 0.005989 0.000000
# 4 0.000000 0.000000 0.000000 0.054828 0.000000 0.024388
# 5 0.005936 0.012017 0.005989 0.000000 0.053764 0.000000
# 6 0.000000 0.000000 0.000000 0.024388 0.000000 0.044067
#
#
# Mechanical properties :
#
#
# Convention : Reuss Voigt Hill
#
# Bulk Modulus (GPa) = 10.27287 18.83001 14.55144
# Shear Modulus (GPa) = 19.97597 28.03906 24.00751
#
# Velocity S-wave (km/s) = 3.17603 3.76281 3.48180
# Velocity P-wave (km/s) = 4.31706 5.32792 4.84890
#
# Compressibility (1/GPa) = 0.09734375
#
# Stress axis : x y z
#
# Youngs Moduli (GPa) = 56.14698 18.76710 98.29239
#
# Poissons Ratio (x) = -0.05616 -0.07442
# Poissons Ratio (y) = -0.16801 -0.42147
# Poissons Ratio (z) = -0.04251 -0.08047
#
# Static dielectric constant tensor:
#      x y z
#    x 1.696530 0.000000 0.031780 
#    y 0.000000 1.742570 0.000000 
#    z 0.031780 0.000000 1.686020 
# 
# From -- ./inp_files/54156.got.cif
#   From: 2010.05.17/outbox.cif.g08.bks.cpg/sg15_28_cif.got.tgz:54156.got - 2010.06.03 18:47:42.
