data_PCOD9263233
_publ_section_title
;
Structure prediction by ZEFSAII (Michael W. Deem and Ramdas Pophale) SiO2 
 PCOD9263233
Probable space group: C 2/C
;
_chemical_formula_sum "Si O2"
_cell_formula_units_Z 56
_cell_length_a 26.186225
_cell_length_b 12.626848
_cell_length_c 8.380264
_cell_angle_alpha 90.000000
_cell_angle_beta 78.150880
_cell_angle_gamma 90.000000
_cell_volume 2711.886187
_symmetry_space_group_name_H-M "C 2/C"
_symmetry_group_IT_number 15
_symmetry_cell_setting 'monoclinic'
loop_
_space_group_symop_operation_xyz
x,y,z
-x,y,1/2-z
-x,-y,-z
x,-y,1/2+z
1/2+x,1/2+y,z
1/2-x,1/2+y,1/2-z
1/2-x,1/2-y,-z
1/2+x,1/2-y,1/2+z
loop_
_atom_site_type_symbol
_atom_site_label
_atom_site_fract_x
_atom_site_fract_y
_atom_site_fract_z
Si Si1 0.553206 0.415301 0.628750
Si Si2 0.649069 0.321281 0.999602
Si Si3 0.551691 0.648659 0.759529
Si Si4 0.331023 0.564900 0.480061
Si Si5 0.318296 0.847541 0.229943
Si Si6 0.288312 0.943848 0.572274
Si Si7 0.208144 0.239082 0.750032
O O1 0.500000 0.372270 0.750000
O O2 0.547504 0.541492 0.655367
O O3 0.553043 0.381167 0.444210
O O4 0.614395 0.401510 0.641881
O O5 0.603507 0.301901 0.157248
O O6 0.656803 0.446310 0.960561
O O7 0.698966 0.289387 0.073369
O O8 0.641189 0.236926 0.864225
O O9 0.500000 0.712997 0.750000
O O10 0.274556 0.556587 0.426840
O O11 0.322377 0.651734 0.623541
O O12 0.320846 0.901911 0.399755
O O13 0.266559 0.776892 0.273552
O O14 0.305835 0.940783 0.114345
O O15 0.302167 0.860627 0.702333
#
# Coordination Sequence:
#
# PCOD9263233 Si02
#       7
#     8   8   8   8   8   8   8
#     4  10  19  34  54  80 114 149 192 228 283 346
#     4  11  22  37  60  83 117 156 191 239 284 343
#     4  10  20  37  52  82 113 151 188 238 286 341
#     4  10  21  35  55  84 119 154 188 229 290 330
#     4  11  23  38  57  84 113 159 197 232 282 332
#     4  11  24  39  57  82 122 156 196 236 275 344
#     4  11  22  38  56  83 117 152 201 229 281 341
#
# _framework density 20.649834999999999
#
# number of rings (size 3 to 8) (size 9 to 14) (size 15 to 20)
#    0.000    1.429    2.857    4.714    4.000    1.143 
#   10.286    0.000    0.000    0.000    0.000    5.000 
#    0.000    0.000    0.000    0.000    0.000    0.000 
#
# Total GULP energy -156041.751697 kJ/mol
# GULP energy per Si atom -5572.919703 kJ/mol
# Density = 2.060283 g / cm^3
# Si number density = 20.649835 Si / 1000 Ang^3
#
#
#
# Elastic Constant Matrix: (Units=GPa)
#
#
# Indices 1 2 3 4 5 6 
#
# 1 58.5696 13.4266 34.8610 0.0000 -12.1904 0.0000
# 2 13.4266 110.4797 41.9886 0.0000 1.7502 0.0000
# 3 34.8610 41.9886 77.6503 0.0000 -20.2728 0.0000
# 4 0.0000 0.0000 0.0000 31.4424 0.0000 -10.5345
# 5 -12.1904 1.7502 -20.2728 0.0000 35.6429 0.0000
# 6 0.0000 0.0000 0.0000 -10.5345 0.0000 0.2676
#
#
#
# Elastic Compliance Matrix: (Units=1/GPa)
#
#
# Indices 1 2 3 4 5 6 
#
# 1 0.023586 0.001182 -0.010730 0.000000 0.001906 0.000000
# 2 0.001182 0.012188 -0.008422 0.000000 -0.004985 0.000000
# 3 -0.010730 -0.008422 0.025132 0.000000 0.011038 0.000000
# 4 0.000000 0.000000 0.000000 -0.002610 0.000000 -0.102715
# 5 0.001906 -0.004985 0.011038 0.000000 0.035231 0.000000
# 6 0.000000 0.000000 0.000000 -0.102715 0.000000 -0.306575
#
#
# Mechanical properties :
#
#
# Convention : Reuss Voigt Hill
#
# Bulk Modulus (GPa) = 40.05863 47.47246 43.76555
# Shear Modulus (GPa) = -29.62354 23.89881 -2.86237
#
# Velocity S-wave (km/s) = -3.79167 3.40566 -1.17862
# Velocity P-wave (km/s) = 0.52159 6.20515 4.40317
#
# Compressibility (1/GPa) = 0.02496341
#
# Stress axis : x y z
#
# Youngs Moduli (GPa) = 42.39751 82.04968 39.79052
#
# Poissons Ratio (x) = -0.09694 0.42697
# Poissons Ratio (y) = -0.05009 0.33513
# Poissons Ratio (z) = 0.45494 0.69104
#
# Static dielectric constant tensor:
#      x y z
#    x 1.871970 0.000000 -0.029600 
#    y 0.000000 1.737800 0.000000 
#    z -0.029600 0.000000 1.835290 
# 
# From -- ./inp_files/69043.got.cif
#   From: 2010.05.17/outbox.cif.g08.bks.cpg/sg15_35_cif.got.tgz:69043.got - 2010.06.03 18:47:42.
