data_PCOD9263805
_publ_section_title
;
Structure prediction by ZEFSAII (Michael W. Deem and Ramdas Pophale) SiO2 
 PCOD9263805
Probable space group: C 2/C
;
_chemical_formula_sum "Si O2"
_cell_formula_units_Z 60
_cell_length_a 26.554154
_cell_length_b 13.942718
_cell_length_c 10.710924
_cell_angle_alpha 90.000000
_cell_angle_beta 145.033028
_cell_angle_gamma 90.000000
_cell_volume 2272.691036
_symmetry_space_group_name_H-M "C 2/C"
_symmetry_group_IT_number 15
_symmetry_cell_setting 'monoclinic'
loop_
_space_group_symop_operation_xyz
x,y,z
-x,y,1/2-z
-x,-y,-z
x,-y,1/2+z
1/2+x,1/2+y,z
1/2-x,1/2+y,1/2-z
1/2-x,1/2-y,-z
1/2+x,1/2-y,1/2+z
loop_
_atom_site_type_symbol
_atom_site_label
_atom_site_fract_x
_atom_site_fract_y
_atom_site_fract_z
Si Si1 0.463874 0.329067 0.407338
Si Si2 0.929687 0.422850 0.220763
Si Si3 0.159728 0.878960 0.747142
Si Si4 0.463705 0.872198 0.815910
Si Si5 0.235020 0.620775 0.260402
Si Si6 0.500000 0.631561 0.250000
Si Si7 0.307905 0.406314 0.420991
Si Si8 0.282296 0.595228 0.605556
O O1 0.553805 0.374782 0.537846
O O2 0.434104 0.234477 0.277958
O O3 0.483172 0.307123 0.592601
O O4 0.379789 0.395472 0.242610
O O5 0.966395 0.387486 0.428320
O O6 0.000000 0.425664 0.250000
O O7 0.902879 0.533745 0.196666
O O8 0.850197 0.367151 0.997602
O O9 0.189337 0.836848 0.674984
O O10 0.209707 0.981897 0.847250
O O11 0.191714 0.845752 0.950170
O O12 0.500000 0.873778 0.750000
O O13 0.255347 0.505921 0.326946
O O14 0.222586 0.645774 0.380201
O O15 0.588459 0.572839 0.398597
O O16 0.275937 0.356675 0.228955
#
# Coordination Sequence:
#
# PCOD9263805 Si02
#       8
#     8   8   8   8   8   4   8   8
#     4  10  19  34  60  92 132 159 196 240 299 367
#     4  10  24  48  68  82 107 155 214 264 309 359
#     4   9  18  31  55  92 129 167 188 234 297 366
#     4  10  24  41  65  92 110 151 207 265 307 346
#     4  10  20  34  61  89 116 153 201 251 301 357
#     4   8  16  32  54  84 128 168 192 220 284 370
#     4   8  16  30  50  84 123 161 196 230 275 350
#     4   9  18  31  56  90 130 164 197 229 289 367
#
# _framework density 26.40042
#
# number of rings (size 3 to 8) (size 9 to 14) (size 15 to 20)
#    0.000    2.667    0.000    0.400    2.800   12.800 
#    0.000    0.667    8.800    4.800    0.000    0.000 
#    0.000    0.000    0.000    0.000    0.000    0.000 
#
# Total GULP energy -167395.953849 kJ/mol
# GULP energy per Si atom -5579.865128 kJ/mol
# Density = 2.634033 g / cm^3
# Si number density = 26.400420 Si / 1000 Ang^3
#
#
#
# Elastic Constant Matrix: (Units=GPa)
#
#
# Indices 1 2 3 4 5 6 
#
# 1 121.0424 22.3802 38.2344 0.0000 -33.0064 0.0000
# 2 22.3802 54.1682 11.4544 0.0000 -6.7076 0.0000
# 3 38.2344 11.4544 116.8090 0.0000 -38.0511 0.0000
# 4 0.0000 0.0000 0.0000 21.0065 0.0000 -9.3208
# 5 -33.0064 -6.7076 -38.0511 0.0000 54.2903 0.0000
# 6 0.0000 0.0000 0.0000 -9.3208 0.0000 20.2113
#
#
#
# Elastic Compliance Matrix: (Units=1/GPa)
#
#
# Indices 1 2 3 4 5 6 
#
# 1 0.010768 -0.003500 -0.001542 0.000000 0.005034 0.000000
# 2 -0.003500 0.020065 -0.000917 0.000000 -0.000291 0.000000
# 3 -0.001542 -0.000917 0.011421 0.000000 0.006954 0.000000
# 4 0.000000 0.000000 0.000000 0.059852 0.000000 0.027602
# 5 0.005034 -0.000291 0.006954 0.000000 0.026318 0.000000
# 6 0.000000 0.000000 0.000000 0.027602 0.000000 0.062206
#
#
# Mechanical properties :
#
#
# Convention : Reuss Voigt Hill
#
# Bulk Modulus (GPa) = 32.96291 48.46194 40.71242
# Shear Modulus (GPa) = 23.51186 33.76499 28.63842
#
# Velocity S-wave (km/s) = 2.98751 3.58013 3.29716
# Velocity P-wave (km/s) = 4.94096 5.95702 5.47262
#
# Compressibility (1/GPa) = 0.03033713
#
# Stress axis : x y z
#
# Youngs Moduli (GPa) = 92.86543 49.83857 87.55895
#
# Poissons Ratio (x) = 0.17442 0.13500
# Poissons Ratio (y) = 0.32500 0.08029
# Poissons Ratio (z) = 0.14318 0.04570
#
# Static dielectric constant tensor:
#      x y z
#    x 2.132640 0.000000 -0.050140 
#    y 0.000000 2.087280 0.000000 
#    z -0.050140 0.000000 2.179480 
# 
# From -- ./inp_files/127237.got.cif
#   From: 2010.05.17/outbox.cif.g08.bks.cpg/sg15_64_cif.got.tgz:127237.got - 2010.06.03 18:47:42.
