data_PCOD9263674
_publ_section_title
;
Structure prediction by ZEFSAII (Michael W. Deem and Ramdas Pophale) SiO2 
 PCOD9263674
Probable space group: C 2/C
;
_chemical_formula_sum "Si O2"
_cell_formula_units_Z 60
_cell_length_a 10.737121
_cell_length_b 14.701388
_cell_length_c 19.391710
_cell_angle_alpha 90.000000
_cell_angle_beta 62.825234
_cell_angle_gamma 90.000000
_cell_volume 2723.112986
_symmetry_space_group_name_H-M "C 2/C"
_symmetry_group_IT_number 15
_symmetry_cell_setting 'monoclinic'
loop_
_space_group_symop_operation_xyz
x,y,z
-x,y,1/2-z
-x,-y,-z
x,-y,1/2+z
1/2+x,1/2+y,z
1/2-x,1/2+y,1/2-z
1/2-x,1/2-y,-z
1/2+x,1/2-y,1/2+z
loop_
_atom_site_type_symbol
_atom_site_label
_atom_site_fract_x
_atom_site_fract_y
_atom_site_fract_z
Si Si1 0.841072 0.481889 0.384438
Si Si2 0.896825 0.263490 0.890971
Si Si3 0.847480 0.466781 0.139988
Si Si4 0.840175 0.135235 0.288158
Si Si5 0.837057 0.729687 0.662757
Si Si6 0.500000 0.116210 0.250000
Si Si7 0.838820 0.724386 0.911630
Si Si8 0.262210 0.400205 0.477754
O O1 0.880841 0.545080 0.308384
O O2 0.810180 0.374880 0.385023
O O3 0.725475 0.530089 0.461879
O O4 0.988126 0.482167 0.390022
O O5 0.762493 0.258553 0.873967
O O6 0.896897 0.160839 0.921295
O O7 0.009837 0.313047 0.812927
O O8 0.854289 0.329259 0.964031
O O9 0.764709 0.552800 0.186926
O O10 0.802960 0.374458 0.190620
O O11 0.800716 0.449184 0.073164
O O12 0.825462 0.200358 0.226931
O O13 0.817888 0.198301 0.360173
O O14 0.000000 0.100672 0.250000
O O15 0.000464 0.725432 0.603735
O O16 0.750000 0.750000 0.000000
#
# Coordination Sequence:
#
# PCOD9263674 Si02
#       8
#     8   8   8   8   8   4   8   8
#     4  10  20  32  58  85 111 143 201 243 285 345
#     4   9  18  35  53  80 119 146 190 235 291 338
#     4  10  19  34  59  82 113 147 207 236 286 348
#     4  10  21  37  58  81 120 156 187 239 303 348
#     4   9  20  37  57  84 112 153 191 245 286 349
#     4  10  20  32  56  86 110 152 190 246 292 338
#     4  10  21  36  59  83 114 146 194 242 293 346
#     4   9  18  33  53  80 112 151 180 240 288 333
#
# _framework density 22.033607
#
# number of rings (size 3 to 8) (size 9 to 14) (size 15 to 20)
#    0.000    2.400    0.000    2.000    4.667    2.133 
#    4.800    1.333    0.000    4.800    0.000    0.000 
#    0.000    0.000    0.000    0.000    0.000    0.000 
#
# Total GULP energy -167383.560489 kJ/mol
# GULP energy per Si atom -5579.452016 kJ/mol
# Density = 2.198346 g / cm^3
# Si number density = 22.033607 Si / 1000 Ang^3
#
#
#
# Elastic Constant Matrix: (Units=GPa)
#
#
# Indices 1 2 3 4 5 6 
#
# 1 43.2620 41.5637 24.2742 0.0000 -3.0706 0.0000
# 2 41.5637 131.1888 41.3195 0.0000 -18.8408 0.0000
# 3 24.2742 41.3195 103.9505 0.0000 -14.3685 0.0000
# 4 0.0000 0.0000 0.0000 18.0682 0.0000 -8.6329
# 5 -3.0706 -18.8408 -14.3685 0.0000 18.9449 0.0000
# 6 0.0000 0.0000 0.0000 -8.6329 0.0000 24.9536
#
#
#
# Elastic Compliance Matrix: (Units=1/GPa)
#
#
# Indices 1 2 3 4 5 6 
#
# 1 0.036080 -0.011085 -0.005289 0.000000 -0.009187 0.000000
# 2 -0.011085 0.012966 -0.001152 0.000000 0.010224 0.000000
# 3 -0.005289 -0.001152 0.012329 0.000000 0.007347 0.000000
# 4 0.000000 0.000000 0.000000 0.066306 0.000000 0.022939
# 5 -0.009187 0.010224 0.007347 0.000000 0.067036 0.000000
# 6 0.000000 0.000000 0.000000 0.022939 0.000000 0.048010
#
#
# Mechanical properties :
#
#
# Convention : Reuss Voigt Hill
#
# Bulk Modulus (GPa) = 37.99014 54.74623 46.36818
# Shear Modulus (GPa) = 17.44879 23.80961 20.62920
#
# Velocity S-wave (km/s) = 2.81715 3.29082 3.06316
# Velocity P-wave (km/s) = 5.27837 6.27216 5.79660
#
# Compressibility (1/GPa) = 0.02632262
#
# Stress axis : x y z
#
# Youngs Moduli (GPa) = 27.71615 77.12677 81.11214
#
# Poissons Ratio (x) = 0.85492 0.42902
# Poissons Ratio (y) = 0.30722 0.09345
# Poissons Ratio (z) = 0.14660 0.08886
#
# Static dielectric constant tensor:
#      x y z
#    x 1.833590 0.000000 -0.000430 
#    y 0.000000 1.855780 0.000000 
#    z -0.000430 0.000000 1.837390 
# 
# From -- ./inp_files/198272.got.cif
#   From: 2010.05.17/outbox.cif.g08.bks.cpg/sg15_100_cif.got.tgz:198272.got - 2010.06.03 18:47:42.
