data_PCOD9263353
_publ_section_title
;
Structure prediction by ZEFSAII (Michael W. Deem and Ramdas Pophale) SiO2 
 PCOD9263353
Probable space group: C 2/C
;
_chemical_formula_sum "Si O2"
_cell_formula_units_Z 64
_cell_length_a 14.589802
_cell_length_b 28.246600
_cell_length_c 8.530476
_cell_angle_alpha 90.000000
_cell_angle_beta 123.305919
_cell_angle_gamma 90.000000
_cell_volume 2938.093153
_symmetry_space_group_name_H-M "C 2/C"
_symmetry_group_IT_number 15
_symmetry_cell_setting 'monoclinic'
loop_
_space_group_symop_operation_xyz
x,y,z
-x,y,1/2-z
-x,-y,-z
x,-y,1/2+z
1/2+x,1/2+y,z
1/2-x,1/2+y,1/2-z
1/2-x,1/2-y,-z
1/2+x,1/2-y,1/2+z
loop_
_atom_site_type_symbol
_atom_site_label
_atom_site_fract_x
_atom_site_fract_y
_atom_site_fract_z
Si Si1 0.911015 0.719987 0.794132
Si Si2 0.221532 0.459460 0.688030
Si Si3 0.279735 0.638747 0.407064
Si Si4 0.947222 0.668865 0.366867
Si Si5 0.529159 0.322918 0.614150
Si Si6 0.755864 0.443402 0.160622
Si Si7 0.296532 0.340554 0.291245
Si Si8 0.009017 0.566851 0.450006
O O1 0.902489 0.776173 0.767552
O O2 0.801941 0.689299 0.718825
O O3 0.000000 0.702151 0.750000
O O4 0.984323 0.713406 0.016578
O O5 0.249779 0.414933 0.828100
O O6 0.239085 0.449371 0.521720
O O7 0.283747 0.506580 0.804187
O O8 0.089881 0.465305 0.580768
O O9 0.182668 0.672282 0.249345
O O10 0.394345 0.650098 0.434767
O O11 0.276415 0.650093 0.588028
O O12 0.975716 0.619746 0.478623
O O13 0.000000 0.658214 0.250000
O O14 0.500000 0.348606 0.750000
O O15 0.411335 0.314193 0.425059
O O16 0.695833 0.393793 0.134262
O O17 0.871825 0.437869 0.361955
O O18 0.000000 0.562272 0.250000
#
# Coordination Sequence:
#
# PCOD9263353 Si02
#       8
#     8   8   8   8   8   8   8   8
#     4  11  26  41  68 101 136 175 226 278 344 406
#     4  11  24  37  64  94 137 178 223 279 337 406
#     4  11  24  45  68  96 137 179 226 282 340 403
#     4  10  19  37  62  96 131 173 218 272 331 396
#     4  11  28  47  67  98 133 179 231 285 339 404
#     4  12  22  39  62  97 134 179 227 276 340 402
#     4  12  25  46  70  98 136 180 229 283 342 408
#     4  10  19  34  55  90 135 176 219 271 333 398
#
# _framework density 21.782834999999999
#
# number of rings (size 3 to 8) (size 9 to 14) (size 15 to 20)
#    0.000    1.000    2.500    4.875    7.000    2.500 
#    0.000    0.625    0.000    0.000    0.000    0.000 
#    0.000    0.000    0.000    0.000    0.000    0.000 
#
# Total GULP energy -178361.723871 kJ/mol
# GULP energy per Si atom -5573.803871 kJ/mol
# Density = 2.173326 g / cm^3
# Si number density = 21.782835 Si / 1000 Ang^3
#
#
#
# Elastic Constant Matrix: (Units=GPa)
#
#
# Indices 1 2 3 4 5 6 
#
# 1 108.9471 26.0887 12.0919 0.0000 12.1877 0.0000
# 2 26.0887 56.2470 0.6907 0.0000 9.6217 0.0000
# 3 12.0919 0.6907 59.6453 0.0000 5.2649 0.0000
# 4 0.0000 0.0000 0.0000 22.0279 0.0000 -3.1455
# 5 12.1877 9.6217 5.2649 0.0000 33.3974 0.0000
# 6 0.0000 0.0000 0.0000 -3.1455 0.0000 23.7980
#
#
#
# Elastic Compliance Matrix: (Units=1/GPa)
#
#
# Indices 1 2 3 4 5 6 
#
# 1 0.010743 -0.004565 -0.001922 0.000000 -0.002302 0.000000
# 2 -0.004565 0.020645 0.001079 0.000000 -0.004452 0.000000
# 3 -0.001922 0.001079 0.017350 0.000000 -0.002345 0.000000
# 4 0.000000 0.000000 0.000000 0.046270 0.000000 0.006116
# 5 -0.002302 -0.004452 -0.002345 0.000000 0.032435 0.000000
# 6 0.000000 0.000000 0.000000 0.006116 0.000000 0.042829
#
#
# Mechanical properties :
#
#
# Convention : Reuss Voigt Hill
#
# Bulk Modulus (GPa) = 26.37015 33.62023 29.99519
# Shear Modulus (GPa) = 25.80951 28.24253 27.02602
#
# Velocity S-wave (km/s) = 3.44591 3.60467 3.52618
# Velocity P-wave (km/s) = 5.28815 5.72649 5.51168
#
# Compressibility (1/GPa) = 0.03792167
#
# Stress axis : x y z
#
# Youngs Moduli (GPa) = 93.08519 48.43893 57.63737
#
# Poissons Ratio (x) = 0.22114 0.11077
# Poissons Ratio (y) = 0.42497 -0.06222
# Poissons Ratio (z) = 0.17889 -0.05229
#
# Static dielectric constant tensor:
#      x y z
#    x 1.723930 0.000000 0.021300 
#    y 0.000000 1.881050 0.000000 
#    z 0.021300 0.000000 1.836750 
# 
# From -- ./inp_files/44860.got.cif
#   From: 2010.05.17/outbox.cif.g08.bks.cpg/sg15_23_cif.got.tgz:44860.got - 2010.06.03 18:47:42.
