data_PCOD9263148
_publ_section_title
;
Structure prediction by ZEFSAII (Michael W. Deem and Ramdas Pophale) SiO2 
 PCOD9263148
Probable space group: C 2/C
;
_chemical_formula_sum "Si O2"
_cell_formula_units_Z 48
_cell_length_a 11.600385
_cell_length_b 16.930203
_cell_length_c 13.201050
_cell_angle_alpha 90.000000
_cell_angle_beta 103.048479
_cell_angle_gamma 90.000000
_cell_volume 2525.701242
_symmetry_space_group_name_H-M "C 2/C"
_symmetry_group_IT_number 15
_symmetry_cell_setting 'monoclinic'
loop_
_space_group_symop_operation_xyz
x,y,z
-x,y,1/2-z
-x,-y,-z
x,-y,1/2+z
1/2+x,1/2+y,z
1/2-x,1/2+y,1/2-z
1/2-x,1/2-y,-z
1/2+x,1/2-y,1/2+z
loop_
_atom_site_type_symbol
_atom_site_label
_atom_site_fract_x
_atom_site_fract_y
_atom_site_fract_z
Si Si1 0.421463 0.106938 0.444243
Si Si2 0.375204 0.141140 0.669489
Si Si3 0.641039 0.028422 0.253943
Si Si4 0.862154 0.224081 0.835112
Si Si5 0.387449 0.692466 0.601373
Si Si6 0.820052 0.627131 0.049537
O O1 0.394082 0.121303 0.555393
O O2 0.347082 0.045473 0.362466
O O3 0.394822 0.186932 0.374356
O O4 0.560979 0.085776 0.467082
O O5 0.500000 0.162322 0.750000
O O6 0.269454 0.203617 0.656149
O O7 0.329167 0.060916 0.712900
O O8 0.500000 0.037129 0.250000
O O9 0.700603 0.090528 0.343022
O O10 0.868797 0.206145 0.717080
O O11 0.975901 0.175566 0.898911
O O12 0.297936 0.628090 0.539820
O O13 0.357298 0.780498 0.555187
#
# Coordination Sequence:
#
# PCOD9263148 Si02
#       6
#     8   8   8   8   8   8
#     4  10  19  35  55  75 111 138 167 223 271 308
#     4  11  23  34  52  82 108 138 175 215 266 322
#     4   9  19  34  54  78 108 140 173 217 270 307
#     4  10  19  34  52  78 109 141 173 216 266 304
#     4   9  17  30  56  79 100 136 181 219 247 303
#     4   9  16  31  55  81  99 133 182 216 253 309
#
# _framework density 19.004622999999999
#
# number of rings (size 3 to 8) (size 9 to 14) (size 15 to 20)
#    0.000    2.333    1.667    1.500    0.000    7.333 
#    0.000    0.833    0.000    0.000    0.000    0.000 
#    0.000    0.000    0.000    0.000    0.000    0.000 
#
# Total GULP energy -133609.617147 kJ/mol
# GULP energy per Si atom -5567.067381 kJ/mol
# Density = 1.896137 g / cm^3
# Si number density = 19.004623 Si / 1000 Ang^3
#
#
#
# Elastic Constant Matrix: (Units=GPa)
#
#
# Indices 1 2 3 4 5 6 
#
# 1 70.6672 9.3118 22.9161 0.0000 15.5026 0.0000
# 2 9.3118 31.7109 12.7578 0.0000 18.6898 0.0000
# 3 22.9161 12.7578 85.8359 0.0000 13.8007 0.0000
# 4 0.0000 0.0000 0.0000 24.1417 0.0000 4.8001
# 5 15.5026 18.6898 13.8007 0.0000 27.0514 0.0000
# 6 0.0000 0.0000 0.0000 4.8001 0.0000 15.9687
#
#
#
# Elastic Compliance Matrix: (Units=1/GPa)
#
#
# Indices 1 2 3 4 5 6 
#
# 1 0.017034 0.001837 -0.003319 0.000000 -0.009337 0.000000
# 2 0.001837 0.053771 -0.002549 0.000000 -0.036902 0.000000
# 3 -0.003319 -0.002549 0.013428 0.000000 -0.003187 0.000000
# 4 0.000000 0.000000 0.000000 0.044055 0.000000 -0.013243
# 5 -0.009337 -0.036902 -0.003187 0.000000 0.069439 0.000000
# 6 0.000000 0.000000 0.000000 -0.013243 0.000000 0.066603
#
#
# Mechanical properties :
#
#
# Convention : Reuss Voigt Hill
#
# Bulk Modulus (GPa) = 13.12880 30.90947 22.01913
# Shear Modulus (GPa) = 16.79078 22.98091 19.88585
#
# Velocity S-wave (km/s) = 2.97561 3.48117 3.23827
# Velocity P-wave (km/s) = 4.32769 5.69715 5.05897
#
# Compressibility (1/GPa) = 0.07616841
#
# Stress axis : x y z
#
# Youngs Moduli (GPa) = 58.70768 18.59750 74.47366
#
# Poissons Ratio (x) = -0.03416 0.24720
# Poissons Ratio (y) = -0.10783 0.18984
# Poissons Ratio (z) = 0.19487 0.04741
#
# Static dielectric constant tensor:
#      x y z
#    x 1.677170 0.000000 0.010020 
#    y 0.000000 1.701600 0.000000 
#    z 0.010020 0.000000 1.704960 
# 
# From -- ./inp_files/87481.got.cif
#   From: 2010.05.17/outbox.cif.g08.bks.cpg/sg15_44_cif.got.tgz:87481.got - 2010.06.03 18:47:42.
