data_PCOD9263242
_publ_section_title
;
Structure prediction by ZEFSAII (Michael W. Deem and Ramdas Pophale) SiO2 
 PCOD9263242
Probable space group: C 2/C
;
_chemical_formula_sum "Si O2"
_cell_formula_units_Z 52
_cell_length_a 6.165553
_cell_length_b 23.383190
_cell_length_c 22.135747
_cell_angle_alpha 90.000000
_cell_angle_beta 117.558649
_cell_angle_gamma 90.000000
_cell_volume 2829.223078
_symmetry_space_group_name_H-M "C 2/C"
_symmetry_group_IT_number 15
_symmetry_cell_setting 'monoclinic'
loop_
_space_group_symop_operation_xyz
x,y,z
-x,y,1/2-z
-x,-y,-z
x,-y,1/2+z
1/2+x,1/2+y,z
1/2-x,1/2+y,1/2-z
1/2-x,1/2-y,-z
1/2+x,1/2-y,1/2+z
loop_
_atom_site_type_symbol
_atom_site_label
_atom_site_fract_x
_atom_site_fract_y
_atom_site_fract_z
Si Si1 0.149685 0.326814 0.645682
Si Si2 0.500000 0.210139 0.250000
Si Si3 0.139009 0.422853 0.548382
Si Si4 0.248122 0.875093 0.070850
Si Si5 0.632537 0.710954 0.034959
Si Si6 0.509784 0.768203 0.140167
Si Si7 0.612751 0.467240 0.458111
O O1 0.135517 0.328519 0.716580
O O2 0.228672 0.377881 0.610598
O O3 0.309888 0.270718 0.649404
O O4 0.863071 0.320148 0.594022
O O5 0.281358 0.250622 0.196939
O O6 0.162550 0.400766 0.481953
O O7 0.284305 0.483018 0.572177
O O8 0.850362 0.434904 0.514741
O O9 0.442754 0.835427 0.131055
O O10 0.099724 0.923333 0.089036
O O11 0.045408 0.830925 0.022002
O O12 0.500941 0.747355 0.069585
O O13 0.750000 0.750000 0.000000
O O14 0.500000 0.500000 0.500000
#
# Coordination Sequence:
#
# PCOD9263242 Si02
#       7
#     8   4   8   8   8   8   8
#     4  11  20  36  55  75 119 151 183 234 286 342
#     4  10  26  36  48  78 114 148 208 232 276 346
#     4  10  19  34  54  81 123 146 176 232 292 351
#     4  11  19  31  54  84 118 150 175 224 292 356
#     4  11  19  29  50  87 114 147 177 213 289 361
#     4  11  22  35  52  77 121 150 186 235 277 350
#     4   9  20  32  49  84 122 140 183 222 285 353
#
# _framework density 18.379605000000002
#
# number of rings (size 3 to 8) (size 9 to 14) (size 15 to 20)
#    0.000    1.538    4.615    1.846    0.000    0.000 
#    0.000    0.000    0.000    0.000    0.000    0.000 
#  207.692    0.000    0.000    0.000    0.000    0.000 
#
# Total GULP energy -144764.164310 kJ/mol
# GULP energy per Si atom -5567.852473 kJ/mol
# Density = 1.833777 g / cm^3
# Si number density = 18.379605 Si / 1000 Ang^3
#
#
#
# Elastic Constant Matrix: (Units=GPa)
#
#
# Indices 1 2 3 4 5 6 
#
# 1 84.4669 32.6825 16.5846 0.0000 -8.4374 0.0000
# 2 32.6825 98.3319 25.2921 0.0000 -2.2015 0.0000
# 3 16.5846 25.2921 53.6549 0.0000 -4.8594 0.0000
# 4 0.0000 0.0000 0.0000 15.3663 0.0000 0.8815
# 5 -8.4374 -2.2015 -4.8594 0.0000 36.8821 0.0000
# 6 0.0000 0.0000 0.0000 0.8815 0.0000 50.2240
#
#
#
# Elastic Compliance Matrix: (Units=1/GPa)
#
#
# Indices 1 2 3 4 5 6 
#
# 1 0.014113 -0.004064 -0.002203 0.000000 0.002696 0.000000
# 2 -0.004064 0.012743 -0.004824 0.000000 -0.000805 0.000000
# 3 -0.002203 -0.004824 0.021780 0.000000 0.002078 0.000000
# 4 0.000000 0.000000 0.000000 0.065143 0.000000 -0.001143
# 5 0.002696 -0.000805 0.002078 0.000000 0.027956 0.000000
# 6 0.000000 0.000000 0.000000 -0.001143 0.000000 0.019931
#
#
# Mechanical properties :
#
#
# Convention : Reuss Voigt Hill
#
# Bulk Modulus (GPa) = 37.79787 42.84133 40.31960
# Shear Modulus (GPa) = 25.95173 31.28744 28.61959
#
# Velocity S-wave (km/s) = 3.76172 4.13036 3.95034
# Velocity P-wave (km/s) = 6.28308 6.79016 6.54153
#
# Compressibility (1/GPa) = 0.02645651
#
# Stress axis : x y z
#
# Youngs Moduli (GPa) = 70.85596 78.47429 45.91286
#
# Poissons Ratio (x) = 0.31891 0.10112
# Poissons Ratio (y) = 0.28795 0.22146
# Poissons Ratio (z) = 0.15606 0.37853
#
# Static dielectric constant tensor:
#      x y z
#    x 1.656110 0.000000 -0.028780 
#    y 0.000000 1.679310 0.000000 
#    z -0.028780 0.000000 1.611900 
# 
# From -- ./inp_files/227518.got.cif
#   From: 2010.05.17/outbox.cif.g08.bks.cpg/sg15_114_cif.got.tgz:227518.got - 2010.06.03 18:47:42.
