data_PCOD9263189
_publ_section_title
;
Structure prediction by ZEFSAII (Michael W. Deem and Ramdas Pophale) SiO2 
 PCOD9263189
Probable space group: C 2/C
;
_chemical_formula_sum "Si O2"
_cell_formula_units_Z 56
_cell_length_a 8.910593
_cell_length_b 16.263774
_cell_length_c 25.915323
_cell_angle_alpha 90.000000
_cell_angle_beta 37.245709
_cell_angle_gamma 90.000000
_cell_volume 2273.045601
_symmetry_space_group_name_H-M "C 2/C"
_symmetry_group_IT_number 15
_symmetry_cell_setting 'monoclinic'
loop_
_space_group_symop_operation_xyz
x,y,z
-x,y,1/2-z
-x,-y,-z
x,-y,1/2+z
1/2+x,1/2+y,z
1/2-x,1/2+y,1/2-z
1/2-x,1/2-y,-z
1/2+x,1/2-y,1/2+z
loop_
_atom_site_type_symbol
_atom_site_label
_atom_site_fract_x
_atom_site_fract_y
_atom_site_fract_z
Si Si1 0.986082 0.717216 0.501097
Si Si2 0.773598 0.207737 0.776901
Si Si3 0.906727 0.219447 0.634855
Si Si4 0.501174 0.544140 0.915027
Si Si5 0.157980 0.472657 0.597151
Si Si6 0.307116 0.847384 0.459306
Si Si7 0.128543 0.011635 0.767929
O O1 0.057427 0.803427 0.509481
O O2 0.119810 0.651003 0.500716
O O3 0.088590 0.722624 0.415402
O O4 0.690406 0.708757 0.578169
O O5 0.519538 0.210749 0.876695
O O6 0.825854 0.110464 0.751549
O O7 0.000000 0.238558 0.750000
O O8 0.755750 0.247421 0.725624
O O9 0.836689 0.127567 0.635162
O O10 0.646846 0.477598 0.909557
O O11 0.478994 0.509090 0.863049
O O12 0.268051 0.570968 0.015473
O O13 0.154163 0.565000 0.575632
O O14 0.888179 0.462075 0.695845
O O15 0.000000 0.985798 0.750000
#
# Coordination Sequence:
#
# PCOD9263189 Si02
#       7
#     8   8   8   8   8   8   8
#     4  10  20  32  52  76 110 136 172 214 264 314
#     4   9  16  30  52  75 104 129 175 222 263 297
#     4  10  19  34  53  81 104 140 173 222 263 314
#     4  10  20  35  57  83 108 143 181 221 272 325
#     4  10  20  35  57  83 108 143 181 221 272 325
#     4  10  19  34  53  81 104 140 173 222 263 314
#     4   9  19  33  53  82 111 136 176 233 270 306
#
# _framework density 24.636548999999999
#
# number of rings (size 3 to 8) (size 9 to 14) (size 15 to 20)
#    0.000    2.286    2.857    0.429    2.000    1.143 
#    0.000    0.000    0.000   10.286    0.000    0.000 
#    0.000    0.000    0.000    0.000    0.000    0.000 
#
# Total GULP energy -156267.458949 kJ/mol
# GULP energy per Si atom -5580.980677 kJ/mol
# Density = 2.458047 g / cm^3
# Si number density = 24.636549 Si / 1000 Ang^3
#
#
#
# Elastic Constant Matrix: (Units=GPa)
#
#
# Indices 1 2 3 4 5 6 
#
# 1 111.8338 7.4354 46.2681 0.0044 32.4235 -0.0029
# 2 7.4354 28.2960 8.6809 0.0028 7.8294 -0.0003
# 3 46.2681 8.6809 124.0981 0.0132 41.7582 -0.0075
# 4 0.0044 0.0028 0.0132 19.4040 -0.0130 0.2034
# 5 32.4235 7.8294 41.7582 -0.0130 49.6887 0.0049
# 6 -0.0029 -0.0003 -0.0075 0.2034 0.0049 11.2402
#
#
#
# Elastic Compliance Matrix: (Units=1/GPa)
#
#
# Indices 1 2 3 4 5 6 
#
# 1 0.011563 -0.000804 -0.002452 -0.000004 -0.005358 0.000004
# 2 -0.000804 0.037075 -0.000703 -0.000008 -0.004726 0.000002
# 3 -0.002452 -0.000703 0.011776 -0.000013 -0.008186 0.000011
# 4 -0.000004 -0.000008 -0.000013 0.051546 0.000029 -0.000933
# 5 -0.005358 -0.004726 -0.008186 0.000029 0.031246 -0.000021
# 6 0.000004 0.000002 0.000011 -0.000933 -0.000021 0.088983
#
#
# Mechanical properties :
#
#
# Convention : Reuss Voigt Hill
#
# Bulk Modulus (GPa) = 19.04893 43.22184 31.13538
# Shear Modulus (GPa) = 19.40948 29.52281 24.46615
#
# Velocity S-wave (km/s) = 2.80988 3.46545 3.15474
# Velocity P-wave (km/s) = 4.27504 5.79606 5.09266
#
# Compressibility (1/GPa) = 0.05249638
#
# Stress axis : x y z
#
# Youngs Moduli (GPa) = 86.48153 26.97199 84.91883
#
# Poissons Ratio (x) = 0.02168 0.20822
# Poissons Ratio (y) = 0.06950 0.05974
# Poissons Ratio (z) = 0.21205 0.01897
#
# Static dielectric constant tensor:
#      x y z
#    x 2.004110 0.000000 -0.032420 
#    y 0.000000 1.978050 0.000000 
#    z -0.032420 0.000000 2.017940 
# 
# From -- ./inp_files/192878.got.cif
#   From: 2010.05.17/outbox.cif.g08.bks.cpg/sg15_97_cif.got.tgz:192878.got - 2010.06.03 18:47:42.
