data_PCOD9263288
_publ_section_title
;
Structure prediction by ZEFSAII (Michael W. Deem and Ramdas Pophale) SiO2 
 PCOD9263288
Probable space group: C 2/C
;
_chemical_formula_sum "Si O2"
_cell_formula_units_Z 52
_cell_length_a 8.214288
_cell_length_b 31.810828
_cell_length_c 10.442035
_cell_angle_alpha 90.000000
_cell_angle_beta 91.924280
_cell_angle_gamma 90.000000
_cell_volume 2726.999545
_symmetry_space_group_name_H-M "C 2/C"
_symmetry_group_IT_number 15
_symmetry_cell_setting 'monoclinic'
loop_
_space_group_symop_operation_xyz
x,y,z
-x,y,1/2-z
-x,-y,-z
x,-y,1/2+z
1/2+x,1/2+y,z
1/2-x,1/2+y,1/2-z
1/2-x,1/2-y,-z
1/2+x,1/2-y,1/2+z
loop_
_atom_site_type_symbol
_atom_site_label
_atom_site_fract_x
_atom_site_fract_y
_atom_site_fract_z
Si Si1 0.500000 0.754238 0.250000
Si Si2 0.304787 0.964666 0.597308
Si Si3 0.802181 0.465986 0.893221
Si Si4 0.371154 0.210784 0.003560
Si Si5 0.208041 0.714357 0.100263
Si Si6 0.689342 0.626186 0.397958
Si Si7 0.301223 0.371702 0.902140
O O1 0.544794 0.783853 0.132484
O O2 0.343842 0.724302 0.212763
O O3 0.245987 0.971610 0.743237
O O4 0.501275 0.967009 0.605286
O O5 0.256494 0.917616 0.555346
O O6 0.245823 0.998707 0.492151
O O7 0.748282 0.419820 0.938672
O O8 0.250000 0.250000 0.000000
O O9 0.514368 0.216654 0.111497
O O10 0.280129 0.167083 0.026914
O O11 0.236848 0.668221 0.041506
O O12 0.250000 0.750000 0.000000
O O13 0.741119 0.630270 0.249939
O O14 0.496322 0.629478 0.410616
#
# Coordination Sequence:
#
# PCOD9263288 Si02
#       7
#     4   8   8   8   8   8   8
#     4  10  22  38  54  80 114 146 182 228 282 328
#     4   9  18  34  54  79 106 140 183 228 279 335
#     4   9  18  33  55  79 107 140 180 229 281 334
#     4  11  22  36  57  82 110 146 186 229 278 333
#     4  10  20  36  56  79 110 143 182 227 273 326
#     4  10  19  34  55  79 107 141 183 230 272 325
#     4  10  20  34  55  81 107 140 185 227 272 329
#
# _framework density 19.068577999999999
#
# number of rings (size 3 to 8) (size 9 to 14) (size 15 to 20)
#    0.000    2.154    0.000    4.615    0.000    4.308 
#    0.000    6.154    0.000    3.692    0.000    0.000 
#    0.000    0.000    0.000    0.000    0.000    0.000 
#
# Total GULP energy -144936.994646 kJ/mol
# GULP energy per Si atom -5574.499794 kJ/mol
# Density = 1.902518 g / cm^3
# Si number density = 19.068578 Si / 1000 Ang^3
#
#
#
# Elastic Constant Matrix: (Units=GPa)
#
#
# Indices 1 2 3 4 5 6 
#
# 1 66.6589 47.0202 32.9540 0.0000 7.7030 0.0000
# 2 47.0202 207.2965 72.5879 0.0000 -5.4223 0.0000
# 3 32.9540 72.5879 83.0928 0.0000 -7.2793 0.0000
# 4 0.0000 0.0000 0.0000 32.1333 0.0000 -1.2386
# 5 7.7030 -5.4223 -7.2793 0.0000 22.5104 0.0000
# 6 0.0000 0.0000 0.0000 -1.2386 0.0000 35.1703
#
#
#
# Elastic Compliance Matrix: (Units=1/GPa)
#
#
# Indices 1 2 3 4 5 6 
#
# 1 0.021615 -0.002671 -0.007145 0.000000 -0.010351 0.000000
# 2 -0.002671 0.007282 -0.005216 0.000000 0.000982 0.000000
# 3 -0.007145 -0.005216 0.020099 0.000000 0.007688 0.000000
# 4 0.000000 0.000000 0.000000 0.031163 0.000000 0.001097
# 5 -0.010351 0.000982 0.007688 0.000000 0.050688 0.000000
# 6 0.000000 0.000000 0.000000 0.001097 0.000000 0.028472
#
#
# Mechanical properties :
#
#
# Convention : Reuss Voigt Hill
#
# Bulk Modulus (GPa) = 52.82650 73.57472 63.20061
# Shear Modulus (GPa) = 25.55017 31.59520 28.57269
#
# Velocity S-wave (km/s) = 3.66445 4.07495 3.87514
# Velocity P-wave (km/s) = 6.75780 7.79797 7.29644
#
# Compressibility (1/GPa) = 0.01892989
#
# Stress axis : x y z
#
# Youngs Moduli (GPa) = 46.26499 137.32304 49.75489
#
# Poissons Ratio (x) = 0.36686 0.35551
# Poissons Ratio (y) = 0.12360 0.25952
# Poissons Ratio (z) = 0.33057 0.71627
#
# Static dielectric constant tensor:
#      x y z
#    x 1.703690 0.000000 0.020640 
#    y 0.000000 1.657480 0.000000 
#    z 0.020640 0.000000 1.698170 
# 
# From -- ./inp_files/81846.got.cif
#   From: 2010.05.17/outbox.cif.g08.bks.cpg/sg15_41_cif.got.tgz:81846.got - 2010.06.03 18:47:42.
