data_PCOD9263057
_publ_section_title
;
Structure prediction by ZEFSAII (Michael W. Deem and Ramdas Pophale) SiO2 
 PCOD9263057
Probable space group: C 2/C
;
_chemical_formula_sum "Si O2"
_cell_formula_units_Z 44
_cell_length_a 21.599693
_cell_length_b 13.699091
_cell_length_c 5.719125
_cell_angle_alpha 90.000000
_cell_angle_beta 100.913844
_cell_angle_gamma 90.000000
_cell_volume 1661.659081
_symmetry_space_group_name_H-M "C 2/C"
_symmetry_group_IT_number 15
_symmetry_cell_setting 'monoclinic'
loop_
_space_group_symop_operation_xyz
x,y,z
-x,y,1/2-z
-x,-y,-z
x,-y,1/2+z
1/2+x,1/2+y,z
1/2-x,1/2+y,1/2-z
1/2-x,1/2-y,-z
1/2+x,1/2-y,1/2+z
loop_
_atom_site_type_symbol
_atom_site_label
_atom_site_fract_x
_atom_site_fract_y
_atom_site_fract_z
Si Si1 0.252563 0.091580 0.915178
Si Si2 0.500000 0.597694 0.250000
Si Si3 0.110613 0.457656 0.045577
Si Si4 0.440817 0.250551 0.069779
Si Si5 0.203633 0.786795 0.769194
Si Si6 0.377789 0.619468 0.925555
O O1 0.313066 0.023477 0.921187
O O2 0.288583 0.194668 0.891951
O O3 0.189973 0.076762 0.709011
O O4 0.225214 0.117044 0.149576
O O5 0.471824 0.668510 0.426299
O O6 0.562477 0.554351 0.434632
O O7 0.088447 0.509213 0.269915
O O8 0.090739 0.344911 0.061002
O O9 0.500000 0.207942 0.250000
O O10 0.398456 0.310640 0.226621
O O11 0.250000 0.750000 0.000000
O O12 0.141333 0.814853 0.865235
#
# Coordination Sequence:
#
# PCOD9263057 Si02
#       6
#     8   4   8   8   8   8
#     4  10  20  35  54  84 112 151 194 254 306 359
#     4  10  20  36  60  90 120 148 192 256 318 380
#     4  12  29  42  59  85 122 173 222 247 284 346
#     4  10  23  40  60  85 120 159 204 255 303 358
#     4   9  17  30  59  80 110 141 185 246 323 356
#     4  10  19  33  61  87 115 145 187 251 328 363
#
# _framework density 26.479561
#
# number of rings (size 3 to 8) (size 9 to 14) (size 15 to 20)
#    0.000    1.818    0.000    5.455   12.727    0.727 
#    0.000    0.000    0.000    0.000    0.000    1.273 
#    0.000    0.000    0.000    0.000    0.000    0.000 
#
# Total GULP energy -122623.244138 kJ/mol
# GULP energy per Si atom -5573.783824 kJ/mol
# Density = 2.641929 g / cm^3
# Si number density = 26.479561 Si / 1000 Ang^3
#
#
#
# Elastic Constant Matrix: (Units=GPa)
#
#
# Indices 1 2 3 4 5 6 
#
# 1 101.2301 28.2475 4.8684 0.0000 14.2709 0.0000
# 2 28.2475 92.5853 49.5796 0.0000 -15.6268 0.0000
# 3 4.8684 49.5796 82.4900 0.0000 -30.4651 0.0000
# 4 0.0000 0.0000 0.0000 23.9080 0.0000 18.4636
# 5 14.2709 -15.6268 -30.4651 0.0000 81.6788 0.0000
# 6 0.0000 0.0000 0.0000 18.4636 0.0000 13.0173
#
#
#
# Elastic Compliance Matrix: (Units=1/GPa)
#
#
# Indices 1 2 3 4 5 6 
#
# 1 0.011424 -0.004503 0.001133 0.000000 -0.002435 0.000000
# 2 -0.004503 0.017728 -0.010260 0.000000 0.000352 0.000000
# 3 0.001133 -0.010260 0.020208 0.000000 0.005376 0.000000
# 4 0.000000 0.000000 0.000000 -0.438480 0.000000 0.621937
# 5 -0.002435 0.000352 0.005376 0.000000 0.014741 0.000000
# 6 0.000000 0.000000 0.000000 0.621937 0.000000 -0.805330
#
#
# Mechanical properties :
#
#
# Convention : Reuss Voigt Hill
#
# Bulk Modulus (GPa) = 45.24774 49.07739 47.16256
# Shear Modulus (GPa) = -4.36650 36.62814 16.13082
#
# Velocity S-wave (km/s) = -1.28553 3.72326 2.47084
# Velocity P-wave (km/s) = 3.86283 6.08751 5.09800
#
# Compressibility (1/GPa) = 0.02210055
#
# Stress axis : x y z
#
# Youngs Moduli (GPa) = 87.53657 56.40759 49.48586
#
# Poissons Ratio (x) = 0.25401 -0.05607
# Poissons Ratio (y) = 0.39418 0.50770
# Poissons Ratio (z) = -0.09918 0.57872
#
# Static dielectric constant tensor:
#      x y z
#    x 2.122400 0.000000 0.086230 
#    y 0.000000 2.024970 0.000000 
#    z 0.086230 0.000000 2.139640 
# 
# From -- ./inp_files/12941.got.cif
#   From: 2010.05.17/outbox.cif.g08.bks.cpg/sg15_7_cif.got.tgz:12941.got - 2010.06.03 18:47:42.
