data_PCOD9263667
_publ_section_title
;
Structure prediction by ZEFSAII (Michael W. Deem and Ramdas Pophale) SiO2 
 PCOD9263667
Probable space group: C 2/C
;
_chemical_formula_sum "Si O2"
_cell_formula_units_Z 52
_cell_length_a 17.485297
_cell_length_b 27.238522
_cell_length_c 5.653738
_cell_angle_alpha 90.000000
_cell_angle_beta 53.271238
_cell_angle_gamma 90.000000
_cell_volume 2158.154360
_symmetry_space_group_name_H-M "C 2/C"
_symmetry_group_IT_number 15
_symmetry_cell_setting 'monoclinic'
loop_
_space_group_symop_operation_xyz
x,y,z
-x,y,1/2-z
-x,-y,-z
x,-y,1/2+z
1/2+x,1/2+y,z
1/2-x,1/2+y,1/2-z
1/2-x,1/2-y,-z
1/2+x,1/2-y,1/2+z
loop_
_atom_site_type_symbol
_atom_site_label
_atom_site_fract_x
_atom_site_fract_y
_atom_site_fract_z
Si Si1 0.359051 0.770022 0.296047
Si Si2 0.290454 0.876954 0.409043
Si Si3 0.693456 0.441561 0.235238
Si Si4 0.359424 0.731747 0.794584
Si Si5 0.643931 0.018512 0.575504
Si Si6 0.500000 0.472129 0.750000
Si Si7 0.613908 0.630352 0.554420
O O1 0.250000 0.750000 0.500000
O O2 0.354761 0.828849 0.288063
O O3 0.399059 0.752707 0.475518
O O4 0.399800 0.748979 0.974934
O O5 0.267070 0.901618 0.200859
O O6 0.339214 0.922947 0.455702
O O7 0.188080 0.859632 0.705582
O O8 0.752400 0.491254 0.106675
O O9 0.599865 0.443494 0.570959
O O10 0.649670 0.422301 0.075048
O O11 0.365132 0.673067 0.793533
O O12 0.250000 0.750000 0.000000
O O13 0.600804 0.000664 0.907545
O O14 0.500000 0.500000 0.500000
O O15 0.500000 0.629244 0.750000
#
# Coordination Sequence:
#
# PCOD9263667 Si02
#       7
#     8   8   8   8   8   4   8
#     4  10  19  34  59  72  94 125 173 226 260 327
#     4  11  21  35  53  76  97 136 187 222 267 306
#     4  11  23  36  48  68 103 139 176 222 266 298
#     4  10  20  38  55  76  96 129 172 222 271 319
#     4  10  20  33  49  67  98 135 173 215 256 289
#     4  12  26  38  50  62  94 146 192 220 258 306
#     4  12  24  35  54  78 105 137 182 230 267 312
#
# _framework density 24.094663000000001
#
# number of rings (size 3 to 8) (size 9 to 14) (size 15 to 20)
#    0.000    1.231    4.615    4.615    3.231    0.000 
#    0.000    0.000    0.000    0.000    0.000    0.000 
#    0.000    0.000    0.000    0.000    0.000  104.615 
#
# Total GULP energy -145169.062698 kJ/mol
# GULP energy per Si atom -5583.425488 kJ/mol
# Density = 2.403982 g / cm^3
# Si number density = 24.094663 Si / 1000 Ang^3
#
#
#
# Elastic Constant Matrix: (Units=GPa)
#
#
# Indices 1 2 3 4 5 6 
#
# 1 61.0384 18.9640 46.7989 0.0000 2.3034 0.0000
# 2 18.9640 144.4814 19.0312 0.0000 16.9199 0.0000
# 3 46.7989 19.0312 127.0918 0.0000 43.2461 0.0000
# 4 0.0000 0.0000 0.0000 32.7865 0.0000 21.0199
# 5 2.3034 16.9199 43.2461 0.0000 35.3438 0.0000
# 6 0.0000 0.0000 0.0000 21.0199 0.0000 10.6386
#
#
#
# Elastic Compliance Matrix: (Units=1/GPa)
#
#
# Indices 1 2 3 4 5 6 
#
# 1 0.031051 -0.004294 -0.018508 0.000000 0.022677 0.000000
# 2 -0.004294 0.007928 0.002724 0.000000 -0.006849 0.000000
# 3 -0.018508 0.002724 0.024516 0.000000 -0.030096 0.000000
# 4 0.000000 0.000000 0.000000 -0.114352 0.000000 0.225939
# 5 0.022677 -0.006849 -0.030096 0.000000 0.066919 0.000000
# 6 0.000000 0.000000 0.000000 0.225939 0.000000 -0.352415
#
#
# Mechanical properties :
#
#
# Convention : Reuss Voigt Hill
#
# Bulk Modulus (GPa) = 42.84103 55.79996 49.32050
# Shear Modulus (GPa) = -17.33589 32.27496 7.46954
#
# Velocity S-wave (km/s) = -2.68524 3.66390 1.76261
# Velocity P-wave (km/s) = 2.86441 6.41153 4.96551
#
# Compressibility (1/GPa) = 0.02334211
#
# Stress axis : x y z
#
# Youngs Moduli (GPa) = 32.20476 126.13400 40.78938
#
# Poissons Ratio (x) = 0.54156 0.75491
# Poissons Ratio (y) = 0.13827 -0.11113
# Poissons Ratio (z) = 0.59603 -0.34364
#
# Static dielectric constant tensor:
#      x y z
#    x 1.921190 0.000000 -0.009870 
#    y 0.000000 1.902090 0.000000 
#    z -0.009870 0.000000 1.973370 
# 
# From -- ./inp_files/11225.got.cif
#   From: 2010.05.17/outbox.cif.g08.bks.cpg/sg15_6_cif.got.tgz:11225.got - 2010.06.03 18:47:42.
