data_PCOD9263480
_publ_section_title
;
Structure prediction by ZEFSAII (Michael W. Deem and Ramdas Pophale) SiO2 
 PCOD9263480
Probable space group: C 2/C
;
_chemical_formula_sum "Si O2"
_cell_formula_units_Z 64
_cell_length_a 11.617227
_cell_length_b 17.734572
_cell_length_c 21.621109
_cell_angle_alpha 90.000000
_cell_angle_beta 138.860821
_cell_angle_gamma 90.000000
_cell_volume 2930.587481
_symmetry_space_group_name_H-M "C 2/C"
_symmetry_group_IT_number 15
_symmetry_cell_setting 'monoclinic'
loop_
_space_group_symop_operation_xyz
x,y,z
-x,y,1/2-z
-x,-y,-z
x,-y,1/2+z
1/2+x,1/2+y,z
1/2-x,1/2+y,1/2-z
1/2-x,1/2-y,-z
1/2+x,1/2-y,1/2+z
loop_
_atom_site_type_symbol
_atom_site_label
_atom_site_fract_x
_atom_site_fract_y
_atom_site_fract_z
Si Si1 0.036183 0.386752 0.679732
Si Si2 0.416425 0.756045 0.964487
Si Si3 0.356509 0.384641 0.947971
Si Si4 0.961502 0.227597 0.160861
Si Si5 0.926639 0.931648 0.850204
Si Si6 0.061018 0.088035 0.873722
Si Si7 0.949007 0.415692 0.500301
Si Si8 0.826794 0.774636 0.283231
O O1 0.216207 0.431477 0.761112
O O2 0.990510 0.403746 0.589671
O O3 0.093579 0.300319 0.714502
O O4 0.852341 0.398297 0.640110
O O5 0.455808 0.843997 0.991723
O O6 0.373906 0.740471 0.874811
O O7 0.233041 0.739605 0.924246
O O8 0.580350 0.700921 0.042369
O O9 0.457929 0.431894 0.936742
O O10 0.406107 0.399711 0.039037
O O11 0.992035 0.144473 0.145187
O O12 0.117427 0.276910 0.195039
O O13 0.000000 0.221483 0.250000
O O14 0.997907 0.002948 0.843159
O O15 0.920293 0.150404 0.798844
O O16 0.241912 0.096748 0.911287
O O17 0.000000 0.500000 0.500000
#
# Coordination Sequence:
#
# PCOD9263480 Si02
#       8
#     8   8   8   8   8   8   8   8
#     4   9  19  36  56  75 101 141 179 214 259 317
#     4   9  17  32  55  78 103 136 172 216 261 307
#     4  10  20  35  53  76 104 140 183 216 255 311
#     4   9  18  34  55  78 104 138 179 219 265 319
#     4  11  21  34  53  76 109 142 173 217 267 316
#     4  10  20  34  53  79 108 139 176 217 261 313
#     4  10  19  34  57  83 108 135 172 218 270 320
#     4   8  16  33  55  76 100 137 179 211 251 312
#
# _framework density 21.838625
#
# number of rings (size 3 to 8) (size 9 to 14) (size 15 to 20)
#    0.000    2.500    0.000    3.000    0.000    3.500 
#    0.000   11.250    0.000    3.000    0.000    0.000 
#    0.000    0.000    0.000    0.000    0.000    0.000 
#
# Total GULP energy -178544.915506 kJ/mol
# GULP energy per Si atom -5579.528610 kJ/mol
# Density = 2.178892 g / cm^3
# Si number density = 21.838625 Si / 1000 Ang^3
#
#
#
# Elastic Constant Matrix: (Units=GPa)
#
#
# Indices 1 2 3 4 5 6 
#
# 1 61.8757 -2.3254 22.6309 0.0000 15.2232 0.0000
# 2 -2.3254 67.3267 16.3200 0.0000 22.3949 0.0000
# 3 22.6309 16.3200 44.2261 0.0000 21.4386 0.0000
# 4 0.0000 0.0000 0.0000 26.6008 0.0000 6.4858
# 5 15.2232 22.3949 21.4386 0.0000 42.1772 0.0000
# 6 0.0000 0.0000 0.0000 6.4858 0.0000 16.3135
#
#
#
# Elastic Compliance Matrix: (Units=1/GPa)
#
#
# Indices 1 2 3 4 5 6 
#
# 1 0.021360 0.004925 -0.010274 0.000000 -0.005102 0.000000
# 2 0.004925 0.019416 -0.005077 0.000000 -0.009506 0.000000
# 3 -0.010274 -0.005077 0.035347 0.000000 -0.011563 0.000000
# 4 0.000000 0.000000 0.000000 0.041628 0.000000 -0.016550
# 5 -0.005102 -0.009506 -0.011563 0.000000 0.036476 0.000000
# 6 0.000000 0.000000 0.000000 -0.016550 0.000000 0.067879
#
#
# Mechanical properties :
#
#
# Convention : Reuss Voigt Hill
#
# Bulk Modulus (GPa) = 18.09254 27.40882 22.75068
# Shear Modulus (GPa) = 19.12922 26.13849 22.63385
#
# Velocity S-wave (km/s) = 2.96283 3.46337 3.22283
# Velocity P-wave (km/s) = 4.47293 5.34519 4.92840
#
# Compressibility (1/GPa) = 0.05527140
#
# Stress axis : x y z
#
# Youngs Moduli (GPa) = 46.81749 51.50438 28.29104
#
# Poissons Ratio (x) = -0.25368 0.29066
# Poissons Ratio (y) = -0.23059 0.14363
# Poissons Ratio (z) = 0.48100 0.26148
#
# Static dielectric constant tensor:
#      x y z
#    x 1.808930 0.000000 -0.046610 
#    y 0.000000 1.753610 0.000000 
#    z -0.046610 0.000000 1.853400 
# 
# From -- ./inp_files/239796.got.cif
#   From: 2010.05.17/outbox.cif.g08.bks.cpg/sg15_120_cif.got.tgz:239796.got - 2010.06.03 18:47:42.
