data_PCOD9263137
_publ_section_title
;
Structure prediction by ZEFSAII (Michael W. Deem and Ramdas Pophale) SiO2 
 PCOD9263137
Probable space group: C 2/C
;
_chemical_formula_sum "Si O2"
_cell_formula_units_Z 48
_cell_length_a 17.140766
_cell_length_b 28.566814
_cell_length_c 5.468746
_cell_angle_alpha 90.000000
_cell_angle_beta 74.287648
_cell_angle_gamma 90.000000
_cell_volume 2577.749470
_symmetry_space_group_name_H-M "C 2/C"
_symmetry_group_IT_number 15
_symmetry_cell_setting 'monoclinic'
loop_
_space_group_symop_operation_xyz
x,y,z
-x,y,1/2-z
-x,-y,-z
x,-y,1/2+z
1/2+x,1/2+y,z
1/2-x,1/2+y,1/2-z
1/2-x,1/2-y,-z
1/2+x,1/2-y,1/2+z
loop_
_atom_site_type_symbol
_atom_site_label
_atom_site_fract_x
_atom_site_fract_y
_atom_site_fract_z
Si Si1 0.669942 0.869488 0.101841
Si Si2 0.500000 0.639354 0.250000
Si Si3 0.000000 0.143400 0.750000
Si Si4 0.594623 0.827633 0.666577
Si Si5 0.857822 0.220759 0.858529
Si Si6 0.175932 0.185210 0.111365
Si Si7 0.096193 0.471187 0.167538
O O1 0.637141 0.848652 0.387477
O O2 0.647155 0.923762 0.118248
O O3 0.630222 0.845485 0.894982
O O4 0.764915 0.857970 0.992017
O O5 0.499332 0.613420 0.506158
O O6 0.581187 0.670681 0.196521
O O7 0.924424 0.179086 0.798437
O O8 0.500000 0.840623 0.750000
O O9 0.603394 0.771498 0.642874
O O10 0.815307 0.218131 0.631752
O O11 0.805558 0.207880 0.141426
O O12 0.111672 0.499274 0.406663
O O13 0.000000 0.459269 0.250000
#
# Coordination Sequence:
#
# PCOD9263137 Si02
#       7
#     8   4   4   8   8   8   8
#     4  12  25  38  56  88 116 136 188 246 284 326
#     4   8  16  30  52  70  98 143 184 225 264 314
#     4   8  14  28  46  68  88 137 196 225 240 302
#     4  12  24  37  55  78 117 161 191 231 279 321
#     4  10  19  34  52  71 107 155 197 223 263 322
#     4  10  21  35  55  79 109 149 194 237 269 314
#     4  10  21  40  64  83 105 141 178 218 281 354
#
# _framework density 18.620895000000001
#
# number of rings (size 3 to 8) (size 9 to 14) (size 15 to 20)
#    0.000    1.667    0.833    4.500    0.000    5.333 
#    0.000    0.000    0.000    0.000    0.000    1.167 
#    0.000    0.000    0.000    0.000    0.000    0.000 
#
# Total GULP energy -133789.292190 kJ/mol
# GULP energy per Si atom -5574.553841 kJ/mol
# Density = 1.857851 g / cm^3
# Si number density = 18.620895 Si / 1000 Ang^3
#
#
#
# Elastic Constant Matrix: (Units=GPa)
#
#
# Indices 1 2 3 4 5 6 
#
# 1 56.5555 24.7424 32.5389 0.0000 -18.1630 0.0000
# 2 24.7424 57.6332 34.6091 0.0000 -11.1204 0.0000
# 3 32.5389 34.6091 184.3953 0.0000 25.5761 0.0000
# 4 0.0000 0.0000 0.0000 16.3231 0.0000 2.5448
# 5 -18.1630 -11.1204 25.5761 0.0000 35.0189 0.0000
# 6 0.0000 0.0000 0.0000 2.5448 0.0000 35.4487
#
#
#
# Elastic Compliance Matrix: (Units=1/GPa)
#
#
# Indices 1 2 3 4 5 6 
#
# 1 0.030045 -0.004996 -0.007016 0.000000 0.019121 0.000000
# 2 -0.004996 0.024041 -0.004818 0.000000 0.008562 0.000000
# 3 -0.007016 -0.004818 0.009216 0.000000 -0.011900 0.000000
# 4 0.000000 0.000000 0.000000 0.061956 0.000000 -0.004448
# 5 0.019121 0.008562 -0.011900 0.000000 0.049884 0.000000
# 6 0.000000 0.000000 0.000000 -0.004448 0.000000 0.028529
#
#
# Mechanical properties :
#
#
# Convention : Reuss Voigt Hill
#
# Bulk Modulus (GPa) = 33.73630 53.59610 43.66620
# Shear Modulus (GPa) = 20.22548 31.13774 25.68161
#
# Velocity S-wave (km/s) = 3.29929 4.09368 3.71776
# Velocity P-wave (km/s) = 5.71581 7.15469 6.47534
#
# Compressibility (1/GPa) = 0.02964167
#
# Stress axis : x y z
#
# Youngs Moduli (GPa) = 33.28348 41.59489 108.50440
#
# Poissons Ratio (x) = 0.20780 0.76130
# Poissons Ratio (y) = 0.16627 0.52282
# Poissons Ratio (z) = 0.23353 0.20042
#
# Static dielectric constant tensor:
#      x y z
#    x 1.643850 0.000000 0.011370 
#    y 0.000000 1.573040 0.000000 
#    z 0.011370 0.000000 1.738690 
# 
# From -- ./inp_files/10908.got.cif
#   From: 2010.05.17/outbox.cif.g08.bks.cpg/sg15_6_cif.got.tgz:10908.got - 2010.06.03 18:47:42.
