data_PCOD9263133
_publ_section_title
;
Structure prediction by ZEFSAII (Michael W. Deem and Ramdas Pophale) SiO2 
 PCOD9263133
Probable space group: C 2/C
;
_chemical_formula_sum "Si O2"
_cell_formula_units_Z 56
_cell_length_a 16.226926
_cell_length_b 29.049366
_cell_length_c 9.200257
_cell_angle_alpha 90.000000
_cell_angle_beta 136.790897
_cell_angle_gamma 90.000000
_cell_volume 2969.269910
_symmetry_space_group_name_H-M "C 2/C"
_symmetry_group_IT_number 15
_symmetry_cell_setting 'monoclinic'
loop_
_space_group_symop_operation_xyz
x,y,z
-x,y,1/2-z
-x,-y,-z
x,-y,1/2+z
1/2+x,1/2+y,z
1/2-x,1/2+y,1/2-z
1/2-x,1/2-y,-z
1/2+x,1/2-y,1/2+z
loop_
_atom_site_type_symbol
_atom_site_label
_atom_site_fract_x
_atom_site_fract_y
_atom_site_fract_z
Si Si1 0.858369 0.051153 0.404623
Si Si2 0.242460 0.869337 0.208606
Si Si3 0.854587 0.045367 0.743928
Si Si4 0.684696 0.220338 0.225527
Si Si5 0.774991 0.143743 0.157655
Si Si6 0.019432 0.801698 0.945490
Si Si7 0.633513 0.795824 0.974380
O O1 0.832891 0.045478 0.543167
O O2 0.789012 0.095835 0.258887
O O3 0.002289 0.057062 0.561102
O O4 0.829760 0.004700 0.279788
O O5 0.219220 0.917599 0.257007
O O6 0.355801 0.842074 0.419265
O O7 0.244061 0.868209 0.036026
O O8 0.128055 0.837654 0.104228
O O9 0.680202 0.179736 0.102891
O O10 0.702764 0.199308 0.409029
O O11 0.797625 0.255288 0.351187
O O12 0.568748 0.253734 0.071377
O O13 0.899650 0.172179 0.340797
O O14 0.000000 0.793156 0.750000
O O15 0.500000 0.786040 0.750000
#
# Coordination Sequence:
#
# PCOD9263133 Si02
#       7
#     8   8   8   8   8   8   8
#     4  10  20  31  55  80 115 146 173 220 266 334
#     4  10  20  34  53  76 110 144 182 220 274 329
#     4  10  19  34  51  85 113 144 179 211 274 330
#     4  10  21  34  52  77 103 141 190 231 274 328
#     4  11  20  34  54  80 110 149 182 223 277 324
#     4   9  19  32  50  74 106 142 177 227 269 324
#     4  10  21  37  52  74 105 144 186 237 275 320
#
# _framework density 18.859853999999999
#
# number of rings (size 3 to 8) (size 9 to 14) (size 15 to 20)
#    0.000    2.000    1.429    2.571    0.000    7.429 
#    2.571    0.000    0.000    0.000    0.000   10.000 
#    0.000    0.000    0.000    0.000    0.000    0.000 
#
# Total GULP energy -156111.767603 kJ/mol
# GULP energy per Si atom -5575.420272 kJ/mol
# Density = 1.881693 g / cm^3
# Si number density = 18.859854 Si / 1000 Ang^3
#
#
#
# Elastic Constant Matrix: (Units=GPa)
#
#
# Indices 1 2 3 4 5 6 
#
# 1 45.1826 52.3296 19.7517 0.0000 -20.5373 0.0000
# 2 52.3296 146.3860 47.3189 0.0000 -30.4831 0.0000
# 3 19.7517 47.3189 41.6902 0.0000 -7.0071 0.0000
# 4 0.0000 0.0000 0.0000 29.7034 0.0000 -8.5085
# 5 -20.5373 -30.4831 -7.0071 0.0000 24.4811 0.0000
# 6 0.0000 0.0000 0.0000 -8.5085 0.0000 30.6451
#
#
#
# Elastic Compliance Matrix: (Units=1/GPa)
#
#
# Indices 1 2 3 4 5 6 
#
# 1 0.048492 -0.009073 -0.008129 0.000000 0.027056 0.000000
# 2 -0.009073 0.015803 -0.012197 0.000000 0.008575 0.000000
# 3 -0.008129 -0.012197 0.039902 0.000000 -0.010585 0.000000
# 4 0.000000 0.000000 0.000000 0.036575 0.000000 0.010155
# 5 0.027056 0.008575 -0.010585 0.000000 0.071192 0.000000
# 6 0.000000 0.000000 0.000000 0.010155 0.000000 0.035451
#
#
# Mechanical properties :
#
#
# Convention : Reuss Voigt Hill
#
# Bulk Modulus (GPa) = 22.02637 52.45101 37.23869
# Shear Modulus (GPa) = 15.55957 24.55651 20.05804
#
# Velocity S-wave (km/s) = 2.87541 3.61231 3.26472
# Velocity P-wave (km/s) = 4.76742 6.72828 5.83087
#
# Compressibility (1/GPa) = 0.04540013
#
# Stress axis : x y z
#
# Youngs Moduli (GPa) = 20.62177 63.28009 25.06158
#
# Poissons Ratio (x) = 0.57415 0.20372
# Poissons Ratio (y) = 0.18711 0.30566
# Poissons Ratio (z) = 0.16763 0.77180
#
# Static dielectric constant tensor:
#      x y z
#    x 1.692990 0.000000 0.039300 
#    y 0.000000 1.642400 0.000000 
#    z 0.039300 0.000000 1.699710 
# 
# From -- ./inp_files/52362.got.cif
#   From: 2010.05.17/outbox.cif.g08.bks.cpg/sg15_27_cif.got.tgz:52362.got - 2010.06.03 18:47:42.
