data_PCOD9263641
_publ_section_title
;
Structure prediction by ZEFSAII (Michael W. Deem and Ramdas Pophale) SiO2 
 PCOD9263641
Probable space group: C 2/C
;
_chemical_formula_sum "Si O2"
_cell_formula_units_Z 56
_cell_length_a 6.029687
_cell_length_b 24.319788
_cell_length_c 16.486014
_cell_angle_alpha 90.000000
_cell_angle_beta 91.055246
_cell_angle_gamma 90.000000
_cell_volume 2417.110785
_symmetry_space_group_name_H-M "C 2/C"
_symmetry_group_IT_number 15
_symmetry_cell_setting 'monoclinic'
loop_
_space_group_symop_operation_xyz
x,y,z
-x,y,1/2-z
-x,-y,-z
x,-y,1/2+z
1/2+x,1/2+y,z
1/2-x,1/2+y,1/2-z
1/2-x,1/2-y,-z
1/2+x,1/2-y,1/2+z
loop_
_atom_site_type_symbol
_atom_site_label
_atom_site_fract_x
_atom_site_fract_y
_atom_site_fract_z
Si Si1 0.271692 0.775398 0.590508
Si Si2 0.153953 0.645149 0.120919
Si Si3 0.212392 0.550869 0.389391
Si Si4 0.000000 0.106333 0.750000
Si Si5 0.966994 0.871918 0.987761
Si Si6 0.682508 0.837901 0.138989
Si Si7 0.500000 0.399670 0.750000
Si Si8 0.873814 0.563653 0.663142
O O1 0.250000 0.750000 0.500000
O O2 0.515970 0.797271 0.617359
O O3 0.139416 0.831557 0.581197
O O4 0.155833 0.727429 0.640709
O O5 0.280024 0.636482 0.035434
O O6 0.319681 0.636349 0.198169
O O7 0.986127 0.594095 0.122656
O O8 0.364236 0.569010 0.466484
O O9 0.369479 0.561654 0.312494
O O10 0.113754 0.490065 0.391505
O O11 0.799074 0.144126 0.721914
O O12 0.886888 0.070977 0.819134
O O13 0.867847 0.851058 0.071334
O O14 0.482395 0.880877 0.127817
O O15 0.000000 0.551898 0.750000
#
# Coordination Sequence:
#
# PCOD9263641 Si02
#       8
#     8   8   8   4   8   8   4   8
#     4   9  20  39  61  85 116 161 202 247 305 364
#     4  10  20  36  59  92 124 157 200 253 314 367
#     4  10  20  37  61  89 119 159 198 253 314 366
#     4  10  23  40  58  84 112 164 202 241 296 356
#     4   9  21  38  61  91 119 153 201 257 313 367
#     4  10  22  40  58  84 119 159 206 247 299 367
#     4  10  19  34  58  88 130 154 200 261 314 376
#     4  10  21  38  60  83 118 161 204 249 301 366
#
# _framework density 23.168157000000001
#
# number of rings (size 3 to 8) (size 9 to 14) (size 15 to 20)
#    0.000    2.286    0.000    1.714    0.000   10.857 
#    7.714    1.429    6.286    0.000    0.000    0.000 
#    0.000    0.000    0.000    0.000    0.000    0.000 
#
# Total GULP energy -156046.928928 kJ/mol
# GULP energy per Si atom -5573.104605 kJ/mol
# Density = 2.311542 g / cm^3
# Si number density = 23.168157 Si / 1000 Ang^3
#
#
#
# Elastic Constant Matrix: (Units=GPa)
#
#
# Indices 1 2 3 4 5 6 
#
# 1 76.9892 43.9918 5.2867 0.0000 -7.1341 0.0000
# 2 43.9918 143.7939 5.8039 0.0000 11.2836 0.0000
# 3 5.2867 5.8039 28.3653 0.0000 3.5399 0.0000
# 4 0.0000 0.0000 0.0000 22.2160 0.0000 -1.0322
# 5 -7.1341 11.2836 3.5399 0.0000 41.1518 0.0000
# 6 0.0000 0.0000 0.0000 -1.0322 0.0000 32.0038
#
#
#
# Elastic Compliance Matrix: (Units=1/GPa)
#
#
# Indices 1 2 3 4 5 6 
#
# 1 0.016645 -0.005347 -0.002579 0.000000 0.004574 0.000000
# 2 -0.005347 0.008867 -0.000403 0.000000 -0.003324 0.000000
# 3 -0.002579 -0.000403 0.036249 0.000000 -0.003455 0.000000
# 4 0.000000 0.000000 0.000000 0.045080 0.000000 0.001454
# 5 0.004574 -0.003324 -0.003455 0.000000 0.026302 0.000000
# 6 0.000000 0.000000 0.000000 0.001454 0.000000 0.031293
#
#
# Mechanical properties :
#
#
# Convention : Reuss Voigt Hill
#
# Bulk Modulus (GPa) = 22.17156 39.92368 31.04762
# Shear Modulus (GPa) = 25.49350 32.01207 28.75279
#
# Velocity S-wave (km/s) = 3.32078 3.72119 3.52667
# Velocity P-wave (km/s) = 4.92890 5.97767 5.47844
#
# Compressibility (1/GPa) = 0.04510282
#
# Stress axis : x y z
#
# Youngs Moduli (GPa) = 60.07775 112.77315 27.58731
#
# Poissons Ratio (x) = 0.60301 0.07115
# Poissons Ratio (y) = 0.32124 0.01112
# Poissons Ratio (z) = 0.15494 0.04545
#
# Static dielectric constant tensor:
#      x y z
#    x 1.971870 0.000000 -0.015390 
#    y 0.000000 1.955180 0.000000 
#    z -0.015390 0.000000 1.937230 
# 
# From -- ./inp_files/227914.got.cif
#   From: 2010.05.17/outbox.cif.g08.bks.cpg/sg15_114_cif.got.tgz:227914.got - 2010.06.03 18:47:42.
