data_PCOD9263556
_publ_section_title
;
Structure prediction by ZEFSAII (Michael W. Deem and Ramdas Pophale) SiO2 
 PCOD9263556
Probable space group: C 2/C
;
_chemical_formula_sum "Si O2"
_cell_formula_units_Z 60
_cell_length_a 17.268319
_cell_length_b 5.138599
_cell_length_c 24.932429
_cell_angle_alpha 90.000000
_cell_angle_beta 78.456788
_cell_angle_gamma 90.000000
_cell_volume 2167.630838
_symmetry_space_group_name_H-M "C 2/C"
_symmetry_group_IT_number 15
_symmetry_cell_setting 'monoclinic'
loop_
_space_group_symop_operation_xyz
x,y,z
-x,y,1/2-z
-x,-y,-z
x,-y,1/2+z
1/2+x,1/2+y,z
1/2-x,1/2+y,1/2-z
1/2-x,1/2-y,-z
1/2+x,1/2-y,1/2+z
loop_
_atom_site_type_symbol
_atom_site_label
_atom_site_fract_x
_atom_site_fract_y
_atom_site_fract_z
Si Si1 0.590463 0.568196 0.336006
Si Si2 0.000000 0.243603 0.250000
Si Si3 0.237513 0.599255 0.785880
Si Si4 0.012706 0.341372 0.658385
Si Si5 0.156084 0.045641 0.635475
Si Si6 0.766585 0.952643 0.563554
Si Si7 0.445795 0.217963 0.927747
Si Si8 0.160154 0.451349 0.972321
O O1 0.566401 0.609480 0.276565
O O2 0.667725 0.743240 0.326495
O O3 0.575775 0.257371 0.339393
O O4 0.525607 0.660718 0.390189
O O5 0.029091 0.438021 0.198991
O O6 0.220387 0.353200 0.748560
O O7 0.291848 0.456808 0.822495
O O8 0.046549 0.428403 0.596770
O O9 0.069927 0.115690 0.670180
O O10 0.128910 0.862483 0.590257
O O11 0.703083 0.800313 0.608248
O O12 0.838738 0.744732 0.549227
O O13 0.802585 0.234580 0.572112
O O14 0.721340 0.002871 0.513529
O O15 0.419516 0.175277 0.992455
#
# Coordination Sequence:
#
# PCOD9263556 Si02
#       8
#     8   4   8   8   8   8   8   8
#     4  10  24  40  61  94 123 179 215 286 330 400
#     4  10  20  36  62  84 120 152 226 274 332 378
#     4  12  31  47  67  93 137 184 230 275 340 412
#     4  10  21  35  63  88 121 162 217 273 329 384
#     4  11  23  40  62  96 131 172 221 268 343 391
#     4  10  20  32  60  93 138 163 204 276 336 401
#     4  10  21  37  65  96 130 163 218 278 330 394
#     4  10  19  34  58 100 130 163 211 268 342 395
#
# _framework density 27.679988999999999
#
# number of rings (size 3 to 8) (size 9 to 14) (size 15 to 20)
#    0.000    1.600    1.333    3.600   14.933    0.000 
#    0.000    0.000    0.000    1.600    0.000    0.000 
#    0.000    0.000    0.000    0.000    0.000    0.000 
#
# Total GULP energy -167214.391880 kJ/mol
# GULP energy per Si atom -5573.813063 kJ/mol
# Density = 2.761699 g / cm^3
# Si number density = 27.679989 Si / 1000 Ang^3
#
#
#
# Elastic Constant Matrix: (Units=GPa)
#
#
# Indices 1 2 3 4 5 6 
#
# 1 101.9401 26.3956 49.2625 0.0000 -12.6951 0.0000
# 2 26.3956 126.1315 18.6100 0.0000 -8.3645 0.0000
# 3 49.2625 18.6100 79.4106 0.0000 -26.7518 0.0000
# 4 0.0000 0.0000 0.0000 43.1578 0.0000 -20.6193
# 5 -12.6951 -8.3645 -26.7518 0.0000 54.2999 0.0000
# 6 0.0000 0.0000 0.0000 -20.6193 0.0000 19.6467
#
#
#
# Elastic Compliance Matrix: (Units=1/GPa)
#
#
# Indices 1 2 3 4 5 6 
#
# 1 0.014454 -0.001786 -0.008995 0.000000 -0.001327 0.000000
# 2 -0.001786 0.008439 -0.000687 0.000000 0.000544 0.000000
# 3 -0.008995 -0.000687 0.021090 0.000000 0.008182 0.000000
# 4 0.000000 0.000000 0.000000 0.046473 0.000000 0.048774
# 5 -0.001327 0.000544 0.008182 0.000000 0.022221 0.000000
# 6 0.000000 0.000000 0.000000 0.048774 0.000000 0.102087
#
#
# Mechanical properties :
#
#
# Convention : Reuss Voigt Hill
#
# Bulk Modulus (GPa) = 47.51000 55.11315 51.31158
# Shear Modulus (GPa) = 20.43194 37.63515 29.03355
#
# Velocity S-wave (km/s) = 2.71984 3.69135 3.24219
# Velocity P-wave (km/s) = 5.20237 6.17431 5.70906
#
# Compressibility (1/GPa) = 0.02104820
#
# Stress axis : x y z
#
# Youngs Moduli (GPa) = 69.18709 118.49303 47.41582
#
# Poissons Ratio (x) = 0.21158 0.42651
# Poissons Ratio (y) = 0.12354 0.03256
# Poissons Ratio (z) = 0.62234 0.08137
#
# Static dielectric constant tensor:
#      x y z
#    x 2.259540 0.000000 -0.031600 
#    y 0.000000 2.271510 0.000000 
#    z -0.031600 0.000000 2.173670 
# 
# From -- ./inp_files/314858.got.cif
#   From: 2010.05.17/outbox.cif.g08.bks.cpg/sg15_158_cif.got.tgz:314858.got - 2010.06.03 18:47:42.
