data_PCOD9263519
_publ_section_title
;
Structure prediction by ZEFSAII (Michael W. Deem and Ramdas Pophale) SiO2 
 PCOD9263519
Probable space group: C 2/C
;
_chemical_formula_sum "Si O2"
_cell_formula_units_Z 48
_cell_length_a 11.262045
_cell_length_b 11.921286
_cell_length_c 18.660670
_cell_angle_alpha 90.000000
_cell_angle_beta 125.573550
_cell_angle_gamma 90.000000
_cell_volume 2037.771250
_symmetry_space_group_name_H-M "C 2/C"
_symmetry_group_IT_number 15
_symmetry_cell_setting 'monoclinic'
loop_
_space_group_symop_operation_xyz
x,y,z
-x,y,1/2-z
-x,-y,-z
x,-y,1/2+z
1/2+x,1/2+y,z
1/2-x,1/2+y,1/2-z
1/2-x,1/2-y,-z
1/2+x,1/2-y,1/2+z
loop_
_atom_site_type_symbol
_atom_site_label
_atom_site_fract_x
_atom_site_fract_y
_atom_site_fract_z
Si Si1 0.841382 0.001505 0.904837
Si Si2 0.711886 0.621649 0.401798
Si Si3 0.336537 0.803887 0.596439
Si Si4 0.398666 0.159686 0.602700
Si Si5 0.981263 0.069819 0.664021
Si Si6 0.557435 0.025267 0.101363
O O1 0.768712 0.877292 0.888563
O O2 0.722895 0.087758 0.896795
O O3 0.884396 0.046789 0.841200
O O4 0.000000 0.000000 0.000000
O O5 0.591621 0.718227 0.359882
O O6 0.834242 0.669705 0.499222
O O7 0.650820 0.506410 0.412857
O O8 0.791157 0.587919 0.356933
O O9 0.250000 0.750000 0.500000
O O10 0.426539 0.696435 0.654806
O O11 0.449068 0.891730 0.602876
O O12 0.545903 0.088965 0.642737
O O13 0.000000 0.022389 0.750000
O O14 0.500000 0.000000 0.000000
#
# Coordination Sequence:
#
# PCOD9263519 Si02
#       6
#     8   8   8   8   8   8
#     4  11  20  39  67  93 123 162 218 273 318 393
#     4  10  19  34  57  86 124 161 197 257 319 379
#     4  11  21  38  70  95 123 170 219 270 329 388
#     4   9  18  33  60  90 115 152 207 265 314 367
#     4  12  26  43  59  94 136 172 218 270 338 400
#     4   9  18  32  57  95 121 145 202 265 319 376
#
# _framework density 23.555145
#
# number of rings (size 3 to 8) (size 9 to 14) (size 15 to 20)
#    0.000    1.667    3.333    3.000    0.000    2.667 
#    6.000    0.000    0.000    0.000    0.000    0.000 
#    0.000    0.000    0.000    0.000    0.000    0.000 
#
# Total GULP energy -133890.816011 kJ/mol
# GULP energy per Si atom -5578.784000 kJ/mol
# Density = 2.350153 g / cm^3
# Si number density = 23.555145 Si / 1000 Ang^3
#
#
#
# Elastic Constant Matrix: (Units=GPa)
#
#
# Indices 1 2 3 4 5 6 
#
# 1 132.8208 71.7571 25.4223 0.0000 -36.6988 0.0000
# 2 71.7571 184.3622 13.9461 0.0000 -17.3430 0.0000
# 3 25.4223 13.9461 59.9770 0.0000 -10.7097 0.0000
# 4 0.0000 0.0000 0.0000 11.8015 0.0000 -10.7145
# 5 -36.6988 -17.3430 -10.7097 0.0000 22.0843 0.0000
# 6 0.0000 0.0000 0.0000 -10.7145 0.0000 47.2688
#
#
#
# Elastic Compliance Matrix: (Units=1/GPa)
#
#
# Indices 1 2 3 4 5 6 
#
# 1 0.016576 -0.004107 -0.001892 0.000000 0.023403 0.000000
# 2 -0.004107 0.006894 -0.000125 0.000000 -0.001472 0.000000
# 3 -0.001892 -0.000125 0.018530 0.000000 0.005743 0.000000
# 4 0.000000 0.000000 0.000000 0.106692 0.000000 0.024184
# 5 0.023403 -0.001472 0.005743 0.000000 0.085800 0.000000
# 6 0.000000 0.000000 0.000000 0.024184 0.000000 0.026637
#
#
# Mechanical properties :
#
#
# Convention : Reuss Voigt Hill
#
# Bulk Modulus (GPa) = 33.61222 66.60120 50.10671
# Shear Modulus (GPa) = 17.64944 33.96655 25.80799
#
# Velocity S-wave (km/s) = 2.74027 3.80149 3.31364
# Velocity P-wave (km/s) = 4.93079 6.89959 5.99654
#
# Compressibility (1/GPa) = 0.02975108
#
# Stress axis : x y z
#
# Youngs Moduli (GPa) = 60.32691 145.06088 53.96735
#
# Poissons Ratio (x) = 0.59579 0.10212
# Poissons Ratio (y) = 0.24777 0.00674
# Poissons Ratio (z) = 0.11415 0.01812
#
# Static dielectric constant tensor:
#      x y z
#    x 2.436240 0.000000 0.990320 
#    y 0.000000 1.986730 0.000000 
#    z 0.990320 0.000000 3.670160 
# 
# From -- ./inp_files/196219.got.cif
#   From: 2010.05.17/outbox.cif.g08.bks.cpg/sg15_99_cif.got.tgz:196219.got - 2010.06.03 18:47:42.
