data_PCOD9263063
_publ_section_title
;
Structure prediction by ZEFSAII (Michael W. Deem and Ramdas Pophale) SiO2 
 PCOD9263063
Probable space group: C 2/C
;
_chemical_formula_sum "Si O2"
_cell_formula_units_Z 56
_cell_length_a 21.529655
_cell_length_b 9.042398
_cell_length_c 31.486105
_cell_angle_alpha 90.000000
_cell_angle_beta 154.868092
_cell_angle_gamma 90.000000
_cell_volume 2603.308523
_symmetry_space_group_name_H-M "C 2/C"
_symmetry_group_IT_number 15
_symmetry_cell_setting 'monoclinic'
loop_
_space_group_symop_operation_xyz
x,y,z
-x,y,1/2-z
-x,-y,-z
x,-y,1/2+z
1/2+x,1/2+y,z
1/2-x,1/2+y,1/2-z
1/2-x,1/2-y,-z
1/2+x,1/2-y,1/2+z
loop_
_atom_site_type_symbol
_atom_site_label
_atom_site_fract_x
_atom_site_fract_y
_atom_site_fract_z
Si Si1 0.813219 0.174155 0.821590
Si Si2 0.334204 0.043129 0.450931
Si Si3 0.956077 0.503354 0.676725
Si Si4 0.780035 0.076459 0.026519
Si Si5 0.550499 0.764472 0.031103
Si Si6 0.178539 0.367558 0.751382
Si Si7 0.584044 0.669177 0.238561
O O1 0.862335 0.247904 0.808711
O O2 0.695504 0.285216 0.770291
O O3 0.734343 0.019631 0.764870
O O4 0.943830 0.163839 0.936531
O O5 0.308110 0.034220 0.485123
O O6 0.452653 0.164521 0.508484
O O7 0.180692 0.094634 0.335013
O O8 0.391374 0.894139 0.464065
O O9 0.044574 0.409247 0.697778
O O10 0.015292 0.673365 0.710602
O O11 0.000000 0.448738 0.750000
O O12 0.788680 0.500659 0.557619
O O13 0.952337 0.065849 0.141377
O O14 0.750000 0.250000 0.000000
O O15 0.688359 0.687427 0.137245
#
# Coordination Sequence:
#
# PCOD9263063 Si02
#       7
#     8   8   8   8   8   8   8
#     4  10  23  41  63  96 128 160 220 260 323 381
#     4  10  20  36  63  91 127 156 216 264 321 372
#     4  10  21  39  58  86 129 170 211 256 312 378
#     4  10  19  33  61  92 122 162 208 265 314 360
#     4  10  23  39  62  90 129 171 203 265 323 382
#     4  11  24  41  68  91 130 167 208 268 321 382
#     4   9  19  35  59  95 121 162 209 270 308 373
#
# _framework density 21.511088000000001
#
# number of rings (size 3 to 8) (size 9 to 14) (size 15 to 20)
#    0.000    2.000    0.000    3.429   12.000    0.000 
#    2.571    1.429    0.000    2.571    0.000    0.000 
#    0.000    0.000    0.000    0.000    0.000    0.000 
#
# Total GULP energy -156501.949660 kJ/mol
# GULP energy per Si atom -5589.355345 kJ/mol
# Density = 2.146213 g / cm^3
# Si number density = 21.511088 Si / 1000 Ang^3
#
#
#
# Elastic Constant Matrix: (Units=GPa)
#
#
# Indices 1 2 3 4 5 6 
#
# 1 44.0453 10.0472 24.1684 -0.0002 -18.0108 -0.0001
# 2 10.0472 14.8749 -5.0766 0.0001 -6.4529 0.0002
# 3 24.1684 -5.0766 107.3771 -0.0018 2.9521 -0.0004
# 4 -0.0002 0.0001 -0.0018 15.6252 0.0018 -10.0357
# 5 -18.0108 -6.4529 2.9521 0.0018 22.0870 -0.0001
# 6 -0.0001 0.0002 -0.0004 -10.0357 -0.0001 17.2364
#
#
#
# Elastic Compliance Matrix: (Units=1/GPa)
#
#
# Indices 1 2 3 4 5 6 
#
# 1 0.049740 -0.022622 -0.013247 -0.000007 0.035722 -0.000004
# 2 -0.022622 0.088269 0.009097 -0.000002 0.006126 -0.000002
# 3 -0.013247 0.009097 0.012996 0.000004 -0.009882 0.000002
# 4 -0.000007 -0.000002 0.000004 0.102229 -0.000015 0.059522
# 5 0.035722 0.006126 -0.009882 -0.000015 0.077515 -0.000009
# 6 -0.000004 -0.000002 0.000002 0.059522 -0.000009 0.092673
#
#
# Mechanical properties :
#
#
# Convention : Reuss Voigt Hill
#
# Bulk Modulus (GPa) = 10.26046 24.95279 17.60663
# Shear Modulus (GPa) = 9.81441 20.13360 14.97400
#
# Velocity S-wave (km/s) = 2.13832 3.06267 2.64125
# Velocity P-wave (km/s) = 3.29799 4.91241 4.18381
#
# Compressibility (1/GPa) = 0.09746154
#
# Stress axis : x y z
#
# Youngs Moduli (GPa) = 20.10439 11.32895 76.94443
#
# Poissons Ratio (x) = 0.25628 1.01930
# Poissons Ratio (y) = 0.45480 -0.69993
# Poissons Ratio (z) = 0.26633 -0.10305
#
# Static dielectric constant tensor:
#      x y z
#    x 1.772410 0.000000 0.000970 
#    y 0.000000 1.761970 0.000000 
#    z 0.000970 0.000000 1.791720 
# 
# From -- ./inp_files/317531.got.cif
#   From: 2010.05.17/outbox.cif.g08.bks.cpg/sg15_159_cif.got.tgz:317531.got - 2010.06.03 18:47:42.
