data_PCOD9263631
_publ_section_title
;
Structure prediction by ZEFSAII (Michael W. Deem and Ramdas Pophale) SiO2 
 PCOD9263631
Probable space group: C 2/C
;
_chemical_formula_sum "Si O2"
_cell_formula_units_Z 48
_cell_length_a 12.718634
_cell_length_b 15.270839
_cell_length_c 20.281186
_cell_angle_alpha 90.000000
_cell_angle_beta 140.110521
_cell_angle_gamma 90.000000
_cell_volume 2526.177608
_symmetry_space_group_name_H-M "C 2/C"
_symmetry_group_IT_number 15
_symmetry_cell_setting 'monoclinic'
loop_
_space_group_symop_operation_xyz
x,y,z
-x,y,1/2-z
-x,-y,-z
x,-y,1/2+z
1/2+x,1/2+y,z
1/2-x,1/2+y,1/2-z
1/2-x,1/2-y,-z
1/2+x,1/2-y,1/2+z
loop_
_atom_site_type_symbol
_atom_site_label
_atom_site_fract_x
_atom_site_fract_y
_atom_site_fract_z
Si Si1 0.183151 0.152236 0.780217
Si Si2 0.375098 0.749742 0.619978
Si Si3 0.531087 0.224936 0.949983
Si Si4 0.877892 0.156608 0.129620
Si Si5 0.152873 0.116973 0.072369
Si Si6 0.524528 0.498753 0.123015
O O1 0.163808 0.168715 0.849305
O O2 0.373375 0.166334 0.859050
O O3 0.063564 0.229217 0.693096
O O4 0.121923 0.062431 0.720234
O O5 0.250000 0.750000 0.500000
O O6 0.323956 0.837297 0.635079
O O7 0.577338 0.270597 0.903391
O O8 0.468181 0.301845 0.968467
O O9 0.687388 0.173960 0.053657
O O10 0.910620 0.064861 0.108847
O O11 0.000000 0.162933 0.250000
O O12 0.143621 0.055554 0.132434
O O13 0.081885 0.061733 0.977326
#
# Coordination Sequence:
#
# PCOD9263631 Si02
#       6
#     8   8   8   8   8   8
#     4  10  21  35  62  86 119 153 194 242 294 348
#     4  10  19  34  58  88 112 154 196 236 284 352
#     4   9  21  41  56  87 111 158 201 228 286 362
#     4  10  22  37  61  83 116 150 196 244 290 340
#     4   9  19  37  61  83 119 159 194 236 290 347
#     4  10  20  36  59  88 120 153 189 249 296 336
#
# _framework density 19.001038999999999
#
# number of rings (size 3 to 8) (size 9 to 14) (size 15 to 20)
#    0.000    2.333    1.667    0.000    4.667    0.000 
#    0.000    9.167    0.000    0.000    0.000    0.000 
#    0.000    0.000    0.000    0.000    0.000    0.000 
#
# Total GULP energy -133714.016458 kJ/mol
# GULP energy per Si atom -5571.417352 kJ/mol
# Density = 1.895779 g / cm^3
# Si number density = 19.001039 Si / 1000 Ang^3
#
#
#
# Elastic Constant Matrix: (Units=GPa)
#
#
# Indices 1 2 3 4 5 6 
#
# 1 51.7334 35.2126 53.8583 0.0000 5.2802 0.0000
# 2 35.2126 99.9866 56.7932 0.0000 1.5841 0.0000
# 3 53.8583 56.7932 149.2080 0.0000 4.4183 0.0000
# 4 0.0000 0.0000 0.0000 36.0030 0.0000 -5.0557
# 5 5.2802 1.5841 4.4183 0.0000 41.4168 0.0000
# 6 0.0000 0.0000 0.0000 -5.0557 0.0000 17.9917
#
#
#
# Elastic Compliance Matrix: (Units=1/GPa)
#
#
# Indices 1 2 3 4 5 6 
#
# 1 0.034249 -0.006433 -0.009823 0.000000 -0.003072 0.000000
# 2 -0.006433 0.013969 -0.003013 0.000000 0.000607 0.000000
# 3 -0.009823 -0.003013 0.011390 0.000000 0.000152 0.000000
# 4 0.000000 0.000000 0.000000 0.028917 0.000000 0.008126
# 5 -0.003072 0.000607 0.000152 0.000000 0.024497 0.000000
# 6 0.000000 0.000000 0.000000 0.008126 0.000000 0.057864
#
#
# Mechanical properties :
#
#
# Convention : Reuss Voigt Hill
#
# Bulk Modulus (GPa) = 47.46188 65.85071 56.65630
# Shear Modulus (GPa) = 23.10049 29.41988 26.26018
#
# Velocity S-wave (km/s) = 3.49054 3.93915 3.72161
# Velocity P-wave (km/s) = 6.42479 7.44452 6.95337
#
# Compressibility (1/GPa) = 0.02106954
#
# Stress axis : x y z
#
# Youngs Moduli (GPa) = 29.19834 71.58908 87.79742
#
# Poissons Ratio (x) = 0.46056 0.86240
# Poissons Ratio (y) = 0.18784 0.26450
# Poissons Ratio (z) = 0.28681 0.21567
#
# Static dielectric constant tensor:
#      x y z
#    x 1.727110 0.000000 0.008520 
#    y 0.000000 1.669940 0.000000 
#    z 0.008520 0.000000 1.661250 
# 
# From -- ./inp_files/274386.got.cif
#   From: 2010.05.17/outbox.cif.g08.bks.cpg/sg15_138_cif.got.tgz:274386.got - 2010.06.03 18:47:42.
