data_PCOD9263060
_publ_section_title
;
Structure prediction by ZEFSAII (Michael W. Deem and Ramdas Pophale) SiO2 
 PCOD9263060
Probable space group: C 2/C
;
_chemical_formula_sum "Si O2"
_cell_formula_units_Z 48
_cell_length_a 13.584055
_cell_length_b 13.391234
_cell_length_c 20.802089
_cell_angle_alpha 90.000000
_cell_angle_beta 41.030427
_cell_angle_gamma 90.000000
_cell_volume 2484.077079
_symmetry_space_group_name_H-M "C 2/C"
_symmetry_group_IT_number 15
_symmetry_cell_setting 'monoclinic'
loop_
_space_group_symop_operation_xyz
x,y,z
-x,y,1/2-z
-x,-y,-z
x,-y,1/2+z
1/2+x,1/2+y,z
1/2-x,1/2+y,1/2-z
1/2-x,1/2-y,-z
1/2+x,1/2-y,1/2+z
loop_
_atom_site_type_symbol
_atom_site_label
_atom_site_fract_x
_atom_site_fract_y
_atom_site_fract_z
Si Si1 0.252417 0.824085 0.749392
Si Si2 0.022016 0.022724 0.414990
Si Si3 0.764441 0.118343 0.463324
Si Si4 0.970359 0.301064 0.335505
Si Si5 0.902078 0.137201 0.732309
Si Si6 0.834626 0.512997 0.106985
O O1 0.165392 0.904876 0.835964
O O2 0.367218 0.750000 0.727613
O O3 0.326944 0.892634 0.658261
O O4 0.120181 0.755652 0.783870
O O5 0.878243 0.084292 0.461830
O O6 0.036234 0.928825 0.358530
O O7 0.000000 0.000000 0.500000
O O8 0.835177 0.219389 0.398883
O O9 0.599507 0.128290 0.575420
O O10 0.765595 0.040962 0.405174
O O11 0.000000 0.344313 0.250000
O O12 0.000000 0.133725 0.750000
O O13 0.742877 0.083489 0.824810
O O14 0.000000 0.500000 0.000000
#
# Coordination Sequence:
#
# PCOD9263060 Si02
#       6
#     8   8   8   8   8   8
#     4  10  23  40  64  92 123 163 218 260 316 387
#     4  10  23  41  64  92 129 164 211 268 320 379
#     4  10  20  36  60  91 117 161 212 262 318 380
#     4  10  19  33  61  89 119 153 208 272 322 362
#     4  11  23  43  68  90 129 181 210 257 332 386
#     4  11  22  41  64  93 127 168 217 264 318 386
#
# _framework density 19.323073000000001
#
# number of rings (size 3 to 8) (size 9 to 14) (size 15 to 20)
#    0.000    1.667    3.333    1.000    2.333    2.667 
#    3.000    1.667    0.000    0.000    0.000    0.000 
#    0.000    0.000    0.000    0.000    0.000    0.000 
#
# Total GULP energy -133836.545156 kJ/mol
# GULP energy per Si atom -5576.522715 kJ/mol
# Density = 1.927909 g / cm^3
# Si number density = 19.323073 Si / 1000 Ang^3
#
#
#
# Elastic Constant Matrix: (Units=GPa)
#
#
# Indices 1 2 3 4 5 6 
#
# 1 76.7275 45.3125 48.7071 0.0000 14.6828 0.0000
# 2 45.3125 88.3780 47.9978 0.0000 10.8560 0.0000
# 3 48.7071 47.9978 131.4571 0.0000 11.8291 0.0000
# 4 0.0000 0.0000 0.0000 22.4610 0.0000 4.5323
# 5 14.6828 10.8560 11.8291 0.0000 34.8695 0.0000
# 6 0.0000 0.0000 0.0000 4.5323 0.0000 31.1383
#
#
#
# Elastic Compliance Matrix: (Units=1/GPa)
#
#
# Indices 1 2 3 4 5 6 
#
# 1 0.021658 -0.007948 -0.004667 0.000000 -0.005062 0.000000
# 2 -0.007948 0.017287 -0.003284 0.000000 -0.000921 0.000000
# 3 -0.004667 -0.003284 0.010590 0.000000 -0.000605 0.000000
# 4 0.000000 0.000000 0.000000 0.045869 0.000000 -0.006676
# 5 -0.005062 -0.000921 -0.000605 0.000000 0.031302 0.000000
# 6 0.000000 0.000000 0.000000 -0.006676 0.000000 0.033087
#
#
# Mechanical properties :
#
#
# Convention : Reuss Voigt Hill
#
# Bulk Modulus (GPa) = 56.38110 64.51082 60.44596
# Shear Modulus (GPa) = 25.31607 27.99677 26.65642
#
# Velocity S-wave (km/s) = 3.62352 3.81054 3.71821
# Velocity P-wave (km/s) = 6.83725 7.26761 7.05571
#
# Compressibility (1/GPa) = 0.01773644
#
# Stress axis : x y z
#
# Youngs Moduli (GPa) = 46.17138 57.84782 94.42995
#
# Poissons Ratio (x) = 0.45977 0.44074
# Poissons Ratio (y) = 0.36697 0.31011
# Poissons Ratio (z) = 0.21550 0.18997
#
# Static dielectric constant tensor:
#      x y z
#    x 1.674090 0.000000 0.012820 
#    y 0.000000 1.692480 0.000000 
#    z 0.012820 0.000000 1.692470 
# 
# From -- ./inp_files/243899.got.cif
#   From: 2010.05.17/outbox.cif.g08.bks.cpg/sg15_122_cif.got.tgz:243899.got - 2010.06.03 18:47:42.
