data_PCOD9263496
_publ_section_title
;
Structure prediction by ZEFSAII (Michael W. Deem and Ramdas Pophale) SiO2 
 PCOD9263496
Probable space group: C 2/C
;
_chemical_formula_sum "Si O2"
_cell_formula_units_Z 64
_cell_length_a 9.434222
_cell_length_b 28.246943
_cell_length_c 27.103949
_cell_angle_alpha 90.000000
_cell_angle_beta 27.792327
_cell_angle_gamma 90.000000
_cell_volume 3367.796873
_symmetry_space_group_name_H-M "C 2/C"
_symmetry_group_IT_number 15
_symmetry_cell_setting 'monoclinic'
loop_
_space_group_symop_operation_xyz
x,y,z
-x,y,1/2-z
-x,-y,-z
x,-y,1/2+z
1/2+x,1/2+y,z
1/2-x,1/2+y,1/2-z
1/2-x,1/2-y,-z
1/2+x,1/2-y,1/2+z
loop_
_atom_site_type_symbol
_atom_site_label
_atom_site_fract_x
_atom_site_fract_y
_atom_site_fract_z
Si Si1 0.169877 0.564836 0.984367
Si Si2 0.224417 0.359654 0.953397
Si Si3 0.207888 0.292102 0.869132
Si Si4 0.703015 0.866584 0.564065
Si Si5 0.910230 0.784333 0.022871
Si Si6 0.795859 0.420002 0.768793
Si Si7 0.916291 0.000538 0.330022
Si Si8 0.355495 0.784631 0.131293
O O1 0.406564 0.538440 0.876069
O O2 0.272086 0.592953 0.001828
O O3 0.001421 0.602809 0.001709
O O4 0.914061 0.525324 0.075115
O O5 0.320170 0.324471 0.880053
O O6 0.525807 0.388089 0.875625
O O7 0.031873 0.328284 0.050708
O O8 0.500000 0.274685 0.750000
O O9 0.031169 0.248973 0.948367
O O10 0.005036 0.326804 0.898490
O O11 0.509066 0.888844 0.667898
O O12 0.987663 0.837349 0.497361
O O13 0.554675 0.778650 0.119130
O O14 0.088473 0.760819 0.921593
O O15 0.637604 0.458406 0.782025
O O16 0.000000 0.440472 0.750000
O O17 0.000000 0.982377 0.250000
O O18 0.000000 0.791914 0.250000
#
# Coordination Sequence:
#
# PCOD9263496 Si02
#       8
#     8   8   8   8   8   8   8   8
#     4   9  20  35  63  89 113 153 203 252 302 373
#     4   9  19  36  57  86 114 152 203 242 289 370
#     4  10  19  34  57  84 115 158 203 246 293 355
#     4  11  20  36  61  89 124 159 202 263 307 365
#     4  10  23  36  56  87 120 159 209 253 305 354
#     4  11  21  34  62  93 121 152 200 260 311 358
#     4  10  19  38  63  89 117 154 201 250 313 382
#     4  10  22  39  56  81 123 166 204 249 305 365
#
# _framework density 19.003522
#
# number of rings (size 3 to 8) (size 9 to 14) (size 15 to 20)
#    0.000    2.000    2.500    1.125    1.750    2.000 
#    0.000    0.625    5.500    0.000    0.000    0.000 
#    0.000    0.000    0.000    0.000    0.000    0.000 
#
# Total GULP energy -178442.841751 kJ/mol
# GULP energy per Si atom -5576.338805 kJ/mol
# Density = 1.896027 g / cm^3
# Si number density = 19.003522 Si / 1000 Ang^3
#
#
#
# Elastic Constant Matrix: (Units=GPa)
#
#
# Indices 1 2 3 4 5 6 
#
# 1 81.1064 17.0250 47.2863 0.0019 -0.7850 -0.0025
# 2 17.0250 68.2336 32.3863 0.0005 5.8599 0.0011
# 3 47.2863 32.3863 77.7323 -0.0061 1.9031 0.0149
# 4 0.0019 0.0005 -0.0061 20.7962 0.0018 4.6766
# 5 -0.7850 5.8599 1.9031 0.0018 20.6403 -0.0028
# 6 -0.0025 0.0011 0.0149 4.6766 -0.0028 21.4566
#
#
#
# Elastic Compliance Matrix: (Units=1/GPa)
#
#
# Indices 1 2 3 4 5 6 
#
# 1 0.019206 0.000789 -0.012052 -0.000008 0.001618 0.000013
# 2 0.000789 0.018726 -0.008171 -0.000004 -0.004533 0.000005
# 3 -0.012052 -0.008171 0.023608 0.000013 -0.000315 -0.000020
# 4 -0.000008 -0.000004 0.000013 0.050564 -0.000006 -0.011021
# 5 0.001618 -0.004533 -0.000315 -0.000006 0.049827 0.000009
# 6 0.000013 0.000005 -0.000020 -0.011021 0.000009 0.049008
#
#
# Mechanical properties :
#
#
# Convention : Reuss Voigt Hill
#
# Bulk Modulus (GPa) = 44.10569 46.71862 45.41216
# Shear Modulus (GPa) = 19.42774 21.27025 20.34899
#
# Velocity S-wave (km/s) = 3.20085 3.34919 3.27586
# Velocity P-wave (km/s) = 6.07620 6.29235 6.18522
#
# Compressibility (1/GPa) = 0.02267281
#
# Stress axis : x y z
#
# Youngs Moduli (GPa) = 52.06738 53.40084 42.35806
#
# Poissons Ratio (x) = -0.04215 0.51049
# Poissons Ratio (y) = -0.04109 0.34612
# Poissons Ratio (z) = 0.62751 0.43635
#
# Static dielectric constant tensor:
#      x y z
#    x 1.689660 0.000000 0.003910 
#    y 0.000000 1.677520 0.000000 
#    z 0.003910 0.000000 1.656700 
# 
# From -- ./inp_files/266704.got.cif
#   From: 2010.05.17/outbox.cif.g08.bks.cpg/sg15_134_cif.got.tgz:266704.got - 2010.06.03 18:47:42.
