data_PCOD9263795
_publ_section_title
;
Structure prediction by ZEFSAII (Michael W. Deem and Ramdas Pophale) SiO2 
 PCOD9263795
Probable space group: C 2/C
;
_chemical_formula_sum "Si O2"
_cell_formula_units_Z 64
_cell_length_a 13.906068
_cell_length_b 14.247585
_cell_length_c 16.250669
_cell_angle_alpha 90.000000
_cell_angle_beta 128.437789
_cell_angle_gamma 90.000000
_cell_volume 2521.946626
_symmetry_space_group_name_H-M "C 2/C"
_symmetry_group_IT_number 15
_symmetry_cell_setting 'monoclinic'
loop_
_space_group_symop_operation_xyz
x,y,z
-x,y,1/2-z
-x,-y,-z
x,-y,1/2+z
1/2+x,1/2+y,z
1/2-x,1/2+y,1/2-z
1/2-x,1/2-y,-z
1/2+x,1/2-y,1/2+z
loop_
_atom_site_type_symbol
_atom_site_label
_atom_site_fract_x
_atom_site_fract_y
_atom_site_fract_z
Si Si1 0.178910 0.449332 0.652742
Si Si2 0.371988 0.743081 0.846578
Si Si3 0.433185 0.331666 0.634167
Si Si4 0.323734 0.616895 0.691212
Si Si5 0.925525 0.507563 0.586085
Si Si6 0.770634 0.858279 0.988825
Si Si7 0.723782 0.851706 0.402365
Si Si8 0.896322 0.765376 0.918465
O O1 0.195374 0.343065 0.692173
O O2 0.297017 0.516286 0.717000
O O3 0.130618 0.454349 0.531408
O O4 0.068262 0.492657 0.647032
O O5 0.408867 0.691157 0.782872
O O6 0.288666 0.667665 0.850730
O O7 0.490208 0.763303 0.963707
O O8 0.500000 0.373189 0.750000
O O9 0.343133 0.247101 0.614303
O O10 0.336790 0.383790 0.522676
O O11 0.540117 0.290695 0.633143
O O12 0.346110 0.601662 0.606611
O O13 0.195992 0.677558 0.632364
O O14 0.857879 0.411486 0.574467
O O15 0.882855 0.576119 0.635157
O O16 0.833854 0.852764 0.933700
O O17 0.750000 0.750000 0.000000
#
# Coordination Sequence:
#
# PCOD9263795 Si02
#       8
#     8   8   8   8   8   8   8   8
#     4  10  19  36  65  94 121 168 219 269 326 390
#     4  11  22  39  64  97 131 170 218 273 331 391
#     4  10  19  34  60  90 123 166 207 254 329 398
#     4  10  21  38  63  93 128 172 217 268 320 392
#     4  10  19  37  65  93 122 160 221 271 324 391
#     4   9  19  37  61  85 122 171 211 256 318 383
#     4  10  21  36  61  93 128 162 210 275 329 376
#     4  10  20  37  61  89 124 171 214 263 326 380
#
# _framework density 25.377222
#
# number of rings (size 3 to 8) (size 9 to 14) (size 15 to 20)
#    0.000    2.000    0.000    6.750    0.000    0.500 
#    4.500    2.500    8.250    0.000    0.000    0.000 
#    0.000    0.000    0.000    0.000    0.000    0.000 
#
# Total GULP energy -178871.106673 kJ/mol
# GULP energy per Si atom -5589.722084 kJ/mol
# Density = 2.531946 g / cm^3
# Si number density = 25.377222 Si / 1000 Ang^3
#
#
#
# Elastic Constant Matrix: (Units=GPa)
#
#
# Indices 1 2 3 4 5 6 
#
# 1 107.1341 3.0490 23.8683 0.0000 -5.2040 0.0000
# 2 3.0490 74.0773 10.5501 0.0000 -5.2205 0.0000
# 3 23.8683 10.5501 102.1213 0.0000 -8.1838 0.0000
# 4 0.0000 0.0000 0.0000 8.7968 0.0000 2.7986
# 5 -5.2040 -5.2205 -8.1838 0.0000 30.4723 0.0000
# 6 0.0000 0.0000 0.0000 2.7986 0.0000 48.4053
#
#
#
# Elastic Compliance Matrix: (Units=1/GPa)
#
#
# Indices 1 2 3 4 5 6 
#
# 1 0.009882 -0.000014 -0.002221 0.000000 0.001089 0.000000
# 2 -0.000014 0.013823 -0.001262 0.000000 0.002027 0.000000
# 3 -0.002221 -0.001262 0.010623 0.000000 0.002257 0.000000
# 4 0.000000 0.000000 0.000000 0.115807 0.000000 -0.006695
# 5 0.001089 0.002027 0.002257 0.000000 0.033956 0.000000
# 6 0.000000 0.000000 0.000000 -0.006695 0.000000 0.021046
#
#
# Mechanical properties :
#
#
# Convention : Reuss Voigt Hill
#
# Bulk Modulus (GPa) = 36.58550 39.80750 38.19650
# Shear Modulus (GPa) = 22.59965 33.92592 28.26279
#
# Velocity S-wave (km/s) = 2.98744 3.66028 3.34085
# Velocity P-wave (km/s) = 5.13300 5.79516 5.47410
#
# Compressibility (1/GPa) = 0.02733323
#
# Stress axis : x y z
#
# Youngs Moduli (GPa) = 101.19203 72.34535 94.13797
#
# Poissons Ratio (x) = 0.00099 0.20908
# Poissons Ratio (y) = 0.00139 0.11884
# Poissons Ratio (z) = 0.22475 0.09133
#
# Static dielectric constant tensor:
#      x y z
#    x 1.976860 0.000000 -0.002880 
#    y 0.000000 1.995120 0.000000 
#    z -0.002880 0.000000 2.108330 
# 
# From -- ./inp_files/205732.got.cif
#   From: 2010.05.17/outbox.cif.g08.bks.cpg/sg15_103_cif.got.tgz:205732.got - 2010.06.03 18:47:42.
