data_PCOD9263780
_publ_section_title
;
Structure prediction by ZEFSAII (Michael W. Deem and Ramdas Pophale) SiO2 
 PCOD9263780
Probable space group: C 2/C
;
_chemical_formula_sum "Si O2"
_cell_formula_units_Z 56
_cell_length_a 29.829644
_cell_length_b 10.098387
_cell_length_c 18.079573
_cell_angle_alpha 90.000000
_cell_angle_beta 31.980045
_cell_angle_gamma 90.000000
_cell_volume 2884.402099
_symmetry_space_group_name_H-M "C 2/C"
_symmetry_group_IT_number 15
_symmetry_cell_setting 'monoclinic'
loop_
_space_group_symop_operation_xyz
x,y,z
-x,y,1/2-z
-x,-y,-z
x,-y,1/2+z
1/2+x,1/2+y,z
1/2-x,1/2+y,1/2-z
1/2-x,1/2-y,-z
1/2+x,1/2-y,1/2+z
loop_
_atom_site_type_symbol
_atom_site_label
_atom_site_fract_x
_atom_site_fract_y
_atom_site_fract_z
Si Si1 0.544564 0.137599 0.456850
Si Si2 0.261124 0.665054 0.366306
Si Si3 0.181178 0.089785 0.066429
Si Si4 0.998848 0.223459 0.170444
Si Si5 0.187454 0.520877 0.333186
Si Si6 0.910823 0.249195 0.048034
Si Si7 0.633986 0.485587 0.989731
O O1 0.515281 0.182991 0.578835
O O2 0.643640 0.110169 0.330381
O O3 0.503908 0.234679 0.453250
O O4 0.500000 0.000000 0.500000
O O5 0.230637 0.801388 0.447161
O O6 0.272960 0.567985 0.419957
O O7 0.197759 0.604523 0.394110
O O8 0.347604 0.695652 0.200928
O O9 0.092350 0.157212 0.211446
O O10 0.160820 0.973320 0.037825
O O11 0.000000 0.289108 0.250000
O O12 0.068971 0.107404 0.074533
O O13 0.130276 0.389371 0.419310
O O14 0.281606 0.483964 0.175498
O O15 0.906875 0.144576 0.987776
#
# Coordination Sequence:
#
# PCOD9263780 Si02
#       7
#     8   8   8   8   8   8   8
#     4  10  21  36  58  85 116 152 192 239 289 346
#     4  10  19  34  60  87 112 149 192 242 285 342
#     4  10  19  36  60  83 116 145 196 238 284 337
#     4  10  20  35  57  89 115 148 190 237 284 333
#     4  10  20  36  55  83 119 149 192 236 295 340
#     4  10  20  37  54  86 120 147 190 239 290 348
#     4  10  21  34  58  87 116 151 189 243 286 343
#
# _framework density 19.414769
#
# number of rings (size 3 to 8) (size 9 to 14) (size 15 to 20)
#    0.000    2.000    2.857    1.714    2.000    0.571 
#    0.000    0.714    0.000   24.000    0.000    0.000 
#    0.000    0.000    0.000    0.000    0.000    0.000 
#
# Total GULP energy -156092.433089 kJ/mol
# GULP energy per Si atom -5574.729753 kJ/mol
# Density = 1.937058 g / cm^3
# Si number density = 19.414769 Si / 1000 Ang^3
#
#
#
# Elastic Constant Matrix: (Units=GPa)
#
#
# Indices 1 2 3 4 5 6 
#
# 1 140.1130 39.2598 -8.6182 -0.0002 8.9207 0.0001
# 2 39.2598 51.4889 -0.6885 -0.0003 14.0908 0.0001
# 3 -8.6182 -0.6885 22.3669 -0.0005 -4.1113 0.0002
# 4 -0.0002 -0.0003 -0.0005 14.6610 0.0003 3.0344
# 5 8.9207 14.0908 -4.1113 0.0003 16.8805 -0.0001
# 6 0.0001 0.0001 0.0002 3.0344 -0.0001 37.0486
#
#
#
# Elastic Compliance Matrix: (Units=1/GPa)
#
#
# Indices 1 2 3 4 5 6 
#
# 1 0.009399 -0.007792 0.003836 0.000000 0.002471 0.000000
# 2 -0.007792 0.031856 -0.006441 0.000001 -0.024043 0.000000
# 3 0.003836 -0.006441 0.048789 0.000001 0.015232 0.000000
# 4 0.000000 0.000001 0.000001 0.069384 -0.000002 -0.005683
# 5 0.002471 -0.024043 0.015232 -0.000002 0.081714 0.000000
# 6 0.000000 0.000000 0.000000 -0.005683 0.000000 0.027457
#
#
# Mechanical properties :
#
#
# Convention : Reuss Voigt Hill
#
# Bulk Modulus (GPa) = 14.44034 30.43056 22.43545
# Shear Modulus (GPa) = 16.00126 25.98572 20.99349
#
# Velocity S-wave (km/s) = 2.87397 3.66245 3.29190
# Velocity P-wave (km/s) = 4.29731 5.79592 5.10194
#
# Compressibility (1/GPa) = 0.06925045
#
# Stress axis : x y z
#
# Youngs Moduli (GPa) = 106.39532 31.39098 20.49661
#
# Poissons Ratio (x) = 0.24459 -0.07862
# Poissons Ratio (y) = 0.82899 0.13202
# Poissons Ratio (z) = -0.40812 0.20219
#
# Static dielectric constant tensor:
#      x y z
#    x 1.738860 0.000000 -0.021140 
#    y 0.000000 1.692500 0.000000 
#    z -0.021140 0.000000 1.677390 
# 
# From -- ./inp_files/177601.got.cif
#   From: 2010.05.17/outbox.cif.g08.bks.cpg/sg15_89_cif.got.tgz:177601.got - 2010.06.03 18:47:42.
