data_PCOD9263703
_publ_section_title
;
Structure prediction by ZEFSAII (Michael W. Deem and Ramdas Pophale) SiO2 
 PCOD9263703
Probable space group: C 2/C
;
_chemical_formula_sum "Si O2"
_cell_formula_units_Z 64
_cell_length_a 27.765038
_cell_length_b 8.956655
_cell_length_c 15.409163
_cell_angle_alpha 90.000000
_cell_angle_beta 48.334289
_cell_angle_gamma 90.000000
_cell_volume 2862.627186
_symmetry_space_group_name_H-M "C 2/C"
_symmetry_group_IT_number 15
_symmetry_cell_setting 'monoclinic'
loop_
_space_group_symop_operation_xyz
x,y,z
-x,y,1/2-z
-x,-y,-z
x,-y,1/2+z
1/2+x,1/2+y,z
1/2-x,1/2+y,1/2-z
1/2-x,1/2-y,-z
1/2+x,1/2-y,1/2+z
loop_
_atom_site_type_symbol
_atom_site_label
_atom_site_fract_x
_atom_site_fract_y
_atom_site_fract_z
Si Si1 0.783638 0.383596 0.279009
Si Si2 0.407250 0.408140 0.172442
Si Si3 0.330918 0.524837 0.999677
Si Si4 0.460362 0.557662 0.938773
Si Si5 0.907051 0.440710 0.676827
Si Si6 0.214908 0.919645 0.620614
Si Si7 0.325882 0.864374 0.026209
Si Si8 0.955980 0.412666 0.942149
O O1 0.717999 0.478493 0.364891
O O2 0.841424 0.466714 0.261760
O O3 0.772943 0.228931 0.340716
O O4 0.805427 0.359016 0.153264
O O5 0.463882 0.457261 0.171505
O O6 0.392700 0.234199 0.197015
O O7 0.341844 0.495155 0.261628
O O8 0.439579 0.451610 0.042645
O O9 0.405758 0.522533 0.934619
O O10 0.312926 0.415312 0.943082
O O11 0.318412 0.699903 0.995014
O O12 0.455362 0.735282 0.968933
O O13 0.932548 0.487194 0.550610
O O14 0.970096 0.460064 0.662496
O O15 0.279009 0.017686 0.539579
O O16 0.400390 0.916421 0.936524
#
# Coordination Sequence:
#
# PCOD9263703 Si02
#       8
#     8   8   8   8   8   8   8   8
#     4  11  22  38  58  82 115 154 195 237 284 349
#     4  10  19  34  59  87 111 147 194 238 283 344
#     4  11  23  39  57  82 116 150 186 241 302 349
#     4   9  19  36  59  85 112 144 193 242 287 345
#     4   9  17  31  56  85 111 139 180 233 285 332
#     4  12  24  37  55  83 118 153 191 240 298 349
#     4  10  20  37  61  84 110 149 198 241 283 345
#     4   8  16  32  54  84 111 137 177 237 289 328
#
# _framework density 22.357085000000001
#
# number of rings (size 3 to 8) (size 9 to 14) (size 15 to 20)
#    0.000    2.000    0.000    5.250    0.000    4.500 
#    0.000    0.000    0.000    3.750    0.000    0.000 
#    0.000    0.000    0.000    0.000    0.000    0.000 
#
# Total GULP energy -178665.599672 kJ/mol
# GULP energy per Si atom -5583.299990 kJ/mol
# Density = 2.230620 g / cm^3
# Si number density = 22.357085 Si / 1000 Ang^3
#
#
#
# Elastic Constant Matrix: (Units=GPa)
#
#
# Indices 1 2 3 4 5 6 
#
# 1 78.4512 15.2910 15.1261 0.0000 -16.8929 0.0000
# 2 15.2910 35.1186 10.2059 0.0001 -12.8393 -0.0001
# 3 15.1261 10.2059 38.9394 0.0000 6.2773 0.0000
# 4 0.0000 0.0001 0.0000 5.6942 0.0000 -10.8410
# 5 -16.8929 -12.8393 6.2773 0.0000 29.0886 0.0000
# 6 0.0000 -0.0001 0.0000 -10.8410 0.0000 25.6252
#
#
#
# Elastic Compliance Matrix: (Units=1/GPa)
#
#
# Indices 1 2 3 4 5 6 
#
# 1 0.016894 -0.000916 -0.008122 0.000001 0.011160 0.000000
# 2 -0.000916 0.040096 -0.013386 -0.000001 0.020054 0.000000
# 3 -0.008122 -0.013386 0.035284 0.000000 -0.018239 0.000000
# 4 0.000001 -0.000001 0.000000 0.902654 0.000000 0.381876
# 5 0.011160 0.020054 -0.018239 0.000000 0.053646 0.000000
# 6 0.000000 0.000000 0.000000 0.381876 0.000000 0.200581
#
#
# Mechanical properties :
#
#
# Convention : Reuss Voigt Hill
#
# Bulk Modulus (GPa) = 21.08483 25.97280 23.52882
# Shear Modulus (GPa) = 3.81734 19.54068 11.67901
#
# Velocity S-wave (km/s) = 1.30811 2.95960 2.28805
# Velocity P-wave (km/s) = 3.42534 4.82923 4.18655
#
# Compressibility (1/GPa) = 0.04742746
#
# Stress axis : x y z
#
# Youngs Moduli (GPa) = 59.19200 24.94038 28.34108
#
# Poissons Ratio (x) = 0.02284 0.23017
# Poissons Ratio (y) = 0.05421 0.37938
# Poissons Ratio (z) = 0.48073 0.33385
#
# Static dielectric constant tensor:
#      x y z
#    x 1.899090 0.000000 0.019600 
#    y 0.000000 1.780590 0.000000 
#    z 0.019600 0.000000 1.867700 
# 
# From -- ./inp_files/224584.got.cif
#   From: 2010.05.17/outbox.cif.g08.bks.cpg/sg15_113_cif.got.tgz:224584.got - 2010.06.03 18:47:42.
