data_PCOD9263275
_publ_section_title
;
Structure prediction by ZEFSAII (Michael W. Deem and Ramdas Pophale) SiO2 
 PCOD9263275
Probable space group: C 2/C
;
_chemical_formula_sum "Si O2"
_cell_formula_units_Z 56
_cell_length_a 6.672622
_cell_length_b 13.187576
_cell_length_c 25.883077
_cell_angle_alpha 90.000000
_cell_angle_beta 108.254625
_cell_angle_gamma 90.000000
_cell_volume 2162.976892
_symmetry_space_group_name_H-M "C 2/C"
_symmetry_group_IT_number 15
_symmetry_cell_setting 'monoclinic'
loop_
_space_group_symop_operation_xyz
x,y,z
-x,y,1/2-z
-x,-y,-z
x,-y,1/2+z
1/2+x,1/2+y,z
1/2-x,1/2+y,1/2-z
1/2-x,1/2-y,-z
1/2+x,1/2-y,1/2+z
loop_
_atom_site_type_symbol
_atom_site_label
_atom_site_fract_x
_atom_site_fract_y
_atom_site_fract_z
Si Si1 0.622743 0.392085 0.953248
Si Si2 0.300941 0.915711 0.513365
Si Si3 0.792010 0.537407 0.765769
Si Si4 0.595001 0.808194 0.082780
Si Si5 0.284501 0.754244 0.700348
Si Si6 0.090368 0.044107 0.161560
Si Si7 0.008705 0.525181 0.124747
O O1 0.420816 0.399756 0.975251
O O2 0.599332 0.272316 0.937880
O O3 0.588317 0.449325 0.895636
O O4 0.791685 0.465418 0.994487
O O5 0.472818 0.902145 0.572816
O O6 0.321674 0.840546 0.466810
O O7 0.812328 0.652193 0.785176
O O8 0.602813 0.535609 0.708825
O O9 0.000000 0.510484 0.750000
O O10 0.808716 0.464588 0.817326
O O11 0.773012 0.762338 0.136543
O O12 0.525044 0.911944 0.103960
O O13 0.500000 0.771035 0.750000
O O14 0.133839 0.850536 0.694121
O O15 0.293686 0.029053 0.140637
#
# Coordination Sequence:
#
# PCOD9263275 Si02
#       7
#     8   8   8   8   8   8   8
#     4   9  20  34  53  81 108 142 183 230 279 321
#     4  10  19  34  55  76 110 145 182 223 283 326
#     4   9  18  34  57  74 107 140 176 224 274 325
#     4  10  20  34  54  78 112 140 187 231 270 332
#     4  10  20  33  55  82 104 138 183 221 274 334
#     4   9  18  36  58  72 108 142 175 221 275 329
#     4   9  18  33  54  76 102 146 178 218 273 328
#
# _framework density 25.890243000000002
#
# number of rings (size 3 to 8) (size 9 to 14) (size 15 to 20)
#    0.000    2.571    0.000    2.143    2.000    0.571 
#    0.000    0.714   28.286    0.000    0.000    0.000 
#    0.000    0.000    0.000    0.000    0.000    0.000 
#
# Total GULP energy -156318.804526 kJ/mol
# GULP energy per Si atom -5582.814447 kJ/mol
# Density = 2.583132 g / cm^3
# Si number density = 25.890243 Si / 1000 Ang^3
#
#
#
# Elastic Constant Matrix: (Units=GPa)
#
#
# Indices 1 2 3 4 5 6 
#
# 1 62.9375 3.1881 45.5605 0.0000 16.6942 0.0000
# 2 3.1881 105.8841 55.9773 0.0000 -13.8151 0.0000
# 3 45.5605 55.9773 205.6626 0.0000 12.9670 0.0000
# 4 0.0000 0.0000 0.0000 46.5311 0.0000 -6.1806
# 5 16.6942 -13.8151 12.9670 0.0000 55.7001 0.0000
# 6 0.0000 0.0000 0.0000 -6.1806 0.0000 24.8219
#
#
#
# Elastic Compliance Matrix: (Units=1/GPa)
#
#
# Indices 1 2 3 4 5 6 
#
# 1 0.020372 0.001159 -0.004528 0.000000 -0.004764 0.000000
# 2 0.001159 0.011808 -0.003687 0.000000 0.003440 0.000000
# 3 -0.004528 -0.003687 0.006943 0.000000 -0.001174 0.000000
# 4 0.000000 0.000000 0.000000 0.022226 0.000000 0.005534
# 5 -0.004764 0.003440 -0.001174 0.000000 0.020508 0.000000
# 6 0.000000 0.000000 0.000000 0.005534 0.000000 0.041665
#
#
# Mechanical properties :
#
#
# Convention : Reuss Voigt Hill
#
# Bulk Modulus (GPa) = 39.98536 64.88177 52.43356
# Shear Modulus (GPa) = 34.25354 43.39449 38.82402
#
# Velocity S-wave (km/s) = 3.64129 4.09845 3.87662
# Velocity P-wave (km/s) = 5.75816 6.89283 6.35089
#
# Compressibility (1/GPa) = 0.02500916
#
# Stress axis : x y z
#
# Youngs Moduli (GPa) = 49.08803 84.69148 144.02899
#
# Poissons Ratio (x) = -0.09814 0.65216
# Poissons Ratio (y) = -0.05688 0.53109
# Poissons Ratio (z) = 0.22227 0.31229
#
# Static dielectric constant tensor:
#      x y z
#    x 2.128450 0.000000 0.033490 
#    y 0.000000 2.005180 0.000000 
#    z 0.033490 0.000000 2.105990 
# 
# From -- ./inp_files/288075.got.cif
#   From: 2010.05.17/outbox.cif.g08.bks.cpg/sg15_145_cif.got.tgz:288075.got - 2010.06.03 18:47:42.
