data_PCOD9263816
_publ_section_title
;
Structure prediction by ZEFSAII (Michael W. Deem and Ramdas Pophale) SiO2 
 PCOD9263816
Probable space group: C 2/C
;
_chemical_formula_sum "Si O2"
_cell_formula_units_Z 44
_cell_length_a 10.593035
_cell_length_b 8.819867
_cell_length_c 20.766285
_cell_angle_alpha 90.000000
_cell_angle_beta 52.836915
_cell_angle_gamma 90.000000
_cell_volume 1546.164125
_symmetry_space_group_name_H-M "C 2/C"
_symmetry_group_IT_number 15
_symmetry_cell_setting 'monoclinic'
loop_
_space_group_symop_operation_xyz
x,y,z
-x,y,1/2-z
-x,-y,-z
x,-y,1/2+z
1/2+x,1/2+y,z
1/2-x,1/2+y,1/2-z
1/2-x,1/2-y,-z
1/2+x,1/2-y,1/2+z
loop_
_atom_site_type_symbol
_atom_site_label
_atom_site_fract_x
_atom_site_fract_y
_atom_site_fract_z
Si Si1 0.474647 0.542241 0.867011
Si Si2 0.274931 0.819394 0.218341
Si Si3 0.653111 0.115251 0.080252
Si Si4 0.500000 0.348354 0.750000
Si Si5 0.532922 0.710267 0.450648
Si Si6 0.000000 0.500000 0.000000
Si Si7 0.000000 0.400979 0.750000
O O1 0.661841 0.561690 0.789401
O O2 0.413279 0.711736 0.896519
O O3 0.403074 0.462850 0.825942
O O4 0.465752 0.415907 0.924763
O O5 0.385417 0.747303 0.239390
O O6 0.382825 0.843267 0.120414
O O7 0.145796 0.702783 0.228557
O O8 0.831353 0.129708 0.050348
O O9 0.560832 0.024479 0.165384
O O10 0.625551 0.047819 0.019026
O O11 0.427225 0.820823 0.524998
#
# Coordination Sequence:
#
# PCOD9263816 Si02
#       7
#     8   8   8   4   8   4   4
#     4  10  21  40  67  97 127 167 214 269 329 383
#     4   9  19  36  63  97 128 160 210 274 329 379
#     4  10  22  42  65  89 125 167 214 268 323 382
#     4  10  19  34  61 102 133 156 205 270 329 388
#     4  10  23  41  61  88 128 170 213 261 319 388
#     4  12  26  42  60  92 132 174 216 260 314 384
#     4   8  17  38  67  92 119 164 211 266 329 376
#
# _framework density 28.457523999999999
#
# number of rings (size 3 to 8) (size 9 to 14) (size 15 to 20)
#    0.000    2.182    0.000    3.818    0.000   13.818 
#    0.000    6.364    0.000    0.000    0.000    0.000 
#    0.000    0.000    0.000    0.000    0.000    0.000 
#
# Total GULP energy -122684.450131 kJ/mol
# GULP energy per Si atom -5576.565915 kJ/mol
# Density = 2.839275 g / cm^3
# Si number density = 28.457524 Si / 1000 Ang^3
#
#
#
# Elastic Constant Matrix: (Units=GPa)
#
#
# Indices 1 2 3 4 5 6 
#
# 1 122.7291 53.1976 31.8811 0.0000 43.6236 0.0000
# 2 53.1976 136.0818 26.7695 0.0000 20.5262 0.0000
# 3 31.8811 26.7695 101.7793 0.0000 29.4398 0.0000
# 4 0.0000 0.0000 0.0000 36.3342 0.0000 1.4263
# 5 43.6236 20.5262 29.4398 0.0000 63.7967 0.0000
# 6 0.0000 0.0000 0.0000 1.4263 0.0000 28.8647
#
#
#
# Elastic Compliance Matrix: (Units=1/GPa)
#
#
# Indices 1 2 3 4 5 6 
#
# 1 0.012413 -0.003629 -0.000942 0.000000 -0.006886 0.000000
# 2 -0.003629 0.008992 -0.001280 0.000000 0.000179 0.000000
# 3 -0.000942 -0.001280 0.011715 0.000000 -0.004350 0.000000
# 4 0.000000 0.000000 0.000000 0.027576 0.000000 -0.001363
# 5 -0.006886 0.000179 -0.004350 0.000000 0.022333 0.000000
# 6 0.000000 0.000000 0.000000 -0.001363 0.000000 0.034712
#
#
# Mechanical properties :
#
#
# Convention : Reuss Voigt Hill
#
# Bulk Modulus (GPa) = 46.68876 64.92074 55.80475
# Shear Modulus (GPa) = 36.60805 42.38194 39.49500
#
# Velocity S-wave (km/s) = 3.59055 3.86334 3.72944
# Velocity P-wave (km/s) = 5.79926 6.53936 6.18040
#
# Compressibility (1/GPa) = 0.02141843
#
# Stress axis : x y z
#
# Youngs Moduli (GPa) = 80.55985 111.21153 85.35883
#
# Poissons Ratio (x) = 0.40354 0.08042
# Poissons Ratio (y) = 0.29232 0.10927
# Poissons Ratio (z) = 0.07590 0.14236
#
# Static dielectric constant tensor:
#      x y z
#    x 2.161640 0.000000 0.128040 
#    y 0.000000 5.040210 0.000000 
#    z 0.128040 0.000000 0.833190 
# 
# From -- ./inp_files/236149.got.cif
#   From: 2010.05.17/outbox.cif.g08.bks.cpg/sg15_119_cif.got.tgz:236149.got - 2010.06.03 18:47:42.
