data_PCOD9263505
_publ_section_title
;
Structure prediction by ZEFSAII (Michael W. Deem and Ramdas Pophale) SiO2 
 PCOD9263505
Probable space group: C 2/C
;
_chemical_formula_sum "Si O2"
_cell_formula_units_Z 64
_cell_length_a 30.306516
_cell_length_b 9.228208
_cell_length_c 18.689135
_cell_angle_alpha 90.000000
_cell_angle_beta 35.997809
_cell_angle_gamma 90.000000
_cell_volume 3072.121695
_symmetry_space_group_name_H-M "C 2/C"
_symmetry_group_IT_number 15
_symmetry_cell_setting 'monoclinic'
loop_
_space_group_symop_operation_xyz
x,y,z
-x,y,1/2-z
-x,-y,-z
x,-y,1/2+z
1/2+x,1/2+y,z
1/2-x,1/2+y,1/2-z
1/2-x,1/2-y,-z
1/2+x,1/2-y,1/2+z
loop_
_atom_site_type_symbol
_atom_site_label
_atom_site_fract_x
_atom_site_fract_y
_atom_site_fract_z
Si Si1 0.850628 0.918361 0.506602
Si Si2 0.748762 0.088692 0.279952
Si Si3 0.001056 0.219738 0.486616
Si Si4 0.750816 0.842482 0.396135
Si Si5 0.002765 0.009338 0.873586
Si Si6 0.830398 0.292003 0.276919
Si Si7 0.135906 0.390567 0.805880
Si Si8 0.828350 0.940939 0.896790
O O1 0.810566 0.928405 0.636185
O O2 0.820119 0.766917 0.512264
O O3 0.939125 0.931705 0.404238
O O4 0.823954 0.044728 0.487623
O O5 0.770879 0.226211 0.299199
O O6 0.672247 0.104156 0.337002
O O7 0.746207 0.950760 0.334889
O O8 0.089042 0.241573 0.360241
O O9 0.989824 0.115889 0.568906
O O10 0.951151 0.358205 0.570102
O O11 0.975211 0.140077 0.447446
O O12 0.822739 0.740505 0.288573
O O13 0.770014 0.945168 0.437850
O O14 0.085545 0.988402 0.733122
O O15 0.840564 0.463101 0.264555
O O16 0.819454 0.211030 0.366936
#
# Coordination Sequence:
#
# PCOD9263505 Si02
#       8
#     8   8   8   8   8   8   8   8
#     4  11  20  34  61  88 108 149 200 234 283 346
#     4  10  21  36  56  84 120 148 197 244 283 342
#     4  10  19  34  57  85 116 147 189 242 287 331
#     4  10  21  37  56  84 118 146 190 243 288 338
#     4  10  19  34  57  87 115 146 193 240 284 339
#     4  10  21  37  55  85 119 150 191 239 290 342
#     4  11  19  32  57  87 112 151 191 240 286 337
#     4  10  21  38  57  82 117 154 187 236 289 351
#
# _framework density 20.832505999999999
#
# number of rings (size 3 to 8) (size 9 to 14) (size 15 to 20)
#    0.000    1.750    2.500    3.375    0.000    1.000 
#    0.000    2.500    0.000    7.500    6.500    0.000 
#    0.000    0.000    0.000    0.000    0.000    0.000 
#
# Total GULP energy -178721.608008 kJ/mol
# GULP energy per Si atom -5585.050250 kJ/mol
# Density = 2.078509 g / cm^3
# Si number density = 20.832506 Si / 1000 Ang^3
#
#
#
# Elastic Constant Matrix: (Units=GPa)
#
#
# Indices 1 2 3 4 5 6 
#
# 1 95.2747 33.9394 25.3243 0.0003 4.9117 -0.0003
# 2 33.9394 102.5281 19.6023 -0.0023 2.3766 -0.0015
# 3 25.3243 19.6023 74.0015 -0.0003 6.1556 -0.0013
# 4 0.0003 -0.0023 -0.0003 26.7195 -0.0035 -2.0153
# 5 4.9117 2.3766 6.1556 -0.0035 20.8787 0.0009
# 6 -0.0003 -0.0015 -0.0013 -2.0153 0.0009 17.9467
#
#
#
# Elastic Compliance Matrix: (Units=1/GPa)
#
#
# Indices 1 2 3 4 5 6 
#
# 1 0.012713 -0.003544 -0.003277 -0.000001 -0.001621 0.000000
# 2 -0.003544 0.011265 -0.001777 0.000001 0.000076 0.000001
# 3 -0.003277 -0.001777 0.015402 0.000000 -0.003568 0.000001
# 4 -0.000001 0.000001 0.000000 0.037746 0.000006 0.004239
# 5 -0.001621 0.000076 -0.003568 0.000006 0.049320 -0.000002
# 6 0.000000 0.000001 0.000001 0.004239 -0.000002 0.056196
#
#
# Mechanical properties :
#
#
# Convention : Reuss Voigt Hill
#
# Bulk Modulus (GPa) = 45.07936 47.72624 46.40280
# Shear Modulus (GPa) = 24.12735 25.97154 25.04944
#
# Velocity S-wave (km/s) = 3.40686 3.53467 3.47136
# Velocity P-wave (km/s) = 6.09603 6.29426 6.19594
#
# Compressibility (1/GPa) = 0.02218310
#
# Stress axis : x y z
#
# Youngs Moduli (GPa) = 78.65894 88.77271 64.92580
#
# Poissons Ratio (x) = 0.31464 0.21275
# Poissons Ratio (y) = 0.27879 0.11539
# Poissons Ratio (z) = 0.25776 0.15778
#
# Static dielectric constant tensor:
#      x y z
#    x 1.760420 0.000000 -0.008710 
#    y 0.000000 1.774020 0.000000 
#    z -0.008710 0.000000 1.769540 
# 
# From -- ./inp_files/224589.got.cif
#   From: 2010.05.17/outbox.cif.g08.bks.cpg/sg15_113_cif.got.tgz:224589.got - 2010.06.03 18:47:42.
