data_PCOD9263594
_publ_section_title
;
Structure prediction by ZEFSAII (Michael W. Deem and Ramdas Pophale) SiO2 
 PCOD9263594
Probable space group: C 2/C
;
_chemical_formula_sum "Si O2"
_cell_formula_units_Z 56
_cell_length_a 28.024653
_cell_length_b 12.153602
_cell_length_c 13.094462
_cell_angle_alpha 90.000000
_cell_angle_beta 31.408738
_cell_angle_gamma 90.000000
_cell_volume 2324.273091
_symmetry_space_group_name_H-M "C 2/C"
_symmetry_group_IT_number 15
_symmetry_cell_setting 'monoclinic'
loop_
_space_group_symop_operation_xyz
x,y,z
-x,y,1/2-z
-x,-y,-z
x,-y,1/2+z
1/2+x,1/2+y,z
1/2-x,1/2+y,1/2-z
1/2-x,1/2-y,-z
1/2+x,1/2-y,1/2+z
loop_
_atom_site_type_symbol
_atom_site_label
_atom_site_fract_x
_atom_site_fract_y
_atom_site_fract_z
Si Si1 0.453760 0.657540 0.219557
Si Si2 0.216082 0.499638 0.794898
Si Si3 0.207742 0.680862 0.437763
Si Si4 0.126131 0.278824 0.480932
Si Si5 0.010866 0.681011 0.447454
Si Si6 0.400322 0.440771 0.385560
Si Si7 0.145209 0.489350 0.201134
O O1 0.500000 0.662780 0.250000
O O2 0.361190 0.729028 0.396686
O O3 0.511415 0.713827 0.022502
O O4 0.420876 0.531706 0.262223
O O5 0.171635 0.381836 0.903086
O O6 0.165839 0.602432 0.937466
O O7 0.326297 0.494485 0.599234
O O8 0.199242 0.512408 0.706705
O O9 0.303616 0.733516 0.234487
O O10 0.210743 0.572094 0.501729
O O11 0.132264 0.186093 0.558271
O O12 0.034091 0.294819 0.581695
O O13 0.102525 0.610016 0.265840
O O14 0.940859 0.594442 0.629976
O O15 0.500000 0.426079 0.250000
#
# Coordination Sequence:
#
# PCOD9263594 Si02
#       7
#     8   8   8   8   8   8   8
#     4  10  19  34  58  84 115 153 196 240 297 351
#     4  10  20  37  63  86 119 150 201 249 291 349
#     4  10  20  34  60  89 116 154 197 246 302 345
#     4  10  21  37  59  84 116 157 197 240 295 358
#     4   9  19  34  57  88 121 148 193 248 298 354
#     4  10  22  38  56  82 115 158 196 231 288 356
#     4   9  19  34  58  93 121 148 193 251 305 344
#
# _framework density 24.093554999999999
#
# number of rings (size 3 to 8) (size 9 to 14) (size 15 to 20)
#    0.000    2.286    1.429    0.857    2.000    4.000 
#    0.000    2.857    0.000    6.000    0.000    0.000 
#    0.000    0.000    0.000    0.000    0.000    0.000 
#
# Total GULP energy -156023.036595 kJ/mol
# GULP energy per Si atom -5572.251307 kJ/mol
# Density = 2.403872 g / cm^3
# Si number density = 24.093555 Si / 1000 Ang^3
#
#
#
# Elastic Constant Matrix: (Units=GPa)
#
#
# Indices 1 2 3 4 5 6 
#
# 1 38.3138 26.5218 5.7335 0.0000 -0.5724 0.0000
# 2 26.5218 168.4829 28.9345 0.0000 -5.3785 0.0000
# 3 5.7335 28.9345 60.8518 0.0000 -3.2883 0.0000
# 4 0.0000 0.0000 0.0000 38.8219 0.0000 3.0559
# 5 -0.5724 -5.3785 -3.2883 0.0000 17.8131 0.0000
# 6 0.0000 0.0000 0.0000 3.0559 0.0000 25.6317
#
#
#
# Elastic Compliance Matrix: (Units=1/GPa)
#
#
# Indices 1 2 3 4 5 6 
#
# 1 0.029319 -0.004522 -0.000641 0.000000 -0.000542 0.000000
# 2 -0.004522 0.007195 -0.002915 0.000000 0.001489 0.000000
# 3 -0.000641 -0.002915 0.018011 0.000000 0.002424 0.000000
# 4 0.000000 0.000000 0.000000 0.026003 0.000000 -0.003100
# 5 -0.000542 0.001489 0.002424 0.000000 0.057018 0.000000
# 6 0.000000 0.000000 0.000000 -0.003100 0.000000 0.039384
#
#
# Mechanical properties :
#
#
# Convention : Reuss Voigt Hill
#
# Bulk Modulus (GPa) = 26.06358 43.33647 34.70003
# Shear Modulus (GPa) = 24.28656 30.21728 27.25192
#
# Velocity S-wave (km/s) = 3.17836 3.54526 3.36681
# Velocity P-wave (km/s) = 4.93056 5.89782 5.43575
#
# Compressibility (1/GPa) = 0.03836771
#
# Stress axis : x y z
#
# Youngs Moduli (GPa) = 34.10806 138.97946 55.52253
#
# Poissons Ratio (x) = 0.62851 0.03561
# Poissons Ratio (y) = 0.15425 0.16183
# Poissons Ratio (z) = 0.02188 0.40509
#
# Static dielectric constant tensor:
#      x y z
#    x 1.982830 0.000000 0.061440 
#    y 0.000000 1.985440 0.000000 
#    z 0.061440 0.000000 1.986670 
# 
# From -- ./inp_files/181894.got.cif
#   From: 2010.05.17/outbox.cif.g08.bks.cpg/sg15_91_cif.got.tgz:181894.got - 2010.06.03 18:47:42.
