data_PCOD9263515
_publ_section_title
;
Structure prediction by ZEFSAII (Michael W. Deem and Ramdas Pophale) SiO2 
 PCOD9263515
Probable space group: C 2/C
;
_chemical_formula_sum "Si O2"
_cell_formula_units_Z 56
_cell_length_a 15.332846
_cell_length_b 19.928071
_cell_length_c 22.224838
_cell_angle_alpha 90.000000
_cell_angle_beta 21.150157
_cell_angle_gamma 90.000000
_cell_volume 2450.243671
_symmetry_space_group_name_H-M "C 2/C"
_symmetry_group_IT_number 15
_symmetry_cell_setting 'monoclinic'
loop_
_space_group_symop_operation_xyz
x,y,z
-x,y,1/2-z
-x,-y,-z
x,-y,1/2+z
1/2+x,1/2+y,z
1/2-x,1/2+y,1/2-z
1/2-x,1/2-y,-z
1/2+x,1/2-y,1/2+z
loop_
_atom_site_type_symbol
_atom_site_label
_atom_site_fract_x
_atom_site_fract_y
_atom_site_fract_z
Si Si1 0.434538 0.768204 0.976493
Si Si2 0.116311 0.137371 0.005670
Si Si3 0.665720 0.834489 0.723069
Si Si4 0.000000 0.126091 0.750000
Si Si5 0.500000 0.955015 0.250000
Si Si6 0.716099 0.949430 0.525938
Si Si7 0.757655 0.919107 0.943839
Si Si8 0.781995 0.287952 0.585669
O O1 0.300498 0.699358 0.080301
O O2 0.233995 0.826879 0.107800
O O3 0.556653 0.772963 0.832796
O O4 0.637047 0.781031 0.897260
O O5 0.153667 0.108659 0.048298
O O6 0.860730 0.127804 0.139192
O O7 0.323616 0.100510 0.832247
O O8 0.143496 0.217557 0.991083
O O9 0.457563 0.887821 0.849280
O O10 0.053538 0.080779 0.656565
O O11 0.297047 0.006832 0.405095
O O12 0.625807 0.009918 0.539435
O O13 0.613318 0.857930 0.006610
O O14 0.000000 0.933106 0.750000
O O15 0.500000 0.293335 0.750000
#
# Coordination Sequence:
#
# PCOD9263515 Si02
#       8
#     8   8   8   4   4   8   8   8
#     4  10  23  40  64  94 117 166 204 263 308 361
#     4  10  20  38  59  88 125 161 197 261 302 375
#     4  10  22  41  62  89 125 153 215 252 314 359
#     4  10  22  45  63  86 130 156 218 258 298 360
#     4  10  22  39  61  88 122 170 206 236 328 358
#     4  10  22  40  60  86 123 168 199 260 298 374
#     4  10  19  34  57  86 117 161 202 239 307 364
#     4  10  19  36  61  90 121 156 203 256 309 358
#
# _framework density 22.854869999999998
#
# number of rings (size 3 to 8) (size 9 to 14) (size 15 to 20)
#    0.000    2.000    1.429    2.143    0.000    5.714 
#   10.286    2.143    0.000    0.000    0.000    0.000 
#    0.000    0.000    0.000    0.000    0.000    0.000 
#
# Total GULP energy -155931.000405 kJ/mol
# GULP energy per Si atom -5568.964300 kJ/mol
# Density = 2.280285 g / cm^3
# Si number density = 22.854870 Si / 1000 Ang^3
#
#
#
# Elastic Constant Matrix: (Units=GPa)
#
#
# Indices 1 2 3 4 5 6 
#
# 1 42.9585 33.2759 17.4225 0.0046 5.3423 -0.0005
# 2 33.2759 91.7276 13.2273 -0.2035 -1.7054 0.0603
# 3 17.4225 13.2273 69.2314 0.0677 1.2170 -0.0051
# 4 0.0046 -0.2035 0.0677 28.0309 -0.1033 23.0492
# 5 5.3423 -1.7054 1.2170 -0.1033 21.1013 0.0287
# 6 -0.0005 0.0603 -0.0051 23.0492 0.0287 17.3970
#
#
#
# Elastic Compliance Matrix: (Units=1/GPa)
#
#
# Indices 1 2 3 4 5 6 
#
# 1 0.037052 -0.012650 -0.006734 0.001873 -0.010002 -0.002422
# 2 -0.012650 0.015548 0.000137 -0.002031 0.004438 0.002629
# 3 -0.006734 0.000137 0.016098 0.000404 0.000790 -0.000532
# 4 0.001873 -0.002031 0.000404 -0.398481 -0.003332 0.527957
# 5 -0.010002 0.004438 0.000790 -0.003332 0.050214 0.004316
# 6 -0.002422 0.002629 -0.000532 0.527957 0.004316 -0.642022
#
#
# Mechanical properties :
#
#
# Convention : Reuss Voigt Hill
#
# Bulk Modulus (GPa) = 33.10796 36.86318 34.98557
# Shear Modulus (GPa) = -5.72718 22.63864 8.45573
#
# Velocity S-wave (km/s) = -1.58472 3.15070 1.92556
# Velocity P-wave (km/s) = 3.34203 5.42219 4.50385
#
# Compressibility (1/GPa) = 0.03020422
#
# Stress axis : x y z
#
# Youngs Moduli (GPa) = 26.98916 64.31894 62.11835
#
# Poissons Ratio (x) = 0.81367 0.41827
# Poissons Ratio (y) = 0.34143 -0.00852
# Poissons Ratio (z) = 0.18173 -0.00883
#
# Static dielectric constant tensor:
#      x y z
#    x 1.938770 0.000020 0.117190 
#    y 0.000020 1.887070 0.000060 
#    z 0.117190 0.000060 1.978560 
# 
# From -- ./inp_files/299321.got.cif
#   From: 2010.05.17/outbox.cif.g08.bks.cpg/sg15_150_cif.got.tgz:299321.got - 2010.06.03 18:47:42.
