data_PCOD9263911
_publ_section_title
;
Structure prediction by ZEFSAII (Michael W. Deem and Ramdas Pophale) SiO2 
 PCOD9263911
Probable space group: C 2/C
;
_chemical_formula_sum "Si O2"
_cell_formula_units_Z 56
_cell_length_a 18.339318
_cell_length_b 15.927127
_cell_length_c 7.074850
_cell_angle_alpha 90.000000
_cell_angle_beta 91.928834
_cell_angle_gamma 90.000000
_cell_volume 2065.340786
_symmetry_space_group_name_H-M "C 2/C"
_symmetry_group_IT_number 15
_symmetry_cell_setting 'monoclinic'
loop_
_space_group_symop_operation_xyz
x,y,z
-x,y,1/2-z
-x,-y,-z
x,-y,1/2+z
1/2+x,1/2+y,z
1/2-x,1/2+y,1/2-z
1/2-x,1/2-y,-z
1/2+x,1/2-y,1/2+z
loop_
_atom_site_type_symbol
_atom_site_label
_atom_site_fract_x
_atom_site_fract_y
_atom_site_fract_z
Si Si1 0.353718 0.351045 0.264244
Si Si2 0.500000 0.598479 0.250000
Si Si3 0.000000 0.383695 0.250000
Si Si4 0.299867 0.209731 0.786287
Si Si5 0.437719 0.268096 0.977785
Si Si6 0.146320 0.024078 0.103230
Si Si7 0.370180 0.923292 0.008061
Si Si8 0.800046 0.587713 0.130361
O O1 0.354595 0.422652 0.424682
O O2 0.283926 0.290477 0.289505
O O3 0.415667 0.289236 0.189353
O O4 0.350834 0.419376 0.088215
O O5 0.500903 0.664893 0.077507
O O6 0.570209 0.544069 0.202860
O O7 0.964104 0.321740 0.404589
O O8 0.945811 0.437548 0.119962
O O9 0.291275 0.164873 0.989271
O O10 0.362472 0.278165 0.841443
O O11 0.334837 0.146893 0.638300
O O12 0.222644 0.054897 0.202631
O O13 0.328349 0.010760 0.008982
O O14 0.359905 0.894454 0.794146
#
# Coordination Sequence:
#
# PCOD9263911 Si02
#       8
#     8   4   4   8   8   8   8   8
#     4  10  19  34  63  85 118 151 200 255 297 360
#     4   9  20  38  64  84 123 162 196 250 305 368
#     4   9  22  38  58  82 117 166 204 240 309 362
#     4  10  20  36  62  89 118 161 201 246 301 362
#     4   9  19  38  58  80 115 169 202 230 301 378
#     4  10  20  34  59  95 114 152 195 251 309 354
#     4  11  20  37  60  87 123 157 195 260 304 357
#     4  11  20  36  61  94 121 148 205 255 301 355
#
# _framework density 27.114166999999998
#
# number of rings (size 3 to 8) (size 9 to 14) (size 15 to 20)
#    0.000    2.000    2.857    1.286    0.000    2.857 
#    0.000    0.000   22.000   25.714    0.000    0.000 
#    0.000    0.000    0.000    0.000    0.000    0.000 
#
# Total GULP energy -156332.298847 kJ/mol
# GULP energy per Si atom -5583.296387 kJ/mol
# Density = 2.705245 g / cm^3
# Si number density = 27.114167 Si / 1000 Ang^3
#
#
#
# Elastic Constant Matrix: (Units=GPa)
#
#
# Indices 1 2 3 4 5 6 
#
# 1 102.4451 12.4563 13.3488 0.0000 -3.0648 0.0000
# 2 12.4563 94.5211 9.3168 0.0000 2.1919 0.0000
# 3 13.3488 9.3168 71.5432 0.0000 0.0310 0.0000
# 4 0.0000 0.0000 0.0000 41.7629 0.0000 -3.5096
# 5 -3.0648 2.1919 0.0310 0.0000 33.1006 0.0000
# 6 0.0000 0.0000 0.0000 -3.5096 0.0000 34.1518
#
#
#
# Elastic Compliance Matrix: (Units=1/GPa)
#
#
# Indices 1 2 3 4 5 6 
#
# 1 0.010164 -0.001191 -0.001742 0.000000 0.001022 0.000000
# 2 -0.001191 0.010874 -0.001193 0.000000 -0.000829 0.000000
# 3 -0.001742 -0.001193 0.014458 0.000000 -0.000096 0.000000
# 4 0.000000 0.000000 0.000000 0.024153 0.000000 0.002482
# 5 0.001022 -0.000829 -0.000096 0.000000 0.030360 0.000000
# 6 0.000000 0.000000 0.000000 0.002482 0.000000 0.029536
#
#
# Mechanical properties :
#
#
# Convention : Reuss Voigt Hill
#
# Bulk Modulus (GPa) = 36.70760 37.63922 37.17341
# Shear Modulus (GPa) = 36.52870 37.36225 36.94548
#
# Velocity S-wave (km/s) = 3.67443 3.71612 3.69533
# Velocity P-wave (km/s) = 5.61867 5.68547 5.65217
#
# Compressibility (1/GPa) = 0.02724232
#
# Stress axis : x y z
#
# Youngs Moduli (GPa) = 98.38941 91.96661 69.16592
#
# Poissons Ratio (x) = 0.10957 0.12046
# Poissons Ratio (y) = 0.11722 0.08254
# Poissons Ratio (z) = 0.17136 0.10975
#
# Static dielectric constant tensor:
#      x y z
#    x 2.230590 0.000000 0.039230 
#    y 0.000000 2.100820 0.000000 
#    z 0.039230 0.000000 2.191330 
# 
# From -- ./inp_files/49768.got.cif
#   From: 2010.05.17/outbox.cif.g08.bks.cpg/sg15_25_cif.got.tgz:49768.got - 2010.06.03 18:47:42.
