data_PCOD9263973
_publ_section_title
;
Structure prediction by ZEFSAII (Michael W. Deem and Ramdas Pophale) SiO2 
 PCOD9263973
Probable space group: C 2/C
;
_chemical_formula_sum "Si O2"
_cell_formula_units_Z 60
_cell_length_a 23.146274
_cell_length_b 10.699964
_cell_length_c 14.613461
_cell_angle_alpha 90.000000
_cell_angle_beta 124.831971
_cell_angle_gamma 90.000000
_cell_volume 2970.776925
_symmetry_space_group_name_H-M "C 2/C"
_symmetry_group_IT_number 15
_symmetry_cell_setting 'monoclinic'
loop_
_space_group_symop_operation_xyz
x,y,z
-x,y,1/2-z
-x,-y,-z
x,-y,1/2+z
1/2+x,1/2+y,z
1/2-x,1/2+y,1/2-z
1/2-x,1/2-y,-z
1/2+x,1/2-y,1/2+z
loop_
_atom_site_type_symbol
_atom_site_label
_atom_site_fract_x
_atom_site_fract_y
_atom_site_fract_z
Si Si1 0.194098 0.691324 0.380606
Si Si2 0.775026 0.764435 0.789019
Si Si3 0.235978 0.594262 0.898770
Si Si4 0.470498 0.949520 0.878027
Si Si5 0.160070 0.574658 0.124763
Si Si6 0.639125 0.253919 0.947523
Si Si7 0.000000 0.655652 0.750000
Si Si8 0.609716 0.822313 0.977582
O O1 0.250000 0.750000 0.500000
O O2 0.211502 0.765633 0.302923
O O3 0.219247 0.549898 0.387677
O O4 0.125910 0.692346 0.384155
O O5 0.780700 0.662420 0.713361
O O6 0.742403 0.891418 0.714879
O O7 0.846742 0.770376 0.914510
O O8 0.188443 0.664136 0.930778
O O9 0.316874 0.620808 0.998783
O O10 0.389123 0.925959 0.829006
O O11 0.478450 0.059318 0.811097
O O12 0.525422 0.837773 0.907949
O O13 0.500000 0.000000 0.000000
O O14 0.143431 0.453209 0.047494
O O15 0.132544 0.690094 0.040037
O O16 0.564074 0.244722 0.833951
#
# Coordination Sequence:
#
# PCOD9263973 Si02
#       8
#     8   8   8   8   8   8   4   8
#     4  10  20  36  56  84 113 155 195 238 295 356
#     4  10  22  30  56  80 112 155 196 235 300 354
#     4  10  20  38  53  85 118 149 197 248 292 359
#     4  10  21  32  53  82 122 151 192 260 306 363
#     4  10  19  35  50  84 116 150 191 248 301 357
#     4  10  21  33  56  83 115 156 189 244 303 348
#     4  12  20  34  56  88 116 164 192 246 322 346
#     4  10  19  36  51  81 118 152 192 249 299 360
#
# _framework density 20.196736000000001
#
# number of rings (size 3 to 8) (size 9 to 14) (size 15 to 20)
#    0.000    1.867    4.000    0.800    7.467    0.000 
#    0.000    0.000    0.000    0.000   13.867    9.333 
#    0.000    0.000    0.000    0.000    0.000    0.000 
#
# Total GULP energy -167046.931748 kJ/mol
# GULP energy per Si atom -5568.231058 kJ/mol
# Density = 2.015077 g / cm^3
# Si number density = 20.196736 Si / 1000 Ang^3
#
#
#
# Elastic Constant Matrix: (Units=GPa)
#
#
# Indices 1 2 3 4 5 6 
#
# 1 106.6523 24.8572 37.9602 0.0000 -7.9362 0.0000
# 2 24.8572 40.4497 22.1242 0.0000 4.7004 0.0000
# 3 37.9602 22.1242 95.7561 0.0000 5.3442 0.0000
# 4 0.0000 0.0000 0.0000 22.1356 0.0000 -3.1323
# 5 -7.9362 4.7004 5.3442 0.0000 53.9900 0.0000
# 6 0.0000 0.0000 0.0000 -3.1323 0.0000 22.3129
#
#
#
# Elastic Compliance Matrix: (Units=1/GPa)
#
#
# Indices 1 2 3 4 5 6 
#
# 1 0.012233 -0.005830 -0.003651 0.000000 0.002667 0.000000
# 2 -0.005830 0.031257 -0.004737 0.000000 -0.003109 0.000000
# 3 -0.003651 -0.004737 0.013064 0.000000 -0.001417 0.000000
# 4 0.000000 0.000000 0.000000 0.046092 0.000000 0.006470
# 5 0.002667 -0.003109 -0.001417 0.000000 0.019325 0.000000
# 6 0.000000 0.000000 0.000000 0.006470 0.000000 0.045725
#
#
# Mechanical properties :
#
#
# Convention : Reuss Voigt Hill
#
# Bulk Modulus (GPa) = 35.56543 45.86014 40.71279
# Shear Modulus (GPa) = 24.33010 30.21547 27.27278
#
# Velocity S-wave (km/s) = 3.47458 3.87209 3.67871
# Velocity P-wave (km/s) = 5.80902 6.53810 6.18431
#
# Compressibility (1/GPa) = 0.02811719
#
# Stress axis : x y z
#
# Youngs Moduli (GPa) = 81.74462 31.99258 76.54464
#
# Poissons Ratio (x) = 0.18653 0.27949
# Poissons Ratio (y) = 0.47660 0.36259
# Poissons Ratio (z) = 0.29848 0.15155
#
# Static dielectric constant tensor:
#      x y z
#    x 1.905270 0.000000 0.131230 
#    y 0.000000 1.737850 0.000000 
#    z 0.131230 0.000000 2.079600 
# 
# From -- ./inp_files/172994.got.cif
#   From: 2010.05.17/outbox.cif.g08.bks.cpg/sg15_87_cif.got.tgz:172994.got - 2010.06.03 18:47:42.
