data_PCOD9263094
_publ_section_title
;
Structure prediction by ZEFSAII (Michael W. Deem and Ramdas Pophale) SiO2 
 PCOD9263094
Probable space group: C 2/C
;
_chemical_formula_sum "Si O2"
_cell_formula_units_Z 56
_cell_length_a 20.592394
_cell_length_b 13.862967
_cell_length_c 21.478853
_cell_angle_alpha 90.000000
_cell_angle_beta 21.578738
_cell_angle_gamma 90.000000
_cell_volume 2255.078302
_symmetry_space_group_name_H-M "C 2/C"
_symmetry_group_IT_number 15
_symmetry_cell_setting 'monoclinic'
loop_
_space_group_symop_operation_xyz
x,y,z
-x,y,1/2-z
-x,-y,-z
x,-y,1/2+z
1/2+x,1/2+y,z
1/2-x,1/2+y,1/2-z
1/2-x,1/2-y,-z
1/2+x,1/2-y,1/2+z
loop_
_atom_site_type_symbol
_atom_site_label
_atom_site_fract_x
_atom_site_fract_y
_atom_site_fract_z
Si Si1 0.940503 0.594405 0.708736
Si Si2 0.585260 0.408775 0.585238
Si Si3 0.624976 0.388488 0.835692
Si Si4 0.000000 0.763447 0.750000
Si Si5 0.096992 0.127700 0.601849
Si Si6 0.500000 0.927086 0.750000
Si Si7 0.896338 0.124716 0.655844
Si Si8 0.006064 0.614023 0.982540
O O1 0.958407 0.689793 0.732889
O O2 0.997513 0.617652 0.588913
O O3 0.022709 0.501152 0.670688
O O4 0.732161 0.574301 0.901353
O O5 0.426041 0.361375 0.689266
O O6 0.635949 0.339644 0.597251
O O7 0.549340 0.513863 0.642741
O O8 0.612904 0.506083 0.841591
O O9 0.821322 0.352673 0.675388
O O10 0.493528 0.349249 0.004990
O O11 0.312454 0.128914 0.411446
O O12 0.000000 0.167756 0.750000
O O13 0.009119 0.160070 0.614820
O O14 0.691191 0.152933 0.842331
O O15 0.000000 0.500000 0.000000
#
# Coordination Sequence:
#
# PCOD9263094 Si02
#       8
#     8   8   8   4   8   4   8   8
#     4  10  21  35  47  71  99 136 186 225 255 311
#     4  10  19  34  48  69 103 138 181 222 261 302
#     4   9  18  29  50  67  90 124 170 219 263 306
#     4  11  22  34  56  74 108 158 184 224 263 304
#     4  10  20  31  50  70 100 134 170 214 265 318
#     4   9  22  30  44  66 100 122 164 216 255 310
#     4   9  18  32  46  70  93 122 171 222 259 311
#     4  10  20  31  52  69  90 125 178 226 266 310
#
# _framework density 24.832840999999998
#
# number of rings (size 3 to 8) (size 9 to 14) (size 15 to 20)
#    0.000    2.286    2.143    0.429   12.000    2.286 
#    0.000    0.000    0.000    0.000    0.000    0.000 
#    0.000    0.000    0.000    1.286    7.143    0.857 
#
# Total GULP energy -156316.011797 kJ/mol
# GULP energy per Si atom -5582.714707 kJ/mol
# Density = 2.477632 g / cm^3
# Si number density = 24.832841 Si / 1000 Ang^3
#
#
#
# Elastic Constant Matrix: (Units=GPa)
#
#
# Indices 1 2 3 4 5 6 
#
# 1 132.8214 10.6892 60.2268 0.0019 -11.4815 -0.0001
# 2 10.6892 61.8887 8.8075 0.0026 -0.2565 -0.0025
# 3 60.2268 8.8075 127.2127 0.0002 -22.1456 -0.0012
# 4 0.0019 0.0026 0.0002 19.3271 -0.0009 2.8824
# 5 -11.4815 -0.2565 -22.1456 -0.0009 50.4206 0.0003
# 6 -0.0001 -0.0025 -0.0012 2.8824 0.0003 13.5684
#
#
#
# Elastic Compliance Matrix: (Units=1/GPa)
#
#
# Indices 1 2 3 4 5 6 
#
# 1 0.009654 -0.001032 -0.004458 -0.000001 0.000235 0.000000
# 2 -0.001032 0.016438 -0.000732 -0.000003 -0.000473 0.000003
# 3 -0.004458 -0.000732 0.010660 0.000001 0.003663 0.000001
# 4 -0.000001 -0.000003 0.000001 0.053434 0.000001 -0.011351
# 5 0.000235 -0.000473 0.003663 0.000001 0.021493 0.000000
# 6 0.000000 0.000003 0.000001 -0.011351 0.000000 0.076112
#
#
# Mechanical properties :
#
#
# Convention : Reuss Voigt Hill
#
# Bulk Modulus (GPa) = 41.13823 53.48552 47.31188
# Shear Modulus (GPa) = 23.99952 32.80983 28.40468
#
# Velocity S-wave (km/s) = 3.11214 3.63881 3.38573
# Velocity P-wave (km/s) = 5.43285 6.26415 5.86325
#
# Compressibility (1/GPa) = 0.02430829
#
# Stress axis : x y z
#
# Youngs Moduli (GPa) = 103.58689 60.83291 93.81045
#
# Poissons Ratio (x) = 0.06278 0.41821
# Poissons Ratio (y) = 0.10690 0.06866
# Poissons Ratio (z) = 0.46180 0.04452
#
# Static dielectric constant tensor:
#      x y z
#    x 1.992860 0.000000 -0.011950 
#    y 0.000000 1.984010 0.000000 
#    z -0.011950 0.000000 1.963950 
# 
# From -- ./inp_files/211885.got.cif
#   From: 2010.05.17/outbox.cif.g08.bks.cpg/sg15_106_cif.got.tgz:211885.got - 2010.06.03 18:47:42.
