data_PCOD9263438
_publ_section_title
;
Structure prediction by ZEFSAII (Michael W. Deem and Ramdas Pophale) SiO2 
 PCOD9263438
Probable space group: C 2/C
;
_chemical_formula_sum "Si O2"
_cell_formula_units_Z 60
_cell_length_a 16.332263
_cell_length_b 11.324317
_cell_length_c 13.887416
_cell_angle_alpha 90.000000
_cell_angle_beta 98.908926
_cell_angle_gamma 90.000000
_cell_volume 2537.514485
_symmetry_space_group_name_H-M "C 2/C"
_symmetry_group_IT_number 15
_symmetry_cell_setting 'monoclinic'
loop_
_space_group_symop_operation_xyz
x,y,z
-x,y,1/2-z
-x,-y,-z
x,-y,1/2+z
1/2+x,1/2+y,z
1/2-x,1/2+y,1/2-z
1/2-x,1/2-y,-z
1/2+x,1/2-y,1/2+z
loop_
_atom_site_type_symbol
_atom_site_label
_atom_site_fract_x
_atom_site_fract_y
_atom_site_fract_z
Si Si1 0.000000 0.585875 0.750000
Si Si2 0.820237 0.108578 0.885790
Si Si3 0.928195 0.768335 0.880830
Si Si4 0.282390 0.869773 0.849696
Si Si5 0.203152 0.616356 0.553675
Si Si6 0.390023 0.531168 0.225924
Si Si7 0.104638 0.077913 0.958018
Si Si8 0.338337 0.051218 0.157603
O O1 0.981271 0.667146 0.840076
O O2 0.922825 0.505731 0.707778
O O3 0.813729 0.247755 0.898949
O O4 0.850691 0.070805 0.785300
O O5 0.875811 0.034246 0.970061
O O6 0.728498 0.052299 0.874741
O O7 0.836751 0.712403 0.882800
O O8 0.927453 0.873534 0.804308
O O9 0.945670 0.828277 0.987362
O O10 0.183849 0.892383 0.837573
O O11 0.304417 0.873538 0.740793
O O12 0.317161 0.988072 0.905125
O O13 0.301987 0.623261 0.553248
O O14 0.158688 0.620340 0.441947
O O15 0.436480 0.466032 0.147683
#
# Coordination Sequence:
#
# PCOD9263438 Si02
#       8
#     4   8   8   8   8   8   8   8
#     4  12  24  40  60  80 128 166 202 238 282 366
#     4   9  19  35  57  90 120 147 188 251 305 347
#     4  11  22  39  58  88 120 161 202 235 298 361
#     4  10  19  34  56  88 123 148 187 246 307 348
#     4  10  21  36  60  91 119 153 195 253 302 354
#     4   9  20  33  60  86 119 147 193 249 297 349
#     4   9  20  36  60  94 116 147 195 252 308 352
#     4  10  22  37  55  89 119 162 202 239 296 353
#
# _framework density 23.645184
#
# number of rings (size 3 to 8) (size 9 to 14) (size 15 to 20)
#    0.000    2.133    1.333    2.000    5.600    6.400 
#    0.000    0.667    0.000    3.200    0.000    0.000 
#    0.000    0.000    0.000    0.000    0.000    0.000 
#
# Total GULP energy -167747.818258 kJ/mol
# GULP energy per Si atom -5591.593942 kJ/mol
# Density = 2.359137 g / cm^3
# Si number density = 23.645184 Si / 1000 Ang^3
#
#
#
# Elastic Constant Matrix: (Units=GPa)
#
#
# Indices 1 2 3 4 5 6 
#
# 1 63.0161 26.3244 14.3307 0.0000 -11.6977 0.0000
# 2 26.3244 114.3733 33.1927 0.0000 -9.6502 0.0000
# 3 14.3307 33.1927 121.9458 0.0000 -19.7054 0.0000
# 4 0.0000 0.0000 0.0000 25.3670 0.0000 -4.3120
# 5 -11.6977 -9.6502 -19.7054 0.0000 21.4947 0.0000
# 6 0.0000 0.0000 0.0000 -4.3120 0.0000 19.1290
#
#
#
# Elastic Compliance Matrix: (Units=1/GPa)
#
#
# Indices 1 2 3 4 5 6 
#
# 1 0.019010 -0.003685 0.000204 0.000000 0.008878 0.000000
# 2 -0.003685 0.010299 -0.002286 0.000000 0.000523 0.000000
# 3 0.000204 -0.002286 0.010155 0.000000 0.008394 0.000000
# 4 0.000000 0.000000 0.000000 0.040992 0.000000 0.009240
# 5 0.008878 0.000523 0.008394 0.000000 0.059285 0.000000
# 6 0.000000 0.000000 0.000000 0.009240 0.000000 0.054360
#
#
# Mechanical properties :
#
#
# Convention : Reuss Voigt Hill
#
# Bulk Modulus (GPa) = 35.80480 49.67008 42.73744
# Shear Modulus (GPa) = 23.26173 28.23064 25.74618
#
# Velocity S-wave (km/s) = 3.13993 3.45907 3.30336
# Velocity P-wave (km/s) = 5.32175 6.08322 5.71518
#
# Compressibility (1/GPa) = 0.02792921
#
# Stress axis : x y z
#
# Youngs Moduli (GPa) = 52.60334 97.09672 98.47318
#
# Poissons Ratio (x) = 0.35785 -0.02006
# Poissons Ratio (y) = 0.19387 0.22509
# Poissons Ratio (z) = -0.01072 0.22194
#
# Static dielectric constant tensor:
#      x y z
#    x 1.911420 0.000000 -0.008960 
#    y 0.000000 1.890900 0.000000 
#    z -0.008960 0.000000 1.918210 
# 
# From -- ./inp_files/160922.got.cif
#   From: 2010.05.17/outbox.cif.g08.bks.cpg/sg15_81_cif.got.tgz:160922.got - 2010.06.03 18:47:42.
