data_PCOD9263112
_publ_section_title
;
Structure prediction by ZEFSAII (Michael W. Deem and Ramdas Pophale) SiO2 
 PCOD9263112
Probable space group: C 2/C
;
_chemical_formula_sum "Si O2"
_cell_formula_units_Z 64
_cell_length_a 23.343606
_cell_length_b 8.181251
_cell_length_c 21.119114
_cell_angle_alpha 90.000000
_cell_angle_beta 142.568058
_cell_angle_gamma 90.000000
_cell_volume 2451.530837
_symmetry_space_group_name_H-M "C 2/C"
_symmetry_group_IT_number 15
_symmetry_cell_setting 'monoclinic'
loop_
_space_group_symop_operation_xyz
x,y,z
-x,y,1/2-z
-x,-y,-z
x,-y,1/2+z
1/2+x,1/2+y,z
1/2-x,1/2+y,1/2-z
1/2-x,1/2-y,-z
1/2+x,1/2-y,1/2+z
loop_
_atom_site_type_symbol
_atom_site_label
_atom_site_fract_x
_atom_site_fract_y
_atom_site_fract_z
Si Si1 0.353454 0.599181 0.646258
Si Si2 0.843547 0.553344 0.187438
Si Si3 0.198469 0.344133 0.236521
Si Si4 0.506385 0.681967 0.536740
Si Si5 0.109930 0.261119 0.518237
Si Si6 0.682441 0.906158 0.458106
Si Si7 0.382152 0.415666 0.029585
Si Si8 0.667855 0.500855 0.737794
O O1 0.379548 0.769716 0.700520
O O2 0.245953 0.566325 0.528044
O O3 0.405238 0.591596 0.624194
O O4 0.351574 0.475200 0.704727
O O5 0.857321 0.466790 0.266571
O O6 0.873070 0.437319 0.155126
O O7 0.729408 0.577412 0.081657
O O8 0.291041 0.285338 0.359398
O O9 0.232504 0.432912 0.202537
O O10 0.150208 0.168777 0.185146
O O11 0.500000 0.500000 0.500000
O O12 0.535120 0.805133 0.506412
O O13 0.427753 0.710959 0.520509
O O14 0.601215 0.648750 0.659541
O O15 0.127426 0.375623 0.474181
O O16 0.079442 0.091769 0.458381
O O17 0.750000 0.750000 0.500000
#
# Coordination Sequence:
#
# PCOD9263112 Si02
#       8
#     8   8   8   8   8   8   8   8
#     4  11  20  31  52  87 112 142 187 231 278 323
#     4  10  20  32  55  85 112 142 180 236 279 317
#     4  10  19  34  50  81 112 136 173 230 279 325
#     4   9  20  35  53  80 107 148 186 223 267 340
#     4   9  16  30  53  78 107 137 174 222 274 313
#     4  11  15  29  53  83 111 138 172 232 278 315
#     4   9  17  32  53  80 112 144 185 222 265 329
#     4  11  21  33  55  82 107 143 179 224 284 323
#
# _framework density 26.106134999999998
#
# number of rings (size 3 to 8) (size 9 to 14) (size 15 to 20)
#    0.000    2.000    5.000    3.000    0.000    0.500 
#    0.000    0.000    0.000    3.000   39.000    2.625 
#    0.000    0.000    0.000    0.000    0.000    0.000 
#
# Total GULP energy -178539.309319 kJ/mol
# GULP energy per Si atom -5579.353416 kJ/mol
# Density = 2.604672 g / cm^3
# Si number density = 26.106135 Si / 1000 Ang^3
#
#
#
# Elastic Constant Matrix: (Units=GPa)
#
#
# Indices 1 2 3 4 5 6 
#
# 1 198.7681 38.7016 39.4163 0.0000 -56.7935 0.0000
# 2 38.7016 101.6403 6.3978 0.0000 -16.2170 0.0000
# 3 39.4163 6.3978 45.9085 0.0000 -23.1500 0.0000
# 4 0.0000 0.0000 0.0000 28.5197 0.0000 -12.4054
# 5 -56.7935 -16.2170 -23.1500 0.0000 33.3414 0.0000
# 6 0.0000 0.0000 0.0000 -12.4054 0.0000 34.0453
#
#
#
# Elastic Compliance Matrix: (Units=1/GPa)
#
#
# Indices 1 2 3 4 5 6 
#
# 1 0.009930 -0.001183 -0.000187 0.000000 0.016209 0.000000
# 2 -0.001183 0.010898 0.001775 0.000000 0.004518 0.000000
# 3 -0.000187 0.001775 0.033807 0.000000 0.024018 0.000000
# 4 0.000000 0.000000 0.000000 0.041668 0.000000 0.015183
# 5 0.016209 0.004518 0.024018 0.000000 0.076478 0.000000
# 6 0.000000 0.000000 0.000000 0.015183 0.000000 0.034905
#
#
# Mechanical properties :
#
#
# Convention : Reuss Voigt Hill
#
# Bulk Modulus (GPa) = 18.03554 57.26091 37.64822
# Shear Modulus (GPa) = 22.18703 36.63470 29.41086
#
# Velocity S-wave (km/s) = 2.91843 3.75013 3.36011
# Velocity P-wave (km/s) = 4.27549 6.38222 5.43197
#
# Compressibility (1/GPa) = 0.05544607
#
# Stress axis : x y z
#
# Youngs Moduli (GPa) = 100.70712 91.75791 29.57943
#
# Poissons Ratio (x) = 0.10855 0.00553
# Poissons Ratio (y) = 0.11914 -0.05252
# Poissons Ratio (z) = 0.01884 -0.16291
#
# Static dielectric constant tensor:
#      x y z
#    x 2.118890 0.000000 0.029450 
#    y 0.000000 2.086980 0.000000 
#    z 0.029450 0.000000 2.178790 
# 
# From -- ./inp_files/255058.got.cif
#   From: 2010.05.17/outbox.cif.g08.bks.cpg/sg15_128_cif.got.tgz:255058.got - 2010.06.03 18:47:42.
