data_PCOD9263944
_publ_section_title
;
Structure prediction by ZEFSAII (Michael W. Deem and Ramdas Pophale) SiO2 
 PCOD9263944
Probable space group: C 2/C
;
_chemical_formula_sum "Si O2"
_cell_formula_units_Z 48
_cell_length_a 16.060500
_cell_length_b 16.350662
_cell_length_c 11.422480
_cell_angle_alpha 90.000000
_cell_angle_beta 52.624085
_cell_angle_gamma 90.000000
_cell_volume 2383.644887
_symmetry_space_group_name_H-M "C 2/C"
_symmetry_group_IT_number 15
_symmetry_cell_setting 'monoclinic'
loop_
_space_group_symop_operation_xyz
x,y,z
-x,y,1/2-z
-x,-y,-z
x,-y,1/2+z
1/2+x,1/2+y,z
1/2-x,1/2+y,1/2-z
1/2-x,1/2-y,-z
1/2+x,1/2-y,1/2+z
loop_
_atom_site_type_symbol
_atom_site_label
_atom_site_fract_x
_atom_site_fract_y
_atom_site_fract_z
Si Si1 0.188682 0.940993 0.436057
Si Si2 0.883613 0.601299 0.900875
Si Si3 0.876749 0.790310 0.852000
Si Si4 0.377614 0.615879 0.972690
Si Si5 0.211869 0.332922 0.797854
Si Si6 0.389200 0.661544 0.693276
O O1 0.303763 0.953282 0.393309
O O2 0.151804 0.859504 0.532031
O O3 0.175636 0.912208 0.313449
O O4 0.116830 0.017499 0.529467
O O5 0.855070 0.696275 0.899754
O O6 0.000000 0.587734 0.750000
O O7 0.857201 0.603445 0.063670
O O8 0.813288 0.810154 0.789756
O O9 0.000000 0.793993 0.750000
O O10 0.372988 0.651629 0.846039
O O11 0.486192 0.649395 0.935318
O O12 0.269883 0.633498 0.133548
O O13 0.148497 0.250521 0.819500
#
# Coordination Sequence:
#
# PCOD9263944 Si02
#       6
#     8   8   8   8   8   8
#     4  11  21  39  62  93 129 159 203 267 309 360
#     4  10  21  39  65  94 120 162 215 255 305 359
#     4  10  19  34  64  96 120 160 209 254 307 361
#     4  11  27  37  63  92 128 167 202 257 315 375
#     4  11  21  41  62  89 127 166 210 254 304 371
#     4  11  23  42  59  91 130 167 209 246 310 375
#
# _framework density 20.137226999999999
#
# number of rings (size 3 to 8) (size 9 to 14) (size 15 to 20)
#    0.000    1.333    3.333    3.000    9.333    0.000 
#    0.000    0.833    7.333    0.000    0.000    0.000 
#    0.000    0.000    0.000    0.000    0.000    0.000 
#
# Total GULP energy -133699.358448 kJ/mol
# GULP energy per Si atom -5570.806602 kJ/mol
# Density = 2.009139 g / cm^3
# Si number density = 20.137227 Si / 1000 Ang^3
#
#
#
# Elastic Constant Matrix: (Units=GPa)
#
#
# Indices 1 2 3 4 5 6 
#
# 1 112.0677 -24.4041 66.5863 0.0000 -26.0812 0.0000
# 2 -24.4041 237.5702 -38.7525 0.0000 69.1030 0.0000
# 3 66.5863 -38.7525 139.8365 0.0000 -37.8949 0.0000
# 4 0.0000 0.0000 0.0000 22.4563 0.0000 -3.0054
# 5 -26.0812 69.1030 -37.8949 0.0000 63.8561 0.0000
# 6 0.0000 0.0000 0.0000 -3.0054 0.0000 27.1555
#
#
#
# Elastic Compliance Matrix: (Units=1/GPa)
#
#
# Indices 1 2 3 4 5 6 
#
# 1 0.012641 -0.000220 -0.005501 0.000000 0.002137 0.000000
# 2 -0.000220 0.006148 -0.000022 0.000000 -0.006757 0.000000
# 3 -0.005501 -0.000022 0.010918 0.000000 0.004256 0.000000
# 4 0.000000 0.000000 0.000000 0.045201 0.000000 0.005003
# 5 0.002137 -0.006757 0.004256 0.000000 0.026371 0.000000
# 6 0.000000 0.000000 0.000000 0.005003 0.000000 0.037379
#
#
# Mechanical properties :
#
#
# Convention : Reuss Voigt Hill
#
# Bulk Modulus (GPa) = 54.88567 55.14820 55.01694
# Shear Modulus (GPa) = 32.00635 55.09655 43.55145
#
# Velocity S-wave (km/s) = 3.99107 5.23641 4.65556
# Velocity P-wave (km/s) = 6.96801 8.00035 7.50196
#
# Compressibility (1/GPa) = 0.01821969
#
# Stress axis : x y z
#
# Youngs Moduli (GPa) = 79.10638 162.64405 91.59100
#
# Poissons Ratio (x) = 0.03585 0.50388
# Poissons Ratio (y) = 0.01744 0.00203
# Poissons Ratio (z) = 0.43519 0.00361
#
# Static dielectric constant tensor:
#      x y z
#    x 1.879250 0.000000 -0.009180 
#    y 0.000000 1.691000 0.000000 
#    z -0.009180 0.000000 1.826650 
# 
# From -- ./inp_files/96857.got.cif
#   From: 2010.05.17/outbox.cif.g08.bks.cpg/sg15_49_cif.got.tgz:96857.got - 2010.06.03 18:47:42.
