data_PCOD9263155
_publ_section_title
;
Structure prediction by ZEFSAII (Michael W. Deem and Ramdas Pophale) SiO2 
 PCOD9263155
Probable space group: C 2/C
;
_chemical_formula_sum "Si O2"
_cell_formula_units_Z 56
_cell_length_a 17.520592
_cell_length_b 15.651309
_cell_length_c 13.562393
_cell_angle_alpha 90.000000
_cell_angle_beta 140.695604
_cell_angle_gamma 90.000000
_cell_volume 2355.816278
_symmetry_space_group_name_H-M "C 2/C"
_symmetry_group_IT_number 15
_symmetry_cell_setting 'monoclinic'
loop_
_space_group_symop_operation_xyz
x,y,z
-x,y,1/2-z
-x,-y,-z
x,-y,1/2+z
1/2+x,1/2+y,z
1/2-x,1/2+y,1/2-z
1/2-x,1/2-y,-z
1/2+x,1/2-y,1/2+z
loop_
_atom_site_type_symbol
_atom_site_label
_atom_site_fract_x
_atom_site_fract_y
_atom_site_fract_z
Si Si1 0.142087 0.337836 0.144903
Si Si2 0.844313 0.759976 0.214778
Si Si3 0.961253 0.784897 0.532611
Si Si4 0.420702 0.959618 0.570680
Si Si5 0.316391 0.574556 0.969197
Si Si6 0.281413 0.609247 0.502524
Si Si7 0.375690 0.139876 0.564040
O O1 0.220409 0.285172 0.145497
O O2 0.227631 0.403069 0.289412
O O3 0.051443 0.395017 0.988952
O O4 0.082738 0.269493 0.159099
O O5 0.939515 0.785317 0.393431
O O6 0.818800 0.662723 0.158292
O O7 0.860840 0.817156 0.133310
O O8 0.938758 0.874151 0.564579
O O9 0.861518 0.723439 0.483861
O O10 0.500000 0.957086 0.750000
O O11 0.288709 0.933216 0.476337
O O12 0.409345 0.058131 0.530822
O O13 0.334444 0.472954 0.000069
O O14 0.239033 0.613926 0.983694
O O15 0.500000 0.152219 0.750000
#
# Coordination Sequence:
#
# PCOD9263155 Si02
#       7
#     8   8   8   8   8   8   8
#     4  10  20  34  54  86 121 148 197 239 287 355
#     4   9  20  36  58  86 110 157 194 243 292 342
#     4  11  21  34  57  83 117 154 190 237 292 352
#     4   9  18  30  51  85 114 148 186 240 298 343
#     4  10  21  36  56  84 114 157 194 238 293 349
#     4   9  18  37  56  77 119 148 196 241 288 348
#     4  10  19  34  52  80 117 147 188 238 290 351
#
# _framework density 23.770954
#
# number of rings (size 3 to 8) (size 9 to 14) (size 15 to 20)
#    0.000    2.286    1.429    1.286    2.000    0.571 
#    0.000    0.714    0.000    1.714    0.000    0.000 
#    0.000    0.000    0.000    0.000    0.000    0.000 
#
# Total GULP energy -156062.271490 kJ/mol
# GULP energy per Si atom -5573.652553 kJ/mol
# Density = 2.371685 g / cm^3
# Si number density = 23.770954 Si / 1000 Ang^3
#
#
#
# Elastic Constant Matrix: (Units=GPa)
#
#
# Indices 1 2 3 4 5 6 
#
# 1 70.2622 39.5194 10.2408 0.0000 -7.3378 0.0000
# 2 39.5194 157.2462 8.6098 0.0000 -8.4879 0.0000
# 3 10.2408 8.6098 21.2361 0.0000 -1.4209 0.0000
# 4 0.0000 0.0000 0.0000 12.5326 0.0000 -9.1944
# 5 -7.3378 -8.4879 -1.4209 0.0000 15.8980 0.0000
# 6 0.0000 0.0000 0.0000 -9.1944 0.0000 34.4323
#
#
#
# Elastic Compliance Matrix: (Units=1/GPa)
#
#
# Indices 1 2 3 4 5 6 
#
# 1 0.017963 -0.003842 -0.006727 0.000000 0.005638 0.000000
# 2 -0.003842 0.007497 -0.001044 0.000000 0.002136 0.000000
# 3 -0.006727 -0.001044 0.050816 0.000000 0.000879 0.000000
# 4 0.000000 0.000000 0.000000 0.099231 0.000000 0.026498
# 5 0.005638 0.002136 0.000879 0.000000 0.066723 0.000000
# 6 0.000000 0.000000 0.000000 0.026498 0.000000 0.036118
#
#
# Mechanical properties :
#
#
# Convention : Reuss Voigt Hill
#
# Bulk Modulus (GPa) = 18.85034 40.60939 29.72987
# Shear Modulus (GPa) = 15.66133 25.26422 20.46278
#
# Velocity S-wave (km/s) = 2.56958 3.26363 2.93718
# Velocity P-wave (km/s) = 4.09278 5.59664 4.90272
#
# Compressibility (1/GPa) = 0.05304943
#
# Stress axis : x y z
#
# Youngs Moduli (GPa) = 55.67141 133.37877 19.67890
#
# Poissons Ratio (x) = 0.51240 0.13239
# Poissons Ratio (y) = 0.21387 0.02055
# Poissons Ratio (z) = 0.37452 0.13927
#
# Static dielectric constant tensor:
#      x y z
#    x 1.938070 0.000000 0.022780 
#    y 0.000000 1.981660 0.000000 
#    z 0.022780 0.000000 1.990770 
# 
# From -- ./inp_files/162333.got.cif
#   From: 2010.05.17/outbox.cif.g08.bks.cpg/sg15_82_cif.got.tgz:162333.got - 2010.06.03 18:47:42.
