data_PCOD9263534
_publ_section_title
;
Structure prediction by ZEFSAII (Michael W. Deem and Ramdas Pophale) SiO2 
 PCOD9263534
Probable space group: C 2/C
;
_chemical_formula_sum "Si O2"
_cell_formula_units_Z 40
_cell_length_a 4.678246
_cell_length_b 22.015986
_cell_length_c 13.907157
_cell_angle_alpha 90.000000
_cell_angle_beta 85.114241
_cell_angle_gamma 90.000000
_cell_volume 1427.179728
_symmetry_space_group_name_H-M "C 2/C"
_symmetry_group_IT_number 15
_symmetry_cell_setting 'monoclinic'
loop_
_space_group_symop_operation_xyz
x,y,z
-x,y,1/2-z
-x,-y,-z
x,-y,1/2+z
1/2+x,1/2+y,z
1/2-x,1/2+y,1/2-z
1/2-x,1/2-y,-z
1/2+x,1/2-y,1/2+z
loop_
_atom_site_type_symbol
_atom_site_label
_atom_site_fract_x
_atom_site_fract_y
_atom_site_fract_z
Si Si1 0.203941 0.390037 0.101650
Si Si2 0.716713 0.302210 0.103150
Si Si3 0.060935 0.412540 0.891482
Si Si4 0.319274 0.279852 0.852188
Si Si5 0.552405 0.489346 0.883296
O O1 0.494710 0.352825 0.065778
O O2 0.950555 0.346590 0.147533
O O3 0.308463 0.448475 0.156336
O O4 0.065410 0.413915 0.006819
O O5 0.308203 0.152952 0.132986
O O6 0.462407 0.260935 0.150486
O O7 0.961704 0.248938 0.071921
O O8 0.253260 0.468211 0.849601
O O9 0.747421 0.429423 0.866374
O O10 0.500000 0.277980 0.750000
O O11 0.500000 0.500000 0.000000
#
# Coordination Sequence:
#
# PCOD9263534 Si02
#       5
#     8   8   8   8   8
#     4  10  19  35  57  90 120 142 183 234 293 355
#     4  10  22  36  59  82 111 151 185 238 286 329
#     4  11  21  34  60  88 119 154 182 232 294 344
#     4  11  24  41  57  78 111 155 202 238 278 337
#     4  10  19  34  57  88 120 147 174 218 288 355
#
# _framework density 28.027301999999999
#
# number of rings (size 3 to 8) (size 9 to 14) (size 15 to 20)
#    0.000    1.600    0.000    7.800    0.000    4.800 
#    0.000    0.000    0.000   24.000    0.000    0.000 
#    0.000    0.000    0.000    0.000    0.000    0.000 
#
# Total GULP energy -111572.778627 kJ/mol
# GULP energy per Si atom -5578.638931 kJ/mol
# Density = 2.796351 g / cm^3
# Si number density = 28.027302 Si / 1000 Ang^3
#
#
#
# Elastic Constant Matrix: (Units=GPa)
#
#
# Indices 1 2 3 4 5 6 
#
# 1 186.7316 52.5798 23.2569 0.0000 -27.3540 0.0000
# 2 52.5798 178.4903 15.9593 0.0000 -24.4268 0.0000
# 3 23.2569 15.9593 64.2723 0.0000 5.3893 0.0000
# 4 0.0000 0.0000 0.0000 9.2995 0.0000 -21.9362
# 5 -27.3540 -24.4268 5.3893 0.0000 18.2735 0.0000
# 6 0.0000 0.0000 0.0000 -21.9362 0.0000 48.7677
#
#
#
# Elastic Compliance Matrix: (Units=1/GPa)
#
#
# Indices 1 2 3 4 5 6 
#
# 1 0.007693 -0.000249 -0.003752 0.000000 0.012290 0.000000
# 2 -0.000249 0.007292 -0.002570 0.000000 0.010134 0.000000
# 3 -0.003752 -0.002570 0.018778 0.000000 -0.014591 0.000000
# 4 0.000000 0.000000 0.000000 -1.761818 0.000000 -0.792484
# 5 0.012290 0.010134 -0.014591 0.000000 0.090971 0.000000
# 6 0.000000 0.000000 0.000000 -0.792484 0.000000 -0.335962
#
#
# Mechanical properties :
#
#
# Convention : Reuss Voigt Hill
#
# Bulk Modulus (GPa) = 48.49557 68.12069 58.30813
# Shear Modulus (GPa) = -2.56013 37.78137 17.61062
#
# Velocity S-wave (km/s) = -0.95678 3.67552 2.50939
# Velocity P-wave (km/s) = 4.01497 6.50926 5.40789
#
# Compressibility (1/GPa) = 0.02062044
#
# Stress axis : x y z
#
# Youngs Moduli (GPa) = 129.98763 137.12721 53.25258
#
# Poissons Ratio (x) = 0.03412 0.19983
# Poissons Ratio (y) = 0.03234 0.13689
# Poissons Ratio (z) = 0.48778 0.35249
#
# Static dielectric constant tensor:
#      x y z
#    x 2.097270 0.000000 -0.001960 
#    y 0.000000 2.263470 0.000000 
#    z -0.001960 0.000000 2.466910 
# 
# From -- ./inp_files/260538.got.cif
#   From: 2010.05.17/outbox.cif.g08.bks.cpg/sg15_131_cif.got.tgz:260538.got - 2010.06.03 18:47:42.
