data_PCOD9263788
_publ_section_title
;
Structure prediction by ZEFSAII (Michael W. Deem and Ramdas Pophale) SiO2 
 PCOD9263788
Probable space group: C 2/C
;
_chemical_formula_sum "Si O2"
_cell_formula_units_Z 48
_cell_length_a 11.571237
_cell_length_b 20.164544
_cell_length_c 11.720408
_cell_angle_alpha 90.000000
_cell_angle_beta 102.945344
_cell_angle_gamma 90.000000
_cell_volume 2665.203006
_symmetry_space_group_name_H-M "C 2/C"
_symmetry_group_IT_number 15
_symmetry_cell_setting 'monoclinic'
loop_
_space_group_symop_operation_xyz
x,y,z
-x,y,1/2-z
-x,-y,-z
x,-y,1/2+z
1/2+x,1/2+y,z
1/2-x,1/2+y,1/2-z
1/2-x,1/2-y,-z
1/2+x,1/2-y,1/2+z
loop_
_atom_site_type_symbol
_atom_site_label
_atom_site_fract_x
_atom_site_fract_y
_atom_site_fract_z
Si Si1 0.383797 0.422944 0.801720
Si Si2 0.948021 0.253191 0.990751
Si Si3 0.185794 0.066792 0.758006
Si Si4 0.099050 0.661760 0.676240
Si Si5 0.797832 0.212468 0.178348
Si Si6 0.022529 0.885087 0.431010
O O1 0.500000 0.430947 0.750000
O O2 0.307785 0.488490 0.761232
O O3 0.320043 0.355996 0.747427
O O4 0.429560 0.415531 0.940974
O O5 0.834772 0.279253 0.897001
O O6 0.018479 0.194645 0.942918
O O7 0.890762 0.219917 0.093073
O O8 0.031313 0.313426 0.048634
O O9 0.310966 0.101276 0.806391
O O10 0.105251 0.087330 0.848636
O O11 0.111993 0.094847 0.632701
O O12 0.172763 0.725959 0.733893
O O13 0.000000 0.648761 0.750000
#
# Coordination Sequence:
#
# PCOD9263788 Si02
#       6
#     8   8   8   8   8   8
#     4  12  21  37  61  89 119 152 199 246 293 343
#     4  10  19  34  61  87 115 152 198 240 282 340
#     4  11  25  37  58  91 120 156 190 243 309 345
#     4  10  20  39  60  84 115 157 201 239 285 354
#     4  10  19  34  60  89 112 152 201 240 281 338
#     4  11  21  38  60  89 120 150 191 249 297 343
#
# _framework density 18.009885000000001
#
# number of rings (size 3 to 8) (size 9 to 14) (size 15 to 20)
#    0.000    1.333    6.667    1.000    0.000    0.667 
#    0.000    0.833    0.000    0.000    0.000    0.000 
#    0.000    0.000    0.000    0.000    0.000    0.000 
#
# Total GULP energy -133980.624342 kJ/mol
# GULP energy per Si atom -5582.526014 kJ/mol
# Density = 1.796889 g / cm^3
# Si number density = 18.009885 Si / 1000 Ang^3
#
#
#
# Elastic Constant Matrix: (Units=GPa)
#
#
# Indices 1 2 3 4 5 6 
#
# 1 61.7607 45.9065 41.3865 0.0000 25.3817 0.0000
# 2 45.9065 111.2679 44.4369 0.0000 11.3667 0.0000
# 3 41.3865 44.4369 99.0946 0.0000 18.7764 0.0000
# 4 0.0000 0.0000 0.0000 23.6945 0.0000 -5.7107
# 5 25.3817 11.3667 18.7764 0.0000 23.3422 0.0000
# 6 0.0000 0.0000 0.0000 -5.7107 0.0000 142.8133
#
#
#
# Elastic Compliance Matrix: (Units=1/GPa)
#
#
# Indices 1 2 3 4 5 6 
#
# 1 0.045055 -0.012260 -0.006097 0.000000 -0.038117 0.000000
# 2 -0.012260 0.014337 -0.002964 0.000000 0.008733 0.000000
# 3 -0.006097 -0.002964 0.014674 0.000000 -0.003731 0.000000
# 4 0.000000 0.000000 0.000000 0.042615 0.000000 0.001704
# 5 -0.038117 0.008733 -0.003731 0.000000 0.083037 0.000000
# 6 0.000000 0.000000 0.000000 0.001704 0.000000 0.007070
#
#
# Mechanical properties :
#
#
# Convention : Reuss Voigt Hill
#
# Bulk Modulus (GPa) = 31.82226 59.50921 45.66573
# Shear Modulus (GPa) = 19.23804 47.32954 33.28379
#
# Velocity S-wave (km/s) = 3.27187 5.13194 4.30360
# Velocity P-wave (km/s) = 5.65519 8.26015 7.07853
#
# Compressibility (1/GPa) = 0.03142455
#
# Stress axis : x y z
#
# Youngs Moduli (GPa) = 22.19527 69.75068 68.14975
#
# Poissons Ratio (x) = 0.85512 0.41551
# Poissons Ratio (y) = 0.27211 0.20197
# Poissons Ratio (z) = 0.13532 0.20671
#
# Static dielectric constant tensor:
#      x y z
#    x 1.606490 0.000000 -0.003000 
#    y 0.000000 1.616930 0.000000 
#    z -0.003000 0.000000 1.637600 
# 
# From -- ./inp_files/87237.got.cif
#   From: 2010.05.17/outbox.cif.g08.bks.cpg/sg15_44_cif.got.tgz:87237.got - 2010.06.03 18:47:42.
