data_PCOD9263690
_publ_section_title
;
Structure prediction by ZEFSAII (Michael W. Deem and Ramdas Pophale) SiO2 
 PCOD9263690
Probable space group: C 2/C
;
_chemical_formula_sum "Si O2"
_cell_formula_units_Z 40
_cell_length_a 16.751151
_cell_length_b 10.290576
_cell_length_c 14.175925
_cell_angle_alpha 90.000000
_cell_angle_beta 140.411515
_cell_angle_gamma 90.000000
_cell_volume 1557.251011
_symmetry_space_group_name_H-M "C 2/C"
_symmetry_group_IT_number 15
_symmetry_cell_setting 'monoclinic'
loop_
_space_group_symop_operation_xyz
x,y,z
-x,y,1/2-z
-x,-y,-z
x,-y,1/2+z
1/2+x,1/2+y,z
1/2-x,1/2+y,1/2-z
1/2-x,1/2-y,-z
1/2+x,1/2-y,1/2+z
loop_
_atom_site_type_symbol
_atom_site_label
_atom_site_fract_x
_atom_site_fract_y
_atom_site_fract_z
Si Si1 0.807186 0.766773 0.358607
Si Si2 0.460144 0.183152 0.314692
Si Si3 0.318591 0.993583 0.421748
Si Si4 0.124551 0.916114 0.611286
Si Si5 0.234378 0.992453 0.545963
O O1 0.871969 0.639015 0.466227
O O2 0.666164 0.709806 0.207558
O O3 0.801543 0.871123 0.438249
O O4 0.882601 0.761021 0.325227
O O5 0.500000 0.243936 0.250000
O O6 0.576599 0.112499 0.470267
O O7 0.370071 0.063784 0.197661
O O8 0.235446 0.986794 0.251374
O O9 0.226713 0.989405 0.427631
O O10 0.146040 0.891523 0.520993
O O11 0.000000 0.000000 0.500000
#
# Coordination Sequence:
#
# PCOD9263690 Si02
#       5
#     8   8   8   8   8
#     4   9  19  33  57  84 117 149 199 248 292 350
#     4   9  18  35  59  84 116 151 195 246 296 354
#     4   9  19  35  57  85 113 154 200 246 299 339
#     4   9  21  36  51  80 122 158 192 244 301 355
#     4  10  19  34  59  85 116 148 198 249 300 353
#
# _framework density 25.686288000000001
#
# number of rings (size 3 to 8) (size 9 to 14) (size 15 to 20)
#    1.200    1.600    0.000    1.200    0.000    2.400 
#    0.000    2.000    4.400    3.600    0.000    0.000 
#    0.000    0.000    0.000    0.000    0.000    0.000 
#
# Total GULP energy -111335.062038 kJ/mol
# GULP energy per Si atom -5566.753102 kJ/mol
# Density = 2.562782 g / cm^3
# Si number density = 25.686288 Si / 1000 Ang^3
#
#
#
# Elastic Constant Matrix: (Units=GPa)
#
#
# Indices 1 2 3 4 5 6 
#
# 1 103.3054 19.3232 10.5760 0.0000 -9.1440 0.0000
# 2 19.3232 82.2017 19.5584 0.0000 0.2090 0.0000
# 3 10.5760 19.5584 87.9979 0.0000 0.1983 0.0000
# 4 0.0000 0.0000 0.0000 37.5814 0.0000 -5.1437
# 5 -9.1440 0.2090 0.1983 0.0000 38.2140 0.0000
# 6 0.0000 0.0000 0.0000 -5.1437 0.0000 21.5735
#
#
#
# Elastic Compliance Matrix: (Units=1/GPa)
#
#
# Indices 1 2 3 4 5 6 
#
# 1 0.010404 -0.002273 -0.000751 0.000000 0.002506 0.000000
# 2 -0.002273 0.013341 -0.002691 0.000000 -0.000603 0.000000
# 3 -0.000751 -0.002691 0.012053 0.000000 -0.000227 0.000000
# 4 0.000000 0.000000 0.000000 0.027507 0.000000 0.006558
# 5 0.002506 -0.000603 -0.000227 0.000000 0.026772 0.000000
# 6 0.000000 0.000000 0.000000 0.006558 0.000000 0.047917
#
#
# Mechanical properties :
#
#
# Convention : Reuss Voigt Hill
#
# Bulk Modulus (GPa) = 41.03686 41.38000 41.20843
# Shear Modulus (GPa) = 31.73671 34.41028 33.07350
#
# Velocity S-wave (km/s) = 3.51885 3.66407 3.59220
# Velocity P-wave (km/s) = 5.70269 5.83484 5.76914
#
# Compressibility (1/GPa) = 0.02436833
#
# Stress axis : x y z
#
# Youngs Moduli (GPa) = 96.11751 74.95501 82.96910
#
# Poissons Ratio (x) = 0.17040 0.06229
# Poissons Ratio (y) = 0.21851 0.22324
# Poissons Ratio (z) = 0.07216 0.20168
#
# Static dielectric constant tensor:
#      x y z
#    x 2.093250 0.000000 0.097040 
#    y 0.000000 2.417470 0.000000 
#    z 0.097040 0.000000 2.026330 
# 
# From -- ./inp_files/161157.got.cif
#   From: 2010.05.17/outbox.cif.g08.bks.cpg/sg15_81_cif.got.tgz:161157.got - 2010.06.03 18:47:42.
