data_PCOD9263571
_publ_section_title
;
Structure prediction by ZEFSAII (Michael W. Deem and Ramdas Pophale) SiO2 
 PCOD9263571
Probable space group: C 2/C
;
_chemical_formula_sum "Si O2"
_cell_formula_units_Z 48
_cell_length_a 30.059866
_cell_length_b 7.491785
_cell_length_c 16.964970
_cell_angle_alpha 90.000000
_cell_angle_beta 33.682221
_cell_angle_gamma 90.000000
_cell_volume 2118.822297
_symmetry_space_group_name_H-M "C 2/C"
_symmetry_group_IT_number 15
_symmetry_cell_setting 'monoclinic'
loop_
_space_group_symop_operation_xyz
x,y,z
-x,y,1/2-z
-x,-y,-z
x,-y,1/2+z
1/2+x,1/2+y,z
1/2-x,1/2+y,1/2-z
1/2-x,1/2-y,-z
1/2+x,1/2-y,1/2+z
loop_
_atom_site_type_symbol
_atom_site_label
_atom_site_fract_x
_atom_site_fract_y
_atom_site_fract_z
Si Si1 0.743127 0.093405 0.854421
Si Si2 0.585087 0.930754 0.850307
Si Si3 0.918818 0.369491 0.828745
Si Si4 0.255902 0.022608 0.832811
Si Si5 0.584740 0.451835 0.414688
Si Si6 0.916766 0.970806 0.898224
O O1 0.747294 0.308637 0.860288
O O2 0.827962 0.998911 0.751394
O O3 0.735137 0.059548 0.773055
O O4 0.661884 0.041414 0.018427
O O5 0.581569 0.879453 0.764397
O O6 0.659065 0.064607 0.753608
O O7 0.593099 0.761213 0.896143
O O8 0.500000 0.000000 0.000000
O O9 0.917318 0.159660 0.852809
O O10 0.000000 0.440459 0.750000
O O11 0.172163 0.108976 0.984378
O O12 0.500000 0.500000 0.500000
O O13 0.581368 0.508548 0.510645
O O14 0.000000 0.877395 0.750000
#
# Coordination Sequence:
#
# PCOD9263571 Si02
#       6
#     8   8   8   8   8   8
#     4   9  19  34  55  80 107 146 186 228 277 331
#     4  11  23  37  56  85 118 150 185 234 287 337
#     4  10  19  34  58  82 109 147 188 226 277 340
#     4   9  19  35  55  81 113 146 185 229 280 332
#     4  10  20  35  56  81 112 147 188 233 276 329
#     4   9  18  33  56  82 105 141 188 231 270 325
#
# _framework density 22.654095000000002
#
# number of rings (size 3 to 8) (size 9 to 14) (size 15 to 20)
#    0.000    2.333    0.000    3.000    0.000   10.000 
#    0.000    5.833    0.000    3.000    0.000    0.000 
#    0.000    0.000    0.000    0.000    0.000    0.000 
#
# Total GULP energy -133797.494139 kJ/mol
# GULP energy per Si atom -5574.895589 kJ/mol
# Density = 2.260253 g / cm^3
# Si number density = 22.654095 Si / 1000 Ang^3
#
#
#
# Elastic Constant Matrix: (Units=GPa)
#
#
# Indices 1 2 3 4 5 6 
#
# 1 66.1709 -9.6489 36.6243 -0.0056 -22.5849 -0.0158
# 2 -9.6489 45.1569 7.2859 -0.0180 0.0309 -0.0360
# 3 36.6243 7.2859 191.3712 -0.0060 -31.8981 -0.0182
# 4 -0.0056 -0.0180 -0.0060 -110.8786 0.0039 -252.2851
# 5 -22.5849 0.0309 -31.8981 0.0039 47.2061 0.0104
# 6 -0.0158 -0.0360 -0.0182 -252.2851 0.0104 -512.7597
#
#
#
# Elastic Compliance Matrix: (Units=1/GPa)
#
#
# Indices 1 2 3 4 5 6 
#
# 1 0.019923 0.004689 -0.002708 -0.000002 0.007699 0.000000
# 2 0.004689 0.023404 -0.001597 0.000000 0.001149 -0.000002
# 3 -0.002708 -0.001597 0.006298 -0.000001 0.002961 0.000000
# 4 -0.000002 0.000000 -0.000001 0.075476 0.000001 -0.037135
# 5 0.007699 0.001149 0.002961 0.000001 0.026867 0.000000
# 6 0.000000 -0.000002 0.000000 -0.037135 0.000000 0.016321
#
#
# Mechanical properties :
#
#
# Convention : Reuss Voigt Hill
#
# Bulk Modulus (GPa) = 19.84450 41.24684 30.54567
# Shear Modulus (GPa) = 27.12699 -97.39059 -35.13180
#
# Velocity S-wave (km/s) = 3.46416 -6.56381 -3.94228
# Velocity P-wave (km/s) = 4.97789 6.26083 2.68502
#
# Compressibility (1/GPa) = 0.05039180
#
# Stress axis : x y z
#
# Youngs Moduli (GPa) = 50.19447 42.72825 158.77876
#
# Poissons Ratio (x) = -0.20034 0.42998
# Poissons Ratio (y) = -0.23534 0.25354
# Poissons Ratio (z) = 0.13593 0.06823
#
# Static dielectric constant tensor:
#      x y z
#    x 1.813460 0.000000 -0.121640 
#    y 0.000000 1.788680 0.000000 
#    z -0.121640 0.000000 1.912740 
# 
# From -- ./inp_files/176887.got.cif
#   From: 2010.05.17/outbox.cif.g08.bks.cpg/sg15_89_cif.got.tgz:176887.got - 2010.06.03 18:47:42.
