data_PCOD9263678
_publ_section_title
;
Structure prediction by ZEFSAII (Michael W. Deem and Ramdas Pophale) SiO2 
 PCOD9263678
Probable space group: C 2/C
;
_chemical_formula_sum "Si O2"
_cell_formula_units_Z 48
_cell_length_a 9.156608
_cell_length_b 32.759280
_cell_length_c 13.321701
_cell_angle_alpha 90.000000
_cell_angle_beta 42.688575
_cell_angle_gamma 90.000000
_cell_volume 2709.360186
_symmetry_space_group_name_H-M "C 2/C"
_symmetry_group_IT_number 15
_symmetry_cell_setting 'monoclinic'
loop_
_space_group_symop_operation_xyz
x,y,z
-x,y,1/2-z
-x,-y,-z
x,-y,1/2+z
1/2+x,1/2+y,z
1/2-x,1/2+y,1/2-z
1/2-x,1/2-y,-z
1/2+x,1/2-y,1/2+z
loop_
_atom_site_type_symbol
_atom_site_label
_atom_site_fract_x
_atom_site_fract_y
_atom_site_fract_z
Si Si1 0.500000 0.632433 0.750000
Si Si2 0.500000 0.496248 0.750000
Si Si3 0.241141 0.785250 0.888324
Si Si4 0.810021 0.839574 0.770576
Si Si5 0.284369 0.435652 0.496380
Si Si6 0.659864 0.805273 0.439691
Si Si7 0.731940 0.932460 0.758125
O O1 0.601010 0.603372 0.613147
O O2 0.692822 0.661759 0.690331
O O3 0.618139 0.525275 0.609684
O O4 0.332631 0.467518 0.775980
O O5 0.500000 0.781873 0.750000
O O6 0.158453 0.818994 0.853858
O O7 0.148374 0.741004 0.906583
O O8 0.215464 0.798291 0.016630
O O9 0.800064 0.888073 0.762996
O O10 0.000000 0.828100 0.750000
O O11 0.577091 0.823197 0.924332
O O12 0.310804 0.436969 0.603072
O O13 0.027583 0.433626 0.608870
#
# Coordination Sequence:
#
# PCOD9263678 Si02
#       7
#     4   4   8   8   8   8   8
#     4  11  18  34  58  90 114 140 204 250 280 323
#     4  11  22  40  62  88 116 146 188 242 300 345
#     4   9  19  34  57  85 108 147 206 244 279 336
#     4  11  22  36  56  83 117 160 192 232 298 348
#     4  10  23  36  62  89 112 152 192 240 289 345
#     4  10  19  34  59  83 111 151 196 250 282 328
#     4  11  21  40  59  86 118 152 193 235 288 358
#
# _framework density 17.716359000000001
#
# number of rings (size 3 to 8) (size 9 to 14) (size 15 to 20)
#    0.000    1.667    3.333    2.000    4.667    0.667 
#    0.000    0.000    0.000    6.000    0.000    0.000 
#    0.000    0.000    0.000    0.000    0.000    0.000 
#
# Total GULP energy -133898.969215 kJ/mol
# GULP energy per Si atom -5579.123717 kJ/mol
# Density = 1.767604 g / cm^3
# Si number density = 17.716359 Si / 1000 Ang^3
#
#
#
# Elastic Constant Matrix: (Units=GPa)
#
#
# Indices 1 2 3 4 5 6 
#
# 1 63.2876 25.0421 18.4572 0.0000 -13.8380 0.0000
# 2 25.0421 121.7412 35.4357 0.0000 -7.4861 0.0000
# 3 18.4572 35.4357 72.8284 0.0000 -2.0825 0.0000
# 4 0.0000 0.0000 0.0000 27.7618 0.0000 -5.4428
# 5 -13.8380 -7.4861 -2.0825 0.0000 11.7142 0.0000
# 6 0.0000 0.0000 0.0000 -5.4428 0.0000 9.6048
#
#
#
# Elastic Compliance Matrix: (Units=1/GPa)
#
#
# Indices 1 2 3 4 5 6 
#
# 1 0.023439 -0.002014 -0.004227 0.000000 0.025650 0.000000
# 2 -0.002014 0.010083 -0.004301 0.000000 0.003300 0.000000
# 3 -0.004227 -0.004301 0.016759 0.000000 -0.004763 0.000000
# 4 0.000000 0.000000 0.000000 0.040523 0.000000 0.022963
# 5 0.025650 0.003300 -0.004763 0.000000 0.116929 0.000000
# 6 0.000000 0.000000 0.000000 0.022963 0.000000 0.117126
#
#
# Mechanical properties :
#
#
# Convention : Reuss Voigt Hill
#
# Bulk Modulus (GPa) = 34.25033 46.19194 40.22113
# Shear Modulus (GPa) = 14.05774 21.74432 17.90103
#
# Velocity S-wave (km/s) = 2.81995 3.50717 3.18217
# Velocity P-wave (km/s) = 5.47516 6.52150 6.02110
#
# Compressibility (1/GPa) = 0.02919680
#
# Stress axis : x y z
#
# Youngs Moduli (GPa) = 42.66412 99.17316 59.66964
#
# Poissons Ratio (x) = 0.19971 0.25222
# Poissons Ratio (y) = 0.08591 0.25667
# Poissons Ratio (z) = 0.18034 0.42659
#
# Static dielectric constant tensor:
#      x y z
#    x 1.576360 0.000000 0.029640 
#    y 0.000000 1.613510 0.000000 
#    z 0.029640 0.000000 1.629910 
# 
# From -- ./inp_files/139410.got.cif
#   From: 2010.05.17/outbox.cif.g08.bks.cpg/sg15_70_cif.got.tgz:139410.got - 2010.06.03 18:47:42.
