data_PCOD9263476
_publ_section_title
;
Structure prediction by ZEFSAII (Michael W. Deem and Ramdas Pophale) SiO2 
 PCOD9263476
Probable space group: C 2/C
;
_chemical_formula_sum "Si O2"
_cell_formula_units_Z 48
_cell_length_a 14.424257
_cell_length_b 13.228150
_cell_length_c 17.986691
_cell_angle_alpha 90.000000
_cell_angle_beta 142.259193
_cell_angle_gamma 90.000000
_cell_volume 2100.677626
_symmetry_space_group_name_H-M "C 2/C"
_symmetry_group_IT_number 15
_symmetry_cell_setting 'monoclinic'
loop_
_space_group_symop_operation_xyz
x,y,z
-x,y,1/2-z
-x,-y,-z
x,-y,1/2+z
1/2+x,1/2+y,z
1/2-x,1/2+y,1/2-z
1/2-x,1/2-y,-z
1/2+x,1/2-y,1/2+z
loop_
_atom_site_type_symbol
_atom_site_label
_atom_site_fract_x
_atom_site_fract_y
_atom_site_fract_z
Si Si1 0.000000 0.840598 0.250000
Si Si2 0.615446 0.033742 0.229534
Si Si3 0.964386 0.686309 0.860561
Si Si4 0.269116 0.282862 0.864883
Si Si5 0.000000 0.171366 0.250000
Si Si6 0.688242 0.112583 0.508957
Si Si7 0.303604 0.071912 0.387645
O O1 0.105203 0.771708 0.264298
O O2 0.128464 0.895948 0.381646
O O3 0.736648 0.098581 0.352922
O O4 0.659691 0.073078 0.175215
O O5 0.615768 0.912187 0.228222
O O6 0.439635 0.069618 0.127222
O O7 0.853958 0.750644 0.843792
O O8 0.036773 0.755140 0.842541
O O9 0.089750 0.642036 0.995169
O O10 0.342369 0.226936 0.982942
O O11 0.136068 0.104188 0.304887
O O12 0.665793 0.042294 0.567254
#
# Coordination Sequence:
#
# PCOD9263476 Si02
#       7
#     4   8   8   8   4   8   8
#     4   8  17  33  52  80 110 130 189 243 256 336
#     4  11  19  35  63  77 115 159 181 234 297 335
#     4  11  22  39  55  87 118 149 192 236 286 353
#     4  10  19  34  57  82 110 147 194 237 279 334
#     4  12  25  35  62  88 122 144 189 249 292 324
#     4   9  18  35  56  85 106 138 201 230 267 350
#     4  11  19  36  62  84 106 156 193 233 281 342
#
# _framework density 22.849768999999998
#
# number of rings (size 3 to 8) (size 9 to 14) (size 15 to 20)
#    1.000    0.667    5.000    2.000    0.000    1.333 
#    0.000    0.000    0.000    2.000    0.000    0.000 
#    0.000    0.000    0.000    0.000    0.000    0.000 
#
# Total GULP energy -133729.850856 kJ/mol
# GULP energy per Si atom -5572.077119 kJ/mol
# Density = 2.279776 g / cm^3
# Si number density = 22.849769 Si / 1000 Ang^3
#
#
#
# Elastic Constant Matrix: (Units=GPa)
#
#
# Indices 1 2 3 4 5 6 
#
# 1 124.6471 5.2812 10.3174 0.0000 11.0535 0.0000
# 2 5.2812 71.8484 18.6140 0.0000 -0.9414 0.0000
# 3 10.3174 18.6140 36.1125 -0.0002 15.1956 0.0000
# 4 0.0000 0.0000 -0.0002 31.2162 0.0000 -0.5021
# 5 11.0535 -0.9414 15.1956 0.0000 30.4986 0.0000
# 6 0.0000 0.0000 0.0000 -0.5021 0.0000 8.6686
#
#
#
# Elastic Compliance Matrix: (Units=1/GPa)
#
#
# Indices 1 2 3 4 5 6 
#
# 1 0.008352 -0.000340 -0.001180 0.000000 -0.002450 0.000000
# 2 -0.000340 0.016946 -0.011273 0.000000 0.006263 0.000000
# 3 -0.001180 -0.011273 0.042773 0.000000 -0.021231 0.000000
# 4 0.000000 0.000000 0.000000 0.032065 0.000000 0.001857
# 5 -0.002450 0.006263 -0.021231 0.000000 0.044448 0.000000
# 6 0.000000 0.000000 0.000000 0.001857 0.000000 0.115467
#
#
# Mechanical properties :
#
#
# Convention : Reuss Voigt Hill
#
# Bulk Modulus (GPa) = 23.53807 33.44813 28.49310
# Shear Modulus (GPa) = 16.67793 27.30303 21.99048
#
# Velocity S-wave (km/s) = 2.70459 3.46047 3.10561
# Velocity P-wave (km/s) = 4.48070 5.53503 5.03553
#
# Compressibility (1/GPa) = 0.04248437
#
# Stress axis : x y z
#
# Youngs Moduli (GPa) = 119.73234 59.01187 23.37935
#
# Poissons Ratio (x) = 0.02008 0.02759
# Poissons Ratio (y) = 0.04074 0.26355
# Poissons Ratio (z) = 0.14129 0.66523
#
# Static dielectric constant tensor:
#      x y z
#    x 1.861140 0.000000 -0.017570 
#    y 0.000000 1.909180 0.000000 
#    z -0.017570 0.000000 1.938610 
# 
# From -- ./inp_files/126928.got.cif
#   From: 2010.05.17/outbox.cif.g08.bks.cpg/sg15_64_cif.got.tgz:126928.got - 2010.06.03 18:47:42.
