data_PCOD9263099
_publ_section_title
;
Structure prediction by ZEFSAII (Michael W. Deem and Ramdas Pophale) SiO2 
 PCOD9263099
Probable space group: C 2/C
;
_chemical_formula_sum "Si O2"
_cell_formula_units_Z 48
_cell_length_a 13.918002
_cell_length_b 26.508513
_cell_length_c 8.224884
_cell_angle_alpha 90.000000
_cell_angle_beta 112.714198
_cell_angle_gamma 90.000000
_cell_volume 2799.183151
_symmetry_space_group_name_H-M "C 2/C"
_symmetry_group_IT_number 15
_symmetry_cell_setting 'monoclinic'
loop_
_space_group_symop_operation_xyz
x,y,z
-x,y,1/2-z
-x,-y,-z
x,-y,1/2+z
1/2+x,1/2+y,z
1/2-x,1/2+y,1/2-z
1/2-x,1/2-y,-z
1/2+x,1/2-y,1/2+z
loop_
_atom_site_type_symbol
_atom_site_label
_atom_site_fract_x
_atom_site_fract_y
_atom_site_fract_z
Si Si1 0.125174 0.187372 0.830796
Si Si2 0.488019 0.057023 0.051727
Si Si3 0.305977 0.868097 0.340370
Si Si4 0.123237 0.253730 0.138966
Si Si5 0.893799 0.363739 0.071136
Si Si6 0.625167 0.246393 0.013726
O O1 0.194401 0.137423 0.851656
O O2 0.155815 0.221113 0.691431
O O3 0.000000 0.180127 0.750000
O O4 0.156643 0.216550 0.016199
O O5 0.500000 0.057890 0.250000
O O6 0.380317 0.086562 0.943764
O O7 0.576583 0.090027 0.021396
O O8 0.500000 0.000000 0.000000
O O9 0.358458 0.812320 0.400495
O O10 0.303943 0.873246 0.143594
O O11 0.162755 0.243957 0.350673
O O12 0.999592 0.245543 0.071560
O O13 0.866222 0.313665 0.955508
O O14 0.000000 0.354563 0.250000
#
# Coordination Sequence:
#
# PCOD9263099 Si02
#       6
#     8   8   8   8   8   8
#     4  10  21  30  48  73 111 152 193 212 257 311
#     4  11  22  36  59  82 105 134 168 228 293 334
#     4  10  19  34  48  76 107 141 179 230 260 324
#     4   9  16  29  45  69 106 142 193 221 251 308
#     4   9  16  31  50  71 105 135 179 223 274 312
#     4   9  15  29  46  67 103 151 176 227 257 302
#
# _framework density 17.147859
#
# number of rings (size 3 to 8) (size 9 to 14) (size 15 to 20)
#    0.000    2.333    5.000    2.000    2.333    2.667 
#    3.000    0.000    0.000    0.000    0.000    4.667 
#    0.000    0.000    0.000    0.000    0.000    0.000 
#
# Total GULP energy -133657.595215 kJ/mol
# GULP energy per Si atom -5569.066467 kJ/mol
# Density = 1.710883 g / cm^3
# Si number density = 17.147859 Si / 1000 Ang^3
#
#
#
# Elastic Constant Matrix: (Units=GPa)
#
#
# Indices 1 2 3 4 5 6 
#
# 1 99.6219 48.0039 31.6113 0.0000 -24.4880 0.0000
# 2 48.0039 106.3951 45.2930 0.0000 -9.2760 0.0000
# 3 31.6113 45.2930 78.4310 0.0000 -11.5617 0.0000
# 4 0.0000 0.0000 0.0000 26.1066 0.0000 -6.0780
# 5 -24.4880 -9.2760 -11.5617 0.0000 26.8906 0.0000
# 6 0.0000 0.0000 0.0000 -6.0780 0.0000 23.9057
#
#
#
# Elastic Compliance Matrix: (Units=1/GPa)
#
#
# Indices 1 2 3 4 5 6 
#
# 1 0.016214 -0.005617 -0.001495 0.000000 0.012185 0.000000
# 2 -0.005617 0.014450 -0.006513 0.000000 -0.002930 0.000000
# 3 -0.001495 -0.006513 0.017704 0.000000 0.004004 0.000000
# 4 0.000000 0.000000 0.000000 0.040714 0.000000 0.010352
# 5 0.012185 -0.002930 0.004004 0.000000 0.048994 0.000000
# 6 0.000000 0.000000 0.000000 0.010352 0.000000 0.044463
#
#
# Mechanical properties :
#
#
# Convention : Reuss Voigt Hill
#
# Bulk Modulus (GPa) = 47.35191 59.36270 53.35730
# Shear Modulus (GPa) = 23.05958 26.01658 24.53808
#
# Velocity S-wave (km/s) = 3.67106 3.89934 3.78692
# Velocity P-wave (km/s) = 6.75594 7.41393 7.09257
#
# Compressibility (1/GPa) = 0.02111847
#
# Stress axis : x y z
#
# Youngs Moduli (GPa) = 61.67497 69.20299 56.48408
#
# Poissons Ratio (x) = 0.38869 0.08446
# Poissons Ratio (y) = 0.34641 0.36788
# Poissons Ratio (z) = 0.09222 0.45072
#
# Static dielectric constant tensor:
#      x y z
#    x 1.685710 0.000000 0.030930 
#    y 0.000000 1.504660 0.000000 
#    z 0.030930 0.000000 1.662590 
# 
# From -- ./inp_files/40944.got.cif
#   From: 2010.05.17/outbox.cif.g08.bks.cpg/sg15_21_cif.got.tgz:40944.got - 2010.06.03 18:47:42.
