data_PCOD9263445
_publ_section_title
;
Structure prediction by ZEFSAII (Michael W. Deem and Ramdas Pophale) SiO2 
 PCOD9263445
Probable space group: C 2/C
;
_chemical_formula_sum "Si O2"
_cell_formula_units_Z 56
_cell_length_a 31.229224
_cell_length_b 10.020940
_cell_length_c 9.994631
_cell_angle_alpha 90.000000
_cell_angle_beta 126.719884
_cell_angle_gamma 90.000000
_cell_volume 2507.130246
_symmetry_space_group_name_H-M "C 2/C"
_symmetry_group_IT_number 15
_symmetry_cell_setting 'monoclinic'
loop_
_space_group_symop_operation_xyz
x,y,z
-x,y,1/2-z
-x,-y,-z
x,-y,1/2+z
1/2+x,1/2+y,z
1/2-x,1/2+y,1/2-z
1/2-x,1/2-y,-z
1/2+x,1/2-y,1/2+z
loop_
_atom_site_type_symbol
_atom_site_label
_atom_site_fract_x
_atom_site_fract_y
_atom_site_fract_z
Si Si1 0.295888 0.641236 0.052198
Si Si2 0.081989 0.567115 0.132234
Si Si3 0.311689 0.348272 0.042483
Si Si4 0.119154 0.802128 0.563110
Si Si5 0.486287 0.819498 0.575064
Si Si6 0.705455 0.776293 0.719276
Si Si7 0.357135 0.994012 0.492422
O O1 0.282419 0.484942 0.030805
O O2 0.344967 0.655404 0.245444
O O3 0.250000 0.750000 0.000000
O O4 0.310515 0.677073 0.927783
O O5 0.101396 0.583931 0.016612
O O6 0.127542 0.529183 0.325772
O O7 0.043895 0.686217 0.112158
O O8 0.046577 0.432094 0.064696
O O9 0.324162 0.265346 0.199284
O O10 0.361268 0.374025 0.036375
O O11 0.267575 0.267654 0.874887
O O12 0.056170 0.799354 0.479952
O O13 0.135607 0.648687 0.562523
O O14 0.500000 0.869927 0.750000
O O15 0.695854 0.924276 0.640529
#
# Coordination Sequence:
#
# PCOD9263445 Si02
#       7
#     8   8   8   8   8   8   8
#     4  12  24  43  64  87 124 170 216 269 320 385
#     4  10  19  34  56  93 133 163 202 268 318 386
#     4  11  25  42  60  92 125 169 217 265 322 380
#     4  11  22  40  64  91 127 172 204 267 323 394
#     4  10  19  34  58  91 124 166 206 255 329 373
#     4  11  24  37  63  93 127 167 209 266 316 396
#     4  11  21  37  62  98 132 166 213 258 337 385
#
# _framework density 22.336295
#
# number of rings (size 3 to 8) (size 9 to 14) (size 15 to 20)
#    0.000    1.143    4.286    4.286    0.000    1.143 
#    0.000    0.000    0.000    0.857    0.000    0.000 
#    0.000    0.000    0.000    0.000    0.000    0.000 
#
# Total GULP energy -156186.805770 kJ/mol
# GULP energy per Si atom -5578.100206 kJ/mol
# Density = 2.228546 g / cm^3
# Si number density = 22.336295 Si / 1000 Ang^3
#
#
#
# Elastic Constant Matrix: (Units=GPa)
#
#
# Indices 1 2 3 4 5 6 
#
# 1 95.9529 8.3018 24.5676 0.0000 -12.7713 0.0000
# 2 8.3018 67.1357 20.2083 0.0000 -3.6562 0.0000
# 3 24.5676 20.2083 136.6964 0.0000 -12.8763 0.0000
# 4 0.0000 0.0000 0.0000 20.4871 0.0000 2.8881
# 5 -12.7713 -3.6562 -12.8763 0.0000 25.3079 0.0000
# 6 0.0000 0.0000 0.0000 2.8881 0.0000 30.0673
#
#
#
# Elastic Compliance Matrix: (Units=1/GPa)
#
#
# Indices 1 2 3 4 5 6 
#
# 1 0.011526 -0.000704 -0.001501 0.000000 0.004951 0.000000
# 2 -0.000704 0.015663 -0.002110 0.000000 0.000834 0.000000
# 3 -0.001501 -0.002110 0.008190 0.000000 0.003104 0.000000
# 4 0.000000 0.000000 0.000000 0.049481 0.000000 -0.004753
# 5 0.004951 0.000834 0.003104 0.000000 0.043712 0.000000
# 6 0.000000 0.000000 0.000000 -0.004753 0.000000 0.033715
#
#
# Mechanical properties :
#
#
# Convention : Reuss Voigt Hill
#
# Bulk Modulus (GPa) = 37.38612 45.10447 41.24529
# Shear Modulus (GPa) = 27.80349 31.61961 29.71155
#
# Velocity S-wave (km/s) = 3.53195 3.76655 3.65114
# Velocity P-wave (km/s) = 5.77989 6.25724 6.02329
#
# Compressibility (1/GPa) = 0.02674790
#
# Stress axis : x y z
#
# Youngs Moduli (GPa) = 86.76053 63.84510 122.10481
#
# Poissons Ratio (x) = 0.04493 0.18329
# Poissons Ratio (y) = 0.06106 0.25770
# Poissons Ratio (z) = 0.13023 0.13474
#
# Static dielectric constant tensor:
#      x y z
#    x 1.989460 0.000000 0.018140 
#    y 0.000000 1.841600 0.000000 
#    z 0.018140 0.000000 1.812340 
# 
# From -- ./inp_files/69445.got.cif
#   From: 2010.05.17/outbox.cif.g08.bks.cpg/sg15_35_cif.got.tgz:69445.got - 2010.06.03 18:47:42.
