data_PCOD9263025
_publ_section_title
;
Structure prediction by ZEFSAII (Michael W. Deem and Ramdas Pophale) SiO2 
 PCOD9263025
Probable space group: C 2/C
;
_chemical_formula_sum "Si O2"
_cell_formula_units_Z 60
_cell_length_a 25.669854
_cell_length_b 19.259876
_cell_length_c 11.252510
_cell_angle_alpha 90.000000
_cell_angle_beta 151.376740
_cell_angle_gamma 90.000000
_cell_volume 2665.051149
_symmetry_space_group_name_H-M "C 2/C"
_symmetry_group_IT_number 15
_symmetry_cell_setting 'monoclinic'
loop_
_space_group_symop_operation_xyz
x,y,z
-x,y,1/2-z
-x,-y,-z
x,-y,1/2+z
1/2+x,1/2+y,z
1/2-x,1/2+y,1/2-z
1/2-x,1/2-y,-z
1/2+x,1/2-y,1/2+z
loop_
_atom_site_type_symbol
_atom_site_label
_atom_site_fract_x
_atom_site_fract_y
_atom_site_fract_z
Si Si1 0.641566 0.635010 0.727968
Si Si2 0.024206 0.580059 0.019568
Si Si3 0.849763 0.332514 0.531917
Si Si4 0.268405 0.053645 0.183418
Si Si5 0.914397 0.140378 0.357470
Si Si6 0.000000 0.215365 0.750000
Si Si7 0.395958 0.511747 0.456602
Si Si8 0.193853 0.606495 0.814466
O O1 0.730760 0.682895 0.845285
O O2 0.521165 0.664270 0.501789
O O3 0.630997 0.567188 0.624403
O O4 0.691277 0.603814 0.950084
O O5 0.094605 0.612730 0.267897
O O6 0.107734 0.581560 0.076209
O O7 0.000000 0.500000 0.000000
O O8 0.905257 0.614108 0.790718
O O9 0.922131 0.264546 0.670011
O O10 0.844188 0.365463 0.389696
O O11 0.275833 0.975361 0.142359
O O12 0.210491 0.043990 0.193366
O O13 0.927148 0.171744 0.513960
O O14 0.923934 0.057523 0.398011
O O15 0.799428 0.149270 0.065723
O O16 0.500000 0.515401 0.750000
#
# Coordination Sequence:
#
# PCOD9263025 Si02
#       8
#     8   8   8   8   8   4   8   8
#     4  11  22  38  62 100 126 170 212 278 345 398
#     4   9  20  37  61  94 129 162 215 267 332 393
#     4  11  23  41  67  88 129 175 223 264 329 403
#     4  10  19  33  59  95 132 162 203 262 337 406
#     4  12  25  39  64  96 131 172 225 276 330 393
#     4  12  26  48  64  92 128 194 232 270 328 398
#     4  12  20  35  61  96 140 166 206 275 351 395
#     4  11  20  38  62  95 124 169 215 268 330 390
#
# _framework density 22.513638
#
# number of rings (size 3 to 8) (size 9 to 14) (size 15 to 20)
#    0.000    1.067    6.000    1.200    0.000    1.067 
#    0.000    0.667    0.000    0.000    0.000    0.000 
#    0.000    0.000    0.000    0.000    0.000    0.000 
#
# Total GULP energy -167702.378673 kJ/mol
# GULP energy per Si atom -5590.079289 kJ/mol
# Density = 2.246240 g / cm^3
# Si number density = 22.513638 Si / 1000 Ang^3
#
#
#
# Elastic Constant Matrix: (Units=GPa)
#
#
# Indices 1 2 3 4 5 6 
#
# 1 98.4438 13.0276 33.4906 0.0000 45.0812 0.0000
# 2 13.0276 40.1424 23.8565 0.0000 0.9886 0.0000
# 3 33.4906 23.8565 99.4640 0.0000 33.6509 0.0000
# 4 0.0000 0.0000 0.0000 11.4515 0.0000 -4.3985
# 5 45.0812 0.9886 33.6509 0.0000 43.5810 0.0000
# 6 0.0000 0.0000 0.0000 -4.3985 0.0000 12.5503
#
#
#
# Elastic Compliance Matrix: (Units=1/GPa)
#
#
# Indices 1 2 3 4 5 6 
#
# 1 0.021234 -0.008025 0.002903 0.000000 -0.024025 0.000000
# 2 -0.008025 0.033463 -0.010661 0.000000 0.015774 0.000000
# 3 0.002903 -0.010661 0.017012 0.000000 -0.015897 0.000000
# 4 0.000000 0.000000 0.000000 0.100908 0.000000 0.035366
# 5 -0.024025 0.015774 -0.015897 0.000000 0.059714 0.000000
# 6 0.000000 0.000000 0.000000 0.035366 0.000000 0.092074
#
#
# Mechanical properties :
#
#
# Convention : Reuss Voigt Hill
#
# Bulk Modulus (GPa) = 24.91040 42.08885 33.49963
# Shear Modulus (GPa) = 13.53723 24.69492 19.11608
#
# Velocity S-wave (km/s) = 2.45478 3.31552 2.91707
# Velocity P-wave (km/s) = 4.37301 5.77861 5.12423
#
# Compressibility (1/GPa) = 0.04014387
#
# Stress axis : x y z
#
# Youngs Moduli (GPa) = 47.09348 29.88391 58.78370
#
# Poissons Ratio (x) = 0.23982 -0.17066
# Poissons Ratio (y) = 0.37792 0.62667
# Poissons Ratio (z) = -0.13672 0.31858
#
# Static dielectric constant tensor:
#      x y z
#    x 1.877300 0.000000 0.032180 
#    y 0.000000 1.798080 0.000000 
#    z 0.032180 0.000000 1.859210 
# 
# From -- ./inp_files/124017.got.cif
#   From: 2010.05.17/outbox.cif.g08.bks.cpg/sg15_63_cif.got.tgz:124017.got - 2010.06.03 18:47:42.
