data_PCOD9263864
_publ_section_title
;
Structure prediction by ZEFSAII (Michael W. Deem and Ramdas Pophale) SiO2 
 PCOD9263864
Probable space group: C 2/C
;
_chemical_formula_sum "Si O2"
_cell_formula_units_Z 56
_cell_length_a 13.110348
_cell_length_b 28.314670
_cell_length_c 9.241367
_cell_angle_alpha 90.000000
_cell_angle_beta 53.237572
_cell_angle_gamma 90.000000
_cell_volume 2748.284513
_symmetry_space_group_name_H-M "C 2/C"
_symmetry_group_IT_number 15
_symmetry_cell_setting 'monoclinic'
loop_
_space_group_symop_operation_xyz
x,y,z
-x,y,1/2-z
-x,-y,-z
x,-y,1/2+z
1/2+x,1/2+y,z
1/2-x,1/2+y,1/2-z
1/2-x,1/2-y,-z
1/2+x,1/2-y,1/2+z
loop_
_atom_site_type_symbol
_atom_site_label
_atom_site_fract_x
_atom_site_fract_y
_atom_site_fract_z
Si Si1 0.795141 0.877895 0.204385
Si Si2 0.956647 0.216473 0.615750
Si Si3 0.294782 0.042498 0.254427
Si Si4 0.651317 0.944884 0.125899
Si Si5 0.361812 0.871696 0.867085
Si Si6 0.239443 0.219125 0.360311
Si Si7 0.483965 0.452177 0.429191
O O1 0.869363 0.828052 0.143368
O O2 0.718023 0.897921 0.132210
O O3 0.698722 0.880326 0.423392
O O4 0.909622 0.914755 0.124832
O O5 0.860602 0.260043 0.672794
O O6 0.000000 0.210355 0.750000
O O7 0.095237 0.223262 0.424802
O O8 0.384506 0.080624 0.255858
O O9 0.158333 0.063052 0.416922
O O10 0.315472 0.990122 0.300744
O O11 0.305751 0.042875 0.073097
O O12 0.500000 0.938963 0.250000
O O13 0.500000 0.847114 0.750000
O O14 0.266497 0.835193 0.872061
O O15 0.250000 0.250000 0.500000
O O16 0.500000 0.463864 0.250000
O O17 0.500000 0.500000 0.500000
#
# Coordination Sequence:
#
# PCOD9263864 Si02
#       7
#     8   8   8   8   8   8   8
#     4  12  23  39  64  92 133 171 220 273 334 390
#     4  10  19  36  60 101 134 172 211 279 333 394
#     4  12  24  42  64  90 127 171 223 270 334 397
#     4  12  26  45  62  92 130 176 219 278 329 399
#     4  12  22  37  63  98 129 175 217 275 333 399
#     4  10  19  34  61  98 139 163 216 271 336 388
#     4  12  23  39  61  90 124 162 211 267 326 386
#
# _framework density 20.376346999999999
#
# number of rings (size 3 to 8) (size 9 to 14) (size 15 to 20)
#    0.000    0.571    5.714    6.000    0.000    0.000 
#    0.000    0.000    0.000    0.857    0.000    0.000 
#    0.000    0.000    0.000    0.000    0.000    0.000 
#
# Total GULP energy -156286.947979 kJ/mol
# GULP energy per Si atom -5581.676714 kJ/mol
# Density = 2.032997 g / cm^3
# Si number density = 20.376347 Si / 1000 Ang^3
#
#
#
# Elastic Constant Matrix: (Units=GPa)
#
#
# Indices 1 2 3 4 5 6 
#
# 1 114.9510 33.9758 63.9442 0.0000 -21.2471 0.0000
# 2 33.9758 87.5156 16.8987 0.0000 2.4358 0.0000
# 3 63.9442 16.8987 101.4440 0.0000 -6.1189 0.0000
# 4 0.0000 0.0000 0.0000 21.1397 0.0000 -9.6212
# 5 -21.2471 2.4358 -6.1189 0.0000 38.5015 0.0000
# 6 0.0000 0.0000 0.0000 -9.6212 0.0000 40.5781
#
#
#
# Elastic Compliance Matrix: (Units=1/GPa)
#
#
# Indices 1 2 3 4 5 6 
#
# 1 0.016844 -0.004970 -0.009299 0.000000 0.008132 0.000000
# 2 -0.004970 0.013317 0.000705 0.000000 -0.003473 0.000000
# 3 -0.009299 0.000705 0.015438 0.000000 -0.002723 0.000000
# 4 0.000000 0.000000 0.000000 0.053027 0.000000 0.012573
# 5 0.008132 -0.003473 -0.002723 0.000000 0.030248 0.000000
# 6 0.000000 0.000000 0.000000 0.012573 0.000000 0.027625
#
#
# Mechanical properties :
#
#
# Convention : Reuss Voigt Hill
#
# Bulk Modulus (GPa) = 54.14177 59.28311 56.71244
# Shear Modulus (GPa) = 26.34587 32.64999 29.49793
#
# Velocity S-wave (km/s) = 3.59968 4.00728 3.80893
# Velocity P-wave (km/s) = 6.62612 7.11114 6.87291
#
# Compressibility (1/GPa) = 0.01847003
#
# Stress axis : x y z
#
# Youngs Moduli (GPa) = 59.36692 75.09431 64.77674
#
# Poissons Ratio (x) = 0.37323 0.60237
# Poissons Ratio (y) = 0.29506 -0.04567
# Poissons Ratio (z) = 0.55207 -0.05295
#
# Static dielectric constant tensor:
#      x y z
#    x 1.745500 0.000000 -0.018950 
#    y 0.000000 1.784180 0.000000 
#    z -0.018950 0.000000 1.656400 
# 
# From -- ./inp_files/35551.got.cif
#   From: 2010.05.17/outbox.cif.g08.bks.cpg/sg15_18_cif.got.tgz:35551.got - 2010.06.03 18:47:42.
