data_PCOD9263558
_publ_section_title
;
Structure prediction by ZEFSAII (Michael W. Deem and Ramdas Pophale) SiO2 
 PCOD9263558
Probable space group: C 2/C
;
_chemical_formula_sum "Si O2"
_cell_formula_units_Z 36
_cell_length_a 8.290254
_cell_length_b 24.671129
_cell_length_c 8.488460
_cell_angle_alpha 90.000000
_cell_angle_beta 65.395343
_cell_angle_gamma 90.000000
_cell_volume 1578.506153
_symmetry_space_group_name_H-M "C 2/C"
_symmetry_group_IT_number 15
_symmetry_cell_setting 'monoclinic'
loop_
_space_group_symop_operation_xyz
x,y,z
-x,y,1/2-z
-x,-y,-z
x,-y,1/2+z
1/2+x,1/2+y,z
1/2-x,1/2+y,1/2-z
1/2-x,1/2-y,-z
1/2+x,1/2-y,1/2+z
loop_
_atom_site_type_symbol
_atom_site_label
_atom_site_fract_x
_atom_site_fract_y
_atom_site_fract_z
Si Si1 0.741800 0.819340 0.586617
Si Si2 0.000000 0.221583 0.750000
Si Si3 0.706374 0.443161 0.439581
Si Si4 0.500000 0.974934 0.750000
Si Si5 0.000000 0.979415 0.250000
Si Si6 0.575106 0.879195 0.932206
O O1 0.667990 0.762923 0.691745
O O2 0.716595 0.861165 0.740073
O O3 0.591325 0.838269 0.519092
O O4 0.931561 0.812552 0.427477
O O5 0.556267 0.439667 0.369167
O O6 0.632872 0.477338 0.616061
O O7 0.816956 0.391425 0.453751
O O8 0.837144 0.485441 0.305421
O O9 0.495317 0.935975 0.903165
#
# Coordination Sequence:
#
# PCOD9263558 Si02
#       6
#     8   4   8   4   4   8
#     4   8  16  29  53  92 123 172 182 252 298 373
#     4   8  13  30  55  84 142 154 196 224 324 378
#     4  11  20  39  53  78 112 161 218 250 305 343
#     4  10  19  34  58  74 108 178 198 248 293 358
#     4  10  24  34  57  78 104 164 216 268 297 342
#     4   9  18  31  51  79 120 163 207 243 299 353
#
# _framework density 22.806374000000002
#
# number of rings (size 3 to 8) (size 9 to 14) (size 15 to 20)
#    0.000    3.111    2.222    0.667    0.000    0.000 
#    0.000    6.667    0.000    0.000    0.000    0.000 
#    0.000  113.778    0.000    0.000    0.000    0.889 
#
# Total GULP energy -100217.462323 kJ/mol
# GULP energy per Si atom -5567.636796 kJ/mol
# Density = 2.275447 g / cm^3
# Si number density = 22.806374 Si / 1000 Ang^3
#
#
#
# Elastic Constant Matrix: (Units=GPa)
#
#
# Indices 1 2 3 4 5 6 
#
# 1 63.1421 21.2872 32.9486 0.0000 19.5721 0.0000
# 2 21.2872 77.9923 30.5324 0.0000 -1.4087 0.0000
# 3 32.9486 30.5324 107.2843 0.0000 -16.8526 0.0000
# 4 0.0000 0.0000 0.0000 19.4625 0.0000 -2.7333
# 5 19.5721 -1.4087 -16.8526 0.0000 37.8113 0.0000
# 6 0.0000 0.0000 0.0000 -2.7333 0.0000 9.6760
#
#
#
# Elastic Compliance Matrix: (Units=1/GPa)
#
#
# Indices 1 2 3 4 5 6 
#
# 1 0.029163 -0.004028 -0.010973 0.000000 -0.020136 0.000000
# 2 -0.004028 0.015054 -0.002830 0.000000 0.001384 0.000000
# 3 -0.010973 -0.002830 0.015454 0.000000 0.012462 0.000000
# 4 0.000000 0.000000 0.000000 0.053503 0.000000 0.015114
# 5 -0.020136 0.001384 0.012462 0.000000 0.042476 0.000000
# 6 0.000000 0.000000 0.000000 0.015114 0.000000 0.107617
#
#
# Mechanical properties :
#
#
# Convention : Reuss Voigt Hill
#
# Bulk Modulus (GPa) = 41.65020 46.43946 44.04483
# Shear Modulus (GPa) = 16.29025 24.30001 20.29513
#
# Velocity S-wave (km/s) = 2.67551 3.26773 2.98634
# Velocity P-wave (km/s) = 5.27699 5.88592 5.58976
#
# Compressibility (1/GPa) = 0.02400949
#
# Stress axis : x y z
#
# Youngs Moduli (GPa) = 34.29042 66.42797 64.70800
#
# Poissons Ratio (x) = 0.26754 0.71005
# Poissons Ratio (y) = 0.13811 0.18311
# Poissons Ratio (z) = 0.37627 0.18798
#
# Static dielectric constant tensor:
#      x y z
#    x 1.677760 0.000000 0.224250 
#    y 0.000000 1.943610 0.000000 
#    z 0.224250 0.000000 1.741930 
# 
# From -- ./inp_files/24351.got.cif
#   From: 2010.05.17/outbox.cif.g08.bks.cpg/sg15_13_cif.got.tgz:24351.got - 2010.06.03 18:47:42.
