data_PCOD9263995
_publ_section_title
;
Structure prediction by ZEFSAII (Michael W. Deem and Ramdas Pophale) SiO2 
 PCOD9263995
Probable space group: C 2/C
;
_chemical_formula_sum "Si O2"
_cell_formula_units_Z 52
_cell_length_a 10.253965
_cell_length_b 26.377732
_cell_length_c 9.640933
_cell_angle_alpha 90.000000
_cell_angle_beta 77.057163
_cell_angle_gamma 90.000000
_cell_volume 2541.394493
_symmetry_space_group_name_H-M "C 2/C"
_symmetry_group_IT_number 15
_symmetry_cell_setting 'monoclinic'
loop_
_space_group_symop_operation_xyz
x,y,z
-x,y,1/2-z
-x,-y,-z
x,-y,1/2+z
1/2+x,1/2+y,z
1/2-x,1/2+y,1/2-z
1/2-x,1/2-y,-z
1/2+x,1/2-y,1/2+z
loop_
_atom_site_type_symbol
_atom_site_label
_atom_site_fract_x
_atom_site_fract_y
_atom_site_fract_z
Si Si1 0.353216 0.513997 0.475920
Si Si2 0.662897 0.565050 0.736083
Si Si3 0.140543 0.715132 0.297603
Si Si4 0.592488 0.322140 0.910676
Si Si5 0.499800 0.212082 0.905841
Si Si6 0.287414 0.321258 0.326689
Si Si7 0.000000 0.912045 0.750000
O O1 0.500000 0.500000 0.500000
O O2 0.293539 0.538118 0.630123
O O3 0.288994 0.465830 0.412609
O O4 0.384061 0.552979 0.342445
O O5 0.500000 0.565634 0.750000
O O6 0.712097 0.622642 0.732518
O O7 0.264497 0.687837 0.195969
O O8 0.177282 0.774922 0.282542
O O9 0.000000 0.708952 0.250000
O O10 0.114631 0.697220 0.460423
O O11 0.502200 0.273267 0.899026
O O12 0.540530 0.374793 0.864636
O O13 0.609756 0.322361 0.070783
O O14 0.500000 0.192013 0.750000
O O15 0.644555 0.194635 0.925748
#
# Coordination Sequence:
#
# PCOD9263995 Si02
#       7
#     8   8   8   8   8   8   4
#     4  10  19  35  52  79 120 144 179 246 293 350
#     4  10  20  33  55  82 114 147 184 234 299 349
#     4  11  20  38  58  79 118 161 198 232 280 345
#     4  11  22  35  57  87 116 158 194 237 283 348
#     4  11  23  39  54  83 123 150 197 248 272 342
#     4  11  22  35  61  83 111 163 199 230 296 344
#     4  12  22  34  56  88 122 146 192 232 298 352
#
# _framework density 20.461207999999999
#
# number of rings (size 3 to 8) (size 9 to 14) (size 15 to 20)
#    0.000    1.231    6.154    3.231    2.154    3.692 
#    0.000    0.000    0.000    0.000    0.000    5.385 
#    0.000    0.000    0.000    0.000    0.000    0.000 
#
# Total GULP energy -145087.617027 kJ/mol
# GULP energy per Si atom -5580.292963 kJ/mol
# Density = 2.041464 g / cm^3
# Si number density = 20.461208 Si / 1000 Ang^3
#
#
#
# Elastic Constant Matrix: (Units=GPa)
#
#
# Indices 1 2 3 4 5 6 
#
# 1 10.4743 -8.2244 -9.4021 0.0000 -11.1407 0.0000
# 2 -8.2244 60.2465 2.9467 0.0000 4.3264 0.0000
# 3 -9.4021 2.9467 100.3106 0.0000 -2.0538 0.0000
# 4 0.0000 0.0000 0.0000 20.8021 0.0000 12.9274
# 5 -11.1407 4.3264 -2.0538 0.0000 29.1332 0.0000
# 6 0.0000 0.0000 0.0000 12.9274 0.0000 0.9750
#
#
#
# Elastic Compliance Matrix: (Units=1/GPa)
#
#
# Indices 1 2 3 4 5 6 
#
# 1 0.221063 0.023181 0.021731 0.000000 0.082625 0.000000
# 2 0.023181 0.019238 0.001733 0.000000 0.006130 0.000000
# 3 0.021731 0.001733 0.012137 0.000000 0.008908 0.000000
# 4 0.000000 0.000000 0.000000 -0.006640 0.000000 0.088040
# 5 0.082625 0.006130 0.008908 0.000000 0.065639 0.000000
# 6 0.000000 0.000000 0.000000 0.088040 0.000000 -0.141670
#
#
# Mechanical properties :
#
#
# Convention : Reuss Voigt Hill
#
# Bulk Modulus (GPa) = 2.89244 15.74132 9.31688
# Shear Modulus (GPa) = 26.07980 22.56279 24.32129
#
# Velocity S-wave (km/s) = 3.57402 3.32431 3.45143
# Velocity P-wave (km/s) = 4.29514 4.73758 4.52177
#
# Compressibility (1/GPa) = 0.34572931
#
# Stress axis : x y z
#
# Youngs Moduli (GPa) = 4.52360 51.98038 82.39020
#
# Poissons Ratio (x) = -1.20498 -1.79042
# Poissons Ratio (y) = -0.10486 -0.14280
# Poissons Ratio (z) = -0.09830 -0.09009
#
# Static dielectric constant tensor:
#      x y z
#    x 1.774570 0.000000 0.021940 
#    y 0.000000 1.732080 0.000000 
#    z 0.021940 0.000000 1.812270 
# 
# From -- ./inp_files/33563.got.cif
#   From: 2010.05.17/outbox.cif.g08.bks.cpg/sg15_17_cif.got.tgz:33563.got - 2010.06.03 18:47:42.
