data_PCOD9263868
_publ_section_title
;
Structure prediction by ZEFSAII (Michael W. Deem and Ramdas Pophale) SiO2 
 PCOD9263868
Probable space group: C 2/C
;
_chemical_formula_sum "Si O2"
_cell_formula_units_Z 60
_cell_length_a 16.364496
_cell_length_b 15.414754
_cell_length_c 13.613136
_cell_angle_alpha 90.000000
_cell_angle_beta 43.925069
_cell_angle_gamma 90.000000
_cell_volume 2382.208509
_symmetry_space_group_name_H-M "C 2/C"
_symmetry_group_IT_number 15
_symmetry_cell_setting 'monoclinic'
loop_
_space_group_symop_operation_xyz
x,y,z
-x,y,1/2-z
-x,-y,-z
x,-y,1/2+z
1/2+x,1/2+y,z
1/2-x,1/2+y,1/2-z
1/2-x,1/2-y,-z
1/2+x,1/2-y,1/2+z
loop_
_atom_site_type_symbol
_atom_site_label
_atom_site_fract_x
_atom_site_fract_y
_atom_site_fract_z
Si Si1 0.066054 0.168743 0.541321
Si Si2 0.641502 0.573920 0.041581
Si Si3 0.048785 0.648020 0.391624
Si Si4 0.684618 0.090396 0.867541
Si Si5 0.216012 0.774586 0.741923
Si Si6 0.750000 0.750000 0.000000
Si Si7 0.203595 0.419251 0.584017
Si Si8 0.912480 0.997361 0.194557
O O1 0.014783 0.264615 0.592294
O O2 0.122098 0.167895 0.383217
O O3 0.182386 0.143494 0.501780
O O4 0.965888 0.100199 0.655854
O O5 0.535161 0.546289 0.062033
O O6 0.823883 0.764230 0.834226
O O7 0.756118 0.516029 0.922001
O O8 0.614814 0.540438 0.175762
O O9 0.954505 0.593128 0.536530
O O10 0.158372 0.677356 0.364125
O O11 0.104473 0.605653 0.247090
O O12 0.727503 0.183096 0.788545
O O13 0.783634 0.018091 0.758366
O O14 0.674907 0.086625 0.994533
O O15 0.827091 0.826517 0.988079
#
# Coordination Sequence:
#
# PCOD9263868 Si02
#       8
#     8   8   8   8   8   4   8   8
#     4   9  18  36  64 106 149 178 215 287 367 451
#     4   9  21  42  71 100 131 182 245 298 356 422
#     4  10  19  34  62 106 148 184 213 277 384 450
#     4  10  19  35  62 103 147 178 216 285 361 444
#     4  10  23  41  62 101 140 190 249 286 349 430
#     4  12  26  52  72  84 130 200 264 316 338 402
#     4   9  19  35  62 104 147 174 217 287 370 449
#     4   9  17  41  67 105 140 166 226 298 361 431
#
# _framework density 25.186712
#
# number of rings (size 3 to 8) (size 9 to 14) (size 15 to 20)
#    0.000    2.400    1.333    1.200    0.000    5.867 
#   21.600    9.333   11.733    6.400    0.000    0.000 
#    0.000    0.000    0.000    0.000    0.000    0.000 
#
# Total GULP energy -167104.984523 kJ/mol
# GULP energy per Si atom -5570.166151 kJ/mol
# Density = 2.512939 g / cm^3
# Si number density = 25.186712 Si / 1000 Ang^3
#
#
#
# Elastic Constant Matrix: (Units=GPa)
#
#
# Indices 1 2 3 4 5 6 
#
# 1 39.0059 42.6099 22.8075 0.0000 -13.2740 0.0000
# 2 42.6099 101.8109 20.8673 0.0000 -22.5077 0.0000
# 3 22.8075 20.8673 127.3742 0.0000 -20.4631 0.0000
# 4 0.0000 0.0000 0.0000 13.1197 0.0000 -7.0640
# 5 -13.2740 -22.5077 -20.4631 0.0000 42.3170 0.0000
# 6 0.0000 0.0000 0.0000 -7.0640 0.0000 31.7405
#
#
#
# Elastic Compliance Matrix: (Units=1/GPa)
#
#
# Indices 1 2 3 4 5 6 
#
# 1 0.051426 -0.019738 -0.005497 0.000000 0.002975 0.000000
# 2 -0.019738 0.018813 0.001155 0.000000 0.004373 0.000000
# 3 -0.005497 0.001155 0.009181 0.000000 0.003330 0.000000
# 4 0.000000 0.000000 0.000000 0.086598 0.000000 0.019273
# 5 0.002975 0.004373 0.003330 0.000000 0.028500 0.000000
# 6 0.000000 0.000000 0.000000 0.019273 0.000000 0.035795
#
#
# Mechanical properties :
#
#
# Convention : Reuss Voigt Hill
#
# Bulk Modulus (GPa) = 31.99062 48.97338 40.48200
# Shear Modulus (GPa) = 17.30741 29.56252 23.43496
#
# Velocity S-wave (km/s) = 2.62423 3.42970 3.05364
# Velocity P-wave (km/s) = 4.68092 5.93044 5.34234
#
# Compressibility (1/GPa) = 0.03125917
#
# Stress axis : x y z
#
# Youngs Moduli (GPa) = 19.44552 53.15416 108.92270
#
# Poissons Ratio (x) = 1.04918 0.59871
# Poissons Ratio (y) = 0.38382 -0.12579
# Poissons Ratio (z) = 0.10689 -0.06138
#
# Static dielectric constant tensor:
#      x y z
#    x 2.012400 0.000000 -0.017870 
#    y 0.000000 1.978530 0.000000 
#    z -0.017870 0.000000 2.026650 
# 
# From -- ./inp_files/168872.got.cif
#   From: 2010.05.17/outbox.cif.g08.bks.cpg/sg15_85_cif.got.tgz:168872.got - 2010.06.03 18:47:42.
