data_PCOD9263437
_publ_section_title
;
Structure prediction by ZEFSAII (Michael W. Deem and Ramdas Pophale) SiO2 
 PCOD9263437
Probable space group: C 2/C
;
_chemical_formula_sum "Si O2"
_cell_formula_units_Z 60
_cell_length_a 15.514699
_cell_length_b 9.366429
_cell_length_c 22.155087
_cell_angle_alpha 90.000000
_cell_angle_beta 115.122072
_cell_angle_gamma 90.000000
_cell_volume 2914.968731
_symmetry_space_group_name_H-M "C 2/C"
_symmetry_group_IT_number 15
_symmetry_cell_setting 'monoclinic'
loop_
_space_group_symop_operation_xyz
x,y,z
-x,y,1/2-z
-x,-y,-z
x,-y,1/2+z
1/2+x,1/2+y,z
1/2-x,1/2+y,1/2-z
1/2-x,1/2-y,-z
1/2+x,1/2-y,1/2+z
loop_
_atom_site_type_symbol
_atom_site_label
_atom_site_fract_x
_atom_site_fract_y
_atom_site_fract_z
Si Si1 0.286278 0.332754 0.570119
Si Si2 0.280744 0.096760 0.990699
Si Si3 0.912711 0.677089 0.422852
Si Si4 0.500000 0.880087 0.250000
Si Si5 0.436159 0.859388 0.433383
Si Si6 0.841717 0.557643 0.629476
Si Si7 0.647090 0.286161 0.708543
Si Si8 0.184600 0.103747 0.684101
O O1 0.250000 0.250000 0.500000
O O2 0.304532 0.494454 0.557609
O O3 0.197138 0.338980 0.589119
O O4 0.361211 0.225791 0.620243
O O5 0.322494 0.021634 0.062170
O O6 0.250000 0.250000 0.000000
O O7 0.358514 0.115597 0.962318
O O8 0.950802 0.521688 0.412732
O O9 0.902490 0.803783 0.370886
O O10 0.973296 0.702340 0.502664
O O11 0.564306 0.985258 0.308907
O O12 0.428216 0.781943 0.267171
O O13 0.392460 0.761812 0.368644
O O14 0.751175 0.552230 0.647173
O O15 0.747387 0.208215 0.755754
O O16 0.657263 0.458086 0.710865
#
# Coordination Sequence:
#
# PCOD9263437 Si02
#       8
#     8   8   8   4   8   8   8   8
#     4   8  16  30  54  76 107 152 183 225 277 355
#     4  10  19  34  56  88 122 147 192 242 301 352
#     4   9  19  35  56  89 116 149 197 240 299 355
#     4  10  24  38  60  88 118 158 210 250 290 370
#     4  10  21  34  60  90 123 155 191 253 301 357
#     4   9  19  38  59  83 112 156 201 234 297 361
#     4  11  23  40  64  86 120 162 207 251 302 361
#     4  10  21  41  63  83 117 164 206 244 296 379
#
# _framework density 20.583411000000002
#
# number of rings (size 3 to 8) (size 9 to 14) (size 15 to 20)
#    0.000    2.400    0.000    1.600    7.467    1.600 
#    2.400    0.000    0.000    1.600    0.000    0.000 
#    0.000    0.000    0.000    0.000    0.000    0.000 
#
# Total GULP energy -167116.838929 kJ/mol
# GULP energy per Si atom -5570.561298 kJ/mol
# Density = 2.053656 g / cm^3
# Si number density = 20.583411 Si / 1000 Ang^3
#
#
#
# Elastic Constant Matrix: (Units=GPa)
#
#
# Indices 1 2 3 4 5 6 
#
# 1 25.1084 8.4465 7.9635 0.0000 -1.0477 0.0000
# 2 8.4465 109.7461 32.2852 0.0000 8.3978 0.0000
# 3 7.9635 32.2852 109.4749 0.0000 21.5140 0.0000
# 4 0.0000 0.0000 0.0000 34.1479 0.0000 -4.4666
# 5 -1.0477 8.3978 21.5140 0.0000 26.5759 0.0000
# 6 0.0000 0.0000 0.0000 -4.4666 0.0000 13.9697
#
#
#
# Elastic Compliance Matrix: (Units=1/GPa)
#
#
# Indices 1 2 3 4 5 6 
#
# 1 0.041978 -0.002660 -0.003282 0.000000 0.005152 0.000000
# 2 -0.002660 0.010165 -0.002560 0.000000 -0.001245 0.000000
# 3 -0.003282 -0.002560 0.011885 0.000000 -0.008942 0.000000
# 4 0.000000 0.000000 0.000000 0.030563 0.000000 0.009772
# 5 0.005152 -0.001245 -0.008942 0.000000 0.045463 0.000000
# 6 0.000000 0.000000 0.000000 0.009772 0.000000 0.074708
#
#
# Mechanical properties :
#
#
# Convention : Reuss Voigt Hill
#
# Bulk Modulus (GPa) = 21.26470 37.96886 29.61678
# Shear Modulus (GPa) = 20.20695 27.98097 24.09396
#
# Velocity S-wave (km/s) = 3.13662 3.69100 3.42505
# Velocity P-wave (km/s) = 4.84472 6.05401 5.48280
#
# Compressibility (1/GPa) = 0.04702629
#
# Stress axis : x y z
#
# Youngs Moduli (GPa) = 23.82208 98.37796 84.13681
#
# Poissons Ratio (x) = 0.26164 0.27611
# Poissons Ratio (y) = 0.06336 0.21536
# Poissons Ratio (z) = 0.07818 0.25181
#
# Static dielectric constant tensor:
#      x y z
#    x 1.722430 0.000000 -0.016980 
#    y 0.000000 1.780060 0.000000 
#    z -0.016980 0.000000 1.852200 
# 
# From -- ./inp_files/276593.got.cif
#   From: 2010.05.17/outbox.cif.g08.bks.cpg/sg15_139_cif.got.tgz:276593.got - 2010.06.03 18:47:42.
