data_PCOD9263604
_publ_section_title
;
Structure prediction by ZEFSAII (Michael W. Deem and Ramdas Pophale) SiO2 
 PCOD9263604
Probable space group: C 2/C
;
_chemical_formula_sum "Si O2"
_cell_formula_units_Z 44
_cell_length_a 20.208396
_cell_length_b 11.546407
_cell_length_c 34.734700
_cell_angle_alpha 90.000000
_cell_angle_beta 17.022273
_cell_angle_gamma 90.000000
_cell_volume 2372.626739
_symmetry_space_group_name_H-M "C 2/C"
_symmetry_group_IT_number 15
_symmetry_cell_setting 'monoclinic'
loop_
_space_group_symop_operation_xyz
x,y,z
-x,y,1/2-z
-x,-y,-z
x,-y,1/2+z
1/2+x,1/2+y,z
1/2-x,1/2+y,1/2-z
1/2-x,1/2-y,-z
1/2+x,1/2-y,1/2+z
loop_
_atom_site_type_symbol
_atom_site_label
_atom_site_fract_x
_atom_site_fract_y
_atom_site_fract_z
Si Si1 0.361235 0.919575 0.910064
Si Si2 0.247356 0.904559 0.603781
Si Si3 0.396890 0.690428 0.693639
Si Si4 0.414445 0.846756 0.426247
Si Si5 0.797173 0.349098 0.115313
Si Si6 0.500000 0.147813 0.250000
O O1 0.504649 0.817799 0.851476
O O2 0.428283 0.919400 0.827980
O O3 0.416226 0.042354 0.897816
O O4 0.099130 0.883526 0.062335
O O5 0.309230 0.888992 0.525161
O O6 0.439261 0.841803 0.521835
O O7 0.000000 0.859072 0.750000
O O8 0.257737 0.038989 0.610861
O O9 0.328748 0.637227 0.773369
O O10 0.169630 0.694322 0.794533
O O11 0.250000 0.750000 0.500000
O O12 0.702630 0.234975 0.148273
#
# Coordination Sequence:
#
# PCOD9263604 Si02
#       6
#     8   8   8   8   8   4
#     4  10  22  40  65  86 119 163 194 245 301 357
#     4  10  19  34  58  85 117 150 193 249 295 334
#     4   9  21  40  63  90 117 157 202 244 302 349
#     4  11  25  40  60  91 125 154 200 251 292 358
#     4   9  18  33  57  88 116 147 199 247 282 345
#     4  10  20  38  60  86 118 150 204 238 290 368
#
# _framework density 18.544847000000001
#
# number of rings (size 3 to 8) (size 9 to 14) (size 15 to 20)
#    0.000    2.182    0.909    1.091    7.636    1.455 
#    1.636    0.909    0.000    0.000    0.000    0.000 
#    0.000    0.000    0.000    0.000    0.000    0.000 
#
# Total GULP energy -122818.271805 kJ/mol
# GULP energy per Si atom -5582.648718 kJ/mol
# Density = 1.850264 g / cm^3
# Si number density = 18.544847 Si / 1000 Ang^3
#
#
#
# Elastic Constant Matrix: (Units=GPa)
#
#
# Indices 1 2 3 4 5 6 
#
# 1 139.1135 66.5860 77.3982 -0.0235 -13.7904 0.1634
# 2 66.5860 76.4005 50.3102 -0.0457 -1.0264 -0.0761
# 3 77.3982 50.3102 143.7499 -0.0096 -22.1144 0.1402
# 4 -0.0235 -0.0457 -0.0096 20.8084 0.1728 6.4093
# 5 -13.7904 -1.0264 -22.1144 0.1728 21.4885 0.3458
# 6 0.1634 -0.0761 0.1402 6.4093 0.3458 7.0001
#
#
#
# Elastic Compliance Matrix: (Units=1/GPa)
#
#
# Indices 1 2 3 4 5 6 
#
# 1 0.014593 -0.010422 -0.003377 0.000207 0.005403 -0.000842
# 2 -0.010422 0.025209 -0.004823 -0.000307 -0.010468 0.001412
# 3 -0.003377 -0.004823 0.011996 0.000175 0.009960 -0.000866
# 4 0.000207 -0.000307 0.000175 0.066946 0.000747 -0.061344
# 5 0.005403 -0.010468 0.009960 0.000747 0.059814 -0.004078
# 6 -0.000842 0.001412 -0.000866 -0.061344 -0.004078 0.199276
#
#
# Mechanical properties :
#
#
# Convention : Reuss Voigt Hill
#
# Bulk Modulus (GPa) = 68.71650 83.09475 75.90562
# Shear Modulus (GPa) = 11.90679 20.85736 16.38207
#
# Velocity S-wave (km/s) = 2.53663 3.35729 2.97539
# Velocity P-wave (km/s) = 6.76121 7.74166 7.26799
#
# Compressibility (1/GPa) = 0.01455255
#
# Stress axis : x y z
#
# Youngs Moduli (GPa) = 68.52817 39.66881 83.36093
#
# Poissons Ratio (x) = 0.41343 0.28153
# Poissons Ratio (y) = 0.71421 0.40205
# Poissons Ratio (z) = 0.23144 0.19132
#
# Static dielectric constant tensor:
#      x y z
#    x 1.660400 -0.000360 0.002540 
#    y -0.000360 1.634050 -0.000150 
#    z 0.002540 -0.000150 1.653020 
# 
# From -- ./inp_files/104080.got.cif
#   From: 2010.05.17/outbox.cif.g08.bks.cpg/sg15_53_cif.got.tgz:104080.got - 2010.06.03 18:47:42.
