data_PCOD9263847
_publ_section_title
;
Structure prediction by ZEFSAII (Michael W. Deem and Ramdas Pophale) SiO2 
 PCOD9263847
Probable space group: C 2/C
;
_chemical_formula_sum "Si O2"
_cell_formula_units_Z 60
_cell_length_a 14.897346
_cell_length_b 11.616615
_cell_length_c 21.655041
_cell_angle_alpha 90.000000
_cell_angle_beta 131.191252
_cell_angle_gamma 90.000000
_cell_volume 2820.089837
_symmetry_space_group_name_H-M "C 2/C"
_symmetry_group_IT_number 15
_symmetry_cell_setting 'monoclinic'
loop_
_space_group_symop_operation_xyz
x,y,z
-x,y,1/2-z
-x,-y,-z
x,-y,1/2+z
1/2+x,1/2+y,z
1/2-x,1/2+y,1/2-z
1/2-x,1/2-y,-z
1/2+x,1/2-y,1/2+z
loop_
_atom_site_type_symbol
_atom_site_label
_atom_site_fract_x
_atom_site_fract_y
_atom_site_fract_z
Si Si1 0.261464 0.989558 0.845633
Si Si2 0.708605 0.745104 0.783729
Si Si3 0.500000 0.881552 0.250000
Si Si4 0.575030 0.479086 0.347704
Si Si5 0.582697 0.683761 0.197477
Si Si6 0.860134 0.819844 0.019884
Si Si7 0.344193 0.918655 0.633752
Si Si8 0.026952 0.640946 0.107297
O O1 0.225803 0.108422 0.795872
O O2 0.214443 0.010095 0.893346
O O3 0.176179 0.885565 0.783841
O O4 0.396418 0.953762 0.894100
O O5 0.840991 0.792839 0.828849
O O6 0.654540 0.807556 0.819853
O O7 0.625261 0.786887 0.690293
O O8 0.535532 0.798025 0.209679
O O9 0.611041 0.967349 0.311809
O O10 0.500000 0.458097 0.250000
O O11 0.525322 0.594611 0.355524
O O12 0.566050 0.377306 0.391752
O O13 0.947498 0.726298 0.029423
O O14 0.750000 0.750000 0.000000
O O15 0.792731 0.916602 0.950335
O O16 0.436252 0.906680 0.618351
#
# Coordination Sequence:
#
# PCOD9263847 Si02
#       8
#     8   8   4   8   8   8   8   8
#     4  10  19  34  61  92 115 156 209 254 306 363
#     4  11  21  36  63  91 121 158 217 250 313 373
#     4  12  20  44  62  86 132 156 218 254 320 366
#     4  10  19  41  64  90 121 166 213 250 309 366
#     4  10  22  36  63  94 118 162 205 265 300 370
#     4  10  22  38  60  92 130 160 211 257 312 373
#     4  11  23  39  62  92 123 169 200 263 315 366
#     4  10  19  36  58  92 120 160 202 261 310 356
#
# _framework density 21.275918000000001
#
# number of rings (size 3 to 8) (size 9 to 14) (size 15 to 20)
#    0.000    1.600    3.333    4.000    1.867    1.067 
#    0.000    8.667    0.000    0.000    0.000    0.000 
#    0.000    0.000    0.000    0.000    0.000    0.000 
#
# Total GULP energy -167250.391903 kJ/mol
# GULP energy per Si atom -5575.013063 kJ/mol
# Density = 2.122749 g / cm^3
# Si number density = 21.275918 Si / 1000 Ang^3
#
#
#
# Elastic Constant Matrix: (Units=GPa)
#
#
# Indices 1 2 3 4 5 6 
#
# 1 95.9125 19.4493 4.1789 0.0000 14.8579 0.0000
# 2 19.4493 99.5879 25.1900 0.0000 9.8364 0.0000
# 3 4.1789 25.1900 45.4759 0.0000 8.8696 0.0000
# 4 0.0000 0.0000 0.0000 15.5855 0.0000 4.6025
# 5 14.8579 9.8364 8.8696 0.0000 13.9382 0.0000
# 6 0.0000 0.0000 0.0000 4.6025 0.0000 38.7592
#
#
#
# Elastic Compliance Matrix: (Units=1/GPa)
#
#
# Indices 1 2 3 4 5 6 
#
# 1 0.012853 -0.001763 0.002540 0.000000 -0.014074 0.000000
# 2 -0.001763 0.012196 -0.006030 0.000000 -0.002891 0.000000
# 3 0.002540 -0.006030 0.028308 0.000000 -0.016466 0.000000
# 4 0.000000 0.000000 0.000000 0.066494 0.000000 -0.007896
# 5 -0.014074 -0.002891 -0.016466 0.000000 0.099266 0.000000
# 6 0.000000 0.000000 0.000000 -0.007896 0.000000 0.026738
#
#
# Mechanical properties :
#
#
# Convention : Reuss Voigt Hill
#
# Bulk Modulus (GPa) = 23.33578 37.62362 30.47970
# Shear Modulus (GPa) = 18.47441 26.46712 22.47077
#
# Velocity S-wave (km/s) = 2.94993 3.53086 3.25339
# Velocity P-wave (km/s) = 4.75340 5.86043 5.33570
#
# Compressibility (1/GPa) = 0.04285265
#
# Stress axis : x y z
#
# Youngs Moduli (GPa) = 77.80225 81.99140 35.32579
#
# Poissons Ratio (x) = 0.14452 -0.08973
# Poissons Ratio (y) = 0.13713 0.21301
# Poissons Ratio (z) = -0.19763 0.49440
#
# Static dielectric constant tensor:
#      x y z
#    x 1.819250 0.000000 0.004460 
#    y 0.000000 1.779850 0.000000 
#    z 0.004460 0.000000 1.846250 
# 
# From -- ./inp_files/273860.got.cif
#   From: 2010.05.17/outbox.cif.g08.bks.cpg/sg15_137_cif.got.tgz:273860.got - 2010.06.03 18:47:42.
