data_PCOD9263092
_publ_section_title
;
Structure prediction by ZEFSAII (Michael W. Deem and Ramdas Pophale) SiO2 
 PCOD9263092
Probable space group: C 2/C
;
_chemical_formula_sum "Si O2"
_cell_formula_units_Z 52
_cell_length_a 14.475858
_cell_length_b 12.502974
_cell_length_c 16.610047
_cell_angle_alpha 90.000000
_cell_angle_beta 132.710597
_cell_angle_gamma 90.000000
_cell_volume 2208.977242
_symmetry_space_group_name_H-M "C 2/C"
_symmetry_group_IT_number 15
_symmetry_cell_setting 'monoclinic'
loop_
_space_group_symop_operation_xyz
x,y,z
-x,y,1/2-z
-x,-y,-z
x,-y,1/2+z
1/2+x,1/2+y,z
1/2-x,1/2+y,1/2-z
1/2-x,1/2-y,-z
1/2+x,1/2-y,1/2+z
loop_
_atom_site_type_symbol
_atom_site_label
_atom_site_fract_x
_atom_site_fract_y
_atom_site_fract_z
Si Si1 0.756392 0.640094 0.689868
Si Si2 0.959797 0.867439 0.553319
Si Si3 0.500000 0.885323 0.250000
Si Si4 0.827561 0.074623 0.424450
Si Si5 0.704223 0.594232 0.838549
Si Si6 0.609497 0.077773 0.415633
Si Si7 0.000000 0.740618 0.250000
Si Si8 0.500000 0.412824 0.750000
O O1 0.591297 0.350798 0.585309
O O2 0.889198 0.672666 0.732531
O O3 0.748331 0.510746 0.673684
O O4 0.728557 0.647855 0.766598
O O5 0.072256 0.003581 0.470864
O O6 0.851964 0.816857 0.433823
O O7 0.954867 0.848608 0.644688
O O8 0.566703 0.963331 0.355576
O O9 0.728471 0.114061 0.430368
O O10 0.616319 0.680933 0.829495
O O11 0.617052 0.487497 0.789027
O O12 0.834005 0.574670 0.962368
O O13 0.501656 0.162244 0.328422
#
# Coordination Sequence:
#
# PCOD9263092 Si02
#       8
#     8   8   4   8   8   8   4   4
#     4   9  17  29  45  71  97 126 160 191 248 286
#     4   9  15  25  43  73  94 126 155 190 248 283
#     4   9  18  33  50  68 105 129 144 202 252 289
#     4   8  14  27  44  65  97 127 148 195 239 285
#     4  11  19  29  48  70  95 133 165 191 230 297
#     4  10  19  34  46  69 104 130 160 194 241 291
#     4  10  24  32  46  68 102 135 161 202 238 270
#     4  11  14  25  46  72 103 118 153 196 236 297
#
# _framework density 23.540306999999999
#
# number of rings (size 3 to 8) (size 9 to 14) (size 15 to 20)
#    0.923    1.538    3.077    0.462    2.154    0.615 
#    0.000    0.000    0.000    0.000    0.000    2.154 
#    0.000    0.000    0.000    0.000    0.000    0.000 
#
# Total GULP energy -144949.583651 kJ/mol
# GULP energy per Si atom -5574.983987 kJ/mol
# Density = 2.348673 g / cm^3
# Si number density = 23.540307 Si / 1000 Ang^3
#
#
#
# Elastic Constant Matrix: (Units=GPa)
#
#
# Indices 1 2 3 4 5 6 
#
# 1 77.3895 -3.7579 9.0271 0.0000 4.8253 0.0000
# 2 -3.7579 27.9149 11.0267 0.0000 6.7570 0.0000
# 3 9.0271 11.0267 125.7873 0.0000 -11.6518 0.0000
# 4 0.0000 0.0000 0.0000 15.3870 0.0000 9.4483
# 5 4.8253 6.7570 -11.6518 0.0000 30.6994 0.0000
# 6 0.0000 0.0000 0.0000 9.4483 0.0000 7.4453
#
#
#
# Elastic Compliance Matrix: (Units=1/GPa)
#
#
# Indices 1 2 3 4 5 6 
#
# 1 0.013478 0.003266 -0.001572 0.000000 -0.003434 0.000000
# 2 0.003266 0.040943 -0.004877 0.000000 -0.011376 0.000000
# 3 -0.001572 -0.004877 0.008926 0.000000 0.004709 0.000000
# 4 0.000000 0.000000 0.000000 0.294392 0.000000 -0.373591
# 5 -0.003434 -0.011376 0.004709 0.000000 0.037405 0.000000
# 6 0.000000 0.000000 0.000000 -0.373591 0.000000 0.608408
#
#
# Mechanical properties :
#
#
# Convention : Reuss Voigt Hill
#
# Bulk Modulus (GPa) = 17.54937 29.29817 23.42377
# Shear Modulus (GPa) = 4.85950 25.02608 14.94279
#
# Velocity S-wave (km/s) = 1.43834 3.26408 2.52221
# Velocity P-wave (km/s) = 3.19838 5.16514 4.29583
#
# Compressibility (1/GPa) = 0.05698211
#
# Stress axis : x y z
#
# Youngs Moduli (GPa) = 74.19671 24.42409 112.02696
#
# Poissons Ratio (x) = -0.07978 0.17607
# Poissons Ratio (y) = -0.24236 0.54639
# Poissons Ratio (z) = 0.11661 0.11912
#
# Static dielectric constant tensor:
#      x y z
#    x 1.926480 0.000000 0.009290 
#    y 0.000000 1.902990 0.000000 
#    z 0.009290 0.000000 1.944540 
# 
# From -- ./inp_files/206014.got.cif
#   From: 2010.05.17/outbox.cif.g08.bks.cpg/sg15_104_cif.got.tgz:206014.got - 2010.06.03 18:47:42.
