data_PCOD9263064
_publ_section_title
;
Structure prediction by ZEFSAII (Michael W. Deem and Ramdas Pophale) SiO2 
 PCOD9263064
Probable space group: C 2/C
;
_chemical_formula_sum "Si O2"
_cell_formula_units_Z 48
_cell_length_a 20.478897
_cell_length_b 12.072138
_cell_length_c 11.262386
_cell_angle_alpha 90.000000
_cell_angle_beta 47.033067
_cell_angle_gamma 90.000000
_cell_volume 2037.427757
_symmetry_space_group_name_H-M "C 2/C"
_symmetry_group_IT_number 15
_symmetry_cell_setting 'monoclinic'
loop_
_space_group_symop_operation_xyz
x,y,z
-x,y,1/2-z
-x,-y,-z
x,-y,1/2+z
1/2+x,1/2+y,z
1/2-x,1/2+y,1/2-z
1/2-x,1/2-y,-z
1/2+x,1/2-y,1/2+z
loop_
_atom_site_type_symbol
_atom_site_label
_atom_site_fract_x
_atom_site_fract_y
_atom_site_fract_z
Si Si1 0.131693 0.544585 0.785925
Si Si2 0.679621 0.820880 0.010670
Si Si3 0.062031 0.328886 0.788183
Si Si4 0.177867 0.300496 0.439321
Si Si5 0.304927 0.559675 0.161402
Si Si6 0.118644 0.160233 0.889721
O O1 0.121298 0.609279 0.675420
O O2 0.071125 0.435624 0.860152
O O3 0.124592 0.625259 0.908202
O O4 0.235076 0.504239 0.663486
O O5 0.739922 0.899880 0.850557
O O6 0.621560 0.735385 0.004631
O O7 0.750000 0.750000 0.000000
O O8 0.156050 0.329546 0.600405
O O9 0.053959 0.219415 0.876864
O O10 0.000000 0.333405 0.750000
O O11 0.158989 0.172038 0.439084
O O12 0.280920 0.321443 0.284301
O O13 0.382309 0.471480 0.093958
#
# Coordination Sequence:
#
# PCOD9263064 Si02
#       6
#     8   8   8   8   8   8
#     4  11  20  37  59  89 122 151 193 243 298 348
#     4  11  18  33  57  95 122 139 190 250 299 339
#     4  12  26  40  57  84 125 165 196 236 290 362
#     4  10  21  38  61  88 116 149 203 245 293 344
#     4  10  19  33  61  93 115 146 189 256 297 334
#     4  10  21  37  61  93 117 150 196 246 296 349
#
# _framework density 23.559118000000002
#
# number of rings (size 3 to 8) (size 9 to 14) (size 15 to 20)
#    0.000    1.333    8.333    2.500    2.333    0.667 
#    0.000    0.833    0.000    1.000    0.000    0.000 
#    0.000    0.000    0.000    0.000    0.000    0.000 
#
# Total GULP energy -134129.670423 kJ/mol
# GULP energy per Si atom -5588.736268 kJ/mol
# Density = 2.350550 g / cm^3
# Si number density = 23.559118 Si / 1000 Ang^3
#
#
#
# Elastic Constant Matrix: (Units=GPa)
#
#
# Indices 1 2 3 4 5 6 
#
# 1 82.4113 28.1941 -9.1879 0.0000 13.5438 0.0000
# 2 28.1941 164.7965 15.8980 0.0000 17.2309 0.0000
# 3 -9.1879 15.8980 51.9385 0.0000 24.5428 0.0000
# 4 0.0000 0.0000 0.0000 32.8126 0.0000 13.8050
# 5 13.5438 17.2309 24.5428 0.0000 28.7545 0.0000
# 6 0.0000 0.0000 0.0000 13.8050 0.0000 28.0803
#
#
#
# Elastic Compliance Matrix: (Units=1/GPa)
#
#
# Indices 1 2 3 4 5 6 
#
# 1 0.016858 -0.002279 0.011374 0.000000 -0.016283 0.000000
# 2 -0.002279 0.006784 -0.001786 0.000000 -0.001467 0.000000
# 3 0.011374 -0.001786 0.039951 0.000000 -0.038386 0.000000
# 4 0.000000 0.000000 0.000000 0.038424 0.000000 -0.018890
# 5 -0.016283 -0.001467 -0.038386 0.000000 0.076089 0.000000
# 6 0.000000 0.000000 0.000000 -0.018890 0.000000 0.044899
#
#
# Mechanical properties :
#
#
# Convention : Reuss Voigt Hill
#
# Bulk Modulus (GPa) = 12.78613 40.99497 26.89055
# Shear Modulus (GPa) = 21.32584 35.54563 28.43573
#
# Velocity S-wave (km/s) = 3.01193 3.88852 3.47795
# Velocity P-wave (km/s) = 4.18744 6.13184 5.25043
#
# Compressibility (1/GPa) = 0.07820974
#
# Stress axis : x y z
#
# Youngs Moduli (GPa) = 59.31954 147.41256 25.03055
#
# Poissons Ratio (x) = 0.33593 -0.28469
# Poissons Ratio (y) = 0.13518 0.04471
# Poissons Ratio (z) = -0.67469 0.26333
#
# Static dielectric constant tensor:
#      x y z
#    x 1.949630 0.000000 -0.066540 
#    y 0.000000 1.947230 0.000000 
#    z -0.066540 0.000000 1.910560 
# 
# From -- ./inp_files/103836.got.cif
#   From: 2010.05.17/outbox.cif.g08.bks.cpg/sg15_52_cif.got.tgz:103836.got - 2010.06.03 18:47:42.
