data_PCOD9263920
_publ_section_title
;
Structure prediction by ZEFSAII (Michael W. Deem and Ramdas Pophale) SiO2 
 PCOD9263920
Probable space group: C 2/C
;
_chemical_formula_sum "Si O2"
_cell_formula_units_Z 48
_cell_length_a 17.339644
_cell_length_b 8.445965
_cell_length_c 15.514123
_cell_angle_alpha 90.000000
_cell_angle_beta 72.877305
_cell_angle_gamma 90.000000
_cell_volume 2171.338723
_symmetry_space_group_name_H-M "C 2/C"
_symmetry_group_IT_number 15
_symmetry_cell_setting 'monoclinic'
loop_
_space_group_symop_operation_xyz
x,y,z
-x,y,1/2-z
-x,-y,-z
x,-y,1/2+z
1/2+x,1/2+y,z
1/2-x,1/2+y,1/2-z
1/2-x,1/2-y,-z
1/2+x,1/2-y,1/2+z
loop_
_atom_site_type_symbol
_atom_site_label
_atom_site_fract_x
_atom_site_fract_y
_atom_site_fract_z
Si Si1 0.078672 0.115434 0.684340
Si Si2 0.381981 0.007984 0.085801
Si Si3 0.232296 0.929174 0.035653
Si Si4 0.536681 0.967526 0.625056
Si Si5 0.691275 0.760985 0.783357
Si Si6 0.189415 0.563928 0.659325
O O1 0.139064 0.047419 0.592007
O O2 0.046926 0.288059 0.658458
O O3 0.139215 0.141216 0.744256
O O4 0.000000 0.032616 0.750000
O O5 0.291459 0.946869 0.099062
O O6 0.446673 0.967308 0.139033
O O7 0.364606 0.188766 0.117225
O O8 0.424422 0.968069 0.982581
O O9 0.250000 0.750000 0.000000
O O10 0.261899 0.037731 0.946534
O O11 0.596422 0.072250 0.662451
O O12 0.774045 0.703891 0.797046
O O13 0.701593 0.908995 0.715309
#
# Coordination Sequence:
#
# PCOD9263920 Si02
#       6
#     8   8   8   8   8   8
#     4  11  20  37  59  86 122 166 210 250 316 375
#     4  10  19  34  63  91 118 157 205 256 299 373
#     4  11  20  38  59  90 128 166 201 254 323 374
#     4   9  19  35  58  94 117 153 210 258 295 369
#     4  11  21  36  63  96 122 162 205 261 310 375
#     4  10  23  37  62  96 125 162 209 255 319 376
#
# _framework density 22.106178
#
# number of rings (size 3 to 8) (size 9 to 14) (size 15 to 20)
#    0.000    1.667    6.667    1.000    0.000    2.667 
#    0.000    0.833    0.000    4.000    0.000    0.000 
#    0.000    0.000    0.000    0.000    0.000    0.000 
#
# Total GULP energy -133665.993432 kJ/mol
# GULP energy per Si atom -5569.416393 kJ/mol
# Density = 2.205586 g / cm^3
# Si number density = 22.106178 Si / 1000 Ang^3
#
#
#
# Elastic Constant Matrix: (Units=GPa)
#
#
# Indices 1 2 3 4 5 6 
#
# 1 186.6345 28.3574 59.8504 0.0000 22.0937 0.0000
# 2 28.3574 6.8423 9.9059 0.0000 11.8440 0.0000
# 3 59.8504 9.9059 121.8250 0.0000 -4.7800 0.0000
# 4 0.0000 0.0000 0.0000 17.0056 0.0000 0.0082
# 5 22.0937 11.8440 -4.7800 0.0000 49.2700 0.0000
# 6 0.0000 0.0000 0.0000 0.0082 0.0000 24.9805
#
#
#
# Elastic Compliance Matrix: (Units=1/GPa)
#
#
# Indices 1 2 3 4 5 6 
#
# 1 0.022859 -0.133101 0.000448 0.000000 0.021789 0.000000
# 2 -0.133101 1.109689 -0.033093 0.000000 -0.210284 0.000000
# 3 0.000448 -0.033093 0.011026 0.000000 0.008824 0.000000
# 4 0.000000 0.000000 0.000000 0.058804 0.000000 -0.000019
# 5 0.021789 -0.210284 0.008824 0.000000 0.061932 0.000000
# 6 0.000000 0.000000 0.000000 -0.000019 0.000000 0.040031
#
#
# Mechanical properties :
#
#
# Convention : Reuss Voigt Hill
#
# Bulk Modulus (GPa) = 1.23140 56.83659 29.03400
# Shear Modulus (GPa) = 2.62257 32.73043 17.67650
#
# Velocity S-wave (km/s) = 1.09038 3.85203 2.83082
# Velocity P-wave (km/s) = 1.46407 6.74913 4.88335
#
# Compressibility (1/GPa) = 0.81208082
#
# Stress axis : x y z
#
# Youngs Moduli (GPa) = 43.74732 0.90115 90.69828
#
# Poissons Ratio (x) = 0.11994 -0.04062
# Poissons Ratio (y) = 5.82283 3.00144
# Poissons Ratio (z) = -0.01959 0.02982
#
# Static dielectric constant tensor:
#      x y z
#    x 1.884610 0.000000 -0.046200 
#    y 0.000000 1.837560 0.000000 
#    z -0.046200 0.000000 1.882060 
# 
# From -- ./inp_files/208552.got.cif
#   From: 2010.05.17/outbox.cif.g08.bks.cpg/sg15_105_cif.got.tgz:208552.got - 2010.06.03 18:47:42.
