data_PCOD9263899
_publ_section_title
;
Structure prediction by ZEFSAII (Michael W. Deem and Ramdas Pophale) SiO2 
 PCOD9263899
Probable space group: C 2/C
;
_chemical_formula_sum "Si O2"
_cell_formula_units_Z 60
_cell_length_a 19.297084
_cell_length_b 11.882939
_cell_length_c 16.200136
_cell_angle_alpha 90.000000
_cell_angle_beta 138.077864
_cell_angle_gamma 90.000000
_cell_volume 2481.925447
_symmetry_space_group_name_H-M "C 2/C"
_symmetry_group_IT_number 15
_symmetry_cell_setting 'monoclinic'
loop_
_space_group_symop_operation_xyz
x,y,z
-x,y,1/2-z
-x,-y,-z
x,-y,1/2+z
1/2+x,1/2+y,z
1/2-x,1/2+y,1/2-z
1/2-x,1/2-y,-z
1/2+x,1/2-y,1/2+z
loop_
_atom_site_type_symbol
_atom_site_label
_atom_site_fract_x
_atom_site_fract_y
_atom_site_fract_z
Si Si1 0.150196 0.085861 0.506889
Si Si2 0.000000 0.164774 0.250000
Si Si3 0.266742 0.443794 0.771343
Si Si4 0.825050 0.279712 0.684423
Si Si5 0.245537 0.915577 0.468093
Si Si6 0.187805 0.782219 0.817243
Si Si7 0.979202 0.581822 0.111309
Si Si8 0.924315 0.611930 0.882225
O O1 0.212240 0.201684 0.582727
O O2 0.036547 0.100420 0.365843
O O3 0.156556 0.005244 0.594285
O O4 0.212297 0.028936 0.484866
O O5 0.892656 0.225725 0.178292
O O6 0.220286 0.328952 0.771036
O O7 0.290085 0.406448 0.698352
O O8 0.173337 0.532232 0.686799
O O9 0.823592 0.147898 0.662301
O O10 0.746196 0.333878 0.548806
O O11 0.936196 0.339149 0.771021
O O12 0.362942 0.915669 0.539649
O O13 0.117141 0.729533 0.682549
O O14 0.016005 0.452284 0.138257
O O15 0.984480 0.619815 0.020360
#
# Coordination Sequence:
#
# PCOD9263899 Si02
#       8
#     8   4   8   8   8   8   8   8
#     4  10  25  47  66 103 139 178 233 281 344 419
#     4  12  28  44  66 104 138 192 224 274 352 412
#     4   9  20  43  68  94 140 174 227 289 336 397
#     4   9  19  36  57  96 123 170 221 272 339 404
#     4  10  20  37  61  88 137 174 212 278 347 396
#     4  11  24  44  70  95 136 185 231 283 333 413
#     4  10  19  34  62  93 132 167 226 279 336 396
#     4   9  21  37  62 102 126 172 231 276 331 396
#
# _framework density 24.174779999999998
#
# number of rings (size 3 to 8) (size 9 to 14) (size 15 to 20)
#    0.000    2.133    0.000    2.400    3.733    3.733 
#    9.600    0.000    0.000    0.000    0.000    0.000 
#    0.000    0.000    0.000    0.000    0.000    0.000 
#
# Total GULP energy -167254.245401 kJ/mol
# GULP energy per Si atom -5575.141513 kJ/mol
# Density = 2.411976 g / cm^3
# Si number density = 24.174780 Si / 1000 Ang^3
#
#
#
# Elastic Constant Matrix: (Units=GPa)
#
#
# Indices 1 2 3 4 5 6 
#
# 1 74.3954 15.7540 -11.8520 0.0000 -2.7229 0.0000
# 2 15.7540 69.0628 18.5731 0.0000 -6.1163 0.0000
# 3 -11.8520 18.5731 103.3618 0.0000 -13.0885 0.0000
# 4 0.0000 0.0000 0.0000 31.7420 0.0000 -4.0646
# 5 -2.7229 -6.1163 -13.0885 0.0000 25.5896 0.0000
# 6 0.0000 0.0000 0.0000 -4.0646 0.0000 20.0198
#
#
#
# Elastic Compliance Matrix: (Units=1/GPa)
#
#
# Indices 1 2 3 4 5 6 
#
# 1 0.014763 -0.003903 0.002646 0.000000 0.001992 0.000000
# 2 -0.003903 0.016385 -0.003153 0.000000 0.001888 0.000000
# 3 0.002646 -0.003153 0.011211 0.000000 0.005262 0.000000
# 4 0.000000 0.000000 0.000000 0.032345 0.000000 0.006567
# 5 0.001992 0.001888 0.005262 0.000000 0.042433 0.000000
# 6 0.000000 0.000000 0.000000 0.006567 0.000000 0.051284
#
#
# Mechanical properties :
#
#
# Convention : Reuss Voigt Hill
#
# Bulk Modulus (GPa) = 29.81495 32.41893 31.11694
# Shear Modulus (GPa) = 26.53661 30.42660 28.48160
#
# Velocity S-wave (km/s) = 3.31675 3.55154 3.43615
# Velocity P-wave (km/s) = 5.19881 5.50066 5.35186
#
# Compressibility (1/GPa) = 0.03354022
#
# Stress axis : x y z
#
# Youngs Moduli (GPa) = 67.73867 61.03172 89.19793
#
# Poissons Ratio (x) = 0.23819 -0.23604
# Poissons Ratio (y) = 0.26437 0.28121
# Poissons Ratio (z) = -0.17925 0.19241
#
# Static dielectric constant tensor:
#      x y z
#    x 2.006140 0.000000 -0.062600 
#    y 0.000000 2.053690 0.000000 
#    z -0.062600 0.000000 1.955730 
# 
# From -- ./inp_files/215215.got.cif
#   From: 2010.05.17/outbox.cif.g08.bks.cpg/sg15_108_cif.got.tgz:215215.got - 2010.06.03 18:47:42.
