data_PCOD9263026
_publ_section_title
;
Structure prediction by ZEFSAII (Michael W. Deem and Ramdas Pophale) SiO2 
 PCOD9263026
Probable space group: C 2/C
;
_chemical_formula_sum "Si O2"
_cell_formula_units_Z 60
_cell_length_a 21.019568
_cell_length_b 11.947402
_cell_length_c 17.993374
_cell_angle_alpha 90.000000
_cell_angle_beta 40.265134
_cell_angle_gamma 90.000000
_cell_volume 2920.526817
_symmetry_space_group_name_H-M "C 2/C"
_symmetry_group_IT_number 15
_symmetry_cell_setting 'monoclinic'
loop_
_space_group_symop_operation_xyz
x,y,z
-x,y,1/2-z
-x,-y,-z
x,-y,1/2+z
1/2+x,1/2+y,z
1/2-x,1/2+y,1/2-z
1/2-x,1/2-y,-z
1/2+x,1/2-y,1/2+z
loop_
_atom_site_type_symbol
_atom_site_label
_atom_site_fract_x
_atom_site_fract_y
_atom_site_fract_z
Si Si1 0.165074 0.211638 0.967548
Si Si2 0.614414 0.364686 0.886249
Si Si3 0.171578 0.605790 0.048415
Si Si4 0.939826 0.756540 0.707996
Si Si5 0.000000 0.447986 0.250000
Si Si6 0.786696 0.102739 0.426871
Si Si7 0.608234 0.621246 0.860688
Si Si8 0.236076 0.731355 0.137564
O O1 0.207989 0.335571 0.943157
O O2 0.163536 0.161102 0.887065
O O3 0.223113 0.142626 0.978835
O O4 0.051611 0.212323 0.091836
O O5 0.613984 0.269342 0.823067
O O6 0.618943 0.487211 0.844272
O O7 0.707330 0.349658 0.856444
O O8 0.509007 0.358389 0.022640
O O9 0.077403 0.525945 0.138206
O O10 0.184964 0.666563 0.115340
O O11 0.265954 0.527265 0.947824
O O12 0.177126 0.695138 0.977831
O O13 0.943630 0.636432 0.744223
O O14 0.888549 0.847571 0.806518
O O15 0.658053 0.691727 0.750782
#
# Coordination Sequence:
#
# PCOD9263026 Si02
#       8
#     8   8   8   8   4   8   8   8
#     4  10  19  33  59  96 125 164 213 263 314 373
#     4  10  23  41  66  96 130 170 215 265 329 385
#     4  11  26  41  66  91 131 173 220 261 325 388
#     4  11  20  37  64  98 128 164 211 271 314 372
#     4  12  22  44  66  98 132 168 218 278 322 374
#     4  11  18  35  61  93 132 169 208 266 312 377
#     4  10  22  42  65  91 131 169 214 269 322 384
#     4  11  25  46  62  96 127 176 217 263 324 398
#
# _framework density 20.544238
#
# number of rings (size 3 to 8) (size 9 to 14) (size 15 to 20)
#    0.000    1.333    2.667    3.200    1.867    1.067 
#    0.000    0.667    0.000    0.000    0.000    0.000 
#    0.000    0.000    0.000    0.000    0.000    0.000 
#
# Total GULP energy -167462.411925 kJ/mol
# GULP energy per Si atom -5582.080397 kJ/mol
# Density = 2.049748 g / cm^3
# Si number density = 20.544238 Si / 1000 Ang^3
#
#
#
# Elastic Constant Matrix: (Units=GPa)
#
#
# Indices 1 2 3 4 5 6 
#
# 1 42.6894 9.8565 25.5756 0.0000 2.7273 0.0000
# 2 9.8565 78.6581 39.8736 0.0000 -1.2685 0.0000
# 3 25.5756 39.8736 99.4592 0.0000 -10.3330 0.0000
# 4 0.0000 0.0000 0.0000 26.4289 0.0000 2.5080
# 5 2.7273 -1.2685 -10.3330 0.0000 27.4405 0.0000
# 6 0.0000 0.0000 0.0000 2.5080 0.0000 22.8043
#
#
#
# Elastic Compliance Matrix: (Units=1/GPa)
#
#
# Indices 1 2 3 4 5 6 
#
# 1 0.028573 0.000451 -0.008140 0.000000 -0.005884 0.000000
# 2 0.000451 0.016043 -0.006739 0.000000 -0.001841 0.000000
# 3 -0.008140 -0.006739 0.015507 0.000000 0.006337 0.000000
# 4 0.000000 0.000000 0.000000 0.038236 0.000000 -0.004205
# 5 -0.005884 -0.001841 0.006337 0.000000 0.039328 0.000000
# 6 0.000000 0.000000 0.000000 -0.004205 0.000000 0.044314
#
#
# Mechanical properties :
#
#
# Convention : Reuss Voigt Hill
#
# Bulk Modulus (GPa) = 31.98103 41.26868 36.62486
# Shear Modulus (GPa) = 22.59568 25.03480 23.81524
#
# Velocity S-wave (km/s) = 3.32000 3.49460 3.40842
# Velocity P-wave (km/s) = 5.50430 6.03443 5.77545
#
# Compressibility (1/GPa) = 0.03126854
#
# Stress axis : x y z
#
# Youngs Moduli (GPa) = 34.99761 62.33173 64.48503
#
# Poissons Ratio (x) = -0.02810 0.52488
# Poissons Ratio (y) = -0.01578 0.43456
# Poissons Ratio (z) = 0.28487 0.42005
#
# Static dielectric constant tensor:
#      x y z
#    x 1.731230 0.000000 0.004320 
#    y 0.000000 1.749930 0.000000 
#    z 0.004320 0.000000 1.769690 
# 
# From -- ./inp_files/215193.got.cif
#   From: 2010.05.17/outbox.cif.g08.bks.cpg/sg15_108_cif.got.tgz:215193.got - 2010.06.03 18:47:42.
