data_PCOD9263994
_publ_section_title
;
Structure prediction by ZEFSAII (Michael W. Deem and Ramdas Pophale) SiO2 
 PCOD9263994
Probable space group: C 2/C
;
_chemical_formula_sum "Si O2"
_cell_formula_units_Z 52
_cell_length_a 10.785636
_cell_length_b 27.809594
_cell_length_c 9.207731
_cell_angle_alpha 90.000000
_cell_angle_beta 96.749680
_cell_angle_gamma 90.000000
_cell_volume 2742.663366
_symmetry_space_group_name_H-M "C 2/C"
_symmetry_group_IT_number 15
_symmetry_cell_setting 'monoclinic'
loop_
_space_group_symop_operation_xyz
x,y,z
-x,y,1/2-z
-x,-y,-z
x,-y,1/2+z
1/2+x,1/2+y,z
1/2-x,1/2+y,1/2-z
1/2-x,1/2-y,-z
1/2+x,1/2-y,1/2+z
loop_
_atom_site_type_symbol
_atom_site_label
_atom_site_fract_x
_atom_site_fract_y
_atom_site_fract_z
Si Si1 0.924443 0.681492 0.000635
Si Si2 0.610582 0.719138 0.147627
Si Si3 0.996734 0.051047 0.923164
Si Si4 0.672459 0.637709 0.959002
Si Si5 0.234422 0.883473 0.137676
Si Si6 0.000000 0.387270 0.250000
Si Si7 0.297488 0.797866 0.923338
O O1 0.054357 0.698522 0.089731
O O2 0.866501 0.729990 0.925708
O O3 0.810326 0.648885 0.041644
O O4 0.972519 0.648037 0.878066
O O5 0.500000 0.724575 0.250000
O O6 0.725148 0.703424 0.262961
O O7 0.587760 0.679019 0.021084
O O8 0.110867 0.086269 0.982516
O O9 0.000000 0.044293 0.750000
O O10 0.869583 0.080335 0.934553
O O11 0.000000 0.000000 0.000000
O O12 0.685765 0.639079 0.784737
O O13 0.365985 0.910379 0.194047
O O14 0.259902 0.842008 0.023444
O O15 0.250000 0.750000 0.000000
#
# Coordination Sequence:
#
# PCOD9263994 Si02
#       7
#     8   8   8   8   8   4   8
#     4  10  19  35  52  78 122 160 193 239 280 340
#     4  12  21  34  53  83 121 161 203 242 281 339
#     4  10  22  40  62  85 111 145 192 249 307 359
#     4  10  22  37  55  81 114 151 193 240 291 342
#     4   9  19  37  58  85 111 152 193 239 294 356
#     4   8  14  32  58  76 112 152 190 224 284 346
#     4  11  20  33  57  83 120 162 203 231 287 347
#
# _framework density 18.959672000000001
#
# number of rings (size 3 to 8) (size 9 to 14) (size 15 to 20)
#    0.000    1.846    2.308    3.231    0.000    2.462 
#    2.769    0.000    0.000   16.615    0.000    0.000 
#    0.000    0.000    0.000    0.000    0.000    0.000 
#
# Total GULP energy -144827.496883 kJ/mol
# GULP energy per Si atom -5570.288342 kJ/mol
# Density = 1.891652 g / cm^3
# Si number density = 18.959672 Si / 1000 Ang^3
#
#
#
# Elastic Constant Matrix: (Units=GPa)
#
#
# Indices 1 2 3 4 5 6 
#
# 1 145.0502 70.7055 38.2848 0.0000 21.7738 0.0000
# 2 70.7055 120.1101 36.7920 0.0000 4.6923 0.0000
# 3 38.2848 36.7920 49.1618 0.0000 12.1567 0.0000
# 4 0.0000 0.0000 0.0000 8.5399 0.0000 20.9137
# 5 21.7738 4.6923 12.1567 0.0000 27.5582 0.0000
# 6 0.0000 0.0000 0.0000 20.9137 0.0000 10.2861
#
#
#
# Elastic Compliance Matrix: (Units=1/GPa)
#
#
# Indices 1 2 3 4 5 6 
#
# 1 0.011400 -0.005497 -0.003106 0.000000 -0.006700 0.000000
# 2 -0.005497 0.013546 -0.007139 0.000000 0.005186 0.000000
# 3 -0.003106 -0.007139 0.030525 0.000000 -0.009796 0.000000
# 4 0.000000 0.000000 0.000000 -0.029428 0.000000 0.059832
# 5 -0.006700 0.005186 -0.009796 0.000000 0.045019 0.000000
# 6 0.000000 0.000000 0.000000 0.059832 0.000000 -0.024432
#
#
# Mechanical properties :
#
#
# Convention : Reuss Voigt Hill
#
# Bulk Modulus (GPa) = 41.69246 67.32074 54.50660
# Shear Modulus (GPa) = 58.06447 20.51282 39.28865
#
# Velocity S-wave (km/s) = 5.54001 3.29282 4.55710
# Velocity P-wave (km/s) = 7.93474 7.07399 7.51670
#
# Compressibility (1/GPa) = 0.02398515
#
# Stress axis : x y z
#
# Youngs Moduli (GPa) = 87.72232 73.82242 32.75982
#
# Poissons Ratio (x) = 0.40582 0.10177
# Poissons Ratio (y) = 0.48224 0.23387
# Poissons Ratio (z) = 0.27251 0.52702
#
# Static dielectric constant tensor:
#      x y z
#    x 1.808810 0.000000 -0.006690 
#    y 0.000000 1.605410 0.000000 
#    z -0.006690 0.000000 1.686570 
# 
# From -- ./inp_files/33656.got.cif
#   From: 2010.05.17/outbox.cif.g08.bks.cpg/sg15_17_cif.got.tgz:33656.got - 2010.06.03 18:47:42.
