data_PCOD9263610
_publ_section_title
;
Structure prediction by ZEFSAII (Michael W. Deem and Ramdas Pophale) SiO2 
 PCOD9263610
Probable space group: C 2/C
;
_chemical_formula_sum "Si O2"
_cell_formula_units_Z 48
_cell_length_a 6.837435
_cell_length_b 18.412803
_cell_length_c 33.050948
_cell_angle_alpha 90.000000
_cell_angle_beta 145.823276
_cell_angle_gamma 90.000000
_cell_volume 2337.427018
_symmetry_space_group_name_H-M "C 2/C"
_symmetry_group_IT_number 15
_symmetry_cell_setting 'monoclinic'
loop_
_space_group_symop_operation_xyz
x,y,z
-x,y,1/2-z
-x,-y,-z
x,-y,1/2+z
1/2+x,1/2+y,z
1/2-x,1/2+y,1/2-z
1/2-x,1/2-y,-z
1/2+x,1/2-y,1/2+z
loop_
_atom_site_type_symbol
_atom_site_label
_atom_site_fract_x
_atom_site_fract_y
_atom_site_fract_z
Si Si1 0.298765 0.168922 0.333669
Si Si2 0.830345 0.958613 0.900872
Si Si3 0.090246 0.063722 0.177134
Si Si4 0.662629 0.758000 0.031455
Si Si5 0.632175 0.869484 0.465119
Si Si6 0.235705 0.935936 0.326520
O O1 0.568281 0.110464 0.360705
O O2 0.510929 0.238376 0.384321
O O3 0.000000 0.182769 0.250000
O O4 0.131295 0.131553 0.344756
O O5 0.975193 0.959783 0.880145
O O6 0.590832 0.027597 0.870067
O O7 0.140952 0.940445 0.985157
O O8 0.500000 0.079193 0.250000
O O9 0.988766 0.000187 0.191101
O O10 0.528099 0.836752 0.021336
O O11 0.750000 0.750000 0.000000
O O12 0.382138 0.695079 0.992759
O O13 0.352593 0.884188 0.382664
O O14 0.000000 0.905130 0.250000
#
# Coordination Sequence:
#
# PCOD9263610 Si02
#       6
#     8   8   8   8   8   8
#     4  10  19  34  58  86 111 142 196 247 281 335
#     4  10  19  36  60  85 117 149 190 234 290 354
#     4  11  18  33  59  88 117 150 184 235 299 352
#     4  10  22  43  59  80 111 156 203 243 282 339
#     4  10  23  40  59  82 119 155 193 243 291 344
#     4  11  22  37  56  90 124 149 187 238 297 359
#
# _framework density 20.535401
#
# number of rings (size 3 to 8) (size 9 to 14) (size 15 to 20)
#    0.000    1.667    3.333    2.500    0.000    2.000 
#    3.000    0.000    0.000    0.000    0.000    0.000 
#    0.000    0.000    0.000    0.000    0.000    0.000 
#
# Total GULP energy -134046.808971 kJ/mol
# GULP energy per Si atom -5585.283707 kJ/mol
# Density = 2.048866 g / cm^3
# Si number density = 20.535401 Si / 1000 Ang^3
#
#
#
# Elastic Constant Matrix: (Units=GPa)
#
#
# Indices 1 2 3 4 5 6 
#
# 1 104.4998 4.9382 9.9419 -0.0005 -13.3851 -0.0007
# 2 4.9382 19.6060 10.6971 -0.0014 -0.1858 -0.0013
# 3 9.9419 10.6971 100.2528 0.0007 -14.1883 -0.0009
# 4 -0.0005 -0.0014 0.0007 17.2719 0.0005 -8.1209
# 5 -13.3851 -0.1858 -14.1883 0.0005 30.7547 -0.0008
# 6 -0.0007 -0.0013 -0.0009 -8.1209 -0.0008 9.5355
#
#
#
# Elastic Compliance Matrix: (Units=1/GPa)
#
#
# Indices 1 2 3 4 5 6 
#
# 1 0.010261 -0.002470 -0.000133 0.000001 0.004390 0.000001
# 2 -0.002470 0.054933 -0.006121 0.000013 -0.003567 0.000017
# 3 -0.000133 -0.006121 0.011370 -0.000001 0.005151 0.000000
# 4 0.000001 0.000013 -0.000001 0.096564 0.000000 0.082238
# 5 0.004390 -0.003567 0.005151 0.000000 0.036780 0.000004
# 6 0.000001 0.000017 0.000000 0.082238 0.000004 0.174908
#
#
# Mechanical properties :
#
#
# Convention : Reuss Voigt Hill
#
# Bulk Modulus (GPa) = 16.91616 30.61255 23.76435
# Shear Modulus (GPa) = 11.84919 24.76454 18.30686
#
# Velocity S-wave (km/s) = 2.40471 3.47644 2.98900
# Velocity P-wave (km/s) = 3.99570 5.57259 4.84868
#
# Compressibility (1/GPa) = 0.05911508
#
# Stress axis : x y z
#
# Youngs Moduli (GPa) = 97.45621 18.20404 87.95047
#
# Poissons Ratio (x) = 0.04497 0.01167
# Poissons Ratio (y) = 0.24076 0.53837
# Poissons Ratio (z) = 0.01293 0.11143
#
# Static dielectric constant tensor:
#      x y z
#    x 1.742360 0.000000 0.018060 
#    y 0.000000 1.699590 0.000000 
#    z 0.018060 0.000000 1.745340 
# 
# From -- ./inp_files/185469.got.cif
#   From: 2010.05.17/outbox.cif.g08.bks.cpg/sg15_93_cif.got.tgz:185469.got - 2010.06.03 18:47:42.
