data_PCOD9263742
_publ_section_title
;
Structure prediction by ZEFSAII (Michael W. Deem and Ramdas Pophale) SiO2 
 PCOD9263742
Probable space group: C 2/C
;
_chemical_formula_sum "Si O2"
_cell_formula_units_Z 40
_cell_length_a 7.283111
_cell_length_b 12.181545
_cell_length_c 19.121376
_cell_angle_alpha 90.000000
_cell_angle_beta 119.038174
_cell_angle_gamma 90.000000
_cell_volume 1483.191355
_symmetry_space_group_name_H-M "C 2/C"
_symmetry_group_IT_number 15
_symmetry_cell_setting 'monoclinic'
loop_
_space_group_symop_operation_xyz
x,y,z
-x,y,1/2-z
-x,-y,-z
x,-y,1/2+z
1/2+x,1/2+y,z
1/2-x,1/2+y,1/2-z
1/2-x,1/2-y,-z
1/2+x,1/2-y,1/2+z
loop_
_atom_site_type_symbol
_atom_site_label
_atom_site_fract_x
_atom_site_fract_y
_atom_site_fract_z
Si Si1 0.336642 0.412984 0.159452
Si Si2 0.809910 0.590383 0.163970
Si Si3 0.882769 0.867088 0.409934
Si Si4 0.417002 0.326600 0.660079
Si Si5 0.406422 0.022263 0.557590
O O1 0.500000 0.375109 0.250000
O O2 0.404855 0.365623 0.096040
O O3 0.355888 0.545893 0.159641
O O4 0.087753 0.402796 0.127154
O O5 0.740515 0.461765 0.158688
O O6 0.615731 0.666019 0.145717
O O7 0.000000 0.614159 0.250000
O O8 0.879536 0.588670 0.096910
O O9 0.775738 0.749781 0.394578
O O10 0.821201 0.919383 0.474938
O O11 0.500000 0.285432 0.750000
O O12 0.500000 0.000000 0.500000
#
# Coordination Sequence:
#
# PCOD9263742 Si02
#       5
#     8   8   8   8   8
#     4  10  21  39  63  87 122 160 203 261 316 363
#     4   9  18  37  61  85 126 160 202 265 314 366
#     4   9  21  37  59  87 122 155 209 252 307 378
#     4  10  19  34  59  93 118 157 208 261 313 372
#     4  10  22  41  63  85 125 168 202 250 320 374
#
# _framework density 26.968875000000001
#
# number of rings (size 3 to 8) (size 9 to 14) (size 15 to 20)
#    1.200    1.200    0.000    4.200    2.800    0.800 
#    7.200    2.000    0.000    0.000    0.000    0.000 
#    0.000    0.000    0.000    0.000    0.000    0.000 
#
# Total GULP energy -111684.710985 kJ/mol
# GULP energy per Si atom -5584.235549 kJ/mol
# Density = 2.690749 g / cm^3
# Si number density = 26.968875 Si / 1000 Ang^3
#
#
#
# Elastic Constant Matrix: (Units=GPa)
#
#
# Indices 1 2 3 4 5 6 
#
# 1 201.6446 26.4316 40.5884 0.0000 -34.1077 0.0000
# 2 26.4316 120.3157 3.0802 0.0000 -4.3890 0.0000
# 3 40.5884 3.0802 106.1614 0.0000 -22.6160 0.0000
# 4 0.0000 0.0000 0.0000 -7.4540 0.0000 3.5613
# 5 -34.1077 -4.3890 -22.6160 0.0000 58.1798 0.0000
# 6 0.0000 0.0000 0.0000 3.5613 0.0000 33.2961
#
#
#
# Elastic Compliance Matrix: (Units=1/GPa)
#
#
# Indices 1 2 3 4 5 6 
#
# 1 0.005904 -0.001155 -0.001641 0.000000 0.002736 0.000000
# 2 -0.001155 0.008562 0.000203 0.000000 0.000048 0.000000
# 3 -0.001641 0.000203 0.010728 0.000000 0.003224 0.000000
# 4 0.000000 0.000000 0.000000 -0.127633 0.000000 0.013652
# 5 0.002736 0.000048 0.003224 0.000000 0.020049 0.000000
# 6 0.000000 0.000000 0.000000 0.013652 0.000000 0.028573
#
#
# Mechanical properties :
#
#
# Convention : Reuss Voigt Hill
#
# Bulk Modulus (GPa) = 49.97937 63.14689 56.56313
# Shear Modulus (GPa) = -119.15176 40.67248 -39.23964
#
# Velocity S-wave (km/s) = -6.65411 3.88767 -3.81858
# Velocity P-wave (km/s) = 6.36111 6.60436 1.25576
#
# Compressibility (1/GPa) = 0.02000826
#
# Stress axis : x y z
#
# Youngs Moduli (GPa) = 169.38529 116.79831 93.21606
#
# Poissons Ratio (x) = 0.13492 0.15294
# Poissons Ratio (y) = 0.19566 -0.01896
# Poissons Ratio (z) = 0.27792 -0.02376
#
# Static dielectric constant tensor:
#      x y z
#    x 2.207960 0.000000 0.012390 
#    y 0.000000 2.107130 0.000000 
#    z 0.012390 0.000000 2.275490 
# 
# From -- ./inp_files/230496.got.cif
#   From: 2010.05.17/outbox.cif.g08.bks.cpg/sg15_116_cif.got.tgz:230496.got - 2010.06.03 18:47:42.
