data_PCOD9263903
_publ_section_title
;
Structure prediction by ZEFSAII (Michael W. Deem and Ramdas Pophale) SiO2 
 PCOD9263903
Probable space group: C 2/C
;
_chemical_formula_sum "Si O2"
_cell_formula_units_Z 56
_cell_length_a 8.940719
_cell_length_b 17.962179
_cell_length_c 26.091209
_cell_angle_alpha 90.000000
_cell_angle_beta 144.691828
_cell_angle_gamma 90.000000
_cell_volume 2421.776098
_symmetry_space_group_name_H-M "C 2/C"
_symmetry_group_IT_number 15
_symmetry_cell_setting 'monoclinic'
loop_
_space_group_symop_operation_xyz
x,y,z
-x,y,1/2-z
-x,-y,-z
x,-y,1/2+z
1/2+x,1/2+y,z
1/2-x,1/2+y,1/2-z
1/2-x,1/2-y,-z
1/2+x,1/2-y,1/2+z
loop_
_atom_site_type_symbol
_atom_site_label
_atom_site_fract_x
_atom_site_fract_y
_atom_site_fract_z
Si Si1 0.500000 0.911885 0.250000
Si Si2 0.369339 0.210122 0.889560
Si Si3 0.792453 0.794879 0.270049
Si Si4 0.500000 0.668818 0.250000
Si Si5 0.494334 0.456604 0.678288
Si Si6 0.204933 0.124389 0.141199
Si Si7 0.582024 0.986320 0.868766
Si Si8 0.961205 0.552128 0.939916
O O1 0.724269 0.860827 0.289457
O O2 0.389318 0.959206 0.171988
O O3 0.350689 0.189746 0.824015
O O4 0.438728 0.297244 0.907104
O O5 0.501628 0.140246 0.954266
O O6 0.087476 0.212996 0.837026
O O7 0.685724 0.720989 0.268161
O O8 0.633172 0.613676 0.328282
O O9 0.544902 0.429681 0.634411
O O10 0.782248 0.463680 0.780428
O O11 0.345468 0.532062 0.650921
O O12 0.500000 0.134825 0.250000
O O13 0.249955 0.084808 0.099527
O O14 0.612395 0.021608 0.932719
O O15 0.000000 0.500000 0.000000
#
# Coordination Sequence:
#
# PCOD9263903 Si02
#       8
#     4   8   8   4   8   8   8   8
#     4  11  18  30  54  95 120 144 188 237 302 344
#     4  11  20  36  57  84 121 152 187 241 304 343
#     4  10  20  29  58  97 121 140 182 257 304 352
#     4  11  18  32  58 101 122 138 194 255 308 352
#     4  11  20  35  64  88 115 155 196 250 301 352
#     4  10  19  34  62  96 118 138 195 255 307 352
#     4  11  20  36  64  90 117 150 199 250 297 356
#     4  12  27  41  56  84 125 167 207 237 288 359
#
# _framework density 23.123525000000001
#
# number of rings (size 3 to 8) (size 9 to 14) (size 15 to 20)
#    0.000    1.143    7.857    1.714    2.000    0.000 
#    0.000    2.143    0.000    0.000    0.000    0.000 
#    0.000    0.000    0.000    0.000    0.000    0.000 
#
# Total GULP energy -156307.793280 kJ/mol
# GULP energy per Si atom -5582.421189 kJ/mol
# Density = 2.307090 g / cm^3
# Si number density = 23.123525 Si / 1000 Ang^3
#
#
#
# Elastic Constant Matrix: (Units=GPa)
#
#
# Indices 1 2 3 4 5 6 
#
# 1 142.6681 54.9672 23.1843 -0.0002 -22.8073 -0.0002
# 2 54.9672 121.9686 7.4613 0.0000 0.0879 0.0000
# 3 23.1843 7.4613 25.8026 0.0000 -2.0736 0.0003
# 4 -0.0002 0.0000 0.0000 4.1139 0.0000 -9.5788
# 5 -22.8073 0.0879 -2.0736 0.0000 16.4829 0.0000
# 6 -0.0002 0.0000 0.0003 -9.5788 0.0000 53.5012
#
#
#
# Elastic Compliance Matrix: (Units=1/GPa)
#
#
# Indices 1 2 3 4 5 6 
#
# 1 0.013371 -0.005486 -0.009030 0.000001 0.017395 0.000000
# 2 -0.005486 0.010599 0.001263 0.000000 -0.007489 0.000000
# 3 -0.009030 0.001263 0.045965 -0.000002 -0.006719 -0.000001
# 4 0.000001 0.000000 -0.000002 0.416854 0.000001 0.074633
# 5 0.017395 -0.007489 -0.006719 0.000001 0.083932 0.000000
# 6 0.000000 0.000000 -0.000001 0.074633 0.000000 0.032053
#
#
# Mechanical properties :
#
#
# Convention : Reuss Voigt Hill
#
# Bulk Modulus (GPa) = 23.02664 51.29610 37.16137
# Shear Modulus (GPa) = 7.76689 28.47470 18.12080
#
# Velocity S-wave (km/s) = 1.83471 3.51296 2.80242
# Velocity P-wave (km/s) = 3.80367 6.21982 5.15530
#
# Compressibility (1/GPa) = 0.04342796
#
# Stress axis : x y z
#
# Youngs Moduli (GPa) = 74.78791 94.34515 21.75591
#
# Poissons Ratio (x) = 0.51758 0.19646
# Poissons Ratio (y) = 0.41029 -0.02747
# Poissons Ratio (z) = 0.67534 -0.11912
#
# Static dielectric constant tensor:
#      x y z
#    x 1.907430 0.000000 0.027370 
#    y 0.000000 1.938550 0.000000 
#    z 0.027370 0.000000 2.137690 
# 
# From -- ./inp_files/289464.got.cif
#   From: 2010.05.17/outbox.cif.g08.bks.cpg/sg15_145_cif.got.tgz:289464.got - 2010.06.03 18:47:42.
