data_PCOD9263764
_publ_section_title
;
Structure prediction by ZEFSAII (Michael W. Deem and Ramdas Pophale) SiO2 
 PCOD9263764
Probable space group: C 2/C
;
_chemical_formula_sum "Si O2"
_cell_formula_units_Z 64
_cell_length_a 19.629775
_cell_length_b 12.112700
_cell_length_c 18.121473
_cell_angle_alpha 90.000000
_cell_angle_beta 133.749803
_cell_angle_gamma 90.000000
_cell_volume 3112.485091
_symmetry_space_group_name_H-M "C 2/C"
_symmetry_group_IT_number 15
_symmetry_cell_setting 'monoclinic'
loop_
_space_group_symop_operation_xyz
x,y,z
-x,y,1/2-z
-x,-y,-z
x,-y,1/2+z
1/2+x,1/2+y,z
1/2-x,1/2+y,1/2-z
1/2-x,1/2-y,-z
1/2+x,1/2-y,1/2+z
loop_
_atom_site_type_symbol
_atom_site_label
_atom_site_fract_x
_atom_site_fract_y
_atom_site_fract_z
Si Si1 0.828369 0.112089 0.264124
Si Si2 0.625281 0.975122 0.618447
Si Si3 0.584295 0.168984 0.221561
Si Si4 0.882477 0.834971 0.969765
Si Si5 0.732776 0.032799 0.428654
Si Si6 0.715309 0.144070 0.794023
Si Si7 0.593299 0.387506 0.160350
Si Si8 0.392377 0.091619 0.036220
O O1 0.833475 0.137236 0.355700
O O2 0.824710 0.233011 0.226283
O O3 0.730661 0.054099 0.171210
O O4 0.903554 0.014220 0.310411
O O5 0.640819 0.074926 0.688205
O O6 0.574788 0.011676 0.505579
O O7 0.597126 0.869569 0.645501
O O8 0.662847 0.111948 0.329064
O O9 0.595713 0.299890 0.228991
O O10 0.478793 0.124804 0.154373
O O11 0.834813 0.912443 0.995517
O O12 0.864867 0.707883 0.978069
O O13 0.993377 0.861169 0.046897
O O14 0.690061 0.037373 0.477878
O O15 0.728958 0.917908 0.381912
O O16 0.815416 0.135389 0.824187
#
# Coordination Sequence:
#
# PCOD9263764 Si02
#       8
#     8   8   8   8   8   8   8   8
#     4  11  19  35  61  85 117 149 202 250 295 350
#     4  10  19  34  60  84 111 147 196 247 291 347
#     4  10  20  38  60  88 115 148 203 249 298 346
#     4  11  20  35  58  89 120 153 197 256 294 355
#     4  11  22  38  57  85 124 159 191 243 316 349
#     4  10  19  36  58  84 117 155 194 243 297 356
#     4  10  20  33  60  92 112 151 203 250 297 341
#     4  11  23  35  57  91 120 152 197 246 302 361
#
# _framework density 20.562348
#
# number of rings (size 3 to 8) (size 9 to 14) (size 15 to 20)
#    0.000    1.500    6.250    1.500    1.750    0.000 
#    0.000    0.625    0.000    0.000    6.500    0.000 
#    0.000    0.000    0.000    0.000    0.000    0.000 
#
# Total GULP energy -178446.110739 kJ/mol
# GULP energy per Si atom -5576.440961 kJ/mol
# Density = 2.051555 g / cm^3
# Si number density = 20.562348 Si / 1000 Ang^3
#
#
#
# Elastic Constant Matrix: (Units=GPa)
#
#
# Indices 1 2 3 4 5 6 
#
# 1 76.2652 21.9992 10.3195 0.0000 0.7160 0.0000
# 2 21.9992 129.6116 11.1128 0.0000 -10.8081 0.0000
# 3 10.3195 11.1128 43.2287 0.0000 1.5383 0.0000
# 4 0.0000 0.0000 0.0000 12.0858 0.0000 9.8693
# 5 0.7160 -10.8081 1.5383 0.0000 17.1987 0.0000
# 6 0.0000 0.0000 0.0000 9.8693 0.0000 18.6961
#
#
#
# Elastic Compliance Matrix: (Units=1/GPa)
#
#
# Indices 1 2 3 4 5 6 
#
# 1 0.014167 -0.002322 -0.002721 0.000000 -0.001806 0.000000
# 2 -0.002322 0.008753 -0.001901 0.000000 0.005768 0.000000
# 3 -0.002721 -0.001901 0.024387 0.000000 -0.003263 0.000000
# 4 0.000000 0.000000 0.000000 0.145435 0.000000 -0.076772
# 5 -0.001806 0.005768 -0.003263 0.000000 0.062136 0.000000
# 6 0.000000 0.000000 0.000000 -0.076772 0.000000 0.094014
#
#
# Mechanical properties :
#
#
# Convention : Reuss Voigt Hill
#
# Bulk Modulus (GPa) = 29.92240 37.32985 33.62612
# Shear Modulus (GPa) = 13.37186 23.30771 18.33979
#
# Velocity S-wave (km/s) = 2.55288 3.37042 2.98973
# Velocity P-wave (km/s) = 4.82423 5.77410 5.32041
#
# Compressibility (1/GPa) = 0.03341978
#
# Stress axis : x y z
#
# Youngs Moduli (GPa) = 70.58656 114.24110 41.00520
#
# Poissons Ratio (x) = 0.26525 0.11157
# Poissons Ratio (y) = 0.16389 0.07796
# Poissons Ratio (z) = 0.19205 0.21720
#
# Static dielectric constant tensor:
#      x y z
#    x 1.797870 0.000000 0.034120 
#    y 0.000000 1.763500 0.000000 
#    z 0.034120 0.000000 1.753720 
# 
# From -- ./inp_files/215058.got.cif
#   From: 2010.05.17/outbox.cif.g08.bks.cpg/sg15_108_cif.got.tgz:215058.got - 2010.06.03 18:47:42.
