data_PCOD9263914
_publ_section_title
;
Structure prediction by ZEFSAII (Michael W. Deem and Ramdas Pophale) SiO2 
 PCOD9263914
Probable space group: C 2/C
;
_chemical_formula_sum "Si O2"
_cell_formula_units_Z 56
_cell_length_a 12.342506
_cell_length_b 17.912191
_cell_length_c 17.297725
_cell_angle_alpha 90.000000
_cell_angle_beta 141.021582
_cell_angle_gamma 90.000000
_cell_volume 2405.529891
_symmetry_space_group_name_H-M "C 2/C"
_symmetry_group_IT_number 15
_symmetry_cell_setting 'monoclinic'
loop_
_space_group_symop_operation_xyz
x,y,z
-x,y,1/2-z
-x,-y,-z
x,-y,1/2+z
1/2+x,1/2+y,z
1/2-x,1/2+y,1/2-z
1/2-x,1/2-y,-z
1/2+x,1/2-y,1/2+z
loop_
_atom_site_type_symbol
_atom_site_label
_atom_site_fract_x
_atom_site_fract_y
_atom_site_fract_z
Si Si1 0.531744 0.690901 0.102282
Si Si2 0.841780 0.478492 0.970439
Si Si3 0.607807 0.618720 0.631196
Si Si4 0.074941 0.742834 0.207135
Si Si5 0.499048 0.088350 0.341681
Si Si6 0.636272 0.463838 0.711221
Si Si7 0.004871 0.348159 0.346368
O O1 0.722267 0.720354 0.181978
O O2 0.547206 0.616661 0.162109
O O3 0.461140 0.763040 0.108121
O O4 0.431020 0.656637 0.973092
O O5 0.847661 0.540110 0.039842
O O6 0.874082 0.401824 0.034960
O O7 0.683356 0.482603 0.825124
O O8 0.000000 0.500000 0.000000
O O9 0.529099 0.678959 0.645026
O O10 0.555143 0.533860 0.620436
O O11 0.812079 0.624709 0.760433
O O12 0.991453 0.671426 0.118590
O O13 0.000000 0.743212 0.250000
O O14 0.500000 0.089152 0.250000
O O15 0.317040 0.053131 0.266583
O O16 0.000000 0.354925 0.250000
#
# Coordination Sequence:
#
# PCOD9263914 Si02
#       7
#     8   8   8   8   8   8   8
#     4  10  24  40  62  88 131 164 204 258 316 376
#     4  10  19  34  63  88 120 155 212 267 291 362
#     4  11  22  39  66  87 130 167 201 262 320 372
#     4   9  21  39  62  92 121 157 214 252 306 370
#     4   9  17  33  59  90 115 147 207 261 295 350
#     4  10  21  39  58  89 122 164 204 248 326 367
#     4  11  24  41  65  97 120 166 224 257 308 372
#
# _framework density 23.279693999999999
#
# number of rings (size 3 to 8) (size 9 to 14) (size 15 to 20)
#    0.000    2.000    2.857    0.857    8.000    1.143 
#    0.000    3.571    0.000    0.000    0.000    0.000 
#    0.000    0.000    0.000    0.000    0.000    0.000 
#
# Total GULP energy -156280.202166 kJ/mol
# GULP energy per Si atom -5581.435792 kJ/mol
# Density = 2.322671 g / cm^3
# Si number density = 23.279694 Si / 1000 Ang^3
#
#
#
# Elastic Constant Matrix: (Units=GPa)
#
#
# Indices 1 2 3 4 5 6 
#
# 1 57.2243 38.0934 27.6755 0.0001 -8.6797 0.0000
# 2 38.0934 177.5759 20.6212 0.0001 -19.2095 0.0001
# 3 27.6755 20.6212 68.3418 0.0003 -23.5366 0.0001
# 4 0.0001 0.0001 0.0003 29.1685 0.0001 -17.0038
# 5 -8.6797 -19.2095 -23.5366 0.0001 30.6281 0.0000
# 6 0.0000 0.0001 0.0001 -17.0038 0.0000 37.2201
#
#
#
# Elastic Compliance Matrix: (Units=1/GPa)
#
#
# Indices 1 2 3 4 5 6 
#
# 1 0.024721 -0.004529 -0.009805 0.000000 -0.003369 0.000000
# 2 -0.004529 0.006896 0.001089 0.000000 0.003878 0.000000
# 3 -0.009805 0.001089 0.023870 0.000000 0.016248 0.000000
# 4 0.000000 0.000000 0.000000 0.046728 -0.000001 0.021348
# 5 -0.003369 0.003878 0.016248 -0.000001 0.046613 0.000000
# 6 0.000000 0.000000 0.000000 0.021348 0.000000 0.036620
#
#
# Mechanical properties :
#
#
# Convention : Reuss Voigt Hill
#
# Bulk Modulus (GPa) = 34.48605 52.88023 43.68314
# Shear Modulus (GPa) = 22.56292 33.85347 28.20819
#
# Velocity S-wave (km/s) = 3.11659 3.81754 3.48474
# Velocity P-wave (km/s) = 5.27227 6.49584 5.91578
#
# Compressibility (1/GPa) = 0.02899723
#
# Stress axis : x y z
#
# Youngs Moduli (GPa) = 40.45191 145.01072 41.89396
#
# Poissons Ratio (x) = 0.65675 0.41076
# Poissons Ratio (y) = 0.18321 -0.04562
# Poissons Ratio (z) = 0.39662 -0.15791
#
# Static dielectric constant tensor:
#      x y z
#    x 1.900390 0.000000 0.047960 
#    y 0.000000 1.954810 0.000000 
#    z 0.047960 0.000000 1.956530 
# 
# From -- ./inp_files/206295.got.cif
#   From: 2010.05.17/outbox.cif.g08.bks.cpg/sg15_104_cif.got.tgz:206295.got - 2010.06.03 18:47:42.
