data_PCOD9263929
_publ_section_title
;
Structure prediction by ZEFSAII (Michael W. Deem and Ramdas Pophale) SiO2 
 PCOD9263929
Probable space group: C 2/C
;
_chemical_formula_sum "Si O2"
_cell_formula_units_Z 56
_cell_length_a 14.189275
_cell_length_b 19.012440
_cell_length_c 14.837230
_cell_angle_alpha 90.000000
_cell_angle_beta 143.779107
_cell_angle_gamma 90.000000
_cell_volume 2365.183272
_symmetry_space_group_name_H-M "C 2/C"
_symmetry_group_IT_number 15
_symmetry_cell_setting 'monoclinic'
loop_
_space_group_symop_operation_xyz
x,y,z
-x,y,1/2-z
-x,-y,-z
x,-y,1/2+z
1/2+x,1/2+y,z
1/2-x,1/2+y,1/2-z
1/2-x,1/2-y,-z
1/2+x,1/2-y,1/2+z
loop_
_atom_site_type_symbol
_atom_site_label
_atom_site_fract_x
_atom_site_fract_y
_atom_site_fract_z
Si Si1 0.773143 0.075016 0.825951
Si Si2 0.806923 0.071723 0.448966
Si Si3 0.226627 0.935346 0.370905
Si Si4 0.544262 0.854754 0.642752
Si Si5 0.190539 0.677141 0.912605
Si Si6 0.914547 0.212260 0.595721
Si Si7 0.606007 0.081938 0.005202
O O1 0.850049 0.081069 0.785609
O O2 0.784698 0.143435 0.899982
O O3 0.580223 0.072422 0.663560
O O4 0.832078 0.001678 0.915499
O O5 0.837844 0.053995 0.577879
O O6 0.627235 0.094108 0.279069
O O7 0.875932 0.151850 0.494040
O O8 0.360658 0.876557 0.489745
O O9 0.318994 0.007028 0.419685
O O10 0.536052 0.772983 0.659117
O O11 0.621933 0.871099 0.606497
O O12 0.000000 0.685606 0.750000
O O13 0.250000 0.750000 0.000000
O O14 0.197839 0.617566 0.994419
O O15 0.750000 0.250000 0.500000
O O16 0.000000 0.179968 0.750000
#
# Coordination Sequence:
#
# PCOD9263929 Si02
#       7
#     8   8   8   8   8   8   8
#     4  10  20  35  60  90 115 157 210 260 302 373
#     4  12  21  36  65  87 127 159 207 265 314 364
#     4  11  18  32  61  96 116 155 209 267 303 360
#     4  11  20  36  59  95 125 157 202 262 313 367
#     4  10  22  42  63  89 122 161 205 261 321 369
#     4  12  24  40  58  89 129 174 204 245 321 385
#     4  10  19  34  63  96 120 151 220 266 310 360
#
# _framework density 23.676812999999999
#
# number of rings (size 3 to 8) (size 9 to 14) (size 15 to 20)
#    0.000    1.143    7.143    1.286    0.000    0.000 
#   10.286    0.714    0.000    0.857    0.000    0.000 
#    0.000    0.000    0.000    0.000    0.000    0.000 
#
# Total GULP energy -156259.530782 kJ/mol
# GULP energy per Si atom -5580.697528 kJ/mol
# Density = 2.362292 g / cm^3
# Si number density = 23.676813 Si / 1000 Ang^3
#
#
#
# Elastic Constant Matrix: (Units=GPa)
#
#
# Indices 1 2 3 4 5 6 
#
# 1 88.5841 26.4548 34.0412 -0.0001 -33.0316 -0.0002
# 2 26.4548 138.6302 51.4292 0.0000 -13.3155 0.0000
# 3 34.0412 51.4292 104.0181 -0.0001 -29.9849 -0.0002
# 4 -0.0001 0.0000 -0.0001 57.0607 -0.0001 -3.9174
# 5 -33.0316 -13.3155 -29.9849 -0.0001 39.7812 -0.0002
# 6 -0.0002 0.0000 -0.0002 -3.9174 -0.0002 9.7568
#
#
#
# Elastic Compliance Matrix: (Units=1/GPa)
#
#
# Indices 1 2 3 4 5 6 
#
# 1 0.016918 -0.001608 -0.001083 0.000000 0.012693 0.000001
# 2 -0.001608 0.008992 -0.004391 0.000000 -0.001635 0.000000
# 3 -0.001083 -0.004391 0.014636 0.000000 0.008663 0.000001
# 4 0.000000 0.000000 0.000000 0.018022 0.000000 0.007236
# 5 0.012693 -0.001635 0.008663 0.000000 0.041660 0.000001
# 6 0.000001 0.000000 0.000001 0.007236 0.000001 0.105397
#
#
# Mechanical properties :
#
#
# Convention : Reuss Voigt Hill
#
# Bulk Modulus (GPa) = 37.90193 61.67588 49.78891
# Shear Modulus (GPa) = 21.87382 35.94024 28.90703
#
# Velocity S-wave (km/s) = 3.04279 3.90032 3.49793
# Velocity P-wave (km/s) = 5.32800 6.81094 6.11459
#
# Compressibility (1/GPa) = 0.02638388
#
# Stress axis : x y z
#
# Youngs Moduli (GPa) = 59.10850 111.20737 68.32244
#
# Poissons Ratio (x) = 0.17877 0.07397
# Poissons Ratio (y) = 0.09502 0.30001
# Poissons Ratio (z) = 0.06400 0.48832
#
# Static dielectric constant tensor:
#      x y z
#    x 2.001820 0.000000 0.004200 
#    y 0.000000 1.924730 0.000000 
#    z 0.004200 0.000000 1.978860 
# 
# From -- ./inp_files/163083.got.cif
#   From: 2010.05.17/outbox.cif.g08.bks.cpg/sg15_82_cif.got.tgz:163083.got - 2010.06.03 18:47:42.
