data_PCOD9263261
_publ_section_title
;
Structure prediction by ZEFSAII (Michael W. Deem and Ramdas Pophale) SiO2 
 PCOD9263261
Probable space group: C 2/C
;
_chemical_formula_sum "Si O2"
_cell_formula_units_Z 40
_cell_length_a 25.201224
_cell_length_b 8.800724
_cell_length_c 8.064992
_cell_angle_alpha 90.000000
_cell_angle_beta 66.859673
_cell_angle_gamma 90.000000
_cell_volume 1644.814872
_symmetry_space_group_name_H-M "C 2/C"
_symmetry_group_IT_number 15
_symmetry_cell_setting 'monoclinic'
loop_
_space_group_symop_operation_xyz
x,y,z
-x,y,1/2-z
-x,-y,-z
x,-y,1/2+z
1/2+x,1/2+y,z
1/2-x,1/2+y,1/2-z
1/2-x,1/2-y,-z
1/2+x,1/2-y,1/2+z
loop_
_atom_site_type_symbol
_atom_site_label
_atom_site_fract_x
_atom_site_fract_y
_atom_site_fract_z
Si Si1 0.937520 0.537329 0.145925
Si Si2 0.274934 0.896325 0.072492
Si Si3 0.361916 0.154804 0.930635
Si Si4 0.846147 0.941127 0.146262
Si Si5 0.114502 0.221618 0.562825
O O1 0.911628 0.377802 0.238609
O O2 0.931433 0.656227 0.308899
O O3 0.893712 0.602038 0.062408
O O4 0.000000 0.500000 0.000000
O O5 0.222235 0.967851 0.239750
O O6 0.250000 0.750000 0.000000
O O7 0.330645 0.812134 0.079478
O O8 0.308314 0.043093 0.955736
O O9 0.345749 0.325714 0.990736
O O10 0.866055 0.859943 0.289589
O O11 0.889787 0.077947 0.052660
#
# Coordination Sequence:
#
# PCOD9263261 Si02
#       5
#     8   8   8   8   8
#     4  10  21  40  61  83 113 154 206 258 301 357
#     4   9  18  35  55  82 120 155 188 234 288 353
#     4  10  21  36  60  88 113 153 202 244 302 368
#     4  10  19  34  54  85 122 151 185 241 298 357
#     4   9  20  35  55  84 119 153 194 241 293 359
#
# _framework density 24.318847999999999
#
# number of rings (size 3 to 8) (size 9 to 14) (size 15 to 20)
#    0.000    2.400    0.000    3.000    0.000    6.400 
#    0.000    7.000    0.000    7.200    0.000    4.200 
#    0.000    0.000    0.000    0.000    0.000    0.000 
#
# Total GULP energy -111409.715907 kJ/mol
# GULP energy per Si atom -5570.485795 kJ/mol
# Density = 2.426350 g / cm^3
# Si number density = 24.318848 Si / 1000 Ang^3
#
#
#
# Elastic Constant Matrix: (Units=GPa)
#
#
# Indices 1 2 3 4 5 6 
#
# 1 70.7139 35.8789 49.3272 0.0000 -15.7828 0.0000
# 2 35.8789 132.5778 51.0659 0.0000 -28.5300 0.0000
# 3 49.3272 51.0659 130.0944 0.0000 -47.6480 0.0000
# 4 0.0000 0.0000 0.0000 57.8442 0.0000 11.1972
# 5 -15.7828 -28.5300 -47.6480 0.0000 50.6702 0.0000
# 6 0.0000 0.0000 0.0000 11.1972 0.0000 17.5397
#
#
#
# Elastic Compliance Matrix: (Units=1/GPa)
#
#
# Indices 1 2 3 4 5 6 
#
# 1 0.020343 -0.003190 -0.007319 0.000000 -0.002342 0.000000
# 2 -0.003190 0.009622 -0.001445 0.000000 0.003066 0.000000
# 3 -0.007319 -0.001445 0.015095 0.000000 0.011101 0.000000
# 4 0.000000 0.000000 0.000000 0.019725 0.000000 -0.012593
# 5 -0.002342 0.003066 0.011101 0.000000 0.031171 0.000000
# 6 0.000000 0.000000 0.000000 -0.012593 0.000000 0.065053
#
#
# Mechanical properties :
#
#
# Convention : Reuss Voigt Hill
#
# Bulk Modulus (GPa) = 47.27570 67.32558 57.30064
# Shear Modulus (GPa) = 26.04612 38.35175 32.19894
#
# Velocity S-wave (km/s) = 3.27620 3.97550 3.64267
# Velocity P-wave (km/s) = 5.81322 6.98695 6.42693
#
# Compressibility (1/GPa) = 0.02115251
#
# Stress axis : x y z
#
# Youngs Moduli (GPa) = 49.15763 103.92595 66.24815
#
# Poissons Ratio (x) = 0.33155 0.48486
# Poissons Ratio (y) = 0.15682 0.09570
# Poissons Ratio (z) = 0.35978 0.15012
#
# Static dielectric constant tensor:
#      x y z
#    x 1.982840 0.000000 0.109680 
#    y 0.000000 2.042820 0.000000 
#    z 0.109680 0.000000 2.013470 
# 
# From -- ./inp_files/59997.got.cif
#   From: 2010.05.17/outbox.cif.g08.bks.cpg/sg15_30_cif.got.tgz:59997.got - 2010.06.03 18:47:42.
