data_PCOD9263855
_publ_section_title
;
Structure prediction by ZEFSAII (Michael W. Deem and Ramdas Pophale) SiO2 
 PCOD9263855
Probable space group: C 2/C
;
_chemical_formula_sum "Si O2"
_cell_formula_units_Z 40
_cell_length_a 9.988562
_cell_length_b 29.843418
_cell_length_c 11.233637
_cell_angle_alpha 90.000000
_cell_angle_beta 41.878339
_cell_angle_gamma 90.000000
_cell_volume 2235.406165
_symmetry_space_group_name_H-M "C 2/C"
_symmetry_group_IT_number 15
_symmetry_cell_setting 'monoclinic'
loop_
_space_group_symop_operation_xyz
x,y,z
-x,y,1/2-z
-x,-y,-z
x,-y,1/2+z
1/2+x,1/2+y,z
1/2-x,1/2+y,1/2-z
1/2-x,1/2-y,-z
1/2+x,1/2-y,1/2+z
loop_
_atom_site_type_symbol
_atom_site_label
_atom_site_fract_x
_atom_site_fract_y
_atom_site_fract_z
Si Si1 0.609387 0.000680 0.555891
Si Si2 0.809039 0.199645 0.116574
Si Si3 0.500000 0.912771 0.250000
Si Si4 0.000000 0.941727 0.250000
Si Si5 0.656605 0.632594 0.828076
Si Si6 0.401519 0.799463 0.003600
O O1 0.500000 0.982389 0.750000
O O2 0.814294 0.973538 0.406789
O O3 0.500000 0.000000 0.500000
O O4 0.613466 0.053373 0.584542
O O5 0.704699 0.200598 0.055338
O O6 0.633829 0.189897 0.326564
O O7 0.886596 0.250686 0.074647
O O8 0.982120 0.162746 0.001043
O O9 0.674261 0.884781 0.195130
O O10 0.936494 0.909036 0.183633
O O11 0.775858 0.664749 0.659309
#
# Coordination Sequence:
#
# PCOD9263855 Si02
#       6
#     8   8   4   4   8   8
#     4  10  23  45  68  96 131 168 212 278 343 389
#     4  10  19  34  62  93 125 165 209 265 323 366
#     4  10  26  46  62  90 138 162 212 282 328 394
#     4  12  22  40  74  92 122 170 224 266 332 396
#     4  12  22  40  61  97 122 167 218 267 313 395
#     4  10  19  34  61  94 125 161 210 269 313 372
#
# _framework density 17.893840999999998
#
# number of rings (size 3 to 8) (size 9 to 14) (size 15 to 20)
#    0.600    0.800    6.000    0.000    0.000    4.800 
#    3.600    1.000    0.000    0.000    0.000    0.000 
#    0.000    0.000    0.000    0.000    0.000    0.000 
#
# Total GULP energy -111427.540275 kJ/mol
# GULP energy per Si atom -5571.377014 kJ/mol
# Density = 1.785311 g / cm^3
# Si number density = 17.893841 Si / 1000 Ang^3
#
#
#
# Elastic Constant Matrix: (Units=GPa)
#
#
# Indices 1 2 3 4 5 6 
#
# 1 88.3815 35.5707 41.5514 0.0000 -20.3305 0.0000
# 2 35.5707 87.2049 65.4640 0.0000 -26.6670 0.0000
# 3 41.5514 65.4640 153.9841 0.0000 -28.6403 0.0000
# 4 0.0000 0.0000 0.0000 28.2793 0.0000 -24.9364
# 5 -20.3305 -26.6670 -28.6403 0.0000 28.3610 0.0000
# 6 0.0000 0.0000 0.0000 -24.9364 0.0000 15.3272
#
#
#
# Elastic Compliance Matrix: (Units=1/GPa)
#
#
# Indices 1 2 3 4 5 6 
#
# 1 0.014643 -0.002907 -0.001565 0.000000 0.006182 0.000000
# 2 -0.002907 0.020475 -0.005820 0.000000 0.011290 0.000000
# 3 -0.001565 -0.005820 0.010052 0.000000 0.003557 0.000000
# 4 0.000000 0.000000 0.000000 -0.081363 0.000000 -0.132372
# 5 0.006182 0.011290 0.003557 0.000000 0.053899 0.000000
# 6 0.000000 0.000000 0.000000 -0.132372 0.000000 -0.150118
#
#
# Mechanical properties :
#
#
# Convention : Reuss Voigt Hill
#
# Bulk Modulus (GPa) = 40.67571 68.30476 54.49024
# Shear Modulus (GPa) = -48.24783 26.85913 -10.69435
#
# Velocity S-wave (km/s) = -5.19826 3.87851 -2.44735
# Velocity P-wave (km/s) = 3.63980 7.63624 4.74679
#
# Compressibility (1/GPa) = 0.02458470
#
# Stress axis : x y z
#
# Youngs Moduli (GPa) = 68.29360 48.84076 99.47792
#
# Poissons Ratio (x) = 0.14198 0.15573
# Poissons Ratio (y) = 0.19853 0.57897
# Poissons Ratio (z) = 0.10691 0.28426
#
# Static dielectric constant tensor:
#      x y z
#    x 1.630960 0.000000 0.032940 
#    y 0.000000 1.613190 0.000000 
#    z 0.032940 0.000000 1.620660 
# 
# From -- ./inp_files/82009.got.cif
#   From: 2010.05.17/outbox.cif.g08.bks.cpg/sg15_42_cif.got.tgz:82009.got - 2010.06.03 18:47:42.
