data_PCOD9263117
_publ_section_title
;
Structure prediction by ZEFSAII (Michael W. Deem and Ramdas Pophale) SiO2 
 PCOD9263117
Probable space group: C 2/C
;
_chemical_formula_sum "Si O2"
_cell_formula_units_Z 56
_cell_length_a 27.336486
_cell_length_b 17.621536
_cell_length_c 5.635191
_cell_angle_alpha 90.000000
_cell_angle_beta 114.896855
_cell_angle_gamma 90.000000
_cell_volume 2462.263434
_symmetry_space_group_name_H-M "C 2/C"
_symmetry_group_IT_number 15
_symmetry_cell_setting 'monoclinic'
loop_
_space_group_symop_operation_xyz
x,y,z
-x,y,1/2-z
-x,-y,-z
x,-y,1/2+z
1/2+x,1/2+y,z
1/2-x,1/2+y,1/2-z
1/2-x,1/2-y,-z
1/2+x,1/2-y,1/2+z
loop_
_atom_site_type_symbol
_atom_site_label
_atom_site_fract_x
_atom_site_fract_y
_atom_site_fract_z
Si Si1 0.886476 0.956674 0.343679
Si Si2 0.215150 0.679935 0.666066
Si Si3 0.665649 0.968006 0.211994
Si Si4 0.555528 0.706119 0.603170
Si Si5 0.316629 0.328372 0.695549
Si Si6 0.268840 0.566493 0.450705
Si Si7 0.067809 0.781546 0.636192
O O1 0.913175 0.873754 0.354393
O O2 0.900364 0.995974 0.627385
O O3 0.821532 0.944086 0.219371
O O4 0.175291 0.622554 0.726956
O O5 0.188739 0.761998 0.617682
O O6 0.229324 0.634399 0.458423
O O7 0.273918 0.691204 0.905704
O O8 0.642241 0.000269 0.412760
O O9 0.727372 0.999079 0.323874
O O10 0.492140 0.683606 0.478533
O O11 0.569003 0.756335 0.398099
O O12 0.567800 0.751135 0.870464
O O13 0.295942 0.404467 0.766741
O O14 0.378489 0.331950 0.752040
#
# Coordination Sequence:
#
# PCOD9263117 Si02
#       7
#     8   8   8   8   8   8   8
#     4  12  24  35  57  79 106 145 195 238 269 326
#     4  10  22  35  53  81 107 143 185 235 272 329
#     4  10  19  34  51  70 102 141 176 212 262 318
#     4  10  21  40  57  73 106 137 188 224 297 311
#     4  11  21  36  56  79 107 140 193 230 279 325
#     4  11  21  34  55  75 110 149 186 224 276 329
#     4  10  21  38  58  75 100 147 175 237 279 340
#
# _framework density 22.743300999999999
#
# number of rings (size 3 to 8) (size 9 to 14) (size 15 to 20)
#    0.000    1.429    2.857    3.857    2.000    0.000 
#    0.000    8.571    3.143    0.000    0.000    0.000 
#    0.000    0.000    0.000   61.714    2.286    0.000 
#
# Total GULP energy -155970.919682 kJ/mol
# GULP energy per Si atom -5570.389989 kJ/mol
# Density = 2.269154 g / cm^3
# Si number density = 22.743301 Si / 1000 Ang^3
#
#
#
# Elastic Constant Matrix: (Units=GPa)
#
#
# Indices 1 2 3 4 5 6 
#
# 1 51.1790 2.1483 24.9024 0.0000 -4.5092 0.0000
# 2 2.1483 61.6757 -4.9564 0.0000 -5.6201 0.0000
# 3 24.9024 -4.9564 129.4482 0.0000 -46.1477 0.0000
# 4 0.0000 0.0000 0.0000 16.9586 0.0000 -3.8332
# 5 -4.5092 -5.6201 -46.1477 0.0000 35.5292 0.0000
# 6 0.0000 0.0000 0.0000 -3.8332 0.0000 9.6485
#
#
#
# Elastic Compliance Matrix: (Units=1/GPa)
#
#
# Indices 1 2 3 4 5 6 
#
# 1 0.022224 -0.001817 -0.006410 0.000000 -0.005792 0.000000
# 2 -0.001817 0.017206 0.003532 0.000000 0.007078 0.000000
# 3 -0.006410 0.003532 0.016766 0.000000 0.021522 0.000000
# 4 0.000000 0.000000 0.000000 0.064785 0.000000 0.025738
# 5 -0.005792 0.007078 0.021522 0.000000 0.056484 0.000000
# 6 0.000000 0.000000 0.000000 0.025738 0.000000 0.113868
#
#
# Mechanical properties :
#
#
# Convention : Reuss Voigt Hill
#
# Bulk Modulus (GPa) = 21.36501 31.83237 26.59869
# Shear Modulus (GPa) = 15.80651 27.10783 21.45717
#
# Velocity S-wave (km/s) = 2.63914 3.45614 3.07490
# Velocity P-wave (km/s) = 4.32448 5.47296 4.93226
#
# Compressibility (1/GPa) = 0.04680551
#
# Stress axis : x y z
#
# Youngs Moduli (GPa) = 44.99629 58.11946 59.64522
#
# Poissons Ratio (x) = 0.10560 0.38232
# Poissons Ratio (y) = 0.08176 -0.21065
# Poissons Ratio (z) = 0.28842 -0.20526
#
# Static dielectric constant tensor:
#      x y z
#    x 1.841350 0.000000 -0.074090 
#    y 0.000000 1.837730 0.000000 
#    z -0.074090 0.000000 2.051840 
# 
# From -- ./inp_files/17218.got.cif
#   From: 2010.05.17/outbox.cif.g08.bks.cpg/sg15_9_cif.got.tgz:17218.got - 2010.06.03 18:47:42.
