data_PCOD9263867
_publ_section_title
;
Structure prediction by ZEFSAII (Michael W. Deem and Ramdas Pophale) SiO2 
 PCOD9263867
Probable space group: C 2/C
;
_chemical_formula_sum "Si O2"
_cell_formula_units_Z 64
_cell_length_a 8.726606
_cell_length_b 30.093290
_cell_length_c 17.276154
_cell_angle_alpha 90.000000
_cell_angle_beta 37.933348
_cell_angle_gamma 90.000000
_cell_volume 2789.052340
_symmetry_space_group_name_H-M "C 2/C"
_symmetry_group_IT_number 15
_symmetry_cell_setting 'monoclinic'
loop_
_space_group_symop_operation_xyz
x,y,z
-x,y,1/2-z
-x,-y,-z
x,-y,1/2+z
1/2+x,1/2+y,z
1/2-x,1/2+y,1/2-z
1/2-x,1/2-y,-z
1/2+x,1/2-y,1/2+z
loop_
_atom_site_type_symbol
_atom_site_label
_atom_site_fract_x
_atom_site_fract_y
_atom_site_fract_z
Si Si1 0.554572 0.871991 0.135997
Si Si2 0.085778 0.019449 0.549197
Si Si3 0.727395 0.156767 0.331655
Si Si4 0.233596 0.879603 0.000941
Si Si5 0.637375 0.311431 0.268349
Si Si6 0.509770 0.249665 0.445595
Si Si7 0.411902 0.329440 0.589427
Si Si8 0.568551 0.025701 0.814567
O O1 0.500000 0.865448 0.250000
O O2 0.386190 0.838333 0.154699
O O3 0.474443 0.922319 0.150784
O O4 0.838014 0.859262 0.006567
O O5 0.115015 0.072562 0.535308
O O6 0.859040 0.011123 0.699820
O O7 0.364617 0.000196 0.446781
O O8 0.000000 0.000000 0.500000
O O9 0.512668 0.119973 0.422395
O O10 0.620147 0.201264 0.414373
O O11 0.771991 0.170699 0.225218
O O12 0.000000 0.142865 0.250000
O O13 0.242769 0.853217 0.916568
O O14 0.055012 0.848995 0.124167
O O15 0.500000 0.290207 0.250000
O O16 0.686560 0.276947 0.316936
O O17 0.250000 0.250000 0.500000
O O18 0.476365 0.280030 0.534092
O O19 0.500000 0.020284 0.750000
#
# Coordination Sequence:
#
# PCOD9263867 Si02
#       8
#     8   8   8   8   8   8   8   8
#     4  11  19  40  63  96 124 165 222 275 325 393
#     4  10  19  34  62 103 128 162 213 283 333 397
#     4  12  29  43  62  97 139 177 225 281 343 413
#     4  11  22  44  65  94 134 174 224 275 340 404
#     4  11  24  38  67  92 128 178 224 270 341 402
#     4  11  24  42  64  92 128 173 234 280 337 390
#     4  11  24  41  67  92 126 177 224 286 336 387
#     4   9  18  31  58  94 131 154 208 272 325 392
#
# _framework density 22.946861999999999
#
# number of rings (size 3 to 8) (size 9 to 14) (size 15 to 20)
#    0.000    1.250    6.250    1.875    5.250    4.500 
#    0.000    0.000    0.000    1.500    0.000    0.000 
#    0.000    0.000    0.000    0.000    0.000    0.000 
#
# Total GULP energy -178916.370276 kJ/mol
# GULP energy per Si atom -5591.136571 kJ/mol
# Density = 2.289463 g / cm^3
# Si number density = 22.946862 Si / 1000 Ang^3
#
#
#
# Elastic Constant Matrix: (Units=GPa)
#
#
# Indices 1 2 3 4 5 6 
#
# 1 50.6554 1.9787 33.4506 0.0000 -21.4767 0.0000
# 2 1.9787 66.6677 43.8416 0.0000 -9.0195 0.0000
# 3 33.4506 43.8416 132.4494 0.0000 -23.9108 0.0000
# 4 0.0000 0.0000 0.0000 17.6053 0.0000 -12.5054
# 5 -21.4767 -9.0195 -23.9108 0.0000 43.8898 0.0000
# 6 0.0000 0.0000 0.0000 -12.5054 0.0000 22.6513
#
#
#
# Elastic Compliance Matrix: (Units=1/GPa)
#
#
# Indices 1 2 3 4 5 6 
#
# 1 0.029032 0.005305 -0.007017 0.000000 0.011474 0.000000
# 2 0.005305 0.020154 -0.007536 0.000000 0.002632 0.000000
# 3 -0.007017 -0.007536 0.012108 0.000000 0.001614 0.000000
# 4 0.000000 0.000000 0.000000 0.093447 0.000000 0.051591
# 5 0.011474 0.002632 0.001614 0.000000 0.029819 0.000000
# 6 0.000000 0.000000 0.000000 0.051591 0.000000 0.072630
#
#
# Mechanical properties :
#
#
# Convention : Reuss Voigt Hill
#
# Bulk Modulus (GPa) = 23.36492 45.36825 34.36659
# Shear Modulus (GPa) = 17.24423 28.19604 22.72013
#
# Velocity S-wave (km/s) = 2.74430 3.50916 3.15003
# Velocity P-wave (km/s) = 4.49954 6.01937 5.31407
#
# Compressibility (1/GPa) = 0.04279921
#
# Stress axis : x y z
#
# Youngs Moduli (GPa) = 34.44437 49.61792 82.59038
#
# Poissons Ratio (x) = -0.26322 0.57952
# Poissons Ratio (y) = -0.18273 0.62238
# Poissons Ratio (z) = 0.24169 0.37391
#
# Static dielectric constant tensor:
#      x y z
#    x 1.916110 0.000000 -0.030100 
#    y 0.000000 1.821010 0.000000 
#    z -0.030100 0.000000 1.915770 
# 
# From -- ./inp_files/194245.got.cif
#   From: 2010.05.17/outbox.cif.g08.bks.cpg/sg15_98_cif.got.tgz:194245.got - 2010.06.03 18:47:42.
