data_PCOD9263601
_publ_section_title
;
Structure prediction by ZEFSAII (Michael W. Deem and Ramdas Pophale) SiO2 
 PCOD9263601
Probable space group: C 2/C
;
_chemical_formula_sum "Si O2"
_cell_formula_units_Z 44
_cell_length_a 14.021633
_cell_length_b 15.990368
_cell_length_c 11.372567
_cell_angle_alpha 90.000000
_cell_angle_beta 130.125763
_cell_angle_gamma 90.000000
_cell_volume 1949.700280
_symmetry_space_group_name_H-M "C 2/C"
_symmetry_group_IT_number 15
_symmetry_cell_setting 'monoclinic'
loop_
_space_group_symop_operation_xyz
x,y,z
-x,y,1/2-z
-x,-y,-z
x,-y,1/2+z
1/2+x,1/2+y,z
1/2-x,1/2+y,1/2-z
1/2-x,1/2-y,-z
1/2+x,1/2-y,1/2+z
loop_
_atom_site_type_symbol
_atom_site_label
_atom_site_fract_x
_atom_site_fract_y
_atom_site_fract_z
Si Si1 0.306420 0.634050 0.773571
Si Si2 0.747819 0.919287 0.477104
Si Si3 0.500000 0.379825 0.750000
Si Si4 0.554613 0.157203 0.462869
Si Si5 0.000000 0.194753 0.750000
Si Si6 0.500000 0.024323 0.250000
Si Si7 0.118725 0.265863 0.496183
O O1 0.295638 0.576049 0.879739
O O2 0.188094 0.620894 0.598587
O O3 0.422502 0.638413 0.778642
O O4 0.304188 0.727062 0.832935
O O5 0.697685 0.826180 0.474048
O O6 0.871061 0.932289 0.656610
O O7 0.622507 0.973034 0.381267
O O8 0.456848 0.313149 0.616626
O O9 0.569779 0.239176 0.392495
O O10 0.471128 0.088159 0.332554
O O11 0.488726 0.178544 0.531917
#
# Coordination Sequence:
#
# PCOD9263601 Si02
#       7
#     8   8   4   8   4   4   8
#     4  10  19  34  58  85 113 147 192 249 301 336
#     4  11  22  36  58  89 124 156 192 239 292 357
#     4  10  19  36  60  92 123 146 188 248 304 340
#     4  10  20  37  59  83 118 156 195 241 284 355
#     4   9  20  34  56  86 112 147 196 250 306 339
#     4  11  25  40  56  86 121 167 202 220 280 359
#     4  10  19  34  62  93 115 144 191 253 310 340
#
# _framework density 22.567571999999998
#
# number of rings (size 3 to 8) (size 9 to 14) (size 15 to 20)
#    0.000    1.818    0.000    6.545    0.000    2.909 
#    0.000    0.909    0.000    6.545    0.000    0.000 
#    0.000    0.000    0.000    0.000    0.000    0.000 
#
# Total GULP energy -122520.589912 kJ/mol
# GULP energy per Si atom -5569.117723 kJ/mol
# Density = 2.251621 g / cm^3
# Si number density = 22.567572 Si / 1000 Ang^3
#
#
#
# Elastic Constant Matrix: (Units=GPa)
#
#
# Indices 1 2 3 4 5 6 
#
# 1 111.0608 12.1087 20.3905 0.0000 -6.4634 0.0000
# 2 12.1087 52.4267 15.4092 0.0000 13.4310 0.0000
# 3 20.3905 15.4092 90.4413 0.0000 21.0428 0.0000
# 4 0.0000 0.0000 0.0000 29.2740 0.0000 5.6330
# 5 -6.4634 13.4310 21.0428 0.0000 39.7571 0.0000
# 6 0.0000 0.0000 0.0000 5.6330 0.0000 -3.0578
#
#
#
# Elastic Compliance Matrix: (Units=1/GPa)
#
#
# Indices 1 2 3 4 5 6 
#
# 1 0.010010 -0.002512 -0.002743 0.000000 0.003928 0.000000
# 2 -0.002512 0.021898 -0.001538 0.000000 -0.006992 0.000000
# 3 -0.002743 -0.001538 0.013594 0.000000 -0.007122 0.000000
# 4 0.000000 0.000000 0.000000 0.025220 0.000000 0.046460
# 5 0.003928 -0.006992 -0.007122 0.000000 0.031923 0.000000
# 6 0.000000 0.000000 0.000000 0.046460 0.000000 -0.241444
#
#
# Mechanical properties :
#
#
# Convention : Reuss Voigt Hill
#
# Bulk Modulus (GPa) = 31.33112 38.86063 35.09588
# Shear Modulus (GPa) = -43.63926 26.92937 -8.35495
#
# Velocity S-wave (km/s) = -4.40217 3.45813 -1.92620
# Velocity P-wave (km/s) = 3.45333 5.76211 3.26163
#
# Compressibility (1/GPa) = 0.03191714
#
# Stress axis : x y z
#
# Youngs Moduli (GPa) = 99.89926 45.66694 73.56076
#
# Poissons Ratio (x) = 0.11472 0.20175
# Poissons Ratio (y) = 0.25095 0.11311
# Poissons Ratio (z) = 0.27399 0.07022
#
# Static dielectric constant tensor:
#      x y z
#    x 1.907960 0.000000 0.035680 
#    y 0.000000 1.891460 0.000000 
#    z 0.035680 0.000000 1.903130 
# 
# From -- ./inp_files/98167.got.cif
#   From: 2010.05.17/outbox.cif.g08.bks.cpg/sg15_50_cif.got.tgz:98167.got - 2010.06.03 18:47:42.
