data_PCOD9263008
_publ_section_title
;
Structure prediction by ZEFSAII (Michael W. Deem and Ramdas Pophale) SiO2 
 PCOD9263008
Probable space group: C 2/C
;
_chemical_formula_sum "Si O2"
_cell_formula_units_Z 40
_cell_length_a 7.828379
_cell_length_b 13.996853
_cell_length_c 14.525986
_cell_angle_alpha 90.000000
_cell_angle_beta 68.988712
_cell_angle_gamma 90.000000
_cell_volume 1485.821882
_symmetry_space_group_name_H-M "C 2/C"
_symmetry_group_IT_number 15
_symmetry_cell_setting 'monoclinic'
loop_
_space_group_symop_operation_xyz
x,y,z
-x,y,1/2-z
-x,-y,-z
x,-y,1/2+z
1/2+x,1/2+y,z
1/2-x,1/2+y,1/2-z
1/2-x,1/2-y,-z
1/2+x,1/2-y,1/2+z
loop_
_atom_site_type_symbol
_atom_site_label
_atom_site_fract_x
_atom_site_fract_y
_atom_site_fract_z
Si Si1 0.712557 0.438088 0.700070
Si Si2 0.240687 0.479671 0.613218
Si Si3 0.108779 0.897190 0.094165
Si Si4 0.060725 0.329591 0.134273
Si Si5 0.441724 0.779405 0.559358
O O1 0.500000 0.403213 0.750000
O O2 0.792170 0.426483 0.785877
O O3 0.690096 0.546767 0.666027
O O4 0.843752 0.377216 0.608987
O O5 0.267582 0.414463 0.519754
O O6 0.428120 0.538468 0.602406
O O7 0.086160 0.557020 0.623945
O O8 0.057180 0.786047 0.107383
O O9 0.263518 0.287911 0.083998
O O10 0.000000 0.307572 0.250000
O O11 0.966512 0.291095 0.059436
#
# Coordination Sequence:
#
# PCOD9263008 Si02
#       5
#     8   8   8   8   8
#     4  10  19  33  59  89 120 165 204 254 318 368
#     4   9  18  33  55  82 118 159 204 255 312 369
#     4   9  18  33  53  88 123 154 209 261 303 376
#     4  10  20  33  53  86 118 153 206 261 304 372
#     4  10  20  32  55  90 122 151 208 266 300 378
#
# _framework density 26.921129000000001
#
# number of rings (size 3 to 8) (size 9 to 14) (size 15 to 20)
#    0.000    2.400    2.000    0.600   11.200    0.000 
#    0.000    1.000    0.000    7.200    5.200   11.200 
#    0.000    0.000    0.000    0.000    0.000    0.000 
#
# Total GULP energy -111858.708581 kJ/mol
# GULP energy per Si atom -5592.935429 kJ/mol
# Density = 2.685986 g / cm^3
# Si number density = 26.921129 Si / 1000 Ang^3
#
#
#
# Elastic Constant Matrix: (Units=GPa)
#
#
# Indices 1 2 3 4 5 6 
#
# 1 123.7349 17.2217 27.2912 0.0000 -10.5107 0.0000
# 2 17.2217 106.9606 42.4439 0.0000 2.5185 0.0000
# 3 27.2912 42.4439 191.1300 0.0000 7.9695 0.0000
# 4 0.0000 0.0000 0.0000 21.8788 0.0000 -3.4045
# 5 -10.5107 2.5185 7.9695 0.0000 27.9118 0.0000
# 6 0.0000 0.0000 0.0000 -3.4045 0.0000 32.1391
#
#
#
# Elastic Compliance Matrix: (Units=1/GPa)
#
#
# Indices 1 2 3 4 5 6 
#
# 1 0.008805 -0.001036 -0.001183 0.000000 0.003747 0.000000
# 2 -0.001036 0.010377 -0.002126 0.000000 -0.000719 0.000000
# 3 -0.001183 -0.002126 0.005955 0.000000 -0.001954 0.000000
# 4 0.000000 0.000000 0.000000 0.046472 0.000000 0.004923
# 5 0.003747 -0.000719 -0.001954 0.000000 0.037861 0.000000
# 6 0.000000 0.000000 0.000000 0.004923 0.000000 0.031636
#
#
# Mechanical properties :
#
#
# Convention : Reuss Voigt Hill
#
# Bulk Modulus (GPa) = 60.81044 66.19323 63.50184
# Shear Modulus (GPa) = 32.19981 38.71052 35.45517
#
# Velocity S-wave (km/s) = 3.46219 3.79611 3.63299
# Velocity P-wave (km/s) = 6.21448 6.62232 6.42164
#
# Compressibility (1/GPa) = 0.01644455
#
# Stress axis : x y z
#
# Youngs Moduli (GPa) = 113.56712 96.36852 167.93471
#
# Poissons Ratio (x) = 0.09987 0.19873
# Poissons Ratio (y) = 0.11770 0.35709
# Poissons Ratio (z) = 0.13440 0.20492
#
# Static dielectric constant tensor:
#      x y z
#    x 2.273840 0.000000 -0.021200 
#    y 0.000000 2.079160 0.000000 
#    z -0.021200 0.000000 2.095410 
# 
# From -- ./inp_files/133066.got.cif
#   From: 2010.05.17/outbox.cif.g08.bks.cpg/sg15_67_cif.got.tgz:133066.got - 2010.06.03 18:47:42.
