data_PCOD9263670
_publ_section_title
;
Structure prediction by ZEFSAII (Michael W. Deem and Ramdas Pophale) SiO2 
 PCOD9263670
Probable space group: C 2/C
;
_chemical_formula_sum "Si O2"
_cell_formula_units_Z 44
_cell_length_a 26.055589
_cell_length_b 5.769439
_cell_length_c 13.668361
_cell_angle_alpha 90.000000
_cell_angle_beta 65.525080
_cell_angle_gamma 90.000000
_cell_volume 1870.080987
_symmetry_space_group_name_H-M "C 2/C"
_symmetry_group_IT_number 15
_symmetry_cell_setting 'monoclinic'
loop_
_space_group_symop_operation_xyz
x,y,z
-x,y,1/2-z
-x,-y,-z
x,-y,1/2+z
1/2+x,1/2+y,z
1/2-x,1/2+y,1/2-z
1/2-x,1/2-y,-z
1/2+x,1/2-y,1/2+z
loop_
_atom_site_type_symbol
_atom_site_label
_atom_site_fract_x
_atom_site_fract_y
_atom_site_fract_z
Si Si1 0.139082 0.099321 0.166778
Si Si2 0.047911 0.856665 0.349871
Si Si3 0.061514 0.846306 0.556218
Si Si4 0.757002 0.362375 0.362763
Si Si5 0.752158 0.135311 0.865253
Si Si6 0.000000 0.498210 0.750000
O O1 0.116232 0.090207 0.075136
O O2 0.177747 0.320631 0.159893
O O3 0.085205 0.067302 0.279150
O O4 0.181728 0.893759 0.162741
O O5 0.070770 0.778873 0.436722
O O6 0.045264 0.660675 0.270183
O O7 0.983253 0.942284 0.411378
O O8 0.031019 0.648929 0.643530
O O9 0.734190 0.610695 0.415628
O O10 0.754690 0.363724 0.246698
O O11 0.728655 0.117015 0.417899
#
# Coordination Sequence:
#
# PCOD9263670 Si02
#       6
#     8   8   8   8   8   4
#     4  10  19  34  59  78 118 159 203 244 300 360
#     4  11  23  38  56  86 120 157 199 245 300 366
#     4  11  23  38  56  86 120 157 199 245 300 366
#     4   8  16  29  52  84 109 152 200 243 302 354
#     4   8  16  29  52  84 109 152 200 243 302 354
#     4  12  20  40  58  84 120 158 192 256 302 346
#
# _framework density 23.528390999999999
#
# number of rings (size 3 to 8) (size 9 to 14) (size 15 to 20)
#    1.091    1.091    3.636    0.545    2.545    0.000 
#    0.000    0.000    0.000    2.182    0.000    0.000 
#    0.000    0.000    0.000    0.000    0.000    0.000 
#
# Total GULP energy -122733.877296 kJ/mol
# GULP energy per Si atom -5578.812604 kJ/mol
# Density = 2.347484 g / cm^3
# Si number density = 23.528391 Si / 1000 Ang^3
#
#
#
# Elastic Constant Matrix: (Units=GPa)
#
#
# Indices 1 2 3 4 5 6 
#
# 1 154.0347 14.3677 59.4939 0.0000 44.2703 0.0000
# 2 14.3677 142.4514 19.8952 0.0000 2.6208 0.0000
# 3 59.4939 19.8952 95.0669 0.0000 30.0845 0.0000
# 4 0.0000 0.0000 0.0000 16.0952 0.0000 -0.1588
# 5 44.2703 2.6208 30.0845 0.0000 42.4564 0.0000
# 6 0.0000 0.0000 0.0000 -0.1588 0.0000 26.7765
#
#
#
# Elastic Compliance Matrix: (Units=1/GPa)
#
#
# Indices 1 2 3 4 5 6 
#
# 1 0.010311 -0.000356 -0.003845 0.000000 -0.008005 0.000000
# 2 -0.000356 0.007265 -0.001641 0.000000 0.001085 0.000000
# 3 -0.003845 -0.001641 0.015427 0.000000 -0.006821 0.000000
# 4 0.000000 0.000000 0.000000 0.062134 0.000000 0.000368
# 5 -0.008005 0.001085 -0.006821 0.000000 0.036667 0.000000
# 6 0.000000 0.000000 0.000000 0.000368 0.000000 0.037348
#
#
# Mechanical properties :
#
#
# Convention : Reuss Voigt Hill
#
# Bulk Modulus (GPa) = 46.90616 64.34074 55.62345
# Shear Modulus (GPa) = 26.60382 36.91871 31.76126
#
# Velocity S-wave (km/s) = 3.36625 3.96550 3.67810
# Velocity P-wave (km/s) = 5.92352 6.95502 6.45989
#
# Compressibility (1/GPa) = 0.02131916
#
# Stress axis : x y z
#
# Youngs Moduli (GPa) = 96.98386 137.64493 64.82035
#
# Poissons Ratio (x) = 0.04896 0.24924
# Poissons Ratio (y) = 0.03450 0.10639
# Poissons Ratio (z) = 0.37291 0.22592
#
# Static dielectric constant tensor:
#      x y z
#    x 1.880430 0.000000 0.008200 
#    y 0.000000 1.958220 0.000000 
#    z 0.008200 0.000000 1.875370 
# 
# From -- ./inp_files/175383.got.cif
#   From: 2010.05.17/outbox.cif.g08.bks.cpg/sg15_88_cif.got.tgz:175383.got - 2010.06.03 18:47:42.
