data_PCOD9263837
_publ_section_title
;
Structure prediction by ZEFSAII (Michael W. Deem and Ramdas Pophale) SiO2 
 PCOD9263837
Probable space group: C 2/C
;
_chemical_formula_sum "Si O2"
_cell_formula_units_Z 64
_cell_length_a 8.919208
_cell_length_b 22.162584
_cell_length_c 15.362327
_cell_angle_alpha 90.000000
_cell_angle_beta 91.410878
_cell_angle_gamma 90.000000
_cell_volume 3035.791972
_symmetry_space_group_name_H-M "C 2/C"
_symmetry_group_IT_number 15
_symmetry_cell_setting 'monoclinic'
loop_
_space_group_symop_operation_xyz
x,y,z
-x,y,1/2-z
-x,-y,-z
x,-y,1/2+z
1/2+x,1/2+y,z
1/2-x,1/2+y,1/2-z
1/2-x,1/2-y,-z
1/2+x,1/2-y,1/2+z
loop_
_atom_site_type_symbol
_atom_site_label
_atom_site_fract_x
_atom_site_fract_y
_atom_site_fract_z
Si Si1 0.434126 0.326642 0.347210
Si Si2 0.465621 0.113187 0.146983
Si Si3 0.577919 0.230125 0.478324
Si Si4 0.666286 0.991570 0.582143
Si Si5 0.949985 0.043395 0.651514
Si Si6 0.557279 0.935608 0.339901
Si Si7 0.073507 0.701172 0.840575
Si Si8 0.786381 0.984813 0.896740
O O1 0.500000 0.320234 0.250000
O O2 0.504221 0.278613 0.413573
O O3 0.498278 0.391410 0.384053
O O4 0.254437 0.310665 0.340193
O O5 0.500000 0.128876 0.250000
O O6 0.436636 0.167805 0.078461
O O7 0.606739 0.072947 0.113651
O O8 0.317681 0.069649 0.138356
O O9 0.750000 0.250000 0.500000
O O10 0.486931 0.228262 0.569260
O O11 0.775973 0.027555 0.648208
O O12 0.518542 0.032691 0.579606
O O13 0.756215 0.000778 0.495904
O O14 0.000000 0.046567 0.750000
O O15 0.037621 0.985232 0.614610
O O16 0.500000 0.964393 0.250000
O O17 0.512912 0.867145 0.341656
O O18 0.728231 0.954023 0.348926
O O19 0.000000 0.728230 0.750000
#
# Coordination Sequence:
#
# PCOD9263837 Si02
#       8
#     8   8   8   8   8   8   8   8
#     4  11  25  44  70 101 138 180 231 287 342 413
#     4  11  24  43  68  96 137 184 227 279 349 419
#     4  12  27  47  71  97 135 183 240 291 350 415
#     4  11  22  36  63  97 135 177 220 278 339 415
#     4  11  23  38  63  98 136 175 221 276 342 402
#     4  10  19  34  61  89 126 165 213 262 330 403
#     4  11  23  42  71 101 132 175 232 291 350 414
#     4  11  20  38  59  97 132 167 219 272 341 404
#
# _framework density 21.081814000000001
#
# number of rings (size 3 to 8) (size 9 to 14) (size 15 to 20)
#    0.000    1.000    1.250    7.875    8.750    0.000 
#    0.000    0.000    0.000    3.000    0.000    0.000 
#    0.000    0.000    0.000    0.000    0.000    0.000 
#
# Total GULP energy -178166.570637 kJ/mol
# GULP energy per Si atom -5567.705332 kJ/mol
# Density = 2.103383 g / cm^3
# Si number density = 21.081814 Si / 1000 Ang^3
#
#
#
# Elastic Constant Matrix: (Units=GPa)
#
#
# Indices 1 2 3 4 5 6 
#
# 1 114.5509 40.2747 31.3748 0.0000 -7.8027 0.0000
# 2 40.2747 95.9175 41.8154 0.0000 4.8045 0.0000
# 3 31.3748 41.8154 128.3916 0.0000 -7.5748 0.0000
# 4 0.0000 0.0000 0.0000 27.9154 0.0000 3.6668
# 5 -7.8027 4.8045 -7.5748 0.0000 41.3701 0.0000
# 6 0.0000 0.0000 0.0000 3.6668 0.0000 20.0398
#
#
#
# Elastic Compliance Matrix: (Units=1/GPa)
#
#
# Indices 1 2 3 4 5 6 
#
# 1 0.010631 -0.004083 -0.001134 0.000000 0.002272 0.000000
# 2 -0.004083 0.013913 -0.003714 0.000000 -0.003066 0.000000
# 3 -0.001134 -0.003714 0.009390 0.000000 0.001937 0.000000
# 4 0.000000 0.000000 0.000000 0.036705 0.000000 -0.006716
# 5 0.002272 -0.003066 0.001937 0.000000 0.025311 0.000000
# 6 0.000000 0.000000 0.000000 -0.006716 0.000000 0.051130
#
#
# Mechanical properties :
#
#
# Convention : Reuss Voigt Hill
#
# Bulk Modulus (GPa) = 62.22597 62.86555 62.54576
# Shear Modulus (GPa) = 29.36023 32.89141 31.12582
#
# Velocity S-wave (km/s) = 3.73591 3.95420 3.84660
# Velocity P-wave (km/s) = 6.94189 7.12265 7.03285
#
# Compressibility (1/GPa) = 0.01607046
#
# Stress axis : x y z
#
# Youngs Moduli (GPa) = 94.06778 71.87554 106.49905
#
# Poissons Ratio (x) = 0.29348 0.12076
# Poissons Ratio (y) = 0.38409 0.39558
# Poissons Ratio (z) = 0.10667 0.26697
#
# Static dielectric constant tensor:
#      x y z
#    x 1.803790 0.000000 0.077930 
#    y 0.000000 1.787080 0.000000 
#    z 0.077930 0.000000 2.527500 
# 
# From -- ./inp_files/137840.got.cif
#   From: 2010.05.17/outbox.cif.g08.bks.cpg/sg15_69_cif.got.tgz:137840.got - 2010.06.03 18:47:42.
