data_PCOD9263007
_publ_section_title
;
Structure prediction by ZEFSAII (Michael W. Deem and Ramdas Pophale) SiO2 
 PCOD9263007
Probable space group: C 2/C
;
_chemical_formula_sum "Si O2"
_cell_formula_units_Z 64
_cell_length_a 19.511791
_cell_length_b 27.987496
_cell_length_c 13.486444
_cell_angle_alpha 90.000000
_cell_angle_beta 152.861930
_cell_angle_gamma 90.000000
_cell_volume 3359.334686
_symmetry_space_group_name_H-M "C 2/C"
_symmetry_group_IT_number 15
_symmetry_cell_setting 'monoclinic'
loop_
_space_group_symop_operation_xyz
x,y,z
-x,y,1/2-z
-x,-y,-z
x,-y,1/2+z
1/2+x,1/2+y,z
1/2-x,1/2+y,1/2-z
1/2-x,1/2-y,-z
1/2+x,1/2-y,1/2+z
loop_
_atom_site_type_symbol
_atom_site_label
_atom_site_fract_x
_atom_site_fract_y
_atom_site_fract_z
Si Si1 0.491316 0.798466 0.849132
Si Si2 0.888582 0.929487 0.369392
Si Si3 0.154533 0.581402 0.899193
Si Si4 0.314631 0.134599 0.762693
Si Si5 0.645124 0.646969 0.201080
Si Si6 0.408025 0.496348 0.727967
Si Si7 0.055543 0.212804 0.426749
Si Si8 0.245691 0.780268 0.678185
O O1 0.500000 0.819387 0.750000
O O2 0.326342 0.787052 0.677044
O O3 0.565537 0.833591 0.025037
O O4 0.594986 0.751095 0.978635
O O5 0.748920 0.905937 0.245559
O O6 0.004401 0.886844 0.494585
O O7 0.976514 0.963978 0.559151
O O8 0.855834 0.960343 0.230159
O O9 0.128930 0.610977 0.765579
O O10 0.000000 0.565105 0.750000
O O11 0.238639 0.616030 0.085621
O O12 0.268550 0.538091 0.023407
O O13 0.173017 0.169603 0.556804
O O14 0.580913 0.689662 0.187349
O O15 0.712728 0.670287 0.190384
O O16 0.500000 0.512191 0.750000
O O17 0.139060 0.250870 0.603151
O O18 0.000000 0.232504 0.250000
#
# Coordination Sequence:
#
# PCOD9263007 Si02
#       8
#     8   8   8   8   8   8   8   8
#     4  11  24  41  58  80 115 166 208 246 289 333
#     4   9  20  37  63  90 111 152 202 238 287 360
#     4  11  21  35  62  94 121 154 185 239 315 363
#     4  10  20  37  61  85 120 158 193 244 293 348
#     4  10  20  36  58  88 123 153 197 245 288 359
#     4  10  19  38  65  88 116 151 193 239 291 364
#     4  10  19  33  59  89 119 159 196 238 294 344
#     4  11  22  39  59  84 119 158 206 251 288 341
#
# _framework density 19.051392
#
# number of rings (size 3 to 8) (size 9 to 14) (size 15 to 20)
#    0.000    1.750    3.750    1.125    0.000    2.000 
#    2.250    1.250    0.000    0.000    0.000    0.000 
#    0.000    0.000    0.000    0.000    0.000    0.000 
#
# Total GULP energy -178749.813118 kJ/mol
# GULP energy per Si atom -5585.931660 kJ/mol
# Density = 1.900803 g / cm^3
# Si number density = 19.051392 Si / 1000 Ang^3
#
#
#
# Elastic Constant Matrix: (Units=GPa)
#
#
# Indices 1 2 3 4 5 6 
#
# 1 122.5909 24.0271 19.5322 0.0000 -0.3101 0.0000
# 2 24.0271 46.6773 2.7424 0.0000 -3.7493 0.0000
# 3 19.5322 2.7424 31.6902 0.0000 -6.3528 0.0000
# 4 0.0000 0.0000 0.0000 7.4984 0.0000 -3.1109
# 5 -0.3101 -3.7493 -6.3528 0.0000 24.9970 0.0000
# 6 0.0000 0.0000 0.0000 -3.1109 0.0000 36.1679
#
#
#
# Elastic Compliance Matrix: (Units=1/GPa)
#
#
# Indices 1 2 3 4 5 6 
#
# 1 0.010133 -0.005027 -0.006255 0.000000 -0.002218 0.000000
# 2 -0.005027 0.024229 0.001810 0.000000 0.004032 0.000000
# 3 -0.006255 0.001810 0.037188 0.000000 0.009645 0.000000
# 4 0.000000 0.000000 0.000000 0.138297 0.000000 0.011895
# 5 -0.002218 0.004032 0.009645 0.000000 0.043033 0.000000
# 6 0.000000 0.000000 0.000000 0.011895 0.000000 0.028672
#
#
# Mechanical properties :
#
#
# Convention : Reuss Voigt Hill
#
# Bulk Modulus (GPa) = 19.00955 32.61799 25.81377
# Shear Modulus (GPa) = 15.72170 24.04310 19.88240
#
# Velocity S-wave (km/s) = 2.87579 3.55634 3.23401
# Velocity P-wave (km/s) = 4.58548 5.83280 5.24634
#
# Compressibility (1/GPa) = 0.05260514
#
# Stress axis : x y z
#
# Youngs Moduli (GPa) = 98.68269 41.27327 26.89052
#
# Poissons Ratio (x) = 0.20747 0.16821
# Poissons Ratio (y) = 0.49606 -0.04867
# Poissons Ratio (z) = 0.61730 -0.07469
#
# Static dielectric constant tensor:
#      x y z
#    x 1.654930 0.000000 -0.000250 
#    y 0.000000 1.645350 0.000000 
#    z -0.000250 0.000000 1.660120 
# 
# From -- ./inp_files/108647.got.cif
#   From: 2010.05.17/outbox.cif.g08.bks.cpg/sg15_55_cif.got.tgz:108647.got - 2010.06.03 18:47:42.
