data_PCOD9263281
_publ_section_title
;
Structure prediction by ZEFSAII (Michael W. Deem and Ramdas Pophale) SiO2 
 PCOD9263281
Probable space group: C 2/C
;
_chemical_formula_sum "Si O2"
_cell_formula_units_Z 64
_cell_length_a 10.789121
_cell_length_b 23.400363
_cell_length_c 17.118508
_cell_angle_alpha 90.000000
_cell_angle_beta 50.953338
_cell_angle_gamma 90.000000
_cell_volume 3356.529823
_symmetry_space_group_name_H-M "C 2/C"
_symmetry_group_IT_number 15
_symmetry_cell_setting 'monoclinic'
loop_
_space_group_symop_operation_xyz
x,y,z
-x,y,1/2-z
-x,-y,-z
x,-y,1/2+z
1/2+x,1/2+y,z
1/2-x,1/2+y,1/2-z
1/2-x,1/2-y,-z
1/2+x,1/2-y,1/2+z
loop_
_atom_site_type_symbol
_atom_site_label
_atom_site_fract_x
_atom_site_fract_y
_atom_site_fract_z
Si Si1 0.799612 0.535347 0.950282
Si Si2 0.114572 0.123774 0.135465
Si Si3 0.564807 0.813554 0.956249
Si Si4 0.022544 0.813513 0.956350
Si Si5 0.700627 0.187696 0.049398
Si Si6 0.176476 0.073441 0.573561
Si Si7 0.622199 0.904747 0.362700
Si Si8 0.652326 0.595305 0.862590
O O1 0.695772 0.572261 0.054224
O O2 0.769965 0.469439 0.979887
O O3 0.736697 0.552946 0.890148
O O4 0.982767 0.552926 0.890120
O O5 0.256873 0.162945 0.112802
O O6 0.000000 0.103310 0.250000
O O7 0.017794 0.162974 0.112668
O O8 0.483913 0.817151 0.902247
O O9 0.541279 0.750026 0.999973
O O10 0.465917 0.855289 0.053502
O O11 0.211400 0.817144 0.902309
O O12 0.927056 0.855220 0.053642
O O13 0.750000 0.250000 0.000000
O O14 0.784872 0.138503 0.965069
O O15 0.250343 0.065761 0.629852
O O16 0.989994 0.065851 0.630037
O O17 0.718126 0.882114 0.250056
#
# Coordination Sequence:
#
# PCOD9263281 Si02
#       8
#     8   8   8   8   8   8   8   8
#     4  10  21  37  53  75 109 142 175 219 267 311
#     4  10  21  34  49  72 104 141 180 217 257 310
#     4   9  18  34  54  78 107 139 174 217 269 317
#     4   9  18  34  54  78 107 139 174 217 269 317
#     4   8  16  33  56  77 102 133 167 211 262 315
#     4  10  19  34  55  78 105 138 173 215 264 314
#     4  10  20  34  55  82 108 138 179 223 264 314
#     4  10  20  34  55  82 108 138 179 223 264 314
#
# _framework density 19.067311
#
# number of rings (size 3 to 8) (size 9 to 14) (size 15 to 20)
#    0.000    2.500    0.000    1.875    0.000    2.000 
#    0.000    0.625    0.000   10.500    0.000    0.000 
#    0.000    0.000    0.000    0.000    0.000    0.000 
#
# Total GULP energy -178262.865834 kJ/mol
# GULP energy per Si atom -5570.714557 kJ/mol
# Density = 1.902391 g / cm^3
# Si number density = 19.067311 Si / 1000 Ang^3
#
#
#
# Elastic Constant Matrix: (Units=GPa)
#
#
# Indices 1 2 3 4 5 6 
#
# 1 162.8015 24.3962 41.7506 0.0000 1.5017 0.0000
# 2 24.3962 51.4073 10.4662 0.0000 0.0939 0.0000
# 3 41.7506 10.4662 47.8842 0.0000 -0.1373 0.0000
# 4 0.0000 0.0000 0.0000 4.6038 0.0000 -0.1382
# 5 1.5017 0.0939 -0.1373 0.0000 1.5619 0.0000
# 6 0.0000 0.0000 0.0000 -0.1382 0.0000 -8.0112
#
#
#
# Elastic Compliance Matrix: (Units=1/GPa)
#
#
# Indices 1 2 3 4 5 6 
#
# 1 0.008330 -0.002568 -0.006726 0.000000 -0.008446 0.000000
# 2 -0.002568 0.021154 -0.002382 0.000000 0.000989 0.000000
# 3 -0.006726 -0.002382 0.027294 0.000000 0.009009 0.000000
# 4 0.000000 0.000000 0.000000 0.217098 0.000000 -0.003745
# 5 -0.008446 0.000989 0.009009 0.000000 0.649110 0.000000
# 6 0.000000 0.000000 0.000000 -0.003745 0.000000 -0.124761
#
#
# Mechanical properties :
#
#
# Convention : Reuss Voigt Hill
#
# Bulk Modulus (GPa) = 29.91567 46.14656 38.03111
# Shear Modulus (GPa) = 6.00442 11.99623 9.00033
#
# Velocity S-wave (km/s) = 1.77649 2.51101 2.17498
# Velocity P-wave (km/s) = 4.46446 5.71501 5.12800
#
# Compressibility (1/GPa) = 0.03342730
#
# Stress axis : x y z
#
# Youngs Moduli (GPa) = 120.04643 47.27144 36.63744
#
# Poissons Ratio (x) = 0.12141 0.24642
# Poissons Ratio (y) = 0.30833 0.08725
# Poissons Ratio (z) = 0.80742 0.11258
#
# Static dielectric constant tensor:
#      x y z
#    x 1.722140 0.000000 0.001330 
#    y 0.000000 1.642680 0.000000 
#    z 0.001330 0.000000 1.629190 
# 
# From -- ./inp_files/200768.got.cif
#   From: 2010.05.17/outbox.cif.g08.bks.cpg/sg15_101_cif.got.tgz:200768.got - 2010.06.03 18:47:42.
