data_PCOD9263643
_publ_section_title
;
Structure prediction by ZEFSAII (Michael W. Deem and Ramdas Pophale) SiO2 
 PCOD9263643
Probable space group: C 2/C
;
_chemical_formula_sum "Si O2"
_cell_formula_units_Z 24
_cell_length_a 7.276990
_cell_length_b 12.448474
_cell_length_c 14.121713
_cell_angle_alpha 90.000000
_cell_angle_beta 138.315453
_cell_angle_gamma 90.000000
_cell_volume 850.738000
_symmetry_space_group_name_H-M "C 2/C"
_symmetry_group_IT_number 15
_symmetry_cell_setting 'monoclinic'
loop_
_space_group_symop_operation_xyz
x,y,z
-x,y,1/2-z
-x,-y,-z
x,-y,1/2+z
1/2+x,1/2+y,z
1/2-x,1/2+y,1/2-z
1/2-x,1/2-y,-z
1/2+x,1/2-y,1/2+z
loop_
_atom_site_type_symbol
_atom_site_label
_atom_site_fract_x
_atom_site_fract_y
_atom_site_fract_z
Si Si1 0.775647 0.064179 0.100002
Si Si2 0.723825 0.705593 0.685740
Si Si3 0.692610 0.351913 0.613215
O O1 0.722906 0.179244 0.130124
O O2 0.000000 0.003732 0.250000
O O3 0.940478 0.087666 0.067806
O O4 0.500000 0.000000 0.000000
O O5 0.430466 0.657962 0.539704
O O6 0.778631 0.740401 0.814810
O O7 0.000000 0.650074 0.750000
O O8 0.000000 0.398702 0.750000
#
# Coordination Sequence:
#
# PCOD9263643 Si02
#       3
#     8   8   8
#     4   9  19  36  54  77 114 157 189 227 286 347
#     4   9  18  34  56  84 115 148 189 238 285 339
#     4  10  19  34  58  89 115 145 193 245 283 334
#
# _framework density 28.210799000000002
#
# number of rings (size 3 to 8) (size 9 to 14) (size 15 to 20)
#    0.000    3.333    0.000    5.000    0.000    1.333 
#    0.000   13.333    0.000   10.000    0.000   14.000 
#    0.000    0.000    0.000    0.000    0.000    0.000 
#
# Total GULP energy -67079.585748 kJ/mol
# GULP energy per Si atom -5589.965479 kJ/mol
# Density = 2.814659 g / cm^3
# Si number density = 28.210799 Si / 1000 Ang^3
#
#
#
# Elastic Constant Matrix: (Units=GPa)
#
#
# Indices 1 2 3 4 5 6 
#
# 1 97.6371 1.3632 57.1494 0.0004 25.7585 -0.0001
# 2 1.3632 75.7213 43.5793 0.0001 12.8468 0.0000
# 3 57.1494 43.5793 302.7203 0.0019 29.2064 0.0010
# 4 0.0004 0.0001 0.0019 20.2686 0.0009 13.3244
# 5 25.7585 12.8468 29.2064 0.0009 71.9645 0.0002
# 6 -0.0001 0.0000 0.0010 13.3244 0.0002 -2.7184
#
#
#
# Elastic Compliance Matrix: (Units=1/GPa)
#
#
# Indices 1 2 3 4 5 6 
#
# 1 0.012558 0.001726 -0.002244 0.000000 -0.003892 0.000000
# 2 0.001726 0.014864 -0.002238 0.000000 -0.002363 0.000000
# 3 -0.002244 -0.002238 0.004093 0.000000 -0.000459 0.000000
# 4 0.000000 0.000000 0.000000 0.011685 0.000000 0.057275
# 5 -0.003892 -0.002363 -0.000459 0.000000 0.015897 0.000000
# 6 0.000000 0.000000 0.000000 0.057275 0.000000 -0.087125
#
#
# Mechanical properties :
#
#
# Convention : Reuss Voigt Hill
#
# Bulk Modulus (GPa) = 38.45557 75.58471 57.02014
# Shear Modulus (GPa) = -361.05423 42.83539 -159.10942
#
# Velocity S-wave (km/s) = -11.32529 3.90090 -7.51815
# Velocity P-wave (km/s) = 12.54413 6.86588 7.42344
#
# Compressibility (1/GPa) = 0.02600404
#
# Stress axis : x y z
#
# Youngs Moduli (GPa) = 79.62994 67.27696 244.29990
#
# Poissons Ratio (x) = -0.11609 0.54813
# Poissons Ratio (y) = -0.13741 0.54664
# Poissons Ratio (z) = 0.17866 0.15054
#
# Static dielectric constant tensor:
#      x y z
#    x 2.356150 0.000000 -0.005880 
#    y 0.000000 2.264320 0.000000 
#    z -0.005880 0.000000 2.267950 
# 
# From -- ./inp_files/21141.got.cif
#   From: 2010.05.17/outbox.cif.g08.bks.cpg/sg15_11_cif.got.tgz:21141.got - 2010.06.03 18:47:42.
