data_PCOD9263224
_publ_section_title
;
Structure prediction by ZEFSAII (Michael W. Deem and Ramdas Pophale) SiO2 
 PCOD9263224
Probable space group: C 2/C
;
_chemical_formula_sum "Si O2"
_cell_formula_units_Z 64
_cell_length_a 26.751741
_cell_length_b 12.855644
_cell_length_c 21.533165
_cell_angle_alpha 90.000000
_cell_angle_beta 148.455269
_cell_angle_gamma 90.000000
_cell_volume 3874.285862
_symmetry_space_group_name_H-M "C 2/C"
_symmetry_group_IT_number 15
_symmetry_cell_setting 'monoclinic'
loop_
_space_group_symop_operation_xyz
x,y,z
-x,y,1/2-z
-x,-y,-z
x,-y,1/2+z
1/2+x,1/2+y,z
1/2-x,1/2+y,1/2-z
1/2-x,1/2-y,-z
1/2+x,1/2-y,1/2+z
loop_
_atom_site_type_symbol
_atom_site_label
_atom_site_fract_x
_atom_site_fract_y
_atom_site_fract_z
Si Si1 0.456503 0.075658 0.400461
Si Si2 0.293644 0.713019 0.110701
Si Si3 0.418491 0.865887 0.319299
Si Si4 0.384859 0.223993 0.922566
Si Si5 0.337368 0.724782 0.812694
Si Si6 0.388991 0.756846 0.006729
Si Si7 0.982175 0.075476 0.301659
Si Si8 0.493204 0.426908 0.432159
O O1 0.545859 0.141884 0.469329
O O2 0.382416 0.161969 0.345768
O O3 0.500000 0.000000 0.500000
O O4 0.405726 0.989402 0.305241
O O5 0.348816 0.810687 0.198204
O O6 0.375274 0.624760 0.192876
O O7 0.250000 0.750000 0.000000
O O8 0.202920 0.691955 0.058782
O O9 0.399281 0.809762 0.365502
O O10 0.527670 0.839464 0.418253
O O11 0.273901 0.218115 0.819178
O O12 0.424411 0.339484 0.975573
O O13 0.396304 0.639469 0.837141
O O14 0.356839 0.708687 0.906716
O O15 0.440875 0.667595 0.102443
O O16 0.000000 0.038252 0.250000
O O17 0.994629 0.992147 0.370153
O O18 0.500000 0.500000 0.500000
#
# Coordination Sequence:
#
# PCOD9263224 Si02
#       8
#     8   8   8   8   8   8   8   8
#     4   9  18  33  47  77 110 141 175 211 279 337
#     4  11  22  35  54  81 110 143 184 223 271 336
#     4  10  19  34  54  78 111 149 171 222 282 334
#     4  10  20  33  51  82 115 139 177 229 276 323
#     4  11  20  33  55  84 114 144 178 237 277 322
#     4  11  19  34  54  79 117 145 175 226 277 329
#     4  11  23  39  56  81 115 155 183 225 284 337
#     4  11  21  36  54  85 115 143 190 233 278 332
#
# _framework density 16.519172999999999
#
# number of rings (size 3 to 8) (size 9 to 14) (size 15 to 20)
#    0.000    1.500    7.500    0.750    0.000    4.000 
#    0.000    0.000    0.000    0.750   13.000    0.000 
#    0.000    0.000    0.000    0.000    0.000    0.000 
#
# Total GULP energy -178302.854165 kJ/mol
# GULP energy per Si atom -5571.964193 kJ/mol
# Density = 1.648157 g / cm^3
# Si number density = 16.519173 Si / 1000 Ang^3
#
#
#
# Elastic Constant Matrix: (Units=GPa)
#
#
# Indices 1 2 3 4 5 6 
#
# 1 95.2397 43.8695 47.3140 0.0000 11.1066 0.0000
# 2 43.8695 101.4825 38.2383 0.0000 -2.3927 0.0000
# 3 47.3140 38.2383 86.7856 0.0000 13.7177 0.0000
# 4 0.0000 0.0000 0.0000 13.7295 0.0000 -4.6347
# 5 11.1066 -2.3927 13.7177 0.0000 42.8878 0.0000
# 6 0.0000 0.0000 0.0000 -4.6347 0.0000 13.4745
#
#
#
# Elastic Compliance Matrix: (Units=1/GPa)
#
#
# Indices 1 2 3 4 5 6 
#
# 1 0.016051 -0.004604 -0.006345 0.000000 -0.002384 0.000000
# 2 -0.004604 0.013385 -0.003891 0.000000 0.003184 0.000000
# 3 -0.006345 -0.003891 0.017348 0.000000 -0.004123 0.000000
# 4 0.000000 0.000000 0.000000 0.082404 0.000000 0.028344
# 5 -0.002384 0.003184 -0.004123 0.000000 0.025430 0.000000
# 6 0.000000 0.000000 0.000000 0.028344 0.000000 0.083964
#
#
# Mechanical properties :
#
#
# Convention : Reuss Voigt Hill
#
# Bulk Modulus (GPa) = 58.46612 60.26125 59.36369
# Shear Modulus (GPa) = 18.25065 24.29076 21.27070
#
# Velocity S-wave (km/s) = 3.32748 3.83882 3.59226
# Velocity P-wave (km/s) = 7.08749 7.49716 7.29521
#
# Compressibility (1/GPa) = 0.01710392
#
# Stress axis : x y z
#
# Youngs Moduli (GPa) = 62.30256 74.70924 57.64358
#
# Poissons Ratio (x) = 0.34395 0.36576
# Poissons Ratio (y) = 0.28683 0.22429
# Poissons Ratio (z) = 0.39533 0.29069
#
# Static dielectric constant tensor:
#      x y z
#    x 1.575950 0.000000 -0.005040 
#    y 0.000000 1.563680 0.000000 
#    z -0.005040 0.000000 1.578690 
# 
# From -- ./inp_files/257536.got.cif
#   From: 2010.05.17/outbox.cif.g08.bks.cpg/sg15_129_cif.got.tgz:257536.got - 2010.06.03 18:47:42.
