data_PCOD9263771
_publ_section_title
;
Structure prediction by ZEFSAII (Michael W. Deem and Ramdas Pophale) SiO2 
 PCOD9263771
Probable space group: C 2/C
;
_chemical_formula_sum "Si O2"
_cell_formula_units_Z 60
_cell_length_a 21.024401
_cell_length_b 16.585693
_cell_length_c 9.504829
_cell_angle_alpha 90.000000
_cell_angle_beta 64.574898
_cell_angle_gamma 90.000000
_cell_volume 2993.368209
_symmetry_space_group_name_H-M "C 2/C"
_symmetry_group_IT_number 15
_symmetry_cell_setting 'monoclinic'
loop_
_space_group_symop_operation_xyz
x,y,z
-x,y,1/2-z
-x,-y,-z
x,-y,1/2+z
1/2+x,1/2+y,z
1/2-x,1/2+y,1/2-z
1/2-x,1/2-y,-z
1/2+x,1/2-y,1/2+z
loop_
_atom_site_type_symbol
_atom_site_label
_atom_site_fract_x
_atom_site_fract_y
_atom_site_fract_z
Si Si1 0.854344 0.069753 0.400061
Si Si2 0.000000 0.815854 0.250000
Si Si3 0.434522 0.552011 0.613741
Si Si4 0.164612 0.607588 0.336175
Si Si5 0.709156 0.714207 0.172080
Si Si6 0.136467 0.743566 0.188981
Si Si7 0.300628 0.003099 0.959760
Si Si8 0.233339 0.341762 0.372264
O O1 0.891703 0.072655 0.514339
O O2 0.852914 0.156318 0.322838
O O3 0.889987 0.001741 0.267390
O O4 0.772812 0.046803 0.506331
O O5 0.970433 0.871818 0.154561
O O6 0.930035 0.764499 0.343510
O O7 0.500000 0.500000 0.500000
O O8 0.240148 0.652992 0.288051
O O9 0.116086 0.682264 0.333488
O O10 0.150821 0.564746 0.498490
O O11 0.169077 0.542126 0.205816
O O12 0.698662 0.792858 0.277518
O O13 0.750000 0.750000 0.000000
O O14 0.183825 0.818500 0.197930
O O15 0.192823 0.694523 0.044544
O O16 0.278948 0.935735 0.096835
#
# Coordination Sequence:
#
# PCOD9263771 Si02
#       8
#     8   4   8   8   8   8   8   8
#     4  11  23  37  58  80 122 154 198 244 291 340
#     4  12  24  38  64  78 118 158 202 234 292 356
#     4  12  25  40  53  82 113 164 202 234 280 359
#     4   9  20  35  54  87 116 143 190 240 300 350
#     4  10  22  32  54  87 118 154 196 246 295 345
#     4   9  20  37  57  85 111 154 193 240 288 361
#     4  10  19  34  60  86 113 150 188 245 300 353
#     4   9  19  35  58  82 118 148 194 238 302 347
#
# _framework density 20.044309999999999
#
# number of rings (size 3 to 8) (size 9 to 14) (size 15 to 20)
#    0.000    1.867    1.333    3.200   11.200    0.000 
#    0.000    0.000    0.000    3.200    0.000    0.000 
#    0.000    0.000    0.000    0.000    0.000    0.000 
#
# Total GULP energy -167228.501857 kJ/mol
# GULP energy per Si atom -5574.283395 kJ/mol
# Density = 1.999869 g / cm^3
# Si number density = 20.044310 Si / 1000 Ang^3
#
#
#
# Elastic Constant Matrix: (Units=GPa)
#
#
# Indices 1 2 3 4 5 6 
#
# 1 96.7045 41.8828 25.8915 0.0000 27.2017 0.0000
# 2 41.8828 62.7192 11.6437 0.0000 19.6615 0.0000
# 3 25.8915 11.6437 62.6518 0.0000 30.1007 0.0000
# 4 0.0000 0.0000 0.0000 38.6082 0.0000 19.2170
# 5 27.2017 19.6615 30.1007 0.0000 37.1451 0.0000
# 6 0.0000 0.0000 0.0000 19.2170 0.0000 37.9680
#
#
#
# Elastic Compliance Matrix: (Units=1/GPa)
#
#
# Indices 1 2 3 4 5 6 
#
# 1 0.016297 -0.008777 -0.002623 0.000000 -0.005163 0.000000
# 2 -0.008777 0.024021 0.003576 0.000000 -0.009185 0.000000
# 3 -0.002623 0.003576 0.026802 0.000000 -0.021691 0.000000
# 4 0.000000 0.000000 0.000000 0.034624 0.000000 -0.017524
# 5 -0.005163 -0.009185 -0.021691 0.000000 0.053141 0.000000
# 6 0.000000 0.000000 0.000000 -0.017524 0.000000 0.035208
#
#
# Mechanical properties :
#
#
# Convention : Reuss Voigt Hill
#
# Bulk Modulus (GPa) = 19.42878 42.32349 30.87613
# Shear Modulus (GPa) = 22.43176 32.25476 27.34326
#
# Velocity S-wave (km/s) = 3.34894 4.01580 3.69743
# Velocity P-wave (km/s) = 4.96667 6.53169 5.80219
#
# Compressibility (1/GPa) = 0.05147003
#
# Stress axis : x y z
#
# Youngs Moduli (GPa) = 61.36203 41.63059 37.31058
#
# Poissons Ratio (x) = 0.36540 0.09787
# Poissons Ratio (y) = 0.53859 -0.13341
# Poissons Ratio (z) = 0.16097 -0.14886
#
# Static dielectric constant tensor:
#      x y z
#    x 2.238430 0.000000 -0.188120 
#    y 0.000000 1.829980 0.000000 
#    z -0.188120 0.000000 1.837790 
# 
# From -- ./inp_files/56544.got.cif
#   From: 2010.05.17/outbox.cif.g08.bks.cpg/sg15_29_cif.got.tgz:56544.got - 2010.06.03 18:47:42.
