data_PCOD9263629
_publ_section_title
;
Structure prediction by ZEFSAII (Michael W. Deem and Ramdas Pophale) SiO2 
 PCOD9263629
Probable space group: C 2/C
;
_chemical_formula_sum "Si O2"
_cell_formula_units_Z 52
_cell_length_a 19.476838
_cell_length_b 21.612278
_cell_length_c 12.265239
_cell_angle_alpha 90.000000
_cell_angle_beta 148.832569
_cell_angle_gamma 90.000000
_cell_volume 2672.018903
_symmetry_space_group_name_H-M "C 2/C"
_symmetry_group_IT_number 15
_symmetry_cell_setting 'monoclinic'
loop_
_space_group_symop_operation_xyz
x,y,z
-x,y,1/2-z
-x,-y,-z
x,-y,1/2+z
1/2+x,1/2+y,z
1/2-x,1/2+y,1/2-z
1/2-x,1/2-y,-z
1/2+x,1/2-y,1/2+z
loop_
_atom_site_type_symbol
_atom_site_label
_atom_site_fract_x
_atom_site_fract_y
_atom_site_fract_z
Si Si1 0.141882 0.598462 0.980579
Si Si2 0.754669 0.676438 0.994490
Si Si3 0.113917 0.168163 0.592667
Si Si4 0.000000 0.113008 0.750000
Si Si5 0.233768 0.685684 0.911659
Si Si6 0.421753 0.561839 0.419077
Si Si7 0.053450 0.687442 0.059420
O O1 0.265599 0.556458 0.182474
O O2 0.109989 0.646807 0.035294
O O3 0.199892 0.636039 0.957241
O O4 0.000000 0.570959 0.750000
O O5 0.734028 0.653908 0.842074
O O6 0.621158 0.653260 0.871018
O O7 0.750000 0.750000 0.000000
O O8 0.881762 0.660992 0.241743
O O9 0.150552 0.168030 0.515047
O O10 0.084880 0.240110 0.580986
O O11 0.993790 0.121084 0.458149
O O12 0.941512 0.073696 0.573081
O O13 0.104405 0.687222 0.659335
O O14 0.250000 0.750000 0.000000
O O15 0.500000 0.500000 0.500000
#
# Coordination Sequence:
#
# PCOD9263629 Si02
#       7
#     8   8   8   4   8   8   8
#     4  10  21  37  62  90 120 163 203 249 322 370
#     4   9  19  32  56  84 118 159 197 249 316 368
#     4  10  22  34  56  93 120 160 209 249 305 368
#     4  10  20  40  62  88 124 158 214 264 294 362
#     4  11  21  33  55  88 133 159 191 253 312 379
#     4  11  24  42  67  88 123 171 218 255 295 362
#     4  10  19  34  58  87 122 162 191 253 326 368
#
# _framework density 19.460940999999998
#
# number of rings (size 3 to 8) (size 9 to 14) (size 15 to 20)
#    0.000    1.846    3.077    0.923    0.000    7.385 
#    0.000    0.000    6.769    2.769    0.000    0.000 
#    0.000    0.000    0.000    0.000    0.000    0.000 
#
# Total GULP energy -144879.711488 kJ/mol
# GULP energy per Si atom -5572.296596 kJ/mol
# Density = 1.941665 g / cm^3
# Si number density = 19.460941 Si / 1000 Ang^3
#
#
#
# Elastic Constant Matrix: (Units=GPa)
#
#
# Indices 1 2 3 4 5 6 
#
# 1 93.8342 20.4164 37.0148 0.0000 -10.7415 0.0000
# 2 20.4164 48.6506 31.0495 0.0000 11.9153 0.0000
# 3 37.0148 31.0495 168.9789 0.0000 11.8508 0.0000
# 4 0.0000 0.0000 0.0000 4.9619 0.0000 13.0217
# 5 -10.7415 11.9153 11.8508 0.0000 24.9315 0.0000
# 6 0.0000 0.0000 0.0000 13.0217 0.0000 15.9342
#
#
#
# Elastic Compliance Matrix: (Units=1/GPa)
#
#
# Indices 1 2 3 4 5 6 
#
# 1 0.014474 -0.007051 -0.002637 0.000000 0.010859 0.000000
# 2 -0.007051 0.029069 -0.002699 0.000000 -0.015647 0.000000
# 3 -0.002637 -0.002699 0.007221 0.000000 -0.003278 0.000000
# 4 0.000000 0.000000 0.000000 -0.176068 0.000000 0.143886
# 5 0.010859 -0.015647 -0.003278 0.000000 0.053825 0.000000
# 6 0.000000 0.000000 0.000000 0.143886 0.000000 -0.054828
#
#
# Mechanical properties :
#
#
# Convention : Reuss Voigt Hill
#
# Bulk Modulus (GPa) = 38.47575 54.26943 46.37259
# Shear Modulus (GPa) = -53.83941 24.03107 -14.90417
#
# Velocity S-wave (km/s) = -5.26549 3.51784 -2.77040
# Velocity P-wave (km/s) = 4.14169 6.66687 3.69415
#
# Compressibility (1/GPa) = 0.02599040
#
# Stress axis : x y z
#
# Youngs Moduli (GPa) = 69.08728 34.40110 138.47789
#
# Poissons Ratio (x) = 0.24257 0.36511
# Poissons Ratio (y) = 0.48715 0.37381
# Poissons Ratio (z) = 0.18215 0.09286
#
# Static dielectric constant tensor:
#      x y z
#    x 1.691990 0.000000 -0.010080 
#    y 0.000000 1.643970 0.000000 
#    z -0.010080 0.000000 1.770140 
# 
# From -- ./inp_files/114395.got.cif
#   From: 2010.05.17/outbox.cif.g08.bks.cpg/sg15_58_cif.got.tgz:114395.got - 2010.06.03 18:47:42.
