data_PCOD9263140
_publ_section_title
;
Structure prediction by ZEFSAII (Michael W. Deem and Ramdas Pophale) SiO2 
 PCOD9263140
Probable space group: C 2/C
;
_chemical_formula_sum "Si O2"
_cell_formula_units_Z 64
_cell_length_a 5.830670
_cell_length_b 22.388337
_cell_length_c 26.954276
_cell_angle_alpha 90.000000
_cell_angle_beta 99.697113
_cell_angle_gamma 90.000000
_cell_volume 3468.310684
_symmetry_space_group_name_H-M "C 2/C"
_symmetry_group_IT_number 15
_symmetry_cell_setting 'monoclinic'
loop_
_space_group_symop_operation_xyz
x,y,z
-x,y,1/2-z
-x,-y,-z
x,-y,1/2+z
1/2+x,1/2+y,z
1/2-x,1/2+y,1/2-z
1/2-x,1/2-y,-z
1/2+x,1/2-y,1/2+z
loop_
_atom_site_type_symbol
_atom_site_label
_atom_site_fract_x
_atom_site_fract_y
_atom_site_fract_z
Si Si1 0.166146 0.464877 0.468823
Si Si2 0.150636 0.727209 0.945558
Si Si3 0.684044 0.682762 0.111762
Si Si4 0.095957 0.915588 0.527006
Si Si5 0.981453 0.796944 0.373692
Si Si6 0.186369 0.621733 0.570003
Si Si7 0.257755 0.312303 0.261412
Si Si8 0.769420 0.176628 0.273887
O O1 0.319504 0.419723 0.507815
O O2 0.327343 0.517618 0.453569
O O3 0.000000 0.500000 0.500000
O O4 0.008159 0.427748 0.425277
O O5 0.341147 0.695199 0.919236
O O6 0.050277 0.780673 0.908659
O O7 0.944826 0.682087 0.950039
O O8 0.250000 0.750000 0.000000
O O9 0.690099 0.632458 0.069479
O O10 0.687126 0.658620 0.167662
O O11 0.884127 0.733768 0.117627
O O12 0.187491 0.901514 0.474887
O O13 0.815012 0.796935 0.320491
O O14 0.153422 0.854145 0.379814
O O15 0.500000 0.340926 0.250000
O O16 0.234285 0.249479 0.230534
O O17 0.000000 0.341262 0.250000
O O18 0.500000 0.158867 0.250000
O O19 0.000000 0.158464 0.250000
#
# Coordination Sequence:
#
# PCOD9263140 Si02
#       8
#     8   8   8   8   8   8   8   8
#     4   9  19  37  55  74 107 140 186 241 279 331
#     4  11  21  31  47  76 117 152 176 217 270 347
#     4  11  21  32  52  80 111 152 189 223 287 349
#     4  10  20  36  55  77 111 144 188 236 286 342
#     4  11  21  32  51  77 115 154 184 226 278 345
#     4  10  20  33  51  77 110 148 186 225 279 337
#     4  10  19  34  52  73 110 153 188 231 272 329
#     4  10  19  35  52  75 112 152 184 232 276 334
#
# _framework density 18.452787000000001
#
# number of rings (size 3 to 8) (size 9 to 14) (size 15 to 20)
#    0.000    1.750    2.500    4.500    1.750    3.000 
#    0.000    0.000    0.000    0.000    0.000    0.000 
#   15.000    0.000    0.000    0.000    0.000    0.000 
#
# Total GULP energy -178171.342149 kJ/mol
# GULP energy per Si atom -5567.854442 kJ/mol
# Density = 1.841079 g / cm^3
# Si number density = 18.452787 Si / 1000 Ang^3
#
#
#
# Elastic Constant Matrix: (Units=GPa)
#
#
# Indices 1 2 3 4 5 6 
#
# 1 97.2552 8.9644 32.1677 0.0000 14.0655 0.0000
# 2 8.9644 52.3106 23.8927 0.0000 11.1715 0.0000
# 3 32.1677 23.8927 76.1965 0.0000 14.4218 0.0000
# 4 0.0000 0.0000 0.0000 8.6350 0.0000 0.6378
# 5 14.0655 11.1715 14.4218 0.0000 26.8486 0.0000
# 6 0.0000 0.0000 0.0000 0.6378 0.0000 14.4528
#
#
#
# Elastic Compliance Matrix: (Units=1/GPa)
#
#
# Indices 1 2 3 4 5 6 
#
# 1 0.012379 0.000957 -0.004701 0.000000 -0.004358 0.000000
# 2 0.000957 0.023338 -0.006444 0.000000 -0.006750 0.000000
# 3 -0.004701 -0.006444 0.017984 0.000000 -0.004516 0.000000
# 4 0.000000 0.000000 0.000000 0.116186 0.000000 -0.005127
# 5 -0.004358 -0.006750 -0.004516 0.000000 0.044763 0.000000
# 6 0.000000 0.000000 0.000000 -0.005127 0.000000 0.069417
#
#
# Mechanical properties :
#
#
# Convention : Reuss Voigt Hill
#
# Bulk Modulus (GPa) = 30.00898 39.53465 34.77182
# Shear Modulus (GPa) = 15.84522 20.70313 18.27418
#
# Velocity S-wave (km/s) = 2.93352 3.35319 3.15035
# Velocity P-wave (km/s) = 5.26991 6.03847 5.66723
#
# Compressibility (1/GPa) = 0.03332336
#
# Stress axis : x y z
#
# Youngs Moduli (GPa) = 80.77997 42.84942 55.60475
#
# Poissons Ratio (x) = -0.04099 0.26141
# Poissons Ratio (y) = -0.07727 0.35832
# Poissons Ratio (z) = 0.37977 0.27613
#
# Static dielectric constant tensor:
#      x y z
#    x 1.747840 0.000000 0.014470 
#    y 0.000000 1.652960 0.000000 
#    z 0.014470 0.000000 1.635000 
# 
# From -- ./inp_files/261724.got.cif
#   From: 2010.05.17/outbox.cif.g08.bks.cpg/sg15_131_cif.got.tgz:261724.got - 2010.06.03 18:47:42.
