data_PCOD9263368
_publ_section_title
;
Structure prediction by ZEFSAII (Michael W. Deem and Ramdas Pophale) SiO2 
 PCOD9263368
Probable space group: C 2/C
;
_chemical_formula_sum "Si O2"
_cell_formula_units_Z 48
_cell_length_a 14.287355
_cell_length_b 30.807781
_cell_length_c 14.026944
_cell_angle_alpha 90.000000
_cell_angle_beta 160.075690
_cell_angle_gamma 90.000000
_cell_volume 2104.008409
_symmetry_space_group_name_H-M "C 2/C"
_symmetry_group_IT_number 15
_symmetry_cell_setting 'monoclinic'
loop_
_space_group_symop_operation_xyz
x,y,z
-x,y,1/2-z
-x,-y,-z
x,-y,1/2+z
1/2+x,1/2+y,z
1/2-x,1/2+y,1/2-z
1/2-x,1/2-y,-z
1/2+x,1/2-y,1/2+z
loop_
_atom_site_type_symbol
_atom_site_label
_atom_site_fract_x
_atom_site_fract_y
_atom_site_fract_z
Si Si1 0.508561 0.279966 0.948691
Si Si2 0.275580 0.532767 0.461335
Si Si3 0.970002 0.447500 0.961057
Si Si4 0.467083 0.718375 0.616496
Si Si5 0.500000 0.669386 0.250000
Si Si6 0.500000 0.886309 0.250000
Si Si7 0.578391 0.560308 0.476500
O O1 0.531569 0.302695 0.075048
O O2 0.587324 0.305394 0.929137
O O3 0.201801 0.262262 0.640849
O O4 0.150471 0.562106 0.257798
O O5 0.409908 0.490227 0.542237
O O6 0.000000 0.517054 0.250000
O O7 0.500000 0.550631 0.750000
O O8 0.741551 0.430987 0.816787
O O9 0.000000 0.500000 0.000000
O O10 0.268885 0.431760 0.276596
O O11 0.669202 0.759965 0.820730
O O12 0.000000 0.805619 0.250000
O O13 0.777380 0.644239 0.484282
O O14 0.723810 0.914828 0.406569
#
# Coordination Sequence:
#
# PCOD9263368 Si02
#       7
#     8   8   8   8   4   4   8
#     4  10  19  34  56  79 113 151 179 240 309 343
#     4  11  19  30  52  80 107 130 166 219 282 346
#     4  10  20  34  52  80 105 136 173 221 270 342
#     4   8  14  25  45  76 107 135 168 207 276 355
#     4  12  24  37  52  82 110 146 212 240 272 352
#     4  12  26  39  56  76 106 158 196 238 268 334
#     4  11  21  37  52  71 109 147 183 216 288 337
#
# _framework density 22.813597000000001
#
# number of rings (size 3 to 8) (size 9 to 14) (size 15 to 20)
#    0.000    1.667    0.833    7.500    1.167    0.000 
#    0.000    0.000    0.000    0.000    0.000   11.667 
#    0.000    1.333    0.000    0.000    0.000    0.000 
#
# Total GULP energy -133726.530932 kJ/mol
# GULP energy per Si atom -5571.938789 kJ/mol
# Density = 2.276167 g / cm^3
# Si number density = 22.813597 Si / 1000 Ang^3
#
#
#
# Elastic Constant Matrix: (Units=GPa)
#
#
# Indices 1 2 3 4 5 6 
#
# 1 142.4348 26.5664 31.3606 -0.0009 -23.4138 -0.0004
# 2 26.5664 13.6860 6.1713 0.0007 -8.3447 -0.0012
# 3 31.3606 6.1713 113.8021 0.0024 5.4711 -0.0019
# 4 -0.0009 0.0007 0.0024 0.5001 0.0007 17.2405
# 5 -23.4138 -8.3447 5.4711 0.0007 46.8486 -0.0002
# 6 -0.0004 -0.0012 -0.0019 17.2405 -0.0002 -9.0581
#
#
#
# Elastic Compliance Matrix: (Units=1/GPa)
#
#
# Indices 1 2 3 4 5 6 
#
# 1 0.011685 -0.020133 -0.002249 -0.000001 0.002516 0.000002
# 2 -0.020133 0.119809 -0.001499 0.000005 0.011453 -0.000006
# 3 -0.002249 -0.001499 0.009609 0.000000 -0.002513 -0.000001
# 4 -0.000001 0.000005 0.000000 0.030017 0.000000 0.057132
# 5 0.002516 0.011453 -0.002513 0.000000 0.024936 -0.000001
# 6 0.000002 -0.000006 -0.000001 0.057132 -0.000001 -0.001657
#
#
# Mechanical properties :
#
#
# Convention : Reuss Voigt Hill
#
# Bulk Modulus (GPa) = 10.71366 44.23550 27.47458
# Shear Modulus (GPa) = 18.29648 21.37976 19.83812
#
# Velocity S-wave (km/s) = 2.83503 3.06461 2.95205
# Velocity P-wave (km/s) = 3.92720 5.65283 4.86711
#
# Compressibility (1/GPa) = 0.09333877
#
# Stress axis : x y z
#
# Youngs Moduli (GPa) = 85.58113 8.34661 104.06759
#
# Poissons Ratio (x) = 0.16805 0.23407
# Poissons Ratio (y) = 1.72305 0.15605
# Poissons Ratio (z) = 0.19249 0.01252
#
# Static dielectric constant tensor:
#      x y z
#    x 1.910130 0.000000 -0.103970 
#    y 0.000000 1.855650 0.000000 
#    z -0.103970 0.000000 1.820490 
# 
# From -- ./inp_files/157737.got.cif
#   From: 2010.05.17/outbox.cif.g08.bks.cpg/sg15_79_cif.got.tgz:157737.got - 2010.06.03 18:47:42.
