data_PCOD9263755
_publ_section_title
;
Structure prediction by ZEFSAII (Michael W. Deem and Ramdas Pophale) SiO2 
 PCOD9263755
Probable space group: C 2/C
;
_chemical_formula_sum "Si O2"
_cell_formula_units_Z 64
_cell_length_a 29.749056
_cell_length_b 19.252673
_cell_length_c 12.882153
_cell_angle_alpha 90.000000
_cell_angle_beta 152.683876
_cell_angle_gamma 90.000000
_cell_volume 3385.870656
_symmetry_space_group_name_H-M "C 2/C"
_symmetry_group_IT_number 15
_symmetry_cell_setting 'monoclinic'
loop_
_space_group_symop_operation_xyz
x,y,z
-x,y,1/2-z
-x,-y,-z
x,-y,1/2+z
1/2+x,1/2+y,z
1/2-x,1/2+y,1/2-z
1/2-x,1/2-y,-z
1/2+x,1/2-y,1/2+z
loop_
_atom_site_type_symbol
_atom_site_label
_atom_site_fract_x
_atom_site_fract_y
_atom_site_fract_z
Si Si1 0.577932 0.815135 0.669256
Si Si2 0.907155 0.095154 0.994889
Si Si3 0.294201 0.811859 0.768961
Si Si4 0.450102 0.564116 0.541119
Si Si5 0.774987 0.162056 0.152625
Si Si6 0.715566 0.846145 0.131961
Si Si7 0.891148 0.152941 0.740436
Si Si8 0.133051 0.686724 0.676593
O O1 0.615908 0.819182 0.627919
O O2 0.582497 0.733953 0.712434
O O3 0.467135 0.832768 0.471278
O O4 0.652839 0.856340 0.898337
O O5 0.803361 0.100583 0.840538
O O6 0.877220 0.138188 0.832432
O O7 0.000000 0.123960 0.250000
O O8 0.938947 0.018321 0.025678
O O9 0.297076 0.834439 0.895291
O O10 0.263293 0.730892 0.716597
O O11 0.204229 0.852478 0.528007
O O12 0.500000 0.588459 0.750000
O O13 0.344634 0.596729 0.308784
O O14 0.524447 0.598223 0.613254
O O15 0.845378 0.230485 0.293998
O O16 0.718518 0.161715 0.928698
O O17 0.643445 0.843253 0.082634
#
# Coordination Sequence:
#
# PCOD9263755 Si02
#       8
#     8   8   8   8   8   8   8   8
#     4  11  19  35  61  87 110 151 192 238 293 349
#     4  11  24  36  54  87 119 156 191 232 294 355
#     4  10  19  34  60  80 114 152 189 243 287 345
#     4  11  22  37  58  81 118 158 192 227 289 361
#     4  10  21  37  52  85 117 146 189 243 297 342
#     4  10  20  37  54  84 117 148 192 237 291 348
#     4  11  19  36  56  85 116 148 190 237 284 357
#     4  10  22  34  57  85 113 148 188 247 302 336
#
# _framework density 18.902080999999999
#
# number of rings (size 3 to 8) (size 9 to 14) (size 15 to 20)
#    0.000    1.500    5.000    1.500    1.750    1.500 
#    0.000    0.000    0.000    0.750    3.250    0.000 
#    0.000    0.000    0.000    0.000    0.000    0.000 
#
# Total GULP energy -178208.029920 kJ/mol
# GULP energy per Si atom -5569.000935 kJ/mol
# Density = 1.885906 g / cm^3
# Si number density = 18.902081 Si / 1000 Ang^3
#
#
#
# Elastic Constant Matrix: (Units=GPa)
#
#
# Indices 1 2 3 4 5 6 
#
# 1 117.6765 5.0856 12.4486 0.0000 7.7284 0.0000
# 2 5.0856 28.3470 18.2657 0.0000 3.9472 0.0000
# 3 12.4486 18.2657 41.1801 0.0000 0.5264 0.0000
# 4 0.0000 0.0000 0.0000 23.5802 0.0000 5.5707
# 5 7.7284 3.9472 0.5264 0.0000 37.6310 0.0000
# 6 0.0000 0.0000 0.0000 5.5707 0.0000 53.4660
#
#
#
# Elastic Compliance Matrix: (Units=1/GPa)
#
#
# Indices 1 2 3 4 5 6 
#
# 1 0.008903 0.000530 -0.002903 0.000000 -0.001843 0.000000
# 2 0.000530 0.050337 -0.022423 0.000000 -0.005075 0.000000
# 3 -0.002903 -0.022423 0.035075 0.000000 0.002457 0.000000
# 4 0.000000 0.000000 0.000000 0.043479 0.000000 -0.004530
# 5 -0.001843 -0.005075 0.002457 0.000000 0.027450 0.000000
# 6 0.000000 0.000000 0.000000 -0.004530 0.000000 0.019175
#
#
# Mechanical properties :
#
#
# Convention : Reuss Voigt Hill
#
# Bulk Modulus (GPa) = 22.35920 28.75595 25.55757
# Shear Modulus (GPa) = 20.08682 33.02903 26.55793
#
# Velocity S-wave (km/s) = 3.26341 4.18470 3.75243
# Velocity P-wave (km/s) = 5.10435 6.21249 5.68549
#
# Compressibility (1/GPa) = 0.04472433
#
# Stress axis : x y z
#
# Youngs Moduli (GPa) = 112.32012 19.86611 28.50995
#
# Poissons Ratio (x) = -0.01053 0.08276
# Poissons Ratio (y) = -0.05952 0.63927
# Poissons Ratio (z) = 0.32605 0.44545
#
# Static dielectric constant tensor:
#      x y z
#    x 1.841680 0.000000 0.015660 
#    y 0.000000 1.635850 0.000000 
#    z 0.015660 0.000000 1.654600 
# 
# From -- ./inp_files/127320.got.cif
#   From: 2010.05.17/outbox.cif.g08.bks.cpg/sg15_64_cif.got.tgz:127320.got - 2010.06.03 18:47:42.
