data_PCOD9263983
_publ_section_title
;
Structure prediction by ZEFSAII (Michael W. Deem and Ramdas Pophale) SiO2 
 PCOD9263983
Probable space group: C 2/C
;
_chemical_formula_sum "Si O2"
_cell_formula_units_Z 52
_cell_length_a 31.692062
_cell_length_b 9.160534
_cell_length_c 22.265703
_cell_angle_alpha 90.000000
_cell_angle_beta 25.540952
_cell_angle_gamma 90.000000
_cell_volume 2787.033838
_symmetry_space_group_name_H-M "C 2/C"
_symmetry_group_IT_number 15
_symmetry_cell_setting 'monoclinic'
loop_
_space_group_symop_operation_xyz
x,y,z
-x,y,1/2-z
-x,-y,-z
x,-y,1/2+z
1/2+x,1/2+y,z
1/2-x,1/2+y,1/2-z
1/2-x,1/2-y,-z
1/2+x,1/2-y,1/2+z
loop_
_atom_site_type_symbol
_atom_site_label
_atom_site_fract_x
_atom_site_fract_y
_atom_site_fract_z
Si Si1 0.033214 0.048986 0.332510
Si Si2 0.314906 0.578835 0.640643
Si Si3 0.641649 0.861095 0.991335
Si Si4 0.500000 0.339497 0.750000
Si Si5 0.649676 0.094747 0.285220
Si Si6 0.510829 0.126893 0.908148
Si Si7 0.698591 0.596820 0.698200
O O1 0.919371 0.010444 0.488576
O O2 0.045078 0.064390 0.245804
O O3 0.042790 0.213225 0.346319
O O4 0.107197 0.952569 0.275257
O O5 0.309055 0.738369 0.615905
O O6 0.226118 0.484426 0.730342
O O7 0.314969 0.585832 0.712245
O O8 0.583602 0.764459 0.114555
O O9 0.559987 0.933509 0.053099
O O10 0.713357 0.982598 0.925857
O O11 0.556217 0.143352 0.446050
O O12 0.703830 0.228802 0.183561
O O13 0.602083 0.976533 0.302375
#
# Coordination Sequence:
#
# PCOD9263983 Si02
#       7
#     8   8   8   4   8   8   8
#     4  10  21  37  59  77 111 147 200 230 272 326
#     4  10  19  35  51  83 118 151 178 230 277 347
#     4  10  20  38  61  79 114 148 198 226 272 329
#     4   8  20  42  60  78 100 158 206 234 256 328
#     4  11  20  31  52  83 125 141 175 218 298 340
#     4   9  19  34  51  79 112 159 172 226 267 344
#     4  12  20  32  54  91 114 146 180 236 287 339
#
# _framework density 18.657829
#
# number of rings (size 3 to 8) (size 9 to 14) (size 15 to 20)
#    0.000    2.154    4.615    1.385    0.000    1.846 
#    0.000    1.538    0.000   22.154    0.000    0.000 
#    0.000    0.000    0.000    0.000    0.000    0.000 
#
# Total GULP energy -144883.280154 kJ/mol
# GULP energy per Si atom -5572.433852 kJ/mol
# Density = 1.861536 g / cm^3
# Si number density = 18.657829 Si / 1000 Ang^3
#
#
#
# Elastic Constant Matrix: (Units=GPa)
#
#
# Indices 1 2 3 4 5 6 
#
# 1 93.0933 50.8066 22.9832 0.0002 -17.6764 0.0019
# 2 50.8066 64.9484 24.2929 -0.0109 -6.9605 0.0066
# 3 22.9832 24.2929 33.7067 -0.0069 -5.1781 0.0038
# 4 0.0002 -0.0109 -0.0069 7.7067 0.0043 13.2295
# 5 -17.6764 -6.9605 -5.1781 0.0043 21.0507 -0.0012
# 6 0.0019 0.0066 0.0038 13.2295 -0.0012 -5.1158
#
#
#
# Elastic Compliance Matrix: (Units=1/GPa)
#
#
# Indices 1 2 3 4 5 6 
#
# 1 0.021864 -0.014904 -0.002186 -0.000001 0.012893 -0.000018
# 2 -0.014904 0.031470 -0.013347 -0.000002 -0.005392 0.000022
# 3 -0.002186 -0.013347 0.041381 -0.000001 0.003930 0.000010
# 4 -0.000001 -0.000002 -0.000001 0.023856 -0.000003 0.061692
# 5 0.012893 -0.005392 0.003930 -0.000003 0.057515 -0.000020
# 6 -0.000018 0.000022 0.000010 0.061692 -0.000020 -0.035938
#
#
# Mechanical properties :
#
#
# Convention : Reuss Voigt Hill
#
# Bulk Modulus (GPa) = 29.54929 43.10152 36.32540
# Shear Modulus (GPa) = 23.55151 10.97271 17.26211
#
# Velocity S-wave (km/s) = 3.55672 2.42771 3.04500
# Velocity P-wave (km/s) = 5.72179 5.56862 5.64573
#
# Compressibility (1/GPa) = 0.03384177
#
# Stress axis : x y z
#
# Youngs Moduli (GPa) = 45.73826 31.77670 24.16554
#
# Poissons Ratio (x) = 0.47359 0.05282
# Poissons Ratio (y) = 0.68167 0.32253
# Poissons Ratio (z) = 0.09998 0.42412
#
# Static dielectric constant tensor:
#      x y z
#    x 1.655010 0.000000 0.007900 
#    y 0.000000 1.667120 0.000000 
#    z 0.007900 0.000000 1.672580 
# 
# From -- ./inp_files/258842.got.cif
#   From: 2010.05.17/outbox.cif.g08.bks.cpg/sg15_130_cif.got.tgz:258842.got - 2010.06.03 18:47:42.
