data_PCOD9263761
_publ_section_title
;
Structure prediction by ZEFSAII (Michael W. Deem and Ramdas Pophale) SiO2 
 PCOD9263761
Probable space group: C 2/C
;
_chemical_formula_sum "Si O2"
_cell_formula_units_Z 60
_cell_length_a 24.275427
_cell_length_b 16.362155
_cell_length_c 10.648544
_cell_angle_alpha 90.000000
_cell_angle_beta 46.678555
_cell_angle_gamma 90.000000
_cell_volume 3077.089780
_symmetry_space_group_name_H-M "C 2/C"
_symmetry_group_IT_number 15
_symmetry_cell_setting 'monoclinic'
loop_
_space_group_symop_operation_xyz
x,y,z
-x,y,1/2-z
-x,-y,-z
x,-y,1/2+z
1/2+x,1/2+y,z
1/2-x,1/2+y,1/2-z
1/2-x,1/2-y,-z
1/2+x,1/2-y,1/2+z
loop_
_atom_site_type_symbol
_atom_site_label
_atom_site_fract_x
_atom_site_fract_y
_atom_site_fract_z
Si Si1 0.650982 0.521805 0.963687
Si Si2 0.500000 0.579101 0.750000
Si Si3 0.562300 0.047890 0.541368
Si Si4 0.072884 0.182018 0.059076
Si Si5 0.938806 0.622381 0.560231
Si Si6 0.342173 0.167445 0.955854
Si Si7 0.034476 0.202223 0.487987
Si Si8 0.816916 0.903182 0.815180
O O1 0.574650 0.473969 0.119630
O O2 0.624819 0.606569 0.940686
O O3 0.685246 0.549269 0.046451
O O4 0.688233 0.465227 0.796808
O O5 0.494313 0.638817 0.641323
O O6 0.500000 0.046433 0.750000
O O7 0.518663 0.088781 0.491836
O O8 0.630067 0.103949 0.481863
O O9 0.588508 0.955638 0.474763
O O10 0.122892 0.246385 0.057040
O O11 0.000000 0.149354 0.250000
O O12 0.027744 0.225602 0.018492
O O13 0.883442 0.640295 0.763484
O O14 0.943443 0.710607 0.486897
O O15 0.253034 0.159222 0.080648
O O16 0.106073 0.150387 0.322387
#
# Coordination Sequence:
#
# PCOD9263761 Si02
#       8
#     8   4   8   8   8   8   8   8
#     4  11  22  41  63  93 124 164 203 257 310 373
#     4  10  22  38  64  92 126 154 202 252 314 372
#     4   9  19  36  56  83 110 153 204 253 292 359
#     4  12  19  38  68  90 113 158 213 255 303 351
#     4  10  19  34  60  83 114 152 208 248 300 352
#     4  11  22  38  57  87 121 160 202 256 302 373
#     4  11  21  38  62  93 121 157 201 261 303 367
#     4  11  25  39  61  91 132 160 204 252 319 370
#
# _framework density 19.498944000000002
#
# number of rings (size 3 to 8) (size 9 to 14) (size 15 to 20)
#    0.000    1.333    4.667    1.200    2.800    4.267 
#    0.000    0.000    0.000    2.400    0.000    0.000 
#    0.000    0.000    0.000    0.000    0.000    0.000 
#
# Total GULP energy -167218.298388 kJ/mol
# GULP energy per Si atom -5573.943280 kJ/mol
# Density = 1.945456 g / cm^3
# Si number density = 19.498944 Si / 1000 Ang^3
#
#
#
# Elastic Constant Matrix: (Units=GPa)
#
#
# Indices 1 2 3 4 5 6 
#
# 1 50.3511 13.1469 22.8486 0.0000 -3.5732 0.0000
# 2 13.1469 118.7049 15.6171 0.0000 1.8348 0.0000
# 3 22.8486 15.6171 35.0499 0.0000 -10.6799 0.0000
# 4 0.0000 0.0000 0.0000 25.2563 0.0000 7.0993
# 5 -3.5732 1.8348 -10.6799 0.0000 14.9730 0.0000
# 6 0.0000 0.0000 0.0000 7.0993 0.0000 33.7794
#
#
#
# Elastic Compliance Matrix: (Units=1/GPa)
#
#
# Indices 1 2 3 4 5 6 
#
# 1 0.029014 -0.000285 -0.021295 0.000000 -0.008230 0.000000
# 2 -0.000285 0.009259 -0.005502 0.000000 -0.005127 0.000000
# 3 -0.021295 -0.005502 0.055607 0.000000 0.035255 0.000000
# 4 0.000000 0.000000 0.000000 0.042080 0.000000 -0.008844
# 5 -0.008230 -0.005127 0.035255 0.000000 0.090598 0.000000
# 6 0.000000 0.000000 0.000000 -0.008844 0.000000 0.031462
#
#
# Mechanical properties :
#
#
# Convention : Reuss Voigt Hill
#
# Bulk Modulus (GPa) = 25.17861 34.14792 29.66326
# Shear Modulus (GPa) = 15.36463 24.96795 20.16629
#
# Velocity S-wave (km/s) = 2.81013 3.58226 3.21943
# Velocity P-wave (km/s) = 4.84458 5.88734 5.39123
#
# Compressibility (1/GPa) = 0.03971625
#
# Stress axis : x y z
#
# Youngs Moduli (GPa) = 34.46595 108.00406 17.98340
#
# Poissons Ratio (x) = 0.03073 0.38296
# Poissons Ratio (y) = 0.00981 0.09895
# Poissons Ratio (z) = 0.73395 0.59427
#
# Static dielectric constant tensor:
#      x y z
#    x 1.717560 0.000000 0.043940 
#    y 0.000000 1.678950 0.000000 
#    z 0.043940 0.000000 1.688940 
# 
# From -- ./inp_files/118777.got.cif
#   From: 2010.05.17/outbox.cif.g08.bks.cpg/sg15_60_cif.got.tgz:118777.got - 2010.06.03 18:47:42.
