data_PCOD9263293
_publ_section_title
;
Structure prediction by ZEFSAII (Michael W. Deem and Ramdas Pophale) SiO2 
 PCOD9263293
Probable space group: C 2/C
;
_chemical_formula_sum "Si O2"
_cell_formula_units_Z 40
_cell_length_a 25.821011
_cell_length_b 11.623013
_cell_length_c 10.817311
_cell_angle_alpha 90.000000
_cell_angle_beta 142.504107
_cell_angle_gamma 90.000000
_cell_volume 1976.140582
_symmetry_space_group_name_H-M "C 2/C"
_symmetry_group_IT_number 15
_symmetry_cell_setting 'monoclinic'
loop_
_space_group_symop_operation_xyz
x,y,z
-x,y,1/2-z
-x,-y,-z
x,-y,1/2+z
1/2+x,1/2+y,z
1/2-x,1/2+y,1/2-z
1/2-x,1/2-y,-z
1/2+x,1/2-y,1/2+z
loop_
_atom_site_type_symbol
_atom_site_label
_atom_site_fract_x
_atom_site_fract_y
_atom_site_fract_z
Si Si1 0.393642 0.343239 0.905649
Si Si2 0.370944 0.077245 0.820371
Si Si3 0.900449 0.445425 0.645181
Si Si4 0.419071 0.312270 0.242914
Si Si5 0.775300 0.043818 0.582678
O O1 0.361988 0.214261 0.814321
O O2 0.331876 0.438558 0.736167
O O3 0.400843 0.350977 0.067790
O O4 0.490252 0.359632 0.040710
O O5 0.282994 0.005307 0.639988
O O6 0.414752 0.044688 0.772695
O O7 0.418833 0.036964 0.035678
O O8 0.933413 0.324505 0.759894
O O9 0.797124 0.425570 0.455026
O O10 0.338569 0.353136 0.168875
#
# Coordination Sequence:
#
# PCOD9263293 Si02
#       5
#     8   8   8   8   8
#     4  10  20  35  54  79 112 144 176 221 275 320
#     4   9  20  35  57  82 108 142 181 222 266 317
#     4   9  20  35  57  82 108 142 181 222 266 317
#     4  10  20  35  54  79 112 144 176 221 275 320
#     4  10  19  34  55  80 102 144 182 220 259 316
#
# _framework density 20.241475999999999
#
# number of rings (size 3 to 8) (size 9 to 14) (size 15 to 20)
#    1.200    1.200    0.000    3.000    0.000    0.800 
#    0.000    2.000    0.000    4.800    0.000    0.000 
#    0.000    0.000    0.000    0.000    0.000    0.000 
#
# Total GULP energy -111446.289323 kJ/mol
# GULP energy per Si atom -5572.314466 kJ/mol
# Density = 2.019541 g / cm^3
# Si number density = 20.241476 Si / 1000 Ang^3
#
#
#
# Elastic Constant Matrix: (Units=GPa)
#
#
# Indices 1 2 3 4 5 6 
#
# 1 65.7628 10.1424 -1.8371 0.0000 -0.9315 0.0000
# 2 10.1424 34.6345 11.8653 0.0000 -8.5680 0.0000
# 3 -1.8371 11.8653 52.3862 0.0000 2.7175 0.0000
# 4 0.0000 0.0000 0.0000 25.1564 0.0000 13.6184
# 5 -0.9315 -8.5680 2.7175 0.0000 35.0758 0.0000
# 6 0.0000 0.0000 0.0000 13.6184 0.0000 25.2846
#
#
#
# Elastic Compliance Matrix: (Units=1/GPa)
#
#
# Indices 1 2 3 4 5 6 
#
# 1 0.016114 -0.005641 0.001900 0.000000 -0.001097 0.000000
# 2 -0.005641 0.035835 -0.008796 0.000000 0.009285 0.000000
# 3 0.001900 -0.008796 0.021342 0.000000 -0.003752 0.000000
# 4 0.000000 0.000000 0.000000 0.056112 0.000000 -0.030222
# 5 -0.001097 0.009285 -0.003752 0.000000 0.031039 0.000000
# 6 0.000000 0.000000 0.000000 -0.030222 0.000000 0.055828
#
#
# Mechanical properties :
#
#
# Convention : Reuss Voigt Hill
#
# Bulk Modulus (GPa) = 20.73969 21.45831 21.09900
# Shear Modulus (GPa) = 19.42371 25.94424 22.68398
#
# Velocity S-wave (km/s) = 3.10110 3.58402 3.35127
# Velocity P-wave (km/s) = 4.80529 5.26793 5.04192
#
# Compressibility (1/GPa) = 0.04821672
#
# Stress axis : x y z
#
# Youngs Moduli (GPa) = 62.05904 27.90548 46.85491
#
# Poissons Ratio (x) = 0.15741 -0.08901
# Poissons Ratio (y) = 0.35007 0.41214
# Poissons Ratio (z) = -0.11789 0.24546
#
# Static dielectric constant tensor:
#      x y z
#    x 1.767560 0.000000 0.044970 
#    y 0.000000 1.663020 0.000000 
#    z 0.044970 0.000000 1.724480 
# 
# From -- ./inp_files/102853.got.cif
#   From: 2010.05.17/outbox.cif.g08.bks.cpg/sg15_52_cif.got.tgz:102853.got - 2010.06.03 18:47:42.
