data_PCOD9263518
_publ_section_title
;
Structure prediction by ZEFSAII (Michael W. Deem and Ramdas Pophale) SiO2 
 PCOD9263518
Probable space group: C 2/C
;
_chemical_formula_sum "Si O2"
_cell_formula_units_Z 64
_cell_length_a 12.448344
_cell_length_b 15.215198
_cell_length_c 23.695495
_cell_angle_alpha 90.000000
_cell_angle_beta 139.148506
_cell_angle_gamma 90.000000
_cell_volume 2935.618236
_symmetry_space_group_name_H-M "C 2/C"
_symmetry_group_IT_number 15
_symmetry_cell_setting 'monoclinic'
loop_
_space_group_symop_operation_xyz
x,y,z
-x,y,1/2-z
-x,-y,-z
x,-y,1/2+z
1/2+x,1/2+y,z
1/2-x,1/2+y,1/2-z
1/2-x,1/2-y,-z
1/2+x,1/2-y,1/2+z
loop_
_atom_site_type_symbol
_atom_site_label
_atom_site_fract_x
_atom_site_fract_y
_atom_site_fract_z
Si Si1 0.950950 0.880204 0.169671
Si Si2 0.013708 0.033919 0.114127
Si Si3 0.276745 0.787408 0.257142
Si Si4 0.413427 0.850138 0.464695
Si Si5 0.348149 0.630909 0.221579
Si Si6 0.424364 0.281613 0.543942
Si Si7 0.930480 0.520003 0.396260
Si Si8 0.135807 0.528726 0.757790
O O1 0.780058 0.829851 0.111554
O O2 0.000000 0.922356 0.250000
O O3 0.110702 0.821560 0.219771
O O4 0.932051 0.947484 0.109344
O O5 0.071104 0.081827 0.194068
O O6 0.924420 0.111603 0.044251
O O7 0.184131 0.005215 0.152745
O O8 0.234160 0.706737 0.199956
O O9 0.421099 0.752046 0.355935
O O10 0.347509 0.868390 0.249638
O O11 0.529628 0.767707 0.496318
O O12 0.443718 0.907337 0.532763
O O13 0.452204 0.924154 0.431699
O O14 0.500000 0.672402 0.250000
O O15 0.238985 0.560396 0.145688
O O16 0.250000 0.250000 0.500000
O O17 0.910599 0.512855 0.321519
O O18 0.000000 0.510271 0.750000
#
# Coordination Sequence:
#
# PCOD9263518 Si02
#       8
#     8   8   8   8   8   8   8   8
#     4  11  19  38  65  89 125 164 222 265 310 382
#     4   9  21  35  58  90 114 160 215 255 313 370
#     4  10  21  37  58  95 119 163 214 259 314 381
#     4  11  22  38  65  92 128 167 201 272 325 376
#     4  10  19  34  57  86 120 154 204 267 312 367
#     4  11  23  38  57  93 135 160 204 266 328 379
#     4  10  22  37  60  95 118 161 220 248 329 374
#     4  10  19  40  64  85 123 166 214 260 307 386
#
# _framework density 21.801200000000001
#
# number of rings (size 3 to 8) (size 9 to 14) (size 15 to 20)
#    0.000    1.750    2.500    3.000    7.000    0.000 
#    6.750    0.625    0.000    2.250    0.000    0.000 
#    0.000    0.000    0.000    0.000    0.000    0.000 
#
# Total GULP energy -178392.154228 kJ/mol
# GULP energy per Si atom -5574.754820 kJ/mol
# Density = 2.175158 g / cm^3
# Si number density = 21.801200 Si / 1000 Ang^3
#
#
#
# Elastic Constant Matrix: (Units=GPa)
#
#
# Indices 1 2 3 4 5 6 
#
# 1 111.9100 24.2828 18.9995 0.0000 31.6169 0.0000
# 2 24.2828 50.7259 2.1890 0.0000 6.5616 0.0000
# 3 18.9995 2.1890 42.8459 0.0000 16.2235 0.0000
# 4 0.0000 0.0000 0.0000 23.7946 0.0000 0.1422
# 5 31.6169 6.5616 16.2235 0.0000 29.0094 0.0000
# 6 0.0000 0.0000 0.0000 0.1422 0.0000 22.0591
#
#
#
# Elastic Compliance Matrix: (Units=1/GPa)
#
#
# Indices 1 2 3 4 5 6 
#
# 1 0.014007 -0.004896 -0.000761 0.000000 -0.013733 0.000000
# 2 -0.004896 0.022046 0.001158 0.000000 -0.000298 0.000000
# 3 -0.000761 0.001158 0.029690 0.000000 -0.016036 0.000000
# 4 0.000000 0.000000 0.000000 0.042028 0.000000 -0.000271
# 5 -0.013733 -0.000298 -0.016036 0.000000 0.058475 0.000000
# 6 0.000000 0.000000 0.000000 -0.000271 0.000000 0.045334
#
#
# Mechanical properties :
#
#
# Convention : Reuss Voigt Hill
#
# Bulk Modulus (GPa) = 17.62302 32.93605 25.27953
# Shear Modulus (GPa) = 20.87730 25.64001 23.25865
#
# Velocity S-wave (km/s) = 3.09790 3.43313 3.26981
# Velocity P-wave (km/s) = 4.57133 5.55476 5.08687
#
# Compressibility (1/GPa) = 0.05674398
#
# Stress axis : x y z
#
# Youngs Moduli (GPa) = 71.39151 45.35945 33.68142
#
# Poissons Ratio (x) = 0.22208 0.02564
# Poissons Ratio (y) = 0.34954 -0.03899
# Poissons Ratio (z) = 0.05434 -0.05251
#
# Static dielectric constant tensor:
#      x y z
#    x 1.801280 0.000000 -0.016240 
#    y 0.000000 1.839590 0.000000 
#    z -0.016240 0.000000 1.871190 
# 
# From -- ./inp_files/293107.got.cif
#   From: 2010.05.17/outbox.cif.g08.bks.cpg/sg15_147_cif.got.tgz:293107.got - 2010.06.03 18:47:42.
