data_PCOD9263714
_publ_section_title
;
Structure prediction by ZEFSAII (Michael W. Deem and Ramdas Pophale) SiO2 
 PCOD9263714
Probable space group: C 2/C
;
_chemical_formula_sum "Si O2"
_cell_formula_units_Z 64
_cell_length_a 18.829407
_cell_length_b 28.837100
_cell_length_c 16.554598
_cell_angle_alpha 90.000000
_cell_angle_beta 157.784776
_cell_angle_gamma 90.000000
_cell_volume 3398.586783
_symmetry_space_group_name_H-M "C 2/C"
_symmetry_group_IT_number 15
_symmetry_cell_setting 'monoclinic'
loop_
_space_group_symop_operation_xyz
x,y,z
-x,y,1/2-z
-x,-y,-z
x,-y,1/2+z
1/2+x,1/2+y,z
1/2-x,1/2+y,1/2-z
1/2-x,1/2-y,-z
1/2+x,1/2-y,1/2+z
loop_
_atom_site_type_symbol
_atom_site_label
_atom_site_fract_x
_atom_site_fract_y
_atom_site_fract_z
Si Si1 0.441151 0.369155 0.776850
Si Si2 0.658867 0.398487 0.246408
Si Si3 0.349985 0.761503 0.775253
Si Si4 0.365622 0.188091 0.031841
Si Si5 0.051563 0.183560 0.060844
Si Si6 0.121948 0.554168 0.957950
Si Si7 0.740440 0.062192 0.814727
Si Si8 0.473284 0.509975 0.818126
O O1 0.500000 0.353593 0.750000
O O2 0.400022 0.328686 0.797131
O O3 0.256269 0.401671 0.582178
O O4 0.620066 0.399886 0.996361
O O5 0.783442 0.362925 0.429976
O O6 0.766279 0.425013 0.286897
O O7 0.550640 0.436409 0.184999
O O8 0.518447 0.364064 0.052168
O O9 0.514655 0.794657 0.918819
O O10 0.292928 0.728474 0.639047
O O11 0.200352 0.795606 0.655682
O O12 0.397651 0.724053 0.894282
O O13 0.500000 0.188789 0.250000
O O14 0.000000 0.543128 0.750000
O O15 0.966015 0.561427 0.863119
O O16 0.277360 0.514614 0.137020
O O17 0.854227 0.014627 0.953521
O O18 0.500000 0.502589 0.750000
#
# Coordination Sequence:
#
# PCOD9263714 Si02
#       8
#     8   8   8   8   8   8   8   8
#     4  10  19  34  59  88 115 146 193 239 274 324
#     4  10  23  37  55  85 115 145 186 241 287 319
#     4   9  19  38  59  80 109 150 182 223 286 348
#     4  10  20  36  58  84 111 141 187 231 280 343
#     4   9  20  38  58  81 112 145 184 231 283 339
#     4  11  19  35  60  84 109 158 199 225 276 332
#     4  10  20  39  58  79 117 155 195 230 273 342
#     4  11  22  38  56  81 119 155 189 235 282 329
#
# _framework density 18.831357000000001
#
# number of rings (size 3 to 8) (size 9 to 14) (size 15 to 20)
#    0.000    2.000    2.500    1.500    1.750    2.000 
#    2.250    1.875    0.000    0.000    0.000    0.000 
#    0.000    0.000    0.000    0.000    0.000    0.000 
#
# Total GULP energy -178266.592401 kJ/mol
# GULP energy per Si atom -5570.831013 kJ/mol
# Density = 1.878850 g / cm^3
# Si number density = 18.831357 Si / 1000 Ang^3
#
#
#
# Elastic Constant Matrix: (Units=GPa)
#
#
# Indices 1 2 3 4 5 6 
#
# 1 50.3208 29.3637 17.8186 0.0001 8.6328 0.0001
# 2 29.3637 86.7983 15.1313 0.0002 0.0894 0.0002
# 3 17.8186 15.1313 52.8308 0.0010 12.6100 0.0005
# 4 0.0001 0.0002 0.0010 12.7164 0.0003 3.6810
# 5 8.6328 0.0894 12.6100 0.0003 31.0372 0.0001
# 6 0.0001 0.0002 0.0005 3.6810 0.0001 17.6702
#
#
#
# Elastic Compliance Matrix: (Units=1/GPa)
#
#
# Indices 1 2 3 4 5 6 
#
# 1 0.027684 -0.008374 -0.005655 0.000001 -0.005379 0.000000
# 2 -0.008374 0.014725 -0.002147 0.000000 0.003159 0.000000
# 3 -0.005655 -0.002147 0.023337 -0.000002 -0.007902 0.000000
# 4 0.000001 0.000000 -0.000002 0.083685 0.000000 -0.017433
# 5 -0.005379 0.003159 -0.007902 0.000000 0.036917 0.000000
# 6 0.000000 0.000000 0.000000 -0.017433 0.000000 0.060224
#
#
# Mechanical properties :
#
#
# Convention : Reuss Voigt Hill
#
# Bulk Modulus (GPa) = 29.94584 34.95298 32.44941
# Shear Modulus (GPa) = 17.23806 20.79383 19.01595
#
# Velocity S-wave (km/s) = 3.02883 3.32658 3.18119
# Velocity P-wave (km/s) = 5.30739 5.77548 5.54637
#
# Compressibility (1/GPa) = 0.03339362
#
# Stress axis : x y z
#
# Youngs Moduli (GPa) = 36.12167 67.91194 42.85085
#
# Poissons Ratio (x) = 0.56871 0.24232
# Poissons Ratio (y) = 0.30249 0.09200
# Poissons Ratio (z) = 0.20427 0.14581
#
# Static dielectric constant tensor:
#      x y z
#    x 1.668310 0.000000 0.025250 
#    y 0.000000 1.645250 0.000000 
#    z 0.025250 0.000000 1.753980 
# 
# From -- ./inp_files/216970.got.cif
#   From: 2010.05.17/outbox.cif.g08.bks.cpg/sg15_109_cif.got.tgz:216970.got - 2010.06.03 18:47:42.
