data_PCOD9263902
_publ_section_title
;
Structure prediction by ZEFSAII (Michael W. Deem and Ramdas Pophale) SiO2 
 PCOD9263902
Probable space group: C 2/C
;
_chemical_formula_sum "Si O2"
_cell_formula_units_Z 52
_cell_length_a 8.308875
_cell_length_b 23.575400
_cell_length_c 24.347513
_cell_angle_alpha 90.000000
_cell_angle_beta 146.276269
_cell_angle_gamma 90.000000
_cell_volume 2647.870401
_symmetry_space_group_name_H-M "C 2/C"
_symmetry_group_IT_number 15
_symmetry_cell_setting 'monoclinic'
loop_
_space_group_symop_operation_xyz
x,y,z
-x,y,1/2-z
-x,-y,-z
x,-y,1/2+z
1/2+x,1/2+y,z
1/2-x,1/2+y,1/2-z
1/2-x,1/2-y,-z
1/2+x,1/2-y,1/2+z
loop_
_atom_site_type_symbol
_atom_site_label
_atom_site_fract_x
_atom_site_fract_y
_atom_site_fract_z
Si Si1 0.868336 0.470623 0.050966
Si Si2 0.364268 0.810100 0.551602
Si Si3 0.268044 0.034446 0.733803
Si Si4 0.307370 0.917218 0.460683
Si Si5 0.000000 0.833857 0.750000
Si Si6 0.335603 0.409919 0.795646
Si Si7 0.827651 0.107570 0.413830
O O1 0.084409 0.465850 0.164516
O O2 0.995379 0.434654 0.035418
O O3 0.839154 0.534498 0.017979
O O4 0.568780 0.441512 0.987444
O O5 0.250000 0.750000 0.500000
O O6 0.365398 0.856135 0.503085
O O7 0.694197 0.802513 0.667528
O O8 0.167041 0.841021 0.542139
O O9 0.500000 0.035461 0.750000
O O10 0.024640 0.081167 0.654731
O O11 0.089976 0.975471 0.676661
O O12 0.026622 0.876896 0.807764
O O13 0.351734 0.376267 0.856836
O O14 0.005625 0.413421 0.679734
#
# Coordination Sequence:
#
# PCOD9263902 Si02
#       7
#     8   8   8   8   4   8   8
#     4  11  22  38  63  99 132 168 199 263 339 390
#     4  11  25  45  66  90 125 168 224 270 317 377
#     4  12  22  34  59  96 136 166 204 256 330 395
#     4  11  24  39  62  95 137 168 210 262 322 394
#     4  10  22  40  68  88 122 168 216 268 312 380
#     4  10  19  34  62  95 124 161 209 256 319 384
#     4  10  19  38  62  92 124 160 212 263 316 388
#
# _framework density 19.638424000000001
#
# number of rings (size 3 to 8) (size 9 to 14) (size 15 to 20)
#    0.000    1.231    3.077    4.154    4.308    1.846 
#    4.154    3.077   10.154    0.000    0.000    0.000 
#    0.000    0.000    0.000    0.000    0.000    0.000 
#
# Total GULP energy -145111.378775 kJ/mol
# GULP energy per Si atom -5581.206876 kJ/mol
# Density = 1.959373 g / cm^3
# Si number density = 19.638424 Si / 1000 Ang^3
#
#
#
# Elastic Constant Matrix: (Units=GPa)
#
#
# Indices 1 2 3 4 5 6 
#
# 1 108.9619 50.4229 46.1019 -0.0021 -16.4123 -0.0034
# 2 50.4229 121.0372 47.8813 -0.0009 -2.5700 -0.0009
# 3 46.1019 47.8813 112.6420 -0.0048 -1.4796 -0.0021
# 4 -0.0021 -0.0009 -0.0048 19.2935 -0.0016 -7.6772
# 5 -16.4123 -2.5700 -1.4796 -0.0016 35.4781 -0.0022
# 6 -0.0034 -0.0009 -0.0021 -7.6772 -0.0022 16.5259
#
#
#
# Elastic Compliance Matrix: (Units=1/GPa)
#
#
# Indices 1 2 3 4 5 6 
#
# 1 0.013491 -0.004019 -0.003737 0.000002 0.005794 0.000004
# 2 -0.004019 0.011140 -0.003106 -0.000001 -0.001182 -0.000001
# 3 -0.003737 -0.003106 0.011708 0.000003 -0.001466 0.000002
# 4 0.000002 -0.000001 0.000003 0.063585 0.000006 0.029539
# 5 0.005794 -0.001182 -0.001466 0.000006 0.030720 0.000008
# 6 0.000004 -0.000001 0.000002 0.029539 0.000008 0.074234
#
#
# Mechanical properties :
#
#
# Convention : Reuss Voigt Hill
#
# Bulk Modulus (GPa) = 68.42199 70.16146 69.29173
# Shear Modulus (GPa) = 21.60070 27.47515 24.53792
#
# Velocity S-wave (km/s) = 3.32010 3.74445 3.53864
# Velocity P-wave (km/s) = 7.04372 7.38232 7.21501
#
# Compressibility (1/GPa) = 0.01461518
#
# Stress axis : x y z
#
# Youngs Moduli (GPa) = 74.12211 89.76880 85.40991
#
# Poissons Ratio (x) = 0.36077 0.31920
# Poissons Ratio (y) = 0.29789 0.26527
# Poissons Ratio (z) = 0.27701 0.27881
#
# Static dielectric constant tensor:
#      x y z
#    x 1.726580 0.000000 0.005870 
#    y 0.000000 1.656660 0.000000 
#    z 0.005870 0.000000 1.762430 
# 
# From -- ./inp_files/290245.got.cif
#   From: 2010.05.17/outbox.cif.g08.bks.cpg/sg15_146_cif.got.tgz:290245.got - 2010.06.03 18:47:42.
