data_PCOD9263896
_publ_section_title
;
Structure prediction by ZEFSAII (Michael W. Deem and Ramdas Pophale) SiO2 
 PCOD9263896
Probable space group: C 2/C
;
_chemical_formula_sum "Si O2"
_cell_formula_units_Z 48
_cell_length_a 21.514368
_cell_length_b 15.362538
_cell_length_c 9.352156
_cell_angle_alpha 90.000000
_cell_angle_beta 49.200634
_cell_angle_gamma 90.000000
_cell_volume 2339.917236
_symmetry_space_group_name_H-M "C 2/C"
_symmetry_group_IT_number 15
_symmetry_cell_setting 'monoclinic'
loop_
_space_group_symop_operation_xyz
x,y,z
-x,y,1/2-z
-x,-y,-z
x,-y,1/2+z
1/2+x,1/2+y,z
1/2-x,1/2+y,1/2-z
1/2-x,1/2-y,-z
1/2+x,1/2-y,1/2+z
loop_
_atom_site_type_symbol
_atom_site_label
_atom_site_fract_x
_atom_site_fract_y
_atom_site_fract_z
Si Si1 0.312163 0.432232 0.371118
Si Si2 0.576817 0.882280 0.032217
Si Si3 0.763504 0.347659 0.520967
Si Si4 0.593279 0.397324 0.751313
Si Si5 0.293844 0.994584 0.241777
Si Si6 0.925558 0.186461 0.538174
O O1 0.387475 0.500019 0.288964
O O2 0.249115 0.469416 0.343818
O O3 0.258597 0.432395 0.594481
O O4 0.352711 0.345252 0.249697
O O5 0.500000 0.901149 0.250000
O O6 0.658352 0.857759 0.998125
O O7 0.612891 0.969108 0.902589
O O8 0.558604 0.790122 0.981293
O O9 0.750000 0.250000 0.500000
O O10 0.673627 0.369461 0.716496
O O11 0.781679 0.409908 0.358791
O O12 0.594854 0.349650 0.592591
O O13 0.509272 0.365769 0.946089
#
# Coordination Sequence:
#
# PCOD9263896 Si02
#       6
#     8   8   8   8   8   8
#     4  11  20  40  61  96 128 159 211 261 323 386
#     4  12  23  40  64  89 127 169 221 260 314 381
#     4  11  19  39  64  88 123 170 211 254 309 385
#     4  10  19  34  62  92 123 159 205 253 320 385
#     4  11  23  38  64  96 122 167 217 259 322 375
#     4  11  20  37  61  98 124 166 208 259 321 387
#
# _framework density 20.513546000000002
#
# number of rings (size 3 to 8) (size 9 to 14) (size 15 to 20)
#    0.000    1.000   10.000    0.500    0.000    1.333 
#    0.000    0.000    0.000    0.000    4.333    0.000 
#    0.000    0.000    0.000    0.000    0.000    0.000 
#
# Total GULP energy -133614.618575 kJ/mol
# GULP energy per Si atom -5567.275774 kJ/mol
# Density = 2.046686 g / cm^3
# Si number density = 20.513546 Si / 1000 Ang^3
#
#
#
# Elastic Constant Matrix: (Units=GPa)
#
#
# Indices 1 2 3 4 5 6 
#
# 1 49.1133 -15.9936 24.2187 0.0000 -13.0987 0.0000
# 2 -15.9936 70.0906 33.7086 0.0000 -9.2083 0.0000
# 3 24.2187 33.7086 120.8942 0.0000 -26.4549 0.0000
# 4 0.0000 0.0000 0.0000 23.8218 0.0000 -7.6501
# 5 -13.0987 -9.2083 -26.4549 0.0000 41.9498 0.0000
# 6 0.0000 0.0000 0.0000 -7.6501 0.0000 24.4554
#
#
#
# Elastic Compliance Matrix: (Units=1/GPa)
#
#
# Indices 1 2 3 4 5 6 
#
# 1 0.029636 0.011318 -0.007569 0.000000 0.006965 0.000000
# 2 0.011318 0.020824 -0.007309 0.000000 0.003496 0.000000
# 3 -0.007569 -0.007309 0.012712 0.000000 0.004049 0.000000
# 4 0.000000 0.000000 0.000000 0.046666 0.000000 0.014598
# 5 0.006965 0.003496 0.004049 0.000000 0.029334 0.000000
# 6 0.000000 0.000000 0.000000 0.014598 0.000000 0.045457
#
#
# Mechanical properties :
#
#
# Convention : Reuss Voigt Hill
#
# Bulk Modulus (GPa) = 17.84022 35.99615 26.91818
# Shear Modulus (GPa) = 23.76054 31.25635 27.50845
#
# Velocity S-wave (km/s) = 3.40705 3.90769 3.66592
# Velocity P-wave (km/s) = 4.91864 6.16000 5.57398
#
# Compressibility (1/GPa) = 0.05605313
#
# Stress axis : x y z
#
# Youngs Moduli (GPa) = 33.74225 48.02170 78.66751
#
# Poissons Ratio (x) = -0.54349 0.59540
# Poissons Ratio (y) = -0.38188 0.57494
# Poissons Ratio (z) = 0.25538 0.35097
#
# Static dielectric constant tensor:
#      x y z
#    x 1.757410 0.000000 0.002100 
#    y 0.000000 1.866520 0.000000 
#    z 0.002100 0.000000 1.751980 
# 
# From -- ./inp_files/56418.got.cif
#   From: 2010.05.17/outbox.cif.g08.bks.cpg/sg15_29_cif.got.tgz:56418.got - 2010.06.03 18:47:42.
