data_PCOD9263352
_publ_section_title
;
Structure prediction by ZEFSAII (Michael W. Deem and Ramdas Pophale) SiO2 
 PCOD9263352
Probable space group: C 2/C
;
_chemical_formula_sum "Si O2"
_cell_formula_units_Z 56
_cell_length_a 32.261736
_cell_length_b 10.112873
_cell_length_c 8.595010
_cell_angle_alpha 90.000000
_cell_angle_beta 66.690421
_cell_angle_gamma 90.000000
_cell_volume 2575.320015
_symmetry_space_group_name_H-M "C 2/C"
_symmetry_group_IT_number 15
_symmetry_cell_setting 'monoclinic'
loop_
_space_group_symop_operation_xyz
x,y,z
-x,y,1/2-z
-x,-y,-z
x,-y,1/2+z
1/2+x,1/2+y,z
1/2-x,1/2+y,1/2-z
1/2-x,1/2-y,-z
1/2+x,1/2-y,1/2+z
loop_
_atom_site_type_symbol
_atom_site_label
_atom_site_fract_x
_atom_site_fract_y
_atom_site_fract_z
Si Si1 0.136929 0.838690 0.159430
Si Si2 0.049785 0.808614 0.710100
Si Si3 0.914928 0.951399 0.549323
Si Si4 0.767194 0.927845 0.455460
Si Si5 0.864614 0.324829 0.549356
Si Si6 0.300702 0.059212 0.702765
Si Si7 0.198264 0.207232 0.094043
O O1 0.190707 0.841248 0.056728
O O2 0.127898 0.711335 0.280850
O O3 0.117997 0.960348 0.293262
O O4 0.111782 0.861398 0.034513
O O5 0.056671 0.861220 0.875056
O O6 0.088723 0.703644 0.607954
O O7 0.000000 0.757292 0.750000
O O8 0.057550 0.938405 0.588900
O O9 0.730788 0.967676 0.639811
O O10 0.736381 0.883139 0.359739
O O11 0.793976 0.059992 0.362282
O O12 0.838555 0.463895 0.573806
O O13 0.829841 0.217867 0.523548
O O14 0.322017 0.180297 0.765499
O O15 0.250000 0.250000 0.000000
#
# Coordination Sequence:
#
# PCOD9263352 Si02
#       7
#     8   8   8   8   8   8   8
#     4  10  19  34  55  90 123 156 191 240 293 350
#     4  10  20  36  62  88 119 157 195 245 303 356
#     4   9  18  34  56  90 124 155 189 238 298 360
#     4  11  21  35  57  78 116 157 203 236 285 350
#     4  11  22  39  55  81 121 153 197 248 295 358
#     4  11  22  37  53  81 109 162 198 245 289 343
#     4  10  19  38  56  74 114 153 194 233 289 342
#
# _framework density 21.744869999999999
#
# number of rings (size 3 to 8) (size 9 to 14) (size 15 to 20)
#    0.000    1.714    2.857    5.571    0.000    0.571 
#    5.143    0.000    0.000    0.857    0.000    0.000 
#    0.000    0.000    0.000    0.000    0.000    0.000 
#
# Total GULP energy -156387.627598 kJ/mol
# GULP energy per Si atom -5585.272414 kJ/mol
# Density = 2.169538 g / cm^3
# Si number density = 21.744870 Si / 1000 Ang^3
#
#
#
# Elastic Constant Matrix: (Units=GPa)
#
#
# Indices 1 2 3 4 5 6 
#
# 1 131.6737 21.3937 53.2097 0.0000 3.1255 0.0000
# 2 21.3937 52.4240 4.6863 0.0000 1.1388 0.0000
# 3 53.2097 4.6863 64.0586 0.0000 17.6269 0.0000
# 4 0.0000 0.0000 0.0000 28.6492 0.0000 -3.9338
# 5 3.1255 1.1388 17.6269 0.0000 36.4114 0.0000
# 6 0.0000 0.0000 0.0000 -3.9338 0.0000 7.0018
#
#
#
# Elastic Compliance Matrix: (Units=1/GPa)
#
#
# Indices 1 2 3 4 5 6 
#
# 1 0.012915 -0.004326 -0.011702 0.000000 0.004692 0.000000
# 2 -0.004326 0.020650 0.002490 0.000000 -0.001480 0.000000
# 3 -0.011702 0.002490 0.028720 0.000000 -0.012977 0.000000
# 4 0.000000 0.000000 0.000000 0.037823 0.000000 0.021250
# 5 0.004692 -0.001480 -0.012977 0.000000 0.033390 0.000000
# 6 0.000000 0.000000 0.000000 0.021250 0.000000 0.154758
#
#
# Mechanical properties :
#
#
# Convention : Reuss Voigt Hill
#
# Bulk Modulus (GPa) = 28.40250 45.19286 36.79768
# Shear Modulus (GPa) = 15.28731 25.67026 20.47878
#
# Velocity S-wave (km/s) = 2.65435 3.43960 3.07217
# Velocity P-wave (km/s) = 4.74174 6.05002 5.43539
#
# Compressibility (1/GPa) = 0.03520817
#
# Stress axis : x y z
#
# Youngs Moduli (GPa) = 77.42926 48.42539 34.81926
#
# Poissons Ratio (x) = 0.20950 0.40747
# Poissons Ratio (y) = 0.33498 -0.08671
# Poissons Ratio (z) = 0.90610 -0.12059
#
# Static dielectric constant tensor:
#      x y z
#    x 1.803720 0.000000 0.046510 
#    y 0.000000 1.878900 0.000000 
#    z 0.046510 0.000000 1.887450 
# 
# From -- ./inp_files/69054.got.cif
#   From: 2010.05.17/outbox.cif.g08.bks.cpg/sg15_35_cif.got.tgz:69054.got - 2010.06.03 18:47:42.
