data_PCOD9263987
_publ_section_title
;
Structure prediction by ZEFSAII (Michael W. Deem and Ramdas Pophale) SiO2 
 PCOD9263987
Probable space group: C 2/C
;
_chemical_formula_sum "Si O2"
_cell_formula_units_Z 52
_cell_length_a 12.066703
_cell_length_b 22.711221
_cell_length_c 7.599125
_cell_angle_alpha 90.000000
_cell_angle_beta 72.838778
_cell_angle_gamma 90.000000
_cell_volume 1989.818728
_symmetry_space_group_name_H-M "C 2/C"
_symmetry_group_IT_number 15
_symmetry_cell_setting 'monoclinic'
loop_
_space_group_symop_operation_xyz
x,y,z
-x,y,1/2-z
-x,-y,-z
x,-y,1/2+z
1/2+x,1/2+y,z
1/2-x,1/2+y,1/2-z
1/2-x,1/2-y,-z
1/2+x,1/2-y,1/2+z
loop_
_atom_site_type_symbol
_atom_site_label
_atom_site_fract_x
_atom_site_fract_y
_atom_site_fract_z
Si Si1 0.255208 0.669546 0.804351
Si Si2 0.618968 0.524591 0.589958
Si Si3 0.837532 0.207605 0.126230
Si Si4 0.663552 0.592806 0.206915
Si Si5 0.642435 0.946020 0.311840
Si Si6 0.078675 0.572948 0.351086
Si Si7 0.000000 0.194663 0.750000
O O1 0.221273 0.735417 0.765096
O O2 0.176659 0.620994 0.750100
O O3 0.392506 0.659124 0.717153
O O4 0.252117 0.674651 0.022343
O O5 0.500000 0.537077 0.750000
O O6 0.624368 0.558297 0.402999
O O7 0.627566 0.453064 0.573011
O O8 0.739134 0.541285 0.631540
O O9 0.876850 0.159189 0.247135
O O10 0.939816 0.226766 0.943083
O O11 0.802422 0.598209 0.137635
O O12 0.514319 0.938079 0.454071
O O13 0.622055 0.011155 0.238901
O O14 0.000000 0.607592 0.250000
#
# Coordination Sequence:
#
# PCOD9263987 Si02
#       7
#     8   8   8   8   8   8   4
#     4   9  17  31  48  76 108 135 178 217 284 308
#     4  11  22  36  53  81 109 143 178 220 274 330
#     4   9  18  31  48  75 105 138 173 222 270 317
#     4  11  22  36  56  80 109 145 180 225 275 324
#     4  10  20  32  53  79 104 144 173 230 272 319
#     4  10  19  35  52  73 109 137 187 222 265 322
#     4   8  16  28  46  68 110 132 166 220 266 326
#
# _framework density 26.133032
#
# number of rings (size 3 to 8) (size 9 to 14) (size 15 to 20)
#    0.923    1.231    3.077    0.462    4.308    1.231 
#    2.769    0.000    0.000    0.923    0.000    4.308 
#    0.000    0.308    0.000    0.000    0.000    0.000 
#
# Total GULP energy -144866.387983 kJ/mol
# GULP energy per Si atom -5571.784153 kJ/mol
# Density = 2.607355 g / cm^3
# Si number density = 26.133032 Si / 1000 Ang^3
#
#
#
# Elastic Constant Matrix: (Units=GPa)
#
#
# Indices 1 2 3 4 5 6 
#
# 1 148.9432 38.2086 49.8018 0.0000 -43.1559 0.0000
# 2 38.2086 148.2955 35.5664 0.0000 -4.1981 0.0000
# 3 49.8018 35.5664 96.5240 0.0000 -31.5379 0.0000
# 4 0.0000 0.0000 0.0000 14.5345 0.0000 -8.6006
# 5 -43.1559 -4.1981 -31.5379 0.0000 42.5290 0.0000
# 6 0.0000 0.0000 0.0000 -8.6006 0.0000 24.0979
#
#
#
# Elastic Compliance Matrix: (Units=1/GPa)
#
#
# Indices 1 2 3 4 5 6 
#
# 1 0.010445 -0.002039 -0.001637 0.000000 0.009184 0.000000
# 2 -0.002039 0.007890 -0.003005 0.000000 -0.003518 0.000000
# 3 -0.001637 -0.003005 0.015405 0.000000 0.009465 0.000000
# 4 0.000000 0.000000 0.000000 0.087222 0.000000 0.031130
# 5 0.009184 -0.003518 0.009465 0.000000 0.039505 0.000000
# 6 0.000000 0.000000 0.000000 0.031130 0.000000 0.052608
#
#
# Mechanical properties :
#
#
# Convention : Reuss Voigt Hill
#
# Bulk Modulus (GPa) = 49.07194 71.21293 60.14244
# Shear Modulus (GPa) = 21.43816 34.24468 27.84142
#
# Velocity S-wave (km/s) = 2.86728 3.62387 3.26755
# Velocity P-wave (km/s) = 5.45713 6.69472 6.10735
#
# Compressibility (1/GPa) = 0.02037824
#
# Stress axis : x y z
#
# Youngs Moduli (GPa) = 95.73532 126.74941 64.91470
#
# Poissons Ratio (x) = 0.25839 0.10630
# Poissons Ratio (y) = 0.19516 0.19505
# Poissons Ratio (z) = 0.15677 0.38085
#
# Static dielectric constant tensor:
#      x y z
#    x 2.094890 0.000000 0.095030 
#    y 0.000000 2.105150 0.000000 
#    z 0.095030 0.000000 2.219500 
# 
# From -- ./inp_files/100231.got.cif
#   From: 2010.05.17/outbox.cif.g08.bks.cpg/sg15_51_cif.got.tgz:100231.got - 2010.06.03 18:47:42.
