data_PCOD9263415
_publ_section_title
;
Structure prediction by ZEFSAII (Michael W. Deem and Ramdas Pophale) SiO2 
 PCOD9263415
Probable space group: C 2/C
;
_chemical_formula_sum "Si O2"
_cell_formula_units_Z 40
_cell_length_a 12.229003
_cell_length_b 9.644486
_cell_length_c 14.059800
_cell_angle_alpha 90.000000
_cell_angle_beta 66.593631
_cell_angle_gamma 90.000000
_cell_volume 1521.790853
_symmetry_space_group_name_H-M "C 2/C"
_symmetry_group_IT_number 15
_symmetry_cell_setting 'monoclinic'
loop_
_space_group_symop_operation_xyz
x,y,z
-x,y,1/2-z
-x,-y,-z
x,-y,1/2+z
1/2+x,1/2+y,z
1/2-x,1/2+y,1/2-z
1/2-x,1/2-y,-z
1/2+x,1/2-y,1/2+z
loop_
_atom_site_type_symbol
_atom_site_label
_atom_site_fract_x
_atom_site_fract_y
_atom_site_fract_z
Si Si1 0.594387 0.047566 0.356280
Si Si2 0.867584 0.744174 0.587178
Si Si3 0.845561 0.909863 0.428603
Si Si4 0.148603 0.468364 0.133099
Si Si5 0.833314 0.167929 0.313329
O O1 0.579642 0.909197 0.424046
O O2 0.669464 0.998785 0.236819
O O3 0.463044 0.062733 0.359769
O O4 0.687499 0.154950 0.368786
O O5 0.923742 0.832276 0.481477
O O6 0.730928 0.705560 0.603065
O O7 0.869115 0.810171 0.690796
O O8 0.756750 0.994013 0.529020
O O9 0.883465 0.026560 0.341356
O O10 0.125467 0.303371 0.142588
#
# Coordination Sequence:
#
# PCOD9263415 Si02
#       5
#     8   8   8   8   8
#     4   9  19  35  58  83 118 149 187 246 284 343
#     4   9  19  34  53  82 114 150 186 237 295 336
#     4  10  19  34  57  83 112 151 195 231 287 365
#     4  10  19  34  57  88 112 148 199 233 284 353
#     4  10  19  34  56  85 116 150 189 239 293 343
#
# _framework density 26.284821999999998
#
# number of rings (size 3 to 8) (size 9 to 14) (size 15 to 20)
#    0.000    2.400    2.000    0.600    0.000    3.200 
#    0.000    1.000    0.000    4.800   31.200    0.000 
#    0.000    0.000    0.000    0.000    0.000    0.000 
#
# Total GULP energy -111700.396087 kJ/mol
# GULP energy per Si atom -5585.019804 kJ/mol
# Density = 2.622500 g / cm^3
# Si number density = 26.284822 Si / 1000 Ang^3
#
#
#
# Elastic Constant Matrix: (Units=GPa)
#
#
# Indices 1 2 3 4 5 6 
#
# 1 87.6738 34.1224 14.7621 0.0000 -5.3613 0.0000
# 2 34.1224 109.7481 70.3558 0.0000 1.7374 0.0000
# 3 14.7621 70.3558 155.6182 0.0000 37.5619 0.0000
# 4 0.0000 0.0000 0.0000 52.0836 0.0000 17.5873
# 5 -5.3613 1.7374 37.5619 0.0000 20.3739 0.0000
# 6 0.0000 0.0000 0.0000 17.5873 0.0000 40.5341
#
#
#
# Elastic Compliance Matrix: (Units=1/GPa)
#
#
# Indices 1 2 3 4 5 6 
#
# 1 0.013318 -0.003578 -0.001019 0.000000 0.005688 0.000000
# 2 -0.003578 0.018387 -0.013275 0.000000 0.021965 0.000000
# 3 -0.001019 -0.013275 0.022191 0.000000 -0.040047 0.000000
# 4 0.000000 0.000000 0.000000 0.022496 0.000000 -0.009761
# 5 0.005688 0.021965 -0.040047 0.000000 0.122538 0.000000
# 6 0.000000 0.000000 0.000000 -0.009761 0.000000 0.028906
#
#
# Mechanical properties :
#
#
# Convention : Reuss Voigt Hill
#
# Bulk Modulus (GPa) = 55.08977 65.72452 60.40715
# Shear Modulus (GPa) = 18.54412 38.18499 28.36455
#
# Velocity S-wave (km/s) = 2.65902 3.81562 3.28856
# Velocity P-wave (km/s) = 5.51647 6.66865 6.11974
#
# Compressibility (1/GPa) = 0.01815219
#
# Stress axis : x y z
#
# Youngs Moduli (GPa) = 75.08827 54.38764 45.06422
#
# Poissons Ratio (x) = 0.19458 0.04591
# Poissons Ratio (y) = 0.26864 0.59822
# Poissons Ratio (z) = 0.07649 0.72199
#
# Static dielectric constant tensor:
#      x y z
#    x 2.222300 0.000000 0.004830 
#    y 0.000000 2.090840 0.000000 
#    z 0.004830 0.000000 2.092740 
# 
# From -- ./inp_files/150605.got.cif
#   From: 2010.05.17/outbox.cif.g08.bks.cpg/sg15_76_cif.got.tgz:150605.got - 2010.06.03 18:47:42.
