data_PCOD9263499
_publ_section_title
;
Structure prediction by ZEFSAII (Michael W. Deem and Ramdas Pophale) SiO2 
 PCOD9263499
Probable space group: C 2/C
;
_chemical_formula_sum "Si O2"
_cell_formula_units_Z 48
_cell_length_a 20.112811
_cell_length_b 11.660586
_cell_length_c 20.203259
_cell_angle_alpha 90.000000
_cell_angle_beta 145.245487
_cell_angle_gamma 90.000000
_cell_volume 2701.072714
_symmetry_space_group_name_H-M "C 2/C"
_symmetry_group_IT_number 15
_symmetry_cell_setting 'monoclinic'
loop_
_space_group_symop_operation_xyz
x,y,z
-x,y,1/2-z
-x,-y,-z
x,-y,1/2+z
1/2+x,1/2+y,z
1/2-x,1/2+y,1/2-z
1/2-x,1/2-y,-z
1/2+x,1/2-y,1/2+z
loop_
_atom_site_type_symbol
_atom_site_label
_atom_site_fract_x
_atom_site_fract_y
_atom_site_fract_z
Si Si1 0.975572 0.345409 0.930654
Si Si2 0.977569 0.496819 0.306013
Si Si3 0.095600 0.096469 0.588961
Si Si4 0.770709 0.402034 0.960836
Si Si5 0.745178 0.638530 0.585229
Si Si6 0.298969 0.018608 0.852759
O O1 0.967239 0.402838 0.851296
O O2 0.955599 0.210944 0.919522
O O3 0.875652 0.409136 0.892016
O O4 0.103266 0.382219 0.061349
O O5 0.861658 0.420511 0.208789
O O6 0.000000 0.540976 0.250000
O O7 0.089202 0.418304 0.415723
O O8 0.145618 0.126412 0.557727
O O9 0.200934 0.050152 0.720248
O O10 0.000000 0.000000 0.500000
O O11 0.737069 0.273416 0.913197
O O12 0.743383 0.488171 0.878612
O O13 0.719981 0.419221 0.993054
#
# Coordination Sequence:
#
# PCOD9263499 Si02
#       6
#     8   8   8   8   8   8
#     4  10  21  38  60  83 114 157 195 234 293 346
#     4   9  18  35  58  83 112 157 202 235 289 353
#     4  12  26  37  59  90 120 152 195 243 291 346
#     4   9  19  35  57  86 112 152 191 242 297 336
#     4  10  19  34  57  84 119 145 192 248 288 342
#     4  10  21  39  61  83 116 154 193 239 287 354
#
# _framework density 17.770717999999999
#
# number of rings (size 3 to 8) (size 9 to 14) (size 15 to 20)
#    0.000    2.000    3.333    0.000    2.333    1.333 
#    0.000    4.167    0.000    6.000    0.000    0.000 
#    0.000    0.000    0.000    0.000    0.000    0.000 
#
# Total GULP energy -133853.528958 kJ/mol
# GULP energy per Si atom -5577.230373 kJ/mol
# Density = 1.773027 g / cm^3
# Si number density = 17.770718 Si / 1000 Ang^3
#
#
#
# Elastic Constant Matrix: (Units=GPa)
#
#
# Indices 1 2 3 4 5 6 
#
# 1 84.3462 40.0284 43.5437 0.0000 -15.3933 0.0000
# 2 40.0284 98.6729 59.8539 0.0000 -0.4202 0.0000
# 3 43.5437 59.8539 103.0052 0.0000 -13.9097 0.0000
# 4 0.0000 0.0000 0.0000 12.8194 0.0000 -5.1087
# 5 -15.3933 -0.4202 -13.9097 0.0000 17.2574 0.0000
# 6 0.0000 0.0000 0.0000 -5.1087 0.0000 27.8131
#
#
#
# Elastic Compliance Matrix: (Units=1/GPa)
#
#
# Indices 1 2 3 4 5 6 
#
# 1 0.018606 -0.006029 -0.002402 0.000000 0.014513 0.000000
# 2 -0.006029 0.018599 -0.010014 0.000000 -0.012996 0.000000
# 3 -0.002402 -0.010014 0.018202 0.000000 0.012284 0.000000
# 4 0.000000 0.000000 0.000000 0.084167 0.000000 0.015460
# 5 0.014513 -0.012996 0.012284 0.000000 0.080476 0.000000
# 6 0.000000 0.000000 0.000000 0.015460 0.000000 0.038794
#
#
# Mechanical properties :
#
#
# Convention : Reuss Voigt Hill
#
# Bulk Modulus (GPa) = 54.00610 63.65289 58.82950
# Shear Modulus (GPa) = 16.56142 21.08454 18.82298
#
# Velocity S-wave (km/s) = 3.05610 3.44826 3.25809
# Velocity P-wave (km/s) = 6.55053 7.19380 6.87969
#
# Compressibility (1/GPa) = 0.01851643
#
# Stress axis : x y z
#
# Youngs Moduli (GPa) = 53.74671 53.76575 54.94050
#
# Poissons Ratio (x) = 0.32414 0.13198
# Poissons Ratio (y) = 0.32403 0.55017
# Poissons Ratio (z) = 0.12912 0.53841
#
# Static dielectric constant tensor:
#      x y z
#    x 1.635460 0.000000 -0.027760 
#    y 0.000000 1.575900 0.000000 
#    z -0.027760 0.000000 1.601020 
# 
# From -- ./inp_files/103730.got.cif
#   From: 2010.05.17/outbox.cif.g08.bks.cpg/sg15_52_cif.got.tgz:103730.got - 2010.06.03 18:47:42.
