data_PCOD9263131
_publ_section_title
;
Structure prediction by ZEFSAII (Michael W. Deem and Ramdas Pophale) SiO2 
 PCOD9263131
Probable space group: C 2/C
;
_chemical_formula_sum "Si O2"
_cell_formula_units_Z 56
_cell_length_a 18.303967
_cell_length_b 7.870797
_cell_length_c 17.698879
_cell_angle_alpha 90.000000
_cell_angle_beta 107.553464
_cell_angle_gamma 90.000000
_cell_volume 2431.090994
_symmetry_space_group_name_H-M "C 2/C"
_symmetry_group_IT_number 15
_symmetry_cell_setting 'monoclinic'
loop_
_space_group_symop_operation_xyz
x,y,z
-x,y,1/2-z
-x,-y,-z
x,-y,1/2+z
1/2+x,1/2+y,z
1/2-x,1/2+y,1/2-z
1/2-x,1/2-y,-z
1/2+x,1/2-y,1/2+z
loop_
_atom_site_type_symbol
_atom_site_label
_atom_site_fract_x
_atom_site_fract_y
_atom_site_fract_z
Si Si1 0.491087 0.084900 0.822469
Si Si2 0.721456 0.749734 0.281002
Si Si3 0.022799 0.937943 0.129023
Si Si4 0.121065 0.212251 0.105008
Si Si5 0.553307 0.893524 0.959585
Si Si6 0.654133 0.120830 0.270745
Si Si7 0.883075 0.964547 0.184106
O O1 0.500000 0.194304 0.750000
O O2 0.563681 0.011661 0.889185
O O3 0.432405 0.941501 0.773078
O O4 0.443065 0.191585 0.865720
O O5 0.691220 0.721781 0.184596
O O6 0.809635 0.702012 0.295004
O O7 0.678702 0.611447 0.319158
O O8 0.699661 0.941669 0.297114
O O9 0.069987 0.944438 0.222317
O O10 0.999094 0.759572 0.086441
O O11 0.939265 0.005409 0.131986
O O12 0.078794 0.031589 0.086884
O O13 0.123747 0.313002 0.027437
O O14 0.500000 0.000000 0.000000
O O15 0.652144 0.273251 0.331240
#
# Coordination Sequence:
#
# PCOD9263131 Si02
#       7
#     8   8   8   8   8   8   8
#     4  10  20  33  56  85 109 139 185 236 283 324
#     4  10  21  34  52  83 111 150 188 229 279 331
#     4  10  19  34  54  80 111 139 180 234 282 325
#     4   9  21  33  54  79 114 144 182 224 280 340
#     4  10  19  34  51  82 112 148 180 222 283 341
#     4  11  19  33  53  79 113 143 184 235 275 332
#     4  10  20  34  54  84 110 139 186 238 281 321
#
# _framework density 23.034925999999999
#
# number of rings (size 3 to 8) (size 9 to 14) (size 15 to 20)
#    0.000    2.000    2.857    1.286    6.000    0.000 
#    0.000    0.000    0.000    3.429    0.000    2.000 
#    0.000    0.000    0.000    0.000    0.000    0.000 
#
# Total GULP energy -155972.271623 kJ/mol
# GULP energy per Si atom -5570.438272 kJ/mol
# Density = 2.298250 g / cm^3
# Si number density = 23.034926 Si / 1000 Ang^3
#
#
#
# Elastic Constant Matrix: (Units=GPa)
#
#
# Indices 1 2 3 4 5 6 
#
# 1 69.3603 15.8350 -6.0947 0.0000 -13.2151 0.0000
# 2 15.8350 110.2809 7.5419 0.0000 -3.0870 0.0000
# 3 -6.0947 7.5419 60.1244 0.0000 -0.7010 0.0000
# 4 0.0000 0.0000 0.0000 29.9673 0.0000 -3.5675
# 5 -13.2151 -3.0870 -0.7010 0.0000 13.6616 0.0000
# 6 0.0000 0.0000 0.0000 -3.5675 0.0000 27.1841
#
#
#
# Elastic Compliance Matrix: (Units=1/GPa)
#
#
# Indices 1 2 3 4 5 6 
#
# 1 0.018487 -0.002327 0.002370 0.000000 0.017479 0.000000
# 2 -0.002327 0.009495 -0.001429 0.000000 -0.000179 0.000000
# 3 0.002370 -0.001429 0.017085 0.000000 0.002846 0.000000
# 4 0.000000 0.000000 0.000000 0.033899 0.000000 0.004449
# 5 0.017479 -0.000179 0.002846 0.000000 0.090211 0.000000
# 6 0.000000 0.000000 0.000000 0.004449 0.000000 0.037370
#
#
# Mechanical properties :
#
#
# Convention : Reuss Voigt Hill
#
# Bulk Modulus (GPa) = 23.64429 30.48113 27.06271
# Shear Modulus (GPa) = 22.37954 28.99483 25.68718
#
# Velocity S-wave (km/s) = 3.12035 3.55171 3.34299
# Velocity P-wave (km/s) = 4.82379 5.48460 5.16477
#
# Compressibility (1/GPa) = 0.04229351
#
# Stress axis : x y z
#
# Youngs Moduli (GPa) = 54.09131 105.32251 58.53148
#
# Poissons Ratio (x) = 0.24512 -0.13870
# Poissons Ratio (y) = 0.12589 0.08364
# Poissons Ratio (z) = -0.12818 0.15051
#
# Static dielectric constant tensor:
#      x y z
#    x 1.962460 0.000000 -0.011640 
#    y 0.000000 2.023180 0.000000 
#    z -0.011640 0.000000 1.970150 
# 
# From -- ./inp_files/213463.got.cif
#   From: 2010.05.17/outbox.cif.g08.bks.cpg/sg15_107_cif.got.tgz:213463.got - 2010.06.03 18:47:42.
