data_PCOD9263730
_publ_section_title
;
Structure prediction by ZEFSAII (Michael W. Deem and Ramdas Pophale) SiO2 
 PCOD9263730
Probable space group: C 2/C
;
_chemical_formula_sum "Si O2"
_cell_formula_units_Z 48
_cell_length_a 20.404828
_cell_length_b 20.907565
_cell_length_c 9.363767
_cell_angle_alpha 90.000000
_cell_angle_beta 154.100440
_cell_angle_gamma 90.000000
_cell_volume 1744.875850
_symmetry_space_group_name_H-M "C 2/C"
_symmetry_group_IT_number 15
_symmetry_cell_setting 'monoclinic'
loop_
_space_group_symop_operation_xyz
x,y,z
-x,y,1/2-z
-x,-y,-z
x,-y,1/2+z
1/2+x,1/2+y,z
1/2-x,1/2+y,1/2-z
1/2-x,1/2-y,-z
1/2+x,1/2-y,1/2+z
loop_
_atom_site_type_symbol
_atom_site_label
_atom_site_fract_x
_atom_site_fract_y
_atom_site_fract_z
Si Si1 0.000000 0.460485 0.250000
Si Si2 0.791737 0.988355 0.434197
Si Si3 0.165798 0.915238 0.255401
Si Si4 0.422536 0.176124 0.296002
Si Si5 0.780679 0.375124 0.015196
Si Si6 0.257645 0.276189 0.780877
Si Si7 0.000000 0.813754 0.750000
O O1 0.889872 0.417211 0.128268
O O2 0.113224 0.500627 0.568940
O O3 0.850718 0.970677 0.394300
O O4 0.809323 0.925333 0.565572
O O5 0.855531 0.051245 0.635042
O O6 0.335026 0.887674 0.575568
O O7 0.067985 0.855792 0.010892
O O8 0.598382 0.164163 0.653525
O O9 0.345951 0.190650 0.299450
O O10 0.374460 0.234039 0.099080
O O11 0.691584 0.328209 0.734618
O O12 0.137802 0.229382 0.469693
#
# Coordination Sequence:
#
# PCOD9263730 Si02
#       7
#     4   8   8   8   8   8   4
#     4  12  19  36  56  94 122 159 190 250 312 360
#     4  12  24  38  60  93 128 154 203 247 316 357
#     4  11  24  40  62  92 120 165 197 258 297 367
#     4  10  19  34  59  90 114 152 205 241 299 348
#     4  12  19  35  62  91 122 155 200 254 298 360
#     4  10  19  35  62  90 112 161 209 244 287 366
#     4  10  21  42  64  84 124 159 216 240 300 360
#
# _framework density 27.509119999999999
#
# number of rings (size 3 to 8) (size 9 to 14) (size 15 to 20)
#    0.000    1.000    6.667    1.500    0.000    0.667 
#    0.000    3.333    3.667    0.000    0.000    0.000 
#    0.000    0.000    0.000    0.000    0.000    0.000 
#
# Total GULP energy -134718.874838 kJ/mol
# GULP energy per Si atom -5613.286452 kJ/mol
# Density = 2.744651 g / cm^3
# Si number density = 27.509120 Si / 1000 Ang^3
#
#
#
# Elastic Constant Matrix: (Units=GPa)
#
#
# Indices 1 2 3 4 5 6 
#
# 1 69.4667 7.4818 -0.3748 0.0000 -9.5764 0.0000
# 2 7.4818 104.2926 51.5653 0.0000 -17.9782 0.0000
# 3 -0.3748 51.5653 105.7779 0.0000 -20.4311 0.0000
# 4 0.0000 0.0000 0.0000 72.4057 0.0000 -11.9246
# 5 -9.5764 -17.9782 -20.4311 0.0000 33.4075 0.0000
# 6 0.0000 0.0000 0.0000 -11.9246 0.0000 26.2543
#
#
#
# Elastic Compliance Matrix: (Units=1/GPa)
#
#
# Indices 1 2 3 4 5 6 
#
# 1 0.015157 -0.000992 0.001444 0.000000 0.004694 0.000000
# 2 -0.000992 0.013057 -0.005745 0.000000 0.003229 0.000000
# 3 0.001444 -0.005745 0.013315 0.000000 0.005465 0.000000
# 4 0.000000 0.000000 0.000000 0.014928 0.000000 0.006780
# 5 0.004694 0.003229 0.005465 0.000000 0.036359 0.000000
# 6 0.000000 0.000000 0.000000 0.006780 0.000000 0.041169
#
#
# Mechanical properties :
#
#
# Convention : Reuss Voigt Hill
#
# Bulk Modulus (GPa) = 32.31760 44.09799 38.20779
# Shear Modulus (GPa) = 32.28222 41.13784 36.71003
#
# Velocity S-wave (km/s) = 3.42937 3.87127 3.65700
# Velocity P-wave (km/s) = 5.23968 6.00395 5.63479
#
# Compressibility (1/GPa) = 0.03094289
#
# Stress axis : x y z
#
# Youngs Moduli (GPa) = 65.97551 76.59003 75.10295
#
# Poissons Ratio (x) = 0.07599 -0.10845
# Poissons Ratio (y) = 0.06546 0.43145
# Poissons Ratio (z) = -0.09527 0.43999
#
# Static dielectric constant tensor:
#      x y z
#    x 2.116090 0.000000 -0.008470 
#    y 0.000000 2.151250 0.000000 
#    z -0.008470 0.000000 2.177410 
# 
# From -- ./inp_files/63965.got.cif
#   From: 2010.05.17/outbox.cif.g08.bks.cpg/sg15_32_cif.got.tgz:63965.got - 2010.06.03 18:47:42.
