data_PCOD9263531
_publ_section_title
;
Structure prediction by ZEFSAII (Michael W. Deem and Ramdas Pophale) SiO2 
 PCOD9263531
Probable space group: C 2/C
;
_chemical_formula_sum "Si O2"
_cell_formula_units_Z 64
_cell_length_a 12.251175
_cell_length_b 17.871284
_cell_length_c 19.865936
_cell_angle_alpha 90.000000
_cell_angle_beta 128.930133
_cell_angle_gamma 90.000000
_cell_volume 3383.556553
_symmetry_space_group_name_H-M "C 2/C"
_symmetry_group_IT_number 15
_symmetry_cell_setting 'monoclinic'
loop_
_space_group_symop_operation_xyz
x,y,z
-x,y,1/2-z
-x,-y,-z
x,-y,1/2+z
1/2+x,1/2+y,z
1/2-x,1/2+y,1/2-z
1/2-x,1/2-y,-z
1/2+x,1/2-y,1/2+z
loop_
_atom_site_type_symbol
_atom_site_label
_atom_site_fract_x
_atom_site_fract_y
_atom_site_fract_z
Si Si1 0.232709 0.332663 0.963989
Si Si2 0.104358 0.482860 0.137634
Si Si3 0.563540 0.878529 0.705879
Si Si4 0.838151 0.806600 0.861517
Si Si5 0.800096 0.282893 0.119694
Si Si6 0.285391 0.012336 0.968931
Si Si7 0.883620 0.672603 0.795169
Si Si8 0.632179 0.640558 0.436140
O O1 0.328653 0.332454 0.934542
O O2 0.068883 0.340975 0.880790
O O3 0.250000 0.250000 0.000000
O O4 0.259888 0.407369 0.018276
O O5 0.133168 0.559637 0.186479
O O6 0.184510 0.478310 0.098367
O O7 0.141245 0.413438 0.199064
O O8 0.936310 0.486689 0.058365
O O9 0.500000 0.913753 0.750000
O O10 0.684884 0.822649 0.773256
O O11 0.863414 0.719529 0.855915
O O12 0.964774 0.848673 0.872995
O O13 0.793235 0.295512 0.197311
O O14 0.803842 0.196555 0.096098
O O15 0.953314 0.315232 0.159948
O O16 0.689760 0.326456 0.029756
O O17 0.180831 0.943951 0.943459
#
# Coordination Sequence:
#
# PCOD9263531 Si02
#       8
#     8   8   8   8   8   8   8   8
#     4  10  21  40  61  83 116 156 204 248 293 347
#     4  10  20  35  60  87 114 151 202 244 295 351
#     4   9  21  38  57  82 113 152 192 246 291 349
#     4  10  22  37  57  84 116 157 192 237 300 365
#     4   9  20  33  57  86 119 153 179 252 295 354
#     4  10  21  36  60  88 117 157 196 250 291 363
#     4  10  19  34  57  88 116 147 198 238 299 355
#     4  10  20  38  56  86 123 149 195 239 305 361
#
# _framework density 18.915008
#
# number of rings (size 3 to 8) (size 9 to 14) (size 15 to 20)
#    0.000    2.250    1.250    0.750    3.500    2.500 
#    0.000    1.250    0.000    0.000    0.000    0.000 
#    0.000    0.000    0.000    0.000    0.000    0.000 
#
# Total GULP energy -178381.923534 kJ/mol
# GULP energy per Si atom -5574.435110 kJ/mol
# Density = 1.887196 g / cm^3
# Si number density = 18.915008 Si / 1000 Ang^3
#
#
#
# Elastic Constant Matrix: (Units=GPa)
#
#
# Indices 1 2 3 4 5 6 
#
# 1 58.4429 45.3204 5.7949 0.0000 -13.3733 0.0000
# 2 45.3204 127.8430 24.5190 0.0000 -18.1980 0.0000
# 3 5.7949 24.5190 41.5012 0.0000 -11.5931 0.0000
# 4 0.0000 0.0000 0.0000 16.7539 0.0000 -5.5271
# 5 -13.3733 -18.1980 -11.5931 0.0000 25.2825 0.0000
# 6 0.0000 0.0000 0.0000 -5.5271 0.0000 20.7591
#
#
#
# Elastic Compliance Matrix: (Units=1/GPa)
#
#
# Indices 1 2 3 4 5 6 
#
# 1 0.025371 -0.008459 0.004017 0.000000 0.009174 0.000000
# 2 -0.008459 0.012121 -0.005497 0.000000 0.001730 0.000000
# 3 0.004017 -0.005497 0.030130 0.000000 0.011984 0.000000
# 4 0.000000 0.000000 0.000000 0.065435 0.000000 0.017422
# 5 0.009174 0.001730 0.011984 0.000000 0.051146 0.000000
# 6 0.000000 0.000000 0.000000 0.017422 0.000000 0.052810
#
#
# Mechanical properties :
#
#
# Convention : Reuss Voigt Hill
#
# Bulk Modulus (GPa) = 20.94414 42.11732 31.53073
# Shear Modulus (GPa) = 18.32807 22.70261 20.51534
#
# Velocity S-wave (km/s) = 3.11620 3.46821 3.29691
# Velocity P-wave (km/s) = 4.90351 6.19297 5.58558
#
# Compressibility (1/GPa) = 0.04774604
#
# Stress axis : x y z
#
# Youngs Moduli (GPa) = 39.41500 82.50007 33.18947
#
# Poissons Ratio (x) = 0.69784 -0.13334
# Poissons Ratio (y) = 0.33340 0.18244
# Poissons Ratio (z) = -0.15835 0.45350
#
# Static dielectric constant tensor:
#      x y z
#    x 1.658630 0.000000 -0.030280 
#    y 0.000000 1.633240 0.000000 
#    z -0.030280 0.000000 1.686100 
# 
# From -- ./inp_files/239821.got.cif
#   From: 2010.05.17/outbox.cif.g08.bks.cpg/sg15_120_cif.got.tgz:239821.got - 2010.06.03 18:47:42.
