data_PCOD9263247
_publ_section_title
;
Structure prediction by ZEFSAII (Michael W. Deem and Ramdas Pophale) SiO2 
 PCOD9263247
Probable space group: C 2/C
;
_chemical_formula_sum "Si O2"
_cell_formula_units_Z 56
_cell_length_a 23.000087
_cell_length_b 23.073100
_cell_length_c 5.236701
_cell_angle_alpha 90.000000
_cell_angle_beta 65.491552
_cell_angle_gamma 90.000000
_cell_volume 2528.639544
_symmetry_space_group_name_H-M "C 2/C"
_symmetry_group_IT_number 15
_symmetry_cell_setting 'monoclinic'
loop_
_space_group_symop_operation_xyz
x,y,z
-x,y,1/2-z
-x,-y,-z
x,-y,1/2+z
1/2+x,1/2+y,z
1/2-x,1/2+y,1/2-z
1/2-x,1/2-y,-z
1/2+x,1/2-y,1/2+z
loop_
_atom_site_type_symbol
_atom_site_label
_atom_site_fract_x
_atom_site_fract_y
_atom_site_fract_z
Si Si1 0.243883 0.031031 0.966011
Si Si2 0.430967 0.702111 0.273935
Si Si3 0.131764 0.848733 0.122268
Si Si4 0.399122 0.518111 0.768009
Si Si5 0.540883 0.163615 0.915864
Si Si6 0.728464 0.192227 0.183881
Si Si7 0.820746 0.354555 0.226960
O O1 0.270122 0.093694 0.848537
O O2 0.267001 0.987746 0.702278
O O3 0.166943 0.021180 0.105984
O O4 0.500000 0.680704 0.250000
O O5 0.385025 0.690815 0.600494
O O6 0.439984 0.769539 0.184500
O O7 0.406175 0.671150 0.062282
O O8 0.116348 0.914565 0.219678
O O9 0.206581 0.844756 0.926115
O O10 0.434037 0.495335 0.461411
O O11 0.500000 0.142406 0.750000
O O12 0.607122 0.129867 0.832131
O O13 0.500000 0.163587 0.250000
O O14 0.701269 0.193146 0.520412
O O15 0.750000 0.250000 0.000000
O O16 0.680047 0.165328 0.065331
#
# Coordination Sequence:
#
# PCOD9263247 Si02
#       7
#     8   8   8   8   8   8   8
#     4  10  20  36  58  85 118 157 204 249 302 367
#     4  11  23  41  62  88 119 163 212 255 302 363
#     4  12  22  37  62  89 122 159 205 256 309 372
#     4  10  19  34  54  82 113 151 197 242 298 361
#     4  11  23  42  66  91 124 167 213 253 299 368
#     4  12  23  36  57  94 134 162 194 252 329 392
#     4  12  23  40  63  92 129 166 209 258 315 380
#
# _framework density 22.146296
#
# number of rings (size 3 to 8) (size 9 to 14) (size 15 to 20)
#    0.000    0.857    0.000   11.143    0.000    0.000 
#    0.000    0.000    0.000   11.143    0.000    0.000 
#    0.000    0.000    0.000    0.000    0.000    0.000 
#
# Total GULP energy -156558.890851 kJ/mol
# GULP energy per Si atom -5591.388959 kJ/mol
# Density = 2.209589 g / cm^3
# Si number density = 22.146296 Si / 1000 Ang^3
#
#
#
# Elastic Constant Matrix: (Units=GPa)
#
#
# Indices 1 2 3 4 5 6 
#
# 1 74.7807 0.4943 22.3265 0.0000 13.6084 0.0000
# 2 0.4943 32.5821 -5.2625 0.0000 8.0462 0.0000
# 3 22.3265 -5.2625 116.8551 0.0000 18.8169 0.0000
# 4 0.0000 0.0000 0.0000 9.4634 0.0000 11.5782
# 5 13.6084 8.0462 18.8169 0.0000 36.2269 0.0000
# 6 0.0000 0.0000 0.0000 11.5782 0.0000 0.7236
#
#
#
# Elastic Compliance Matrix: (Units=1/GPa)
#
#
# Indices 1 2 3 4 5 6 
#
# 1 0.014826 0.000585 -0.002061 0.000000 -0.004629 0.000000
# 2 0.000585 0.033398 0.002861 0.000000 -0.009124 0.000000
# 3 -0.002061 0.002861 0.009885 0.000000 -0.004996 0.000000
# 4 0.000000 0.000000 0.000000 -0.005688 0.000000 0.091018
# 5 -0.004629 -0.009124 -0.004996 0.000000 0.033964 0.000000
# 6 0.000000 0.000000 0.000000 0.091018 0.000000 -0.074394
#
#
# Mechanical properties :
#
#
# Convention : Reuss Voigt Hill
#
# Bulk Modulus (GPa) = 16.42558 28.81494 22.62026
# Shear Modulus (GPa) = 169.41790 23.06011 96.23900
#
# Velocity S-wave (km/s) = 8.75588 3.23036 6.59927
# Velocity P-wave (km/s) = 10.47156 5.19163 8.26458
#
# Compressibility (1/GPa) = 0.06088063
#
# Stress axis : x y z
#
# Youngs Moduli (GPa) = 67.44803 29.94177 101.16668
#
# Poissons Ratio (x) = -0.01753 0.20850
# Poissons Ratio (y) = -0.03948 -0.28948
# Poissons Ratio (z) = 0.13901 -0.08568
#
# Static dielectric constant tensor:
#      x y z
#    x 1.843460 0.000000 0.031890 
#    y 0.000000 1.810460 0.000000 
#    z 0.031890 0.000000 1.936830 
# 
# From -- ./inp_files/16104.got.cif
#   From: 2010.05.17/outbox.cif.g08.bks.cpg/sg15_9_cif.got.tgz:16104.got - 2010.06.03 18:47:42.
