data_PCOD9263186
_publ_section_title
;
Structure prediction by ZEFSAII (Michael W. Deem and Ramdas Pophale) SiO2 
 PCOD9263186
Probable space group: C 2/C
;
_chemical_formula_sum "Si O2"
_cell_formula_units_Z 56
_cell_length_a 11.771577
_cell_length_b 20.067309
_cell_length_c 18.894657
_cell_angle_alpha 90.000000
_cell_angle_beta 137.997080
_cell_angle_gamma 90.000000
_cell_volume 2986.745882
_symmetry_space_group_name_H-M "C 2/C"
_symmetry_group_IT_number 15
_symmetry_cell_setting 'monoclinic'
loop_
_space_group_symop_operation_xyz
x,y,z
-x,y,1/2-z
-x,-y,-z
x,-y,1/2+z
1/2+x,1/2+y,z
1/2-x,1/2+y,1/2-z
1/2-x,1/2-y,-z
1/2+x,1/2-y,1/2+z
loop_
_atom_site_type_symbol
_atom_site_label
_atom_site_fract_x
_atom_site_fract_y
_atom_site_fract_z
Si Si1 0.000000 0.613460 0.250000
Si Si2 0.970546 0.546689 0.092673
Si Si3 0.000000 0.021343 0.250000
Si Si4 0.632249 0.573294 0.600833
Si Si5 0.711276 0.072481 0.682445
Si Si6 0.351206 0.170779 0.967162
Si Si7 0.665469 0.321586 0.528455
Si Si8 0.129123 0.974458 0.953932
O O1 0.960278 0.565706 0.297929
O O2 0.162115 0.657204 0.349817
O O3 0.055334 0.479279 0.104517
O O4 0.987403 0.615503 0.057012
O O5 0.769610 0.530678 0.002603
O O6 0.919447 0.057771 0.144084
O O7 0.862648 0.972420 0.221152
O O8 0.760496 0.590799 0.722808
O O9 0.482101 0.626471 0.525425
O O10 0.539490 0.506806 0.589155
O O11 0.705332 0.564849 0.556058
O O12 0.707225 0.138049 0.632777
O O13 0.397466 0.247828 0.980844
O O14 0.213198 0.174982 0.967034
#
# Coordination Sequence:
#
# PCOD9263186 Si02
#       8
#     4   8   4   8   8   8   8   8
#     4  10  20  33  52  80 109 146 184 226 280 340
#     4  11  20  35  53  84 111 142 182 239 279 329
#     4  10  20  31  52  84 107 142 174 228 282 330
#     4  10  20  35  55  79 112 147 182 226 275 334
#     4  11  21  33  57  82 113 143 188 229 283 331
#     4  10  20  35  53  80 113 148 182 226 275 340
#     4  10  21  36  53  78 116 152 182 224 280 340
#     4  10  19  34  53  80 112 140 181 227 278 324
#
# _framework density 18.749503000000001
#
# number of rings (size 3 to 8) (size 9 to 14) (size 15 to 20)
#    0.000    1.714    4.286    2.143    4.000    4.000 
#    0.000    0.000    0.000    0.857    0.000    1.000 
#    0.000    0.000    0.000    0.000    0.000    0.000 
#
# Total GULP energy -155880.371145 kJ/mol
# GULP energy per Si atom -5567.156112 kJ/mol
# Density = 1.870683 g / cm^3
# Si number density = 18.749503 Si / 1000 Ang^3
#
#
#
# Elastic Constant Matrix: (Units=GPa)
#
#
# Indices 1 2 3 4 5 6 
#
# 1 28.0733 13.3261 27.1698 -0.0001 -15.4963 0.0000
# 2 13.3261 74.1210 32.3422 -0.0001 -7.4528 0.0000
# 3 27.1698 32.3422 123.7241 -0.0002 -44.2964 0.0000
# 4 -0.0001 -0.0001 -0.0002 -3.1026 -0.0001 -3.5656
# 5 -15.4963 -7.4528 -44.2964 -0.0001 34.7217 0.0000
# 6 0.0000 0.0000 0.0000 -3.5656 0.0000 21.2454
#
#
#
# Elastic Compliance Matrix: (Units=1/GPa)
#
#
# Indices 1 2 3 4 5 6 
#
# 1 0.051342 -0.005934 -0.003637 -0.000001 0.017001 0.000000
# 2 -0.005934 0.016127 -0.004825 0.000000 -0.005343 0.000000
# 3 -0.003637 -0.004825 0.016918 -0.000001 0.018924 0.000000
# 4 -0.000001 0.000000 -0.000001 -0.270196 -0.000003 -0.045347
# 5 0.017001 -0.005343 0.018924 -0.000003 0.059384 -0.000001
# 6 0.000000 0.000000 0.000000 -0.045347 -0.000001 0.039458
#
#
# Mechanical properties :
#
#
# Convention : Reuss Voigt Hill
#
# Bulk Modulus (GPa) = 17.98771 41.28827 29.63799
# Shear Modulus (GPa) = -126.12692 20.77825 -52.67433
#
# Velocity S-wave (km/s) = -8.21069 3.33258 -5.30610
# Velocity P-wave (km/s) = 8.95951 6.07264 4.65811
#
# Compressibility (1/GPa) = 0.05559353
#
# Stress axis : x y z
#
# Youngs Moduli (GPa) = 19.47723 62.00907 59.10900
#
# Poissons Ratio (x) = 0.36799 0.21496
# Poissons Ratio (y) = 0.11559 0.28522
# Poissons Ratio (z) = 0.07083 0.29921
#
# Static dielectric constant tensor:
#      x y z
#    x 1.679590 0.000000 -0.008830 
#    y 0.000000 1.651830 0.000000 
#    z -0.008830 0.000000 1.770500 
# 
# From -- ./inp_files/199619.got.cif
#   From: 2010.05.17/outbox.cif.g08.bks.cpg/sg15_100_cif.got.tgz:199619.got - 2010.06.03 18:47:42.
