data_PCOD9263860
_publ_section_title
;
Structure prediction by ZEFSAII (Michael W. Deem and Ramdas Pophale) SiO2 
 PCOD9263860
Probable space group: C 2/C
;
_chemical_formula_sum "Si O2"
_cell_formula_units_Z 40
_cell_length_a 13.362443
_cell_length_b 21.272420
_cell_length_c 10.208750
_cell_angle_alpha 90.000000
_cell_angle_beta 40.533691
_cell_angle_gamma 90.000000
_cell_volume 1885.899630
_symmetry_space_group_name_H-M "C 2/C"
_symmetry_group_IT_number 15
_symmetry_cell_setting 'monoclinic'
loop_
_space_group_symop_operation_xyz
x,y,z
-x,y,1/2-z
-x,-y,-z
x,-y,1/2+z
1/2+x,1/2+y,z
1/2-x,1/2+y,1/2-z
1/2-x,1/2-y,-z
1/2+x,1/2-y,1/2+z
loop_
_atom_site_type_symbol
_atom_site_label
_atom_site_fract_x
_atom_site_fract_y
_atom_site_fract_z
Si Si1 0.454882 0.734760 0.125076
Si Si2 0.742683 0.340857 0.346102
Si Si3 0.972455 0.554758 0.630611
Si Si4 0.183922 0.819421 0.097144
Si Si5 0.337191 0.836856 0.697473
O O1 0.366179 0.791659 0.284708
O O2 0.319834 0.691352 0.204868
O O3 0.583253 0.688353 0.053568
O O4 0.544566 0.777631 0.926583
O O5 0.724484 0.335514 0.206073
O O6 0.806234 0.410335 0.302876
O O7 0.088564 0.609740 0.465894
O O8 0.000000 0.532555 0.750000
O O9 0.000000 0.500000 0.500000
O O10 0.000000 0.825417 0.250000
O O11 0.250000 0.750000 0.000000
O O12 0.287311 0.859338 0.891217
#
# Coordination Sequence:
#
# PCOD9263860 Si02
#       5
#     8   8   8   8   8
#     4   9  16  32  59  98 131 167 192 248 311 382
#     4  10  19  34  61  95 134 163 207 248 310 367
#     4  11  28  49  66  86 117 167 225 272 322 376
#     4  12  18  28  60 104 144 164 202 242 309 376
#     4  10  19  34  61  95 134 163 207 248 310 367
#
# _framework density 21.210037
#
# number of rings (size 3 to 8) (size 9 to 14) (size 15 to 20)
#    0.000    1.600    6.000    0.000    5.600    0.000 
#    0.000   18.000    0.000    0.000    0.000    0.000 
#    0.000    0.000    0.000    0.000    0.000    0.000 
#
# Total GULP energy -111488.862936 kJ/mol
# GULP energy per Si atom -5574.443147 kJ/mol
# Density = 2.116176 g / cm^3
# Si number density = 21.210037 Si / 1000 Ang^3
#
#
#
# Elastic Constant Matrix: (Units=GPa)
#
#
# Indices 1 2 3 4 5 6 
#
# 1 109.7223 44.3203 44.8377 0.0000 1.2799 0.0000
# 2 44.3203 100.1328 33.5516 0.0000 -0.7389 0.0000
# 3 44.8377 33.5516 130.2505 0.0000 -2.0008 0.0000
# 4 0.0000 0.0000 0.0000 21.1397 0.0000 7.9350
# 5 1.2799 -0.7389 -2.0008 0.0000 54.1508 0.0000
# 6 0.0000 0.0000 0.0000 7.9350 0.0000 22.6001
#
#
#
# Elastic Compliance Matrix: (Units=1/GPa)
#
#
# Indices 1 2 3 4 5 6 
#
# 1 0.012125 -0.004344 -0.003062 0.000000 -0.000459 0.000000
# 2 -0.004344 0.012487 -0.001718 0.000000 0.000210 0.000000
# 3 -0.003062 -0.001718 0.009180 0.000000 0.000388 0.000000
# 4 0.000000 0.000000 0.000000 0.054485 0.000000 -0.019130
# 5 -0.000459 0.000210 0.000388 0.000000 0.018495 0.000000
# 6 0.000000 0.000000 0.000000 -0.019130 0.000000 0.050964
#
#
# Mechanical properties :
#
#
# Convention : Reuss Voigt Hill
#
# Bulk Modulus (GPa) = 64.33388 65.05831 64.69609
# Shear Modulus (GPa) = 27.59902 34.07118 30.83510
#
# Velocity S-wave (km/s) = 3.61116 4.01230 3.81701
# Velocity P-wave (km/s) = 6.91267 7.22528 7.07070
#
# Compressibility (1/GPa) = 0.01554391
#
# Stress axis : x y z
#
# Youngs Moduli (GPa) = 82.47181 80.08522 108.93172
#
# Poissons Ratio (x) = 0.34791 0.33356
# Poissons Ratio (y) = 0.35828 0.18712
# Poissons Ratio (z) = 0.25253 0.13757
#
# Static dielectric constant tensor:
#      x y z
#    x 1.891030 0.000000 0.081380 
#    y 0.000000 1.750190 0.000000 
#    z 0.081380 0.000000 1.893150 
# 
# From -- ./inp_files/89314.got.cif
#   From: 2010.05.17/outbox.cif.g08.bks.cpg/sg15_45_cif.got.tgz:89314.got - 2010.06.03 18:47:42.
