data_PCOD9263512
_publ_section_title
;
Structure prediction by ZEFSAII (Michael W. Deem and Ramdas Pophale) SiO2 
 PCOD9263512
Probable space group: C 2/C
;
_chemical_formula_sum "Si O2"
_cell_formula_units_Z 48
_cell_length_a 17.350043
_cell_length_b 9.607789
_cell_length_c 14.627049
_cell_angle_alpha 90.000000
_cell_angle_beta 123.796790
_cell_angle_gamma 90.000000
_cell_volume 2026.235514
_symmetry_space_group_name_H-M "C 2/C"
_symmetry_group_IT_number 15
_symmetry_cell_setting 'monoclinic'
loop_
_space_group_symop_operation_xyz
x,y,z
-x,y,1/2-z
-x,-y,-z
x,-y,1/2+z
1/2+x,1/2+y,z
1/2-x,1/2+y,1/2-z
1/2-x,1/2-y,-z
1/2+x,1/2-y,1/2+z
loop_
_atom_site_type_symbol
_atom_site_label
_atom_site_fract_x
_atom_site_fract_y
_atom_site_fract_z
Si Si1 0.933386 0.648320 0.584096
Si Si2 0.391383 0.156078 0.046215
Si Si3 0.848441 0.381531 0.311983
Si Si4 0.112056 0.311469 0.651947
Si Si5 0.685635 0.305282 0.875545
Si Si6 0.887695 0.892232 0.189589
O O1 0.886622 0.501114 0.580962
O O2 0.889315 0.694406 0.458389
O O3 0.912269 0.756478 0.647727
O O4 0.041470 0.631091 0.636620
O O5 0.343015 0.159361 0.915274
O O6 0.502375 0.169672 0.103640
O O7 0.363014 0.276538 0.096799
O O8 0.832389 0.546787 0.287209
O O9 0.799483 0.277443 0.209291
O O10 0.133983 0.177293 0.726575
O O11 0.673264 0.469430 0.858249
O O12 0.750000 0.250000 0.000000
O O13 0.000000 0.917316 0.250000
#
# Coordination Sequence:
#
# PCOD9263512 Si02
#       6
#     8   8   8   8   8   8
#     4   9  17  35  59  80 103 137 174 218 271 324
#     4   8  16  32  60  88 103 124 174 227 271 322
#     4   9  17  35  59  80 103 137 174 218 271 324
#     4   8  16  32  60  88 103 124 174 227 271 322
#     4  12  25  36  46  72 112 150 185 218 256 312
#     4  10  19  34  57  86 111 136 173 224 272 316
#
# _framework density 23.689249
#
# number of rings (size 3 to 8) (size 9 to 14) (size 15 to 20)
#    0.000    2.667    0.000    4.500    0.000    4.000 
#    0.000   15.000    0.000    0.000    0.000    0.000 
#    0.000    0.000    0.000    0.000    0.000    0.000 
#
# Total GULP energy -134138.817522 kJ/mol
# GULP energy per Si atom -5589.117397 kJ/mol
# Density = 2.363533 g / cm^3
# Si number density = 23.689249 Si / 1000 Ang^3
#
#
#
# Elastic Constant Matrix: (Units=GPa)
#
#
# Indices 1 2 3 4 5 6 
#
# 1 60.7827 37.0715 20.9752 0.0000 -7.0059 0.0000
# 2 37.0715 175.0718 97.4164 0.0000 -17.7234 0.0000
# 3 20.9752 97.4164 133.6765 0.0000 2.0860 0.0000
# 4 0.0000 0.0000 0.0000 43.8511 0.0000 -1.4214
# 5 -7.0059 -17.7234 2.0860 0.0000 47.3281 0.0000
# 6 0.0000 0.0000 0.0000 -1.4214 0.0000 26.0374
#
#
#
# Elastic Compliance Matrix: (Units=1/GPa)
#
#
# Indices 1 2 3 4 5 6 
#
# 1 0.018982 -0.003708 -0.000299 0.000000 0.001434 0.000000
# 2 -0.003708 0.011114 -0.007579 0.000000 0.003947 0.000000
# 3 -0.000299 -0.007579 0.013105 0.000000 -0.003460 0.000000
# 4 0.000000 0.000000 0.000000 0.022845 0.000000 0.001247
# 5 0.001434 0.003947 -0.003460 0.000000 0.022972 0.000000
# 6 0.000000 0.000000 0.000000 0.001247 0.000000 0.038474
#
#
# Mechanical properties :
#
#
# Convention : Reuss Voigt Hill
#
# Bulk Modulus (GPa) = 49.92679 75.60636 62.76657
# Shear Modulus (GPa) = 31.77832 37.71450 34.74641
#
# Velocity S-wave (km/s) = 3.66658 3.99438 3.83398
# Velocity P-wave (km/s) = 6.24872 7.29785 6.79357
#
# Compressibility (1/GPa) = 0.02002933
#
# Stress axis : x y z
#
# Youngs Moduli (GPa) = 52.68153 89.97682 76.30792
#
# Poissons Ratio (x) = 0.33364 0.02279
# Poissons Ratio (y) = 0.19535 0.57834
# Poissons Ratio (z) = 0.01573 0.68194
#
# Static dielectric constant tensor:
#      x y z
#    x 2.033350 0.000000 0.090240 
#    y 0.000000 1.877460 0.000000 
#    z 0.090240 0.000000 1.909160 
# 
# From -- ./inp_files/176952.got.cif
#   From: 2010.05.17/outbox.cif.g08.bks.cpg/sg15_89_cif.got.tgz:176952.got - 2010.06.03 18:47:42.
