data_PCOD9263381
_publ_section_title
;
Structure prediction by ZEFSAII (Michael W. Deem and Ramdas Pophale) SiO2 
 PCOD9263381
Probable space group: C 2/C
;
_chemical_formula_sum "Si O2"
_cell_formula_units_Z 40
_cell_length_a 4.888167
_cell_length_b 36.848779
_cell_length_c 14.452689
_cell_angle_alpha 90.000000
_cell_angle_beta 50.813491
_cell_angle_gamma 90.000000
_cell_volume 2017.770504
_symmetry_space_group_name_H-M "C 2/C"
_symmetry_group_IT_number 15
_symmetry_cell_setting 'monoclinic'
loop_
_space_group_symop_operation_xyz
x,y,z
-x,y,1/2-z
-x,-y,-z
x,-y,1/2+z
1/2+x,1/2+y,z
1/2-x,1/2+y,1/2-z
1/2-x,1/2-y,-z
1/2+x,1/2-y,1/2+z
loop_
_atom_site_type_symbol
_atom_site_label
_atom_site_fract_x
_atom_site_fract_y
_atom_site_fract_z
Si Si1 0.219617 0.472562 0.606980
Si Si2 0.175505 0.344130 0.890658
Si Si3 0.606053 0.735066 0.820856
Si Si4 0.288847 0.576408 0.390223
Si Si5 0.560191 0.301365 0.956157
O O1 0.500000 0.500000 0.500000
O O2 0.439530 0.437456 0.592255
O O3 0.000000 0.483880 0.750000
O O4 0.963578 0.457240 0.581955
O O5 0.500000 0.342956 0.750000
O O6 0.137931 0.383907 0.943382
O O7 0.261982 0.312710 0.947292
O O8 0.825712 0.334837 0.908771
O O9 0.500000 0.714367 0.750000
O O10 0.310937 0.766884 0.880746
O O11 0.000000 0.750928 0.750000
O O12 0.584397 0.708957 0.913083
O O13 0.500000 0.581741 0.250000
#
# Coordination Sequence:
#
# PCOD9263381 Si02
#       5
#     8   8   8   8   8
#     4  10  19  34  56  82 111 143 178 216 264 317
#     4  11  20  34  55  80 109 136 173 224 271 315
#     4  11  22  37  53  74 105 135 175 226 272 323
#     4   9  19  33  53  81 109 137 170 217 269 313
#     4  11  22  34  55  79  99 137 179 218 273 326
#
# _framework density 19.823858000000001
#
# number of rings (size 3 to 8) (size 9 to 14) (size 15 to 20)
#    0.000    1.600    0.000    6.600    0.000    6.400 
#    0.000    0.000    0.000   12.000    0.000    0.000 
#    0.000    0.000    0.000    0.000    0.000    0.000 
#
# Total GULP energy -111478.108030 kJ/mol
# GULP energy per Si atom -5573.905401 kJ/mol
# Density = 1.977874 g / cm^3
# Si number density = 19.823858 Si / 1000 Ang^3
#
#
#
# Elastic Constant Matrix: (Units=GPa)
#
#
# Indices 1 2 3 4 5 6 
#
# 1 62.7297 -16.4844 6.4405 0.0000 6.0243 0.0000
# 2 -16.4844 55.7416 22.3503 0.0000 -2.4065 0.0000
# 3 6.4405 22.3503 64.3352 0.0000 9.7788 0.0000
# 4 0.0000 0.0000 0.0000 9.3009 0.0000 -5.8942
# 5 6.0243 -2.4065 9.7788 0.0000 26.4397 0.0000
# 6 0.0000 0.0000 0.0000 -5.8942 0.0000 8.1015
#
#
#
# Elastic Compliance Matrix: (Units=1/GPa)
#
#
# Indices 1 2 3 4 5 6 
#
# 1 0.018362 0.006911 -0.003919 0.000000 -0.002105 0.000000
# 2 0.006911 0.024048 -0.009684 0.000000 0.004196 0.000000
# 3 -0.003919 -0.009684 0.020448 0.000000 -0.007551 0.000000
# 4 0.000000 0.000000 0.000000 0.199497 0.000000 0.145143
# 5 -0.002105 0.004196 -0.007551 0.000000 0.041476 0.000000
# 6 0.000000 0.000000 0.000000 0.145143 0.000000 0.229032
#
#
# Mechanical properties :
#
#
# Convention : Reuss Voigt Hill
#
# Bulk Modulus (GPa) = 20.21297 23.04659 21.62978
# Shear Modulus (GPa) = 8.88513 20.13509 14.51011
#
# Velocity S-wave (km/s) = 2.11938 3.19046 2.70840
# Velocity P-wave (km/s) = 4.02585 5.02225 4.55140
#
# Compressibility (1/GPa) = 0.04947318
#
# Stress axis : x y z
#
# Youngs Moduli (GPa) = 54.46040 41.58423 48.90492
#
# Poissons Ratio (x) = -0.28737 0.19166
# Poissons Ratio (y) = -0.37636 0.47358
# Poissons Ratio (z) = 0.21343 0.40269
#
# Static dielectric constant tensor:
#      x y z
#    x 1.494740 0.000000 -0.030410 
#    y 0.000000 1.724290 0.000000 
#    z -0.030410 0.000000 1.803580 
# 
# From -- ./inp_files/130264.got.cif
#   From: 2010.05.17/outbox.cif.g08.bks.cpg/sg15_66_cif.got.tgz:130264.got - 2010.06.03 18:47:42.
