data_PCOD9263114
_publ_section_title
;
Structure prediction by ZEFSAII (Michael W. Deem and Ramdas Pophale) SiO2 
 PCOD9263114
Probable space group: C 2/C
;
_chemical_formula_sum "Si O2"
_cell_formula_units_Z 56
_cell_length_a 27.280412
_cell_length_b 19.960125
_cell_length_c 5.077805
_cell_angle_alpha 90.000000
_cell_angle_beta 74.370667
_cell_angle_gamma 90.000000
_cell_volume 2662.733217
_symmetry_space_group_name_H-M "C 2/C"
_symmetry_group_IT_number 15
_symmetry_cell_setting 'monoclinic'
loop_
_space_group_symop_operation_xyz
x,y,z
-x,y,1/2-z
-x,-y,-z
x,-y,1/2+z
1/2+x,1/2+y,z
1/2-x,1/2+y,1/2-z
1/2-x,1/2-y,-z
1/2+x,1/2-y,1/2+z
loop_
_atom_site_type_symbol
_atom_site_label
_atom_site_fract_x
_atom_site_fract_y
_atom_site_fract_z
Si Si1 0.621831 0.456964 0.465063
Si Si2 0.193997 0.794777 0.795411
Si Si3 0.127395 0.717906 0.514248
Si Si4 0.966533 0.742711 0.536649
Si Si5 0.242650 0.043441 0.787254
Si Si6 0.207255 0.341577 0.610523
Si Si7 0.593931 0.665669 0.692709
O O1 0.612123 0.482596 0.772803
O O2 0.589842 0.394741 0.401033
O O3 0.682248 0.439575 0.359497
O O4 0.173585 0.765456 0.551945
O O5 0.246250 0.833801 0.750487
O O6 0.200523 0.728180 0.962157
O O7 0.148023 0.840309 0.966818
O O8 0.086622 0.706735 0.804812
O O9 0.154449 0.654205 0.346306
O O10 0.098910 0.765125 0.348035
O O11 0.948476 0.816164 0.460088
O O12 0.000000 0.746068 0.750000
O O13 0.000000 0.712813 0.250000
O O14 0.276491 0.103249 0.623827
O O15 0.251996 0.017138 0.066935
#
# Coordination Sequence:
#
# PCOD9263114 Si02
#       7
#     8   8   8   8   8   8   8
#     4  10  22  35  53  77 109 151 197 238 268 321
#     4   9  19  31  52  83 114 153 177 238 273 337
#     4  10  21  33  58  85 110 147 183 229 291 344
#     4  11  22  39  59  84 110 142 180 235 302 360
#     4  10  22  36  52  76 113 164 195 225 266 315
#     4  10  19  34  50  82 120 150 191 227 274 332
#     4  10  20  36  57  83 109 146 194 229 291 339
#
# _framework density 21.031020999999999
#
# number of rings (size 3 to 8) (size 9 to 14) (size 15 to 20)
#    0.000    2.000    2.857    0.429    6.000    1.143 
#    0.000    0.000    0.000    2.571    0.000    0.000 
#    0.000    3.429    0.000    0.000    0.000    0.000 
#
# Total GULP energy -156349.930207 kJ/mol
# GULP energy per Si atom -5583.926079 kJ/mol
# Density = 2.098315 g / cm^3
# Si number density = 21.031021 Si / 1000 Ang^3
#
#
#
# Elastic Constant Matrix: (Units=GPa)
#
#
# Indices 1 2 3 4 5 6 
#
# 1 48.9888 8.3213 30.0450 0.0000 -0.1671 0.0000
# 2 8.3213 28.2996 8.7703 0.0000 -2.0427 0.0000
# 3 30.0450 8.7703 89.9040 0.0000 -3.3139 0.0000
# 4 0.0000 0.0000 0.0000 22.1484 0.0000 3.6807
# 5 -0.1671 -2.0427 -3.3139 0.0000 39.4461 0.0000
# 6 0.0000 0.0000 0.0000 3.6807 0.0000 7.0423
#
#
#
# Elastic Compliance Matrix: (Units=1/GPa)
#
#
# Indices 1 2 3 4 5 6 
#
# 1 0.026422 -0.005244 -0.008350 0.000000 -0.000861 0.000000
# 2 -0.005244 0.037579 -0.001848 0.000000 0.001769 0.000000
# 3 -0.008350 -0.001848 0.014133 0.000000 0.001056 0.000000
# 4 0.000000 0.000000 0.000000 0.049445 0.000000 -0.025843
# 5 -0.000861 0.001769 0.001056 0.000000 0.025528 0.000000
# 6 0.000000 0.000000 0.000000 -0.025843 0.000000 0.155507
#
#
# Mechanical properties :
#
#
# Convention : Reuss Voigt Hill
#
# Bulk Modulus (GPa) = 21.16445 29.05175 25.10810
# Shear Modulus (GPa) = 14.07477 21.73106 17.90292
#
# Velocity S-wave (km/s) = 2.58977 3.21796 2.92081
# Velocity P-wave (km/s) = 4.36209 5.25840 4.83108
#
# Compressibility (1/GPa) = 0.04724905
#
# Stress axis : x y z
#
# Youngs Moduli (GPa) = 37.84772 26.61095 70.75778
#
# Poissons Ratio (x) = 0.13953 0.59083
# Poissons Ratio (y) = 0.19846 0.13078
# Poissons Ratio (z) = 0.31603 0.04919
#
# Static dielectric constant tensor:
#      x y z
#    x 1.805750 0.000000 0.005410 
#    y 0.000000 1.761480 0.000000 
#    z 0.005410 0.000000 1.862680 
# 
# From -- ./inp_files/17352.got.cif
#   From: 2010.05.17/outbox.cif.g08.bks.cpg/sg15_9_cif.got.tgz:17352.got - 2010.06.03 18:47:42.
