data_PCOD9263306
_publ_section_title
;
Structure prediction by ZEFSAII (Michael W. Deem and Ramdas Pophale) SiO2 
 PCOD9263306
Probable space group: C 2/C
;
_chemical_formula_sum "Si O2"
_cell_formula_units_Z 40
_cell_length_a 9.964791
_cell_length_b 23.394069
_cell_length_c 7.265389
_cell_angle_alpha 90.000000
_cell_angle_beta 67.885966
_cell_angle_gamma 90.000000
_cell_volume 1569.092213
_symmetry_space_group_name_H-M "C 2/C"
_symmetry_group_IT_number 15
_symmetry_cell_setting 'monoclinic'
loop_
_space_group_symop_operation_xyz
x,y,z
-x,y,1/2-z
-x,-y,-z
x,-y,1/2+z
1/2+x,1/2+y,z
1/2-x,1/2+y,1/2-z
1/2-x,1/2-y,-z
1/2+x,1/2-y,1/2+z
loop_
_atom_site_type_symbol
_atom_site_label
_atom_site_fract_x
_atom_site_fract_y
_atom_site_fract_z
Si Si1 0.773608 0.305557 0.737361
Si Si2 0.000000 0.979963 0.250000
Si Si3 0.857321 0.425585 0.120617
Si Si4 0.000000 0.484580 0.750000
Si Si5 0.589335 0.801073 0.421574
Si Si6 0.855550 0.925153 0.622595
O O1 0.662287 0.252972 0.787287
O O2 0.684935 0.364841 0.768224
O O3 0.916185 0.299181 0.537943
O O4 0.841257 0.303997 0.909111
O O5 0.872696 0.025654 0.265732
O O6 0.000683 0.938206 0.427562
O O7 0.869125 0.471475 0.275893
O O8 0.864221 0.361660 0.187648
O O9 0.747483 0.429855 0.005521
O O10 0.999439 0.443029 0.926001
#
# Coordination Sequence:
#
# PCOD9263306 Si02
#       6
#     8   4   8   4   8   8
#     4   9  18  33  56  83 113 149 192 239 288 344
#     4  10  22  36  54  82 112 152 194 236 288 350
#     4  10  19  34  55  81 113 147 187 236 290 344
#     4  10  20  32  54  84 112 144 184 230 292 352
#     4   9  18  33  55  83 113 149 192 237 288 345
#     4  10  20  36  56  79 113 149 192 237 288 344
#
# _framework density 25.492448
#
# number of rings (size 3 to 8) (size 9 to 14) (size 15 to 20)
#    0.000    2.400    0.000    3.600    0.000    6.400 
#    0.000    1.000    0.000    2.400    0.000    0.000 
#    0.000    1.600    0.000    0.000    0.000    0.000 
#
# Total GULP energy -111408.246106 kJ/mol
# GULP energy per Si atom -5570.412305 kJ/mol
# Density = 2.543443 g / cm^3
# Si number density = 25.492448 Si / 1000 Ang^3
#
#
#
# Elastic Constant Matrix: (Units=GPa)
#
#
# Indices 1 2 3 4 5 6 
#
# 1 117.9491 64.3242 27.3310 0.0000 13.4414 0.0000
# 2 64.3242 208.7340 34.7318 0.0000 -34.4684 0.0000
# 3 27.3310 34.7318 52.1176 0.0000 2.0347 0.0000
# 4 0.0000 0.0000 0.0000 24.8594 0.0000 -1.6993
# 5 13.4414 -34.4684 2.0347 0.0000 41.2882 0.0000
# 6 0.0000 0.0000 0.0000 -1.6993 0.0000 37.3636
#
#
#
# Elastic Compliance Matrix: (Units=1/GPa)
#
#
# Indices 1 2 3 4 5 6 
#
# 1 0.012664 -0.004663 -0.003227 0.000000 -0.007857 0.000000
# 2 -0.004663 0.008192 -0.003346 0.000000 0.008522 0.000000
# 3 -0.003227 -0.003346 0.023222 0.000000 -0.002888 0.000000
# 4 0.000000 0.000000 0.000000 0.040352 0.000000 0.001835
# 5 -0.007857 0.008522 -0.002888 0.000000 0.034034 0.000000
# 6 0.000000 0.000000 0.000000 0.001835 0.000000 0.026848
#
#
# Mechanical properties :
#
#
# Convention : Reuss Voigt Hill
#
# Bulk Modulus (GPa) = 46.28449 70.17499 58.22974
# Shear Modulus (GPa) = 28.57351 37.52981 33.05166
#
# Velocity S-wave (km/s) = 3.35156 3.84108 3.60464
# Velocity P-wave (km/s) = 5.75959 6.87455 6.34162
#
# Compressibility (1/GPa) = 0.02160551
#
# Stress axis : x y z
#
# Youngs Moduli (GPa) = 78.96134 122.07284 43.06173
#
# Poissons Ratio (x) = 0.56925 0.13896
# Poissons Ratio (y) = 0.36821 0.14410
# Poissons Ratio (z) = 0.25481 0.40851
#
# Static dielectric constant tensor:
#      x y z
#    x 2.304900 0.000000 -0.239710 
#    y 0.000000 1.933510 0.000000 
#    z -0.239710 0.000000 2.249060 
# 
# From -- ./inp_files/31801.got.cif
#   From: 2010.05.17/outbox.cif.g08.bks.cpg/sg15_16_cif.got.tgz:31801.got - 2010.06.03 18:47:42.
