data_PCOD9263009
_publ_section_title
;
Structure prediction by ZEFSAII (Michael W. Deem and Ramdas Pophale) SiO2 
 PCOD9263009
Probable space group: C 2/C
;
_chemical_formula_sum "Si O2"
_cell_formula_units_Z 64
_cell_length_a 18.026194
_cell_length_b 7.886657
_cell_length_c 23.526889
_cell_angle_alpha 90.000000
_cell_angle_beta 130.505821
_cell_angle_gamma 90.000000
_cell_volume 2543.134472
_symmetry_space_group_name_H-M "C 2/C"
_symmetry_group_IT_number 15
_symmetry_cell_setting 'monoclinic'
loop_
_space_group_symop_operation_xyz
x,y,z
-x,y,1/2-z
-x,-y,-z
x,-y,1/2+z
1/2+x,1/2+y,z
1/2-x,1/2+y,1/2-z
1/2-x,1/2-y,-z
1/2+x,1/2-y,1/2+z
loop_
_atom_site_type_symbol
_atom_site_label
_atom_site_fract_x
_atom_site_fract_y
_atom_site_fract_z
Si Si1 0.145018 0.913114 0.392517
Si Si2 0.230812 0.503062 0.144475
Si Si3 0.878151 0.139222 0.422630
Si Si4 0.953852 0.326803 0.955540
Si Si5 0.762240 0.537002 0.054576
Si Si6 0.099397 0.407273 0.279142
Si Si7 0.231156 0.090544 0.721078
Si Si8 0.049138 0.737895 0.178446
O O1 0.172619 0.985409 0.344571
O O2 0.182863 0.718999 0.420024
O O3 0.218733 0.013744 0.471860
O O4 0.030044 0.882172 0.344379
O O5 0.175866 0.321300 0.110689
O O6 0.159817 0.653000 0.087885
O O7 0.227207 0.531578 0.209765
O O8 0.836671 0.068677 0.460254
O O9 0.839808 0.014087 0.355643
O O10 0.991414 0.180060 0.483583
O O11 0.976362 0.315724 0.899348
O O12 0.000000 0.500000 0.000000
O O13 0.835382 0.433440 0.131654
O O14 0.176517 0.342842 0.269654
O O15 0.059384 0.582085 0.228220
O O16 0.000000 0.316661 0.250000
O O17 0.157299 0.189474 0.725516
#
# Coordination Sequence:
#
# PCOD9263009 Si02
#       8
#     8   8   8   8   8   8   8   8
#     4  10  19  33  59  89 121 156 202 266 300 356
#     4  10  21  36  61  92 129 160 209 262 318 369
#     4   9  19  37  56  86 123 164 210 251 316 376
#     4  10  21  38  60  91 125 169 208 256 309 382
#     4   9  17  31  55  85 120 148 194 266 301 344
#     4  11  22  38  60  91 126 159 210 261 314 374
#     4  11  23  36  59  94 132 163 199 272 317 375
#     4  12  22  38  64  95 126 164 213 257 324 372
#
# _framework density 25.165794000000002
#
# number of rings (size 3 to 8) (size 9 to 14) (size 15 to 20)
#    0.000    1.750    3.750    2.250    1.750    0.500 
#    0.000    0.000    0.000    3.750    0.000    0.000 
#    0.000    0.000    0.000    0.000    0.000    0.000 
#
# Total GULP energy -178596.756923 kJ/mol
# GULP energy per Si atom -5581.148654 kJ/mol
# Density = 2.510852 g / cm^3
# Si number density = 25.165794 Si / 1000 Ang^3
#
#
#
# Elastic Constant Matrix: (Units=GPa)
#
#
# Indices 1 2 3 4 5 6 
#
# 1 185.8044 28.6140 51.2952 0.0000 15.6449 0.0000
# 2 28.6140 38.2872 1.6204 0.0000 5.4212 0.0000
# 3 51.2952 1.6204 95.2783 0.0000 -6.2390 0.0000
# 4 0.0000 0.0000 0.0000 15.3458 0.0000 6.4431
# 5 15.6449 5.4212 -6.2390 0.0000 45.8967 0.0000
# 6 0.0000 0.0000 0.0000 6.4431 0.0000 37.3471
#
#
#
# Elastic Compliance Matrix: (Units=1/GPa)
#
#
# Indices 1 2 3 4 5 6 
#
# 1 0.007516 -0.005086 -0.004125 0.000000 -0.002522 0.000000
# 2 -0.005086 0.030045 0.002127 0.000000 -0.001526 0.000000
# 3 -0.004125 0.002127 0.012871 0.000000 0.002905 0.000000
# 4 0.000000 0.000000 0.000000 0.070253 0.000000 -0.012120
# 5 -0.002522 -0.001526 0.002905 0.000000 0.023223 0.000000
# 6 0.000000 0.000000 0.000000 -0.012120 0.000000 0.028867
#
#
# Mechanical properties :
#
#
# Convention : Reuss Voigt Hill
#
# Bulk Modulus (GPa) = 27.57524 53.60323 40.58923
# Shear Modulus (GPa) = 25.12172 35.57395 30.34784
#
# Velocity S-wave (km/s) = 3.16293 3.76384 3.47640
# Velocity P-wave (km/s) = 4.93154 6.34310 5.68133
#
# Compressibility (1/GPa) = 0.03626442
#
# Stress axis : x y z
#
# Youngs Moduli (GPa) = 133.04124 33.28310 77.69677
#
# Poissons Ratio (x) = 0.16927 0.32052
# Poissons Ratio (y) = 0.67661 -0.16527
# Poissons Ratio (z) = 0.54884 -0.07080
#
# Static dielectric constant tensor:
#      x y z
#    x 1.942710 0.000000 0.039280 
#    y 0.000000 2.122980 0.000000 
#    z 0.039280 0.000000 2.177360 
# 
# From -- ./inp_files/277113.got.cif
#   From: 2010.05.17/outbox.cif.g08.bks.cpg/sg15_139_cif.got.tgz:277113.got - 2010.06.03 18:47:42.
