data_PCOD9263790
_publ_section_title
;
Structure prediction by ZEFSAII (Michael W. Deem and Ramdas Pophale) SiO2 
 PCOD9263790
Probable space group: C 2/C
;
_chemical_formula_sum "Si O2"
_cell_formula_units_Z 64
_cell_length_a 18.730346
_cell_length_b 19.789004
_cell_length_c 9.107563
_cell_angle_alpha 90.000000
_cell_angle_beta 95.299891
_cell_angle_gamma 90.000000
_cell_volume 3361.330968
_symmetry_space_group_name_H-M "C 2/C"
_symmetry_group_IT_number 15
_symmetry_cell_setting 'monoclinic'
loop_
_space_group_symop_operation_xyz
x,y,z
-x,y,1/2-z
-x,-y,-z
x,-y,1/2+z
1/2+x,1/2+y,z
1/2-x,1/2+y,1/2-z
1/2-x,1/2-y,-z
1/2+x,1/2-y,1/2+z
loop_
_atom_site_type_symbol
_atom_site_label
_atom_site_fract_x
_atom_site_fract_y
_atom_site_fract_z
Si Si1 0.419973 0.961744 0.173472
Si Si2 0.515684 0.394532 0.412062
Si Si3 0.041406 0.615315 0.102042
Si Si4 0.162795 0.603822 0.313297
Si Si5 0.679419 0.419057 0.771939
Si Si6 0.400574 0.845407 0.402392
Si Si7 0.614587 0.514334 0.512287
Si Si8 0.926190 0.801967 0.823233
O O1 0.500000 0.972802 0.250000
O O2 0.393262 0.898973 0.268036
O O3 0.370986 0.027791 0.183138
O O4 0.430956 0.943608 0.003550
O O5 0.500000 0.365947 0.250000
O O6 0.570232 0.457943 0.412539
O O7 0.443154 0.427700 0.461994
O O8 0.550182 0.339152 0.522910
O O9 0.115523 0.643947 0.182103
O O10 0.000000 0.605278 0.250000
O O11 0.981884 0.650739 0.987166
O O12 0.243750 0.599615 0.276672
O O13 0.150395 0.635185 0.471504
O O14 0.643320 0.474034 0.657145
O O15 0.678399 0.453598 0.930655
O O16 0.627530 0.354210 0.764180
O O17 0.390400 0.769927 0.344592
O O18 0.000000 0.791986 0.750000
#
# Coordination Sequence:
#
# PCOD9263790 Si02
#       8
#     8   8   8   8   8   8   8   8
#     4  10  19  36  60  87 115 148 198 255 302 347
#     4  10  19  34  60  89 117 151 203 260 296 341
#     4   9  19  35  56  82 111 147 192 249 292 347
#     4  11  23  36  58  88 120 159 194 245 303 353
#     4  11  24  37  61  89 127 163 198 245 298 366
#     4  10  22  39  62  89 118 155 205 252 296 368
#     4  10  20  36  56  88 122 155 202 251 297 349
#     4  11  22  40  63  88 118 163 202 244 309 355
#
# _framework density 19.040075999999999
#
# number of rings (size 3 to 8) (size 9 to 14) (size 15 to 20)
#    0.000    1.750    2.500    3.000    3.500    5.500 
#    0.000    0.625    0.000    3.000    0.000    0.000 
#    0.000    0.000    0.000    0.000    0.000    0.000 
#
# Total GULP energy -178386.562072 kJ/mol
# GULP energy per Si atom -5574.580065 kJ/mol
# Density = 1.899674 g / cm^3
# Si number density = 19.040076 Si / 1000 Ang^3
#
#
#
# Elastic Constant Matrix: (Units=GPa)
#
#
# Indices 1 2 3 4 5 6 
#
# 1 76.0038 12.5164 5.6365 0.0000 -26.4835 0.0000
# 2 12.5164 91.2835 26.2440 0.0000 -17.4447 0.0000
# 3 5.6365 26.2440 77.5015 0.0000 -14.4280 0.0000
# 4 0.0000 0.0000 0.0000 9.9114 0.0000 -4.6542
# 5 -26.4835 -17.4447 -14.4280 0.0000 24.8903 0.0000
# 6 0.0000 0.0000 0.0000 -4.6542 0.0000 7.4699
#
#
#
# Elastic Compliance Matrix: (Units=1/GPa)
#
#
# Indices 1 2 3 4 5 6 
#
# 1 0.021612 0.001084 0.002784 0.000000 0.025369 0.000000
# 2 0.001084 0.013336 -0.002959 0.000000 0.008785 0.000000
# 3 0.002784 -0.002959 0.015545 0.000000 0.009899 0.000000
# 4 0.000000 0.000000 0.000000 0.142623 0.000000 0.088864
# 5 0.025369 0.008785 0.009899 0.000000 0.079064 0.000000
# 6 0.000000 0.000000 0.000000 0.088864 0.000000 0.189239
#
#
# Mechanical properties :
#
#
# Convention : Reuss Voigt Hill
#
# Bulk Modulus (GPa) = 19.11632 37.06473 28.09053
# Shear Modulus (GPa) = 10.48132 21.81378 16.14755
#
# Velocity S-wave (km/s) = 2.34879 3.38846 2.91534
# Velocity P-wave (km/s) = 4.17344 5.90066 5.11055
#
# Compressibility (1/GPa) = 0.05231131
#
# Stress axis : x y z
#
# Youngs Moduli (GPa) = 46.27050 74.98585 64.32753
#
# Poissons Ratio (x) = -0.08132 -0.17907
# Poissons Ratio (y) = -0.05018 0.19036
# Poissons Ratio (z) = -0.12881 0.22190
#
# Static dielectric constant tensor:
#      x y z
#    x 1.668160 0.000000 -0.002430 
#    y 0.000000 1.663760 0.000000 
#    z -0.002430 0.000000 1.689410 
# 
# From -- ./inp_files/50256.got.cif
#   From: 2010.05.17/outbox.cif.g08.bks.cpg/sg15_26_cif.got.tgz:50256.got - 2010.06.03 18:47:42.
