data_PCOD9263859
_publ_section_title
;
Structure prediction by ZEFSAII (Michael W. Deem and Ramdas Pophale) SiO2 
 PCOD9263859
Probable space group: C 2/C
;
_chemical_formula_sum "Si O2"
_cell_formula_units_Z 56
_cell_length_a 11.523497
_cell_length_b 9.660988
_cell_length_c 22.242691
_cell_angle_alpha 90.000000
_cell_angle_beta 92.333854
_cell_angle_gamma 90.000000
_cell_volume 2474.188427
_symmetry_space_group_name_H-M "C 2/C"
_symmetry_group_IT_number 15
_symmetry_cell_setting 'monoclinic'
loop_
_space_group_symop_operation_xyz
x,y,z
-x,y,1/2-z
-x,-y,-z
x,-y,1/2+z
1/2+x,1/2+y,z
1/2-x,1/2+y,1/2-z
1/2-x,1/2-y,-z
1/2+x,1/2-y,1/2+z
loop_
_atom_site_type_symbol
_atom_site_label
_atom_site_fract_x
_atom_site_fract_y
_atom_site_fract_z
Si Si1 0.477168 0.273336 0.649421
Si Si2 0.962661 0.004614 0.930100
Si Si3 0.237827 0.696715 0.688521
Si Si4 0.249287 0.875957 0.796300
Si Si5 0.645426 0.781622 0.580787
Si Si6 0.874862 0.399787 0.048211
Si Si7 0.731468 0.178669 0.435445
O O1 0.462136 0.421493 0.615647
O O2 0.600099 0.238639 0.682177
O O3 0.366325 0.283944 0.690618
O O4 0.469306 0.166606 0.593685
O O5 0.844224 0.916509 0.924814
O O6 0.949365 0.162982 0.912829
O O7 0.000000 0.000000 0.000000
O O8 0.294186 0.806249 0.735959
O O9 0.263530 0.540981 0.710906
O O10 0.280849 0.719773 0.620986
O O11 0.329152 0.857403 0.856815
O O12 0.760137 0.690293 0.564897
O O13 0.616271 0.874225 0.522552
O O14 0.865495 0.561227 0.061331
O O15 0.750000 0.250000 0.500000
#
# Coordination Sequence:
#
# PCOD9263859 Si02
#       7
#     8   8   8   8   8   8   8
#     4  10  22  41  67  93 129 171 219 278 333 393
#     4  10  19  34  61  95 128 163 216 265 329 398
#     4  11  26  44  67  98 127 177 226 269 338 402
#     4  11  25  44  69  89 135 173 222 272 331 402
#     4   9  18  34  61  92 126 167 210 258 329 390
#     4   9  17  34  63  90 124 168 207 265 332 385
#     4  10  22  38  61  92 132 165 216 275 337 390
#
# _framework density 22.633683999999999
#
# number of rings (size 3 to 8) (size 9 to 14) (size 15 to 20)
#    0.000    2.000    1.429    1.286   12.000    0.000 
#    2.571    2.143    0.000    0.000    0.000    0.000 
#    0.000    0.000    0.000    0.000    0.000    0.000 
#
# Total GULP energy -156348.877546 kJ/mol
# GULP energy per Si atom -5583.888484 kJ/mol
# Density = 2.258217 g / cm^3
# Si number density = 22.633684 Si / 1000 Ang^3
#
#
#
# Elastic Constant Matrix: (Units=GPa)
#
#
# Indices 1 2 3 4 5 6 
#
# 1 34.1721 -4.1673 8.3835 0.0000 5.5966 0.0000
# 2 -4.1673 128.6472 53.2131 0.0000 11.6698 0.0000
# 3 8.3835 53.2131 160.8924 0.0000 15.5610 0.0000
# 4 0.0000 0.0000 0.0000 40.2368 0.0000 6.0829
# 5 5.5966 11.6698 15.5610 0.0000 23.2611 0.0000
# 6 0.0000 0.0000 0.0000 6.0829 0.0000 28.3943
#
#
#
# Elastic Compliance Matrix: (Units=1/GPa)
#
#
# Indices 1 2 3 4 5 6 
#
# 1 0.031211 0.002396 -0.001685 0.000000 -0.007584 0.000000
# 2 0.002396 0.009351 -0.002895 0.000000 -0.003331 0.000000
# 3 -0.001685 -0.002895 0.007571 0.000000 -0.003207 0.000000
# 4 0.000000 0.000000 0.000000 0.025685 0.000000 -0.005502
# 5 -0.007584 -0.003331 -0.003207 0.000000 0.048631 0.000000
# 6 0.000000 0.000000 0.000000 -0.005502 0.000000 0.036397
#
#
# Mechanical properties :
#
#
# Convention : Reuss Voigt Hill
#
# Bulk Modulus (GPa) = 22.84993 48.73004 35.78998
# Shear Modulus (GPa) = 28.12110 36.13061 32.12586
#
# Velocity S-wave (km/s) = 3.52866 3.99973 3.77156
# Velocity P-wave (km/s) = 5.16908 6.55035 5.90027
#
# Compressibility (1/GPa) = 0.04376381
#
# Stress axis : x y z
#
# Youngs Moduli (GPa) = 32.03963 106.94566 132.08532
#
# Poissons Ratio (x) = -0.25625 0.22260
# Poissons Ratio (y) = -0.07677 0.38243
# Poissons Ratio (z) = 0.05400 0.30964
#
# Static dielectric constant tensor:
#      x y z
#    x 1.958080 0.000000 -0.160400 
#    y 0.000000 2.039150 0.000000 
#    z -0.160400 0.000000 2.187810 
# 
# From -- ./inp_files/242782.got.cif
#   From: 2010.05.17/outbox.cif.g08.bks.cpg/sg15_122_cif.got.tgz:242782.got - 2010.06.03 18:47:42.
