data_PCOD9263448
_publ_section_title
;
Structure prediction by ZEFSAII (Michael W. Deem and Ramdas Pophale) SiO2 
 PCOD9263448
Probable space group: C 2/C
;
_chemical_formula_sum "Si O2"
_cell_formula_units_Z 56
_cell_length_a 11.906837
_cell_length_b 9.661980
_cell_length_c 23.625548
_cell_angle_alpha 90.000000
_cell_angle_beta 100.229491
_cell_angle_gamma 90.000000
_cell_volume 2674.764656
_symmetry_space_group_name_H-M "C 2/C"
_symmetry_group_IT_number 15
_symmetry_cell_setting 'monoclinic'
loop_
_space_group_symop_operation_xyz
x,y,z
-x,y,1/2-z
-x,-y,-z
x,-y,1/2+z
1/2+x,1/2+y,z
1/2-x,1/2+y,1/2-z
1/2-x,1/2-y,-z
1/2+x,1/2-y,1/2+z
loop_
_atom_site_type_symbol
_atom_site_label
_atom_site_fract_x
_atom_site_fract_y
_atom_site_fract_z
Si Si1 0.984514 0.727591 0.371688
Si Si2 0.783062 0.834929 0.061452
Si Si3 0.180078 0.004233 0.643117
Si Si4 0.433909 0.230643 0.891054
Si Si5 0.270735 0.548349 0.977876
Si Si6 0.579512 0.189134 0.009944
Si Si7 0.945436 0.534860 0.686643
O O1 0.960411 0.658236 0.430844
O O2 0.112250 0.780370 0.393281
O O3 0.994135 0.610708 0.324974
O O4 0.896523 0.856555 0.355233
O O5 0.678399 0.847966 0.095409
O O6 0.826201 0.976990 0.036820
O O7 0.750000 0.750000 0.000000
O O8 0.106523 0.865924 0.647740
O O9 0.307705 0.019718 0.679633
O O10 0.209002 0.975364 0.579277
O O11 0.495716 0.257804 0.957040
O O12 0.518308 0.140954 0.859738
O O13 0.323510 0.696842 0.970986
O O14 0.139536 0.560793 0.984665
O O15 0.000000 0.583329 0.750000
#
# Coordination Sequence:
#
# PCOD9263448 Si02
#       7
#     8   8   8   8   8   8   8
#     4  11  23  43  67  98 135 176 214 270 330 399
#     4  12  20  33  63 100 139 174 203 255 327 403
#     4  11  23  44  68  96 132 171 218 273 330 390
#     4  12  23  40  68 100 137 172 216 268 329 397
#     4  10  19  34  56  99 139 167 207 252 324 406
#     4  10  20  33  63  98 133 171 206 257 327 404
#     4  12  28  49  68  91 126 174 232 286 329 380
#
# _framework density 20.936422
#
# number of rings (size 3 to 8) (size 9 to 14) (size 15 to 20)
#    0.000    0.857    5.714    1.714    0.000    4.571 
#    2.571    0.714    0.000    0.000    0.000    0.000 
#    0.000    0.000    0.000    0.000    0.000    0.000 
#
# Total GULP energy -156054.232391 kJ/mol
# GULP energy per Si atom -5573.365443 kJ/mol
# Density = 2.088877 g / cm^3
# Si number density = 20.936422 Si / 1000 Ang^3
#
#
#
# Elastic Constant Matrix: (Units=GPa)
#
#
# Indices 1 2 3 4 5 6 
#
# 1 59.5763 4.9141 4.4405 0.0000 9.8548 0.0000
# 2 4.9141 60.8953 -6.8761 0.0000 0.8961 0.0000
# 3 4.4405 -6.8761 51.9604 0.0000 8.9318 0.0000
# 4 0.0000 0.0000 0.0000 14.6849 0.0000 -0.7130
# 5 9.8548 0.8961 8.9318 0.0000 14.4822 0.0000
# 6 0.0000 0.0000 0.0000 -0.7130 0.0000 37.3033
#
#
#
# Elastic Compliance Matrix: (Units=1/GPa)
#
#
# Indices 1 2 3 4 5 6 
#
# 1 0.019034 -0.001290 0.000465 0.000000 -0.013159 0.000000
# 2 -0.001290 0.016851 0.002649 0.000000 -0.001799 0.000000
# 3 0.000465 0.002649 0.021968 0.000000 -0.014029 0.000000
# 4 0.000000 0.000000 0.000000 0.068161 0.000000 0.001303
# 5 -0.013159 -0.001799 -0.014029 0.000000 0.086768 0.000000
# 6 0.000000 0.000000 0.000000 0.001303 0.000000 0.026832
#
#
# Mechanical properties :
#
#
# Convention : Reuss Voigt Hill
#
# Bulk Modulus (GPa) = 16.25982 19.70989 17.98485
# Shear Modulus (GPa) = 19.49578 24.62430 22.06004
#
# Velocity S-wave (km/s) = 3.05485 3.43322 3.24955
# Velocity P-wave (km/s) = 4.49733 5.01504 4.76322
#
# Compressibility (1/GPa) = 0.06150131
#
# Stress axis : x y z
#
# Youngs Moduli (GPa) = 52.53865 59.34243 45.52115
#
# Poissons Ratio (x) = 0.07654 -0.02115
# Poissons Ratio (y) = 0.06777 -0.12061
# Poissons Ratio (z) = -0.02441 -0.15723
#
# Static dielectric constant tensor:
#      x y z
#    x 1.826210 0.000000 -0.012120 
#    y 0.000000 1.910090 0.000000 
#    z -0.012120 0.000000 1.738770 
# 
# From -- ./inp_files/237105.got.cif
#   From: 2010.05.17/outbox.cif.g08.bks.cpg/sg15_119_cif.got.tgz:237105.got - 2010.06.03 18:47:42.
