data_PCOD9263423
_publ_section_title
;
Structure prediction by ZEFSAII (Michael W. Deem and Ramdas Pophale) SiO2 
 PCOD9263423
Probable space group: C 2/C
;
_chemical_formula_sum "Si O2"
_cell_formula_units_Z 56
_cell_length_a 23.319476
_cell_length_b 14.465702
_cell_length_c 14.613925
_cell_angle_alpha 90.000000
_cell_angle_beta 144.613471
_cell_angle_gamma 90.000000
_cell_volume 2854.768348
_symmetry_space_group_name_H-M "C 2/C"
_symmetry_group_IT_number 15
_symmetry_cell_setting 'monoclinic'
loop_
_space_group_symop_operation_xyz
x,y,z
-x,y,1/2-z
-x,-y,-z
x,-y,1/2+z
1/2+x,1/2+y,z
1/2-x,1/2+y,1/2-z
1/2-x,1/2-y,-z
1/2+x,1/2-y,1/2+z
loop_
_atom_site_type_symbol
_atom_site_label
_atom_site_fract_x
_atom_site_fract_y
_atom_site_fract_z
Si Si1 0.765033 0.307249 0.739846
Si Si2 0.116649 0.077017 0.144054
Si Si3 0.385368 0.019035 0.328984
Si Si4 0.617168 0.697102 0.876240
Si Si5 0.249368 0.403417 0.219614
Si Si6 0.113551 0.400898 0.862973
Si Si7 0.545447 0.528237 0.709373
O O1 0.698159 0.344668 0.736594
O O2 0.847914 0.384496 0.826982
O O3 0.687059 0.308870 0.554373
O O4 0.791411 0.199926 0.784966
O O5 0.166520 0.979702 0.181082
O O6 0.028724 0.082480 0.955846
O O7 0.078439 0.061262 0.196522
O O8 0.370995 0.031310 0.201616
O O9 0.500000 0.000000 0.500000
O O10 0.318932 0.937573 0.285269
O O11 0.500000 0.696478 0.750000
O O12 0.632832 0.796189 0.850969
O O13 0.631667 0.603563 0.838618
O O14 0.180536 0.410788 0.039820
O O15 0.000000 0.406652 0.750000
O O16 0.500000 0.506608 0.750000
#
# Coordination Sequence:
#
# PCOD9263423 Si02
#       7
#     8   8   8   8   8   8   8
#     4  10  21  39  58  89 123 151 199 250 307 352
#     4  10  21  34  57  89 114 161 183 237 307 355
#     4  11  23  38  60  91 122 164 199 247 302 362
#     4   9  17  32  58  88 117 143 184 259 312 345
#     4  10  23  39  59  91 120 152 201 249 299 357
#     4  10  20  35  59  89 118 150 194 247 309 341
#     4  10  19  34  56  86 123 142 188 242 301 353
#
# _framework density 19.616302999999998
#
# number of rings (size 3 to 8) (size 9 to 14) (size 15 to 20)
#    0.000    2.000    4.286    0.000    4.000    1.143 
#    2.571    0.000    0.000    8.571    0.000    0.000 
#    0.000    0.000    0.000    0.000    0.000    0.000 
#
# Total GULP energy -156201.292419 kJ/mol
# GULP energy per Si atom -5578.617586 kJ/mol
# Density = 1.957166 g / cm^3
# Si number density = 19.616303 Si / 1000 Ang^3
#
#
#
# Elastic Constant Matrix: (Units=GPa)
#
#
# Indices 1 2 3 4 5 6 
#
# 1 110.8540 20.2938 17.8365 0.0000 -13.2098 0.0000
# 2 20.2938 79.0868 23.0514 0.0000 -5.9835 0.0000
# 3 17.8365 23.0514 43.5685 0.0000 -0.0099 0.0000
# 4 0.0000 0.0000 0.0000 22.2239 0.0000 -3.8788
# 5 -13.2098 -5.9835 -0.0099 0.0000 30.6122 0.0000
# 6 0.0000 0.0000 0.0000 -3.8788 0.0000 28.5823
#
#
#
# Elastic Compliance Matrix: (Units=1/GPa)
#
#
# Indices 1 2 3 4 5 6 
#
# 1 0.010329 -0.001301 -0.003539 0.000000 0.004202 0.000000
# 2 -0.001301 0.015379 -0.007604 0.000000 0.002442 0.000000
# 3 -0.003539 -0.007604 0.028424 0.000000 -0.003004 0.000000
# 4 0.000000 0.000000 0.000000 0.046088 0.000000 0.006254
# 5 0.004202 0.002442 -0.003004 0.000000 0.034956 0.000000
# 6 0.000000 0.000000 0.000000 0.006254 0.000000 0.035835
#
#
# Mechanical properties :
#
#
# Convention : Reuss Voigt Hill
#
# Bulk Modulus (GPa) = 34.19515 39.54142 36.86829
# Shear Modulus (GPa) = 24.31338 27.77221 26.04279
#
# Velocity S-wave (km/s) = 3.52440 3.76676 3.64759
# Velocity P-wave (km/s) = 5.83367 6.25453 6.04776
#
# Compressibility (1/GPa) = 0.02924391
#
# Stress axis : x y z
#
# Youngs Moduli (GPa) = 96.81253 65.02299 35.18193
#
# Poissons Ratio (x) = 0.08459 0.12452
# Poissons Ratio (y) = 0.12595 0.26751
# Poissons Ratio (z) = 0.34266 0.49442
#
# Static dielectric constant tensor:
#      x y z
#    x 1.775770 0.000000 0.029740 
#    y 0.000000 1.712350 0.000000 
#    z 0.029740 0.000000 1.690910 
# 
# From -- ./inp_files/168488.got.cif
#   From: 2010.05.17/outbox.cif.g08.bks.cpg/sg15_85_cif.got.tgz:168488.got - 2010.06.03 18:47:42.
