data_PCOD9263839
_publ_section_title
;
Structure prediction by ZEFSAII (Michael W. Deem and Ramdas Pophale) SiO2 
 PCOD9263839
Probable space group: C 2/C
;
_chemical_formula_sum "Si O2"
_cell_formula_units_Z 60
_cell_length_a 24.334947
_cell_length_b 18.834924
_cell_length_c 9.348466
_cell_angle_alpha 90.000000
_cell_angle_beta 38.579313
_cell_angle_gamma 90.000000
_cell_volume 2672.015135
_symmetry_space_group_name_H-M "C 2/C"
_symmetry_group_IT_number 15
_symmetry_cell_setting 'monoclinic'
loop_
_space_group_symop_operation_xyz
x,y,z
-x,y,1/2-z
-x,-y,-z
x,-y,1/2+z
1/2+x,1/2+y,z
1/2-x,1/2+y,1/2-z
1/2-x,1/2-y,-z
1/2+x,1/2-y,1/2+z
loop_
_atom_site_type_symbol
_atom_site_label
_atom_site_fract_x
_atom_site_fract_y
_atom_site_fract_z
Si Si1 0.714261 0.123430 0.562149
Si Si2 0.328846 0.515095 0.761816
Si Si3 0.162765 0.406377 0.473432
Si Si4 0.864792 0.918377 0.455995
Si Si5 0.269001 0.194105 0.254114
Si Si6 0.889925 0.723286 0.258839
Si Si7 0.053844 0.463510 0.262072
Si Si8 0.000000 0.196091 0.750000
O O1 0.787752 0.059467 0.406784
O O2 0.693654 0.135747 0.770104
O O3 0.729182 0.189056 0.422274
O O4 0.626504 0.086682 0.680954
O O5 0.248328 0.564450 0.878967
O O6 0.374537 0.488964 0.526365
O O7 0.388414 0.559934 0.747963
O O8 0.108178 0.356308 0.688450
O O9 0.103172 0.475111 0.569432
O O10 0.764616 0.887760 0.649424
O O11 0.918812 0.857916 0.425616
O O12 0.191801 0.239514 0.488507
O O13 0.356793 0.218439 0.161505
O O14 0.976047 0.760262 0.154425
O O15 0.000000 0.422835 0.250000
O O16 0.000000 0.500000 0.500000
#
# Coordination Sequence:
#
# PCOD9263839 Si02
#       8
#     8   8   8   8   8   8   8   4
#     4  10  21  35  56  88 115 146 199 248 305 355
#     4  10  19  34  61  90 115 147 191 256 306 355
#     4  11  21  34  59  86 111 152 202 248 295 357
#     4  10  19  37  60  89 120 148 195 249 309 358
#     4   9  20  38  61  83 110 154 203 251 284 352
#     4  10  21  38  60  83 111 157 205 242 293 350
#     4  11  23  35  50  83 124 157 183 236 310 376
#     4  10  24  38  58  84 120 162 202 238 290 376
#
# _framework density 22.454962999999999
#
# number of rings (size 3 to 8) (size 9 to 14) (size 15 to 20)
#    0.000    1.867    4.000    0.000    2.800    1.067 
#    0.000    0.000    0.000    1.600    0.000    0.000 
#    0.000    0.000    0.000    0.000    0.000    0.000 
#
# Total GULP energy -167040.857200 kJ/mol
# GULP energy per Si atom -5568.028573 kJ/mol
# Density = 2.240385 g / cm^3
# Si number density = 22.454963 Si / 1000 Ang^3
#
#
#
# Elastic Constant Matrix: (Units=GPa)
#
#
# Indices 1 2 3 4 5 6 
#
# 1 122.3487 35.1613 22.7275 0.0000 10.6178 0.0000
# 2 35.1613 55.9176 4.2225 0.0000 3.0990 0.0000
# 3 22.7275 4.2225 39.2929 0.0000 13.9239 0.0000
# 4 0.0000 0.0000 0.0000 22.5838 0.0000 -6.0621
# 5 10.6178 3.0990 13.9239 0.0000 28.4736 0.0000
# 6 0.0000 0.0000 0.0000 -6.0621 0.0000 20.8502
#
#
#
# Elastic Compliance Matrix: (Units=1/GPa)
#
#
# Indices 1 2 3 4 5 6 
#
# 1 0.011137 -0.006548 -0.005466 0.000000 -0.000767 0.000000
# 2 -0.006548 0.021915 0.001708 0.000000 -0.000779 0.000000
# 3 -0.005466 0.001708 0.033593 0.000000 -0.014575 0.000000
# 4 0.000000 0.000000 0.000000 0.048028 0.000000 0.013964
# 5 -0.000767 -0.000779 -0.014575 0.000000 0.042618 0.000000
# 6 0.000000 0.000000 0.000000 0.013964 0.000000 0.052021
#
#
# Mechanical properties :
#
#
# Convention : Reuss Voigt Hill
#
# Bulk Modulus (GPa) = 21.72338 37.97574 29.84956
# Shear Modulus (GPa) = 20.38587 24.74472 22.56529
#
# Velocity S-wave (km/s) = 3.01633 3.32320 3.17348
# Velocity P-wave (km/s) = 4.67185 5.62792 5.17203
#
# Compressibility (1/GPa) = 0.04603336
#
# Stress axis : x y z
#
# Youngs Moduli (GPa) = 89.78987 45.63103 29.76821
#
# Poissons Ratio (x) = 0.29878 0.16272
# Poissons Ratio (y) = 0.58792 -0.05085
# Poissons Ratio (z) = 0.49082 -0.07795
#
# Static dielectric constant tensor:
#      x y z
#    x 1.891410 0.000000 -0.020910 
#    y 0.000000 1.866860 0.000000 
#    z -0.020910 0.000000 1.901320 
# 
# From -- ./inp_files/63515.got.cif
#   From: 2010.05.17/outbox.cif.g08.bks.cpg/sg15_32_cif.got.tgz:63515.got - 2010.06.03 18:47:42.
