data_PCOD9263083
_publ_section_title
;
Structure prediction by ZEFSAII (Michael W. Deem and Ramdas Pophale) SiO2 
 PCOD9263083
Probable space group: C 2/C
;
_chemical_formula_sum "Si O2"
_cell_formula_units_Z 36
_cell_length_a 7.913495
_cell_length_b 22.892992
_cell_length_c 8.150338
_cell_angle_alpha 90.000000
_cell_angle_beta 109.534996
_cell_angle_gamma 90.000000
_cell_volume 1391.550698
_symmetry_space_group_name_H-M "C 2/C"
_symmetry_group_IT_number 15
_symmetry_cell_setting 'monoclinic'
loop_
_space_group_symop_operation_xyz
x,y,z
-x,y,1/2-z
-x,-y,-z
x,-y,1/2+z
1/2+x,1/2+y,z
1/2-x,1/2+y,1/2-z
1/2-x,1/2-y,-z
1/2+x,1/2-y,1/2+z
loop_
_atom_site_type_symbol
_atom_site_label
_atom_site_fract_x
_atom_site_fract_y
_atom_site_fract_z
Si Si1 0.212401 0.976444 0.867630
Si Si2 0.123751 0.324133 0.140584
Si Si3 0.798727 0.410641 0.579348
Si Si4 0.386283 0.372630 0.460131
Si Si5 0.500000 0.711939 0.250000
O O1 0.319921 0.943147 0.759958
O O2 0.000000 0.983890 0.750000
O O3 0.205531 0.933705 0.022390
O O4 0.293614 0.038020 0.942885
O O5 0.315251 0.342635 0.274602
O O6 0.000000 0.347452 0.250000
O O7 0.090570 0.255112 0.145999
O O8 0.092033 0.356468 0.960126
O O9 0.596108 0.386045 0.527568
O O10 0.362129 0.327951 0.604985
#
# Coordination Sequence:
#
# PCOD9263083 Si02
#       5
#     8   8   8   8   4
#     4  10  19  33  64  92 118 144 206 257 291 340
#     4  10  24  38  59  87 127 158 197 237 297 357
#     4  11  20  38  62  93 116 157 200 247 300 346
#     4  11  19  41  62  90 116 155 201 252 292 345
#     4  10  22  40  64  84 124 156 206 238 288 352
#
# _framework density 25.870418999999998
#
# number of rings (size 3 to 8) (size 9 to 14) (size 15 to 20)
#    0.667    0.889    3.333    6.667    0.000    0.889 
#    0.000    5.556    0.000    0.000    0.000    0.000 
#    0.000    0.000    0.000    0.000    0.000    0.000 
#
# Total GULP energy -100685.267262 kJ/mol
# GULP energy per Si atom -5593.625959 kJ/mol
# Density = 2.581154 g / cm^3
# Si number density = 25.870419 Si / 1000 Ang^3
#
#
#
# Elastic Constant Matrix: (Units=GPa)
#
#
# Indices 1 2 3 4 5 6 
#
# 1 71.7623 11.3799 3.7911 0.0000 -18.8465 0.0000
# 2 11.3799 134.9118 25.7739 0.0000 -6.4543 0.0000
# 3 3.7911 25.7739 91.6233 0.0000 -11.0751 0.0000
# 4 0.0000 0.0000 0.0000 35.6559 0.0000 -11.9158
# 5 -18.8465 -6.4543 -11.0751 0.0000 43.3335 0.0000
# 6 0.0000 0.0000 0.0000 -11.9158 0.0000 38.0141
#
#
#
# Elastic Compliance Matrix: (Units=1/GPa)
#
#
# Indices 1 2 3 4 5 6 
#
# 1 0.015888 -0.001104 0.000483 0.000000 0.006869 0.000000
# 2 -0.001104 0.007926 -0.002166 0.000000 0.000147 0.000000
# 3 0.000483 -0.002166 0.011856 0.000000 0.002918 0.000000
# 4 0.000000 0.000000 0.000000 0.031328 0.000000 0.009820
# 5 0.006869 0.000147 0.002918 0.000000 0.026832 0.000000
# 6 0.000000 0.000000 0.000000 0.009820 0.000000 0.029384
#
#
# Mechanical properties :
#
#
# Convention : Reuss Voigt Hill
#
# Bulk Modulus (GPa) = 33.22528 42.24302 37.73415
# Shear Modulus (GPa) = 36.01769 40.55753 38.28761
#
# Velocity S-wave (km/s) = 3.73531 3.96374 3.85122
# Velocity P-wave (km/s) = 5.61019 6.10839 5.86458
#
# Compressibility (1/GPa) = 0.03009756
#
# Stress axis : x y z
#
# Youngs Moduli (GPa) = 62.93879 126.16325 84.34318
#
# Poissons Ratio (x) = 0.13927 -0.04078
# Poissons Ratio (y) = 0.06948 0.18271
# Poissons Ratio (z) = -0.03043 0.27330
#
# Static dielectric constant tensor:
#      x y z
#    x 2.180540 0.000000 0.074480 
#    y 0.000000 1.958520 0.000000 
#    z 0.074480 0.000000 2.138400 
# 
# From -- ./inp_files/23337.got.cif
#   From: 2010.05.17/outbox.cif.g08.bks.cpg/sg15_12_cif.got.tgz:23337.got - 2010.06.03 18:47:42.
