data_PCOD9263134
_publ_section_title
;
Structure prediction by ZEFSAII (Michael W. Deem and Ramdas Pophale) SiO2 
 PCOD9263134
Probable space group: C 2/C
;
_chemical_formula_sum "Si O2"
_cell_formula_units_Z 52
_cell_length_a 17.606071
_cell_length_b 21.306820
_cell_length_c 14.332529
_cell_angle_alpha 90.000000
_cell_angle_beta 32.227490
_cell_angle_gamma 90.000000
_cell_volume 2867.219962
_symmetry_space_group_name_H-M "C 2/C"
_symmetry_group_IT_number 15
_symmetry_cell_setting 'monoclinic'
loop_
_space_group_symop_operation_xyz
x,y,z
-x,y,1/2-z
-x,-y,-z
x,-y,1/2+z
1/2+x,1/2+y,z
1/2-x,1/2+y,1/2-z
1/2-x,1/2-y,-z
1/2+x,1/2-y,1/2+z
loop_
_atom_site_type_symbol
_atom_site_label
_atom_site_fract_x
_atom_site_fract_y
_atom_site_fract_z
Si Si1 0.500000 0.044690 0.250000
Si Si2 0.623650 0.551135 0.367245
Si Si3 0.000000 0.340472 0.250000
Si Si4 0.582224 0.313535 0.861032
Si Si5 0.572684 0.062188 0.378334
Si Si6 0.920747 0.695661 0.025399
Si Si7 0.500000 0.374791 0.750000
Si Si8 0.759422 0.443432 0.520179
O O1 0.508992 0.075976 0.342089
O O2 0.358961 0.001529 0.394670
O O3 0.500000 0.500000 0.500000
O O4 0.563115 0.621552 0.437479
O O5 0.758289 0.546434 0.296691
O O6 0.696205 0.547944 0.189147
O O7 0.005027 0.302881 0.339627
O O8 0.864903 0.384556 0.405728
O O9 0.750846 0.297562 0.688941
O O10 0.488382 0.257422 0.000996
O O11 0.539616 0.333659 0.799088
O O12 0.554227 0.126663 0.456409
O O13 0.500000 0.000000 0.500000
O O14 0.629354 0.421862 0.591288
#
# Coordination Sequence:
#
# PCOD9263134 Si02
#       8
#     4   8   4   8   8   8   4   8
#     4  11  22  36  63  90 119 161 200 246 312 345
#     4  10  21  40  57  87 123 153 199 246 301 357
#     4  11  17  36  58  82 126 157 191 238 287 371
#     4  10  23  37  53  88 117 165 196 240 304 351
#     4  11  21  40  61  89 119 155 204 251 295 358
#     4  11  23  38  57  85 126 156 208 241 294 367
#     4  10  19  34  51  86 123 150 201 226 295 372
#     4  10  20  35  54  89 120 157 193 239 300 353
#
# _framework density 18.136035
#
# number of rings (size 3 to 8) (size 9 to 14) (size 15 to 20)
#    0.000    1.538    6.154    1.385    6.462    2.462 
#    0.000    0.000    0.000    3.692    0.000    0.000 
#    0.000    0.000    0.000    0.000    0.000    0.000 
#
# Total GULP energy -144807.187560 kJ/mol
# GULP energy per Si atom -5569.507214 kJ/mol
# Density = 1.809476 g / cm^3
# Si number density = 18.136035 Si / 1000 Ang^3
#
#
#
# Elastic Constant Matrix: (Units=GPa)
#
#
# Indices 1 2 3 4 5 6 
#
# 1 100.5821 48.6292 29.9488 0.0059 -11.8770 -0.0024
# 2 48.6292 112.9213 52.7767 0.0045 -25.0639 -0.0024
# 3 29.9488 52.7767 80.1358 0.0088 -18.2917 -0.0053
# 4 0.0059 0.0045 0.0088 23.7558 -0.0040 -9.7892
# 5 -11.8770 -25.0639 -18.2917 -0.0040 22.5013 0.0018
# 6 -0.0024 -0.0024 -0.0053 -9.7892 0.0018 19.0038
#
#
#
# Elastic Compliance Matrix: (Units=1/GPa)
#
#
# Indices 1 2 3 4 5 6 
#
# 1 0.012707 -0.004669 -0.001633 -0.000002 0.000179 0.000000
# 2 -0.004669 0.016226 -0.006604 0.000002 0.010241 0.000000
# 3 -0.001633 -0.006604 0.019108 -0.000003 0.007316 0.000002
# 4 -0.000002 0.000002 -0.000003 0.053438 0.000006 0.027527
# 5 0.000179 0.010241 0.007316 0.000006 0.061891 0.000001
# 6 0.000000 0.000000 0.000002 0.027527 0.000001 0.066801
#
#
# Mechanical properties :
#
#
# Convention : Reuss Voigt Hill
#
# Bulk Modulus (GPa) = 44.98598 61.81651 53.40125
# Shear Modulus (GPa) = 18.98311 23.87115 21.42713
#
# Velocity S-wave (km/s) = 3.23879 3.63192 3.44098
# Velocity P-wave (km/s) = 6.23257 7.19352 6.73022
#
# Compressibility (1/GPa) = 0.02222915
#
# Stress axis : x y z
#
# Youngs Moduli (GPa) = 78.69700 61.62929 52.33393
#
# Poissons Ratio (x) = 0.28777 0.08546
# Poissons Ratio (y) = 0.36746 0.34560
# Poissons Ratio (z) = 0.12851 0.40698
#
# Static dielectric constant tensor:
#      x y z
#    x 1.788540 0.000000 -0.098360 
#    y 0.000000 1.656670 -0.000010 
#    z -0.098360 -0.000010 1.789440 
# 
# From -- ./inp_files/50606.got.cif
#   From: 2010.05.17/outbox.cif.g08.bks.cpg/sg15_26_cif.got.tgz:50606.got - 2010.06.03 18:47:42.
