data_PCOD9263464
_publ_section_title
;
Structure prediction by ZEFSAII (Michael W. Deem and Ramdas Pophale) SiO2 
 PCOD9263464
Probable space group: C 2/C
;
_chemical_formula_sum "Si O2"
_cell_formula_units_Z 56
_cell_length_a 15.843180
_cell_length_b 7.661535
_cell_length_c 21.150191
_cell_angle_alpha 90.000000
_cell_angle_beta 124.613946
_cell_angle_gamma 90.000000
_cell_volume 2112.862756
_symmetry_space_group_name_H-M "C 2/C"
_symmetry_group_IT_number 15
_symmetry_cell_setting 'monoclinic'
loop_
_space_group_symop_operation_xyz
x,y,z
-x,y,1/2-z
-x,-y,-z
x,-y,1/2+z
1/2+x,1/2+y,z
1/2-x,1/2+y,1/2-z
1/2-x,1/2-y,-z
1/2+x,1/2-y,1/2+z
loop_
_atom_site_type_symbol
_atom_site_label
_atom_site_fract_x
_atom_site_fract_y
_atom_site_fract_z
Si Si1 0.490150 0.290907 0.010140
Si Si2 0.106534 0.832669 0.713499
Si Si3 0.082743 0.666452 0.920123
Si Si4 0.804841 0.264641 0.867799
Si Si5 0.730873 0.511937 0.450641
Si Si6 0.697028 0.387291 0.617964
Si Si7 0.608617 0.674963 0.803226
O O1 0.527463 0.182200 0.964777
O O2 0.367565 0.277825 0.961232
O O3 0.500000 0.500000 0.000000
O O4 0.574214 0.232123 0.097553
O O5 0.215274 0.750333 0.779085
O O6 0.127637 0.896492 0.651501
O O7 0.009766 0.700375 0.669153
O O8 0.093728 0.999009 0.754199
O O9 0.154195 0.836484 0.941945
O O10 0.167717 0.512664 0.961541
O O11 0.776348 0.420360 0.902357
O O12 0.790497 0.083811 0.899197
O O13 0.648926 0.369190 0.391256
O O14 0.801037 0.297436 0.681946
O O15 0.500000 0.766794 0.750000
#
# Coordination Sequence:
#
# PCOD9263464 Si02
#       7
#     8   8   8   8   8   8   8
#     4   8  16  32  54  75  99 140 178 215 261 321
#     4  10  19  34  57  81 105 143 186 219 268 327
#     4   9  16  31  55  78  98 136 189 219 250 318
#     4   9  18  33  53  80 102 139 185 222 259 322
#     4   9  18  33  55  77 102 143 186 218 260 324
#     4  10  20  35  54  80 111 142 176 225 278 324
#     4  11  21  36  54  83 115 145 177 228 284 323
#
# _framework density 26.504324
#
# number of rings (size 3 to 8) (size 9 to 14) (size 15 to 20)
#    0.000    2.571    1.429    0.857    0.000    0.000 
#    2.571   12.857    0.000   13.714    0.000    0.000 
#    0.000    0.000    0.000    0.000    0.000    0.000 
#
# Total GULP energy -156093.022835 kJ/mol
# GULP energy per Si atom -5574.750816 kJ/mol
# Density = 2.644400 g / cm^3
# Si number density = 26.504324 Si / 1000 Ang^3
#
#
#
# Elastic Constant Matrix: (Units=GPa)
#
#
# Indices 1 2 3 4 5 6 
#
# 1 49.5793 13.4627 47.6624 0.0000 33.3785 0.0000
# 2 13.4627 69.6853 27.6869 0.0000 7.9259 0.0000
# 3 47.6624 27.6869 189.2808 0.0000 67.8988 0.0000
# 4 0.0000 0.0000 0.0000 32.2507 0.0000 3.4689
# 5 33.3785 7.9259 67.8988 0.0000 64.0274 0.0000
# 6 0.0000 0.0000 0.0000 3.4689 0.0000 16.7965
#
#
#
# Elastic Compliance Matrix: (Units=1/GPa)
#
#
# Indices 1 2 3 4 5 6 
#
# 1 0.033245 -0.003710 -0.002867 0.000000 -0.013832 0.000000
# 2 -0.003710 0.015673 -0.002189 0.000000 0.002315 0.000000
# 3 -0.002867 -0.002189 0.009187 0.000000 -0.007976 0.000000
# 4 0.000000 0.000000 0.000000 0.031711 0.000000 -0.006549
# 5 -0.013832 0.002315 -0.007976 0.000000 0.031001 0.000000
# 6 0.000000 0.000000 0.000000 -0.006549 0.000000 0.060889
#
#
# Mechanical properties :
#
#
# Convention : Reuss Voigt Hill
#
# Bulk Modulus (GPa) = 24.64713 54.01881 39.33297
# Shear Modulus (GPa) = 23.50029 37.26384 30.38207
#
# Velocity S-wave (km/s) = 2.98091 3.75367 3.38939
# Velocity P-wave (km/s) = 4.60079 6.26196 5.49451
#
# Compressibility (1/GPa) = 0.04057267
#
# Stress axis : x y z
#
# Youngs Moduli (GPa) = 30.07940 63.80247 108.85442
#
# Poissons Ratio (x) = 0.23674 0.31209
# Poissons Ratio (y) = 0.11161 0.23826
# Poissons Ratio (z) = 0.08624 0.13965
#
# Static dielectric constant tensor:
#      x y z
#    x 2.132580 0.000000 0.036460 
#    y 0.000000 2.132950 0.000000 
#    z 0.036460 0.000000 2.215830 
# 
# From -- ./inp_files/276614.got.cif
#   From: 2010.05.17/outbox.cif.g08.bks.cpg/sg15_139_cif.got.tgz:276614.got - 2010.06.03 18:47:42.
