data_PCOD9263171
_publ_section_title
;
Structure prediction by ZEFSAII (Michael W. Deem and Ramdas Pophale) SiO2 
 PCOD9263171
Probable space group: C 2/C
;
_chemical_formula_sum "Si O2"
_cell_formula_units_Z 48
_cell_length_a 7.452315
_cell_length_b 12.018486
_cell_length_c 26.245662
_cell_angle_alpha 90.000000
_cell_angle_beta 108.343918
_cell_angle_gamma 90.000000
_cell_volume 2231.254676
_symmetry_space_group_name_H-M "C 2/C"
_symmetry_group_IT_number 15
_symmetry_cell_setting 'monoclinic'
loop_
_space_group_symop_operation_xyz
x,y,z
-x,y,1/2-z
-x,-y,-z
x,-y,1/2+z
1/2+x,1/2+y,z
1/2-x,1/2+y,1/2-z
1/2-x,1/2-y,-z
1/2+x,1/2-y,1/2+z
loop_
_atom_site_type_symbol
_atom_site_label
_atom_site_fract_x
_atom_site_fract_y
_atom_site_fract_z
Si Si1 0.889875 0.503187 0.120569
Si Si2 0.199975 0.597326 0.787237
Si Si3 0.826050 0.947026 0.188722
Si Si4 0.070225 0.190545 0.333371
Si Si5 0.368317 0.794146 0.057390
Si Si6 0.734675 0.243425 0.372897
O O1 0.760424 0.466934 0.156980
O O2 0.833220 0.423325 0.068696
O O3 0.871183 0.635401 0.115906
O O4 0.102724 0.464487 0.153043
O O5 0.324812 0.584024 0.748401
O O6 0.153165 0.723115 0.800055
O O7 0.000000 0.547490 0.750000
O O8 0.889152 0.847708 0.156313
O O9 0.909809 0.066866 0.183991
O O10 0.175988 0.220366 0.395952
O O11 0.854135 0.215207 0.331449
O O12 0.595921 0.776926 0.073380
O O13 0.250000 0.750000 0.000000
#
# Coordination Sequence:
#
# PCOD9263171 Si02
#       6
#     8   8   8   8   8   8
#     4   9  18  34  53  74 109 133 171 221 255 307
#     4   9  16  32  52  70 103 145 165 204 263 302
#     4  10  19  34  53  73 107 141 169 212 260 307
#     4   9  19  34  54  75 102 136 176 211 251 314
#     4   8  17  36  58  75 101 140 173 214 272 307
#     4   9  19  35  52  77 107 135 172 219 257 308
#
# _framework density 21.512559
#
# number of rings (size 3 to 8) (size 9 to 14) (size 15 to 20)
#    1.000    2.000    3.333    0.000    2.333    0.667 
#    6.000    3.333    0.000    2.000    0.000    0.000 
#    0.000    0.000    0.000    0.000    0.000    0.000 
#
# Total GULP energy -133729.923571 kJ/mol
# GULP energy per Si atom -5572.080149 kJ/mol
# Density = 2.146360 g / cm^3
# Si number density = 21.512559 Si / 1000 Ang^3
#
#
#
# Elastic Constant Matrix: (Units=GPa)
#
#
# Indices 1 2 3 4 5 6 
#
# 1 45.6074 -3.2967 -10.5090 0.0000 -9.8031 0.0000
# 2 -3.2967 133.1499 15.8570 0.0000 0.9035 0.0000
# 3 -10.5090 15.8570 83.3333 0.0000 7.4101 0.0000
# 4 0.0000 0.0000 0.0000 14.8655 0.0000 -6.1597
# 5 -9.8031 0.9035 7.4101 0.0000 13.8851 0.0000
# 6 0.0000 0.0000 0.0000 -6.1597 0.0000 37.6239
#
#
#
# Elastic Compliance Matrix: (Units=1/GPa)
#
#
# Indices 1 2 3 4 5 6 
#
# 1 0.026100 0.000328 0.001672 0.000000 0.017513 0.000000
# 2 0.000328 0.007690 -0.001468 0.000000 0.000515 0.000000
# 3 0.001672 -0.001468 0.012993 0.000000 -0.005658 0.000000
# 4 0.000000 0.000000 0.000000 0.072165 0.000000 0.011815
# 5 0.017513 0.000515 -0.005658 0.000000 0.087371 0.000000
# 6 0.000000 0.000000 0.000000 0.011815 0.000000 0.028513
#
#
# Mechanical properties :
#
#
# Convention : Reuss Voigt Hill
#
# Bulk Modulus (GPa) = 20.89990 29.57702 25.23846
# Shear Modulus (GPa) = 20.02273 30.61085 25.31679
#
# Velocity S-wave (km/s) = 3.05412 3.77627 3.43423
# Velocity P-wave (km/s) = 4.70884 5.72644 5.24239
#
# Compressibility (1/GPa) = 0.04784712
#
# Stress axis : x y z
#
# Youngs Moduli (GPa) = 38.31484 130.04330 76.96317
#
# Poissons Ratio (x) = -0.04269 -0.12865
# Poissons Ratio (y) = -0.01258 0.11295
# Poissons Ratio (z) = -0.06405 0.19085
#
# Static dielectric constant tensor:
#      x y z
#    x 1.955540 0.000000 0.049480 
#    y 0.000000 1.793890 0.000000 
#    z 0.049480 0.000000 1.781110 
# 
# From -- ./inp_files/306936.got.cif
#   From: 2010.05.17/outbox.cif.g08.bks.cpg/sg15_154_cif.got.tgz:306936.got - 2010.06.03 18:47:42.
