data_PCOD9263048
_publ_section_title
;
Structure prediction by ZEFSAII (Michael W. Deem and Ramdas Pophale) SiO2 
 PCOD9263048
Probable space group: C 2/C
;
_chemical_formula_sum "Si O2"
_cell_formula_units_Z 60
_cell_length_a 18.153553
_cell_length_b 18.648467
_cell_length_c 17.349293
_cell_angle_alpha 90.000000
_cell_angle_beta 31.283091
_cell_angle_gamma 90.000000
_cell_volume 3049.841115
_symmetry_space_group_name_H-M "C 2/C"
_symmetry_group_IT_number 15
_symmetry_cell_setting 'monoclinic'
loop_
_space_group_symop_operation_xyz
x,y,z
-x,y,1/2-z
-x,-y,-z
x,-y,1/2+z
1/2+x,1/2+y,z
1/2-x,1/2+y,1/2-z
1/2-x,1/2-y,-z
1/2+x,1/2-y,1/2+z
loop_
_atom_site_type_symbol
_atom_site_label
_atom_site_fract_x
_atom_site_fract_y
_atom_site_fract_z
Si Si1 0.000000 0.825274 0.250000
Si Si2 0.973537 0.295188 0.645185
Si Si3 0.272685 0.749443 0.345539
Si Si4 0.789767 0.140588 0.186570
Si Si5 0.123879 0.534941 0.438609
Si Si6 0.909504 0.826505 0.100348
Si Si7 0.755522 0.391573 0.107652
Si Si8 0.547489 0.842184 0.126048
O O1 0.991552 0.768897 0.327704
O O2 0.862576 0.872796 0.351358
O O3 0.095190 0.353411 0.543884
O O4 0.815827 0.329843 0.785927
O O5 0.972040 0.252572 0.565819
O O6 0.293281 0.699507 0.251866
O O7 0.170426 0.814245 0.408152
O O8 0.423444 0.783607 0.227932
O O9 0.194339 0.701868 0.480649
O O10 0.721656 0.072619 0.287863
O O11 0.950886 0.125535 0.020305
O O12 0.210891 0.474546 0.407169
O O13 0.058133 0.595607 0.552912
O O14 0.000000 0.500000 0.500000
O O15 0.802018 0.854442 0.261842
O O16 0.500000 0.875718 0.250000
#
# Coordination Sequence:
#
# PCOD9263048 Si02
#       8
#     4   8   8   8   8   8   8   8
#     4  10  22  36  60  92 126 158 210 260 322 364
#     4  10  19  36  61  90 120 158 212 259 312 357
#     4  10  19  36  63  91 123 147 201 268 318 357
#     4  10  20  35  61  93 116 157 207 261 300 369
#     4  11  23  42  63  86 123 170 211 248 310 378
#     4  10  19  33  60  93 116 152 209 265 309 350
#     4  11  22  38  59  87 128 167 203 258 311 381
#     4  11  23  40  63  93 122 160 206 259 321 382
#
# _framework density 19.673155000000001
#
# number of rings (size 3 to 8) (size 9 to 14) (size 15 to 20)
#    0.000    1.600    2.667    4.000    1.867    1.600 
#    1.200    4.000    2.933    0.000    0.000    0.000 
#    0.000    0.000    0.000    0.000    0.000    0.000 
#
# Total GULP energy -167186.995324 kJ/mol
# GULP energy per Si atom -5572.899844 kJ/mol
# Density = 1.962838 g / cm^3
# Si number density = 19.673155 Si / 1000 Ang^3
#
#
#
# Elastic Constant Matrix: (Units=GPa)
#
#
# Indices 1 2 3 4 5 6 
#
# 1 27.7082 9.7362 1.4290 0.0017 -0.7689 -0.0007
# 2 9.7362 77.2678 12.8462 0.0009 -7.0523 -0.0004
# 3 1.4290 12.8462 58.8917 0.0010 -8.9935 -0.0009
# 4 0.0017 0.0009 0.0010 17.7392 -0.0005 -5.1028
# 5 -0.7689 -7.0523 -8.9935 -0.0005 23.7634 0.0003
# 6 -0.0007 -0.0004 -0.0009 -5.1028 0.0003 29.3420
#
#
#
# Elastic Compliance Matrix: (Units=1/GPa)
#
#
# Indices 1 2 3 4 5 6 
#
# 1 0.037764 -0.004790 0.000104 -0.000003 -0.000160 0.000000
# 2 -0.004790 0.014249 -0.002515 0.000000 0.003122 0.000000
# 3 0.000104 -0.002515 0.018481 -0.000001 0.006251 0.000000
# 4 -0.000003 0.000000 -0.000001 0.059341 0.000001 0.010320
# 5 -0.000160 0.003122 0.006251 0.000001 0.045369 0.000000
# 6 0.000000 0.000000 0.000000 0.010320 0.000000 0.035876
#
#
# Mechanical properties :
#
#
# Convention : Reuss Voigt Hill
#
# Bulk Modulus (GPa) = 17.82822 23.54337 20.68580
# Shear Modulus (GPa) = 20.47682 23.49267 21.98474
#
# Velocity S-wave (km/s) = 3.22972 3.45939 3.34653
# Velocity P-wave (km/s) = 4.79479 5.28676 5.04677
#
# Compressibility (1/GPa) = 0.05609085
#
# Stress axis : x y z
#
# Youngs Moduli (GPa) = 26.48031 70.18184 54.10934
#
# Poissons Ratio (x) = 0.33620 -0.00563
# Poissons Ratio (y) = 0.12685 0.13609
# Poissons Ratio (z) = -0.00276 0.17652
#
# Static dielectric constant tensor:
#      x y z
#    x 1.792420 0.000000 -0.000250 
#    y 0.000000 1.692390 0.000000 
#    z -0.000250 0.000000 1.754760 
# 
# From -- ./inp_files/211742.got.cif
#   From: 2010.05.17/outbox.cif.g08.bks.cpg/sg15_106_cif.got.tgz:211742.got - 2010.06.03 18:47:42.
