data_PCOD9263260
_publ_section_title
;
Structure prediction by ZEFSAII (Michael W. Deem and Ramdas Pophale) SiO2 
 PCOD9263260
Probable space group: C 2/C
;
_chemical_formula_sum "Si O2"
_cell_formula_units_Z 52
_cell_length_a 14.445015
_cell_length_b 18.448399
_cell_length_c 13.370942
_cell_angle_alpha 90.000000
_cell_angle_beta 127.292349
_cell_angle_gamma 90.000000
_cell_volume 2834.709532
_symmetry_space_group_name_H-M "C 2/C"
_symmetry_group_IT_number 15
_symmetry_cell_setting 'monoclinic'
loop_
_space_group_symop_operation_xyz
x,y,z
-x,y,1/2-z
-x,-y,-z
x,-y,1/2+z
1/2+x,1/2+y,z
1/2-x,1/2+y,1/2-z
1/2-x,1/2-y,-z
1/2+x,1/2-y,1/2+z
loop_
_atom_site_type_symbol
_atom_site_label
_atom_site_fract_x
_atom_site_fract_y
_atom_site_fract_z
Si Si1 0.225082 0.234934 0.867157
Si Si2 0.339916 0.094241 0.990933
Si Si3 0.000000 0.315733 0.750000
Si Si4 0.058606 0.592095 0.651267
Si Si5 0.190093 0.549983 0.923954
Si Si6 0.343809 0.313523 0.568724
Si Si7 0.416136 0.265293 0.832580
O O1 0.246298 0.148843 0.879836
O O2 0.097438 0.265556 0.760693
O O3 0.323121 0.271585 0.861065
O O4 0.250000 0.250000 0.000000
O O5 0.416912 0.072241 0.946538
O O6 0.427232 0.135712 0.124280
O O7 0.283028 0.028417 0.013373
O O8 0.147265 0.549436 0.781352
O O9 0.077507 0.678418 0.682309
O O10 0.927112 0.575619 0.595942
O O11 0.288400 0.609777 0.004942
O O12 0.250000 0.250000 0.500000
O O13 0.378363 0.307706 0.708089
O O14 0.452125 0.293053 0.567924
#
# Coordination Sequence:
#
# PCOD9263260 Si02
#       7
#     8   8   4   8   8   8   8
#     4   9  21  39  59  85 112 148 204 248 284 355
#     4  10  22  37  55  89 116 147 200 245 294 352
#     4  10  20  40  66  80 106 158 196 250 302 328
#     4  10  19  34  54  85 117 148 199 245 283 348
#     4  11  20  34  56  84 123 154 187 243 298 350
#     4  11  19  33  57  87 118 160 187 236 306 350
#     4  10  20  35  55  88 119 143 205 244 283 363
#
# _framework density 18.344031999999999
#
# number of rings (size 3 to 8) (size 9 to 14) (size 15 to 20)
#    0.000    1.846    3.077    2.308    2.154    1.231 
#    2.769    1.538    0.000    3.692    0.000    0.000 
#    0.000    0.000    0.000    0.000    0.000    0.000 
#
# Total GULP energy -144898.862637 kJ/mol
# GULP energy per Si atom -5573.033178 kJ/mol
# Density = 1.830228 g / cm^3
# Si number density = 18.344032 Si / 1000 Ang^3
#
#
#
# Elastic Constant Matrix: (Units=GPa)
#
#
# Indices 1 2 3 4 5 6 
#
# 1 125.1796 40.6022 38.8509 0.0000 5.2184 0.0000
# 2 40.6022 89.9610 35.1940 0.0000 11.5443 0.0000
# 3 38.8509 35.1940 50.3231 0.0000 3.8733 0.0000
# 4 0.0000 0.0000 0.0000 26.0362 0.0000 3.8098
# 5 5.2184 11.5443 3.8733 0.0000 29.6799 0.0000
# 6 0.0000 0.0000 0.0000 3.8098 0.0000 22.8487
#
#
#
# Elastic Compliance Matrix: (Units=1/GPa)
#
#
# Indices 1 2 3 4 5 6 
#
# 1 0.010820 -0.002203 -0.006801 0.000000 -0.000158 0.000000
# 2 -0.002203 0.016400 -0.009402 0.000000 -0.004765 0.000000
# 3 -0.006801 -0.009402 0.031642 0.000000 0.000723 0.000000
# 4 0.000000 0.000000 0.000000 0.039369 0.000000 -0.006564
# 5 -0.000158 -0.004765 0.000723 0.000000 0.035479 0.000000
# 6 0.000000 0.000000 0.000000 -0.006564 0.000000 0.044861
#
#
# Mechanical properties :
#
#
# Convention : Reuss Voigt Hill
#
# Bulk Modulus (GPa) = 45.35041 54.97309 50.16175
# Shear Modulus (GPa) = 22.44849 25.76741 24.10795
#
# Velocity S-wave (km/s) = 3.50201 3.75197 3.62914
# Velocity P-wave (km/s) = 6.41310 6.98588 6.70561
#
# Compressibility (1/GPa) = 0.02205052
#
# Stress axis : x y z
#
# Youngs Moduli (GPa) = 92.41885 60.97692 31.60368
#
# Poissons Ratio (x) = 0.13431 0.21494
# Poissons Ratio (y) = 0.20356 0.29714
# Poissons Ratio (z) = 0.62854 0.57331
#
# Static dielectric constant tensor:
#      x y z
#    x 1.660350 0.000000 0.015940 
#    y 0.000000 1.670620 0.000000 
#    z 0.015940 0.000000 1.701540 
# 
# From -- ./inp_files/154957.got.cif
#   From: 2010.05.17/outbox.cif.g08.bks.cpg/sg15_78_cif.got.tgz:154957.got - 2010.06.03 18:47:42.
