data_PCOD9263335
_publ_section_title
;
Structure prediction by ZEFSAII (Michael W. Deem and Ramdas Pophale) SiO2 
 PCOD9263335
Probable space group: C 2/C
;
_chemical_formula_sum "Si O2"
_cell_formula_units_Z 48
_cell_length_a 11.692636
_cell_length_b 12.187669
_cell_length_c 19.019265
_cell_angle_alpha 90.000000
_cell_angle_beta 58.455554
_cell_angle_gamma 90.000000
_cell_volume 2309.861647
_symmetry_space_group_name_H-M "C 2/C"
_symmetry_group_IT_number 15
_symmetry_cell_setting 'monoclinic'
loop_
_space_group_symop_operation_xyz
x,y,z
-x,y,1/2-z
-x,-y,-z
x,-y,1/2+z
1/2+x,1/2+y,z
1/2-x,1/2+y,1/2-z
1/2-x,1/2-y,-z
1/2+x,1/2-y,1/2+z
loop_
_atom_site_type_symbol
_atom_site_label
_atom_site_fract_x
_atom_site_fract_y
_atom_site_fract_z
Si Si1 0.885960 0.130872 0.016404
Si Si2 0.980450 0.621440 0.841046
Si Si3 0.332005 0.692980 0.891263
Si Si4 0.744912 0.706414 0.736131
Si Si5 0.189901 0.903780 0.402242
Si Si6 0.042980 0.618491 0.316950
O O1 0.855344 0.103257 0.943721
O O2 0.045213 0.137518 0.974775
O O3 0.807983 0.243264 0.054362
O O4 0.820816 0.035046 0.084130
O O5 0.096131 0.703002 0.829044
O O6 0.021366 0.500531 0.856569
O O7 0.000000 0.622309 0.750000
O O8 0.821820 0.637981 0.901231
O O9 0.333155 0.665417 0.808527
O O10 0.444083 0.785101 0.873141
O O11 0.710890 0.631196 0.814417
O O12 0.689292 0.827491 0.771642
O O13 0.000000 0.603716 0.250000
#
# Coordination Sequence:
#
# PCOD9263335 Si02
#       6
#     8   8   8   8   8   8
#     4  10  20  33  58  85 116 145 187 236 297 322
#     4   9  18  33  54  81 110 147 188 231 283 331
#     4  10  19  35  56  88 109 145 193 242 271 337
#     4  10  20  32  57  86 110 146 201 232 272 333
#     4  10  19  34  55  85 115 150 183 233 285 349
#     4   9  16  31  55  79 106 141 190 237 268 317
#
# _framework density 20.780465
#
# number of rings (size 3 to 8) (size 9 to 14) (size 15 to 20)
#    0.000    2.333    3.333    0.000    2.333    0.000 
#    0.000    1.667    0.000   21.000    0.000    0.000 
#    0.000    0.000    0.000    0.000    0.000    0.000 
#
# Total GULP energy -133673.211977 kJ/mol
# GULP energy per Si atom -5569.717166 kJ/mol
# Density = 2.073317 g / cm^3
# Si number density = 20.780465 Si / 1000 Ang^3
#
#
#
# Elastic Constant Matrix: (Units=GPa)
#
#
# Indices 1 2 3 4 5 6 
#
# 1 132.7548 40.9044 29.2321 0.0000 -40.8245 0.0000
# 2 40.9044 28.8243 8.6107 0.0000 -8.1944 0.0000
# 3 29.2321 8.6107 45.0376 0.0000 -13.6967 0.0000
# 4 0.0000 0.0000 0.0000 22.2798 0.0000 -4.5719
# 5 -40.8245 -8.1944 -13.6967 0.0000 44.7183 0.0000
# 6 0.0000 0.0000 0.0000 -4.5719 0.0000 28.5495
#
#
#
# Elastic Compliance Matrix: (Units=1/GPa)
#
#
# Indices 1 2 3 4 5 6 
#
# 1 0.019075 -0.022335 -0.004476 0.000000 0.011950 0.000000
# 2 -0.022335 0.064014 -0.000414 0.000000 -0.008787 0.000000
# 3 -0.004476 -0.000414 0.026380 0.000000 0.003917 0.000000
# 4 0.000000 0.000000 0.000000 0.046409 0.000000 0.007432
# 5 0.011950 -0.008787 0.003917 0.000000 0.032862 0.000000
# 6 0.000000 0.000000 0.000000 0.007432 0.000000 0.036217
#
#
# Mechanical properties :
#
#
# Convention : Reuss Voigt Hill
#
# Bulk Modulus (GPa) = 18.17597 40.45677 29.31637
# Shear Modulus (GPa) = 16.79280 27.63415 22.21347
#
# Velocity S-wave (km/s) = 2.84580 3.65062 3.27304
# Velocity P-wave (km/s) = 4.42310 6.10576 5.33123
#
# Compressibility (1/GPa) = 0.05501769
#
# Stress axis : x y z
#
# Youngs Moduli (GPa) = 52.42430 15.62157 37.90800
#
# Poissons Ratio (x) = 0.34891 0.16969
# Poissons Ratio (y) = 1.17089 0.01571
# Poissons Ratio (z) = 0.23467 0.00647
#
# Static dielectric constant tensor:
#      x y z
#    x 1.799870 0.000000 -0.012550 
#    y 0.000000 1.780920 0.000000 
#    z -0.012550 0.000000 1.843870 
# 
# From -- ./inp_files/236841.got.cif
#   From: 2010.05.17/outbox.cif.g08.bks.cpg/sg15_119_cif.got.tgz:236841.got - 2010.06.03 18:47:42.
