data_PCOD9263401
_publ_section_title
;
Structure prediction by ZEFSAII (Michael W. Deem and Ramdas Pophale) SiO2 
 PCOD9263401
Probable space group: C 2/C
;
_chemical_formula_sum "Si O2"
_cell_formula_units_Z 32
_cell_length_a 19.112174
_cell_length_b 6.957586
_cell_length_c 22.976597
_cell_angle_alpha 90.000000
_cell_angle_beta 155.814297
_cell_angle_gamma 90.000000
_cell_volume 1251.743918
_symmetry_space_group_name_H-M "C 2/C"
_symmetry_group_IT_number 15
_symmetry_cell_setting 'monoclinic'
loop_
_space_group_symop_operation_xyz
x,y,z
-x,y,1/2-z
-x,-y,-z
x,-y,1/2+z
1/2+x,1/2+y,z
1/2-x,1/2+y,1/2-z
1/2-x,1/2-y,-z
1/2+x,1/2-y,1/2+z
loop_
_atom_site_type_symbol
_atom_site_label
_atom_site_fract_x
_atom_site_fract_y
_atom_site_fract_z
Si Si1 0.014559 0.364505 0.176433
Si Si2 0.778288 0.983937 0.471205
Si Si3 0.078680 0.274141 0.096794
Si Si4 0.551745 0.669818 0.615807
O O1 0.183891 0.380636 0.344198
O O2 0.051280 0.390048 0.135931
O O3 0.875836 0.505251 0.100437
O O4 0.918640 0.158190 0.106517
O O5 0.881257 0.164836 0.524643
O O6 0.270258 0.294228 0.218114
O O7 0.061341 0.052496 0.102851
O O8 0.955166 0.296242 0.948211
#
# Coordination Sequence:
#
# PCOD9263401 Si02
#       4
#     8   8   8   8
#     4   9  16  30  54  79 107 141 185 225 271 327
#     4   9  18  32  52  81 112 143 183 236 278 322
#     4  10  19  34  56  84 112 145 187 235 280 334
#     4  10  21  35  54  83 117 147 185 233 287 333
#
# _framework density 25.564333000000001
#
# number of rings (size 3 to 8) (size 9 to 14) (size 15 to 20)
#    0.000    2.500    0.000    4.500    0.000    1.000 
#    0.000    5.000    0.000   13.500    0.000   24.500 
#    0.000   64.000    0.000    0.000    0.000    0.000 
#
# Total GULP energy -89402.682385 kJ/mol
# GULP energy per Si atom -5587.667649 kJ/mol
# Density = 2.550615 g / cm^3
# Si number density = 25.564333 Si / 1000 Ang^3
#
#
#
# Elastic Constant Matrix: (Units=GPa)
#
#
# Indices 1 2 3 4 5 6 
#
# 1 139.4339 47.6575 53.5425 0.0001 -5.0795 0.0000
# 2 47.6575 31.7110 22.7612 0.0001 -19.0731 0.0001
# 3 53.5425 22.7612 121.4599 0.0005 3.3996 0.0001
# 4 0.0001 0.0001 0.0005 21.1944 0.0001 -0.4690
# 5 -5.0795 -19.0731 3.3996 0.0001 40.8764 0.0000
# 6 0.0000 0.0001 0.0001 -0.4690 0.0000 49.4942
#
#
#
# Elastic Compliance Matrix: (Units=1/GPa)
#
#
# Indices 1 2 3 4 5 6 
#
# 1 0.020593 -0.039583 -0.001218 0.000000 -0.015809 0.000000
# 2 -0.039583 0.131891 -0.008872 -0.000001 0.057360 0.000000
# 3 -0.001218 -0.008872 0.010577 0.000000 -0.005171 0.000000
# 4 0.000000 -0.000001 0.000000 0.047192 0.000000 0.000447
# 5 -0.015809 0.057360 -0.005171 0.000000 0.049694 0.000000
# 6 0.000000 0.000000 0.000000 0.000447 0.000000 0.020209
#
#
# Mechanical properties :
#
#
# Convention : Reuss Voigt Hill
#
# Bulk Modulus (GPa) = 15.69476 60.05858 37.87667
# Shear Modulus (GPa) = 12.47692 33.55591 23.01642
#
# Velocity S-wave (km/s) = 2.21160 3.62692 3.00381
# Velocity P-wave (km/s) = 3.56009 6.40964 5.18448
#
# Compressibility (1/GPa) = 0.06371553
#
# Stress axis : x y z
#
# Youngs Moduli (GPa) = 48.56107 7.58201 94.54253
#
# Poissons Ratio (x) = 0.30012 0.11511
# Poissons Ratio (y) = 1.92219 0.83881
# Poissons Ratio (z) = 0.05913 0.06727
#
# Static dielectric constant tensor:
#      x y z
#    x 2.074740 0.000000 0.015420 
#    y 0.000000 2.048640 0.000000 
#    z 0.015420 0.000000 1.886870 
# 
# From -- ./inp_files/64473.got.cif
#   From: 2010.05.17/outbox.cif.g08.bks.cpg/sg15_33_cif.got.tgz:64473.got - 2010.06.03 18:47:42.
