data_PCOD9263167
_publ_section_title
;
Structure prediction by ZEFSAII (Michael W. Deem and Ramdas Pophale) SiO2 
 PCOD9263167
Probable space group: C 2/C
;
_chemical_formula_sum "Si O2"
_cell_formula_units_Z 40
_cell_length_a 30.103872
_cell_length_b 4.795829
_cell_length_c 22.467319
_cell_angle_alpha 90.000000
_cell_angle_beta 153.970270
_cell_angle_gamma 90.000000
_cell_volume 1423.445987
_symmetry_space_group_name_H-M "C 2/C"
_symmetry_group_IT_number 15
_symmetry_cell_setting 'monoclinic'
loop_
_space_group_symop_operation_xyz
x,y,z
-x,y,1/2-z
-x,-y,-z
x,-y,1/2+z
1/2+x,1/2+y,z
1/2-x,1/2+y,1/2-z
1/2-x,1/2-y,-z
1/2+x,1/2-y,1/2+z
loop_
_atom_site_type_symbol
_atom_site_label
_atom_site_fract_x
_atom_site_fract_y
_atom_site_fract_z
Si Si1 0.946716 0.954959 0.322175
Si Si2 0.639704 0.616438 0.664723
Si Si3 0.773956 0.444454 0.972651
Si Si4 0.960452 0.492748 0.261030
Si Si5 0.780107 0.877752 0.360039
O O1 0.950715 0.862791 0.396190
O O2 0.009592 0.753494 0.354561
O O3 0.826234 0.891767 0.166213
O O4 0.947142 0.269033 0.297609
O O5 0.683100 0.306689 0.724078
O O6 0.632522 0.664046 0.584788
O O7 0.733862 0.815674 0.797918
O O8 0.805371 0.249721 0.954470
O O9 0.750000 0.250000 0.000000
O O10 0.865218 0.623329 0.109103
O O11 0.000000 0.333693 0.250000
#
# Coordination Sequence:
#
# PCOD9263167 Si02
#       5
#     8   8   8   8   8
#     4  10  19  34  53  72  96 130 167 201 240 290
#     4   9  16  29  47  72  98 123 158 201 245 281
#     4   9  18  32  52  75  99 127 164 201 241 288
#     4  11  22  34  50  73 102 131 161 202 248 291
#     4   9  17  27  46  74 100 122 155 204 244 280
#
# _framework density 28.100822000000001
#
# number of rings (size 3 to 8) (size 9 to 14) (size 15 to 20)
#    0.000    2.400    0.000    4.800    0.000    4.800 
#    0.000    0.000    0.000    2.400    0.000    0.000 
#    0.000    0.000    0.000    0.000    0.000    0.000 
#
# Total GULP energy -111509.834863 kJ/mol
# GULP energy per Si atom -5575.491743 kJ/mol
# Density = 2.803686 g / cm^3
# Si number density = 28.100822 Si / 1000 Ang^3
#
#
#
# Elastic Constant Matrix: (Units=GPa)
#
#
# Indices 1 2 3 4 5 6 
#
# 1 240.6626 36.9878 9.1735 -0.0022 -53.0148 -0.0004
# 2 36.9878 71.9126 -10.0350 0.0043 -19.0379 0.0019
# 3 9.1735 -10.0350 86.4231 -0.0019 -34.1013 -0.0003
# 4 -0.0022 0.0043 -0.0019 14.5406 0.0017 -11.1404
# 5 -53.0148 -19.0379 -34.1013 0.0017 49.2621 0.0000
# 6 -0.0004 0.0019 -0.0003 -11.1404 0.0000 47.3309
#
#
#
# Elastic Compliance Matrix: (Units=1/GPa)
#
#
# Indices 1 2 3 4 5 6 
#
# 1 0.005854 -0.000662 0.002320 0.000001 0.007650 0.000000
# 2 -0.000662 0.017939 0.006340 -0.000008 0.010609 -0.000002
# 3 0.002320 0.006340 0.019279 -0.000001 0.018293 0.000000
# 4 0.000001 -0.000008 -0.000001 0.083904 -0.000006 0.019749
# 5 0.007650 0.010609 0.018293 -0.000006 0.045296 -0.000002
# 6 0.000000 -0.000002 0.000000 0.019749 -0.000002 0.025776
#
#
# Mechanical properties :
#
#
# Convention : Reuss Voigt Hill
#
# Bulk Modulus (GPa) = 16.92944 52.36121 34.64533
# Shear Modulus (GPa) = 24.78433 46.41820 35.60127
#
# Velocity S-wave (km/s) = 2.97303 4.06870 3.56323
# Velocity P-wave (km/s) = 4.22171 6.38328 5.41152
#
# Compressibility (1/GPa) = 0.05906869
#
# Stress axis : x y z
#
# Youngs Moduli (GPa) = 170.83254 55.74311 51.87021
#
# Poissons Ratio (x) = 0.03689 -0.12036
# Poissons Ratio (y) = 0.11304 -0.32883
# Poissons Ratio (z) = -0.39641 -0.35339
#
# Static dielectric constant tensor:
#      x y z
#    x 2.485900 0.000000 0.230570 
#    y 0.000000 2.037720 0.000000 
#    z 0.230570 0.000000 2.483610 
# 
# From -- ./inp_files/212741.got.cif
#   From: 2010.05.17/outbox.cif.g08.bks.cpg/sg15_107_cif.got.tgz:212741.got - 2010.06.03 18:47:42.
