data_PCOD9263696
_publ_section_title
;
Structure prediction by ZEFSAII (Michael W. Deem and Ramdas Pophale) SiO2 
 PCOD9263696
Probable space group: C 2/C
;
_chemical_formula_sum "Si O2"
_cell_formula_units_Z 52
_cell_length_a 25.968344
_cell_length_b 18.229834
_cell_length_c 5.529543
_cell_angle_alpha 90.000000
_cell_angle_beta 64.135560
_cell_angle_gamma 90.000000
_cell_volume 2355.461722
_symmetry_space_group_name_H-M "C 2/C"
_symmetry_group_IT_number 15
_symmetry_cell_setting 'monoclinic'
loop_
_space_group_symop_operation_xyz
x,y,z
-x,y,1/2-z
-x,-y,-z
x,-y,1/2+z
1/2+x,1/2+y,z
1/2-x,1/2+y,1/2-z
1/2-x,1/2-y,-z
1/2+x,1/2-y,1/2+z
loop_
_atom_site_type_symbol
_atom_site_label
_atom_site_fract_x
_atom_site_fract_y
_atom_site_fract_z
Si Si1 0.197450 0.540342 0.907608
Si Si2 0.178407 0.323816 0.710378
Si Si3 0.500000 0.457604 0.250000
Si Si4 0.283645 0.700302 0.240368
Si Si5 0.900260 0.204384 0.513465
Si Si6 0.413156 0.333492 0.495697
Si Si7 0.834536 0.045257 0.645269
O O1 0.185173 0.486704 0.161243
O O2 0.162745 0.612811 0.057744
O O3 0.265826 0.557227 0.772047
O O4 0.233552 0.352309 0.747561
O O5 0.198536 0.255920 0.505629
O O6 0.134218 0.280119 0.967588
O O7 0.500000 0.500000 0.500000
O O8 0.443812 0.408419 0.374740
O O9 0.250000 0.750000 0.500000
O O10 0.344098 0.664326 0.180766
O O11 0.923944 0.214310 0.734792
O O12 0.865508 0.125361 0.605248
O O13 0.938271 0.192749 0.199743
O O14 0.847271 0.001860 0.365573
#
# Coordination Sequence:
#
# PCOD9263696 Si02
#       7
#     8   8   4   8   8   8   8
#     4  10  22  33  46  68 106 157 189 217 277 361
#     4  10  21  35  53  83 120 151 198 253 320 402
#     4  12  28  50  66  84 126 184 234 286 316 360
#     4  10  19  34  59  86 115 149 196 264 338 392
#     4  11  22  37  60  87 108 152 200 266 327 387
#     4  11  24  39  60  85 110 152 216 262 322 369
#     4  10  20  32  44  69 105 137 183 240 289 348
#
# _framework density 22.076350999999999
#
# number of rings (size 3 to 8) (size 9 to 14) (size 15 to 20)
#    0.000    1.538    1.538    4.615    2.154    4.923 
#    0.000    1.538    0.000    0.000    0.000    0.000 
#    0.000    0.000    0.000   73.385    0.000    4.308 
#
# Total GULP energy -145010.444030 kJ/mol
# GULP energy per Si atom -5577.324770 kJ/mol
# Density = 2.202610 g / cm^3
# Si number density = 22.076351 Si / 1000 Ang^3
#
#
#
# Elastic Constant Matrix: (Units=GPa)
#
#
# Indices 1 2 3 4 5 6 
#
# 1 54.7930 20.9358 34.4965 0.0000 1.0597 0.0000
# 2 20.9358 78.9438 26.9623 0.0000 -6.0846 0.0000
# 3 34.4965 26.9623 140.5716 0.0000 20.8092 0.0000
# 4 0.0000 0.0000 0.0000 54.3757 0.0000 -3.0837
# 5 1.0597 -6.0846 20.8092 0.0000 33.7880 0.0000
# 6 0.0000 0.0000 0.0000 -3.0837 0.0000 33.4362
#
#
#
# Elastic Compliance Matrix: (Units=1/GPa)
#
#
# Indices 1 2 3 4 5 6 
#
# 1 0.023042 -0.004248 -0.005083 0.000000 0.001643 0.000000
# 2 -0.004248 0.014974 -0.002474 0.000000 0.004354 0.000000
# 3 -0.005083 -0.002474 0.009769 0.000000 -0.006302 0.000000
# 4 0.000000 0.000000 0.000000 0.018487 0.000000 0.001705
# 5 0.001643 0.004354 -0.006302 0.000000 0.034210 0.000000
# 6 0.000000 0.000000 0.000000 0.001705 0.000000 0.030065
#
#
# Mechanical properties :
#
#
# Convention : Reuss Voigt Hill
#
# Bulk Modulus (GPa) = 41.36547 48.78864 45.07706
# Shear Modulus (GPa) = 30.82308 37.11424 33.96866
#
# Velocity S-wave (km/s) = 3.74063 4.10466 3.92687
# Velocity P-wave (km/s) = 6.11838 6.67924 6.40495
#
# Compressibility (1/GPa) = 0.02417475
#
# Stress axis : x y z
#
# Youngs Moduli (GPa) = 43.39904 66.78070 102.36788
#
# Poissons Ratio (x) = 0.28369 0.52033
# Poissons Ratio (y) = 0.18436 0.25327
# Poissons Ratio (z) = 0.22059 0.16523
#
# Static dielectric constant tensor:
#      x y z
#    x 2.010040 0.000000 0.102920 
#    y 0.000000 1.887940 0.000000 
#    z 0.102920 0.000000 1.980520 
# 
# From -- ./inp_files/18337.got.cif
#   From: 2010.05.17/outbox.cif.g08.bks.cpg/sg15_10_cif.got.tgz:18337.got - 2010.06.03 18:47:42.
