data_PCOD9263376
_publ_section_title
;
Structure prediction by ZEFSAII (Michael W. Deem and Ramdas Pophale) SiO2 
 PCOD9263376
Probable space group: C 2/C
;
_chemical_formula_sum "Si O2"
_cell_formula_units_Z 56
_cell_length_a 13.836076
_cell_length_b 12.364061
_cell_length_c 15.215056
_cell_angle_alpha 90.000000
_cell_angle_beta 52.265085
_cell_angle_gamma 90.000000
_cell_volume 2058.458683
_symmetry_space_group_name_H-M "C 2/C"
_symmetry_group_IT_number 15
_symmetry_cell_setting 'monoclinic'
loop_
_space_group_symop_operation_xyz
x,y,z
-x,y,1/2-z
-x,-y,-z
x,-y,1/2+z
1/2+x,1/2+y,z
1/2-x,1/2+y,1/2-z
1/2-x,1/2-y,-z
1/2+x,1/2-y,1/2+z
loop_
_atom_site_type_symbol
_atom_site_label
_atom_site_fract_x
_atom_site_fract_y
_atom_site_fract_z
Si Si1 0.858802 0.898580 0.313974
Si Si2 0.470464 0.717810 0.028626
Si Si3 0.372059 0.143845 0.427977
Si Si4 0.733138 0.644462 0.832121
Si Si5 0.723691 0.899503 0.693755
Si Si6 0.959512 0.567208 0.935700
Si Si7 0.223820 0.865899 0.645832
O O1 0.756410 0.878807 0.447793
O O2 0.801609 0.857635 0.253009
O O3 0.000000 0.866698 0.250000
O O4 0.862109 0.030855 0.303840
O O5 0.602391 0.662893 0.952511
O O6 0.466842 0.821346 0.096501
O O7 0.438630 0.768776 0.951157
O O8 0.366654 0.632595 0.108838
O O9 0.159253 0.329685 0.654669
O O10 0.451892 0.034433 0.375981
O O11 0.786482 0.526380 0.818573
O O12 0.814936 0.742139 0.825840
O O13 0.693858 0.875113 0.810774
O O14 0.820923 0.611410 0.016065
O O15 0.000000 0.500000 0.000000
#
# Coordination Sequence:
#
# PCOD9263376 Si02
#       7
#     8   8   8   8   8   8   8
#     4  10  20  36  57  79 108 144 183 225 271 325
#     4  10  19  34  56  81 111 146 180 220 273 325
#     4  10  20  36  57  84 111 141 183 229 271 319
#     4  10  21  37  55  78 110 145 182 223 270 327
#     4  11  21  34  55  84 111 140 180 230 271 318
#     4   8  17  36  57  76 107 149 182 213 266 326
#     4   9  20  37  55  76 109 147 178 218 275 324
#
# _framework density 27.204822
#
# number of rings (size 3 to 8) (size 9 to 14) (size 15 to 20)
#    0.000    2.286    0.000    2.571    0.000    3.429 
#    0.000   15.000    0.000    0.000    0.000    0.000 
#    0.000    0.000    0.000    0.000    0.000    0.000 
#
# Total GULP energy -156612.075498 kJ/mol
# GULP energy per Si atom -5593.288411 kJ/mol
# Density = 2.714290 g / cm^3
# Si number density = 27.204822 Si / 1000 Ang^3
#
#
#
# Elastic Constant Matrix: (Units=GPa)
#
#
# Indices 1 2 3 4 5 6 
#
# 1 76.6474 -3.7652 23.5346 0.0000 -8.3171 0.0000
# 2 -3.7652 142.4523 13.5854 0.0000 -6.8835 0.0000
# 3 23.5346 13.5854 87.2974 0.0000 -10.6945 0.0000
# 4 0.0000 0.0000 0.0000 38.8310 0.0000 -2.6853
# 5 -8.3171 -6.8835 -10.6945 0.0000 37.0071 0.0000
# 6 0.0000 0.0000 0.0000 -2.6853 0.0000 39.5326
#
#
#
# Elastic Compliance Matrix: (Units=1/GPa)
#
#
# Indices 1 2 3 4 5 6 
#
# 1 0.014495 0.000854 -0.003755 0.000000 0.002331 0.000000
# 2 0.000854 0.007215 -0.001208 0.000000 0.001185 0.000000
# 3 -0.003755 -0.001208 0.012984 0.000000 0.002684 0.000000
# 4 0.000000 0.000000 0.000000 0.025874 0.000000 0.001758
# 5 0.002331 0.001185 0.002684 0.000000 0.028542 0.000000
# 6 0.000000 0.000000 0.000000 0.001758 0.000000 0.025415
#
#
# Mechanical properties :
#
#
# Convention : Reuss Voigt Hill
#
# Bulk Modulus (GPa) = 37.77022 41.45631 39.61326
# Shear Modulus (GPa) = 38.00332 41.27697 39.64015
#
# Velocity S-wave (km/s) = 3.74161 3.89944 3.82134
# Velocity P-wave (km/s) = 5.70789 5.96203 5.83634
#
# Compressibility (1/GPa) = 0.02647589
#
# Stress axis : x y z
#
# Youngs Moduli (GPa) = 68.99113 138.60197 77.01724
#
# Poissons Ratio (x) = -0.11835 0.28919
# Poissons Ratio (y) = -0.05891 0.09302
# Poissons Ratio (z) = 0.25905 0.16741
#
# Static dielectric constant tensor:
#      x y z
#    x 2.130130 0.000000 0.004800 
#    y 0.000000 2.160540 0.000000 
#    z 0.004800 0.000000 2.167290 
# 
# From -- ./inp_files/276892.got.cif
#   From: 2010.05.17/outbox.cif.g08.bks.cpg/sg15_139_cif.got.tgz:276892.got - 2010.06.03 18:47:42.
