data_PCOD9263268
_publ_section_title
;
Structure prediction by ZEFSAII (Michael W. Deem and Ramdas Pophale) SiO2 
 PCOD9263268
Probable space group: C 2/C
;
_chemical_formula_sum "Si O2"
_cell_formula_units_Z 40
_cell_length_a 6.778357
_cell_length_b 17.401547
_cell_length_c 17.269681
_cell_angle_alpha 90.000000
_cell_angle_beta 130.083848
_cell_angle_gamma 90.000000
_cell_volume 1558.534752
_symmetry_space_group_name_H-M "C 2/C"
_symmetry_group_IT_number 15
_symmetry_cell_setting 'monoclinic'
loop_
_space_group_symop_operation_xyz
x,y,z
-x,y,1/2-z
-x,-y,-z
x,-y,1/2+z
1/2+x,1/2+y,z
1/2-x,1/2+y,1/2-z
1/2-x,1/2-y,-z
1/2+x,1/2-y,1/2+z
loop_
_atom_site_type_symbol
_atom_site_label
_atom_site_fract_x
_atom_site_fract_y
_atom_site_fract_z
Si Si1 0.460814 0.445989 0.062019
Si Si2 0.101049 0.647097 0.625995
Si Si3 0.792115 0.483587 0.766993
Si Si4 0.086791 0.636481 0.079929
Si Si5 0.125701 0.199713 0.666726
O O1 0.532021 0.495016 0.155392
O O2 0.649781 0.372310 0.114281
O O3 0.500000 0.500000 0.000000
O O4 0.175748 0.413478 0.985947
O O5 0.133786 0.560740 0.667061
O O6 0.876480 0.647007 0.503965
O O7 0.360991 0.674961 0.644826
O O8 0.141441 0.700779 0.712212
O O9 0.000000 0.470233 0.750000
O O10 0.769507 0.411301 0.817082
O O11 0.073331 0.721821 0.110337
#
# Coordination Sequence:
#
# PCOD9263268 Si02
#       5
#     8   8   8   8   8
#     4  10  19  34  54  89 117 147 196 249 284 351
#     4   9  19  35  54  86 117 143 186 251 288 338
#     4  11  22  34  56  89 116 159 196 232 297 364
#     4  11  21  37  63  90 113 153 203 248 295 334
#     4   9  20  35  61  88 110 146 200 254 293 330
#
# _framework density 25.665132
#
# number of rings (size 3 to 8) (size 9 to 14) (size 15 to 20)
#    0.000    2.000    2.000    4.200    2.800    1.600 
#    0.000    0.000    0.000   10.800   78.000    0.000 
#    0.000    0.000    0.000    0.000    0.000    0.000 
#
# Total GULP energy -111760.209776 kJ/mol
# GULP energy per Si atom -5588.010489 kJ/mol
# Density = 2.560672 g / cm^3
# Si number density = 25.665132 Si / 1000 Ang^3
#
#
#
# Elastic Constant Matrix: (Units=GPa)
#
#
# Indices 1 2 3 4 5 6 
#
# 1 86.7269 22.3144 39.2466 0.0000 -12.5334 0.0000
# 2 22.3144 133.6180 103.2601 0.0000 -43.5290 0.0000
# 3 39.2466 103.2601 215.7569 0.0000 -35.0413 0.0000
# 4 0.0000 0.0000 0.0000 48.1386 0.0000 -8.3302
# 5 -12.5334 -43.5290 -35.0413 0.0000 46.9463 0.0000
# 6 0.0000 0.0000 0.0000 -8.3302 0.0000 18.3707
#
#
#
# Elastic Compliance Matrix: (Units=1/GPa)
#
#
# Indices 1 2 3 4 5 6 
#
# 1 0.012712 0.000088 -0.002037 0.000000 0.001955 0.000000
# 2 0.000088 0.014961 -0.005598 0.000000 0.009717 0.000000
# 3 -0.002037 -0.005598 0.007685 0.000000 0.000002 0.000000
# 4 0.000000 0.000000 0.000000 0.022542 0.000000 0.010222
# 5 0.001955 0.009717 0.000002 0.000000 0.030834 0.000000
# 6 0.000000 0.000000 0.000000 0.010222 0.000000 0.059070
#
#
# Mechanical properties :
#
#
# Convention : Reuss Voigt Hill
#
# Bulk Modulus (GPa) = 49.34837 85.08267 67.21552
# Shear Modulus (GPa) = 29.47200 40.77649 35.12424
#
# Velocity S-wave (km/s) = 3.39238 3.99029 3.70342
# Velocity P-wave (km/s) = 5.88335 7.37922 6.67333
#
# Compressibility (1/GPa) = 0.02026410
#
# Stress axis : x y z
#
# Youngs Moduli (GPa) = 78.66509 66.83975 130.12502
#
# Poissons Ratio (x) = -0.00590 0.26507
# Poissons Ratio (y) = -0.00694 0.72847
# Poissons Ratio (z) = 0.16024 0.37418
#
# Static dielectric constant tensor:
#      x y z
#    x 2.260110 0.000000 -0.021580 
#    y 0.000000 1.934060 0.000000 
#    z -0.021580 0.000000 2.143410 
# 
# From -- ./inp_files/178733.got.cif
#   From: 2010.05.17/outbox.cif.g08.bks.cpg/sg15_90_cif.got.tgz:178733.got - 2010.06.03 18:47:42.
