data_PCOD9263347
_publ_section_title
;
Structure prediction by ZEFSAII (Michael W. Deem and Ramdas Pophale) SiO2 
 PCOD9263347
Probable space group: C 2/C
;
_chemical_formula_sum "Si O2"
_cell_formula_units_Z 56
_cell_length_a 9.055810
_cell_length_b 19.093366
_cell_length_c 24.915755
_cell_angle_alpha 90.000000
_cell_angle_beta 46.217145
_cell_angle_gamma 90.000000
_cell_volume 3110.293589
_symmetry_space_group_name_H-M "C 2/C"
_symmetry_group_IT_number 15
_symmetry_cell_setting 'monoclinic'
loop_
_space_group_symop_operation_xyz
x,y,z
-x,y,1/2-z
-x,-y,-z
x,-y,1/2+z
1/2+x,1/2+y,z
1/2-x,1/2+y,1/2-z
1/2-x,1/2-y,-z
1/2+x,1/2-y,1/2+z
loop_
_atom_site_type_symbol
_atom_site_label
_atom_site_fract_x
_atom_site_fract_y
_atom_site_fract_z
Si Si1 0.706174 0.829855 0.493153
Si Si2 0.311162 0.190861 0.025787
Si Si3 0.055475 0.137167 0.174581
Si Si4 0.429764 0.438744 0.095675
Si Si5 0.755498 0.944711 0.024322
Si Si6 0.294311 0.957820 0.770552
Si Si7 0.073986 0.446373 0.884763
O O1 0.750000 0.750000 0.500000
O O2 0.546532 0.820176 0.484036
O O3 0.578267 0.879327 0.567806
O O4 0.916505 0.873793 0.430574
O O5 0.176103 0.197795 0.113700
O O6 0.250000 0.250000 0.000000
O O7 0.237471 0.121636 0.014596
O O8 0.219677 0.073785 0.136783
O O9 0.000000 0.154706 0.250000
O O10 0.863638 0.106853 0.190873
O O11 0.286982 0.424829 0.079210
O O12 0.305933 0.473395 0.176398
O O13 0.571185 0.501658 0.038186
O O14 0.546177 0.986037 0.065814
O O15 0.500000 0.940631 0.750000
O O16 0.360988 0.963413 0.692044
#
# Coordination Sequence:
#
# PCOD9263347 Si02
#       7
#     8   8   8   8   8   8   8
#     4  10  22  38  59  86 116 153 194 246 299 344
#     4  11  22  36  61  85 115 155 197 242 288 351
#     4   9  20  36  56  85 113 149 193 240 292 347
#     4  10  20  33  58  85 118 149 190 248 281 345
#     4  10  19  34  55  88 115 142 196 240 290 331
#     4  11  19  33  56  87 113 154 192 231 292 340
#     4   9  20  35  59  84 118 152 188 245 288 348
#
# _framework density 18.004732000000001
#
# number of rings (size 3 to 8) (size 9 to 14) (size 15 to 20)
#    0.000    2.000    2.857    0.857    2.000    2.857 
#    0.000    0.000   12.571    0.000    0.000    0.000 
#    0.000    0.000    0.000    0.000    0.000    0.000 
#
# Total GULP energy -155886.612968 kJ/mol
# GULP energy per Si atom -5567.379035 kJ/mol
# Density = 1.796375 g / cm^3
# Si number density = 18.004732 Si / 1000 Ang^3
#
#
#
# Elastic Constant Matrix: (Units=GPa)
#
#
# Indices 1 2 3 4 5 6 
#
# 1 103.7390 39.7499 32.9736 -0.0015 -5.0018 0.0001
# 2 39.7499 84.9271 27.9228 -0.0022 5.2602 0.0006
# 3 32.9736 27.9228 80.9080 -0.0069 4.8157 0.0033
# 4 -0.0015 -0.0022 -0.0069 17.6525 0.0020 4.6632
# 5 -5.0018 5.2602 4.8157 0.0020 28.9076 -0.0003
# 6 0.0001 0.0006 0.0033 4.6632 -0.0003 21.8756
#
#
#
# Elastic Compliance Matrix: (Units=1/GPa)
#
#
# Indices 1 2 3 4 5 6 
#
# 1 0.012957 -0.005063 -0.003759 -0.000002 0.003789 0.000001
# 2 -0.005063 0.015341 -0.003043 0.000001 -0.003161 0.000000
# 3 -0.003759 -0.003043 0.015097 0.000006 -0.002612 -0.000004
# 4 -0.000002 0.000001 0.000006 0.060029 -0.000006 -0.012796
# 5 0.003789 -0.003161 -0.002612 -0.000006 0.036259 0.000002
# 6 0.000001 0.000000 -0.000004 -0.012796 0.000002 0.048441
#
#
# Mechanical properties :
#
#
# Convention : Reuss Voigt Hill
#
# Bulk Modulus (GPa) = 50.85059 52.31853 51.58456
# Shear Modulus (GPa) = 22.89281 24.94901 23.92091
#
# Velocity S-wave (km/s) = 3.56966 3.72653 3.64894
# Velocity P-wave (km/s) = 6.73010 6.90198 6.81658
#
# Compressibility (1/GPa) = 0.01966545
#
# Stress axis : x y z
#
# Youngs Moduli (GPa) = 77.17735 65.18508 66.23798
#
# Poissons Ratio (x) = 0.33006 0.24897
# Poissons Ratio (y) = 0.39079 0.20154
# Poissons Ratio (z) = 0.29008 0.19834
#
# Static dielectric constant tensor:
#      x y z
#    x 1.682490 0.000000 -0.000320 
#    y 0.000000 1.594330 0.000000 
#    z -0.000320 0.000000 1.674000 
# 
# From -- ./inp_files/289696.got.cif
#   From: 2010.05.17/outbox.cif.g08.bks.cpg/sg15_145_cif.got.tgz:289696.got - 2010.06.03 18:47:42.
