data_PCOD9263394
_publ_section_title
;
Structure prediction by ZEFSAII (Michael W. Deem and Ramdas Pophale) SiO2 
 PCOD9263394
Probable space group: C 2/C
;
_chemical_formula_sum "Si O2"
_cell_formula_units_Z 48
_cell_length_a 19.382740
_cell_length_b 14.303365
_cell_length_c 23.283499
_cell_angle_alpha 90.000000
_cell_angle_beta 19.041841
_cell_angle_gamma 90.000000
_cell_volume 2106.025049
_symmetry_space_group_name_H-M "C 2/C"
_symmetry_group_IT_number 15
_symmetry_cell_setting 'monoclinic'
loop_
_space_group_symop_operation_xyz
x,y,z
-x,y,1/2-z
-x,-y,-z
x,-y,1/2+z
1/2+x,1/2+y,z
1/2-x,1/2+y,1/2-z
1/2-x,1/2-y,-z
1/2+x,1/2-y,1/2+z
loop_
_atom_site_type_symbol
_atom_site_label
_atom_site_fract_x
_atom_site_fract_y
_atom_site_fract_z
Si Si1 0.010085 0.688902 0.911173
Si Si2 0.263409 0.043514 0.921909
Si Si3 0.951154 0.167896 0.226491
Si Si4 0.766485 0.812519 0.429590
Si Si5 0.573173 0.368368 0.455468
Si Si6 0.686436 0.865820 0.684725
O O1 0.226468 0.632721 0.744332
O O2 0.479774 0.747543 0.155132
O O3 0.790962 0.634275 0.083532
O O4 0.987356 0.762366 0.980159
O O5 0.500000 0.075739 0.750000
O O6 0.161964 0.086781 0.943804
O O7 0.282305 0.933969 0.894256
O O8 0.108964 0.082772 0.091545
O O9 0.000000 0.209930 0.250000
O O10 0.750000 0.750000 0.500000
O O11 0.549319 0.871169 0.603145
O O12 0.770051 0.738990 0.373319
O O13 0.000000 0.858738 0.250000
O O14 0.359303 0.401824 0.594527
#
# Coordination Sequence:
#
# PCOD9263394 Si02
#       6
#     8   8   8   8   8   8
#     4   9  19  34  56  84 115 148 193 236 275 338
#     4  11  23  38  56  82 119 156 191 239 295 349
#     4  10  19  34  56  83 115 153 190 231 282 340
#     4   9  19  37  62  88 111 146 196 244 290 342
#     4  10  20  36  58  86 117 156 194 237 290 343
#     4  11  21  39  61  85 117 153 195 245 295 348
#
# _framework density 22.791751000000001
#
# number of rings (size 3 to 8) (size 9 to 14) (size 15 to 20)
#    0.000    2.000    0.000    4.500    0.000    4.667 
#    0.000   12.500    0.000    0.000    0.000    0.000 
#    0.000    0.000    0.000    0.000    0.000    0.000 
#
# Total GULP energy -133951.347081 kJ/mol
# GULP energy per Si atom -5581.306128 kJ/mol
# Density = 2.273988 g / cm^3
# Si number density = 22.791751 Si / 1000 Ang^3
#
#
#
# Elastic Constant Matrix: (Units=GPa)
#
#
# Indices 1 2 3 4 5 6 
#
# 1 68.9806 6.5485 47.7432 -0.0166 -27.7454 -0.0023
# 2 6.5485 54.6649 36.5542 0.0625 -4.7832 0.0040
# 3 47.7432 36.5542 218.0098 0.0053 -18.3915 0.0700
# 4 -0.0166 0.0625 0.0053 14.6520 0.0234 2.0947
# 5 -27.7454 -4.7832 -18.3915 0.0234 39.7280 -0.0211
# 6 -0.0023 0.0040 0.0700 2.0947 -0.0211 14.5611
#
#
#
# Elastic Compliance Matrix: (Units=1/GPa)
#
#
# Indices 1 2 3 4 5 6 
#
# 1 0.022904 0.001188 -0.004010 -0.000007 0.014283 0.000044
# 2 0.001188 0.020697 -0.003590 -0.000092 0.001659 0.000028
# 3 -0.004010 -0.003590 0.006030 0.000014 -0.000441 -0.000031
# 4 -0.000007 -0.000092 0.000014 0.069684 -0.000056 -0.010025
# 5 0.014283 0.001659 -0.000441 -0.000056 0.035141 0.000063
# 6 0.000044 0.000028 -0.000031 -0.010025 0.000063 0.070119
#
#
# Mechanical properties :
#
#
# Convention : Reuss Voigt Hill
#
# Bulk Modulus (GPa) = 27.17001 58.14969 42.65985
# Shear Modulus (GPa) = 20.02643 30.50884 25.26764
#
# Velocity S-wave (km/s) = 2.96745 3.66265 3.33322
# Velocity P-wave (km/s) = 4.86702 6.59208 5.79411
#
# Compressibility (1/GPa) = 0.03680529
#
# Stress axis : x y z
#
# Youngs Moduli (GPa) = 43.65978 48.31567 165.83886
#
# Poissons Ratio (x) = -0.05738 0.66505
# Poissons Ratio (y) = -0.05185 0.59544
# Poissons Ratio (z) = 0.17508 0.17347
#
# Static dielectric constant tensor:
#      x y z
#    x 1.896110 -0.000060 -0.019090 
#    y -0.000060 1.886650 0.000040 
#    z -0.019090 0.000040 1.890100 
# 
# From -- ./inp_files/277847.got.cif
#   From: 2010.05.17/outbox.cif.g08.bks.cpg/sg15_139_cif.got.tgz:277847.got - 2010.06.03 18:47:42.
