data_PCOD9263895
_publ_section_title
;
Structure prediction by ZEFSAII (Michael W. Deem and Ramdas Pophale) SiO2 
 PCOD9263895
Probable space group: C 2/C
;
_chemical_formula_sum "Si O2"
_cell_formula_units_Z 40
_cell_length_a 9.081098
_cell_length_b 11.559828
_cell_length_c 24.880434
_cell_angle_alpha 90.000000
_cell_angle_beta 128.283457
_cell_angle_gamma 90.000000
_cell_volume 2050.182891
_symmetry_space_group_name_H-M "C 2/C"
_symmetry_group_IT_number 15
_symmetry_cell_setting 'monoclinic'
loop_
_space_group_symop_operation_xyz
x,y,z
-x,y,1/2-z
-x,-y,-z
x,-y,1/2+z
1/2+x,1/2+y,z
1/2-x,1/2+y,1/2-z
1/2-x,1/2-y,-z
1/2+x,1/2-y,1/2+z
loop_
_atom_site_type_symbol
_atom_site_label
_atom_site_fract_x
_atom_site_fract_y
_atom_site_fract_z
Si Si1 0.330471 0.179558 0.171038
Si Si2 0.340371 0.546193 0.922886
Si Si3 0.934233 0.240574 0.579399
Si Si4 0.944387 0.264663 0.089985
Si Si5 0.108402 0.619786 0.032596
O O1 0.500000 0.163592 0.250000
O O2 0.395121 0.247797 0.132674
O O3 0.153906 0.245806 0.157806
O O4 0.256822 0.059454 0.129189
O O5 0.456276 0.624298 0.908178
O O6 0.182264 0.630366 0.914642
O O7 0.500000 0.500000 0.000000
O O8 0.750000 0.250000 0.500000
O O9 0.061811 0.341013 0.582272
O O10 0.828774 0.145237 0.073247
O O11 0.965615 0.293128 0.031114
O O12 0.000000 0.500000 0.000000
#
# Coordination Sequence:
#
# PCOD9263895 Si02
#       5
#     8   8   8   8   8
#     4  12  26  42  61  92 133 173 211 265 329 381
#     4  11  22  41  69  95 125 167 220 266 322 381
#     4  11  21  38  63  96 123 159 213 264 307 383
#     4  10  22  37  59  93 124 158 207 261 311 378
#     4  10  19  34  62  92 120 154 204 261 312 367
#
# _framework density 19.510455
#
# number of rings (size 3 to 8) (size 9 to 14) (size 15 to 20)
#    0.000    1.200    4.000    3.600    2.800    1.600 
#    0.000    3.000    0.000    0.000    0.000    0.000 
#    0.000    0.000    0.000    0.000    0.000    0.000 
#
# Total GULP energy -111530.685474 kJ/mol
# GULP energy per Si atom -5576.534274 kJ/mol
# Density = 1.946605 g / cm^3
# Si number density = 19.510455 Si / 1000 Ang^3
#
#
#
# Elastic Constant Matrix: (Units=GPa)
#
#
# Indices 1 2 3 4 5 6 
#
# 1 130.1015 65.4404 60.9093 0.0000 12.6587 0.0000
# 2 65.4404 105.9915 37.6784 0.0000 10.3570 0.0000
# 3 60.9093 37.6784 141.7026 0.0000 23.9806 0.0000
# 4 0.0000 0.0000 0.0000 21.6702 0.0000 2.9260
# 5 12.6587 10.3570 23.9806 0.0000 26.1548 0.0000
# 6 0.0000 0.0000 0.0000 2.9260 0.0000 36.9397
#
#
#
# Elastic Compliance Matrix: (Units=1/GPa)
#
#
# Indices 1 2 3 4 5 6 
#
# 1 0.012715 -0.006517 -0.003702 0.000000 -0.000179 0.000000
# 2 -0.006517 0.013838 -0.000574 0.000000 -0.001800 0.000000
# 3 -0.003702 -0.000574 0.010013 0.000000 -0.007161 0.000000
# 4 0.000000 0.000000 0.000000 0.046645 0.000000 -0.003695
# 5 -0.000179 -0.001800 -0.007161 0.000000 0.045599 0.000000
# 6 0.000000 0.000000 0.000000 -0.003695 0.000000 0.027364
#
#
# Mechanical properties :
#
#
# Convention : Reuss Voigt Hill
#
# Bulk Modulus (GPa) = 66.75495 78.42800 72.59148
# Shear Modulus (GPa) = 27.35932 31.20412 29.28172
#
# Velocity S-wave (km/s) = 3.74878 4.00353 3.87825
# Velocity P-wave (km/s) = 7.28197 7.85215 7.57243
#
# Compressibility (1/GPa) = 0.01498016
#
# Stress axis : x y z
#
# Youngs Moduli (GPa) = 78.64791 72.26449 99.87058
#
# Poissons Ratio (x) = 0.47093 0.36975
# Poissons Ratio (y) = 0.51253 0.05731
# Poissons Ratio (z) = 0.29118 0.04147
#
# Static dielectric constant tensor:
#      x y z
#    x 2.047810 0.000000 0.086650 
#    y 0.000000 1.723870 0.000000 
#    z 0.086650 0.000000 1.663090 
# 
# From -- ./inp_files/187878.got.cif
#   From: 2010.05.17/outbox.cif.g08.bks.cpg/sg15_94_cif.got.tgz:187878.got - 2010.06.03 18:47:42.
