data_PCOD9263881
_publ_section_title
;
Structure prediction by ZEFSAII (Michael W. Deem and Ramdas Pophale) SiO2 
 PCOD9263881
Probable space group: C 2/C
;
_chemical_formula_sum "Si O2"
_cell_formula_units_Z 56
_cell_length_a 12.429077
_cell_length_b 14.528285
_cell_length_c 14.833203
_cell_angle_alpha 90.000000
_cell_angle_beta 103.381450
_cell_angle_gamma 90.000000
_cell_volume 2605.760136
_symmetry_space_group_name_H-M "C 2/C"
_symmetry_group_IT_number 15
_symmetry_cell_setting 'monoclinic'
loop_
_space_group_symop_operation_xyz
x,y,z
-x,y,1/2-z
-x,-y,-z
x,-y,1/2+z
1/2+x,1/2+y,z
1/2-x,1/2+y,1/2-z
1/2-x,1/2-y,-z
1/2+x,1/2-y,1/2+z
loop_
_atom_site_type_symbol
_atom_site_label
_atom_site_fract_x
_atom_site_fract_y
_atom_site_fract_z
Si Si1 0.018877 0.657709 0.485903
Si Si2 0.891328 0.101357 0.778067
Si Si3 0.379473 0.219379 0.178849
Si Si4 0.319429 0.508580 0.519066
Si Si5 0.866603 0.499681 0.378985
Si Si6 0.282779 0.967590 0.681780
Si Si7 0.016122 0.144837 0.513908
O O1 0.099264 0.695817 0.421814
O O2 0.074215 0.587217 0.565070
O O3 0.924205 0.595195 0.420778
O O4 0.984534 0.753060 0.525748
O O5 0.840958 0.179570 0.702623
O O6 0.826618 0.014736 0.802189
O O7 0.929159 0.153886 0.876243
O O8 0.000000 0.067249 0.750000
O O9 0.500000 0.207297 0.250000
O O10 0.294777 0.141282 0.193161
O O11 0.256627 0.504016 0.601585
O O12 0.221550 0.505352 0.424201
O O13 0.396723 0.596431 0.508416
O O14 0.405041 0.424680 0.524749
O O15 0.869955 0.494282 0.271340
#
# Coordination Sequence:
#
# PCOD9263881 Si02
#       7
#     8   8   8   8   8   8   8
#     4  11  22  38  60  88 120 155 203 240 290 357
#     4  10  19  34  62  88 110 158 198 236 292 351
#     4  11  19  38  62  86 118 158 196 245 290 347
#     4  10  23  38  60  88 120 156 193 249 297 342
#     4  11  23  37  59  90 117 160 195 242 302 345
#     4  11  22  37  60  90 123 148 198 249 293 349
#     4  10  20  39  58  84 119 154 196 242 292 347
#
# _framework density 21.490849999999998
#
# number of rings (size 3 to 8) (size 9 to 14) (size 15 to 20)
#    0.000    1.429    5.714    0.857    0.000    2.286 
#    0.000    0.000    0.000    2.571    0.000    0.000 
#    0.000    0.000    0.000    0.000    0.000    0.000 
#
# Total GULP energy -156137.765466 kJ/mol
# GULP energy per Si atom -5576.348767 kJ/mol
# Density = 2.144194 g / cm^3
# Si number density = 21.490850 Si / 1000 Ang^3
#
#
#
# Elastic Constant Matrix: (Units=GPa)
#
#
# Indices 1 2 3 4 5 6 
#
# 1 47.8812 49.2632 -0.3107 0.0000 -4.5676 0.0000
# 2 49.2632 160.0118 12.6746 0.0000 -3.9993 0.0000
# 3 -0.3107 12.6746 83.6157 0.0000 3.6135 0.0000
# 4 0.0000 0.0000 0.0000 22.0049 0.0000 -3.6835
# 5 -4.5676 -3.9993 3.6135 0.0000 17.8130 0.0000
# 6 0.0000 0.0000 0.0000 -3.6835 0.0000 23.8611
#
#
#
# Elastic Compliance Matrix: (Units=1/GPa)
#
#
# Indices 1 2 3 4 5 6 
#
# 1 0.031310 -0.009605 0.001330 0.000000 0.005602 0.000000
# 2 -0.009605 0.009319 -0.001445 0.000000 -0.000077 0.000000
# 3 0.001330 -0.001445 0.012290 0.000000 -0.002477 0.000000
# 4 0.000000 0.000000 0.000000 0.046650 0.000000 0.007201
# 5 0.005602 -0.000077 -0.002477 0.000000 0.058060 0.000000
# 6 0.000000 0.000000 0.000000 0.007201 0.000000 0.043021
#
#
# Mechanical properties :
#
#
# Convention : Reuss Voigt Hill
#
# Bulk Modulus (GPa) = 29.86818 46.08477 37.97648
# Shear Modulus (GPa) = 21.62159 28.06124 24.84142
#
# Velocity S-wave (km/s) = 3.17532 3.61741 3.40355
# Velocity P-wave (km/s) = 5.23181 6.24003 5.75803
#
# Compressibility (1/GPa) = 0.03348044
#
# Stress axis : x y z
#
# Youngs Moduli (GPa) = 31.93853 107.30611 81.36384
#
# Poissons Ratio (x) = 1.03066 -0.10823
# Poissons Ratio (y) = 0.30677 0.11757
# Poissons Ratio (z) = -0.04248 0.15505
#
# Static dielectric constant tensor:
#      x y z
#    x 1.827190 0.000000 0.075770 
#    y 0.000000 1.794970 0.000000 
#    z 0.075770 0.000000 1.882540 
# 
# From -- ./inp_files/153510.got.cif
#   From: 2010.05.17/outbox.cif.g08.bks.cpg/sg15_77_cif.got.tgz:153510.got - 2010.06.03 18:47:42.
