data_PCOD9263738
_publ_section_title
;
Structure prediction by ZEFSAII (Michael W. Deem and Ramdas Pophale) SiO2 
 PCOD9263738
Probable space group: C 2/C
;
_chemical_formula_sum "Si O2"
_cell_formula_units_Z 56
_cell_length_a 9.382505
_cell_length_b 11.107338
_cell_length_c 21.057651
_cell_angle_alpha 90.000000
_cell_angle_beta 97.726029
_cell_angle_gamma 90.000000
_cell_volume 2174.594507
_symmetry_space_group_name_H-M "C 2/C"
_symmetry_group_IT_number 15
_symmetry_cell_setting 'monoclinic'
loop_
_space_group_symop_operation_xyz
x,y,z
-x,y,1/2-z
-x,-y,-z
x,-y,1/2+z
1/2+x,1/2+y,z
1/2-x,1/2+y,1/2-z
1/2-x,1/2-y,-z
1/2+x,1/2-y,1/2+z
loop_
_atom_site_type_symbol
_atom_site_label
_atom_site_fract_x
_atom_site_fract_y
_atom_site_fract_z
Si Si1 0.237995 0.207689 0.797245
Si Si2 0.399005 0.770259 0.591744
Si Si3 0.190468 0.440537 0.023318
Si Si4 0.193030 0.826587 0.152383
Si Si5 0.008999 0.665607 0.899878
Si Si6 0.421249 0.400722 0.540149
Si Si7 0.030246 0.017356 0.317291
O O1 0.154381 0.296999 0.839679
O O2 0.228004 0.235048 0.722335
O O3 0.395882 0.195229 0.836615
O O4 0.145470 0.084708 0.803407
O O5 0.311468 0.649252 0.563378
O O6 0.347454 0.873849 0.543082
O O7 0.567953 0.742508 0.606479
O O8 0.257206 0.570815 0.013988
O O9 0.063311 0.443697 0.066502
O O10 0.336142 0.846605 0.121544
O O11 0.113258 0.950389 0.166635
O O12 0.489897 0.730416 0.044862
O O13 0.500000 0.500000 0.500000
O O14 0.419383 0.417657 0.616731
O O15 0.000000 0.086099 0.250000
#
# Coordination Sequence:
#
# PCOD9263738 Si02
#       7
#     8   8   8   8   8   8   8
#     4   9  17  35  59  85 119 160 199 256 309 384
#     4   9  16  33  61  81 111 167 199 245 306 374
#     4  10  20  39  57  84 128 161 208 254 315 388
#     4  10  19  34  59  92 115 160 207 251 326 379
#     4  11  23  34  62  91 123 157 203 270 314 369
#     4  12  22  38  64  92 120 167 217 255 310 386
#     4   9  19  38  64  85 121 166 208 251 318 386
#
# _framework density 25.751930000000002
#
# number of rings (size 3 to 8) (size 9 to 14) (size 15 to 20)
#    0.000    2.000    4.286    4.286    0.000    1.714 
#    0.000    0.714    9.429    0.000    7.429    0.000 
#    0.000    0.000    0.000    0.000    0.000    0.000 
#
# Total GULP energy -156603.337080 kJ/mol
# GULP energy per Si atom -5592.976324 kJ/mol
# Density = 2.569332 g / cm^3
# Si number density = 25.751930 Si / 1000 Ang^3
#
#
#
# Elastic Constant Matrix: (Units=GPa)
#
#
# Indices 1 2 3 4 5 6 
#
# 1 193.4570 24.4711 47.1981 0.0000 2.6339 0.0000
# 2 24.4711 38.2455 3.5618 0.0000 7.5418 0.0000
# 3 47.1981 3.5618 165.8256 0.0000 4.4744 0.0000
# 4 0.0000 0.0000 0.0000 26.1766 0.0000 4.3422
# 5 2.6339 7.5418 4.4744 0.0000 32.2641 0.0000
# 6 0.0000 0.0000 0.0000 4.3422 0.0000 25.8126
#
#
#
# Elastic Compliance Matrix: (Units=1/GPa)
#
#
# Indices 1 2 3 4 5 6 
#
# 1 0.006051 -0.003842 -0.001657 0.000000 0.000634 0.000000
# 2 -0.003842 0.029879 0.000634 0.000000 -0.006759 0.000000
# 3 -0.001657 0.000634 0.006513 0.000000 -0.000916 0.000000
# 4 0.000000 0.000000 0.000000 0.039299 0.000000 -0.006611
# 5 0.000634 -0.006759 -0.000916 0.000000 0.032649 0.000000
# 6 0.000000 0.000000 0.000000 -0.006611 0.000000 0.039853
#
#
# Mechanical properties :
#
#
# Convention : Reuss Voigt Hill
#
# Bulk Modulus (GPa) = 30.56877 60.88779 45.72828
# Shear Modulus (GPa) = 28.59144 38.33714 33.46429
#
# Velocity S-wave (km/s) = 3.33568 3.86257 3.60875
# Velocity P-wave (km/s) = 5.17029 6.60211 5.92958
#
# Compressibility (1/GPa) = 0.03271313
#
# Stress axis : x y z
#
# Youngs Moduli (GPa) = 165.27043 33.46842 153.53710
#
# Poissons Ratio (x) = 0.12859 0.25437
# Poissons Ratio (y) = 0.63500 -0.09737
# Poissons Ratio (z) = 0.27381 -0.02122
#
# Static dielectric constant tensor:
#      x y z
#    x 2.080310 0.000000 0.031200 
#    y 0.000000 2.148200 0.000000 
#    z 0.031200 0.000000 2.061430 
# 
# From -- ./inp_files/232237.got.cif
#   From: 2010.05.17/outbox.cif.g08.bks.cpg/sg15_117_cif.got.tgz:232237.got - 2010.06.03 18:47:42.
