data_PCOD9263731
_publ_section_title
;
Structure prediction by ZEFSAII (Michael W. Deem and Ramdas Pophale) SiO2 
 PCOD9263731
Probable space group: C 2/C
;
_chemical_formula_sum "Si O2"
_cell_formula_units_Z 52
_cell_length_a 19.139510
_cell_length_b 9.596939
_cell_length_c 16.123899
_cell_angle_alpha 90.000000
_cell_angle_beta 66.323371
_cell_angle_gamma 90.000000
_cell_volume 2712.356753
_symmetry_space_group_name_H-M "C 2/C"
_symmetry_group_IT_number 15
_symmetry_cell_setting 'monoclinic'
loop_
_space_group_symop_operation_xyz
x,y,z
-x,y,1/2-z
-x,-y,-z
x,-y,1/2+z
1/2+x,1/2+y,z
1/2-x,1/2+y,1/2-z
1/2-x,1/2-y,-z
1/2+x,1/2-y,1/2+z
loop_
_atom_site_type_symbol
_atom_site_label
_atom_site_fract_x
_atom_site_fract_y
_atom_site_fract_z
Si Si1 0.771824 0.584758 0.942347
Si Si2 0.179726 0.608623 0.219351
Si Si3 0.118310 0.536322 0.986089
Si Si4 0.000000 0.728635 0.750000
Si Si5 0.030276 0.474617 0.857776
Si Si6 0.158558 0.864490 0.628597
Si Si7 0.251817 0.402087 0.318951
O O1 0.790235 0.446138 0.883008
O O2 0.793381 0.721512 0.879783
O O3 0.833307 0.581407 0.988702
O O4 0.688257 0.594117 0.022131
O O5 0.088249 0.606461 0.270693
O O6 0.211924 0.491937 0.266590
O O7 0.210960 0.759287 0.226290
O O8 0.073515 0.485364 0.925655
O O9 0.185593 0.632360 0.918126
O O10 0.052749 0.585909 0.080281
O O11 0.980513 0.624285 0.682483
O O12 0.927834 0.821089 0.811861
O O13 0.186787 0.992700 0.670541
#
# Coordination Sequence:
#
# PCOD9263731 Si02
#       7
#     8   8   8   4   8   8   8
#     4  10  19  37  60  87 117 158 203 249 299 360
#     4  11  21  38  62  89 121 160 209 251 303 361
#     4   9  19  35  55  90 115 153 200 251 292 355
#     4  12  20  38  64  90 122 166 200 246 306 366
#     4  10  19  34  59  90 115 159 205 249 290 366
#     4  10  21  36  60  88 119 158 200 245 304 358
#     4  10  23  38  60  89 121 160 204 256 302 361
#
# _framework density 19.171517999999999
#
# number of rings (size 3 to 8) (size 9 to 14) (size 15 to 20)
#    0.000    1.846    3.077    0.923    2.154    3.692 
#    0.000    3.846    0.000    1.846    0.000    0.000 
#    0.000    0.000    0.000    0.000    0.000    0.000 
#
# Total GULP energy -144754.972459 kJ/mol
# GULP energy per Si atom -5567.498941 kJ/mol
# Density = 1.912788 g / cm^3
# Si number density = 19.171518 Si / 1000 Ang^3
#
#
#
# Elastic Constant Matrix: (Units=GPa)
#
#
# Indices 1 2 3 4 5 6 
#
# 1 87.3601 37.6208 59.9341 0.0000 -29.5658 0.0000
# 2 37.6208 62.5753 30.1311 0.0000 -1.1317 0.0000
# 3 59.9341 30.1311 106.3656 0.0000 -27.7707 0.0000
# 4 0.0000 0.0000 0.0000 18.9689 0.0000 0.8389
# 5 -29.5658 -1.1317 -27.7707 0.0000 47.1007 0.0000
# 6 0.0000 0.0000 0.0000 0.8389 0.0000 27.7435
#
#
#
# Elastic Compliance Matrix: (Units=1/GPa)
#
#
# Indices 1 2 3 4 5 6 
#
# 1 0.025818 -0.011222 -0.008519 0.000000 0.010914 0.000000
# 2 -0.011222 0.023781 -0.002486 0.000000 -0.007939 0.000000
# 3 -0.008519 -0.002486 0.015950 0.000000 0.003996 0.000000
# 4 0.000000 0.000000 0.000000 0.052788 0.000000 -0.001596
# 5 0.010914 -0.007939 0.003996 0.000000 0.030247 0.000000
# 6 0.000000 0.000000 0.000000 -0.001596 0.000000 0.036093
#
#
# Mechanical properties :
#
#
# Convention : Reuss Voigt Hill
#
# Bulk Modulus (GPa) = 47.40771 56.85257 52.13014
# Shear Modulus (GPa) = 21.17175 27.33695 24.25435
#
# Velocity S-wave (km/s) = 3.32676 3.78022 3.56072
# Velocity P-wave (km/s) = 6.28795 6.98373 6.64495
#
# Compressibility (1/GPa) = 0.02109362
#
# Stress axis : x y z
#
# Youngs Moduli (GPa) = 38.73262 42.05000 62.69781
#
# Poissons Ratio (x) = 0.47191 0.53414
# Poissons Ratio (y) = 0.43468 0.15586
# Poissons Ratio (z) = 0.32997 0.10453
#
# Static dielectric constant tensor:
#      x y z
#    x 1.694060 0.000000 0.009510 
#    y 0.000000 1.634500 0.000000 
#    z 0.009510 0.000000 1.770340 
# 
# From -- ./inp_files/209021.got.cif
#   From: 2010.05.17/outbox.cif.g08.bks.cpg/sg15_105_cif.got.tgz:209021.got - 2010.06.03 18:47:42.
