data_PCOD9263494
_publ_section_title
;
Structure prediction by ZEFSAII (Michael W. Deem and Ramdas Pophale) SiO2 
 PCOD9263494
Probable space group: C 2/C
;
_chemical_formula_sum "Si O2"
_cell_formula_units_Z 44
_cell_length_a 27.467955
_cell_length_b 9.614283
_cell_length_c 22.749300
_cell_angle_alpha 90.000000
_cell_angle_beta 20.286644
_cell_angle_gamma 90.000000
_cell_volume 2082.986336
_symmetry_space_group_name_H-M "C 2/C"
_symmetry_group_IT_number 15
_symmetry_cell_setting 'monoclinic'
loop_
_space_group_symop_operation_xyz
x,y,z
-x,y,1/2-z
-x,-y,-z
x,-y,1/2+z
1/2+x,1/2+y,z
1/2-x,1/2+y,1/2-z
1/2-x,1/2-y,-z
1/2+x,1/2-y,1/2+z
loop_
_atom_site_type_symbol
_atom_site_label
_atom_site_fract_x
_atom_site_fract_y
_atom_site_fract_z
Si Si1 0.021578 0.767806 0.850885
Si Si2 0.242224 0.499503 0.914121
Si Si3 0.824467 0.045558 0.642509
Si Si4 0.945332 0.817688 0.125793
Si Si5 0.453366 0.988683 0.979652
Si Si6 0.500000 0.876301 0.250000
O O1 0.153277 0.868775 0.711487
O O2 0.014138 0.716985 0.792223
O O3 0.881261 0.853431 0.027257
O O4 0.031444 0.634490 0.882186
O O5 0.346899 0.628941 0.790370
O O6 0.138442 0.513703 0.976448
O O7 0.139456 0.469996 0.084629
O O8 0.878758 0.124577 0.640329
O O9 0.662382 0.014426 0.837662
O O10 0.906392 0.899861 0.541150
O O11 0.963996 0.654565 0.109584
#
# Coordination Sequence:
#
# PCOD9263494 Si02
#       6
#     8   8   8   8   8   4
#     4  10  20  35  59  86 115 150 193 236 276 332
#     4   9  20  38  56  80 112 147 192 238 276 331
#     4   9  18  33  54  83 116 146 182 227 278 343
#     4   9  18  34  55  81 115 148 180 229 287 341
#     4  10  19  34  57  84 115 150 179 224 292 340
#     4  10  20  38  62  80 108 156 198 238 280 322
#
# _framework density 21.123518000000001
#
# number of rings (size 3 to 8) (size 9 to 14) (size 15 to 20)
#    0.000    2.545    0.000    2.727    0.000    3.636 
#    0.000   18.182    0.000   18.545    0.000    0.000 
#    0.000    0.000    0.000    0.000    0.000    0.000 
#
# Total GULP energy -122827.740064 kJ/mol
# GULP energy per Si atom -5583.079094 kJ/mol
# Density = 2.107544 g / cm^3
# Si number density = 21.123518 Si / 1000 Ang^3
#
#
#
# Elastic Constant Matrix: (Units=GPa)
#
#
# Indices 1 2 3 4 5 6 
#
# 1 59.7072 33.4438 4.3203 0.0000 17.8544 0.0000
# 2 33.4438 163.8123 82.6674 0.0001 1.5112 0.0000
# 3 4.3203 82.6674 139.9739 0.0000 20.3065 -0.0001
# 4 0.0000 0.0001 0.0000 26.2622 -0.0001 8.2945
# 5 17.8544 1.5112 20.3065 -0.0001 28.8581 0.0000
# 6 0.0000 0.0000 -0.0001 8.2945 0.0000 36.4871
#
#
#
# Elastic Compliance Matrix: (Units=1/GPa)
#
#
# Indices 1 2 3 4 5 6 
#
# 1 0.028428 -0.009718 0.008174 0.000000 -0.022831 0.000000
# 2 -0.009718 0.012352 -0.008657 0.000000 0.011458 0.000000
# 3 0.008174 -0.008657 0.014113 0.000000 -0.014535 0.000000
# 4 0.000000 0.000000 0.000000 0.041023 0.000000 -0.009326
# 5 -0.022831 0.011458 -0.014535 0.000000 0.058406 0.000000
# 6 0.000000 0.000000 0.000000 -0.009326 0.000000 0.029527
#
#
# Mechanical properties :
#
#
# Convention : Reuss Voigt Hill
#
# Bulk Modulus (GPa) = 28.99332 67.15071 48.07202
# Shear Modulus (GPa) = 23.17527 34.52562 28.85044
#
# Velocity S-wave (km/s) = 3.31589 4.04724 3.69968
# Velocity P-wave (km/s) = 5.33063 7.32794 6.40759
#
# Compressibility (1/GPa) = 0.03449071
#
# Stress axis : x y z
#
# Youngs Moduli (GPa) = 35.17695 80.96072 70.85506
#
# Poissons Ratio (x) = 0.78680 -0.57919
# Poissons Ratio (y) = 0.34186 0.61339
# Poissons Ratio (z) = -0.28755 0.70088
#
# Static dielectric constant tensor:
#      x y z
#    x 1.793080 0.000000 -0.016700 
#    y 0.000000 1.744280 0.000000 
#    z -0.016700 0.000000 1.802380 
# 
# From -- ./inp_files/110101.got.cif
#   From: 2010.05.17/outbox.cif.g08.bks.cpg/sg15_56_cif.got.tgz:110101.got - 2010.06.03 18:47:42.
