data_PCOD9263045
_publ_section_title
;
Structure prediction by ZEFSAII (Michael W. Deem and Ramdas Pophale) SiO2 
 PCOD9263045
Probable space group: C 2/C
;
_chemical_formula_sum "Si O2"
_cell_formula_units_Z 48
_cell_length_a 11.321938
_cell_length_b 23.569345
_cell_length_c 8.962854
_cell_angle_alpha 90.000000
_cell_angle_beta 74.043712
_cell_angle_gamma 90.000000
_cell_volume 2299.593730
_symmetry_space_group_name_H-M "C 2/C"
_symmetry_group_IT_number 15
_symmetry_cell_setting 'monoclinic'
loop_
_space_group_symop_operation_xyz
x,y,z
-x,y,1/2-z
-x,-y,-z
x,-y,1/2+z
1/2+x,1/2+y,z
1/2-x,1/2+y,1/2-z
1/2-x,1/2-y,-z
1/2+x,1/2-y,1/2+z
loop_
_atom_site_type_symbol
_atom_site_label
_atom_site_fract_x
_atom_site_fract_y
_atom_site_fract_z
Si Si1 0.187767 0.688138 0.691392
Si Si2 0.642880 0.717614 0.627675
Si Si3 0.365065 0.976493 0.996159
Si Si4 0.521624 0.199812 0.490179
Si Si5 0.500000 0.392586 0.250000
Si Si6 0.500000 0.889744 0.750000
Si Si7 0.723972 0.564009 0.840179
O O1 0.297541 0.721649 0.729637
O O2 0.123681 0.716412 0.573751
O O3 0.234603 0.626752 0.626541
O O4 0.088508 0.679495 0.859885
O O5 0.750000 0.750000 0.500000
O O6 0.530255 0.750402 0.593722
O O7 0.598548 0.651360 0.638409
O O8 0.397417 0.928642 0.862642
O O9 0.273519 0.021328 0.949311
O O10 0.298979 0.952486 0.164922
O O11 0.500000 0.000000 0.000000
O O12 0.552803 0.149792 0.363622
O O13 0.418585 0.429471 0.162690
#
# Coordination Sequence:
#
# PCOD9263045 Si02
#       7
#     8   8   8   8   4   4   8
#     4   9  19  35  60  87 123 165 208 261 322 390
#     4   9  19  39  63  92 124 166 214 260 315 405
#     4  12  23  38  62  94 128 166 226 280 328 381
#     4  10  19  33  60  91 124 158 210 262 329 376
#     4  10  23  44  64  90 132 180 213 262 344 402
#     4  12  21  32  56  94 124 154 209 288 322 372
#     4  11  23  40  64  90 129 176 219 270 336 392
#
# _framework density 20.873252000000001
#
# number of rings (size 3 to 8) (size 9 to 14) (size 15 to 20)
#    0.000    1.667    3.333    1.500    2.333    0.667 
#    0.000    9.167    0.000    4.000    0.000    0.000 
#    0.000    0.000    0.000    0.000    0.000    0.000 
#
# Total GULP energy -133695.407154 kJ/mol
# GULP energy per Si atom -5570.641965 kJ/mol
# Density = 2.082574 g / cm^3
# Si number density = 20.873252 Si / 1000 Ang^3
#
#
#
# Elastic Constant Matrix: (Units=GPa)
#
#
# Indices 1 2 3 4 5 6 
#
# 1 169.8135 40.8527 44.1827 0.0000 35.5926 0.0000
# 2 40.8527 62.6761 26.4832 0.0000 29.6469 0.0000
# 3 44.1827 26.4832 95.5351 0.0000 25.0972 0.0000
# 4 0.0000 0.0000 0.0000 23.6194 0.0000 5.6763
# 5 35.5926 29.6469 25.0972 0.0000 48.2025 0.0000
# 6 0.0000 0.0000 0.0000 5.6763 0.0000 42.6054
#
#
#
# Elastic Compliance Matrix: (Units=1/GPa)
#
#
# Indices 1 2 3 4 5 6 
#
# 1 0.007696 -0.002781 -0.002021 0.000000 -0.002920 0.000000
# 2 -0.002781 0.024281 -0.002388 0.000000 -0.011638 0.000000
# 3 -0.002021 -0.002388 0.013074 0.000000 -0.003846 0.000000
# 4 0.000000 0.000000 0.000000 0.043739 0.000000 -0.005827
# 5 -0.002920 -0.011638 -0.003846 0.000000 0.032062 0.000000
# 6 0.000000 0.000000 0.000000 -0.005827 0.000000 0.024248
#
#
# Mechanical properties :
#
#
# Convention : Reuss Voigt Hill
#
# Bulk Modulus (GPa) = 32.60314 61.22910 46.91612
# Shear Modulus (GPa) = 29.46317 37.31918 33.39118
#
# Velocity S-wave (km/s) = 3.76111 4.23294 4.00398
# Velocity P-wave (km/s) = 5.87492 7.29985 6.62580
#
# Compressibility (1/GPa) = 0.03067189
#
# Stress axis : x y z
#
# Youngs Moduli (GPa) = 129.94303 41.18377 76.48518
#
# Poissons Ratio (x) = 0.11453 0.15459
# Poissons Ratio (y) = 0.36137 0.18262
# Poissons Ratio (z) = 0.26263 0.09833
#
# Static dielectric constant tensor:
#      x y z
#    x 1.826360 0.000000 -0.040030 
#    y 0.000000 1.673300 0.000000 
#    z -0.040030 0.000000 1.724540 
# 
# From -- ./inp_files/31938.got.cif
#   From: 2010.05.17/outbox.cif.g08.bks.cpg/sg15_16_cif.got.tgz:31938.got - 2010.06.03 18:47:42.
