data_PCOD9263244
_publ_section_title
;
Structure prediction by ZEFSAII (Michael W. Deem and Ramdas Pophale) SiO2 
 PCOD9263244
Probable space group: C 2/C
;
_chemical_formula_sum "Si O2"
_cell_formula_units_Z 52
_cell_length_a 12.751631
_cell_length_b 20.395815
_cell_length_c 14.510598
_cell_angle_alpha 90.000000
_cell_angle_beta 55.680409
_cell_angle_gamma 90.000000
_cell_volume 3116.897366
_symmetry_space_group_name_H-M "C 2/C"
_symmetry_group_IT_number 15
_symmetry_cell_setting 'monoclinic'
loop_
_space_group_symop_operation_xyz
x,y,z
-x,y,1/2-z
-x,-y,-z
x,-y,1/2+z
1/2+x,1/2+y,z
1/2-x,1/2+y,1/2-z
1/2-x,1/2-y,-z
1/2+x,1/2-y,1/2+z
loop_
_atom_site_type_symbol
_atom_site_label
_atom_site_fract_x
_atom_site_fract_y
_atom_site_fract_z
Si Si1 0.397336 0.413292 0.883700
Si Si2 0.000000 0.147352 0.750000
Si Si3 0.004170 0.249787 0.907533
Si Si4 0.536786 0.107573 0.126406
Si Si5 0.398601 0.646142 0.088345
Si Si6 0.812662 0.060707 0.959581
Si Si7 0.199113 0.351202 0.852907
O O1 0.500000 0.419741 0.750000
O O2 0.470307 0.376405 0.929350
O O3 0.352889 0.485481 0.933716
O O4 0.278625 0.373683 0.900932
O O5 0.038144 0.195464 0.814723
O O6 0.113421 0.101765 0.655988
O O7 0.127020 0.281872 0.894807
O O8 0.939164 0.313280 0.892047
O O9 0.916886 0.213879 0.024928
O O10 0.500000 0.091881 0.250000
O O11 0.414378 0.099494 0.121148
O O12 0.661610 0.070900 0.031042
O O13 0.293989 0.651789 0.219343
O O14 0.356533 0.592464 0.034465
#
# Coordination Sequence:
#
# PCOD9263244 Si02
#       7
#     8   4   8   8   8   8   8
#     4  10  21  38  52  75 108 143 185 211 257 320
#     4  10  20  30  54  84 110 128 170 236 270 304
#     4   9  19  32  51  82 106 133 176 212 273 313
#     4  10  19  34  54  82 105 139 169 221 270 319
#     4  10  20  33  57  77 104 146 171 223 263 308
#     4  11  20  34  57  80 108 135 179 224 266 311
#     4   9  20  36  53  78 106 143 174 216 265 320
#
# _framework density 16.683257000000001
#
# number of rings (size 3 to 8) (size 9 to 14) (size 15 to 20)
#    0.923    1.231    3.077    0.462    2.154    2.462 
#    0.000    0.000    0.000    1.846    0.000    0.000 
#    0.000    0.000    0.000    0.000    0.000    0.000 
#
# Total GULP energy -144786.154884 kJ/mol
# GULP energy per Si atom -5568.698265 kJ/mol
# Density = 1.664528 g / cm^3
# Si number density = 16.683257 Si / 1000 Ang^3
#
#
#
# Elastic Constant Matrix: (Units=GPa)
#
#
# Indices 1 2 3 4 5 6 
#
# 1 83.5765 -10.6532 0.9428 0.0000 -15.4382 0.0000
# 2 -10.6532 25.9716 -7.4616 0.0000 -9.5949 0.0000
# 3 0.9428 -7.4616 33.8882 0.0000 -12.2626 0.0000
# 4 0.0000 0.0000 0.0000 2.7884 0.0000 -5.2994
# 5 -15.4382 -9.5949 -12.2626 0.0000 19.8670 0.0000
# 6 0.0000 0.0000 0.0000 -5.2994 0.0000 9.8041
#
#
#
# Elastic Compliance Matrix: (Units=1/GPa)
#
#
# Indices 1 2 3 4 5 6 
#
# 1 0.029397 0.045467 0.032712 0.000000 0.064993 0.000000
# 2 0.045467 0.139137 0.085587 0.000000 0.155357 0.000000
# 3 0.032712 0.085587 0.092190 0.000000 0.123657 0.000000
# 4 0.000000 0.000000 0.000000-13.131383 -0.000001 -7.097917
# 5 0.064993 0.155357 0.123657 -0.000001 0.252196 -0.000001
# 6 0.000000 0.000000 0.000000 -7.097917 -0.000001 -3.734645
#
#
# Mechanical properties :
#
#
# Convention : Reuss Voigt Hill
#
# Bulk Modulus (GPa) = 1.69994 12.12134 6.91064
# Shear Modulus (GPa) = -0.30331 17.19912 8.44790
#
# Velocity S-wave (km/s) = -0.42685 3.21428 2.25271
# Velocity P-wave (km/s) = 0.88217 4.58877 3.30417
#
# Compressibility (1/GPa) = 0.58825712
#
# Stress axis : x y z
#
# Youngs Moduli (GPa) = 34.01681 7.18714 10.84718
#
# Poissons Ratio (x) = -0.32678 -0.35483
# Poissons Ratio (y) = -1.54665 -0.92838
# Poissons Ratio (z) = -1.11274 -0.61513
#
# Static dielectric constant tensor:
#      x y z
#    x 1.570640 0.000000 -0.003810 
#    y 0.000000 1.541490 0.000000 
#    z -0.003810 0.000000 1.547770 
# 
# From -- ./inp_files/147631.got.cif
#   From: 2010.05.17/outbox.cif.g08.bks.cpg/sg15_74_cif.got.tgz:147631.got - 2010.06.03 18:47:42.
