data_PCOD9263383
_publ_section_title
;
Structure prediction by ZEFSAII (Michael W. Deem and Ramdas Pophale) SiO2 
 PCOD9263383
Probable space group: C 2/C
;
_chemical_formula_sum "Si O2"
_cell_formula_units_Z 32
_cell_length_a 24.664345
_cell_length_b 6.844470
_cell_length_c 9.297129
_cell_angle_alpha 90.000000
_cell_angle_beta 46.828579
_cell_angle_gamma 90.000000
_cell_volume 1144.643980
_symmetry_space_group_name_H-M "C 2/C"
_symmetry_group_IT_number 15
_symmetry_cell_setting 'monoclinic'
loop_
_space_group_symop_operation_xyz
x,y,z
-x,y,1/2-z
-x,-y,-z
x,-y,1/2+z
1/2+x,1/2+y,z
1/2-x,1/2+y,1/2-z
1/2-x,1/2-y,-z
1/2+x,1/2-y,1/2+z
loop_
_atom_site_type_symbol
_atom_site_label
_atom_site_fract_x
_atom_site_fract_y
_atom_site_fract_z
Si Si1 0.536584 0.740068 0.883265
Si Si2 0.167168 0.506579 0.103040
Si Si3 0.749840 0.847956 0.728276
Si Si4 0.407907 0.464815 0.492697
O O1 0.580226 0.937642 0.768814
O O2 0.559835 0.661691 0.996475
O O3 0.572521 0.578846 0.707773
O O4 0.450971 0.712061 0.997747
O O5 0.204272 0.529493 0.191150
O O6 0.206726 0.681236 0.939538
O O7 0.191390 0.320124 0.965796
O O8 0.820815 0.952530 0.673071
#
# Coordination Sequence:
#
# PCOD9263383 Si02
#       4
#     8   8   8   8
#     4   9  18  32  52  80 111 140 180 230 274 323
#     4  10  21  35  54  83 115 144 185 231 277 328
#     4  10  19  34  56  82 111 143 184 232 276 329
#     4   9  16  30  54  79 107 141 179 223 273 325
#
# _framework density 27.956292999999999
#
# number of rings (size 3 to 8) (size 9 to 14) (size 15 to 20)
#    0.000    2.500    0.000    4.500    0.000    1.000 
#    0.000    5.000    0.000   37.500    0.000   28.000 
#    0.000    0.000    0.000    0.000    0.000    0.000 
#
# Total GULP energy -89445.345481 kJ/mol
# GULP energy per Si atom -5590.334093 kJ/mol
# Density = 2.789266 g / cm^3
# Si number density = 27.956293 Si / 1000 Ang^3
#
#
#
# Elastic Constant Matrix: (Units=GPa)
#
#
# Indices 1 2 3 4 5 6 
#
# 1 132.7972 0.7458 37.5481 0.0000 -15.0552 0.0000
# 2 0.7458 57.4283 19.5559 0.0000 0.5499 0.0000
# 3 37.5481 19.5559 64.3680 0.0000 -7.5027 0.0000
# 4 0.0000 0.0000 0.0000 60.5811 0.0000 3.7040
# 5 -15.0552 0.5499 -7.5027 0.0000 65.6702 0.0000
# 6 0.0000 0.0000 0.0000 3.7040 0.0000 28.4536
#
#
#
# Elastic Compliance Matrix: (Units=1/GPa)
#
#
# Indices 1 2 3 4 5 6 
#
# 1 0.009336 0.001853 -0.005839 0.000000 0.001458 0.000000
# 2 0.001853 0.019837 -0.007173 0.000000 -0.000561 0.000000
# 3 -0.005839 -0.007173 0.021255 0.000000 0.001150 0.000000
# 4 0.000000 0.000000 0.000000 0.016639 0.000000 -0.002166
# 5 0.001458 -0.000561 0.001150 0.000000 0.015698 0.000000
# 6 0.000000 0.000000 0.000000 -0.002166 0.000000 0.035427
#
#
# Mechanical properties :
#
#
# Convention : Reuss Voigt Hill
#
# Bulk Modulus (GPa) = 35.57451 41.14366 38.35908
# Shear Modulus (GPa) = 33.35986 44.05722 38.70854
#
# Velocity S-wave (km/s) = 3.45814 3.97411 3.72507
# Velocity P-wave (km/s) = 5.35702 5.98391 5.67912
#
# Compressibility (1/GPa) = 0.02811002
#
# Stress axis : x y z
#
# Youngs Moduli (GPa) = 107.11045 50.41090 47.04728
#
# Poissons Ratio (x) = -0.09342 0.27472
# Poissons Ratio (y) = -0.19850 0.33748
# Poissons Ratio (z) = 0.62544 0.36161
#
# Static dielectric constant tensor:
#      x y z
#    x 2.078770 0.000000 -0.013490 
#    y 0.000000 2.460630 0.000000 
#    z -0.013490 0.000000 2.200850 
# 
# From -- ./inp_files/121024.got.cif
#   From: 2010.05.17/outbox.cif.g08.bks.cpg/sg15_61_cif.got.tgz:121024.got - 2010.06.03 18:47:42.
