data_PCOD9263956
_publ_section_title
;
Structure prediction by ZEFSAII (Michael W. Deem and Ramdas Pophale) SiO2 
 PCOD9263956
Probable space group: C 2/C
;
_chemical_formula_sum "Si O2"
_cell_formula_units_Z 52
_cell_length_a 16.764210
_cell_length_b 26.008213
_cell_length_c 8.865479
_cell_angle_alpha 90.000000
_cell_angle_beta 137.402494
_cell_angle_gamma 90.000000
_cell_volume 2616.280765
_symmetry_space_group_name_H-M "C 2/C"
_symmetry_group_IT_number 15
_symmetry_cell_setting 'monoclinic'
loop_
_space_group_symop_operation_xyz
x,y,z
-x,y,1/2-z
-x,-y,-z
x,-y,1/2+z
1/2+x,1/2+y,z
1/2-x,1/2+y,1/2-z
1/2-x,1/2-y,-z
1/2+x,1/2-y,1/2+z
loop_
_atom_site_type_symbol
_atom_site_label
_atom_site_fract_x
_atom_site_fract_y
_atom_site_fract_z
Si Si1 0.000000 0.836766 0.250000
Si Si2 0.500000 0.679862 0.250000
Si Si3 0.500000 0.519178 0.250000
Si Si4 0.362898 0.941808 0.602185
Si Si5 0.355090 0.270673 0.287472
Si Si6 0.241865 0.979487 0.717982
Si Si7 0.103028 0.100470 0.174609
Si Si8 0.135061 0.322687 0.888291
O O1 0.910102 0.800374 0.217757
O O2 0.057412 0.872673 0.458549
O O3 0.566080 0.713872 0.463573
O O4 0.593436 0.643713 0.290702
O O5 0.618173 0.488380 0.456681
O O6 0.522980 0.555316 0.136331
O O7 0.500000 0.945365 0.750000
O O8 0.339126 0.967485 0.729528
O O9 0.328964 0.881930 0.568473
O O10 0.281570 0.971296 0.368433
O O11 0.353887 0.210524 0.248821
O O12 0.224166 0.293027 0.123065
O O13 0.221153 0.930397 0.797939
O O14 0.000000 0.320345 0.750000
#
# Coordination Sequence:
#
# PCOD9263956 Si02
#       8
#     4   4   4   8   8   8   8   8
#     4  10  19  34  67  94 124 159 200 247 324 386
#     4   9  22  38  63 100 134 155 192 258 329 376
#     4  11  23  36  56 100 130 162 192 261 323 360
#     4  11  26  43  65  83 123 173 223 250 297 358
#     4  10  20  40  68  90 126 156 202 260 318 374
#     4  12  23  40  62  91 129 164 207 260 306 370
#     4  10  21  34  58  98 133 155 194 247 325 379
#     4  10  22  40  64  90 117 167 214 251 300 379
#
# _framework density 19.875541999999999
#
# number of rings (size 3 to 8) (size 9 to 14) (size 15 to 20)
#    0.000    1.538    2.308    2.308    8.615    0.000 
#    0.000    0.769    8.462    0.000    0.000    0.000 
#    0.000    0.000    0.000    0.000    0.000    0.000 
#
# Total GULP energy -145123.960688 kJ/mol
# GULP energy per Si atom -5581.690796 kJ/mol
# Density = 1.983030 g / cm^3
# Si number density = 19.875542 Si / 1000 Ang^3
#
#
#
# Elastic Constant Matrix: (Units=GPa)
#
#
# Indices 1 2 3 4 5 6 
#
# 1 94.9371 41.0209 35.7069 0.0000 -13.5996 0.0000
# 2 41.0209 139.8232 61.1825 0.0000 -12.4184 0.0000
# 3 35.7069 61.1825 90.1959 0.0000 -6.1353 0.0000
# 4 0.0000 0.0000 0.0000 22.8580 0.0000 11.1539
# 5 -13.5996 -12.4184 -6.1353 0.0000 28.3065 0.0000
# 6 0.0000 0.0000 0.0000 11.1539 0.0000 -28.8931
#
#
#
# Elastic Compliance Matrix: (Units=1/GPa)
#
#
# Indices 1 2 3 4 5 6 
#
# 1 0.013436 -0.001891 -0.003708 0.000000 0.004822 0.000000
# 2 -0.001891 0.010696 -0.006343 0.000000 0.002409 0.000000
# 3 -0.003708 -0.006343 0.016795 0.000000 -0.000924 0.000000
# 4 0.000000 0.000000 0.000000 0.036814 0.000000 0.014212
# 5 0.004822 0.002409 -0.000924 0.000000 0.038501 0.000000
# 6 0.000000 0.000000 0.000000 0.014212 0.000000 -0.029124
#
#
# Mechanical properties :
#
#
# Convention : Reuss Voigt Hill
#
# Bulk Modulus (GPa) = 58.67778 66.75296 62.71537
# Shear Modulus (GPa) = 42.85138 16.92402 29.88770
#
# Velocity S-wave (km/s) = 4.64830 2.92121 3.88202
# Velocity P-wave (km/s) = 7.64170 6.71091 7.19138
#
# Compressibility (1/GPa) = 0.01704223
#
# Stress axis : x y z
#
# Youngs Moduli (GPa) = 74.42821 93.49175 59.54195
#
# Poissons Ratio (x) = 0.17678 0.22080
# Poissons Ratio (y) = 0.14073 0.37768
# Poissons Ratio (z) = 0.27601 0.59303
#
# Static dielectric constant tensor:
#      x y z
#    x 1.727340 0.000000 0.005160 
#    y 0.000000 1.718950 0.000000 
#    z 0.005160 0.000000 1.677930 
# 
# From -- ./inp_files/43680.got.cif
#   From: 2010.05.17/outbox.cif.g08.bks.cpg/sg15_22_cif.got.tgz:43680.got - 2010.06.03 18:47:42.
