data_PCOD9263225
_publ_section_title
;
Structure prediction by ZEFSAII (Michael W. Deem and Ramdas Pophale) SiO2 
 PCOD9263225
Probable space group: C 2/C
;
_chemical_formula_sum "Si O2"
_cell_formula_units_Z 64
_cell_length_a 7.174981
_cell_length_b 14.827336
_cell_length_c 28.116072
_cell_angle_alpha 90.000000
_cell_angle_beta 69.064753
_cell_angle_gamma 90.000000
_cell_volume 2793.690936
_symmetry_space_group_name_H-M "C 2/C"
_symmetry_group_IT_number 15
_symmetry_cell_setting 'monoclinic'
loop_
_space_group_symop_operation_xyz
x,y,z
-x,y,1/2-z
-x,-y,-z
x,-y,1/2+z
1/2+x,1/2+y,z
1/2-x,1/2+y,1/2-z
1/2-x,1/2-y,-z
1/2+x,1/2-y,1/2+z
loop_
_atom_site_type_symbol
_atom_site_label
_atom_site_fract_x
_atom_site_fract_y
_atom_site_fract_z
Si Si1 0.934293 0.733153 0.180291
Si Si2 0.462945 0.867277 0.380860
Si Si3 0.671598 0.739496 0.290046
Si Si4 0.005571 0.106649 0.896259
Si Si5 0.226145 0.143590 0.492746
Si Si6 0.414075 0.707254 0.451137
Si Si7 0.959118 0.914601 0.637467
Si Si8 0.456622 0.928634 0.886697
O O1 0.740270 0.753919 0.229799
O O2 0.000119 0.805171 0.135161
O O3 0.122482 0.733139 0.198543
O O4 0.906078 0.640171 0.154640
O O5 0.543608 0.819108 0.325909
O O6 0.223024 0.880882 0.401198
O O7 0.514984 0.795698 0.417650
O O8 0.534191 0.969486 0.379573
O O9 0.575263 0.642833 0.311943
O O10 0.993288 0.019267 0.864139
O O11 0.839833 0.098861 0.952288
O O12 0.250000 0.250000 0.500000
O O13 0.403424 0.102597 0.445198
O O14 0.039267 0.143725 0.474388
O O15 0.250000 0.750000 0.500000
O O16 0.382839 0.642721 0.408558
O O17 0.750970 0.918453 0.625317
#
# Coordination Sequence:
#
# PCOD9263225 Si02
#       8
#     8   8   8   8   8   8   8   8
#     4  10  20  38  61  79 108 146 184 229 278 327
#     4  10  21  36  57  85 111 142 187 227 271 327
#     4   9  20  40  59  79 108 146 182 229 282 328
#     4  11  21  34  58  87 109 142 187 230 271 320
#     4  11  21  35  55  81 116 148 182 223 269 326
#     4  10  19  34  54  78 113 149 178 219 273 321
#     4   8  19  34  55  80 108 141 187 223 264 331
#     4   9  19  35  56  81 110 147 186 221 265 331
#
# _framework density 22.908761999999999
#
# number of rings (size 3 to 8) (size 9 to 14) (size 15 to 20)
#    0.000    2.250    2.500    0.750    1.750    3.000 
#    0.000    6.875    0.000    0.000    0.000    0.000 
#    0.000    0.000    0.000    0.000    0.000    0.000 
#
# Total GULP energy -178584.120226 kJ/mol
# GULP energy per Si atom -5580.753757 kJ/mol
# Density = 2.285662 g / cm^3
# Si number density = 22.908762 Si / 1000 Ang^3
#
#
#
# Elastic Constant Matrix: (Units=GPa)
#
#
# Indices 1 2 3 4 5 6 
#
# 1 54.1634 -12.4361 10.8840 0.0000 -5.4740 0.0000
# 2 -12.4361 142.1049 50.4563 0.0000 -3.6323 0.0000
# 3 10.8840 50.4563 153.1298 0.0000 -15.4223 0.0000
# 4 0.0000 0.0000 0.0000 17.0547 0.0000 -5.1295
# 5 -5.4740 -3.6323 -15.4223 0.0000 27.3241 0.0000
# 6 0.0000 0.0000 0.0000 -5.1295 0.0000 13.9836
#
#
#
# Elastic Compliance Matrix: (Units=1/GPa)
#
#
# Indices 1 2 3 4 5 6 
#
# 1 0.019739 0.002483 -0.001898 0.000000 0.003213 0.000000
# 2 0.002483 0.008287 -0.002912 0.000000 -0.000044 0.000000
# 3 -0.001898 -0.002912 0.008002 0.000000 0.003749 0.000000
# 4 0.000000 0.000000 0.000000 0.065906 0.000000 0.024176
# 5 0.003213 -0.000044 0.003749 0.000000 0.039352 0.000000
# 6 0.000000 0.000000 0.000000 0.024176 0.000000 0.080380
#
#
# Mechanical properties :
#
#
# Convention : Reuss Voigt Hill
#
# Bulk Modulus (GPa) = 31.87091 49.68961 40.78026
# Shear Modulus (GPa) = 21.11690 31.70542 26.41116
#
# Velocity S-wave (km/s) = 3.03938 3.72423 3.39910
# Velocity P-wave (km/s) = 5.12440 6.34275 5.76585
#
# Compressibility (1/GPa) = 0.03137657
#
# Stress axis : x y z
#
# Youngs Moduli (GPa) = 50.66137 120.67046 124.96473
#
# Poissons Ratio (x) = -0.29966 0.23713
# Poissons Ratio (y) = -0.12581 0.36384
# Poissons Ratio (z) = 0.09614 0.35134
#
# Static dielectric constant tensor:
#      x y z
#    x 2.102480 0.000000 0.001800 
#    y 0.000000 1.837360 0.000000 
#    z 0.001800 0.000000 1.857460 
# 
# From -- ./inp_files/308019.got.cif
#   From: 2010.05.17/outbox.cif.g08.bks.cpg/sg15_155_cif.got.tgz:308019.got - 2010.06.03 18:47:42.
