data_PCOD9263127
_publ_section_title
;
Structure prediction by ZEFSAII (Michael W. Deem and Ramdas Pophale) SiO2 
 PCOD9263127
Probable space group: C 2/C
;
_chemical_formula_sum "Si O2"
_cell_formula_units_Z 48
_cell_length_a 19.116315
_cell_length_b 13.500519
_cell_length_c 10.468288
_cell_angle_alpha 90.000000
_cell_angle_beta 108.190905
_cell_angle_gamma 90.000000
_cell_volume 2566.633115
_symmetry_space_group_name_H-M "C 2/C"
_symmetry_group_IT_number 15
_symmetry_cell_setting 'monoclinic'
loop_
_space_group_symop_operation_xyz
x,y,z
-x,y,1/2-z
-x,-y,-z
x,-y,1/2+z
1/2+x,1/2+y,z
1/2-x,1/2+y,1/2-z
1/2-x,1/2-y,-z
1/2+x,1/2-y,1/2+z
loop_
_atom_site_type_symbol
_atom_site_label
_atom_site_fract_x
_atom_site_fract_y
_atom_site_fract_z
Si Si1 0.409633 0.895443 0.401317
Si Si2 0.867364 0.308426 0.117133
Si Si3 0.801007 0.699457 0.213809
Si Si4 0.748275 0.400821 0.426728
Si Si5 0.777842 0.878046 0.573561
Si Si6 0.445200 0.120212 0.405370
O O1 0.402647 0.825448 0.274754
O O2 0.329522 0.913076 0.413832
O O3 0.468454 0.855990 0.538087
O O4 0.437564 0.003469 0.373716
O O5 0.845554 0.193997 0.080292
O O6 0.788262 0.364653 0.066327
O O7 0.916106 0.354632 0.032264
O O8 0.791004 0.814360 0.174883
O O9 0.758682 0.666155 0.317924
O O10 0.886745 0.673964 0.281811
O O11 0.763177 0.638962 0.077629
O O12 0.708002 0.506151 0.403257
#
# Coordination Sequence:
#
# PCOD9263127 Si02
#       6
#     8   8   8   8   8   8
#     4  11  20  33  53  82 114 139 171 224 278 323
#     4  10  19  34  51  79 109 142 182 219 263 323
#     4  10  21  36  50  80 111 139 183 221 273 325
#     4  11  21  34  56  81 109 143 178 225 275 324
#     4  10  20  32  57  79 106 143 183 227 262 318
#     4  10  22  33  53  82 111 143 176 219 273 331
#
# _framework density 18.701542
#
# number of rings (size 3 to 8) (size 9 to 14) (size 15 to 20)
#    0.000    1.667    5.000    1.500    0.000    0.667 
#    0.000    0.000    0.000    1.000    8.667    0.000 
#    0.000    0.000    0.000    0.000    0.000    0.000 
#
# Total GULP energy -133954.558477 kJ/mol
# GULP energy per Si atom -5581.439937 kJ/mol
# Density = 1.865898 g / cm^3
# Si number density = 18.701542 Si / 1000 Ang^3
#
#
#
# Elastic Constant Matrix: (Units=GPa)
#
#
# Indices 1 2 3 4 5 6 
#
# 1 29.4447 10.1127 12.6016 0.0000 9.4609 0.0000
# 2 10.1127 133.3525 29.0539 0.0000 15.6009 0.0000
# 3 12.6016 29.0539 64.2725 0.0000 17.4922 0.0000
# 4 0.0000 0.0000 0.0000 20.6820 0.0000 5.0387
# 5 9.4609 15.6009 17.4922 0.0000 29.9539 0.0000
# 6 0.0000 0.0000 0.0000 5.0387 0.0000 17.7299
#
#
#
# Elastic Compliance Matrix: (Units=1/GPa)
#
#
# Indices 1 2 3 4 5 6 
#
# 1 0.039256 -0.000857 -0.004823 0.000000 -0.009136 0.000000
# 2 -0.000857 0.008503 -0.003025 0.000000 -0.002391 0.000000
# 3 -0.004823 -0.003025 0.020246 0.000000 -0.008725 0.000000
# 4 0.000000 0.000000 0.000000 0.051948 0.000000 -0.014763
# 5 -0.009136 -0.002391 -0.008725 0.000000 0.042611 0.000000
# 6 0.000000 0.000000 0.000000 -0.014763 0.000000 0.060598
#
#
# Mechanical properties :
#
#
# Convention : Reuss Voigt Hill
#
# Bulk Modulus (GPa) = 19.76469 36.73400 28.24935
# Shear Modulus (GPa) = 19.42236 25.35992 22.39114
#
# Velocity S-wave (km/s) = 3.22614 3.68643 3.46394
# Velocity P-wave (km/s) = 4.94659 6.14854 5.58002
#
# Compressibility (1/GPa) = 0.05059528
#
# Stress axis : x y z
#
# Youngs Moduli (GPa) = 25.47383 117.60973 49.39244
#
# Poissons Ratio (x) = 0.10084 0.23820
# Poissons Ratio (y) = 0.02184 0.14939
# Poissons Ratio (z) = 0.12285 0.35573
#
# Static dielectric constant tensor:
#      x y z
#    x 1.658800 0.000000 -0.003840 
#    y 0.000000 1.654920 0.000000 
#    z -0.003840 0.000000 1.681740 
# 
# From -- ./inp_files/111213.got.cif
#   From: 2010.05.17/outbox.cif.g08.bks.cpg/sg15_56_cif.got.tgz:111213.got - 2010.06.03 18:47:42.
