data_PCOD9263762
_publ_section_title
;
Structure prediction by ZEFSAII (Michael W. Deem and Ramdas Pophale) SiO2 
 PCOD9263762
Probable space group: C 2/C
;
_chemical_formula_sum "Si O2"
_cell_formula_units_Z 64
_cell_length_a 11.146437
_cell_length_b 30.281052
_cell_length_c 17.096417
_cell_angle_alpha 90.000000
_cell_angle_beta 36.488432
_cell_angle_gamma 90.000000
_cell_volume 3431.477860
_symmetry_space_group_name_H-M "C 2/C"
_symmetry_group_IT_number 15
_symmetry_cell_setting 'monoclinic'
loop_
_space_group_symop_operation_xyz
x,y,z
-x,y,1/2-z
-x,-y,-z
x,-y,1/2+z
1/2+x,1/2+y,z
1/2-x,1/2+y,1/2-z
1/2-x,1/2-y,-z
1/2+x,1/2-y,1/2+z
loop_
_atom_site_type_symbol
_atom_site_label
_atom_site_fract_x
_atom_site_fract_y
_atom_site_fract_z
Si Si1 0.873810 0.646512 0.153982
Si Si2 0.857272 0.287914 0.893879
Si Si3 0.449941 0.950909 0.610271
Si Si4 0.768730 0.298626 0.395199
Si Si5 0.803435 0.981356 0.903459
Si Si6 0.918911 0.140118 0.052058
Si Si7 0.769758 0.201562 0.399116
Si Si8 0.440787 0.458121 0.582775
O O1 0.987079 0.600586 0.104597
O O2 0.670953 0.643938 0.312437
O O3 0.829341 0.659579 0.089109
O O4 0.998758 0.686218 0.123228
O O5 0.721728 0.327356 0.926138
O O6 0.000000 0.269141 0.750000
O O7 0.750000 0.250000 0.000000
O O8 0.337738 0.955046 0.584530
O O9 0.279361 0.965011 0.762359
O O10 0.652839 0.979380 0.507891
O O11 0.636385 0.337846 0.430941
O O12 0.687201 0.249712 0.415587
O O13 0.750856 0.300546 0.497880
O O14 0.000000 0.301632 0.250000
O O15 0.898311 0.956187 0.928886
O O16 0.000000 0.996192 0.750000
O O17 0.929969 0.087134 0.037874
O O18 0.000000 0.201805 0.250000
O O19 0.500000 0.500000 0.500000
#
# Coordination Sequence:
#
# PCOD9263762 Si02
#       8
#     8   8   8   8   8   8   8   8
#     4  10  20  35  63  87 108 154 204 242 280 351
#     4  10  22  41  63  86 120 159 202 246 296 349
#     4   9  20  37  61  87 112 152 200 240 287 357
#     4  10  21  36  54  87 121 149 183 241 300 350
#     4   9  19  38  59  83 117 150 191 242 296 348
#     4  10  21  39  59  84 118 151 203 243 288 361
#     4  10  19  34  60  83 115 152 191 236 293 350
#     4  10  22  37  60  88 117 156 190 244 302 347
#
# _framework density 18.650855
#
# number of rings (size 3 to 8) (size 9 to 14) (size 15 to 20)
#    0.000    2.250    1.250    0.750    3.500    1.000 
#    4.500    1.875    0.000    0.000    0.000    0.000 
#    0.000    0.000    0.000    0.000    0.000    0.000 
#
# Total GULP energy -178242.266642 kJ/mol
# GULP energy per Si atom -5570.070833 kJ/mol
# Density = 1.860841 g / cm^3
# Si number density = 18.650855 Si / 1000 Ang^3
#
#
#
# Elastic Constant Matrix: (Units=GPa)
#
#
# Indices 1 2 3 4 5 6 
#
# 1 36.6497 16.6217 23.1186 0.0000 5.3199 0.0000
# 2 16.6217 110.5481 50.4579 0.0000 5.4891 0.0000
# 3 23.1186 50.4579 86.5640 0.0000 1.0834 0.0000
# 4 0.0000 0.0000 0.0000 30.3296 0.0000 -1.0739
# 5 5.3199 5.4891 1.0834 0.0000 23.9610 0.0000
# 6 0.0000 0.0000 0.0000 -1.0739 0.0000 20.9206
#
#
#
# Elastic Compliance Matrix: (Units=1/GPa)
#
#
# Indices 1 2 3 4 5 6 
#
# 1 0.034057 -0.000903 -0.008482 0.000000 -0.006971 0.000000
# 2 -0.000903 0.012500 -0.007016 0.000000 -0.002346 0.000000
# 3 -0.008482 -0.007016 0.017873 0.000000 0.002682 0.000000
# 4 0.000000 0.000000 0.000000 0.033031 0.000000 0.001696
# 5 -0.006971 -0.002346 0.002682 0.000000 0.043698 0.000000
# 6 0.000000 0.000000 0.000000 0.001696 0.000000 0.047887
#
#
# Mechanical properties :
#
#
# Convention : Reuss Voigt Hill
#
# Bulk Modulus (GPa) = 31.61652 46.01757 38.81704
# Shear Modulus (GPa) = 21.51535 24.61314 23.06424
#
# Velocity S-wave (km/s) = 3.40013 3.63668 3.52039
# Velocity P-wave (km/s) = 5.69237 6.50851 6.11407
#
# Compressibility (1/GPa) = 0.03162904
#
# Stress axis : x y z
#
# Youngs Moduli (GPa) = 29.36236 79.99741 55.94915
#
# Poissons Ratio (x) = 0.07225 0.47456
# Poissons Ratio (y) = 0.02652 0.39253
# Poissons Ratio (z) = 0.24905 0.56125
#
# Static dielectric constant tensor:
#      x y z
#    x 1.696500 0.000000 0.005980 
#    y 0.000000 1.663760 0.000000 
#    z 0.005980 0.000000 1.645770 
# 
# From -- ./inp_files/201453.got.cif
#   From: 2010.05.17/outbox.cif.g08.bks.cpg/sg15_101_cif.got.tgz:201453.got - 2010.06.03 18:47:42.
