data_PCOD9263972
_publ_section_title
;
Structure prediction by ZEFSAII (Michael W. Deem and Ramdas Pophale) SiO2 
 PCOD9263972
Probable space group: C 2/C
;
_chemical_formula_sum "Si O2"
_cell_formula_units_Z 56
_cell_length_a 21.994415
_cell_length_b 16.928689
_cell_length_c 24.042159
_cell_angle_alpha 90.000000
_cell_angle_beta 160.451653
_cell_angle_gamma 90.000000
_cell_volume 2995.283541
_symmetry_space_group_name_H-M "C 2/C"
_symmetry_group_IT_number 15
_symmetry_cell_setting 'monoclinic'
loop_
_space_group_symop_operation_xyz
x,y,z
-x,y,1/2-z
-x,-y,-z
x,-y,1/2+z
1/2+x,1/2+y,z
1/2-x,1/2+y,1/2-z
1/2-x,1/2-y,-z
1/2+x,1/2-y,1/2+z
loop_
_atom_site_type_symbol
_atom_site_label
_atom_site_fract_x
_atom_site_fract_y
_atom_site_fract_z
Si Si1 0.257236 0.623365 0.078716
Si Si2 0.060236 0.019952 0.477552
Si Si3 0.859422 0.560118 0.409361
Si Si4 0.895829 0.290013 0.380166
Si Si5 0.788485 0.411854 0.078954
Si Si6 0.911713 0.272637 0.261877
Si Si7 0.953476 0.866506 0.437280
O O1 0.166260 0.564231 0.045199
O O2 0.395938 0.682229 0.229235
O O3 0.307645 0.586092 0.063771
O O4 0.105732 0.686073 0.927205
O O5 0.845844 0.042380 0.287488
O O6 0.175063 0.033027 0.521826
O O7 0.131082 0.079455 0.586200
O O8 0.072005 0.929850 0.506851
O O9 0.000000 0.500000 0.500000
O O10 0.940996 0.647820 0.469037
O O11 0.866951 0.277236 0.288825
O O12 0.711256 0.331484 0.240536
O O13 0.939031 0.206764 0.444702
O O14 0.797784 0.328950 0.121828
O O15 0.000000 0.434138 0.250000
#
# Coordination Sequence:
#
# PCOD9263972 Si02
#       7
#     8   8   8   8   8   8   8
#     4  10  22  34  56  77 120 156 195 234 285 346
#     4  11  23  39  59  84 120 160 201 242 299 346
#     4  11  23  39  58  87 124 154 194 251 293 353
#     4  11  20  38  58  88 121 157 195 244 301 357
#     4  10  22  38  54  80 117 160 199 237 287 349
#     4  10  19  35  50  82 116 156 193 229 271 354
#     4  11  22  36  61  88 117 155 200 247 298 358
#
# _framework density 18.696059999999999
#
# number of rings (size 3 to 8) (size 9 to 14) (size 15 to 20)
#    0.000    1.429    2.857    3.857    2.000    0.571 
#    0.000    0.000    0.000    0.000    0.000    4.000 
#    0.000    0.000    0.000    0.000    0.000    0.000 
#
# Total GULP energy -156229.161913 kJ/mol
# GULP energy per Si atom -5579.612925 kJ/mol
# Density = 1.865351 g / cm^3
# Si number density = 18.696060 Si / 1000 Ang^3
#
#
#
# Elastic Constant Matrix: (Units=GPa)
#
#
# Indices 1 2 3 4 5 6 
#
# 1 123.3595 69.5747 24.7933 -0.0057 7.6774 -0.0017
# 2 69.5747 129.3912 36.3710 0.0014 2.9983 0.0005
# 3 24.7933 36.3710 80.1148 0.0342 -0.7590 0.0110
# 4 -0.0057 0.0014 0.0342 25.3970 0.0109 -0.7028
# 5 7.6774 2.9983 -0.7590 0.0109 22.7418 0.0006
# 6 -0.0017 0.0005 0.0110 -0.7028 0.0006 30.6301
#
#
#
# Elastic Compliance Matrix: (Units=1/GPa)
#
#
# Indices 1 2 3 4 5 6 
#
# 1 0.011924 -0.006064 -0.000968 0.000006 -0.003258 0.000001
# 2 -0.006064 0.011982 -0.003560 0.000003 0.000349 0.000001
# 3 -0.000968 -0.003560 0.014410 -0.000020 0.001277 -0.000006
# 4 0.000006 0.000003 -0.000020 0.039400 -0.000022 0.000904
# 5 -0.003258 0.000349 0.001277 -0.000022 0.045069 -0.000002
# 6 0.000001 0.000001 -0.000006 0.000904 -0.000002 0.032668
#
#
# Mechanical properties :
#
#
# Convention : Reuss Voigt Hill
#
# Bulk Modulus (GPa) = 58.36978 66.03818 62.20398
# Shear Modulus (GPa) = 27.42047 29.22887 28.32467
#
# Velocity S-wave (km/s) = 3.83383 3.95824 3.89653
# Velocity P-wave (km/s) = 7.13343 7.50259 7.32034
#
# Compressibility (1/GPa) = 0.01713215
#
# Stress axis : x y z
#
# Youngs Moduli (GPa) = 83.86617 83.46125 69.39732
#
# Poissons Ratio (x) = 0.50610 0.06718
# Poissons Ratio (y) = 0.50856 0.24703
# Poissons Ratio (z) = 0.08118 0.29709
#
# Static dielectric constant tensor:
#      x y z
#    x 1.723380 -0.000010 -0.014050 
#    y -0.000010 1.638360 -0.000020 
#    z -0.014050 -0.000020 1.777530 
# 
# From -- ./inp_files/302309.got.cif
#   From: 2010.05.17/outbox.cif.g08.bks.cpg/sg15_152_cif.got.tgz:302309.got - 2010.06.03 18:47:42.
