data_PCOD9263681
_publ_section_title
;
Structure prediction by ZEFSAII (Michael W. Deem and Ramdas Pophale) SiO2 
 PCOD9263681
Probable space group: C 2/C
;
_chemical_formula_sum "Si O2"
_cell_formula_units_Z 60
_cell_length_a 6.268216
_cell_length_b 17.439955
_cell_length_c 30.263524
_cell_angle_alpha 90.000000
_cell_angle_beta 68.806534
_cell_angle_gamma 90.000000
_cell_volume 3084.571131
_symmetry_space_group_name_H-M "C 2/C"
_symmetry_group_IT_number 15
_symmetry_cell_setting 'monoclinic'
loop_
_space_group_symop_operation_xyz
x,y,z
-x,y,1/2-z
-x,-y,-z
x,-y,1/2+z
1/2+x,1/2+y,z
1/2-x,1/2+y,1/2-z
1/2-x,1/2-y,-z
1/2+x,1/2-y,1/2+z
loop_
_atom_site_type_symbol
_atom_site_label
_atom_site_fract_x
_atom_site_fract_y
_atom_site_fract_z
Si Si1 0.413145 0.586222 0.500836
Si Si2 0.733943 0.962167 0.921617
Si Si3 0.500000 0.120322 0.250000
Si Si4 0.299521 0.275215 0.794250
Si Si5 0.884295 0.659612 0.463098
Si Si6 0.947141 0.368222 0.058347
Si Si7 0.900486 0.880523 0.661741
Si Si8 0.138804 0.746344 0.121697
O O1 0.500000 0.500000 0.500000
O O2 0.319180 0.581426 0.458577
O O3 0.615760 0.645691 0.486963
O O4 0.208495 0.609403 0.548551
O O5 0.493536 0.918094 0.933564
O O6 0.926334 0.942279 0.871681
O O7 0.687775 0.050954 0.934496
O O8 0.344463 0.171734 0.228943
O O9 0.306415 0.081369 0.294737
O O10 0.500000 0.235405 0.750000
O O11 0.438631 0.326743 0.819358
O O12 0.092838 0.232261 0.834700
O O13 0.953515 0.670133 0.509004
O O14 0.935235 0.722295 0.422363
O O15 0.820923 0.313980 0.102076
O O16 0.771596 0.824573 0.635961
#
# Coordination Sequence:
#
# PCOD9263681 Si02
#       8
#     8   8   4   8   8   8   8   8
#     4  11  19  36  54  71 108 156 195 222 266 316
#     4  11  20  35  56  80 105 151 194 223 266 335
#     4   8  18  34  58  90 104 132 180 238 274 330
#     4   9  18  36  60  85 107 138 179 229 280 340
#     4  11  20  36  55  75 114 156 193 229 266 324
#     4  11  24  34  52  82 115 152 192 228 274 328
#     4  10  19  34  59  84 109 139 186 228 278 335
#     4  11  22  35  54  87 114 142 186 237 280 323
#
# _framework density 19.451651999999999
#
# number of rings (size 3 to 8) (size 9 to 14) (size 15 to 20)
#    0.000    1.600    5.333    1.200    0.000    1.600 
#    0.000    0.000    1.467    0.000   27.733    0.000 
#    0.000    0.000    0.000    0.000    0.000    0.000 
#
# Total GULP energy -167046.843316 kJ/mol
# GULP energy per Si atom -5568.228111 kJ/mol
# Density = 1.940738 g / cm^3
# Si number density = 19.451652 Si / 1000 Ang^3
#
#
#
# Elastic Constant Matrix: (Units=GPa)
#
#
# Indices 1 2 3 4 5 6 
#
# 1 79.9532 9.0635 43.2172 0.0000 -27.9840 0.0000
# 2 9.0635 33.7836 25.6173 0.0000 -16.0097 0.0000
# 3 43.2172 25.6173 112.9021 0.0000 -47.9425 0.0000
# 4 0.0000 0.0000 0.0000 16.0536 0.0000 -7.3974
# 5 -27.9840 -16.0097 -47.9425 0.0000 49.2253 0.0000
# 6 0.0000 0.0000 0.0000 -7.3974 0.0000 15.8213
#
#
#
# Elastic Compliance Matrix: (Units=1/GPa)
#
#
# Indices 1 2 3 4 5 6 
#
# 1 0.016674 0.001513 -0.004249 0.000000 0.005833 0.000000
# 2 0.001513 0.037094 -0.005981 0.000000 0.007099 0.000000
# 3 -0.004249 -0.005981 0.017034 0.000000 0.012229 0.000000
# 4 0.000000 0.000000 0.000000 0.079397 0.000000 0.037123
# 5 0.005833 0.007099 0.012229 0.000000 0.037850 0.000000
# 6 0.000000 0.000000 0.000000 0.037123 0.000000 0.080563
#
#
# Mechanical properties :
#
#
# Convention : Reuss Voigt Hill
#
# Bulk Modulus (GPa) = 18.73834 42.49277 30.61555
# Shear Modulus (GPa) = 16.45629 26.13609 21.29619
#
# Velocity S-wave (km/s) = 2.91178 3.66955 3.31241
# Velocity P-wave (km/s) = 4.57808 6.31244 5.51388
#
# Compressibility (1/GPa) = 0.05336653
#
# Stress axis : x y z
#
# Youngs Moduli (GPa) = 59.97353 26.95871 58.70715
#
# Poissons Ratio (x) = -0.04078 0.24945
# Poissons Ratio (y) = -0.09072 0.35113
# Poissons Ratio (z) = 0.25483 0.16124
#
# Static dielectric constant tensor:
#      x y z
#    x 1.815980 0.000000 0.021220 
#    y 0.000000 1.706140 0.000000 
#    z 0.021220 0.000000 1.753120 
# 
# From -- ./inp_files/286064.got.cif
#   From: 2010.05.17/outbox.cif.g08.bks.cpg/sg15_144_cif.got.tgz:286064.got - 2010.06.03 18:47:42.
