data_PCOD9263751
_publ_section_title
;
Structure prediction by ZEFSAII (Michael W. Deem and Ramdas Pophale) SiO2 
 PCOD9263751
Probable space group: C 2/C
;
_chemical_formula_sum "Si O2"
_cell_formula_units_Z 60
_cell_length_a 31.006514
_cell_length_b 20.367879
_cell_length_c 15.402441
_cell_angle_alpha 90.000000
_cell_angle_beta 162.284375
_cell_angle_gamma 90.000000
_cell_volume 2959.920502
_symmetry_space_group_name_H-M "C 2/C"
_symmetry_group_IT_number 15
_symmetry_cell_setting 'monoclinic'
loop_
_space_group_symop_operation_xyz
x,y,z
-x,y,1/2-z
-x,-y,-z
x,-y,1/2+z
1/2+x,1/2+y,z
1/2-x,1/2+y,1/2-z
1/2-x,1/2-y,-z
1/2+x,1/2-y,1/2+z
loop_
_atom_site_type_symbol
_atom_site_label
_atom_site_fract_x
_atom_site_fract_y
_atom_site_fract_z
Si Si1 0.747735 0.323524 0.959961
Si Si2 0.702061 0.713349 0.717143
Si Si3 0.254892 0.922345 0.130603
Si Si4 0.944970 0.356686 0.784021
Si Si5 0.411055 0.271239 0.990031
Si Si6 0.876814 0.547289 0.303024
Si Si7 0.455082 0.159787 0.563907
Si Si8 0.500000 0.622729 0.250000
O O1 0.637723 0.327771 0.668522
O O2 0.750000 0.250000 0.000000
O O3 0.722124 0.373180 0.988807
O O4 0.903994 0.335625 0.222738
O O5 0.768473 0.736545 0.752695
O O6 0.658336 0.782795 0.676646
O O7 0.559633 0.672192 0.436756
O O8 0.819668 0.662995 0.978262
O O9 0.414586 0.900554 0.469265
O O10 0.256759 0.994935 0.093769
O O11 0.134593 0.915780 0.972095
O O12 0.870506 0.394454 0.720334
O O13 0.008610 0.283127 0.913723
O O14 0.500000 0.285695 0.250000
O O15 0.901565 0.586881 0.439586
O O16 0.000000 0.500000 0.500000
O O17 0.500000 0.168170 0.750000
#
# Coordination Sequence:
#
# PCOD9263751 Si02
#       8
#     8   8   8   8   8   8   8   4
#     4  12  19  37  66  98 135 175 219 273 340 394
#     4  11  21  35  64 102 140 164 214 277 340 398
#     4  11  23  42  71  94 132 179 231 277 330 406
#     4  10  20  39  66  98 130 175 212 276 327 396
#     4  10  19  34  60 101 140 167 213 270 338 396
#     4  10  22  45  62  95 130 176 235 271 319 411
#     4  12  22  38  66 103 133 173 220 272 338 402
#     4  12  22  42  66 102 132 170 222 290 342 400
#
# _framework density 20.270814999999999
#
# number of rings (size 3 to 8) (size 9 to 14) (size 15 to 20)
#    0.000    1.067    7.333    0.800    0.000    0.533 
#    4.800    2.000    4.400    1.600    0.000    0.000 
#    0.000    0.000    0.000    0.000    0.000    0.000 
#
# Total GULP energy -167007.685856 kJ/mol
# GULP energy per Si atom -5566.922862 kJ/mol
# Density = 2.022468 g / cm^3
# Si number density = 20.270815 Si / 1000 Ang^3
#
#
#
# Elastic Constant Matrix: (Units=GPa)
#
#
# Indices 1 2 3 4 5 6 
#
# 1 79.6635 46.6518 27.9831 0.0000 4.4110 0.0000
# 2 46.6518 98.9834 34.0587 0.0000 -2.7145 0.0000
# 3 27.9831 34.0587 85.0234 0.0000 -3.4692 0.0000
# 4 0.0000 0.0000 0.0000 23.6217 0.0000 4.2468
# 5 4.4110 -2.7145 -3.4692 0.0000 32.3937 0.0000
# 6 0.0000 0.0000 0.0000 4.2468 0.0000 21.5570
#
#
#
# Elastic Compliance Matrix: (Units=1/GPa)
#
#
# Indices 1 2 3 4 5 6 
#
# 1 0.018322 -0.007663 -0.003102 0.000000 -0.003469 0.000000
# 2 -0.007663 0.014930 -0.003380 0.000000 0.001933 0.000000
# 3 -0.003102 -0.003380 0.014204 0.000000 0.001660 0.000000
# 4 0.000000 0.000000 0.000000 0.043888 0.000000 -0.008646
# 5 -0.003469 0.001933 0.001660 0.000000 0.031682 0.000000
# 6 0.000000 0.000000 0.000000 -0.008646 0.000000 0.048092
#
#
# Mechanical properties :
#
#
# Convention : Reuss Voigt Hill
#
# Bulk Modulus (GPa) = 52.17448 53.45083 52.81266
# Shear Modulus (GPa) = 24.29562 25.84625 25.07093
#
# Velocity S-wave (km/s) = 3.46577 3.57465 3.52063
# Velocity P-wave (km/s) = 6.46606 6.59266 6.52967
#
# Compressibility (1/GPa) = 0.01916646
#
# Stress axis : x y z
#
# Youngs Moduli (GPa) = 54.57857 66.97746 70.40233
#
# Poissons Ratio (x) = 0.51326 0.21839
# Poissons Ratio (y) = 0.41825 0.23795
# Poissons Ratio (z) = 0.16931 0.22637
#
# Static dielectric constant tensor:
#      x y z
#    x 1.773260 0.000000 -0.046280 
#    y 0.000000 1.733050 0.000000 
#    z -0.046280 0.000000 1.826360 
# 
# From -- ./inp_files/183082.got.cif
#   From: 2010.05.17/outbox.cif.g08.bks.cpg/sg15_92_cif.got.tgz:183082.got - 2010.06.03 18:47:42.
