data_PCOD9263482
_publ_section_title
;
Structure prediction by ZEFSAII (Michael W. Deem and Ramdas Pophale) SiO2 
 PCOD9263482
Probable space group: C 2/C
;
_chemical_formula_sum "Si O2"
_cell_formula_units_Z 52
_cell_length_a 14.266487
_cell_length_b 26.643286
_cell_length_c 9.139396
_cell_angle_alpha 90.000000
_cell_angle_beta 43.508448
_cell_angle_gamma 90.000000
_cell_volume 2391.674093
_symmetry_space_group_name_H-M "C 2/C"
_symmetry_group_IT_number 15
_symmetry_cell_setting 'monoclinic'
loop_
_space_group_symop_operation_xyz
x,y,z
-x,y,1/2-z
-x,-y,-z
x,-y,1/2+z
1/2+x,1/2+y,z
1/2-x,1/2+y,1/2-z
1/2-x,1/2-y,-z
1/2+x,1/2-y,1/2+z
loop_
_atom_site_type_symbol
_atom_site_label
_atom_site_fract_x
_atom_site_fract_y
_atom_site_fract_z
Si Si1 0.794216 0.051169 0.584717
Si Si2 0.461546 0.183713 0.133153
Si Si3 0.512599 0.065038 0.069060
Si Si4 0.366998 0.788314 0.325695
Si Si5 0.000000 0.864271 0.750000
Si Si6 0.276433 0.656528 0.289186
Si Si7 0.755689 0.042533 0.287625
O O1 0.897263 0.097715 0.450966
O O2 0.759506 0.036977 0.457142
O O3 0.843133 0.000042 0.608198
O O4 0.661819 0.064897 0.829728
O O5 0.500000 0.203017 0.250000
O O6 0.471687 0.123611 0.122631
O O7 0.308776 0.190108 0.233066
O O8 0.584525 0.202752 0.891751
O O9 0.500000 0.045936 0.250000
O O10 0.398490 0.039240 0.097634
O O11 0.500000 0.767750 0.250000
O O12 0.250000 0.750000 0.500000
O O13 0.329064 0.839928 0.453688
O O14 0.081814 0.833858 0.783777
O O15 0.296976 0.600114 0.209002
#
# Coordination Sequence:
#
# PCOD9263482 Si02
#       7
#     8   8   8   8   4   8   8
#     4  11  21  33  51  81 112 159 207 250 307 349
#     4   9  18  36  63  91 122 156 197 253 314 363
#     4  10  19  34  57  83 113 152 203 261 306 352
#     4  10  21  39  64  97 120 158 208 254 311 385
#     4  10  22  36  58  86 126 170 210 256 294 376
#     4   9  20  37  57  83 118 159 203 243 307 365
#     4  10  20  34  53  78 112 153 204 258 294 353
#
# _framework density 21.742092
#
# number of rings (size 3 to 8) (size 9 to 14) (size 15 to 20)
#    0.000    2.154    0.000    3.692    1.077    6.154 
#    0.000    3.077    0.000   26.769    6.000    0.000 
#    0.000    0.000    0.000    0.000    0.000    0.000 
#
# Total GULP energy -144771.430962 kJ/mol
# GULP energy per Si atom -5568.131960 kJ/mol
# Density = 2.169261 g / cm^3
# Si number density = 21.742092 Si / 1000 Ang^3
#
#
#
# Elastic Constant Matrix: (Units=GPa)
#
#
# Indices 1 2 3 4 5 6 
#
# 1 160.6403 18.8114 63.9763 0.0000 7.3776 0.0000
# 2 18.8114 40.9728 2.2241 0.0000 -4.0779 0.0000
# 3 63.9763 2.2241 84.3837 0.0000 17.1856 0.0000
# 4 0.0000 0.0000 0.0000 36.7685 0.0000 -12.0367
# 5 7.3776 -4.0779 17.1856 0.0000 45.8462 0.0000
# 6 0.0000 0.0000 0.0000 -12.0367 0.0000 24.3074
#
#
#
# Elastic Compliance Matrix: (Units=1/GPa)
#
#
# Indices 1 2 3 4 5 6 
#
# 1 0.009557 -0.003905 -0.007318 0.000000 0.000858 0.000000
# 2 -0.003905 0.026330 0.001799 0.000000 0.002296 0.000000
# 3 -0.007318 0.001799 0.018490 0.000000 -0.005594 0.000000
# 4 0.000000 0.000000 0.000000 0.032459 0.000000 0.016073
# 5 0.000858 0.002296 -0.005594 0.000000 0.023975 0.000000
# 6 0.000000 0.000000 0.000000 0.016073 0.000000 0.049099
#
#
# Mechanical properties :
#
#
# Convention : Reuss Voigt Hill
#
# Bulk Modulus (GPa) = 28.14488 50.66893 39.40691
# Shear Modulus (GPa) = 26.23262 34.78341 30.50802
#
# Velocity S-wave (km/s) = 3.47729 4.00411 3.74997
# Velocity P-wave (km/s) = 5.39398 6.68823 6.07567
#
# Compressibility (1/GPa) = 0.03553044
#
# Stress axis : x y z
#
# Youngs Moduli (GPa) = 104.63105 37.97903 54.08196
#
# Poissons Ratio (x) = 0.14832 0.39576
# Poissons Ratio (y) = 0.40862 -0.09731
# Poissons Ratio (z) = 0.76567 -0.06834
#
# Static dielectric constant tensor:
#      x y z
#    x 1.904440 0.000000 -0.038320 
#    y 0.000000 1.923090 0.000000 
#    z -0.038320 0.000000 1.843600 
# 
# From -- ./inp_files/44783.got.cif
#   From: 2010.05.17/outbox.cif.g08.bks.cpg/sg15_23_cif.got.tgz:44783.got - 2010.06.03 18:47:42.
