data_PCOD9263685
_publ_section_title
;
Structure prediction by ZEFSAII (Michael W. Deem and Ramdas Pophale) SiO2 
 PCOD9263685
Probable space group: C 2/C
;
_chemical_formula_sum "Si O2"
_cell_formula_units_Z 40
_cell_length_a 22.235737
_cell_length_b 11.813946
_cell_length_c 11.110205
_cell_angle_alpha 90.000000
_cell_angle_beta 53.814056
_cell_angle_gamma 90.000000
_cell_volume 2355.584650
_symmetry_space_group_name_H-M "C 2/C"
_symmetry_group_IT_number 15
_symmetry_cell_setting 'monoclinic'
loop_
_space_group_symop_operation_xyz
x,y,z
-x,y,1/2-z
-x,-y,-z
x,-y,1/2+z
1/2+x,1/2+y,z
1/2-x,1/2+y,1/2-z
1/2-x,1/2-y,-z
1/2+x,1/2-y,1/2+z
loop_
_atom_site_type_symbol
_atom_site_label
_atom_site_fract_x
_atom_site_fract_y
_atom_site_fract_z
Si Si1 0.782328 0.072869 0.992116
Si Si2 0.347824 0.845192 0.675901
Si Si3 0.333933 0.914217 0.086415
Si Si4 0.770899 0.176541 0.591085
Si Si5 0.917683 0.246152 0.817113
O O1 0.735722 0.068024 0.922979
O O2 0.855426 0.148310 0.892973
O O3 0.726167 0.130881 0.154831
O O4 0.799216 0.946415 0.016251
O O5 0.327664 0.747991 0.605186
O O6 0.410167 0.805244 0.695763
O O7 0.363574 0.963467 0.591377
O O8 0.301244 0.850060 0.241091
O O9 0.392662 0.838928 0.945223
O O10 0.750000 0.250000 0.500000
O O11 0.000000 0.205515 0.750000
#
# Coordination Sequence:
#
# PCOD9263685 Si02
#       5
#     8   8   8   8   8
#     4  10  19  34  59  85 107 144 193 234 284 322
#     4  10  19  35  59  84 108 141 193 245 273 317
#     4  10  19  36  59  85 108 141 196 243 271 322
#     4  11  19  31  61  88 108 135 185 250 284 312
#     4  11  22  38  57  80 120 158 183 219 284 351
#
# _framework density 16.980923000000001
#
# number of rings (size 3 to 8) (size 9 to 14) (size 15 to 20)
#    0.000    1.600    6.000    1.200    0.000    0.800 
#    0.000    1.000    0.000    0.000    0.000    0.000 
#    0.000    0.000    0.000    0.000    0.000    0.000 
#
# Total GULP energy -111624.575570 kJ/mol
# GULP energy per Si atom -5581.228779 kJ/mol
# Density = 1.694227 g / cm^3
# Si number density = 16.980923 Si / 1000 Ang^3
#
#
#
# Elastic Constant Matrix: (Units=GPa)
#
#
# Indices 1 2 3 4 5 6 
#
# 1 84.7047 38.6784 29.5812 0.0000 10.8876 0.0000
# 2 38.6784 87.2304 14.6888 0.0000 14.8034 0.0000
# 3 29.5812 14.6888 27.0482 0.0000 14.5410 0.0000
# 4 0.0000 0.0000 0.0000 23.4624 0.0000 15.6039
# 5 10.8876 14.8034 14.5410 0.0000 28.4083 0.0000
# 6 0.0000 0.0000 0.0000 15.6039 0.0000 29.2479
#
#
#
# Elastic Compliance Matrix: (Units=1/GPa)
#
#
# Indices 1 2 3 4 5 6 
#
# 1 0.023010 -0.007266 -0.025542 0.000000 0.008042 0.000000
# 2 -0.007266 0.015292 0.003351 0.000000 -0.006899 0.000000
# 3 -0.025542 0.003351 0.081069 0.000000 -0.033453 0.000000
# 4 0.000000 0.000000 0.000000 0.066060 0.000000 -0.035244
# 5 0.008042 -0.006899 -0.033453 0.000000 0.052837 0.000000
# 6 0.000000 0.000000 0.000000 -0.035244 0.000000 0.052993
#
#
# Mechanical properties :
#
#
# Convention : Reuss Voigt Hill
#
# Bulk Modulus (GPa) = 16.54059 40.54226 28.54142
# Shear Modulus (GPa) = 13.50151 23.95938 18.73045
#
# Velocity S-wave (km/s) = 2.82281 3.76035 3.32479
# Velocity P-wave (km/s) = 4.51510 6.54069 5.61991
#
# Compressibility (1/GPa) = 0.06045735
#
# Stress axis : x y z
#
# Youngs Moduli (GPa) = 43.45923 65.39197 12.33516
#
# Poissons Ratio (x) = 0.47517 0.31506
# Poissons Ratio (y) = 0.31580 -0.04134
# Poissons Ratio (z) = 1.11003 -0.21915
#
# Static dielectric constant tensor:
#      x y z
#    x 1.562690 0.000000 0.027450 
#    y 0.000000 1.579910 0.000000 
#    z 0.027450 0.000000 1.566660 
# 
# From -- ./inp_files/111359.got.cif
#   From: 2010.05.17/outbox.cif.g08.bks.cpg/sg15_56_cif.got.tgz:111359.got - 2010.06.03 18:47:42.
