data_PCOD9263051
_publ_section_title
;
Structure prediction by ZEFSAII (Michael W. Deem and Ramdas Pophale) SiO2 
 PCOD9263051
Probable space group: C 2/C
;
_chemical_formula_sum "Si O2"
_cell_formula_units_Z 56
_cell_length_a 5.783290
_cell_length_b 29.537485
_cell_length_c 15.094668
_cell_angle_alpha 90.000000
_cell_angle_beta 117.125054
_cell_angle_gamma 90.000000
_cell_volume 2294.925831
_symmetry_space_group_name_H-M "C 2/C"
_symmetry_group_IT_number 15
_symmetry_cell_setting 'monoclinic'
loop_
_space_group_symop_operation_xyz
x,y,z
-x,y,1/2-z
-x,-y,-z
x,-y,1/2+z
1/2+x,1/2+y,z
1/2-x,1/2+y,1/2-z
1/2-x,1/2-y,-z
1/2+x,1/2-y,1/2+z
loop_
_atom_site_type_symbol
_atom_site_label
_atom_site_fract_x
_atom_site_fract_y
_atom_site_fract_z
Si Si1 0.478170 0.700904 0.106960
Si Si2 0.500000 0.926419 0.750000
Si Si3 0.531114 0.604485 0.361828
Si Si4 0.500000 0.228135 0.250000
Si Si5 0.877557 0.415393 0.375519
Si Si6 0.246596 0.014733 0.354100
Si Si7 0.609852 0.717708 0.603922
Si Si8 0.149900 0.883463 0.147350
O O1 0.340454 0.652108 0.091719
O O2 0.738725 0.699755 0.210453
O O3 0.320962 0.744688 0.112095
O O4 0.535003 0.706173 0.012479
O O5 0.271257 0.897143 0.665856
O O6 0.571063 0.959921 0.683030
O O7 0.500000 0.604052 0.250000
O O8 0.653300 0.555208 0.402080
O O9 0.541541 0.259821 0.342005
O O10 0.860988 0.467327 0.404441
O O11 0.755486 0.406893 0.255501
O O12 0.665609 0.389987 0.402529
O O13 0.177420 0.401704 0.405203
O O14 0.000000 0.001506 0.250000
O O15 0.709770 0.669978 0.657986
#
# Coordination Sequence:
#
# PCOD9263051 Si02
#       8
#     8   4   8   4   8   8   8   8
#     4  11  25  44  65  98 138 177 224 285 351 415
#     4   8  15  26  52  84 122 160 214 274 327 384
#     4   9  18  32  56  87 123 168 219 277 330 408
#     4  12  23  42  72  96 130 176 230 284 339 424
#     4  10  19  33  60  96 126 174 227 291 341 405
#     4   9  16  28  51  90 123 161 220 280 325 401
#     4  11  26  43  66  97 137 179 226 287 350 419
#     4  10  21  34  60  91 131 171 226 282 344 408
#
# _framework density 24.401658999999999
#
# number of rings (size 3 to 8) (size 9 to 14) (size 15 to 20)
#    0.000    2.286    1.429    3.857    8.000    1.143 
#    0.000    0.000    0.000    1.714    0.000    0.000 
#    0.000    0.000    0.000    0.000    0.000    0.000 
#
# Total GULP energy -156076.872201 kJ/mol
# GULP energy per Si atom -5574.174007 kJ/mol
# Density = 2.434612 g / cm^3
# Si number density = 24.401659 Si / 1000 Ang^3
#
#
#
# Elastic Constant Matrix: (Units=GPa)
#
#
# Indices 1 2 3 4 5 6 
#
# 1 117.7990 47.8145 0.6837 0.0000 -3.0115 0.0000
# 2 47.8145 207.5457 22.0081 0.0000 0.5362 0.0000
# 3 0.6837 22.0081 65.1593 0.0000 -5.4603 0.0000
# 4 0.0000 0.0000 0.0000 33.0615 0.0000 -7.6647
# 5 -3.0115 0.5362 -5.4603 0.0000 16.5989 0.0000
# 6 0.0000 0.0000 0.0000 -7.6647 0.0000 -41.5587
#
#
#
# Elastic Compliance Matrix: (Units=1/GPa)
#
#
# Indices 1 2 3 4 5 6 
#
# 1 0.009460 -0.002274 0.000842 0.000000 0.002067 0.000000
# 2 -0.002274 0.005553 -0.001955 0.000000 -0.001235 0.000000
# 3 0.000842 -0.001955 0.016471 0.000000 0.005634 0.000000
# 4 0.000000 0.000000 0.000000 0.029006 0.000000 -0.005350
# 5 0.002067 -0.001235 0.005634 0.000000 0.062513 0.000000
# 6 0.000000 0.000000 0.000000 -0.005350 0.000000 -0.023076
#
#
# Mechanical properties :
#
#
# Convention : Reuss Voigt Hill
#
# Bulk Modulus (GPa) = 40.47096 59.05739 49.76418
# Shear Modulus (GPa) = 43.50178 22.95350 33.22764
#
# Velocity S-wave (km/s) = 4.22683 3.07033 3.69412
# Velocity P-wave (km/s) = 6.35946 6.06828 6.21558
#
# Compressibility (1/GPa) = 0.02470907
#
# Stress axis : x y z
#
# Youngs Moduli (GPa) = 105.70806 180.09529 60.71406
#
# Poissons Ratio (x) = 0.40954 -0.05112
# Poissons Ratio (y) = 0.24038 0.11870
# Poissons Ratio (z) = -0.08901 0.35210
#
# Static dielectric constant tensor:
#      x y z
#    x 2.123070 0.000000 0.099230 
#    y 0.000000 1.911200 0.000000 
#    z 0.099230 0.000000 2.072640 
# 
# From -- ./inp_files/186266.got.cif
#   From: 2010.05.17/outbox.cif.g08.bks.cpg/sg15_94_cif.got.tgz:186266.got - 2010.06.03 18:47:42.
