data_PCOD9263830
_publ_section_title
;
Structure prediction by ZEFSAII (Michael W. Deem and Ramdas Pophale) SiO2 
 PCOD9263830
Probable space group: C 2/C
;
_chemical_formula_sum "Si O2"
_cell_formula_units_Z 52
_cell_length_a 9.741040
_cell_length_b 22.122796
_cell_length_c 22.524011
_cell_angle_alpha 90.000000
_cell_angle_beta 145.976888
_cell_angle_gamma 90.000000
_cell_volume 2715.890990
_symmetry_space_group_name_H-M "C 2/C"
_symmetry_group_IT_number 15
_symmetry_cell_setting 'monoclinic'
loop_
_space_group_symop_operation_xyz
x,y,z
-x,y,1/2-z
-x,-y,-z
x,-y,1/2+z
1/2+x,1/2+y,z
1/2-x,1/2+y,1/2-z
1/2-x,1/2-y,-z
1/2+x,1/2-y,1/2+z
loop_
_atom_site_type_symbol
_atom_site_label
_atom_site_fract_x
_atom_site_fract_y
_atom_site_fract_z
Si Si1 0.565619 0.430532 0.593216
Si Si2 0.100089 0.501896 0.380158
Si Si3 0.101175 0.282708 0.693382
Si Si4 0.899865 0.209936 0.412375
Si Si5 0.500000 0.093508 0.750000
Si Si6 0.281452 0.585748 0.218897
Si Si7 0.767087 0.787474 0.364837
O O1 0.327582 0.468555 0.491891
O O2 0.780667 0.452576 0.625877
O O3 0.528868 0.359350 0.572574
O O4 0.630164 0.437292 0.685014
O O5 0.959987 0.450103 0.291791
O O6 0.942063 0.539236 0.370855
O O7 0.310549 0.264147 0.816976
O O8 0.180564 0.346405 0.692768
O O9 0.067377 0.233517 0.630245
O O10 0.847474 0.290395 0.637174
O O11 0.118128 0.234850 0.532194
O O12 0.280800 0.140202 0.655288
O O13 0.500000 0.584629 0.250000
O O14 0.500000 0.761676 0.250000
#
# Coordination Sequence:
#
# PCOD9263830 Si02
#       7
#     8   8   8   8   4   8   8
#     4  10  19  34  61  87 111 150 199 242 285 343
#     4  11  19  36  61  85 112 150 200 245 282 345
#     4  10  21  37  57  85 120 151 203 239 293 354
#     4  10  19  36  60  86 110 156 200 248 286 345
#     4  10  20  34  58  84 110 148 198 240 284 342
#     4  11  22  35  57  87 122 154 187 243 302 350
#     4  10  21  36  56  85 117 151 196 245 294 344
#
# _framework density 19.146570000000001
#
# number of rings (size 3 to 8) (size 9 to 14) (size 15 to 20)
#    0.462    1.231    4.615    0.923    0.000    1.231 
#    0.000    1.538    3.385    0.000    0.000    0.000 
#    0.000    0.000    0.000    0.000    0.000    0.000 
#
# Total GULP energy -144856.420462 kJ/mol
# GULP energy per Si atom -5571.400787 kJ/mol
# Density = 1.910299 g / cm^3
# Si number density = 19.146570 Si / 1000 Ang^3
#
#
#
# Elastic Constant Matrix: (Units=GPa)
#
#
# Indices 1 2 3 4 5 6 
#
# 1 72.4294 8.1300 -8.5639 0.0003 13.8874 0.0004
# 2 8.1300 37.5632 -2.4415 0.0015 -4.3011 0.0019
# 3 -8.5639 -2.4415 79.5367 0.0001 -0.6559 0.0012
# 4 0.0003 0.0015 0.0001 14.3307 0.0029 -1.1047
# 5 13.8874 -4.3011 -0.6559 0.0029 24.5654 0.0035
# 6 0.0004 0.0019 0.0012 -1.1047 0.0035 18.3233
#
#
#
# Elastic Compliance Matrix: (Units=1/GPa)
#
#
# Indices 1 2 3 4 5 6 
#
# 1 0.016435 -0.004608 0.001545 0.000002 -0.010056 0.000002
# 2 -0.004608 0.028519 0.000442 -0.000005 0.007610 -0.000005
# 3 0.001545 0.000442 0.012749 0.000000 -0.000456 -0.000001
# 4 0.000002 -0.000005 0.000000 0.070106 -0.000011 0.004227
# 5 -0.010056 0.007610 -0.000456 -0.000011 0.047713 -0.000010
# 6 0.000002 -0.000005 -0.000001 0.004227 -0.000010 0.054830
#
#
# Mechanical properties :
#
#
# Convention : Reuss Voigt Hill
#
# Bulk Modulus (GPa) = 19.06172 20.41983 19.74077
# Shear Modulus (GPa) = 19.75649 24.27085 22.01367
#
# Velocity S-wave (km/s) = 3.21574 3.56425 3.39447
# Velocity P-wave (km/s) = 4.87496 5.25611 5.06912
#
# Compressibility (1/GPa) = 0.05246117
#
# Stress axis : x y z
#
# Youngs Moduli (GPa) = 60.84690 35.06396 78.43754
#
# Poissons Ratio (x) = 0.16158 -0.12120
# Poissons Ratio (y) = 0.28039 -0.03467
# Poissons Ratio (z) = -0.09402 -0.01550
#
# Static dielectric constant tensor:
#      x y z
#    x 1.667910 0.000000 0.019790 
#    y 0.000000 1.656600 0.000000 
#    z 0.019790 0.000000 1.762740 
# 
# From -- ./inp_files/234499.got.cif
#   From: 2010.05.17/outbox.cif.g08.bks.cpg/sg15_118_cif.got.tgz:234499.got - 2010.06.03 18:47:42.
