data_PCOD9263070
_publ_section_title
;
Structure prediction by ZEFSAII (Michael W. Deem and Ramdas Pophale) SiO2 
 PCOD9263070
Probable space group: C 2/C
;
_chemical_formula_sum "Si O2"
_cell_formula_units_Z 64
_cell_length_a 20.222041
_cell_length_b 20.213901
_cell_length_c 9.478263
_cell_angle_alpha 90.000000
_cell_angle_beta 57.767569
_cell_angle_gamma 90.000000
_cell_volume 3277.317294
_symmetry_space_group_name_H-M "C 2/C"
_symmetry_group_IT_number 15
_symmetry_cell_setting 'monoclinic'
loop_
_space_group_symop_operation_xyz
x,y,z
-x,y,1/2-z
-x,-y,-z
x,-y,1/2+z
1/2+x,1/2+y,z
1/2-x,1/2+y,1/2-z
1/2-x,1/2-y,-z
1/2+x,1/2-y,1/2+z
loop_
_atom_site_type_symbol
_atom_site_label
_atom_site_fract_x
_atom_site_fract_y
_atom_site_fract_z
Si Si1 0.794049 0.416208 0.178484
Si Si2 0.173566 0.833829 0.700094
Si Si3 0.721778 0.954903 0.974490
Si Si4 0.335220 0.244813 0.047170
Si Si5 0.573353 0.696261 0.569273
Si Si6 0.539813 0.147552 0.062998
Si Si7 0.069629 0.620526 0.573106
Si Si8 0.803045 0.800958 0.354013
O O1 0.781762 0.442679 0.352332
O O2 0.744808 0.351593 0.188219
O O3 0.770529 0.471170 0.090142
O O4 0.884207 0.394431 0.063844
O O5 0.210011 0.906558 0.657858
O O6 0.246494 0.784545 0.659210
O O7 0.157745 0.807804 0.560713
O O8 0.098124 0.827352 0.885117
O O9 0.640969 0.929987 0.994117
O O10 0.357642 0.261657 0.181394
O O11 0.389243 0.187968 0.919302
O O12 0.500000 0.676762 0.750000
O O13 0.566767 0.776331 0.559012
O O14 0.644788 0.669501 0.582663
O O15 0.500000 0.122226 0.250000
O O16 0.473034 0.139524 0.022113
O O17 0.000000 0.596213 0.750000
O O18 0.750000 0.750000 0.500000
#
# Coordination Sequence:
#
# PCOD9263070 Si02
#       8
#     8   8   8   8   8   8   8   8
#     4  12  26  44  63  93 127 176 231 265 314 391
#     4  10  20  38  60  90 124 161 215 273 322 376
#     4  11  27  42  64  92 127 181 230 264 315 386
#     4  10  19  33  62  89 123 168 210 267 325 371
#     4  11  23  39  65 100 132 163 206 271 343 396
#     4  11  23  38  59  94 139 172 212 261 315 391
#     4  11  22  38  60  93 136 172 210 261 318 382
#     4  12  22  39  66  95 129 165 212 273 329 378
#
# _framework density 19.528167
#
# number of rings (size 3 to 8) (size 9 to 14) (size 15 to 20)
#    0.000    1.000    5.000    2.250    5.250    1.000 
#    0.000    0.000    0.000    0.750    0.000    0.000 
#    0.000    0.000    0.000    0.000    0.000    0.000 
#
# Total GULP energy -178463.560149 kJ/mol
# GULP energy per Si atom -5576.986255 kJ/mol
# Density = 1.948372 g / cm^3
# Si number density = 19.528167 Si / 1000 Ang^3
#
#
#
# Elastic Constant Matrix: (Units=GPa)
#
#
# Indices 1 2 3 4 5 6 
#
# 1 54.5439 16.8021 26.6759 0.0000 10.3637 0.0000
# 2 16.8021 64.4356 32.3561 0.0000 -8.3828 0.0000
# 3 26.6759 32.3561 132.3892 0.0000 -5.7490 0.0000
# 4 0.0000 0.0000 0.0000 32.1451 0.0000 22.0714
# 5 10.3637 -8.3828 -5.7490 0.0000 33.7138 0.0000
# 6 0.0000 0.0000 0.0000 22.0714 0.0000 39.7281
#
#
#
# Elastic Compliance Matrix: (Units=1/GPa)
#
#
# Indices 1 2 3 4 5 6 
#
# 1 0.023652 -0.005448 -0.003837 0.000000 -0.009280 0.000000
# 2 -0.005448 0.019413 -0.003390 0.000000 0.005924 0.000000
# 3 -0.003837 -0.003390 0.009238 0.000000 0.001912 0.000000
# 4 0.000000 0.000000 0.000000 0.050294 0.000000 -0.027941
# 5 -0.009280 0.005924 0.001912 0.000000 0.034313 0.000000
# 6 0.000000 0.000000 0.000000 -0.027941 0.000000 0.040694
#
#
# Mechanical properties :
#
#
# Convention : Reuss Voigt Hill
#
# Bulk Modulus (GPa) = 37.10105 44.78189 40.94147
# Shear Modulus (GPa) = 23.59186 32.81970 28.20578
#
# Velocity S-wave (km/s) = 3.47954 4.10400 3.80460
# Velocity P-wave (km/s) = 5.93151 6.74083 6.34908
#
# Compressibility (1/GPa) = 0.02695342
#
# Stress axis : x y z
#
# Youngs Moduli (GPa) = 42.27986 51.51297 108.24718
#
# Poissons Ratio (x) = 0.28063 0.41537
# Poissons Ratio (y) = 0.23033 0.36691
# Poissons Ratio (z) = 0.16224 0.17460
#
# Static dielectric constant tensor:
#      x y z
#    x 1.625870 0.000000 -0.044490 
#    y 0.000000 1.678890 0.000000 
#    z -0.044490 0.000000 1.699490 
# 
# From -- ./inp_files/57841.got.cif
#   From: 2010.05.17/outbox.cif.g08.bks.cpg/sg15_29_cif.got.tgz:57841.got - 2010.06.03 18:47:42.
