data_PCOD9263072
_publ_section_title
;
Structure prediction by ZEFSAII (Michael W. Deem and Ramdas Pophale) SiO2 
 PCOD9263072
Probable space group: C 2/C
;
_chemical_formula_sum "Si O2"
_cell_formula_units_Z 40
_cell_length_a 8.555879
_cell_length_b 11.804391
_cell_length_c 14.457443
_cell_angle_alpha 90.000000
_cell_angle_beta 72.034563
_cell_angle_gamma 90.000000
_cell_volume 1388.964259
_symmetry_space_group_name_H-M "C 2/C"
_symmetry_group_IT_number 15
_symmetry_cell_setting 'monoclinic'
loop_
_space_group_symop_operation_xyz
x,y,z
-x,y,1/2-z
-x,-y,-z
x,-y,1/2+z
1/2+x,1/2+y,z
1/2-x,1/2+y,1/2-z
1/2-x,1/2-y,-z
1/2+x,1/2-y,1/2+z
loop_
_atom_site_type_symbol
_atom_site_label
_atom_site_fract_x
_atom_site_fract_y
_atom_site_fract_z
Si Si1 0.340007 0.080960 0.343846
Si Si2 0.480778 0.270223 0.073131
Si Si3 0.640335 0.087351 0.509149
Si Si4 0.826789 0.733197 0.731775
Si Si5 0.142530 0.046512 0.648534
O O1 0.500000 0.062730 0.250000
O O2 0.396539 0.177139 0.405856
O O3 0.197237 0.144984 0.314552
O O4 0.304388 0.964922 0.403760
O O5 0.423916 0.215316 0.987378
O O6 0.326172 0.270298 0.169729
O O7 0.571060 0.387690 0.071836
O O8 0.500000 0.000000 0.500000
O O9 0.778782 0.065884 0.406485
O O10 0.779702 0.628522 0.671360
O O11 0.000000 0.721326 0.750000
O O12 0.000000 0.035568 0.750000
#
# Coordination Sequence:
#
# PCOD9263072 Si02
#       5
#     8   8   8   8   8
#     4   8  16  32  54  79 112 152 202 261 315 372
#     4   8  17  33  55  84 117 153 200 254 313 378
#     4  10  19  33  62  93 113 155 219 265 310 386
#     4   9  17  33  55  80 116 162 201 251 318 379
#     4   9  19  37  60  88 126 166 203 258 328 382
#
# _framework density 28.798438000000001
#
# number of rings (size 3 to 8) (size 9 to 14) (size 15 to 20)
#    0.000    3.200    0.000    2.400    0.000    8.000 
#    0.000   12.000    0.000   30.000    0.000    0.000 
#    0.000    0.000    0.000    0.000    0.000    0.400 
#
# Total GULP energy -112217.053849 kJ/mol
# GULP energy per Si atom -5610.852692 kJ/mol
# Density = 2.873289 g / cm^3
# Si number density = 28.798438 Si / 1000 Ang^3
#
#
#
# Elastic Constant Matrix: (Units=GPa)
#
#
# Indices 1 2 3 4 5 6 
#
# 1 175.7976 51.8560 47.8503 0.0000 20.7125 0.0000
# 2 51.8560 125.2941 55.3869 0.0000 28.4514 0.0000
# 3 47.8503 55.3869 104.9139 0.0000 -16.5976 0.0000
# 4 0.0000 0.0000 0.0000 31.9003 0.0000 18.9857
# 5 20.7125 28.4514 -16.5976 0.0000 48.7240 0.0000
# 6 0.0000 0.0000 0.0000 18.9857 0.0000 52.3229
#
#
#
# Elastic Compliance Matrix: (Units=1/GPa)
#
#
# Indices 1 2 3 4 5 6 
#
# 1 0.007331 -0.000418 -0.003781 0.000000 -0.004160 0.000000
# 2 -0.000418 0.015173 -0.009717 0.000000 -0.011992 0.000000
# 3 -0.003781 -0.009717 0.018537 0.000000 0.013596 0.000000
# 4 0.000000 0.000000 0.000000 0.039982 0.000000 -0.014508
# 5 -0.004160 -0.011992 0.013596 0.000000 0.033926 0.000000
# 6 0.000000 0.000000 0.000000 -0.014508 0.000000 0.024376
#
#
# Mechanical properties :
#
#
# Convention : Reuss Voigt Hill
#
# Bulk Modulus (GPa) = 75.70613 79.57688 77.64150
# Shear Modulus (GPa) = 29.14452 43.31692 36.23072
#
# Velocity S-wave (km/s) = 3.18467 3.88253 3.55079
# Velocity P-wave (km/s) = 6.31413 6.91311 6.62040
#
# Compressibility (1/GPa) = 0.01320897
#
# Stress axis : x y z
#
# Youngs Moduli (GPa) = 136.40695 65.90872 53.94719
#
# Poissons Ratio (x) = 0.02754 0.20398
# Poissons Ratio (y) = 0.05700 0.52418
# Poissons Ratio (z) = 0.51578 0.64040
#
# Static dielectric constant tensor:
#      x y z
#    x 2.227400 0.000000 0.066200 
#    y 0.000000 2.157530 0.000000 
#    z 0.066200 0.000000 2.281820 
# 
# From -- ./inp_files/187801.got.cif
#   From: 2010.05.17/outbox.cif.g08.bks.cpg/sg15_94_cif.got.tgz:187801.got - 2010.06.03 18:47:42.
