data_PCOD9263694
_publ_section_title
;
Structure prediction by ZEFSAII (Michael W. Deem and Ramdas Pophale) SiO2 
 PCOD9263694
Probable space group: C 2/C
;
_chemical_formula_sum "Si O2"
_cell_formula_units_Z 56
_cell_length_a 21.110001
_cell_length_b 11.049401
_cell_length_c 17.888251
_cell_angle_alpha 90.000000
_cell_angle_beta 42.311210
_cell_angle_gamma 90.000000
_cell_volume 2808.738913
_symmetry_space_group_name_H-M "C 2/C"
_symmetry_group_IT_number 15
_symmetry_cell_setting 'monoclinic'
loop_
_space_group_symop_operation_xyz
x,y,z
-x,y,1/2-z
-x,-y,-z
x,-y,1/2+z
1/2+x,1/2+y,z
1/2-x,1/2+y,1/2-z
1/2-x,1/2-y,-z
1/2+x,1/2-y,1/2+z
loop_
_atom_site_type_symbol
_atom_site_label
_atom_site_fract_x
_atom_site_fract_y
_atom_site_fract_z
Si Si1 0.068447 0.055005 0.356669
Si Si2 0.003172 0.414866 0.923764
Si Si3 0.353006 0.221985 0.622062
Si Si4 0.890246 0.194485 0.326610
Si Si5 0.651602 0.589751 0.979701
Si Si6 0.850806 0.565737 0.776730
Si Si7 0.352046 0.705886 0.667138
O O1 0.091389 0.158178 0.398824
O O2 0.115253 0.107160 0.240409
O O3 0.955550 0.042729 0.440924
O O4 0.114315 0.927844 0.338369
O O5 0.055419 0.483725 0.810478
O O6 0.071517 0.304797 0.882568
O O7 0.000000 0.500000 0.000000
O O8 0.901677 0.349725 0.011456
O O9 0.352598 0.131954 0.694366
O O10 0.243122 0.244009 0.708619
O O11 0.843932 0.138256 0.440178
O O12 0.858761 0.327605 0.330044
O O13 0.000000 0.204173 0.250000
O O14 0.745657 0.511394 0.880261
O O15 0.661169 0.698213 0.910971
#
# Coordination Sequence:
#
# PCOD9263694 Si02
#       7
#     8   8   8   8   8   8   8
#     4  10  20  36  56  87 117 152 201 248 295 352
#     4  10  21  35  52  81 121 152 186 243 304 344
#     4   9  20  34  52  82 119 150 193 242 299 347
#     4   9  19  36  58  83 115 157 200 247 294 355
#     4  10  19  34  59  86 113 153 198 253 289 349
#     4   9  19  34  53  83 116 152 195 235 303 349
#     4  11  22  33  59  90 116 153 200 250 302 355
#
# _framework density 19.937774000000001
#
# number of rings (size 3 to 8) (size 9 to 14) (size 15 to 20)
#    0.000    2.286    1.429    0.857    8.000    0.000 
#    0.000    1.429    0.000    3.429    0.000    0.000 
#    0.000    0.000    0.000    0.000    0.000    0.000 
#
# Total GULP energy -155941.566605 kJ/mol
# GULP energy per Si atom -5569.341664 kJ/mol
# Density = 1.989239 g / cm^3
# Si number density = 19.937774 Si / 1000 Ang^3
#
#
#
# Elastic Constant Matrix: (Units=GPa)
#
#
# Indices 1 2 3 4 5 6 
#
# 1 29.6035 27.4042 41.9348 0.0000 -2.2126 0.0000
# 2 27.4042 84.5997 57.2865 0.0000 -3.4328 0.0000
# 3 41.9348 57.2865 143.9231 0.0000 -19.6842 0.0000
# 4 0.0000 0.0000 0.0000 18.5606 0.0000 -4.2265
# 5 -2.2126 -3.4328 -19.6842 0.0000 26.8889 0.0000
# 6 0.0000 0.0000 0.0000 -4.2265 0.0000 11.0695
#
#
#
# Elastic Compliance Matrix: (Units=1/GPa)
#
#
# Indices 1 2 3 4 5 6 
#
# 1 0.065750 -0.010857 -0.015875 0.000000 -0.007597 0.000000
# 2 -0.010857 0.018187 -0.004312 0.000000 -0.001728 0.000000
# 3 -0.015875 -0.004312 0.014487 0.000000 0.008748 0.000000
# 4 0.000000 0.000000 0.000000 0.059008 0.000000 0.022530
# 5 -0.007597 -0.001728 0.008748 0.000000 0.042748 0.000000
# 6 0.000000 0.000000 0.000000 0.022530 0.000000 0.098940
#
#
# Mechanical properties :
#
#
# Convention : Reuss Voigt Hill
#
# Bulk Modulus (GPa) = 27.52125 56.81970 42.17048
# Shear Modulus (GPa) = 13.39331 20.07052 16.73191
#
# Velocity S-wave (km/s) = 2.59464 3.17623 2.90005
# Velocity P-wave (km/s) = 4.77595 6.48164 5.69304
#
# Compressibility (1/GPa) = 0.03633556
#
# Stress axis : x y z
#
# Youngs Moduli (GPa) = 15.20907 54.98443 69.02931
#
# Poissons Ratio (x) = 0.59695 1.09586
# Poissons Ratio (y) = 0.16512 0.29766
# Poissons Ratio (z) = 0.24145 0.23710
#
# Static dielectric constant tensor:
#      x y z
#    x 1.786180 0.000000 -0.064520 
#    y 0.000000 1.702540 0.000000 
#    z -0.064520 0.000000 1.801600 
# 
# From -- ./inp_files/219079.got.cif
#   From: 2010.05.17/outbox.cif.g08.bks.cpg/sg15_110_cif.got.tgz:219079.got - 2010.06.03 18:47:42.
