data_PCOD9263002
_publ_section_title
;
Structure prediction by ZEFSAII (Michael W. Deem and Ramdas Pophale) SiO2 
 PCOD9263002
Probable space group: C 2/C
;
_chemical_formula_sum "Si O2"
_cell_formula_units_Z 32
_cell_length_a 5.052507
_cell_length_b 18.850421
_cell_length_c 18.928351
_cell_angle_alpha 90.000000
_cell_angle_beta 109.318914
_cell_angle_gamma 90.000000
_cell_volume 1701.260964
_symmetry_space_group_name_H-M "C 2/C"
_symmetry_group_IT_number 15
_symmetry_cell_setting 'monoclinic'
loop_
_space_group_symop_operation_xyz
x,y,z
-x,y,1/2-z
-x,-y,-z
x,-y,1/2+z
1/2+x,1/2+y,z
1/2-x,1/2+y,1/2-z
1/2-x,1/2-y,-z
1/2+x,1/2-y,1/2+z
loop_
_atom_site_type_symbol
_atom_site_label
_atom_site_fract_x
_atom_site_fract_y
_atom_site_fract_z
Si Si1 0.476002 0.868655 0.170159
Si Si2 0.992762 0.189825 0.031172
Si Si3 0.579935 0.707361 0.880421
Si Si4 0.232540 0.548703 0.984857
O O1 0.500000 0.900627 0.250000
O O2 0.763673 0.839145 0.163882
O O3 0.363735 0.921144 0.099842
O O4 0.251706 0.803419 0.158062
O O5 0.247444 0.219006 0.101145
O O6 0.750000 0.250000 0.000000
O O7 0.831972 0.118376 0.037163
O O8 0.124479 0.178256 0.964487
O O9 0.500000 0.500000 0.000000
O O10 0.000000 0.500000 0.000000
#
# Coordination Sequence:
#
# PCOD9263002 Si02
#       4
#     8   8   8   8
#     4  11  22  38  59  88 121 158 209 257 304 370
#     4  10  19  35  61  86 124 143 195 252 304 346
#     4  10  19  33  59  88 111 150 197 244 305 343
#     4  11  23  36  58  93 120 155 204 246 302 365
#
# _framework density 18.809577999999998
#
# number of rings (size 3 to 8) (size 9 to 14) (size 15 to 20)
#    0.000    1.500    5.000    3.750    3.500    0.000 
#    0.000    0.000    0.000    6.000    0.000    0.000 
#    0.000    0.000    0.000    0.000    0.000    0.000 
#
# Total GULP energy -89122.297971 kJ/mol
# GULP energy per Si atom -5570.143623 kJ/mol
# Density = 1.876677 g / cm^3
# Si number density = 18.809578 Si / 1000 Ang^3
#
#
#
# Elastic Constant Matrix: (Units=GPa)
#
#
# Indices 1 2 3 4 5 6 
#
# 1 137.1007 46.5130 18.2360 0.0000 -15.4295 0.0000
# 2 46.5130 112.1217 12.5486 0.0000 -0.0869 0.0000
# 3 18.2360 12.5486 85.0078 0.0000 -12.4591 0.0000
# 4 0.0000 0.0000 0.0000 18.2597 0.0000 -2.6476
# 5 -15.4295 -0.0869 -12.4591 0.0000 29.0680 0.0000
# 6 0.0000 0.0000 0.0000 -2.6476 0.0000 31.8930
#
#
#
# Elastic Compliance Matrix: (Units=1/GPa)
#
#
# Indices 1 2 3 4 5 6 
#
# 1 0.009164 -0.003714 -0.000754 0.000000 0.004530 0.000000
# 2 -0.003714 0.010583 -0.001120 0.000000 -0.002420 0.000000
# 3 -0.000754 -0.001120 0.012838 0.000000 0.005099 0.000000
# 4 0.000000 0.000000 0.000000 0.055433 0.000000 0.004602
# 5 0.004530 -0.002420 0.005099 0.000000 0.038985 0.000000
# 6 0.000000 0.000000 0.000000 0.004602 0.000000 0.031737
#
#
# Mechanical properties :
#
#
# Convention : Reuss Voigt Hill
#
# Bulk Modulus (GPa) = 46.70785 54.31393 50.51089
# Shear Modulus (GPa) = 28.24037 32.97297 30.60667
#
# Velocity S-wave (km/s) = 3.87897 4.19141 4.03821
# Velocity P-wave (km/s) = 6.70431 7.23618 6.97531
#
# Compressibility (1/GPa) = 0.02140968
#
# Stress axis : x y z
#
# Youngs Moduli (GPa) = 109.12372 94.49121 77.89357
#
# Poissons Ratio (x) = 0.35091 0.05871
# Poissons Ratio (y) = 0.40526 0.08726
# Poissons Ratio (z) = 0.08225 0.10585
#
# Static dielectric constant tensor:
#      x y z
#    x 1.692770 0.000000 0.014370 
#    y 0.000000 1.676710 0.000000 
#    z 0.014370 0.000000 1.688180 
# 
# From -- ./inp_files/184042.got.cif
#   From: 2010.05.17/outbox.cif.g08.bks.cpg/sg15_93_cif.got.tgz:184042.got - 2010.06.03 18:47:42.
