data_PCOD9263049
_publ_section_title
;
Structure prediction by ZEFSAII (Michael W. Deem and Ramdas Pophale) SiO2 
 PCOD9263049
Probable space group: C 2/C
;
_chemical_formula_sum "Si O2"
_cell_formula_units_Z 44
_cell_length_a 27.998635
_cell_length_b 14.067033
_cell_length_c 14.455403
_cell_angle_alpha 90.000000
_cell_angle_beta 16.974306
_cell_angle_gamma 90.000000
_cell_volume 1662.139138
_symmetry_space_group_name_H-M "C 2/C"
_symmetry_group_IT_number 15
_symmetry_cell_setting 'monoclinic'
loop_
_space_group_symop_operation_xyz
x,y,z
-x,y,1/2-z
-x,-y,-z
x,-y,1/2+z
1/2+x,1/2+y,z
1/2-x,1/2+y,1/2-z
1/2-x,1/2-y,-z
1/2+x,1/2-y,1/2+z
loop_
_atom_site_type_symbol
_atom_site_label
_atom_site_fract_x
_atom_site_fract_y
_atom_site_fract_z
Si Si1 0.500000 0.421272 0.750000
Si Si2 0.872061 0.466075 0.903956
Si Si3 0.980809 0.045902 0.935822
Si Si4 0.346064 0.262820 0.682670
Si Si5 0.717965 0.280964 0.223551
Si Si6 0.449217 0.144227 0.652235
O O1 0.413162 0.493673 0.838373
O O2 0.589762 0.349150 0.515195
O O3 0.940518 0.535248 0.698679
O O4 0.000000 0.460096 0.750000
O O5 0.706864 0.520298 0.244261
O O6 0.815791 0.359280 0.983008
O O7 0.987605 0.158434 0.933489
O O8 0.000000 0.000000 0.000000
O O9 0.322486 0.253691 0.617478
O O10 0.385442 0.168836 0.668018
O O11 0.182326 0.303376 0.035406
O O12 0.620197 0.196919 0.355800
#
# Coordination Sequence:
#
# PCOD9263049 Si02
#       6
#     4   8   8   8   8   8
#     4  10  20  34  60  94 128 166 222 278 330 404
#     4  10  22  38  60  92 132 171 213 276 333 400
#     4  10  21  37  63  96 131 173 224 279 337 400
#     4  10  19  33  60  93 122 168 215 264 329 403
#     4  11  20  37  63  91 126 172 216 269 337 397
#     4  10  19  35  62  93 125 166 219 267 328 401
#
# _framework density 26.471910999999999
#
# number of rings (size 3 to 8) (size 9 to 14) (size 15 to 20)
#    0.000    1.818    1.818    4.364    5.091    0.000 
#    1.636    0.909    4.000    2.182    0.000    0.000 
#    0.000    0.000    0.000    0.000    0.000    0.000 
#
# Total GULP energy -123082.268351 kJ/mol
# GULP energy per Si atom -5594.648561 kJ/mol
# Density = 2.641166 g / cm^3
# Si number density = 26.471911 Si / 1000 Ang^3
#
#
#
# Elastic Constant Matrix: (Units=GPa)
#
#
# Indices 1 2 3 4 5 6 
#
# 1 112.8173 26.5213 27.0203 0.0000 4.5997 0.0001
# 2 26.5213 109.0082 30.6295 0.0001 15.5906 0.0001
# 3 27.0203 30.6295 94.2604 0.0001 3.6223 0.0001
# 4 0.0000 0.0001 0.0001 20.2019 -0.0002 0.9805
# 5 4.5997 15.5906 3.6223 -0.0002 30.0540 -0.0001
# 6 0.0001 0.0001 0.0001 0.9805 -0.0001 33.2708
#
#
#
# Elastic Compliance Matrix: (Units=1/GPa)
#
#
# Indices 1 2 3 4 5 6 
#
# 1 0.009817 -0.001708 -0.002246 0.000000 -0.000346 0.000000
# 2 -0.001708 0.011154 -0.002936 0.000000 -0.005171 0.000000
# 3 -0.002246 -0.002936 0.012191 0.000000 0.000397 0.000000
# 4 0.000000 0.000000 0.000000 0.049571 0.000000 -0.001461
# 5 -0.000346 -0.005171 0.000397 0.000000 0.035961 0.000000
# 6 0.000000 0.000000 0.000000 -0.001461 0.000000 0.030099
#
#
# Mechanical properties :
#
#
# Convention : Reuss Voigt Hill
#
# Bulk Modulus (GPa) = 51.59249 53.82534 52.70892
# Shear Modulus (GPa) = 29.57972 32.16633 30.87302
#
# Velocity S-wave (km/s) = 3.34638 3.48963 3.41875
# Velocity P-wave (km/s) = 5.87051 6.05093 5.96140
#
# Compressibility (1/GPa) = 0.01938267
#
# Stress axis : x y z
#
# Youngs Moduli (GPa) = 101.85980 89.65656 82.02444
#
# Poissons Ratio (x) = 0.15314 0.18422
# Poissons Ratio (y) = 0.17398 0.24083
# Poissons Ratio (z) = 0.22877 0.26323
#
# Static dielectric constant tensor:
#      x y z
#    x 2.142510 0.000000 0.038800 
#    y 0.000000 2.080870 0.000000 
#    z 0.038800 0.000000 2.227920 
# 
# From -- ./inp_files/182271.got.cif
#   From: 2010.05.17/outbox.cif.g08.bks.cpg/sg15_92_cif.got.tgz:182271.got - 2010.06.03 18:47:42.
