data_PCOD9263635
_publ_section_title
;
Structure prediction by ZEFSAII (Michael W. Deem and Ramdas Pophale) SiO2 
 PCOD9263635
Probable space group: C 2/C
;
_chemical_formula_sum "Si O2"
_cell_formula_units_Z 60
_cell_length_a 10.231677
_cell_length_b 19.794216
_cell_length_c 19.601369
_cell_angle_alpha 90.000000
_cell_angle_beta 46.130330
_cell_angle_gamma 90.000000
_cell_volume 2861.919684
_symmetry_space_group_name_H-M "C 2/C"
_symmetry_group_IT_number 15
_symmetry_cell_setting 'monoclinic'
loop_
_space_group_symop_operation_xyz
x,y,z
-x,y,1/2-z
-x,-y,-z
x,-y,1/2+z
1/2+x,1/2+y,z
1/2-x,1/2+y,1/2-z
1/2-x,1/2-y,-z
1/2+x,1/2-y,1/2+z
loop_
_atom_site_type_symbol
_atom_site_label
_atom_site_fract_x
_atom_site_fract_y
_atom_site_fract_z
Si Si1 0.399234 0.930827 0.408820
Si Si2 0.796923 0.526192 0.553543
Si Si3 0.788410 0.686724 0.032779
Si Si4 0.917247 0.869094 0.702782
Si Si5 0.458438 0.640269 0.844833
Si Si6 0.296123 0.513864 0.761349
Si Si7 0.000000 0.651626 0.750000
Si Si8 0.686675 0.752193 0.826459
O O1 0.424651 0.868539 0.452954
O O2 0.586501 0.969249 0.328235
O O3 0.374751 0.892549 0.346050
O O4 0.268229 0.984613 0.493861
O O5 0.736888 0.604855 0.569332
O O6 0.685979 0.506254 0.662104
O O7 0.000000 0.500000 0.500000
O O8 0.595440 0.649124 0.097515
O O9 0.835003 0.714816 0.090644
O O10 0.750000 0.750000 0.000000
O O11 0.755816 0.814805 0.755813
O O12 0.000000 0.865346 0.750000
O O13 0.847193 0.942835 0.711968
O O14 0.500000 0.655706 0.750000
O O15 0.593757 0.576788 0.808332
O O16 0.517875 0.706509 0.864517
O O17 0.859830 0.701432 0.763068
#
# Coordination Sequence:
#
# PCOD9263635 Si02
#       8
#     8   8   8   8   8   8   4   8
#     4  11  21  35  60  87 123 160 211 263 319 371
#     4   9  19  35  57  88 117 156 211 263 309 373
#     4  11  20  34  58  92 125 162 211 257 316 384
#     4  10  19  34  58  88 120 159 210 263 308 378
#     4  10  20  37  63  93 121 164 216 264 318 385
#     4  10  19  34  61  89 118 158 210 262 308 367
#     4  12  20  38  56  92 120 174 194 254 340 386
#     4  11  20  37  60  88 131 161 209 264 322 386
#
# _framework density 20.964949000000001
#
# number of rings (size 3 to 8) (size 9 to 14) (size 15 to 20)
#    0.000    1.600    4.667    3.600    0.000    0.000 
#    0.000    2.000    1.467   20.000    0.000    0.000 
#    0.000    0.000    0.000    0.000    0.000    0.000 
#
# Total GULP energy -167053.925474 kJ/mol
# GULP energy per Si atom -5568.464182 kJ/mol
# Density = 2.091723 g / cm^3
# Si number density = 20.964949 Si / 1000 Ang^3
#
#
#
# Elastic Constant Matrix: (Units=GPa)
#
#
# Indices 1 2 3 4 5 6 
#
# 1 36.9728 43.1933 13.9848 0.0004 -7.1678 -0.0001
# 2 43.1933 137.5553 33.5627 0.0003 -5.9945 -0.0002
# 3 13.9848 33.5627 61.5664 0.0003 -3.4108 -0.0003
# 4 0.0004 0.0003 0.0003 39.3549 -0.0004 -8.9775
# 5 -7.1678 -5.9945 -3.4108 -0.0004 24.8665 0.0002
# 6 -0.0001 -0.0002 -0.0003 -8.9775 0.0002 31.8284
#
#
#
# Elastic Compliance Matrix: (Units=1/GPa)
#
#
# Indices 1 2 3 4 5 6 
#
# 1 0.045244 -0.013164 -0.002574 0.000000 0.009515 0.000000
# 2 -0.013164 0.012264 -0.003771 0.000000 -0.001355 0.000000
# 3 -0.002574 -0.003771 0.018935 0.000000 0.000946 0.000000
# 4 0.000000 0.000000 0.000000 0.027157 0.000000 0.007660
# 5 0.009515 -0.001355 0.000946 0.000000 0.042761 0.000000
# 6 0.000000 0.000000 0.000000 0.007660 0.000000 0.033579
#
#
# Mechanical properties :
#
#
# Convention : Reuss Voigt Hill
#
# Bulk Modulus (GPa) = 26.71896 46.39733 36.55814
# Shear Modulus (GPa) = 21.60446 28.90022 25.25234
#
# Velocity S-wave (km/s) = 3.21363 3.71685 3.47436
# Velocity P-wave (km/s) = 5.15191 6.37172 5.79401
#
# Compressibility (1/GPa) = 0.03742661
#
# Stress axis : x y z
#
# Youngs Moduli (GPa) = 22.10225 81.53626 52.81155
#
# Poissons Ratio (x) = 1.07338 0.13591
# Poissons Ratio (y) = 0.29096 0.19914
# Poissons Ratio (z) = 0.05688 0.30745
#
# Static dielectric constant tensor:
#      x y z
#    x 1.871720 0.000000 -0.006720 
#    y 0.000000 1.776000 0.000000 
#    z -0.006720 0.000000 1.832180 
# 
# From -- ./inp_files/239946.got.cif
#   From: 2010.05.17/outbox.cif.g08.bks.cpg/sg15_120_cif.got.tgz:239946.got - 2010.06.03 18:47:42.
