data_PCOD9263598
_publ_section_title
;
Structure prediction by ZEFSAII (Michael W. Deem and Ramdas Pophale) SiO2 
 PCOD9263598
Probable space group: C 2/C
;
_chemical_formula_sum "Si O2"
_cell_formula_units_Z 48
_cell_length_a 15.622841
_cell_length_b 27.853111
_cell_length_c 9.178891
_cell_angle_alpha 90.000000
_cell_angle_beta 144.817627
_cell_angle_gamma 90.000000
_cell_volume 2301.350614
_symmetry_space_group_name_H-M "C 2/C"
_symmetry_group_IT_number 15
_symmetry_cell_setting 'monoclinic'
loop_
_space_group_symop_operation_xyz
x,y,z
-x,y,1/2-z
-x,-y,-z
x,-y,1/2+z
1/2+x,1/2+y,z
1/2-x,1/2+y,1/2-z
1/2-x,1/2-y,-z
1/2+x,1/2-y,1/2+z
loop_
_atom_site_type_symbol
_atom_site_label
_atom_site_fract_x
_atom_site_fract_y
_atom_site_fract_z
Si Si1 0.844694 0.593820 0.124467
Si Si2 0.676317 0.554707 0.496706
Si Si3 0.834037 0.744307 0.465619
Si Si4 0.768007 0.655668 0.766403
Si Si5 0.933439 0.349638 0.999884
Si Si6 0.823349 0.498740 0.968566
O O1 0.868346 0.604985 0.324702
O O2 0.766742 0.543984 0.987584
O O3 0.000000 0.589008 0.250000
O O4 0.772491 0.637726 0.938452
O O5 0.702920 0.609785 0.587228
O O6 0.738686 0.546000 0.421169
O O7 0.774415 0.520279 0.742980
O O8 0.500000 0.544529 0.250000
O O9 0.750000 0.750000 0.500000
O O10 0.813237 0.793753 0.352945
O O11 0.816320 0.693973 0.356235
O O12 0.000000 0.739964 0.750000
O O13 0.930127 0.664676 0.918405
O O14 0.000000 0.361629 0.250000
O O15 0.000000 0.491966 0.250000
#
# Coordination Sequence:
#
# PCOD9263598 Si02
#       6
#     8   8   8   8   8   8
#     4   8  18  35  57  84 118 149 194 243 290 342
#     4  11  23  39  61  90 123 162 197 247 306 351
#     4  11  20  36  56  85 116 145 195 241 290 348
#     4  10  20  37  57  82 115 158 193 238 294 354
#     4  10  19  34  58  85 111 150 196 242 293 343
#     4  10  21  40  62  91 123 156 203 250 291 358
#
# _framework density 20.857316000000001
#
# number of rings (size 3 to 8) (size 9 to 14) (size 15 to 20)
#    0.000    2.000    3.333    2.500    0.000    2.667 
#    0.000    0.000    0.000    0.000    0.000    0.000 
#    0.000    0.000    0.000    0.000    0.000    0.000 
#
# Total GULP energy -133633.995231 kJ/mol
# GULP energy per Si atom -5568.083135 kJ/mol
# Density = 2.080984 g / cm^3
# Si number density = 20.857316 Si / 1000 Ang^3
#
#
#
# Elastic Constant Matrix: (Units=GPa)
#
#
# Indices 1 2 3 4 5 6 
#
# 1 76.8863 21.4277 17.9447 0.0000 -7.4864 0.0000
# 2 21.4277 44.2857 8.8823 0.0000 -23.7407 0.0000
# 3 17.9447 8.8823 41.7742 0.0000 -8.1511 0.0000
# 4 0.0000 0.0000 0.0000 24.4875 0.0000 -7.1376
# 5 -7.4864 -23.7407 -8.1511 0.0000 41.4464 0.0000
# 6 0.0000 0.0000 0.0000 -7.1376 0.0000 28.0647
#
#
#
# Elastic Compliance Matrix: (Units=1/GPa)
#
#
# Indices 1 2 3 4 5 6 
#
# 1 0.016413 -0.008364 -0.005853 0.000000 -0.002977 0.000000
# 2 -0.008364 0.037325 -0.000485 0.000000 0.019774 0.000000
# 3 -0.005853 -0.000485 0.027344 0.000000 0.004043 0.000000
# 4 0.000000 0.000000 0.000000 0.044107 0.000000 0.011218
# 5 -0.002977 0.019774 0.004043 0.000000 0.035711 0.000000
# 6 0.000000 0.000000 0.000000 0.011218 0.000000 0.038485
#
#
# Mechanical properties :
#
#
# Convention : Reuss Voigt Hill
#
# Bulk Modulus (GPa) = 19.35029 28.82840 24.08934
# Shear Modulus (GPa) = 20.32385 26.44581 23.38483
#
# Velocity S-wave (km/s) = 3.12496 3.56468 3.35204
# Velocity P-wave (km/s) = 4.72420 5.54926 5.15327
#
# Compressibility (1/GPa) = 0.05167882
#
# Stress axis : x y z
#
# Youngs Moduli (GPa) = 60.92625 26.79161 36.57045
#
# Poissons Ratio (x) = 0.22407 0.21405
# Poissons Ratio (y) = 0.50956 0.01775
# Poissons Ratio (z) = 0.35661 0.01300
#
# Static dielectric constant tensor:
#      x y z
#    x 1.743380 0.000000 -0.018430 
#    y 0.000000 1.874100 0.000000 
#    z -0.018430 0.000000 1.824580 
# 
# From -- ./inp_files/44664.got.cif
#   From: 2010.05.17/outbox.cif.g08.bks.cpg/sg15_23_cif.got.tgz:44664.got - 2010.06.03 18:47:42.
