data_PCOD9263666
_publ_section_title
;
Structure prediction by ZEFSAII (Michael W. Deem and Ramdas Pophale) SiO2 
 PCOD9263666
Probable space group: C 2/C
;
_chemical_formula_sum "Si O2"
_cell_formula_units_Z 40
_cell_length_a 14.253348
_cell_length_b 23.221813
_cell_length_c 5.116163
_cell_angle_alpha 90.000000
_cell_angle_beta 72.061199
_cell_angle_gamma 90.000000
_cell_volume 1611.069071
_symmetry_space_group_name_H-M "C 2/C"
_symmetry_group_IT_number 15
_symmetry_cell_setting 'monoclinic'
loop_
_space_group_symop_operation_xyz
x,y,z
-x,y,1/2-z
-x,-y,-z
x,-y,1/2+z
1/2+x,1/2+y,z
1/2-x,1/2+y,1/2-z
1/2-x,1/2-y,-z
1/2+x,1/2-y,1/2+z
loop_
_atom_site_type_symbol
_atom_site_label
_atom_site_fract_x
_atom_site_fract_y
_atom_site_fract_z
Si Si1 0.572752 0.553916 0.385057
Si Si2 0.702440 0.032955 0.427867
Si Si3 0.611592 0.787563 0.663745
Si Si4 0.704732 0.838480 0.081106
Si Si5 0.411361 0.672314 0.134256
O O1 0.500000 0.586874 0.250000
O O2 0.500000 0.500000 0.500000
O O3 0.676232 0.531983 0.186953
O O4 0.593620 0.611172 0.533262
O O5 0.672476 0.096293 0.540713
O O6 0.670836 0.986390 0.668799
O O7 0.500000 0.810308 0.750000
O O8 0.678023 0.822114 0.397848
O O9 0.607503 0.722895 0.556641
O O10 0.652462 0.796104 0.918792
O O11 0.818910 0.835820 0.907267
O O12 0.500000 0.692845 0.250000
#
# Coordination Sequence:
#
# PCOD9263666 Si02
#       5
#     8   8   8   8   8
#     4  10  19  34  58  96 144 190 218 264 329 429
#     4  11  22  39  65  97 136 178 224 274 351 427
#     4  12  25  47  71  98 134 186 254 306 351 401
#     4  11  25  45  72 102 141 190 232 298 357 417
#     4  10  23  41  66 106 147 190 232 280 349 439
#
# _framework density 24.828234999999999
#
# number of rings (size 3 to 8) (size 9 to 14) (size 15 to 20)
#    0.000    1.200    2.000    4.200    0.000    2.400 
#    0.000    2.000    0.000   12.000    0.000    0.000 
#    0.000    0.000    0.000    0.000    0.000    0.000 
#
# Total GULP energy -111681.230839 kJ/mol
# GULP energy per Si atom -5584.061542 kJ/mol
# Density = 2.477172 g / cm^3
# Si number density = 24.828235 Si / 1000 Ang^3
#
#
#
# Elastic Constant Matrix: (Units=GPa)
#
#
# Indices 1 2 3 4 5 6 
#
# 1 60.1822 -13.9192 3.3259 0.0000 -7.0987 0.0000
# 2 -13.9192 158.9820 7.4959 0.0000 -4.4048 0.0000
# 3 3.3259 7.4959 82.2854 0.0000 -6.5330 0.0000
# 4 0.0000 0.0000 0.0000 14.0556 0.0000 -1.2832
# 5 -7.0987 -4.4048 -6.5330 0.0000 37.8330 0.0000
# 6 0.0000 0.0000 0.0000 -1.2832 0.0000 11.7824
#
#
#
# Elastic Compliance Matrix: (Units=1/GPa)
#
#
# Indices 1 2 3 4 5 6 
#
# 1 0.017426 0.001646 -0.000588 0.000000 0.003360 0.000000
# 2 0.001646 0.006488 -0.000581 0.000000 0.000964 0.000000
# 3 -0.000588 -0.000581 0.012385 0.000000 0.001961 0.000000
# 4 0.000000 0.000000 0.000000 0.071860 0.000000 0.007826
# 5 0.003360 0.000964 0.001961 0.000000 0.027513 0.000000
# 6 0.000000 0.000000 0.000000 0.007826 0.000000 0.085725
#
#
# Mechanical properties :
#
#
# Convention : Reuss Voigt Hill
#
# Bulk Modulus (GPa) = 26.84211 32.80607 29.82409
# Shear Modulus (GPa) = 21.47211 33.03734 27.25473
#
# Velocity S-wave (km/s) = 2.94398 3.65175 3.31680
# Velocity P-wave (km/s) = 4.73188 5.56976 5.16783
#
# Compressibility (1/GPa) = 0.03725490
#
# Stress axis : x y z
#
# Youngs Moduli (GPa) = 57.38625 154.12414 80.74163
#
# Poissons Ratio (x) = -0.25376 0.04744
# Poissons Ratio (y) = -0.09448 0.04692
# Poissons Ratio (z) = 0.03372 0.08956
#
# Static dielectric constant tensor:
#      x y z
#    x 1.940190 0.000000 0.300080 
#    y 0.000000 2.117950 0.000000 
#    z 0.300080 0.000000 2.053390 
# 
# From -- ./inp_files/7480.got.cif
#   From: 2010.05.17/outbox.cif.g08.bks.cpg/sg15_4_cif.got.tgz:7480.got - 2010.06.03 18:47:42.
