data_PCOD9263925
_publ_section_title
;
Structure prediction by ZEFSAII (Michael W. Deem and Ramdas Pophale) SiO2 
 PCOD9263925
Probable space group: C 2/C
;
_chemical_formula_sum "Si O2"
_cell_formula_units_Z 64
_cell_length_a 8.126552
_cell_length_b 22.596649
_cell_length_c 15.852313
_cell_angle_alpha 90.000000
_cell_angle_beta 91.038627
_cell_angle_gamma 90.000000
_cell_volume 2910.527034
_symmetry_space_group_name_H-M "C 2/C"
_symmetry_group_IT_number 15
_symmetry_cell_setting 'monoclinic'
loop_
_space_group_symop_operation_xyz
x,y,z
-x,y,1/2-z
-x,-y,-z
x,-y,1/2+z
1/2+x,1/2+y,z
1/2-x,1/2+y,1/2-z
1/2-x,1/2-y,-z
1/2+x,1/2-y,1/2+z
loop_
_atom_site_type_symbol
_atom_site_label
_atom_site_fract_x
_atom_site_fract_y
_atom_site_fract_z
Si Si1 0.749209 0.948499 0.504281
Si Si2 0.867864 0.928899 0.932614
Si Si3 0.321270 0.351676 0.768289
Si Si4 0.648920 0.358518 0.411914
Si Si5 0.220962 0.855087 0.129173
Si Si6 0.874721 0.561955 0.320800
Si Si7 0.806322 0.774251 0.230246
Si Si8 0.172536 0.953967 0.272348
O O1 0.697175 0.893239 0.444383
O O2 0.618895 0.952262 0.579775
O O3 0.937218 0.938850 0.543249
O O4 0.775549 0.008885 0.450339
O O5 0.836830 0.901263 0.840956
O O6 0.800826 0.877838 0.995185
O O7 0.500000 0.327055 0.750000
O O8 0.257149 0.385454 0.685599
O O9 0.213859 0.294521 0.786999
O O10 0.457766 0.339100 0.410911
O O11 0.741440 0.311700 0.353549
O O12 0.654139 0.420149 0.360229
O O13 0.282091 0.799366 0.185407
O O14 0.196862 0.904164 0.202515
O O15 0.813006 0.500926 0.280213
O O16 0.000000 0.583933 0.250000
O O17 0.000000 0.787285 0.250000
O O18 0.000000 0.985010 0.250000
#
# Coordination Sequence:
#
# PCOD9263925 Si02
#       8
#     8   8   8   8   8   8   8   8
#     4  10  19  35  60  93 118 148 197 238 292 354
#     4  10  19  34  63  94 117 143 196 252 285 347
#     4  12  24  39  58  84 116 156 202 243 288 346
#     4   8  15  32  61  90 112 147 193 241 291 345
#     4   8  16  32  60  87 112 149 197 241 279 347
#     4  12  24  37  55  84 124 161 187 237 303 358
#     4   9  19  38  62  84 115 155 198 242 295 345
#     4   9  16  32  59  88 111 146 195 236 286 348
#
# _framework density 21.989144
#
# number of rings (size 3 to 8) (size 9 to 14) (size 15 to 20)
#    0.000    2.250    2.500    3.000    1.750    0.500 
#    0.000    5.625    5.500    0.000    0.000    0.000 
#    0.000    0.000    0.000    0.000    0.000    0.000 
#
# Total GULP energy -178248.855946 kJ/mol
# GULP energy per Si atom -5570.276748 kJ/mol
# Density = 2.193910 g / cm^3
# Si number density = 21.989144 Si / 1000 Ang^3
#
#
#
# Elastic Constant Matrix: (Units=GPa)
#
#
# Indices 1 2 3 4 5 6 
#
# 1 21.3934 2.6566 8.5813 0.0000 -12.2336 0.0000
# 2 2.6566 100.9654 29.1800 0.0000 0.2577 0.0000
# 3 8.5813 29.1800 93.3783 0.0000 -17.8556 0.0000
# 4 0.0000 0.0000 0.0000 21.5304 0.0000 1.1413
# 5 -12.2336 0.2577 -17.8556 0.0000 16.7428 0.0000
# 6 0.0000 0.0000 0.0000 1.1413 0.0000 20.8679
#
#
#
# Elastic Compliance Matrix: (Units=1/GPa)
#
#
# Indices 1 2 3 4 5 6 
#
# 1 0.083697 -0.004325 0.006741 0.000000 0.068411 0.000000
# 2 -0.004325 0.011423 -0.004786 0.000000 -0.008440 0.000000
# 3 0.006741 -0.004786 0.015754 0.000000 0.021800 0.000000
# 4 0.000000 0.000000 0.000000 0.046581 0.000000 -0.002548
# 5 0.068411 -0.008440 0.021800 0.000000 0.133093 0.000000
# 6 0.000000 0.000000 0.000000 -0.002548 0.000000 0.048060
#
#
# Mechanical properties :
#
#
# Convention : Reuss Voigt Hill
#
# Bulk Modulus (GPa) = 9.42206 32.95256 21.18731
# Shear Modulus (GPa) = 13.20220 23.51617 18.35918
#
# Velocity S-wave (km/s) = 2.45296 3.27378 2.89263
# Velocity P-wave (km/s) = 3.50953 5.41374 4.56209
#
# Compressibility (1/GPa) = 0.10613388
#
# Stress axis : x y z
#
# Youngs Moduli (GPa) = 11.94791 87.54306 63.47662
#
# Poissons Ratio (x) = 0.37864 -0.42793
# Poissons Ratio (y) = 0.05168 0.30380
# Poissons Ratio (z) = -0.08055 0.41899
#
# Static dielectric constant tensor:
#      x y z
#    x 1.888500 0.000000 -0.020020 
#    y 0.000000 1.762080 0.000000 
#    z -0.020020 0.000000 1.850930 
# 
# From -- ./inp_files/137852.got.cif
#   From: 2010.05.17/outbox.cif.g08.bks.cpg/sg15_69_cif.got.tgz:137852.got - 2010.06.03 18:47:42.
