data_PCOD9263284
_publ_section_title
;
Structure prediction by ZEFSAII (Michael W. Deem and Ramdas Pophale) SiO2 
 PCOD9263284
Probable space group: C 2/C
;
_chemical_formula_sum "Si O2"
_cell_formula_units_Z 56
_cell_length_a 13.057404
_cell_length_b 29.521812
_cell_length_c 7.821842
_cell_angle_alpha 90.000000
_cell_angle_beta 118.041331
_cell_angle_gamma 90.000000
_cell_volume 2661.197439
_symmetry_space_group_name_H-M "C 2/C"
_symmetry_group_IT_number 15
_symmetry_cell_setting 'monoclinic'
loop_
_space_group_symop_operation_xyz
x,y,z
-x,y,1/2-z
-x,-y,-z
x,-y,1/2+z
1/2+x,1/2+y,z
1/2-x,1/2+y,1/2-z
1/2-x,1/2-y,-z
1/2+x,1/2-y,1/2+z
loop_
_atom_site_type_symbol
_atom_site_label
_atom_site_fract_x
_atom_site_fract_y
_atom_site_fract_z
Si Si1 0.744533 0.486815 0.127942
Si Si2 0.387809 0.553924 0.274269
Si Si3 0.528274 0.115251 0.964273
Si Si4 0.234165 0.866776 0.693921
Si Si5 0.520446 0.779413 0.063185
Si Si6 0.238782 0.262185 0.695858
Si Si7 0.156912 0.566741 0.477387
O O1 0.633881 0.517774 0.093331
O O2 0.838472 0.525275 0.153186
O O3 0.776191 0.453830 0.306501
O O4 0.715022 0.458499 0.937895
O O5 0.500000 0.549095 0.250000
O O6 0.377459 0.604385 0.340351
O O7 0.500000 0.101921 0.750000
O O8 0.485414 0.166553 0.964585
O O9 0.663637 0.118039 0.099050
O O10 0.465124 0.082670 0.045822
O O11 0.229092 0.813485 0.721407
O O12 0.278311 0.889195 0.551102
O O13 0.500000 0.770545 0.250000
O O14 0.653983 0.765026 0.131665
O O15 0.402372 0.758682 0.881978
O O16 0.250000 0.250000 0.500000
#
# Coordination Sequence:
#
# PCOD9263284 Si02
#       7
#     8   8   8   8   8   8   8
#     4   9  20  36  55  80 108 144 188 234 287 345
#     4  10  19  34  55  78 107 146 189 235 285 341
#     4  10  19  35  57  80 109 147 186 232 291 351
#     4  10  21  35  53  82 112 146 188 231 284 343
#     4   8  16  30  53  79 107 145 185 228 280 338
#     4   9  17  32  53  80 112 146 189 235 281 341
#     4  10  20  38  57  79 113 146 184 235 290 349
#
# _framework density 21.043158999999999
#
# number of rings (size 3 to 8) (size 9 to 14) (size 15 to 20)
#    0.000    2.571    0.000    2.571    0.000    1.714 
#    0.000   18.571    0.000    0.000    0.000    0.000 
#    0.000    0.000    0.000    0.000    0.000    0.000 
#
# Total GULP energy -155880.788863 kJ/mol
# GULP energy per Si atom -5567.171031 kJ/mol
# Density = 2.099526 g / cm^3
# Si number density = 21.043159 Si / 1000 Ang^3
#
#
#
# Elastic Constant Matrix: (Units=GPa)
#
#
# Indices 1 2 3 4 5 6 
#
# 1 62.4269 31.3844 21.4761 0.0000 12.0862 0.0000
# 2 31.3844 93.6420 29.2911 0.0000 -1.1554 0.0000
# 3 21.4761 29.2911 44.3847 0.0000 1.4476 0.0000
# 4 0.0000 0.0000 0.0000 10.3648 0.0000 -23.0575
# 5 12.0862 -1.1554 1.4476 0.0000 27.8289 0.0000
# 6 0.0000 0.0000 0.0000 -23.0575 0.0000 -6.8874
#
#
#
# Elastic Compliance Matrix: (Units=1/GPa)
#
#
# Indices 1 2 3 4 5 6 
#
# 1 0.023276 -0.005674 -0.007193 0.000000 -0.009970 0.000000
# 2 -0.005674 0.014869 -0.007180 0.000000 0.003455 0.000000
# 3 -0.007193 -0.007180 0.030709 0.000000 0.001228 0.000000
# 4 0.000000 0.000000 0.000000 0.011421 0.000000 -0.038236
# 5 -0.009970 0.003455 0.001228 0.000000 0.040344 0.000000
# 6 0.000000 0.000000 0.000000 -0.038236 0.000000 -0.017188
#
#
# Mechanical properties :
#
#
# Convention : Reuss Voigt Hill
#
# Bulk Modulus (GPa) = 34.76979 40.52854 37.64916
# Shear Modulus (GPa) = 32.65595 14.14806 23.40201
#
# Velocity S-wave (km/s) = 3.94363 2.59576 3.33843
# Velocity P-wave (km/s) = 6.10699 5.31841 5.72629
#
# Compressibility (1/GPa) = 0.02876060
#
# Stress axis : x y z
#
# Youngs Moduli (GPa) = 42.96246 67.25307 32.56408
#
# Poissons Ratio (x) = 0.38161 0.23422
# Poissons Ratio (y) = 0.24378 0.23381
# Poissons Ratio (z) = 0.30901 0.48287
#
# Static dielectric constant tensor:
#      x y z
#    x 1.784650 0.000000 0.014060 
#    y 0.000000 1.767590 0.000000 
#    z 0.014060 0.000000 1.814310 
# 
# From -- ./inp_files/35301.got.cif
#   From: 2010.05.17/outbox.cif.g08.bks.cpg/sg15_18_cif.got.tgz:35301.got - 2010.06.03 18:47:42.
