data_PCOD9263893
_publ_section_title
;
Structure prediction by ZEFSAII (Michael W. Deem and Ramdas Pophale) SiO2 
 PCOD9263893
Probable space group: C 2/C
;
_chemical_formula_sum "Si O2"
_cell_formula_units_Z 40
_cell_length_a 11.568860
_cell_length_b 9.070399
_cell_length_c 20.033619
_cell_angle_alpha 90.000000
_cell_angle_beta 102.529895
_cell_angle_gamma 90.000000
_cell_volume 2052.142820
_symmetry_space_group_name_H-M "C 2/C"
_symmetry_group_IT_number 15
_symmetry_cell_setting 'monoclinic'
loop_
_space_group_symop_operation_xyz
x,y,z
-x,y,1/2-z
-x,-y,-z
x,-y,1/2+z
1/2+x,1/2+y,z
1/2-x,1/2+y,1/2-z
1/2-x,1/2-y,-z
1/2+x,1/2-y,1/2+z
loop_
_atom_site_type_symbol
_atom_site_label
_atom_site_fract_x
_atom_site_fract_y
_atom_site_fract_z
Si Si1 0.539062 0.549342 0.079500
Si Si2 0.381923 0.803134 0.032601
Si Si3 0.506680 0.290182 0.329083
Si Si4 0.232519 0.721295 0.576828
Si Si5 0.951497 0.541956 0.410226
O O1 0.439712 0.672163 0.082210
O O2 0.547526 0.421462 0.133826
O O3 0.660026 0.637702 0.091644
O O4 0.500000 0.500000 0.000000
O O5 0.422832 0.954758 0.073097
O O6 0.250000 0.750000 0.000000
O O7 0.445135 0.836657 0.968973
O O8 0.500000 0.315495 0.250000
O O9 0.641914 0.287772 0.371809
O O10 0.444407 0.136688 0.342572
O O11 0.250000 0.750000 0.500000
O O12 0.151532 0.577078 0.585136
#
# Coordination Sequence:
#
# PCOD9263893 Si02
#       5
#     8   8   8   8   8
#     4  11  21  38  63  96 122 162 217 258 314 382
#     4  10  19  34  62  92 119 152 206 267 308 364
#     4  12  26  42  61  92 134 172 207 264 326 376
#     4  11  22  41  67  92 127 161 210 272 312 372
#     4  10  22  37  58  92 121 159 212 252 314 383
#
# _framework density 19.491819
#
# number of rings (size 3 to 8) (size 9 to 14) (size 15 to 20)
#    0.000    1.200    4.000    3.600    2.800    1.600 
#    0.000    4.000    0.000    0.000    0.000    0.000 
#    0.000    0.000    0.000    0.000    0.000    0.000 
#
# Total GULP energy -111529.420802 kJ/mol
# GULP energy per Si atom -5576.471040 kJ/mol
# Density = 1.944746 g / cm^3
# Si number density = 19.491819 Si / 1000 Ang^3
#
#
#
# Elastic Constant Matrix: (Units=GPa)
#
#
# Indices 1 2 3 4 5 6 
#
# 1 109.5438 56.0910 26.3571 0.0000 7.8769 0.0000
# 2 56.0910 137.7221 61.3983 0.0000 -16.9457 0.0000
# 3 26.3571 61.3983 126.8358 0.0000 -10.4765 0.0000
# 4 0.0000 0.0000 0.0000 22.8036 0.0000 -7.0163
# 5 7.8769 -16.9457 -10.4765 0.0000 21.9493 0.0000
# 6 0.0000 0.0000 0.0000 -7.0163 0.0000 38.1607
#
#
#
# Elastic Compliance Matrix: (Units=1/GPa)
#
#
# Indices 1 2 3 4 5 6 
#
# 1 0.013231 -0.006399 -0.000471 0.000000 -0.009913 0.000000
# 2 -0.006399 0.012965 -0.004091 0.000000 0.010353 0.000000
# 3 -0.000471 -0.004091 0.010114 0.000000 0.001838 0.000000
# 4 0.000000 0.000000 0.000000 0.046482 0.000000 0.008546
# 5 -0.009913 0.010353 0.001838 0.000000 0.057987 0.000000
# 6 0.000000 0.000000 0.000000 0.008546 0.000000 0.027776
#
#
# Mechanical properties :
#
#
# Convention : Reuss Voigt Hill
#
# Bulk Modulus (GPa) = 69.49745 73.53274 71.51509
# Shear Modulus (GPa) = 25.60517 31.93308 28.76912
#
# Velocity S-wave (km/s) = 3.62834 4.05196 3.84599
# Velocity P-wave (km/s) = 7.29968 7.72645 7.51609
#
# Compressibility (1/GPa) = 0.01438902
#
# Stress axis : x y z
#
# Youngs Moduli (GPa) = 75.57903 77.13268 98.86972
#
# Poissons Ratio (x) = 0.49353 0.04656
# Poissons Ratio (y) = 0.48359 0.40449
# Poissons Ratio (z) = 0.03559 0.31556
#
# Static dielectric constant tensor:
#      x y z
#    x 1.712520 0.000000 -0.007410 
#    y 0.000000 2.046570 0.000000 
#    z -0.007410 0.000000 1.652130 
# 
# From -- ./inp_files/195170.got.cif
#   From: 2010.05.17/outbox.cif.g08.bks.cpg/sg15_98_cif.got.tgz:195170.got - 2010.06.03 18:47:42.
