data_PCOD9263154
_publ_section_title
;
Structure prediction by ZEFSAII (Michael W. Deem and Ramdas Pophale) SiO2 
 PCOD9263154
Probable space group: C 2/C
;
_chemical_formula_sum "Si O2"
_cell_formula_units_Z 44
_cell_length_a 28.312505
_cell_length_b 9.052578
_cell_length_c 9.007467
_cell_angle_alpha 90.000000
_cell_angle_beta 73.732296
_cell_angle_gamma 90.000000
_cell_volume 2216.194644
_symmetry_space_group_name_H-M "C 2/C"
_symmetry_group_IT_number 15
_symmetry_cell_setting 'monoclinic'
loop_
_space_group_symop_operation_xyz
x,y,z
-x,y,1/2-z
-x,-y,-z
x,-y,1/2+z
1/2+x,1/2+y,z
1/2-x,1/2+y,1/2-z
1/2-x,1/2-y,-z
1/2+x,1/2-y,1/2+z
loop_
_atom_site_type_symbol
_atom_site_label
_atom_site_fract_x
_atom_site_fract_y
_atom_site_fract_z
Si Si1 0.152370 0.649421 0.931311
Si Si2 0.500000 0.029200 0.750000
Si Si3 0.821798 0.045442 0.963760
Si Si4 0.929993 0.587004 0.063571
Si Si5 0.160484 0.797025 0.353596
Si Si6 0.709729 0.038220 0.169218
O O1 0.102126 0.563209 0.935427
O O2 0.173693 0.577071 0.064298
O O3 0.191226 0.608585 0.767441
O O4 0.151364 0.822527 0.968791
O O5 0.536658 0.116327 0.609690
O O6 0.534316 0.934868 0.829094
O O7 0.828108 0.087107 0.787051
O O8 0.764512 0.045030 0.060276
O O9 0.840328 0.885022 0.993282
O O10 0.890769 0.714504 0.124506
O O11 0.200981 0.668744 0.297561
#
# Coordination Sequence:
#
# PCOD9263154 Si02
#       6
#     8   4   8   8   8   8
#     4  10  20  34  55  79 114 142 184 224 263 309
#     4  10  20  38  68  82 102 128 182 228 286 340
#     4  11  20  34  53  79 116 157 179 215 258 312
#     4  10  21  39  60  87 102 136 176 233 278 327
#     4  10  22  35  53  79 116 144 185 220 264 315
#     4  10  19  34  52  80 113 154 190 216 247 306
#
# _framework density 19.853853000000001
#
# number of rings (size 3 to 8) (size 9 to 14) (size 15 to 20)
#    0.000    1.818    0.000    7.636    0.000    4.364 
#    0.000    6.364    0.000   18.545    0.000    0.000 
#    0.000    0.000    0.000    0.000    0.000    0.000 
#
# Total GULP energy -122874.902975 kJ/mol
# GULP energy per Si atom -5585.222863 kJ/mol
# Density = 1.980866 g / cm^3
# Si number density = 19.853853 Si / 1000 Ang^3
#
#
#
# Elastic Constant Matrix: (Units=GPa)
#
#
# Indices 1 2 3 4 5 6 
#
# 1 85.1443 11.3916 11.6709 0.0000 -7.7104 0.0000
# 2 11.3916 22.7585 4.5911 0.0000 9.3727 0.0000
# 3 11.6709 4.5911 69.9234 0.0000 -20.9016 0.0000
# 4 0.0000 0.0000 0.0000 31.7750 0.0000 3.2713
# 5 -7.7104 9.3727 -20.9016 0.0000 33.6259 0.0000
# 6 0.0000 0.0000 0.0000 3.2713 0.0000 11.9236
#
#
#
# Elastic Compliance Matrix: (Units=1/GPa)
#
#
# Indices 1 2 3 4 5 6 
#
# 1 0.013464 -0.009066 0.000032 0.000000 0.005634 0.000000
# 2 -0.009066 0.060930 -0.010053 0.000000 -0.025311 0.000000
# 3 0.000032 -0.010053 0.019401 0.000000 0.014869 0.000000
# 4 0.000000 0.000000 0.000000 0.032386 0.000000 -0.008885
# 5 0.005634 -0.025311 0.014869 0.000000 0.047329 0.000000
# 6 0.000000 0.000000 0.000000 -0.008885 0.000000 0.086305
#
#
# Mechanical properties :
#
#
# Convention : Reuss Voigt Hill
#
# Bulk Modulus (GPa) = 17.97926 25.90370 21.94148
# Shear Modulus (GPa) = 15.79642 25.47640 20.63641
#
# Velocity S-wave (km/s) = 2.82376 3.58606 3.22749
# Velocity P-wave (km/s) = 4.43925 5.49745 4.99644
#
# Compressibility (1/GPa) = 0.05561965
#
# Stress axis : x y z
#
# Youngs Moduli (GPa) = 74.27481 16.41239 51.54447
#
# Poissons Ratio (x) = 0.14879 -0.00166
# Poissons Ratio (y) = 0.67337 0.51820
# Poissons Ratio (z) = -0.00240 0.16500
#
# Static dielectric constant tensor:
#      x y z
#    x 1.689750 0.000000 0.007160 
#    y 0.000000 1.703680 0.000000 
#    z 0.007160 0.000000 1.742310 
# 
# From -- ./inp_files/68353.got.cif
#   From: 2010.05.17/outbox.cif.g08.bks.cpg/sg15_35_cif.got.tgz:68353.got - 2010.06.03 18:47:42.
