data_PCOD9263021
_publ_section_title
;
Structure prediction by ZEFSAII (Michael W. Deem and Ramdas Pophale) SiO2 
 PCOD9263021
Probable space group: C 2/C
;
_chemical_formula_sum "Si O2"
_cell_formula_units_Z 52
_cell_length_a 11.538921
_cell_length_b 8.046327
_cell_length_c 24.706378
_cell_angle_alpha 90.000000
_cell_angle_beta 114.735351
_cell_angle_gamma 90.000000
_cell_volume 2083.423001
_symmetry_space_group_name_H-M "C 2/C"
_symmetry_group_IT_number 15
_symmetry_cell_setting 'monoclinic'
loop_
_space_group_symop_operation_xyz
x,y,z
-x,y,1/2-z
-x,-y,-z
x,-y,1/2+z
1/2+x,1/2+y,z
1/2-x,1/2+y,1/2-z
1/2-x,1/2-y,-z
1/2+x,1/2-y,1/2+z
loop_
_atom_site_type_symbol
_atom_site_label
_atom_site_fract_x
_atom_site_fract_y
_atom_site_fract_z
Si Si1 0.732028 0.223243 0.350325
Si Si2 0.699370 0.906012 0.955741
Si Si3 0.015785 0.120369 0.134924
Si Si4 0.597230 0.645801 0.497542
Si Si5 0.068382 0.742321 0.109119
Si Si6 0.000000 0.828902 0.250000
Si Si7 0.308587 0.571506 0.179542
O O1 0.754640 0.109558 0.405987
O O2 0.839615 0.179901 0.328062
O O3 0.583772 0.211180 0.304269
O O4 0.746719 0.417698 0.366986
O O5 0.549989 0.882852 0.918357
O O6 0.767616 0.065801 0.992844
O O7 0.750000 0.750000 0.000000
O O8 0.916960 0.155135 0.163729
O O9 0.019383 0.921459 0.121895
O O10 0.967898 0.208127 0.070170
O O11 0.500000 0.500000 0.500000
O O12 0.613870 0.747898 0.555632
O O13 0.188656 0.684768 0.168494
O O14 0.114875 0.961866 0.260424
#
# Coordination Sequence:
#
# PCOD9263021 Si02
#       7
#     8   8   8   8   8   4   8
#     4  10  20  41  63  86 122 161 202 252 310 354
#     4  12  18  35  66  89 126 168 194 242 317 368
#     4  11  20  40  64  86 123 159 195 255 299 361
#     4  10  19  33  59  93 125 156 201 242 296 376
#     4  11  21  36  63  90 120 163 198 244 303 363
#     4   8  22  46  56  82 126 154 208 266 292 364
#     4  10  23  42  59  87 121 155 206 253 302 350
#
# _framework density 24.958924
#
# number of rings (size 3 to 8) (size 9 to 14) (size 15 to 20)
#    0.923    0.615    7.692    0.000    0.000    1.846 
#    5.538    6.154    0.000    0.000    0.000    0.000 
#    0.000    0.000    0.000    0.000    0.000    0.000 
#
# Total GULP energy -144961.584768 kJ/mol
# GULP energy per Si atom -5575.445568 kJ/mol
# Density = 2.490212 g / cm^3
# Si number density = 24.958924 Si / 1000 Ang^3
#
#
#
# Elastic Constant Matrix: (Units=GPa)
#
#
# Indices 1 2 3 4 5 6 
#
# 1 122.5254 22.8173 34.6112 0.0000 32.7496 0.0000
# 2 22.8173 47.2760 20.6977 0.0000 20.1411 0.0000
# 3 34.6112 20.6977 111.1047 0.0000 34.5835 0.0000
# 4 0.0000 0.0000 0.0000 42.7366 0.0000 15.0378
# 5 32.7496 20.1411 34.5835 0.0000 44.0873 0.0000
# 6 0.0000 0.0000 0.0000 15.0378 0.0000 43.4440
#
#
#
# Elastic Compliance Matrix: (Units=1/GPa)
#
#
# Indices 1 2 3 4 5 6 
#
# 1 0.010436 -0.002026 -0.000990 0.000000 -0.006050 0.000000
# 2 -0.002026 0.026856 -0.001351 0.000000 -0.009704 0.000000
# 3 -0.000990 -0.001351 0.012092 0.000000 -0.008132 0.000000
# 4 0.000000 0.000000 0.000000 0.026644 0.000000 -0.009223
# 5 -0.006050 -0.009704 -0.008132 0.000000 0.037989 0.000000
# 6 0.000000 0.000000 0.000000 -0.009223 0.000000 0.026211
#
#
# Mechanical properties :
#
#
# Convention : Reuss Voigt Hill
#
# Bulk Modulus (GPa) = 24.60103 48.57318 36.58710
# Shear Modulus (GPa) = 30.76695 39.57221 35.16958
#
# Velocity S-wave (km/s) = 3.51480 3.98615 3.75787
# Velocity P-wave (km/s) = 5.13320 6.37882 5.78960
#
# Compressibility (1/GPa) = 0.04064870
#
# Stress axis : x y z
#
# Youngs Moduli (GPa) = 95.82611 37.23561 82.69812
#
# Poissons Ratio (x) = 0.07543 0.08191
# Poissons Ratio (y) = 0.19412 0.11175
# Poissons Ratio (z) = 0.09491 0.05032
#
# Static dielectric constant tensor:
#      x y z
#    x 2.043670 0.000000 -0.085930 
#    y 0.000000 2.077560 0.000000 
#    z -0.085930 0.000000 2.140690 
# 
# From -- ./inp_files/310669.got.cif
#   From: 2010.05.17/outbox.cif.g08.bks.cpg/sg15_156_cif.got.tgz:310669.got - 2010.06.03 18:47:42.
