data_PCOD9263502
_publ_section_title
;
Structure prediction by ZEFSAII (Michael W. Deem and Ramdas Pophale) SiO2 
 PCOD9263502
Probable space group: C 2/C
;
_chemical_formula_sum "Si O2"
_cell_formula_units_Z 48
_cell_length_a 9.123819
_cell_length_b 10.629861
_cell_length_c 25.678380
_cell_angle_alpha 90.000000
_cell_angle_beta 53.241211
_cell_angle_gamma 90.000000
_cell_volume 1995.226582
_symmetry_space_group_name_H-M "C 2/C"
_symmetry_group_IT_number 15
_symmetry_cell_setting 'monoclinic'
loop_
_space_group_symop_operation_xyz
x,y,z
-x,y,1/2-z
-x,-y,-z
x,-y,1/2+z
1/2+x,1/2+y,z
1/2-x,1/2+y,1/2-z
1/2-x,1/2-y,-z
1/2+x,1/2-y,1/2+z
loop_
_atom_site_type_symbol
_atom_site_label
_atom_site_fract_x
_atom_site_fract_y
_atom_site_fract_z
Si Si1 0.829249 0.317657 0.900248
Si Si2 0.700534 0.705532 0.795831
Si Si3 0.639167 0.784950 0.350061
Si Si4 0.227467 0.247723 0.104074
Si Si5 0.094365 0.619339 0.006555
Si Si6 0.074232 0.001550 0.180651
O O1 0.703688 0.325477 0.875731
O O2 0.835143 0.405486 0.949649
O O3 0.037384 0.307562 0.836560
O O4 0.758897 0.184713 0.940268
O O5 0.816220 0.739397 0.720170
O O6 0.783720 0.694833 0.835511
O O7 0.592806 0.577311 0.806587
O O8 0.423517 0.809838 0.400596
O O9 0.766981 0.903563 0.336715
O O10 0.436724 0.228543 0.043161
O O11 0.153939 0.105434 0.126279
O O12 0.000000 0.500000 0.000000
O O13 0.000000 0.060991 0.250000
#
# Coordination Sequence:
#
# PCOD9263502 Si02
#       6
#     8   8   8   8   8   8
#     4   9  19  35  54  78 109 146 183 226 275 323
#     4   9  18  34  57  82 112 145 180 227 280 333
#     4  10  19  34  57  85 111 140 184 232 279 331
#     4  11  21  35  58  84 113 148 185 228 276 327
#     4  10  20  36  57  78 108 150 189 224 270 327
#     4   9  18  34  54  77 111 148 179 221 277 330
#
# _framework density 24.057416
#
# number of rings (size 3 to 8) (size 9 to 14) (size 15 to 20)
#    0.000    2.333    0.000    5.000    0.000    0.667 
#    0.000    7.500    0.000   12.000    0.000    0.000 
#    0.000    0.000    0.000    0.000    0.000    0.000 
#
# Total GULP energy -133991.520243 kJ/mol
# GULP energy per Si atom -5582.980010 kJ/mol
# Density = 2.400266 g / cm^3
# Si number density = 24.057416 Si / 1000 Ang^3
#
#
#
# Elastic Constant Matrix: (Units=GPa)
#
#
# Indices 1 2 3 4 5 6 
#
# 1 142.7113 22.8392 10.9739 0.0000 -1.0919 0.0000
# 2 22.8392 59.2595 12.9166 0.0000 13.8207 0.0000
# 3 10.9739 12.9166 82.0934 0.0000 -10.6844 0.0000
# 4 0.0000 0.0000 0.0000 23.0271 0.0000 5.2060
# 5 -1.0919 13.8207 -10.6844 0.0000 28.9931 0.0000
# 6 0.0000 0.0000 0.0000 5.2060 0.0000 25.3755
#
#
#
# Elastic Compliance Matrix: (Units=1/GPa)
#
#
# Indices 1 2 3 4 5 6 
#
# 1 0.007563 -0.003261 -0.000271 0.000000 0.001740 0.000000
# 2 -0.003261 0.022016 -0.004632 0.000000 -0.012325 0.000000
# 3 -0.000271 -0.004632 0.013899 0.000000 0.007320 0.000000
# 4 0.000000 0.000000 0.000000 0.045539 0.000000 -0.009343
# 5 0.001740 -0.012325 0.007320 0.000000 0.043129 0.000000
# 6 0.000000 0.000000 0.000000 -0.009343 0.000000 0.041325
#
#
# Mechanical properties :
#
#
# Convention : Reuss Voigt Hill
#
# Bulk Modulus (GPa) = 36.83479 41.94708 39.39093
# Shear Modulus (GPa) = 25.14448 31.30143 28.22296
#
# Velocity S-wave (km/s) = 3.23644 3.61101 3.42884
# Velocity P-wave (km/s) = 5.41392 5.90423 5.66438
#
# Compressibility (1/GPa) = 0.02714825
#
# Stress axis : x y z
#
# Youngs Moduli (GPa) = 132.21742 45.42161 71.94762
#
# Poissons Ratio (x) = 0.14814 0.01953
# Poissons Ratio (y) = 0.43123 0.33326
# Poissons Ratio (z) = 0.03589 0.21039
#
# Static dielectric constant tensor:
#      x y z
#    x 1.947820 0.000000 0.021510 
#    y 0.000000 1.942860 0.000000 
#    z 0.021510 0.000000 1.967280 
# 
# From -- ./inp_files/287533.got.cif
#   From: 2010.05.17/outbox.cif.g08.bks.cpg/sg15_144_cif.got.tgz:287533.got - 2010.06.03 18:47:42.
