data_PCOD9263589
_publ_section_title
;
Structure prediction by ZEFSAII (Michael W. Deem and Ramdas Pophale) SiO2 
 PCOD9263589
Probable space group: C 2/C
;
_chemical_formula_sum "Si O2"
_cell_formula_units_Z 32
_cell_length_a 7.552491
_cell_length_b 35.493489
_cell_length_c 5.295692
_cell_angle_alpha 90.000000
_cell_angle_beta 88.334266
_cell_angle_gamma 90.000000
_cell_volume 1418.985853
_symmetry_space_group_name_H-M "C 2/C"
_symmetry_group_IT_number 15
_symmetry_cell_setting 'monoclinic'
loop_
_space_group_symop_operation_xyz
x,y,z
-x,y,1/2-z
-x,-y,-z
x,-y,1/2+z
1/2+x,1/2+y,z
1/2-x,1/2+y,1/2-z
1/2-x,1/2-y,-z
1/2+x,1/2-y,1/2+z
loop_
_atom_site_type_symbol
_atom_site_label
_atom_site_fract_x
_atom_site_fract_y
_atom_site_fract_z
Si Si1 0.300224 0.485736 0.066610
Si Si2 0.783539 0.358718 0.753665
Si Si3 0.208082 0.273560 0.749713
Si Si4 0.285002 0.903185 0.255505
O O1 0.217149 0.511704 0.290358
O O2 0.290844 0.444210 0.181236
O O3 0.500000 0.500000 0.000000
O O4 0.715936 0.315809 0.768444
O O5 0.731737 0.376514 0.489445
O O6 0.000000 0.358468 0.750000
O O7 0.729670 0.384540 0.993140
O O8 0.250000 0.250000 0.500000
O O9 0.000000 0.279113 0.750000
O O10 0.250000 0.250000 0.000000
O O11 0.500000 0.906387 0.250000
#
# Coordination Sequence:
#
# PCOD9263589 Si02
#       4
#     8   8   8   8
#     4  10  21  36  55  75 110 149 191 230 306 363
#     4   9  19  35  58  88 114 154 195 245 310 353
#     4  11  22  39  66  92 131 169 211 261 315 382
#     4  10  19  34  58  84 111 143 201 254 291 352
#
# _framework density 22.551317000000001
#
# number of rings (size 3 to 8) (size 9 to 14) (size 15 to 20)
#    0.000    2.000    0.000    3.750    0.000    5.000 
#    0.000    0.000   55.000    0.000    0.000    0.000 
#    0.000    0.000    0.000    0.000    0.000    0.000 
#
# Total GULP energy -89402.115842 kJ/mol
# GULP energy per Si atom -5587.632240 kJ/mol
# Density = 2.249999 g / cm^3
# Si number density = 22.551317 Si / 1000 Ang^3
#
#
#
# Elastic Constant Matrix: (Units=GPa)
#
#
# Indices 1 2 3 4 5 6 
#
# 1 60.7559 11.5658 10.5163 0.0000 -6.5150 0.0000
# 2 11.5658 198.7763 101.9919 0.0000 -20.9849 0.0000
# 3 10.5163 101.9919 234.6516 0.0000 -0.0198 0.0000
# 4 0.0000 0.0000 0.0000 49.4560 0.0000 -2.6130
# 5 -6.5150 -20.9849 -0.0198 0.0000 11.1016 0.0000
# 6 0.0000 0.0000 0.0000 -2.6130 0.0000 24.1459
#
#
#
# Elastic Compliance Matrix: (Units=1/GPa)
#
#
# Indices 1 2 3 4 5 6 
#
# 1 0.017788 0.000823 -0.001154 0.000000 0.011993 0.000000
# 2 0.000823 0.008748 -0.003838 0.000000 0.017012 0.000000
# 3 -0.001154 -0.003838 0.005981 0.000000 -0.007921 0.000000
# 4 0.000000 0.000000 0.000000 0.020336 0.000000 0.002201
# 5 0.011993 0.017012 -0.007921 0.000000 0.129259 0.000000
# 6 0.000000 0.000000 0.000000 0.002201 0.000000 0.041653
#
#
# Mechanical properties :
#
#
# Convention : Reuss Voigt Hill
#
# Bulk Modulus (GPa) = 41.35643 82.48133 61.91888
# Shear Modulus (GPa) = 20.81921 41.61469 31.21695
#
# Velocity S-wave (km/s) = 3.04170 4.30039 3.72460
# Velocity P-wave (km/s) = 5.54207 7.83021 6.78332
#
# Compressibility (1/GPa) = 0.02418004
#
# Stress axis : x y z
#
# Youngs Moduli (GPa) = 56.21644 114.31093 167.20147
#
# Poissons Ratio (x) = -0.09411 0.19296
# Poissons Ratio (y) = -0.04628 0.64169
# Poissons Ratio (z) = 0.06488 0.43871
#
# Static dielectric constant tensor:
#      x y z
#    x 1.976110 0.000000 0.072620 
#    y 0.000000 1.842520 0.000000 
#    z 0.072620 0.000000 1.842400 
# 
# From -- ./inp_files/2368.got.cif
#   From: 2010.05.17/outbox.cif.g08.bks.cpg/sg15_2_cif.got.tgz:2368.got - 2010.06.03 18:47:42.
