data_PCOD9263023
_publ_section_title
;
Structure prediction by ZEFSAII (Michael W. Deem and Ramdas Pophale) SiO2 
 PCOD9263023
Probable space group: C 2/C
;
_chemical_formula_sum "Si O2"
_cell_formula_units_Z 64
_cell_length_a 15.546233
_cell_length_b 22.568101
_cell_length_c 12.862381
_cell_angle_alpha 90.000000
_cell_angle_beta 143.254998
_cell_angle_gamma 90.000000
_cell_volume 2699.775680
_symmetry_space_group_name_H-M "C 2/C"
_symmetry_group_IT_number 15
_symmetry_cell_setting 'monoclinic'
loop_
_space_group_symop_operation_xyz
x,y,z
-x,y,1/2-z
-x,-y,-z
x,-y,1/2+z
1/2+x,1/2+y,z
1/2-x,1/2+y,1/2-z
1/2-x,1/2-y,-z
1/2+x,1/2-y,1/2+z
loop_
_atom_site_type_symbol
_atom_site_label
_atom_site_fract_x
_atom_site_fract_y
_atom_site_fract_z
Si Si1 0.319961 0.320478 0.683998
Si Si2 0.257949 0.364760 0.855450
Si Si3 0.485262 0.220315 0.343747
Si Si4 0.330262 0.924894 0.059811
Si Si5 0.710011 0.128746 0.642596
Si Si6 0.396758 0.717006 0.960567
Si Si7 0.161202 0.957088 0.408276
Si Si8 0.048108 0.565116 0.037081
O O1 0.312838 0.350721 0.793534
O O2 0.261100 0.363649 0.534779
O O3 0.214312 0.263799 0.596194
O O4 0.485896 0.303149 0.843402
O O5 0.176370 0.306689 0.815793
O O6 0.124142 0.409864 0.711720
O O7 0.354428 0.401962 0.025961
O O8 0.500000 0.255303 0.250000
O O9 0.613613 0.171903 0.475692
O O10 0.488381 0.250691 0.457981
O O11 0.500000 0.917322 0.250000
O O12 0.340520 0.936116 0.947035
O O13 0.259924 0.985628 0.034856
O O14 0.819917 0.165765 0.818932
O O15 0.776498 0.076175 0.635277
O O16 0.593922 0.104090 0.613222
O O17 0.000000 0.982350 0.250000
O O18 0.000000 0.500000 0.000000
#
# Coordination Sequence:
#
# PCOD9263023 Si02
#       8
#     8   8   8   8   8   8   8   8
#     4  10  23  44  66  97 127 170 221 274 329 399
#     4   9  20  35  59  88 134 165 203 259 315 390
#     4  10  19  33  59  94 132 175 222 246 307 390
#     4  11  25  46  70  93 127 172 227 280 338 400
#     4  11  22  37  66 100 136 181 216 266 324 392
#     4  11  22  41  65  93 134 175 218 272 321 389
#     4  12  24  40  63 104 145 173 208 272 334 393
#     4  10  19  38  65  95 117 168 228 264 320 392
#
# _framework density 23.705673000000001
#
# number of rings (size 3 to 8) (size 9 to 14) (size 15 to 20)
#    0.000    1.500    3.750    2.250    1.750    2.000 
#    4.500    2.500    0.000    0.000    0.000    0.000 
#    0.000    0.000    0.000    0.000    0.000    0.000 
#
# Total GULP energy -178333.943626 kJ/mol
# GULP energy per Si atom -5572.935738 kJ/mol
# Density = 2.365172 g / cm^3
# Si number density = 23.705673 Si / 1000 Ang^3
#
#
#
# Elastic Constant Matrix: (Units=GPa)
#
#
# Indices 1 2 3 4 5 6 
#
# 1 50.7840 12.1132 11.3642 0.0000 -5.1241 0.0000
# 2 12.1132 90.5837 40.0034 0.0000 4.1557 0.0000
# 3 11.3642 40.0034 102.3071 0.0000 16.4423 0.0000
# 4 0.0000 0.0000 0.0000 39.2687 0.0000 2.4045
# 5 -5.1241 4.1557 16.4423 0.0000 27.0197 0.0000
# 6 0.0000 0.0000 0.0000 2.4045 0.0000 6.8229
#
#
#
# Elastic Compliance Matrix: (Units=1/GPa)
#
#
# Indices 1 2 3 4 5 6 
#
# 1 0.021331 -0.002004 -0.002533 0.000000 0.005895 0.000000
# 2 -0.002004 0.013570 -0.005195 0.000000 0.000694 0.000000
# 3 -0.002533 -0.005195 0.013341 0.000000 -0.007800 0.000000
# 4 0.000000 0.000000 0.000000 0.026027 0.000000 -0.009173
# 5 0.005895 0.000694 -0.007800 0.000000 0.042768 0.000000
# 6 0.000000 0.000000 0.000000 -0.009173 0.000000 0.149798
#
#
# Mechanical properties :
#
#
# Convention : Reuss Voigt Hill
#
# Bulk Modulus (GPa) = 34.75010 41.18182 37.96596
# Shear Modulus (GPa) = 16.89811 26.63519 21.76665
#
# Velocity S-wave (km/s) = 2.67278 3.35562 3.03348
# Velocity P-wave (km/s) = 4.92096 5.69416 5.32162
#
# Compressibility (1/GPa) = 0.02877690
#
# Stress axis : x y z
#
# Youngs Moduli (GPa) = 46.88017 73.69284 74.95882
#
# Poissons Ratio (x) = 0.14769 0.18988
# Poissons Ratio (y) = 0.09396 0.38940
# Poissons Ratio (z) = 0.11876 0.38283
#
# Static dielectric constant tensor:
#      x y z
#    x 1.981690 0.000000 0.226290 
#    y 0.000000 2.088700 0.000000 
#    z 0.226290 0.000000 2.488210 
# 
# From -- ./inp_files/164258.got.cif
#   From: 2010.05.17/outbox.cif.g08.bks.cpg/sg15_83_cif.got.tgz:164258.got - 2010.06.03 18:47:42.
