data_PCOD9263362
_publ_section_title
;
Structure prediction by ZEFSAII (Michael W. Deem and Ramdas Pophale) SiO2 
 PCOD9263362
Probable space group: C 2/C
;
_chemical_formula_sum "Si O2"
_cell_formula_units_Z 64
_cell_length_a 14.667815
_cell_length_b 18.060209
_cell_length_c 11.011869
_cell_angle_alpha 90.000000
_cell_angle_beta 113.623369
_cell_angle_gamma 90.000000
_cell_volume 2672.632333
_symmetry_space_group_name_H-M "C 2/C"
_symmetry_group_IT_number 15
_symmetry_cell_setting 'monoclinic'
loop_
_space_group_symop_operation_xyz
x,y,z
-x,y,1/2-z
-x,-y,-z
x,-y,1/2+z
1/2+x,1/2+y,z
1/2-x,1/2+y,1/2-z
1/2-x,1/2-y,-z
1/2+x,1/2-y,1/2+z
loop_
_atom_site_type_symbol
_atom_site_label
_atom_site_fract_x
_atom_site_fract_y
_atom_site_fract_z
Si Si1 0.752744 0.354099 0.375994
Si Si2 0.237503 0.062062 0.319692
Si Si3 0.380621 0.541519 0.570416
Si Si4 0.100885 0.236892 0.457116
Si Si5 0.592055 0.590671 0.593960
Si Si6 0.401007 0.048703 0.848091
Si Si7 0.290738 0.277002 0.731408
Si Si8 0.096553 0.605238 0.914656
O O1 0.689375 0.386048 0.454385
O O2 0.678742 0.378716 0.226444
O O3 0.851933 0.403616 0.428221
O O4 0.784288 0.272266 0.349805
O O5 0.205211 0.136196 0.236663
O O6 0.297062 0.092442 0.469730
O O7 0.152247 0.010197 0.331517
O O8 0.326631 0.020182 0.297288
O O9 0.492558 0.570260 0.614035
O O10 0.370313 0.483290 0.454168
O O11 0.064023 0.157735 0.485787
O O12 0.195673 0.253843 0.596215
O O13 0.124589 0.232233 0.326259
O O14 0.049467 0.317582 0.435853
O O15 0.519698 0.041321 0.912141
O O16 0.388899 0.098568 0.720248
#
# Coordination Sequence:
#
# PCOD9263362 Si02
#       8
#     8   8   8   8   8   8   8   8
#     4  10  19  34  56  80 115 146 186 234 281 328
#     4  10  19  34  56  82 109 145 188 223 274 334
#     4  10  20  31  55  85 113 146 183 229 288 325
#     4   9  16  30  56  80 100 138 183 230 272 319
#     4  10  19  34  56  83 114 148 191 227 274 350
#     4  10  20  31  55  81 106 144 180 231 281 318
#     4   9  16  30  56  80 100 139 184 231 269 326
#     4  10  19  34  56  78 109 140 186 230 270 328
#
# _framework density 23.946429999999999
#
# number of rings (size 3 to 8) (size 9 to 14) (size 15 to 20)
#    0.000    2.250    2.500    1.500    0.000    0.000 
#    0.000    0.000   46.750    1.500    0.000    0.000 
#    0.000    0.000    0.000    0.000    0.000    0.000 
#
# Total GULP energy -178322.394492 kJ/mol
# GULP energy per Si atom -5572.574828 kJ/mol
# Density = 2.389193 g / cm^3
# Si number density = 23.946430 Si / 1000 Ang^3
#
#
#
# Elastic Constant Matrix: (Units=GPa)
#
#
# Indices 1 2 3 4 5 6 
#
# 1 133.1407 45.7582 3.3493 0.0000 -19.8081 0.0000
# 2 45.7582 150.8214 11.0987 0.0000 -23.7646 0.0000
# 3 3.3493 11.0987 40.6825 0.0000 -23.7309 0.0000
# 4 0.0000 0.0000 0.0000 26.3513 0.0000 -6.3861
# 5 -19.8081 -23.7646 -23.7309 0.0000 24.9099 0.0000
# 6 0.0000 0.0000 0.0000 -6.3861 0.0000 22.8458
#
#
#
# Elastic Compliance Matrix: (Units=1/GPa)
#
#
# Indices 1 2 3 4 5 6 
#
# 1 0.009835 -0.001380 0.007564 0.000000 0.013710 0.000000
# 2 -0.001380 0.008473 0.004225 0.000000 0.011011 0.000000
# 3 0.007564 0.004225 0.064519 0.000000 0.071511 0.000000
# 4 0.000000 0.000000 0.000000 0.040706 0.000000 0.011379
# 5 0.013710 0.011011 0.071511 0.000000 0.129678 0.000000
# 6 0.000000 0.000000 0.000000 0.011379 0.000000 0.046952
#
#
# Mechanical properties :
#
#
# Convention : Reuss Voigt Hill
#
# Bulk Modulus (GPa) = 9.64834 49.45076 29.54955
# Shear Modulus (GPa) = 15.92894 32.45064 24.18979
#
# Velocity S-wave (km/s) = 2.58193 3.68521 3.18175
# Velocity P-wave (km/s) = 3.59532 6.22921 5.08574
#
# Compressibility (1/GPa) = 0.10364482
#
# Stress axis : x y z
#
# Youngs Moduli (GPa) = 101.68198 118.01924 15.49929
#
# Poissons Ratio (x) = 0.16289 -0.11724
# Poissons Ratio (y) = 0.14034 -0.06549
# Poissons Ratio (z) = -0.76912 -0.49865
#
# Static dielectric constant tensor:
#      x y z
#    x 1.908740 0.000000 0.031450 
#    y 0.000000 2.001770 0.000000 
#    z 0.031450 0.000000 2.000390 
# 
# From -- ./inp_files/154878.got.cif
#   From: 2010.05.17/outbox.cif.g08.bks.cpg/sg15_78_cif.got.tgz:154878.got - 2010.06.03 18:47:42.
