data_PCOD9263322
_publ_section_title
;
Structure prediction by ZEFSAII (Michael W. Deem and Ramdas Pophale) SiO2 
 PCOD9263322
Probable space group: C 2/C
;
_chemical_formula_sum "Si O2"
_cell_formula_units_Z 64
_cell_length_a 19.619036
_cell_length_b 13.886167
_cell_length_c 17.836115
_cell_angle_alpha 90.000000
_cell_angle_beta 40.707579
_cell_angle_gamma 90.000000
_cell_volume 3169.131275
_symmetry_space_group_name_H-M "C 2/C"
_symmetry_group_IT_number 15
_symmetry_cell_setting 'monoclinic'
loop_
_space_group_symop_operation_xyz
x,y,z
-x,y,1/2-z
-x,-y,-z
x,-y,1/2+z
1/2+x,1/2+y,z
1/2-x,1/2+y,1/2-z
1/2-x,1/2-y,-z
1/2+x,1/2-y,1/2+z
loop_
_atom_site_type_symbol
_atom_site_label
_atom_site_fract_x
_atom_site_fract_y
_atom_site_fract_z
Si Si1 0.739052 0.986336 0.206521
Si Si2 0.897973 0.829648 0.714288
Si Si3 0.666352 0.159871 0.356551
Si Si4 0.117421 0.975918 0.176205
Si Si5 0.860953 0.158224 0.716387
Si Si6 0.745421 0.898444 0.048146
Si Si7 0.057590 0.095511 0.479761
Si Si8 0.907539 0.721206 0.929389
O O1 0.670925 0.052633 0.318695
O O2 0.798509 0.907291 0.207810
O O3 0.698267 0.935204 0.166024
O O4 0.825793 0.061667 0.102508
O O5 0.775976 0.811312 0.805688
O O6 0.900165 0.933603 0.752229
O O7 0.940142 0.837852 0.594793
O O8 0.975456 0.755561 0.689071
O O9 0.654796 0.233233 0.297039
O O10 0.588451 0.175242 0.490572
O O11 0.000000 0.951196 0.250000
O O12 0.166676 0.886387 0.180318
O O13 0.193200 0.018463 0.049236
O O14 0.985011 0.138826 0.603310
O O15 0.836381 0.818907 0.988572
O O16 0.656249 0.850636 0.071103
O O17 0.000000 0.000000 0.500000
#
# Coordination Sequence:
#
# PCOD9263322 Si02
#       8
#     8   8   8   8   8   8   8   8
#     4  10  19  34  55  83 116 153 192 237 293 346
#     4  11  19  33  53  90 119 139 188 244 291 341
#     4  11  21  35  60  88 111 159 202 232 284 354
#     4  12  21  32  55  90 123 144 179 246 315 357
#     4  11  19  34  56  82 115 150 195 236 294 349
#     4  11  21  33  53  86 126 154 177 241 307 347
#     4   9  14  27  53  78 112 139 178 237 287 329
#     4  11  20  34  56  90 122 147 191 245 300 349
#
# _framework density 20.194807000000001
#
# number of rings (size 3 to 8) (size 9 to 14) (size 15 to 20)
#    0.000    1.250    8.750    1.500    0.000    0.000 
#    0.000    0.625    0.000    3.000    3.250    0.000 
#    0.000    0.000    0.000    0.000    0.000    0.000 
#
# Total GULP energy -178460.318742 kJ/mol
# GULP energy per Si atom -5576.884961 kJ/mol
# Density = 2.014884 g / cm^3
# Si number density = 20.194807 Si / 1000 Ang^3
#
#
#
# Elastic Constant Matrix: (Units=GPa)
#
#
# Indices 1 2 3 4 5 6 
#
# 1 55.4430 14.7444 2.6268 0.0000 14.3201 0.0000
# 2 14.7444 37.9453 3.0064 0.0000 12.2799 0.0000
# 3 2.6268 3.0064 40.9734 0.0000 20.4773 0.0000
# 4 0.0000 0.0000 0.0000 32.1114 0.0000 11.4997
# 5 14.3201 12.2799 20.4773 0.0000 24.9912 0.0000
# 6 0.0000 0.0000 0.0000 11.4997 0.0000 28.4420
#
#
#
# Elastic Compliance Matrix: (Units=1/GPa)
#
#
# Indices 1 2 3 4 5 6 
#
# 1 0.023280 -0.003940 0.007614 0.000000 -0.017642 0.000000
# 2 -0.003940 0.034163 0.008479 0.000000 -0.021477 0.000000
# 3 0.007614 0.008479 0.046670 0.000000 -0.046769 0.000000
# 4 0.000000 0.000000 0.000000 0.036414 0.000000 -0.014723
# 5 -0.017642 -0.021477 -0.046769 0.000000 0.098998 0.000000
# 6 0.000000 0.000000 0.000000 -0.014723 0.000000 0.041112
#
#
# Mechanical properties :
#
#
# Convention : Reuss Voigt Hill
#
# Bulk Modulus (GPa) = 7.78697 19.45746 13.62221
# Shear Modulus (GPa) = 16.71470 24.70786 20.71128
#
# Velocity S-wave (km/s) = 2.88005 3.50162 3.20593
# Velocity P-wave (km/s) = 3.86315 5.09943 4.52372
#
# Compressibility (1/GPa) = 0.12841963
#
# Stress axis : x y z
#
# Youngs Moduli (GPa) = 42.95468 29.27131 21.42717
#
# Poissons Ratio (x) = 0.11533 -0.16314
# Poissons Ratio (y) = 0.16924 -0.18169
# Poissons Ratio (z) = -0.32704 -0.24820
#
# Static dielectric constant tensor:
#      x y z
#    x 1.746730 0.000000 0.047780 
#    y 0.000000 1.733830 0.000000 
#    z 0.047780 0.000000 1.710030 
# 
# From -- ./inp_files/162259.got.cif
#   From: 2010.05.17/outbox.cif.g08.bks.cpg/sg15_82_cif.got.tgz:162259.got - 2010.06.03 18:47:42.
