data_PCOD9263842
_publ_section_title
;
Structure prediction by ZEFSAII (Michael W. Deem and Ramdas Pophale) SiO2 
 PCOD9263842
Probable space group: C 2/C
;
_chemical_formula_sum "Si O2"
_cell_formula_units_Z 64
_cell_length_a 23.238147
_cell_length_b 15.405450
_cell_length_c 27.562580
_cell_angle_alpha 90.000000
_cell_angle_beta 160.436870
_cell_angle_gamma 90.000000
_cell_volume 3303.999226
_symmetry_space_group_name_H-M "C 2/C"
_symmetry_group_IT_number 15
_symmetry_cell_setting 'monoclinic'
loop_
_space_group_symop_operation_xyz
x,y,z
-x,y,1/2-z
-x,-y,-z
x,-y,1/2+z
1/2+x,1/2+y,z
1/2-x,1/2+y,1/2-z
1/2-x,1/2-y,-z
1/2+x,1/2-y,1/2+z
loop_
_atom_site_type_symbol
_atom_site_label
_atom_site_fract_x
_atom_site_fract_y
_atom_site_fract_z
Si Si1 0.100173 0.689599 0.282616
Si Si2 0.132125 0.963583 0.493858
Si Si3 0.136314 0.152664 0.660752
Si Si4 0.864033 0.695610 0.932961
Si Si5 0.665644 0.915411 0.274923
Si Si6 0.588380 0.076709 0.444736
Si Si7 0.862488 0.977614 0.605490
Si Si8 0.893502 0.675975 0.616643
O O1 0.215558 0.607337 0.391128
O O2 0.220897 0.759482 0.353429
O O3 0.000000 0.722391 0.250000
O O4 0.978482 0.653098 0.143549
O O5 0.989931 0.917440 0.414217
O O6 0.214092 0.046757 0.586281
O O7 0.063590 0.985043 0.385822
O O8 0.280885 0.178050 0.814893
O O9 0.220310 0.113670 0.679473
O O10 0.021836 0.237118 0.557132
O O11 0.910468 0.609413 0.999419
O O12 0.539069 0.837727 0.191170
O O13 0.543766 0.996694 0.164496
O O14 0.769704 0.047437 0.566331
O O15 0.713359 0.913183 0.469743
O O16 0.000000 0.932676 0.750000
O O17 0.750000 0.750000 0.500000
O O18 0.000000 0.685765 0.750000
#
# Coordination Sequence:
#
# PCOD9263842 Si02
#       8
#     8   8   8   8   8   8   8   8
#     4  10  19  34  61  90 125 166 202 245 314 369
#     4  10  20  38  64  91 122 167 207 248 308 381
#     4  11  24  41  62  90 126 167 213 255 309 373
#     4  11  23  40  59  90 131 166 205 261 305 370
#     4  10  23  42  66  90 121 166 214 261 315 372
#     4  10  21  38  62  91 124 161 207 261 309 372
#     4  11  21  37  64  97 127 157 202 257 311 377
#     4  11  23  42  66  91 122 156 204 264 324 372
#
# _framework density 19.370463999999998
#
# number of rings (size 3 to 8) (size 9 to 14) (size 15 to 20)
#    0.000    1.500    3.750    1.500    0.000    3.500 
#    0.000    0.000    0.000    0.000    0.000    0.000 
#    0.000    0.000    0.000    0.000    0.000    0.000 
#
# Total GULP energy -178686.924336 kJ/mol
# GULP energy per Si atom -5583.966385 kJ/mol
# Density = 1.932638 g / cm^3
# Si number density = 19.370464 Si / 1000 Ang^3
#
#
#
# Elastic Constant Matrix: (Units=GPa)
#
#
# Indices 1 2 3 4 5 6 
#
# 1 121.6679 30.9786 46.0631 -0.0070 2.6486 -0.0012
# 2 30.9786 51.7781 25.4832 -0.0010 -1.5717 -0.0026
# 3 46.0631 25.4832 103.3778 0.0159 -22.6849 -0.0032
# 4 -0.0070 -0.0010 0.0159 22.2714 0.0039 -2.1109
# 5 2.6486 -1.5717 -22.6849 0.0039 31.3570 -0.0026
# 6 -0.0012 -0.0026 -0.0032 -2.1109 -0.0026 18.1506
#
#
#
# Elastic Compliance Matrix: (Units=1/GPa)
#
#
# Indices 1 2 3 4 5 6 
#
# 1 0.011362 -0.004476 -0.005016 0.000008 -0.004813 -0.000001
# 2 -0.004476 0.024043 -0.004262 0.000003 -0.001500 0.000003
# 3 -0.005016 -0.004262 0.015459 -0.000015 0.011394 0.000002
# 4 0.000008 0.000003 -0.000015 0.045401 -0.000016 0.005280
# 5 -0.004813 -0.001500 0.011394 -0.000016 0.040465 0.000005
# 6 -0.000001 0.000003 0.000002 0.005280 0.000005 0.055709
#
#
# Mechanical properties :
#
#
# Convention : Reuss Voigt Hill
#
# Bulk Modulus (GPa) = 42.81130 53.54148 48.17639
# Shear Modulus (GPa) = 21.95582 25.97572 23.96577
#
# Velocity S-wave (km/s) = 3.37036 3.66593 3.52125
# Velocity P-wave (km/s) = 6.10697 6.75423 6.43873
#
# Compressibility (1/GPa) = 0.02335832
#
# Stress axis : x y z
#
# Youngs Moduli (GPa) = 88.01023 41.59258 64.68811
#
# Poissons Ratio (x) = 0.18615 0.32445
# Poissons Ratio (y) = 0.39390 0.27567
# Poissons Ratio (z) = 0.44143 0.17725
#
# Static dielectric constant tensor:
#      x y z
#    x 1.645010 0.000000 0.009460 
#    y 0.000000 1.691630 -0.000040 
#    z 0.009460 -0.000040 1.784330 
# 
# From -- ./inp_files/280525.got.cif
#   From: 2010.05.17/outbox.cif.g08.bks.cpg/sg15_141_cif.got.tgz:280525.got - 2010.06.03 18:47:42.
