data_PCOD9263967
_publ_section_title
;
Structure prediction by ZEFSAII (Michael W. Deem and Ramdas Pophale) SiO2 
 PCOD9263967
Probable space group: C 2/C
;
_chemical_formula_sum "Si O2"
_cell_formula_units_Z 48
_cell_length_a 8.213077
_cell_length_b 29.295195
_cell_length_c 18.413744
_cell_angle_alpha 90.000000
_cell_angle_beta 143.590015
_cell_angle_gamma 90.000000
_cell_volume 2629.713228
_symmetry_space_group_name_H-M "C 2/C"
_symmetry_group_IT_number 15
_symmetry_cell_setting 'monoclinic'
loop_
_space_group_symop_operation_xyz
x,y,z
-x,y,1/2-z
-x,-y,-z
x,-y,1/2+z
1/2+x,1/2+y,z
1/2-x,1/2+y,1/2-z
1/2-x,1/2-y,-z
1/2+x,1/2-y,1/2+z
loop_
_atom_site_type_symbol
_atom_site_label
_atom_site_fract_x
_atom_site_fract_y
_atom_site_fract_z
Si Si1 0.807832 0.963423 0.390903
Si Si2 0.102618 0.277056 0.660132
Si Si3 0.050424 0.180332 0.933695
Si Si4 0.683752 0.706227 0.426152
Si Si5 0.330738 0.869089 0.087748
Si Si6 0.951573 0.099029 0.815263
O O1 0.500000 0.976694 0.250000
O O2 0.777716 0.920307 0.435323
O O3 0.952559 0.942883 0.371038
O O4 0.000000 0.000000 0.500000
O O5 0.177406 0.285523 0.602233
O O6 0.357015 0.294394 0.797221
O O7 0.064754 0.222695 0.653549
O O8 0.813465 0.300809 0.571012
O O9 0.822001 0.162058 0.907248
O O10 0.143048 0.138832 0.915459
O O11 0.750000 0.750000 0.500000
O O12 0.777015 0.658719 0.495218
O O13 0.653786 0.876662 0.212891
O O14 0.000000 0.086170 0.750000
#
# Coordination Sequence:
#
# PCOD9263967 Si02
#       6
#     8   8   8   8   8   8
#     4   9  20  41  65  90 116 153 197 245 307 375
#     4  10  22  32  50  77 117 151 202 238 287 343
#     4  10  19  35  49  81 111 154 198 237 280 347
#     4  11  20  34  52  75 112 156 194 242 292 335
#     4  10  20  36  59  80 114 155 194 239 297 356
#     4  10  20  36  64  87 113 148 199 238 298 360
#
# _framework density 18.252942999999998
#
# number of rings (size 3 to 8) (size 9 to 14) (size 15 to 20)
#    0.000    2.000    1.667    3.500    2.333    0.667 
#    6.000    3.333    3.667    0.000    0.000    0.000 
#    0.000    0.000    0.000    0.000    0.000    0.000 
#
# Total GULP energy -133806.972629 kJ/mol
# GULP energy per Si atom -5575.290526 kJ/mol
# Density = 1.821140 g / cm^3
# Si number density = 18.252943 Si / 1000 Ang^3
#
#
#
# Elastic Constant Matrix: (Units=GPa)
#
#
# Indices 1 2 3 4 5 6 
#
# 1 66.4133 30.5921 29.9144 0.0000 -7.8812 0.0000
# 2 30.5921 108.9985 61.8757 0.0000 -3.8607 0.0000
# 3 29.9144 61.8757 89.9225 0.0002 -0.2754 0.0000
# 4 0.0000 0.0000 0.0002 37.5430 0.0000 -7.8764
# 5 -7.8812 -3.8607 -0.2754 0.0000 32.0469 0.0000
# 6 0.0000 0.0000 0.0000 -7.8764 0.0000 15.2347
#
#
#
# Elastic Compliance Matrix: (Units=1/GPa)
#
#
# Indices 1 2 3 4 5 6 
#
# 1 0.018758 -0.002591 -0.004445 0.000000 0.004263 0.000000
# 2 -0.002591 0.015509 -0.009806 0.000000 0.001147 0.000000
# 3 -0.004445 -0.009806 0.019341 0.000000 -0.002108 0.000000
# 4 0.000000 0.000000 0.000000 0.029877 0.000000 0.015446
# 5 0.004263 0.001147 -0.002108 0.000000 0.032373 0.000000
# 6 0.000000 0.000000 0.000000 0.015446 0.000000 0.073625
#
#
# Mechanical properties :
#
#
# Convention : Reuss Voigt Hill
#
# Bulk Modulus (GPa) = 50.18925 56.67762 53.43344
# Shear Modulus (GPa) = 21.75731 26.49507 24.12619
#
# Velocity S-wave (km/s) = 3.45627 3.81406 3.63956
# Velocity P-wave (km/s) = 6.59423 7.10737 6.85560
#
# Compressibility (1/GPa) = 0.01992458
#
# Stress axis : x y z
#
# Youngs Moduli (GPa) = 53.30930 64.47851 51.70480
#
# Poissons Ratio (x) = 0.16705 0.22981
# Poissons Ratio (y) = 0.13811 0.50704
# Poissons Ratio (z) = 0.23694 0.63230
#
# Static dielectric constant tensor:
#      x y z
#    x 1.670920 0.000000 -0.006410 
#    y 0.000000 1.629180 0.000000 
#    z -0.006410 0.000000 1.666900 
# 
# From -- ./inp_files/194319.got.cif
#   From: 2010.05.17/outbox.cif.g08.bks.cpg/sg15_98_cif.got.tgz:194319.got - 2010.06.03 18:47:42.
