data_PCOD9263554
_publ_section_title
;
Structure prediction by ZEFSAII (Michael W. Deem and Ramdas Pophale) SiO2 
 PCOD9263554
Probable space group: C 2/C
;
_chemical_formula_sum "Si O2"
_cell_formula_units_Z 56
_cell_length_a 14.914600
_cell_length_b 7.604431
_cell_length_c 27.834104
_cell_angle_alpha 90.000000
_cell_angle_beta 128.295786
_cell_angle_gamma 90.000000
_cell_volume 2477.574495
_symmetry_space_group_name_H-M "C 2/C"
_symmetry_group_IT_number 15
_symmetry_cell_setting 'monoclinic'
loop_
_space_group_symop_operation_xyz
x,y,z
-x,y,1/2-z
-x,-y,-z
x,-y,1/2+z
1/2+x,1/2+y,z
1/2-x,1/2+y,1/2-z
1/2-x,1/2-y,-z
1/2+x,1/2-y,1/2+z
loop_
_atom_site_type_symbol
_atom_site_label
_atom_site_fract_x
_atom_site_fract_y
_atom_site_fract_z
Si Si1 0.182828 0.227980 0.173672
Si Si2 0.508785 0.440383 0.947320
Si Si3 0.549232 0.219554 0.414940
Si Si4 0.106835 0.432060 0.501668
Si Si5 0.193966 0.602014 0.127006
Si Si6 0.092996 0.818682 0.742840
Si Si7 0.060758 0.758352 0.221018
O O1 0.114605 0.087121 0.119112
O O2 0.194115 0.400994 0.145091
O O3 0.106777 0.268342 0.195580
O O4 0.309851 0.182875 0.235164
O O5 0.578847 0.584271 0.940814
O O6 0.567712 0.250712 0.966251
O O7 0.500000 0.500000 0.000000
O O8 0.626308 0.075272 0.466904
O O9 0.521079 0.204118 0.349769
O O10 0.424835 0.188825 0.397783
O O11 0.205431 0.400657 0.573430
O O12 0.000000 0.500000 0.500000
O O13 0.291033 0.696577 0.188944
O O14 0.000000 0.756938 0.750000
O O15 0.072819 0.027507 0.724701
O O16 0.000000 0.709311 0.250000
#
# Coordination Sequence:
#
# PCOD9263554 Si02
#       7
#     8   8   8   8   8   8   8
#     4  11  20  35  62  90 119 161 208 249 311 372
#     4  12  20  33  62  93 116 162 211 246 309 376
#     4  11  19  35  62  89 124 159 205 257 308 364
#     4  10  19  34  57  95 120 157 207 254 304 375
#     4  10  19  36  60  88 125 159 201 254 312 363
#     4  10  21  37  62  92 124 163 206 258 311 369
#     4  10  22  38  61  91 126 166 208 256 312 369
#
# _framework density 22.602753
#
# number of rings (size 3 to 8) (size 9 to 14) (size 15 to 20)
#    0.000    1.429    8.571    0.000    0.000    0.000 
#    0.000    0.714    3.143    5.143    3.714    0.000 
#    0.000    0.000    0.000    0.000    0.000    0.000 
#
# Total GULP energy -156451.665465 kJ/mol
# GULP energy per Si atom -5587.559481 kJ/mol
# Density = 2.255131 g / cm^3
# Si number density = 22.602753 Si / 1000 Ang^3
#
#
#
# Elastic Constant Matrix: (Units=GPa)
#
#
# Indices 1 2 3 4 5 6 
#
# 1 53.1284 -8.3349 24.5701 0.0000 -17.6990 0.0000
# 2 -8.3349 81.2296 24.4462 0.0000 -12.1941 0.0000
# 3 24.5701 24.4462 154.8881 0.0000 -40.6878 0.0000
# 4 0.0000 0.0000 0.0000 20.3729 0.0000 12.8039
# 5 -17.6990 -12.1941 -40.6878 0.0000 28.3396 0.0000
# 6 0.0000 0.0000 0.0000 12.8039 0.0000 -12.0484
#
#
#
# Elastic Compliance Matrix: (Units=1/GPa)
#
#
# Indices 1 2 3 4 5 6 
#
# 1 0.025825 0.005436 -0.000166 0.000000 0.018229 0.000000
# 2 0.005436 0.014392 -0.000988 0.000000 0.008170 0.000000
# 3 -0.000166 -0.000988 0.010435 0.000000 0.014454 0.000000
# 4 0.000000 0.000000 0.000000 0.029429 0.000000 0.031275
# 5 0.018229 0.008170 0.014454 0.000000 0.070938 0.000000
# 6 0.000000 0.000000 0.000000 0.031275 0.000000 -0.049763
#
#
# Mechanical properties :
#
#
# Convention : Reuss Voigt Hill
#
# Bulk Modulus (GPa) = 16.88684 41.17876 29.03280
# Shear Modulus (GPa) = 44.47172 23.90379 34.18776
#
# Velocity S-wave (km/s) = 4.44050 3.25554 3.89337
# Velocity P-wave (km/s) = 5.81189 5.69117 5.75185
#
# Compressibility (1/GPa) = 0.05921770
#
# Stress axis : x y z
#
# Youngs Moduli (GPa) = 38.72240 69.48149 95.82833
#
# Poissons Ratio (x) = -0.37773 0.01590
# Poissons Ratio (y) = -0.21051 0.09466
# Poissons Ratio (z) = 0.00643 0.06864
#
# Static dielectric constant tensor:
#      x y z
#    x 1.849330 0.000000 0.026390 
#    y 0.000000 1.909120 0.000000 
#    z 0.026390 0.000000 1.885870 
# 
# From -- ./inp_files/295068.got.cif
#   From: 2010.05.17/outbox.cif.g08.bks.cpg/sg15_148_cif.got.tgz:295068.got - 2010.06.03 18:47:42.
