data_PCOD9263297
_publ_section_title
;
Structure prediction by ZEFSAII (Michael W. Deem and Ramdas Pophale) SiO2 
 PCOD9263297
Probable space group: C 2/C
;
_chemical_formula_sum "Si O2"
_cell_formula_units_Z 64
_cell_length_a 8.118857
_cell_length_b 24.035065
_cell_length_c 21.924770
_cell_angle_alpha 90.000000
_cell_angle_beta 137.783476
_cell_angle_gamma 90.000000
_cell_volume 2874.762630
_symmetry_space_group_name_H-M "C 2/C"
_symmetry_group_IT_number 15
_symmetry_cell_setting 'monoclinic'
loop_
_space_group_symop_operation_xyz
x,y,z
-x,y,1/2-z
-x,-y,-z
x,-y,1/2+z
1/2+x,1/2+y,z
1/2-x,1/2+y,1/2-z
1/2-x,1/2-y,-z
1/2+x,1/2-y,1/2+z
loop_
_atom_site_type_symbol
_atom_site_label
_atom_site_fract_x
_atom_site_fract_y
_atom_site_fract_z
Si Si1 0.512264 0.306593 0.881132
Si Si2 0.188922 0.374343 0.876524
Si Si3 0.748529 0.114079 0.588747
Si Si4 0.455356 0.821866 0.102678
Si Si5 0.682825 0.874343 0.623476
Si Si6 0.393539 0.614079 0.911253
Si Si7 0.351568 0.003255 0.648820
Si Si8 0.243713 0.496745 0.148820
O O1 0.274214 0.335100 0.845413
O O2 0.476920 0.241107 0.863460
O O3 0.607440 0.335100 0.845413
O O4 0.732922 0.316964 0.991461
O O5 0.929935 0.366596 0.839967
O O6 0.212717 0.438518 0.862341
O O7 0.392030 0.366325 0.984801
O O8 0.675056 0.144594 0.630725
O O9 0.547174 0.133675 0.484801
O O10 0.012476 0.124794 0.631238
O O11 0.710388 0.047897 0.586542
O O12 0.347845 0.855407 0.130725
O O13 0.763352 0.938518 0.637659
O O14 0.364221 0.547897 0.913458
O O15 0.500000 0.019617 0.750000
O O16 0.522860 0.008440 0.636430
O O17 0.500000 0.480382 0.250000
#
# Coordination Sequence:
#
# PCOD9263297 Si02
#       8
#     8   8   8   8   8   8   8   8
#     4   9  18  32  57  76 110 140 175 220 266 309
#     4   9  20  34  53  82 109 139 177 220 267 318
#     4  10  19  34  55  80 110 141 174 220 269 315
#     4   9  18  34  51  84 106 138 179 220 262 315
#     4   9  20  34  53  82 109 139 177 220 267 318
#     4  10  19  34  55  80 110 141 174 220 269 315
#     4  11  22  35  52  81 111 142 177 219 266 323
#     4  11  22  35  52  81 111 142 177 219 266 323
#
# _framework density 22.262709000000001
#
# number of rings (size 3 to 8) (size 9 to 14) (size 15 to 20)
#    0.000    2.250    1.250    1.500    3.500    1.000 
#    0.000    5.000    0.000    1.500    0.000    0.000 
#    0.000    0.000    0.000    0.000    0.000    0.000 
#
# Total GULP energy -178750.041004 kJ/mol
# GULP energy per Si atom -5585.938781 kJ/mol
# Density = 2.221204 g / cm^3
# Si number density = 22.262709 Si / 1000 Ang^3
#
#
#
# Elastic Constant Matrix: (Units=GPa)
#
#
# Indices 1 2 3 4 5 6 
#
# 1 194.3038 122.3316 15.9438 0.0000 -2.3810 0.0000
# 2 122.3316 144.6255 -5.7509 0.0000 -2.2317 0.0000
# 3 15.9438 -5.7509 28.0650 0.0000 -0.5157 0.0001
# 4 0.0000 0.0000 0.0000 -22.3761 0.0000 -0.8705
# 5 -2.3810 -2.2317 -0.5157 0.0000 20.8930 0.0001
# 6 0.0000 0.0000 0.0001 -0.8705 0.0001 27.5855
#
#
#
# Elastic Compliance Matrix: (Units=1/GPa)
#
#
# Indices 1 2 3 4 5 6 
#
# 1 0.013285 -0.011631 -0.009930 0.000000 0.000026 0.000000
# 2 -0.011631 0.017168 0.010140 0.000000 0.000759 0.000000
# 3 -0.009930 0.010140 0.043369 0.000000 0.001022 0.000000
# 4 0.000000 0.000000 0.000000 -0.044636 0.000000 -0.001409
# 5 0.000026 0.000759 0.001022 0.000000 0.047972 0.000000
# 6 0.000000 0.000000 0.000000 -0.001409 0.000000 0.036206
#
#
# Mechanical properties :
#
#
# Convention : Reuss Voigt Hill
#
# Bulk Modulus (GPa) = 19.61622 70.22704 44.92163
# Shear Modulus (GPa) = 32.63701 20.85182 26.74441
#
# Velocity S-wave (km/s) = 3.83298 3.06375 3.46975
# Velocity P-wave (km/s) = 5.33098 6.64294 6.02279
#
# Compressibility (1/GPa) = 0.05097822
#
# Stress axis : x y z
#
# Youngs Moduli (GPa) = 75.27494 58.24921 23.05780
#
# Poissons Ratio (x) = 0.67751 0.22896
# Poissons Ratio (y) = 0.87554 -0.23380
# Poissons Ratio (z) = 0.74747 -0.59062
#
# Static dielectric constant tensor:
#      x y z
#    x 1.816270 0.000000 -0.000560 
#    y 0.000000 1.765260 0.000000 
#    z -0.000560 0.000000 1.784290 
# 
# From -- ./inp_files/290013.got.cif
#   From: 2010.05.17/outbox.cif.g08.bks.cpg/sg15_146_cif.got.tgz:290013.got - 2010.06.03 18:47:42.
