data_PCOD9263757
_publ_section_title
;
Structure prediction by ZEFSAII (Michael W. Deem and Ramdas Pophale) SiO2 
 PCOD9263757
Probable space group: C 2/C
;
_chemical_formula_sum "Si O2"
_cell_formula_units_Z 28
_cell_length_a 11.303581
_cell_length_b 9.892580
_cell_length_c 24.189632
_cell_angle_alpha 90.000000
_cell_angle_beta 158.140697
_cell_angle_gamma 90.000000
_cell_volume 1007.120273
_symmetry_space_group_name_H-M "C 2/C"
_symmetry_group_IT_number 15
_symmetry_cell_setting 'monoclinic'
loop_
_space_group_symop_operation_xyz
x,y,z
-x,y,1/2-z
-x,-y,-z
x,-y,1/2+z
1/2+x,1/2+y,z
1/2-x,1/2+y,1/2-z
1/2-x,1/2-y,-z
1/2+x,1/2-y,1/2+z
loop_
_atom_site_type_symbol
_atom_site_label
_atom_site_fract_x
_atom_site_fract_y
_atom_site_fract_z
Si Si1 0.631259 0.207190 0.092706
Si Si2 0.579002 0.397850 0.982738
Si Si3 0.324826 0.400959 0.291805
Si Si4 0.500000 0.554097 0.750000
O O1 0.493396 0.255276 0.973915
O O2 0.536604 0.292922 0.104711
O O3 0.000000 0.261064 0.250000
O O4 0.702267 0.049985 0.129989
O O5 0.945171 0.391648 0.123174
O O6 0.500000 0.500000 0.000000
O O7 0.390943 0.452502 0.848434
O O8 0.510309 0.381177 0.315018
#
# Coordination Sequence:
#
# PCOD9263757 Si02
#       4
#     8   8   8   4
#     4   7  16  35  53  79 114 138 184 231 265 330
#     4   9  17  35  61  79 114 150 185 234 279 322
#     4  10  19  34  60  82 115 150 182 235 281 328
#     4  10  20  34  60  84 112 156 176 228 296 322
#
# _framework density 27.802042
#
# number of rings (size 3 to 8) (size 9 to 14) (size 15 to 20)
#    0.857    2.286    0.000    2.571    0.000    2.286 
#    0.000    5.714   15.714    0.000    0.000    0.000 
#    0.000    0.000    0.000    0.000    0.000    0.000 
#
# Total GULP energy -78244.738747 kJ/mol
# GULP energy per Si atom -5588.909911 kJ/mol
# Density = 2.773876 g / cm^3
# Si number density = 27.802042 Si / 1000 Ang^3
#
#
#
# Elastic Constant Matrix: (Units=GPa)
#
#
# Indices 1 2 3 4 5 6 
#
# 1 250.7327 69.8009 42.3662 0.0019 -10.7071 0.0016
# 2 69.8009 71.4896 17.8279 0.0013 -6.9462 0.0014
# 3 42.3662 17.8279 50.5940 0.0237 -2.3705 -0.0001
# 4 0.0019 0.0013 0.0237 38.5108 -0.0004 -8.3798
# 5 -10.7071 -6.9462 -2.3705 -0.0004 58.1652 0.0028
# 6 0.0016 0.0014 -0.0001 -8.3798 0.0028 44.1748
#
#
#
# Elastic Compliance Matrix: (Units=1/GPa)
#
#
# Indices 1 2 3 4 5 6 
#
# 1 0.005922 -0.004949 -0.003198 0.000002 0.000369 0.000000
# 2 -0.004949 0.019624 -0.002709 0.000001 0.001322 0.000000
# 3 -0.003198 -0.002709 0.023400 -0.000015 0.000041 -0.000003
# 4 0.000002 0.000001 -0.000015 0.027085 0.000000 0.005138
# 5 0.000369 0.001322 0.000041 0.000000 0.017420 -0.000001
# 6 0.000000 0.000000 -0.000003 0.005138 -0.000001 0.023612
#
#
# Mechanical properties :
#
#
# Convention : Reuss Voigt Hill
#
# Bulk Modulus (GPa) = 36.71846 70.31180 53.51513
# Shear Modulus (GPa) = 33.81764 44.35827 39.08796
#
# Velocity S-wave (km/s) = 3.49144 3.99871 3.75365
# Velocity P-wave (km/s) = 5.43040 6.83115 6.17065
#
# Compressibility (1/GPa) = 0.02723426
#
# Stress axis : x y z
#
# Youngs Moduli (GPa) = 168.85821 50.95781 42.73593
#
# Poissons Ratio (x) = 0.25219 0.13667
# Poissons Ratio (y) = 0.83567 0.11577
# Poissons Ratio (z) = 0.53999 0.13804
#
# Static dielectric constant tensor:
#      x y z
#    x 2.165480 0.000000 -0.027680 
#    y 0.000000 2.246860 0.000000 
#    z -0.027680 0.000000 2.367650 
# 
# From -- ./inp_files/84676.got.cif
#   From: 2010.05.17/outbox.cif.g08.bks.cpg/sg15_43_cif.got.tgz:84676.got - 2010.06.03 18:47:42.
