data_PCOD9263342
_publ_section_title
;
Structure prediction by ZEFSAII (Michael W. Deem and Ramdas Pophale) SiO2 
 PCOD9263342
Probable space group: C 2/C
;
_chemical_formula_sum "Si O2"
_cell_formula_units_Z 56
_cell_length_a 14.510975
_cell_length_b 18.922032
_cell_length_c 15.479240
_cell_angle_alpha 90.000000
_cell_angle_beta 37.306739
_cell_angle_gamma 90.000000
_cell_volume 2575.997020
_symmetry_space_group_name_H-M "C 2/C"
_symmetry_group_IT_number 15
_symmetry_cell_setting 'monoclinic'
loop_
_space_group_symop_operation_xyz
x,y,z
-x,y,1/2-z
-x,-y,-z
x,-y,1/2+z
1/2+x,1/2+y,z
1/2-x,1/2+y,1/2-z
1/2-x,1/2-y,-z
1/2+x,1/2-y,1/2+z
loop_
_atom_site_type_symbol
_atom_site_label
_atom_site_fract_x
_atom_site_fract_y
_atom_site_fract_z
Si Si1 0.115795 0.033348 0.586364
Si Si2 0.663057 0.034837 0.795420
Si Si3 0.709636 0.676686 0.250441
Si Si4 0.153023 0.390178 0.692063
Si Si5 0.907545 0.904070 0.010526
Si Si6 0.663059 0.944753 0.964182
Si Si7 0.322034 0.792262 0.366665
O O1 0.198118 0.099522 0.479646
O O2 0.000000 0.049842 0.750000
O O3 0.044264 0.976659 0.572456
O O4 0.251554 0.985515 0.524481
O O5 0.820121 0.074910 0.662646
O O6 0.651271 0.966156 0.742389
O O7 0.655980 0.005678 0.896617
O O8 0.510187 0.077992 0.889048
O O9 0.821112 0.665741 0.249340
O O10 0.546845 0.649647 0.407033
O O11 0.751721 0.620461 0.143587
O O12 0.703950 0.750724 0.204735
O O13 0.000000 0.380125 0.750000
O O14 0.770703 0.864484 0.064069
O O15 0.500000 0.798632 0.250000
O O16 0.250000 0.750000 0.500000
#
# Coordination Sequence:
#
# PCOD9263342 Si02
#       7
#     8   8   8   8   8   8   8
#     4  11  21  33  59  90 128 158 195 241 304 370
#     4   9  21  34  55  88 122 161 197 240 299 367
#     4  11  24  40  59  86 126 164 204 256 304 364
#     4  10  21  39  60  89 122 160 202 248 307 367
#     4  11  24  37  58  85 124 159 198 245 308 362
#     4  10  19  34  55  86 125 156 199 241 297 362
#     4  12  26  43  62  89 120 159 204 250 308 364
#
# _framework density 21.739156000000001
#
# number of rings (size 3 to 8) (size 9 to 14) (size 15 to 20)
#    0.000    1.429    4.286    0.857    6.000    1.714 
#    0.000    0.000    0.000    0.857    0.000    0.000 
#    0.000    0.000    0.000    0.000    0.000    0.000 
#
# Total GULP energy -156368.813099 kJ/mol
# GULP energy per Si atom -5584.600468 kJ/mol
# Density = 2.168968 g / cm^3
# Si number density = 21.739156 Si / 1000 Ang^3
#
#
#
# Elastic Constant Matrix: (Units=GPa)
#
#
# Indices 1 2 3 4 5 6 
#
# 1 92.6707 31.8535 22.1775 0.0023 3.0614 -0.0006
# 2 31.8535 44.4796 24.4235 0.0026 3.2708 -0.0010
# 3 22.1775 24.4235 110.6976 0.0029 -8.1486 -0.0010
# 4 0.0023 0.0026 0.0029 25.9203 -0.0022 4.9816
# 5 3.0614 3.2708 -8.1486 -0.0022 33.8607 0.0007
# 6 -0.0006 -0.0010 -0.0010 4.9816 0.0007 32.9295
#
#
#
# Elastic Compliance Matrix: (Units=1/GPa)
#
#
# Indices 1 2 3 4 5 6 
#
# 1 0.014370 -0.009842 -0.000746 0.000000 -0.000528 0.000000
# 2 -0.009842 0.032838 -0.005539 -0.000002 -0.003615 0.000001
# 3 -0.000746 -0.005539 0.010638 0.000000 0.003163 0.000000
# 4 0.000000 -0.000002 0.000000 0.039735 0.000003 -0.006011
# 5 -0.000528 -0.003615 0.003163 0.000003 0.030691 -0.000001
# 6 0.000000 0.000001 0.000000 -0.006011 -0.000001 0.031277
#
#
# Mechanical properties :
#
#
# Convention : Reuss Voigt Hill
#
# Bulk Modulus (GPa) = 39.07738 44.97300 42.02519
# Shear Modulus (GPa) = 24.95812 29.83500 27.39656
#
# Velocity S-wave (km/s) = 3.39200 3.70862 3.55384
# Velocity P-wave (km/s) = 5.77542 6.25068 6.01774
#
# Compressibility (1/GPa) = 0.02559025
#
# Stress axis : x y z
#
# Youngs Moduli (GPa) = 69.58949 30.45237 94.00152
#
# Poissons Ratio (x) = 0.29972 0.07015
# Poissons Ratio (y) = 0.68492 0.52072
# Poissons Ratio (z) = 0.05193 0.16869
#
# Static dielectric constant tensor:
#      x y z
#    x 1.871570 0.000000 0.016320 
#    y 0.000000 1.779820 0.000000 
#    z 0.016320 0.000000 1.852300 
# 
# From -- ./inp_files/156167.got.cif
#   From: 2010.05.17/outbox.cif.g08.bks.cpg/sg15_79_cif.got.tgz:156167.got - 2010.06.03 18:47:42.
