data_PCOD9263452
_publ_section_title
;
Structure prediction by ZEFSAII (Michael W. Deem and Ramdas Pophale) SiO2 
 PCOD9263452
Probable space group: C 2/C
;
_chemical_formula_sum "Si O2"
_cell_formula_units_Z 48
_cell_length_a 11.172639
_cell_length_b 21.221854
_cell_length_c 14.566852
_cell_angle_alpha 90.000000
_cell_angle_beta 146.822123
_cell_angle_gamma 90.000000
_cell_volume 1890.090955
_symmetry_space_group_name_H-M "C 2/C"
_symmetry_group_IT_number 15
_symmetry_cell_setting 'monoclinic'
loop_
_space_group_symop_operation_xyz
x,y,z
-x,y,1/2-z
-x,-y,-z
x,-y,1/2+z
1/2+x,1/2+y,z
1/2-x,1/2+y,1/2-z
1/2-x,1/2-y,-z
1/2+x,1/2-y,1/2+z
loop_
_atom_site_type_symbol
_atom_site_label
_atom_site_fract_x
_atom_site_fract_y
_atom_site_fract_z
Si Si1 0.692802 0.753191 0.609019
Si Si2 0.111910 0.384909 0.982705
Si Si3 0.128446 0.488672 0.218989
Si Si4 0.689459 0.324432 0.644775
Si Si5 0.469716 0.850720 0.361897
Si Si6 0.083357 0.938984 0.464332
O O1 0.453335 0.730151 0.495972
O O2 0.829826 0.797493 0.765441
O O3 0.660082 0.800427 0.503705
O O4 0.815490 0.686397 0.691909
O O5 0.328843 0.398919 0.064501
O O6 0.992618 0.453298 0.907069
O O7 0.947864 0.342005 0.814742
O O8 0.129751 0.358182 0.097008
O O9 0.997551 0.423201 0.141742
O O10 0.351921 0.471973 0.306317
O O11 0.230728 0.512812 0.381496
O O12 0.576754 0.389197 0.543630
#
# Coordination Sequence:
#
# PCOD9263452 Si02
#       6
#     8   8   8   8   8   8
#     4   9  18  31  52  74 110 149 188 213 264 322
#     4  10  21  35  55  81 112 140 184 231 276 328
#     4  10  19  34  57  78 109 145 185 226 280 323
#     4   9  16  32  47  70 107 144 181 215 258 319
#     4  10  19  35  54  81 113 147 186 225 266 331
#     4  10  20  35  54  80 111 145 181 231 280 324
#
# _framework density 25.395603000000001
#
# number of rings (size 3 to 8) (size 9 to 14) (size 15 to 20)
#    0.000    2.333    1.667    2.500    0.000    0.667 
#    0.000   15.000    0.000    0.000    0.000    4.667 
#    0.000    0.167    0.000    0.000    0.000    0.000 
#
# Total GULP energy -133617.730355 kJ/mol
# GULP energy per Si atom -5567.405431 kJ/mol
# Density = 2.533780 g / cm^3
# Si number density = 25.395603 Si / 1000 Ang^3
#
#
#
# Elastic Constant Matrix: (Units=GPa)
#
#
# Indices 1 2 3 4 5 6 
#
# 1 80.9845 23.3731 27.6455 -0.0007 0.3886 -0.0005
# 2 23.3731 194.7417 57.1902 0.0000 -5.0512 -0.0001
# 3 27.6455 57.1902 90.3086 -0.0018 0.4307 -0.0020
# 4 -0.0007 0.0000 -0.0018 58.8699 -0.0005 -7.7878
# 5 0.3886 -5.0512 0.4307 -0.0005 25.0673 -0.0004
# 6 -0.0005 -0.0001 -0.0020 -7.7878 -0.0004 24.0046
#
#
#
# Elastic Compliance Matrix: (Units=1/GPa)
#
#
# Indices 1 2 3 4 5 6 
#
# 1 0.013832 -0.000520 -0.003904 0.000000 -0.000252 0.000000
# 2 -0.000520 0.006373 -0.003883 0.000000 0.001359 0.000000
# 3 -0.003904 -0.003883 0.014732 0.000001 -0.000975 0.000001
# 4 0.000000 0.000000 0.000001 0.017748 0.000000 0.005758
# 5 -0.000252 0.001359 -0.000975 0.000000 0.040187 0.000001
# 6 0.000000 0.000000 0.000001 0.005758 0.000001 0.043527
#
#
# Mechanical properties :
#
#
# Convention : Reuss Voigt Hill
#
# Bulk Modulus (GPa) = 54.57651 64.71693 59.64672
# Shear Modulus (GPa) = 31.42268 38.77677 35.09972
#
# Velocity S-wave (km/s) = 3.52138 3.91181 3.72172
# Velocity P-wave (km/s) = 6.17015 6.77804 6.48122
#
# Compressibility (1/GPa) = 0.01832290
#
# Stress axis : x y z
#
# Youngs Moduli (GPa) = 72.29631 156.91042 67.88015
#
# Poissons Ratio (x) = 0.08164 0.26498
# Poissons Ratio (y) = 0.03762 0.26359
# Poissons Ratio (z) = 0.28221 0.60930
#
# Static dielectric constant tensor:
#      x y z
#    x 2.122830 0.000000 0.048470 
#    y 0.000000 1.990580 0.000000 
#    z 0.048470 0.000000 2.150950 
# 
# From -- ./inp_files/206745.got.cif
#   From: 2010.05.17/outbox.cif.g08.bks.cpg/sg15_104_cif.got.tgz:206745.got - 2010.06.03 18:47:42.
