data_PCOD9263614
_publ_section_title
;
Structure prediction by ZEFSAII (Michael W. Deem and Ramdas Pophale) SiO2 
 PCOD9263614
Probable space group: C 2/C
;
_chemical_formula_sum "Si O2"
_cell_formula_units_Z 40
_cell_length_a 5.554876
_cell_length_b 13.540469
_cell_length_c 25.336352
_cell_angle_alpha 90.000000
_cell_angle_beta 53.466851
_cell_angle_gamma 90.000000
_cell_volume 1531.245565
_symmetry_space_group_name_H-M "C 2/C"
_symmetry_group_IT_number 15
_symmetry_cell_setting 'monoclinic'
loop_
_space_group_symop_operation_xyz
x,y,z
-x,y,1/2-z
-x,-y,-z
x,-y,1/2+z
1/2+x,1/2+y,z
1/2-x,1/2+y,1/2-z
1/2-x,1/2-y,-z
1/2+x,1/2-y,1/2+z
loop_
_atom_site_type_symbol
_atom_site_label
_atom_site_fract_x
_atom_site_fract_y
_atom_site_fract_z
Si Si1 0.838992 0.220096 0.584427
Si Si2 0.648521 0.099592 0.787680
Si Si3 0.870604 0.078836 0.412180
Si Si4 0.223458 0.605788 0.049437
Si Si5 0.278692 0.613499 0.239676
O O1 0.575577 0.157135 0.644601
O O2 0.688798 0.304793 0.568026
O O3 0.036214 0.296781 0.595236
O O4 0.067454 0.152854 0.522660
O O5 0.500000 0.116467 0.750000
O O6 0.000000 0.124163 0.750000
O O7 0.656812 0.979420 0.789149
O O8 0.539499 0.039389 0.441984
O O9 0.080833 0.050314 0.432808
O O10 0.042218 0.072783 0.334273
O O11 0.500000 0.668941 0.250000
O O12 0.000000 0.667725 0.250000
#
# Coordination Sequence:
#
# PCOD9263614 Si02
#       5
#     8   8   8   8   8
#     4   9  21  35  61  86 119 143 193 238 292 346
#     4  10  23  37  57  81 118 158 191 233 290 341
#     4  10  19  34  58  86 115 145 193 238 285 348
#     4   9  20  34  58  91 112 147 186 244 298 333
#     4  10  21  38  56  78 117 162 192 232 284 340
#
# _framework density 26.122525
#
# number of rings (size 3 to 8) (size 9 to 14) (size 15 to 20)
#    1.200    1.200    0.000    1.800    2.800    1.600 
#    0.000    0.000    0.000   28.800    0.000    0.000 
#    0.000    0.000    0.000    0.000    0.000    0.000 
#
# Total GULP energy -111645.082902 kJ/mol
# GULP energy per Si atom -5582.254145 kJ/mol
# Density = 2.606307 g / cm^3
# Si number density = 26.122525 Si / 1000 Ang^3
#
#
#
# Elastic Constant Matrix: (Units=GPa)
#
#
# Indices 1 2 3 4 5 6 
#
# 1 280.5816 19.4768 61.4636 0.0005 -22.4478 -0.0004
# 2 19.4768 96.7713 0.7111 -0.0002 -9.5291 0.0004
# 3 61.4636 0.7111 102.2484 0.0040 -40.2119 -0.0011
# 4 0.0005 -0.0002 0.0040 36.9913 -0.0010 -5.8577
# 5 -22.4478 -9.5291 -40.2119 -0.0010 44.0106 0.0011
# 6 -0.0004 0.0004 -0.0011 -5.8577 0.0011 -19.9486
#
#
#
# Elastic Compliance Matrix: (Units=1/GPa)
#
#
# Indices 1 2 3 4 5 6 
#
# 1 0.004177 -0.000874 -0.002718 0.000000 -0.000542 0.000000
# 2 -0.000874 0.010852 0.001871 0.000000 0.003613 0.000000
# 3 -0.002718 0.001871 0.017193 -0.000001 0.014728 0.000000
# 4 0.000000 0.000000 -0.000001 0.025832 0.000000 -0.007585
# 5 -0.000542 0.003613 0.014728 0.000000 0.036684 0.000001
# 6 0.000000 0.000000 0.000000 -0.007585 0.000001 -0.047902
#
#
# Mechanical properties :
#
#
# Convention : Reuss Voigt Hill
#
# Bulk Modulus (GPa) = 34.74718 71.43381 53.09050
# Shear Modulus (GPa) = 83.51275 38.74065 61.12670
#
# Velocity S-wave (km/s) = 5.66030 3.85520 4.84260
# Velocity P-wave (km/s) = 7.48660 6.87181 7.18578
#
# Compressibility (1/GPa) = 0.02877932
#
# Stress axis : x y z
#
# Youngs Moduli (GPa) = 239.42444 92.15231 58.16349
#
# Poissons Ratio (x) = 0.08054 0.15808
# Poissons Ratio (y) = 0.20927 -0.10882
# Poissons Ratio (z) = 0.65071 -0.17241
#
# Static dielectric constant tensor:
#      x y z
#    x 2.127250 0.000000 -0.042670 
#    y 0.000000 2.005470 0.000000 
#    z -0.042670 0.000000 2.081210 
# 
# From -- ./inp_files/184723.got.cif
#   From: 2010.05.17/outbox.cif.g08.bks.cpg/sg15_93_cif.got.tgz:184723.got - 2010.06.03 18:47:42.
