data_PCOD9263517
_publ_section_title
;
Structure prediction by ZEFSAII (Michael W. Deem and Ramdas Pophale) SiO2 
 PCOD9263517
Probable space group: C 2/C
;
_chemical_formula_sum "Si O2"
_cell_formula_units_Z 40
_cell_length_a 11.453813
_cell_length_b 9.803761
_cell_length_c 27.383966
_cell_angle_alpha 90.000000
_cell_angle_beta 151.201387
_cell_angle_gamma 90.000000
_cell_volume 1481.306955
_symmetry_space_group_name_H-M "C 2/C"
_symmetry_group_IT_number 15
_symmetry_cell_setting 'monoclinic'
loop_
_space_group_symop_operation_xyz
x,y,z
-x,y,1/2-z
-x,-y,-z
x,-y,1/2+z
1/2+x,1/2+y,z
1/2-x,1/2+y,1/2-z
1/2-x,1/2-y,-z
1/2+x,1/2-y,1/2+z
loop_
_atom_site_type_symbol
_atom_site_label
_atom_site_fract_x
_atom_site_fract_y
_atom_site_fract_z
Si Si1 0.320265 0.571569 0.554413
Si Si2 0.500000 0.720882 0.750000
Si Si3 0.500000 0.737500 0.250000
Si Si4 0.498514 0.173796 0.936111
Si Si5 0.240348 0.254428 0.244383
Si Si6 0.994121 0.177792 0.969622
O O1 0.207673 0.427819 0.527472
O O2 0.577887 0.626100 0.669579
O O3 0.355348 0.575326 0.508613
O O4 0.113774 0.680080 0.493864
O O5 0.588853 0.807990 0.735991
O O6 0.723678 0.622337 0.844962
O O7 0.640013 0.674441 0.254312
O O8 0.286466 0.825008 0.147240
O O9 0.479275 0.197297 0.871147
O O10 0.486382 0.307649 0.965360
#
# Coordination Sequence:
#
# PCOD9263517 Si02
#       6
#     8   4   4   8   8   8
#     4  10  19  34  57  86 120 150 207 254 305 367
#     4   8  18  33  60  81 110 154 200 248 304 353
#     4  10  22  35  54  83 126 150 198 250 312 365
#     4  10  19  35  61  82 115 159 204 246 306 378
#     4   9  19  37  54  81 117 157 188 262 305 350
#     4  10  20  33  54  86 116 156 195 257 307 365
#
# _framework density 27.003183
#
# number of rings (size 3 to 8) (size 9 to 14) (size 15 to 20)
#    1.200    1.200    2.000    0.600    0.000    3.200 
#    0.000    4.000    0.000    8.400    0.000    0.000 
#    0.000    0.000    0.000    0.000    0.000    0.000 
#
# Total GULP energy -111347.493589 kJ/mol
# GULP energy per Si atom -5567.374679 kJ/mol
# Density = 2.694172 g / cm^3
# Si number density = 27.003183 Si / 1000 Ang^3
#
#
#
# Elastic Constant Matrix: (Units=GPa)
#
#
# Indices 1 2 3 4 5 6 
#
# 1 232.8312 47.2316 58.1084 0.0000 -1.9117 0.0000
# 2 47.2316 64.4859 20.1792 0.0000 13.2278 0.0000
# 3 58.1084 20.1792 115.8727 0.0000 -11.0201 -0.0001
# 4 0.0000 0.0000 0.0000 8.7078 0.0000 2.5395
# 5 -1.9117 13.2278 -11.0201 0.0000 53.1133 0.0000
# 6 0.0000 0.0000 -0.0001 2.5395 0.0000 11.0270
#
#
#
# Elastic Compliance Matrix: (Units=1/GPa)
#
#
# Indices 1 2 3 4 5 6 
#
# 1 0.005542 -0.003533 -0.002103 0.000000 0.000643 0.000000
# 2 -0.003533 0.019931 -0.002227 0.000000 -0.005553 0.000000
# 3 -0.002103 -0.002227 0.010322 0.000000 0.002621 0.000000
# 4 0.000000 0.000000 0.000000 0.123107 0.000000 -0.028352
# 5 0.000643 -0.005553 0.002621 0.000000 0.020778 0.000000
# 6 0.000000 0.000000 0.000000 -0.028352 0.000000 0.097216
#
#
# Mechanical properties :
#
#
# Convention : Reuss Voigt Hill
#
# Bulk Modulus (GPa) = 49.82930 73.80313 61.81622
# Shear Modulus (GPa) = 16.70506 33.74766 25.22636
#
# Velocity S-wave (km/s) = 2.48993 3.53904 3.05978
# Velocity P-wave (km/s) = 5.17296 6.64005 5.95188
#
# Compressibility (1/GPa) = 0.02006851
#
# Stress axis : x y z
#
# Youngs Moduli (GPa) = 180.45105 50.17323 96.88269
#
# Poissons Ratio (x) = 0.17725 0.20371
# Poissons Ratio (y) = 0.63750 0.21580
# Poissons Ratio (z) = 0.37943 0.11176
#
# Static dielectric constant tensor:
#      x y z
#    x 2.225640 0.000000 -0.030490 
#    y 0.000000 2.008970 0.000000 
#    z -0.030490 0.000000 2.163440 
# 
# From -- ./inp_files/311002.got.cif
#   From: 2010.05.17/outbox.cif.g08.bks.cpg/sg15_156_cif.got.tgz:311002.got - 2010.06.03 18:47:42.
