data_PCOD9263466
_publ_section_title
;
Structure prediction by ZEFSAII (Michael W. Deem and Ramdas Pophale) SiO2 
 PCOD9263466
Probable space group: C 2/C
;
_chemical_formula_sum "Si O2"
_cell_formula_units_Z 56
_cell_length_a 28.756391
_cell_length_b 10.394352
_cell_length_c 8.861073
_cell_angle_alpha 90.000000
_cell_angle_beta 66.752116
_cell_angle_gamma 90.000000
_cell_volume 2433.558758
_symmetry_space_group_name_H-M "C 2/C"
_symmetry_group_IT_number 15
_symmetry_cell_setting 'monoclinic'
loop_
_space_group_symop_operation_xyz
x,y,z
-x,y,1/2-z
-x,-y,-z
x,-y,1/2+z
1/2+x,1/2+y,z
1/2-x,1/2+y,1/2-z
1/2-x,1/2-y,-z
1/2+x,1/2-y,1/2+z
loop_
_atom_site_type_symbol
_atom_site_label
_atom_site_fract_x
_atom_site_fract_y
_atom_site_fract_z
Si Si1 0.158157 0.056423 0.278988
Si Si2 0.905678 0.959704 0.897979
Si Si3 0.642717 0.803852 0.945298
Si Si4 0.000000 0.875157 0.250000
Si Si5 0.449256 0.849104 0.618785
Si Si6 0.000000 0.444023 0.250000
Si Si7 0.766369 0.842476 0.340066
Si Si8 0.297387 0.179540 0.858054
O O1 0.106073 0.020335 0.262605
O O2 0.168543 0.204153 0.245435
O O3 0.144001 0.025287 0.466279
O O4 0.205692 0.975767 0.157329
O O5 0.895552 0.810104 0.947606
O O6 0.957309 0.029917 0.872139
O O7 0.608469 0.865240 0.860771
O O8 0.689888 0.736266 0.803146
O O9 0.667643 0.880208 0.054174
O O10 0.970060 0.780731 0.172126
O O11 0.480322 0.869489 0.422477
O O12 0.458986 0.959995 0.729653
O O13 0.750000 0.750000 0.500000
O O14 0.724598 0.881044 0.266785
O O15 0.250000 0.250000 0.000000
#
# Coordination Sequence:
#
# PCOD9263466 Si02
#       8
#     8   8   8   4   8   4   8   8
#     4  10  20  36  55  77 115 153 182 235 294 337
#     4  10  21  35  55  87 120 148 183 231 296 356
#     4   9  20  37  56  81 116 150 183 233 290 349
#     4  11  22  35  60  92 118 149 194 237 282 368
#     4  10  21  41  63  85 114 151 198 241 291 344
#     4   9  22  43  64  82 112 155 194 247 296 334
#     4  10  19  34  57  81 109 148 195 236 281 335
#     4   9  19  35  53  76 108 146 186 227 283 344
#
# _framework density 23.011568
#
# number of rings (size 3 to 8) (size 9 to 14) (size 15 to 20)
#    0.000    2.286    0.000    3.429    0.000    5.143 
#    0.000    8.571    0.000    0.000    0.000    0.000 
#    0.000    0.000    0.000    0.000    0.000    0.000 
#
# Total GULP energy -155936.592769 kJ/mol
# GULP energy per Si atom -5569.164027 kJ/mol
# Density = 2.295919 g / cm^3
# Si number density = 23.011568 Si / 1000 Ang^3
#
#
#
# Elastic Constant Matrix: (Units=GPa)
#
#
# Indices 1 2 3 4 5 6 
#
# 1 156.1186 22.2031 31.0653 0.0000 32.9909 0.0000
# 2 22.2031 24.0083 20.7844 0.0000 -0.8421 0.0000
# 3 31.0653 20.7844 82.3989 0.0000 13.5549 0.0000
# 4 0.0000 0.0000 0.0000 14.9583 0.0000 -4.6511
# 5 32.9909 -0.8421 13.5549 0.0000 37.1630 0.0000
# 6 0.0000 0.0000 0.0000 -4.6511 0.0000 20.1532
#
#
#
# Elastic Compliance Matrix: (Units=1/GPa)
#
#
# Indices 1 2 3 4 5 6 
#
# 1 0.009537 -0.009287 0.000186 0.000000 -0.008745 0.000000
# 2 -0.009287 0.063851 -0.015105 0.000000 0.015201 0.000000
# 3 0.000186 -0.015105 0.016978 0.000000 -0.006700 0.000000
# 4 0.000000 0.000000 0.000000 0.072021 0.000000 0.016622
# 5 -0.008745 0.015201 -0.006700 0.000000 0.037460 0.000000
# 6 0.000000 0.000000 0.000000 0.016622 0.000000 0.053456
#
#
# Mechanical properties :
#
#
# Convention : Reuss Voigt Hill
#
# Bulk Modulus (GPa) = 23.83627 45.62569 34.73098
# Shear Modulus (GPa) = 15.83774 27.01978 21.42876
#
# Velocity S-wave (km/s) = 2.62630 3.43035 3.05489
# Velocity P-wave (km/s) = 4.42464 5.96323 5.25060
#
# Compressibility (1/GPa) = 0.04195287
#
# Stress axis : x y z
#
# Youngs Moduli (GPa) = 104.85214 15.66142 58.89851
#
# Poissons Ratio (x) = 0.14546 -0.01093
# Poissons Ratio (y) = 0.97381 0.88966
# Poissons Ratio (z) = -0.01946 0.23657
#
# Static dielectric constant tensor:
#      x y z
#    x 1.949630 0.000000 0.059060 
#    y 0.000000 1.937510 0.000000 
#    z 0.059060 0.000000 1.856670 
# 
# From -- ./inp_files/65472.got.cif
#   From: 2010.05.17/outbox.cif.g08.bks.cpg/sg15_33_cif.got.tgz:65472.got - 2010.06.03 18:47:42.
