data_PCOD9263585
_publ_section_title
;
Structure prediction by ZEFSAII (Michael W. Deem and Ramdas Pophale) SiO2 
 PCOD9263585
Probable space group: C 2/C
;
_chemical_formula_sum "Si O2"
_cell_formula_units_Z 60
_cell_length_a 7.612048
_cell_length_b 22.415797
_cell_length_c 27.183099
_cell_angle_alpha 90.000000
_cell_angle_beta 42.210752
_cell_angle_gamma 90.000000
_cell_volume 3116.256475
_symmetry_space_group_name_H-M "C 2/C"
_symmetry_group_IT_number 15
_symmetry_cell_setting 'monoclinic'
loop_
_space_group_symop_operation_xyz
x,y,z
-x,y,1/2-z
-x,-y,-z
x,-y,1/2+z
1/2+x,1/2+y,z
1/2-x,1/2+y,1/2-z
1/2-x,1/2-y,-z
1/2+x,1/2-y,1/2+z
loop_
_atom_site_type_symbol
_atom_site_label
_atom_site_fract_x
_atom_site_fract_y
_atom_site_fract_z
Si Si1 0.603686 0.639290 0.929558
Si Si2 0.179655 0.767822 0.070477
Si Si3 0.158536 0.637355 0.099777
Si Si4 0.046763 0.434080 0.294696
Si Si5 0.000000 0.857369 0.250000
Si Si6 0.196399 0.843479 0.823878
Si Si7 0.235836 0.060069 0.232181
Si Si8 0.461550 0.781669 0.108208
O O1 0.507036 0.675719 0.901006
O O2 0.786767 0.583621 0.878549
O O3 0.791511 0.681620 0.923603
O O4 0.349198 0.624837 0.014865
O O5 0.064399 0.706478 0.116525
O O6 0.425680 0.777931 0.056294
O O7 0.250000 0.750000 0.000000
O O8 0.310110 0.629312 0.119992
O O9 0.911102 0.595972 0.156960
O O10 0.297248 0.399168 0.263297
O O11 0.102062 0.504342 0.281676
O O12 0.000000 0.411177 0.250000
O O13 0.192056 0.815380 0.178575
O O14 0.500000 0.827291 0.750000
O O15 0.142542 0.893166 0.793537
O O16 0.040037 0.781871 0.862981
O O17 0.000000 0.034375 0.250000
#
# Coordination Sequence:
#
# PCOD9263585 Si02
#       8
#     8   8   8   8   4   8   8   8
#     4  10  22  37  59  91 117 162 192 235 309 349
#     4   9  19  35  54  86 122 151 188 232 289 358
#     4   9  20  38  57  85 123 151 196 244 286 361
#     4  11  22  40  64  83 119 160 200 249 295 352
#     4  10  20  36  56  90 118 148 198 240 292 354
#     4   9  18  35  57  84 113 157 197 241 293 343
#     4  11  23  40  61  86 115 158 208 251 294 345
#     4  10  19  34  58  83 122 151 190 241 291 355
#
# _framework density 19.253871
#
# number of rings (size 3 to 8) (size 9 to 14) (size 15 to 20)
#    0.000    2.133    1.333    2.000    1.867    5.333 
#    2.400    0.000    0.000    1.600    0.000    0.000 
#    0.000    0.000    0.000    0.000    0.000    0.000 
#
# Total GULP energy -167104.507744 kJ/mol
# GULP energy per Si atom -5570.150258 kJ/mol
# Density = 1.921005 g / cm^3
# Si number density = 19.253871 Si / 1000 Ang^3
#
#
#
# Elastic Constant Matrix: (Units=GPa)
#
#
# Indices 1 2 3 4 5 6 
#
# 1 85.2888 31.8841 23.4216 0.0000 13.5312 0.0011
# 2 31.8841 76.2839 23.7985 0.0000 8.5129 0.0002
# 3 23.4216 23.7985 68.1000 -0.0002 15.3634 0.0001
# 4 0.0000 0.0000 -0.0002 14.7888 0.0001 -10.0734
# 5 13.5312 8.5129 15.3634 0.0001 19.5057 -0.0004
# 6 0.0011 0.0002 0.0001 -10.0734 -0.0004 1.2338
#
#
#
# Elastic Compliance Matrix: (Units=1/GPa)
#
#
# Indices 1 2 3 4 5 6 
#
# 1 0.015209 -0.004986 -0.001944 0.000002 -0.006842 0.000003
# 2 -0.004986 0.016483 -0.003895 0.000000 -0.000667 0.000000
# 3 -0.001944 -0.003895 0.019489 0.000000 -0.012302 0.000000
# 4 0.000002 0.000000 0.000000 -0.014825 -0.000004 -0.121036
# 5 -0.006842 -0.000667 -0.012302 -0.000004 0.065994 -0.000005
# 6 0.000003 0.000000 0.000000 -0.121036 -0.000005 -0.177694
#
#
# Mechanical properties :
#
#
# Convention : Reuss Voigt Hill
#
# Bulk Modulus (GPa) = 33.86453 43.09790 38.48121
# Shear Modulus (GPa) = -114.02248 17.14357 -48.43945
#
# Velocity S-wave (km/s) = -7.70384 2.98719 -5.02125
# Velocity P-wave (km/s) = 7.84255 5.85921 3.68614
#
# Compressibility (1/GPa) = 0.02952942
#
# Stress axis : x y z
#
# Youngs Moduli (GPa) = 65.75261 60.67032 51.31000
#
# Poissons Ratio (x) = 0.30253 0.09977
# Poissons Ratio (y) = 0.32787 0.19983
# Poissons Ratio (z) = 0.12785 0.23629
#
# Static dielectric constant tensor:
#      x y z
#    x 1.037510 0.000000 0.187780 
#    y 0.000000 1.700140 0.000000 
#    z 0.187780 0.000000 1.657110 
# 
# From -- ./inp_files/308924.got.cif
#   From: 2010.05.17/outbox.cif.g08.bks.cpg/sg15_155_cif.got.tgz:308924.got - 2010.06.03 18:47:42.
