data_PCOD9263172
_publ_section_title
;
Structure prediction by ZEFSAII (Michael W. Deem and Ramdas Pophale) SiO2 
 PCOD9263172
Probable space group: C 2/C
;
_chemical_formula_sum "Si O2"
_cell_formula_units_Z 36
_cell_length_a 7.439659
_cell_length_b 26.493785
_cell_length_c 10.467476
_cell_angle_alpha 90.000000
_cell_angle_beta 45.755674
_cell_angle_gamma 90.000000
_cell_volume 1478.008846
_symmetry_space_group_name_H-M "C 2/C"
_symmetry_group_IT_number 15
_symmetry_cell_setting 'monoclinic'
loop_
_space_group_symop_operation_xyz
x,y,z
-x,y,1/2-z
-x,-y,-z
x,-y,1/2+z
1/2+x,1/2+y,z
1/2-x,1/2+y,1/2-z
1/2-x,1/2-y,-z
1/2+x,1/2-y,1/2+z
loop_
_atom_site_type_symbol
_atom_site_label
_atom_site_fract_x
_atom_site_fract_y
_atom_site_fract_z
Si Si1 0.000000 0.265451 0.250000
Si Si2 0.500000 0.494550 0.250000
Si Si3 0.361177 0.086252 0.627406
Si Si4 0.602442 0.581200 0.029639
Si Si5 0.486348 0.309318 0.543991
Si Si6 0.000000 0.823969 0.250000
O O1 0.214473 0.300448 0.086664
O O2 0.118220 0.229829 0.301231
O O3 0.261688 0.458341 0.395138
O O4 0.538168 0.532272 0.349824
O O5 0.231412 0.075308 0.828646
O O6 0.657610 0.087460 0.495130
O O7 0.240683 0.139554 0.649345
O O8 0.440429 0.632422 0.100551
O O9 0.444659 0.298975 0.414737
#
# Coordination Sequence:
#
# PCOD9263172 Si02
#       6
#     4   4   8   8   8   4
#     4  10  21  36  57  80 106 136 181 220 271 328
#     4  11  19  30  52  80 104 138 186 222 247 305
#     4   9  19  33  51  76 107 143 175 215 263 314
#     4  10  19  34  53  73 108 144 177 214 268 319
#     4  10  20  36  56  79 105 142 177 222 270 318
#     4   9  18  34  57  78 106 140 181 218 266 317
#
# _framework density 24.357095000000001
#
# number of rings (size 3 to 8) (size 9 to 14) (size 15 to 20)
#    0.000    2.222    0.000    4.667    0.000    0.889 
#    0.000    0.000    0.000   18.667    0.000    0.000 
#    0.000    0.000    0.000    0.000    0.000    0.000 
#
# Total GULP energy -100535.117844 kJ/mol
# GULP energy per Si atom -5585.284325 kJ/mol
# Density = 2.430166 g / cm^3
# Si number density = 24.357095 Si / 1000 Ang^3
#
#
#
# Elastic Constant Matrix: (Units=GPa)
#
#
# Indices 1 2 3 4 5 6 
#
# 1 79.3506 17.4480 9.6299 0.0000 21.0635 0.0000
# 2 17.4480 91.5578 20.3038 0.0000 20.4148 0.0000
# 3 9.6299 20.3038 58.4812 0.0000 31.8997 0.0000
# 4 0.0000 0.0000 0.0000 26.2296 0.0000 10.6801
# 5 21.0635 20.4148 31.8997 0.0000 43.2244 0.0000
# 6 0.0000 0.0000 0.0000 10.6801 0.0000 17.1832
#
#
#
# Elastic Compliance Matrix: (Units=1/GPa)
#
#
# Indices 1 2 3 4 5 6 
#
# 1 0.014877 -0.001538 0.002749 0.000000 -0.008552 0.000000
# 2 -0.001538 0.012485 -0.002132 0.000000 -0.003574 0.000000
# 3 0.002749 -0.002132 0.029406 0.000000 -0.022035 0.000000
# 4 0.000000 0.000000 0.000000 0.051043 0.000000 -0.031725
# 5 -0.008552 -0.003574 -0.022035 0.000000 0.045252 0.000000
# 6 0.000000 0.000000 0.000000 -0.031725 0.000000 0.077915
#
#
# Mechanical properties :
#
#
# Convention : Reuss Voigt Hill
#
# Bulk Modulus (GPa) = 18.20604 36.01699 27.11152
# Shear Modulus (GPa) = 19.91017 29.46128 24.68573
#
# Velocity S-wave (km/s) = 2.86217 3.48164 3.18699
# Velocity P-wave (km/s) = 4.29110 5.56611 4.96967
#
# Compressibility (1/GPa) = 0.05492682
#
# Stress axis : x y z
#
# Youngs Moduli (GPa) = 67.21788 80.09779 34.00635
#
# Poissons Ratio (x) = 0.12318 -0.09349
# Poissons Ratio (y) = 0.10337 0.07250
# Poissons Ratio (z) = -0.18479 0.17076
#
# Static dielectric constant tensor:
#      x y z
#    x 1.984190 0.000000 0.066530 
#    y 0.000000 1.955270 0.000000 
#    z 0.066530 0.000000 1.944260 
# 
# From -- ./inp_files/22577.got.cif
#   From: 2010.05.17/outbox.cif.g08.bks.cpg/sg15_12_cif.got.tgz:22577.got - 2010.06.03 18:47:42.
