data_PCOD9263536
_publ_section_title
;
Structure prediction by ZEFSAII (Michael W. Deem and Ramdas Pophale) SiO2 
 PCOD9263536
Probable space group: C 2/C
;
_chemical_formula_sum "Si O2"
_cell_formula_units_Z 60
_cell_length_a 8.383295
_cell_length_b 20.167278
_cell_length_c 19.191195
_cell_angle_alpha 90.000000
_cell_angle_beta 104.557433
_cell_angle_gamma 90.000000
_cell_volume 3140.456813
_symmetry_space_group_name_H-M "C 2/C"
_symmetry_group_IT_number 15
_symmetry_cell_setting 'monoclinic'
loop_
_space_group_symop_operation_xyz
x,y,z
-x,y,1/2-z
-x,-y,-z
x,-y,1/2+z
1/2+x,1/2+y,z
1/2-x,1/2+y,1/2-z
1/2-x,1/2-y,-z
1/2+x,1/2-y,1/2+z
loop_
_atom_site_type_symbol
_atom_site_label
_atom_site_fract_x
_atom_site_fract_y
_atom_site_fract_z
Si Si1 0.025625 0.585332 0.079108
Si Si2 0.500000 0.605331 0.750000
Si Si3 0.524727 0.297093 0.380346
Si Si4 0.625808 0.174818 0.321489
Si Si5 0.829804 0.996653 0.138431
Si Si6 0.266023 0.790679 0.931188
Si Si7 0.156692 0.090097 0.991104
Si Si8 0.467441 0.621075 0.367218
O O1 0.143811 0.523127 0.106646
O O2 0.130187 0.641030 0.049376
O O3 0.972204 0.619680 0.145503
O O4 0.850705 0.575967 0.022938
O O5 0.530509 0.653817 0.687838
O O6 0.640878 0.555982 0.796273
O O7 0.653224 0.240197 0.370785
O O8 0.367777 0.256243 0.390489
O O9 0.610814 0.340575 0.449384
O O10 0.500000 0.198229 0.250000
O O11 0.795814 0.143824 0.315376
O O12 0.940174 0.061831 0.161303
O O13 0.893350 0.963348 0.073016
O O14 0.090225 0.816720 0.885824
O O15 0.250000 0.750000 0.000000
O O16 0.076022 0.095433 0.058784
#
# Coordination Sequence:
#
# PCOD9263536 Si02
#       8
#     8   4   8   8   8   8   8   8
#     4   9  21  34  56  86 110 153 193 241 287 325
#     4  10  22  38  60  76 116 162 198 228 286 362
#     4  10  20  37  59  85 113 156 189 231 299 350
#     4  10  21  36  59  79 116 149 195 236 280 360
#     4  10  21  37  57  82 116 153 197 235 280 340
#     4  10  19  34  57  88 123 137 184 249 294 344
#     4  10  19  35  60  84 116 150 193 236 286 347
#     4  10  21  35  58  90 109 152 188 245 295 328
#
# _framework density 19.105501
#
# number of rings (size 3 to 8) (size 9 to 14) (size 15 to 20)
#    0.000    2.133    2.000    0.800    3.733    1.600 
#    0.000    0.000    0.000    3.200    0.000    0.000 
#    0.000    0.000    0.000    0.000    0.000    0.000 
#
# Total GULP energy -167159.873303 kJ/mol
# GULP energy per Si atom -5571.995777 kJ/mol
# Density = 1.906202 g / cm^3
# Si number density = 19.105501 Si / 1000 Ang^3
#
#
#
# Elastic Constant Matrix: (Units=GPa)
#
#
# Indices 1 2 3 4 5 6 
#
# 1 74.6165 29.2061 10.8187 0.0000 14.6919 0.0000
# 2 29.2061 90.3461 22.1311 0.0000 7.5313 0.0000
# 3 10.8187 22.1311 52.7100 0.0000 6.8795 0.0000
# 4 0.0000 0.0000 0.0000 31.0048 0.0000 4.2031
# 5 14.6919 7.5313 6.8795 0.0000 15.3312 0.0000
# 6 0.0000 0.0000 0.0000 4.2031 0.0000 14.2076
#
#
#
# Elastic Compliance Matrix: (Units=1/GPa)
#
#
# Indices 1 2 3 4 5 6 
#
# 1 0.018198 -0.004664 0.000213 0.000000 -0.015243 0.000000
# 2 -0.004664 0.013765 -0.004804 0.000000 -0.000136 0.000000
# 3 0.000213 -0.004804 0.021949 0.000000 -0.007693 0.000000
# 4 0.000000 0.000000 0.000000 0.033601 0.000000 -0.009940
# 5 -0.015243 -0.000136 -0.007693 0.000000 0.083353 0.000000
# 6 0.000000 0.000000 0.000000 -0.009940 0.000000 0.073325
#
#
# Mechanical properties :
#
#
# Convention : Reuss Voigt Hill
#
# Bulk Modulus (GPa) = 28.24824 37.99828 33.12326
# Shear Modulus (GPa) = 18.21479 22.47651 20.34565
#
# Velocity S-wave (km/s) = 3.09103 3.43365 3.26684
# Velocity P-wave (km/s) = 5.24946 5.97091 5.62177
#
# Compressibility (1/GPa) = 0.03540043
#
# Stress axis : x y z
#
# Youngs Moduli (GPa) = 54.95084 72.65043 45.55963
#
# Poissons Ratio (x) = 0.33886 -0.00969
# Poissons Ratio (y) = 0.25631 0.21887
# Poissons Ratio (z) = -0.01169 0.34902
#
# Static dielectric constant tensor:
#      x y z
#    x 1.663220 0.000000 -0.002600 
#    y 0.000000 1.669600 0.000000 
#    z -0.002600 0.000000 1.717590 
# 
# From -- ./inp_files/233555.got.cif
#   From: 2010.05.17/outbox.cif.g08.bks.cpg/sg15_117_cif.got.tgz:233555.got - 2010.06.03 18:47:42.
