data_PCOD9263469
_publ_section_title
;
Structure prediction by ZEFSAII (Michael W. Deem and Ramdas Pophale) SiO2 
 PCOD9263469
Probable space group: C 2/C
;
_chemical_formula_sum "Si O2"
_cell_formula_units_Z 60
_cell_length_a 14.078779
_cell_length_b 11.242500
_cell_length_c 23.102069
_cell_angle_alpha 90.000000
_cell_angle_beta 123.830864
_cell_angle_gamma 90.000000
_cell_volume 3037.490776
_symmetry_space_group_name_H-M "C 2/C"
_symmetry_group_IT_number 15
_symmetry_cell_setting 'monoclinic'
loop_
_space_group_symop_operation_xyz
x,y,z
-x,y,1/2-z
-x,-y,-z
x,-y,1/2+z
1/2+x,1/2+y,z
1/2-x,1/2+y,1/2-z
1/2-x,1/2-y,-z
1/2+x,1/2-y,1/2+z
loop_
_atom_site_type_symbol
_atom_site_label
_atom_site_fract_x
_atom_site_fract_y
_atom_site_fract_z
Si Si1 0.756969 0.978384 0.350135
Si Si2 0.713697 0.552267 0.771919
Si Si3 0.000000 0.559111 0.250000
Si Si4 0.834597 0.252837 0.911125
Si Si5 0.615220 0.680210 0.262575
Si Si6 0.453478 0.095841 0.359807
Si Si7 0.835347 0.239738 0.354126
Si Si8 0.961581 0.593605 0.536161
O O1 0.795024 0.929356 0.299634
O O2 0.818831 0.887848 0.414808
O O3 0.618378 0.986219 0.301027
O O4 0.802151 0.113371 0.369228
O O5 0.617606 0.462524 0.759612
O O6 0.833494 0.477955 0.819092
O O7 0.728826 0.670011 0.814252
O O8 0.022017 0.630105 0.197834
O O9 0.716800 0.284515 0.839487
O O10 0.932415 0.298258 0.898562
O O11 0.856124 0.331900 0.975302
O O12 0.500000 0.727286 0.250000
O O13 0.634010 0.722094 0.203308
O O14 0.544929 0.995994 0.411629
O O15 0.939700 0.308796 0.419188
O O16 0.000000 0.500000 0.500000
#
# Coordination Sequence:
#
# PCOD9263469 Si02
#       8
#     8   8   4   8   8   8   8   8
#     4  10  20  31  53  82 114 152 186 233 284 336
#     4   8  16  33  51  73 109 146 183 226 279 328
#     4  10  20  34  54  86 118 146 190 240 284 328
#     4  10  19  34  57  81 114 151 190 231 286 341
#     4  10  20  33  55  85 114 144 187 242 282 326
#     4   8  17  34  56  81 105 148 192 232 279 338
#     4  10  19  37  57  79 115 150 193 234 281 345
#     4   9  19  37  61  81 106 155 196 231 282 354
#
# _framework density 19.753146000000001
#
# number of rings (size 3 to 8) (size 9 to 14) (size 15 to 20)
#    0.000    2.667    1.333    1.600    0.933    0.533 
#    1.200    2.667    0.000    3.200    0.000    0.000 
#    0.000    0.000    0.000    0.000    0.000    0.000 
#
# Total GULP energy -167018.690542 kJ/mol
# GULP energy per Si atom -5567.289685 kJ/mol
# Density = 1.970819 g / cm^3
# Si number density = 19.753146 Si / 1000 Ang^3
#
#
#
# Elastic Constant Matrix: (Units=GPa)
#
#
# Indices 1 2 3 4 5 6 
#
# 1 47.4615 16.1829 15.0530 0.0000 4.3649 0.0000
# 2 16.1829 107.5166 33.2154 0.0000 13.5164 0.0000
# 3 15.0530 33.2154 81.1100 0.0000 7.7153 0.0000
# 4 0.0000 0.0000 0.0000 18.8219 0.0000 13.3045
# 5 4.3649 13.5164 7.7153 0.0000 15.7164 0.0000
# 6 0.0000 0.0000 0.0000 13.3045 0.0000 5.8171
#
#
#
# Elastic Compliance Matrix: (Units=1/GPa)
#
#
# Indices 1 2 3 4 5 6 
#
# 1 0.023064 -0.002124 -0.003121 0.000000 -0.003047 0.000000
# 2 -0.002124 0.011722 -0.003675 0.000000 -0.007687 0.000000
# 3 -0.003121 -0.003675 0.014717 0.000000 -0.003198 0.000000
# 4 0.000000 0.000000 0.000000 -0.086154 0.000000 0.197046
# 5 -0.003047 -0.007687 -0.003198 0.000000 0.072655 0.000000
# 6 0.000000 0.000000 0.000000 0.197046 0.000000 -0.278761
#
#
# Mechanical properties :
#
#
# Convention : Reuss Voigt Hill
#
# Bulk Modulus (GPa) = 31.58206 40.55454 36.06830
# Shear Modulus (GPa) = -23.32493 19.51354 -1.90570
#
# Velocity S-wave (km/s) = -3.44004 3.14645 -0.98329
# Velocity P-wave (km/s) = 0.49459 5.81166 4.12432
#
# Compressibility (1/GPa) = 0.03166355
#
# Stress axis : x y z
#
# Youngs Moduli (GPa) = 43.35764 85.30687 67.94788
#
# Poissons Ratio (x) = 0.18123 0.21204
# Poissons Ratio (y) = 0.09211 0.24970
# Poissons Ratio (z) = 0.13530 0.31350
#
# Static dielectric constant tensor:
#      x y z
#    x 1.722320 0.000000 0.000000 
#    y 0.000000 1.786060 0.000000 
#    z 0.000000 0.000000 1.729350 
# 
# From -- ./inp_files/273855.got.cif
#   From: 2010.05.17/outbox.cif.g08.bks.cpg/sg15_137_cif.got.tgz:273855.got - 2010.06.03 18:47:42.
