data_PCOD9263530
_publ_section_title
;
Structure prediction by ZEFSAII (Michael W. Deem and Ramdas Pophale) SiO2 
 PCOD9263530
Probable space group: C 2/C
;
_chemical_formula_sum "Si O2"
_cell_formula_units_Z 60
_cell_length_a 19.701907
_cell_length_b 21.491326
_cell_length_c 12.305325
_cell_angle_alpha 90.000000
_cell_angle_beta 140.911226
_cell_angle_gamma 90.000000
_cell_volume 3285.231746
_symmetry_space_group_name_H-M "C 2/C"
_symmetry_group_IT_number 15
_symmetry_cell_setting 'monoclinic'
loop_
_space_group_symop_operation_xyz
x,y,z
-x,y,1/2-z
-x,-y,-z
x,-y,1/2+z
1/2+x,1/2+y,z
1/2-x,1/2+y,1/2-z
1/2-x,1/2-y,-z
1/2+x,1/2-y,1/2+z
loop_
_atom_site_type_symbol
_atom_site_label
_atom_site_fract_x
_atom_site_fract_y
_atom_site_fract_z
Si Si1 0.098647 0.096771 0.297582
Si Si2 0.321651 0.720015 0.184865
Si Si3 0.000000 0.643063 0.250000
Si Si4 0.682427 0.126282 0.157528
Si Si5 0.713261 0.059293 0.808621
Si Si6 0.949384 0.332534 0.450560
Si Si7 0.309793 0.063447 0.112691
Si Si8 0.790901 0.009251 0.202496
O O1 0.097561 0.168226 0.261943
O O2 0.209057 0.087770 0.503399
O O3 0.108774 0.052082 0.205812
O O4 0.000000 0.079655 0.250000
O O5 0.246572 0.680942 0.175614
O O6 0.389879 0.774251 0.324503
O O7 0.250000 0.750000 0.000000
O O8 0.027644 0.679803 0.393822
O O9 0.098467 0.599354 0.337313
O O10 0.728070 0.106778 0.333981
O O11 0.697837 0.062489 0.106638
O O12 0.560309 0.147836 0.028545
O O13 0.631449 0.109190 0.660012
O O14 0.650408 0.000230 0.780611
O O15 0.788761 0.030857 0.808413
O O16 0.227793 0.037399 0.921267
#
# Coordination Sequence:
#
# PCOD9263530 Si02
#       8
#     8   8   4   8   8   8   8   8
#     4  10  22  38  56  83 111 150 197 237 285 331
#     4  11  23  40  56  78 112 155 196 244 275 331
#     4  10  20  34  56  88 116 154 184 230 288 350
#     4   9  22  36  54  89 114 148 189 235 286 337
#     4  10  19  34  57  88 115 152 184 230 294 346
#     4  11  22  36  59  85 119 150 197 231 287 344
#     4   9  18  32  54  82 121 144 178 228 287 345
#     4   9  18  36  59  86 119 146 182 234 291 349
#
# _framework density 18.263551
#
# number of rings (size 3 to 8) (size 9 to 14) (size 15 to 20)
#    0.000    2.133    2.667    0.000    3.733    2.133 
#    0.000    2.667    2.933    0.000    3.467    0.000 
#    0.000    0.000    0.000    0.000    0.000    0.000 
#
# Total GULP energy -167105.470723 kJ/mol
# GULP energy per Si atom -5570.182357 kJ/mol
# Density = 1.822198 g / cm^3
# Si number density = 18.263551 Si / 1000 Ang^3
#
#
#
# Elastic Constant Matrix: (Units=GPa)
#
#
# Indices 1 2 3 4 5 6 
#
# 1 102.8122 31.1076 15.6656 0.0000 -6.7641 0.0000
# 2 31.1076 84.4119 20.6193 0.0000 -12.8262 0.0000
# 3 15.6656 20.6193 43.1052 0.0000 -12.9556 0.0000
# 4 0.0000 0.0000 0.0000 15.7800 0.0000 -11.7882
# 5 -6.7641 -12.8262 -12.9556 0.0000 25.0021 0.0000
# 6 0.0000 0.0000 0.0000 -11.7882 0.0000 24.8619
#
#
#
# Elastic Compliance Matrix: (Units=1/GPa)
#
#
# Indices 1 2 3 4 5 6 
#
# 1 0.011156 -0.003536 -0.002370 0.000000 -0.000024 0.000000
# 2 -0.003536 0.014920 -0.004547 0.000000 0.004341 0.000000
# 3 -0.002370 -0.004547 0.030017 0.000000 0.012580 0.000000
# 4 0.000000 0.000000 0.000000 0.098129 0.000000 0.046528
# 5 -0.000024 0.004341 0.012580 0.000000 0.048736 0.000000
# 6 0.000000 0.000000 0.000000 0.046528 0.000000 0.062283
#
#
# Mechanical properties :
#
#
# Convention : Reuss Voigt Hill
#
# Bulk Modulus (GPa) = 28.42030 40.56826 34.49428
# Shear Modulus (GPa) = 16.78552 23.99128 20.38840
#
# Velocity S-wave (km/s) = 3.03491 3.62831 3.34480
# Velocity P-wave (km/s) = 5.27976 6.30982 5.81763
#
# Compressibility (1/GPa) = 0.03518611
#
# Stress axis : x y z
#
# Youngs Moduli (GPa) = 89.63885 67.02374 33.31491
#
# Poissons Ratio (x) = 0.23699 0.07896
# Poissons Ratio (y) = 0.31695 0.15149
# Poissons Ratio (z) = 0.21246 0.30477
#
# Static dielectric constant tensor:
#      x y z
#    x 1.652800 0.000000 -0.026400 
#    y 0.000000 1.628200 0.000000 
#    z -0.026400 0.000000 1.628800 
# 
# From -- ./inp_files/107648.got.cif
#   From: 2010.05.17/outbox.cif.g08.bks.cpg/sg15_54_cif.got.tgz:107648.got - 2010.06.03 18:47:42.
