data_PCOD9263938
_publ_section_title
;
Structure prediction by ZEFSAII (Michael W. Deem and Ramdas Pophale) SiO2 
 PCOD9263938
Probable space group: C 2/C
;
_chemical_formula_sum "Si O2"
_cell_formula_units_Z 52
_cell_length_a 10.570876
_cell_length_b 13.319836
_cell_length_c 15.786266
_cell_angle_alpha 90.000000
_cell_angle_beta 87.793132
_cell_angle_gamma 90.000000
_cell_volume 2221.094518
_symmetry_space_group_name_H-M "C 2/C"
_symmetry_group_IT_number 15
_symmetry_cell_setting 'monoclinic'
loop_
_space_group_symop_operation_xyz
x,y,z
-x,y,1/2-z
-x,-y,-z
x,-y,1/2+z
1/2+x,1/2+y,z
1/2-x,1/2+y,1/2-z
1/2-x,1/2-y,-z
1/2+x,1/2-y,1/2+z
loop_
_atom_site_type_symbol
_atom_site_label
_atom_site_fract_x
_atom_site_fract_y
_atom_site_fract_z
Si Si1 0.370122 0.621396 0.969352
Si Si2 0.346041 0.866178 0.138089
Si Si3 0.484874 0.559366 0.377363
Si Si4 0.289059 0.426305 0.190470
Si Si5 0.000000 0.213319 0.250000
Si Si6 0.050019 0.751024 0.345633
Si Si7 0.534720 0.025705 0.149705
O O1 0.234196 0.658921 0.942521
O O2 0.389518 0.505826 0.936368
O O3 0.465839 0.687693 0.912921
O O4 0.420272 0.619332 0.062743
O O5 0.252088 0.917462 0.210256
O O6 0.412399 0.781451 0.193285
O O7 0.453567 0.942086 0.105235
O O8 0.579414 0.483875 0.326262
O O9 0.424923 0.638525 0.314524
O O10 0.316197 0.311672 0.158305
O O11 0.181384 0.491070 0.144343
O O12 0.020801 0.635248 0.368927
O O13 0.000000 0.761411 0.250000
O O14 0.500000 0.011913 0.250000
#
# Coordination Sequence:
#
# PCOD9263938 Si02
#       7
#     8   8   8   8   4   8   8
#     4  10  22  43  62  95 129 163 217 281 320 405
#     4  11  21  39  62  91 132 158 219 276 324 397
#     4  10  24  41  66  93 128 168 219 270 336 387
#     4  10  19  38  60  91 123 166 217 265 316 409
#     4  12  24  38  62  96 120 174 210 264 334 396
#     4  10  19  34  64  91 118 173 215 262 337 393
#     4   9  20  37  55  92 126 163 215 273 324 388
#
# _framework density 23.411881000000001
#
# number of rings (size 3 to 8) (size 9 to 14) (size 15 to 20)
#    0.000    1.846    3.846    0.923    4.308    3.077 
#    0.000    2.308    0.000    5.538    0.000    0.000 
#    0.000    0.000    0.000    0.000    0.000    0.000 
#
# Total GULP energy -145061.944337 kJ/mol
# GULP energy per Si atom -5579.305551 kJ/mol
# Density = 2.335859 g / cm^3
# Si number density = 23.411881 Si / 1000 Ang^3
#
#
#
# Elastic Constant Matrix: (Units=GPa)
#
#
# Indices 1 2 3 4 5 6 
#
# 1 73.5008 41.5751 6.6203 0.0000 10.9782 0.0000
# 2 41.5751 132.3477 46.1312 0.0000 18.3681 0.0000
# 3 6.6203 46.1312 59.8171 0.0000 23.6340 0.0000
# 4 0.0000 0.0000 0.0000 41.2654 0.0000 4.4546
# 5 10.9782 18.3681 23.6340 0.0000 28.1086 0.0000
# 6 0.0000 0.0000 0.0000 4.4546 0.0000 21.1518
#
#
#
# Elastic Compliance Matrix: (Units=1/GPa)
#
#
# Indices 1 2 3 4 5 6 
#
# 1 0.018068 -0.006798 0.006403 0.000000 -0.007998 0.000000
# 2 -0.006798 0.012891 -0.010348 0.000000 0.002931 0.000000
# 3 0.006403 -0.010348 0.033402 0.000000 -0.023824 0.000000
# 4 0.000000 0.000000 0.000000 0.024797 0.000000 -0.005222
# 5 -0.007998 0.002931 -0.023824 0.000000 0.056816 0.000000
# 6 0.000000 0.000000 0.000000 -0.005222 0.000000 0.048377
#
#
# Mechanical properties :
#
#
# Convention : Reuss Voigt Hill
#
# Bulk Modulus (GPa) = 23.32274 50.47986 36.90130
# Shear Modulus (GPa) = 21.72704 29.52776 25.62740
#
# Velocity S-wave (km/s) = 3.04967 3.55523 3.31211
# Velocity P-wave (km/s) = 4.73120 6.20172 5.51569
#
# Compressibility (1/GPa) = 0.04287661
#
# Stress axis : x y z
#
# Youngs Moduli (GPa) = 55.34577 77.57275 29.93847
#
# Poissons Ratio (x) = 0.52731 -0.19169
# Poissons Ratio (y) = 0.37622 0.30979
# Poissons Ratio (z) = -0.35437 0.80268
#
# Static dielectric constant tensor:
#      x y z
#    x 1.928740 0.000000 0.017410 
#    y 0.000000 1.983170 0.000000 
#    z 0.017410 0.000000 1.857500 
# 
# From -- ./inp_files/197314.got.cif
#   From: 2010.05.17/outbox.cif.g08.bks.cpg/sg15_99_cif.got.tgz:197314.got - 2010.06.03 18:47:42.
