data_PCOD9263919
_publ_section_title
;
Structure prediction by ZEFSAII (Michael W. Deem and Ramdas Pophale) SiO2 
 PCOD9263919
Probable space group: C 2/C
;
_chemical_formula_sum "Si O2"
_cell_formula_units_Z 56
_cell_length_a 18.498947
_cell_length_b 8.719131
_cell_length_c 31.087469
_cell_angle_alpha 90.000000
_cell_angle_beta 36.897651
_cell_angle_gamma 90.000000
_cell_volume 3010.489897
_symmetry_space_group_name_H-M "C 2/C"
_symmetry_group_IT_number 15
_symmetry_cell_setting 'monoclinic'
loop_
_space_group_symop_operation_xyz
x,y,z
-x,y,1/2-z
-x,-y,-z
x,-y,1/2+z
1/2+x,1/2+y,z
1/2-x,1/2+y,1/2-z
1/2-x,1/2-y,-z
1/2+x,1/2-y,1/2+z
loop_
_atom_site_type_symbol
_atom_site_label
_atom_site_fract_x
_atom_site_fract_y
_atom_site_fract_z
Si Si1 0.374026 0.886408 0.981618
Si Si2 0.725794 0.537252 0.472828
Si Si3 0.495040 0.598051 0.046733
Si Si4 0.234084 0.061888 0.805646
Si Si5 0.859451 0.406160 0.823357
Si Si6 0.156042 0.408425 0.830816
Si Si7 0.670553 0.132941 0.900847
O O1 0.288689 0.975279 0.988920
O O2 0.511574 0.900309 0.901930
O O3 0.338050 0.705466 0.997485
O O4 0.355162 0.934463 0.039900
O O5 0.623438 0.416053 0.508542
O O6 0.824711 0.542011 0.387916
O O7 0.393899 0.520432 0.124779
O O8 0.444812 0.764630 0.058380
O O9 0.500000 0.500000 0.000000
O O10 0.209846 0.239173 0.808931
O O11 0.311190 0.028899 0.811775
O O12 0.299706 0.986326 0.733948
O O13 0.780758 0.253149 0.852048
O O14 0.000000 0.379668 0.750000
O O15 0.195690 0.508874 0.852766
#
# Coordination Sequence:
#
# PCOD9263919 Si02
#       7
#     8   8   8   8   8   8   8
#     4  10  20  36  60  94 117 159 203 257 299 367
#     4  10  19  34  63  90 123 158 207 246 311 363
#     4  11  17  38  61  91 116 158 204 247 299 374
#     4  11  22  36  62  86 118 159 200 255 306 363
#     4  10  20  38  62  89 123 163 201 249 309 373
#     4  12  23  40  59  90 122 158 210 258 305 368
#     4  10  22  38  63  89 123 164 210 249 310 363
#
# _framework density 18.601624000000001
#
# number of rings (size 3 to 8) (size 9 to 14) (size 15 to 20)
#    0.000    1.429    5.714    3.000    0.000    0.000 
#    2.571    1.429    3.143    0.000    0.000    0.000 
#    0.000    0.000    0.000    0.000    0.000    0.000 
#
# Total GULP energy -156442.966345 kJ/mol
# GULP energy per Si atom -5587.248798 kJ/mol
# Density = 1.855929 g / cm^3
# Si number density = 18.601624 Si / 1000 Ang^3
#
#
#
# Elastic Constant Matrix: (Units=GPa)
#
#
# Indices 1 2 3 4 5 6 
#
# 1 94.2581 34.1468 31.7248 0.0005 1.4713 0.0026
# 2 34.1468 44.0214 17.7966 0.0004 10.0579 0.0015
# 3 31.7248 17.7966 102.1548 -0.0002 1.8023 0.0011
# 4 0.0005 0.0004 -0.0002 28.0051 -0.0001 2.6709
# 5 1.4713 10.0579 1.8023 -0.0001 44.0107 0.0004
# 6 0.0026 0.0015 0.0011 2.6709 0.0004 12.8725
#
#
#
# Elastic Compliance Matrix: (Units=1/GPa)
#
#
# Indices 1 2 3 4 5 6 
#
# 1 0.015735 -0.011536 -0.002916 0.000000 0.002230 -0.000002
# 2 -0.011536 0.034256 -0.002256 0.000000 -0.007351 -0.000001
# 3 -0.002916 -0.002256 0.011085 0.000000 0.000159 0.000000
# 4 0.000000 0.000000 0.000000 0.036429 0.000000 -0.007559
# 5 0.002230 -0.007351 0.000159 0.000000 0.024321 0.000000
# 6 -0.000002 -0.000001 0.000000 -0.007559 0.000000 0.079253
#
#
# Mechanical properties :
#
#
# Convention : Reuss Voigt Hill
#
# Bulk Modulus (GPa) = 36.15296 45.30784 40.73040
# Shear Modulus (GPa) = 20.51590 27.42874 23.97232
#
# Velocity S-wave (km/s) = 3.32461 3.84413 3.59377
# Velocity P-wave (km/s) = 5.84935 6.64176 6.25811
#
# Compressibility (1/GPa) = 0.02766025
#
# Stress axis : x y z
#
# Youngs Moduli (GPa) = 63.55264 29.19217 90.21316
#
# Poissons Ratio (x) = 0.33676 0.26308
# Poissons Ratio (y) = 0.73314 0.20348
# Poissons Ratio (z) = 0.18533 0.06584
#
# Static dielectric constant tensor:
#      x y z
#    x 1.643490 0.000000 0.000700 
#    y 0.000000 1.633030 0.000000 
#    z 0.000700 0.000000 1.619980 
# 
# From -- ./inp_files/298500.got.cif
#   From: 2010.05.17/outbox.cif.g08.bks.cpg/sg15_150_cif.got.tgz:298500.got - 2010.06.03 18:47:42.
