data_PCOD9263017
_publ_section_title
;
Structure prediction by ZEFSAII (Michael W. Deem and Ramdas Pophale) SiO2 
 PCOD9263017
Probable space group: C 2/C
;
_chemical_formula_sum "Si O2"
_cell_formula_units_Z 64
_cell_length_a 17.519360
_cell_length_b 13.370412
_cell_length_c 20.906858
_cell_angle_alpha 90.000000
_cell_angle_beta 39.796491
_cell_angle_gamma 90.000000
_cell_volume 3134.543338
_symmetry_space_group_name_H-M "C 2/C"
_symmetry_group_IT_number 15
_symmetry_cell_setting 'monoclinic'
loop_
_space_group_symop_operation_xyz
x,y,z
-x,y,1/2-z
-x,-y,-z
x,-y,1/2+z
1/2+x,1/2+y,z
1/2-x,1/2+y,1/2-z
1/2-x,1/2-y,-z
1/2+x,1/2-y,1/2+z
loop_
_atom_site_type_symbol
_atom_site_label
_atom_site_fract_x
_atom_site_fract_y
_atom_site_fract_z
Si Si1 0.027735 0.205690 0.577594
Si Si2 0.358052 0.855517 0.359056
Si Si3 0.958820 0.383467 0.028412
Si Si4 0.799494 0.041684 0.023580
Si Si5 0.875670 0.027875 0.338605
Si Si6 0.187940 0.847390 0.208974
Si Si7 0.177971 0.320607 0.966125
Si Si8 0.880343 0.701586 0.355717
O O1 0.038572 0.313381 0.536835
O O2 0.891061 0.176637 0.678288
O O3 0.104113 0.111521 0.501604
O O4 0.078583 0.221801 0.616743
O O5 0.500000 0.856246 0.250000
O O6 0.268078 0.769563 0.391641
O O7 0.349100 0.834081 0.441172
O O8 0.285085 0.957858 0.390154
O O9 0.052037 0.324272 0.012679
O O10 0.000000 0.500000 0.000000
O O11 0.821972 0.377989 0.138624
O O12 0.864059 0.993331 0.921326
O O13 0.703064 0.120334 0.059234
O O14 0.756534 0.084318 0.395959
O O15 0.000000 0.085555 0.250000
O O16 0.877215 0.932154 0.291661
O O17 0.185931 0.753935 0.160912
O O18 0.000000 0.654553 0.250000
#
# Coordination Sequence:
#
# PCOD9263017 Si02
#       8
#     8   8   8   8   8   8   8   8
#     4  11  22  36  61  94 130 166 211 272 327 383
#     4  10  23  44  68  94 125 163 220 276 321 383
#     4  12  25  42  62  91 136 178 213 258 328 403
#     4  11  19  33  60  94 123 159 202 269 325 370
#     4  11  18  33  63  93 121 158 216 270 313 372
#     4  11  20  37  60  96 125 164 214 268 325 379
#     4  10  24  42  64  91 125 173 217 264 316 384
#     4  10  19  33  59  92 124 153 202 264 319 372
#
# _framework density 20.417648
#
# number of rings (size 3 to 8) (size 9 to 14) (size 15 to 20)
#    0.000    1.250    5.000    2.250    1.750    1.000 
#    0.000    1.875    0.000    0.000    0.000    0.000 
#    0.000    0.000    0.000    0.000    0.000    0.000 
#
# Total GULP energy -178231.786390 kJ/mol
# GULP energy per Si atom -5569.743325 kJ/mol
# Density = 2.037118 g / cm^3
# Si number density = 20.417648 Si / 1000 Ang^3
#
#
#
# Elastic Constant Matrix: (Units=GPa)
#
#
# Indices 1 2 3 4 5 6 
#
# 1 53.0489 16.2905 25.1100 0.0000 -24.7463 0.0000
# 2 16.2905 88.3676 56.4713 0.0000 -14.3664 0.0000
# 3 25.1100 56.4713 151.0962 0.0000 -29.6405 0.0000
# 4 0.0000 0.0000 0.0000 27.2181 0.0000 -8.6861
# 5 -24.7463 -14.3664 -29.6405 0.0000 26.3692 0.0000
# 6 0.0000 0.0000 0.0000 -8.6861 0.0000 23.2316
#
#
#
# Elastic Compliance Matrix: (Units=1/GPa)
#
#
# Indices 1 2 3 4 5 6 
#
# 1 0.033836 -0.001894 0.001426 0.000000 0.032325 0.000000
# 2 -0.001894 0.015090 -0.005210 0.000000 0.000588 0.000000
# 3 0.001426 -0.005210 0.010307 0.000000 0.010085 0.000000
# 4 0.000000 0.000000 0.000000 0.041718 0.000000 0.015598
# 5 0.032325 0.000588 0.010085 0.000000 0.079915 0.000000
# 6 0.000000 0.000000 0.000000 0.015598 0.000000 0.048877
#
#
# Mechanical properties :
#
#
# Convention : Reuss Voigt Hill
#
# Bulk Modulus (GPa) = 20.88643 54.25068 37.56856
# Shear Modulus (GPa) = 19.45086 28.33985 23.89535
#
# Velocity S-wave (km/s) = 3.08985 3.72964 3.42472
# Velocity P-wave (km/s) = 4.79389 6.72124 5.83766
#
# Compressibility (1/GPa) = 0.04787797
#
# Stress axis : x y z
#
# Youngs Moduli (GPa) = 29.55434 66.26705 97.02202
#
# Poissons Ratio (x) = 0.12548 -0.13833
# Poissons Ratio (y) = 0.05596 0.50547
# Poissons Ratio (z) = -0.04214 0.34524
#
# Static dielectric constant tensor:
#      x y z
#    x 1.714610 0.000000 -0.005670 
#    y 0.000000 1.789050 0.000000 
#    z -0.005670 0.000000 1.771760 
# 
# From -- ./inp_files/300833.got.cif
#   From: 2010.05.17/outbox.cif.g08.bks.cpg/sg15_151_cif.got.tgz:300833.got - 2010.06.03 18:47:42.
