data_PCOD9263569
_publ_section_title
;
Structure prediction by ZEFSAII (Michael W. Deem and Ramdas Pophale) SiO2 
 PCOD9263569
Probable space group: C 2/C
;
_chemical_formula_sum "Si O2"
_cell_formula_units_Z 48
_cell_length_a 11.943617
_cell_length_b 22.382430
_cell_length_c 12.294198
_cell_angle_alpha 90.000000
_cell_angle_beta 141.336154
_cell_angle_gamma 90.000000
_cell_volume 2053.286840
_symmetry_space_group_name_H-M "C 2/C"
_symmetry_group_IT_number 15
_symmetry_cell_setting 'monoclinic'
loop_
_space_group_symop_operation_xyz
x,y,z
-x,y,1/2-z
-x,-y,-z
x,-y,1/2+z
1/2+x,1/2+y,z
1/2-x,1/2+y,1/2-z
1/2-x,1/2-y,-z
1/2+x,1/2-y,1/2+z
loop_
_atom_site_type_symbol
_atom_site_label
_atom_site_fract_x
_atom_site_fract_y
_atom_site_fract_z
Si Si1 0.046718 0.048811 0.628788
Si Si2 0.685354 0.107015 0.336811
Si Si3 0.173631 0.462478 0.601844
Si Si4 0.807195 0.832113 0.353140
Si Si5 0.793743 0.215712 0.307199
Si Si6 0.782606 0.851023 0.576177
O O1 0.173472 0.100444 0.673768
O O2 0.867660 0.083443 0.531362
O O3 0.166455 0.008622 0.798289
O O4 0.000000 0.000000 0.500000
O O5 0.500000 0.087554 0.250000
O O6 0.706406 0.077462 0.234089
O O7 0.680816 0.177883 0.308762
O O8 0.175771 0.412732 0.511035
O O9 0.000000 0.500000 0.500000
O O10 0.713637 0.786919 0.199449
O O11 0.733859 0.828357 0.419875
O O12 0.008033 0.807154 0.517856
O O13 0.744894 0.193847 0.147324
O O14 0.000000 0.862844 0.750000
#
# Coordination Sequence:
#
# PCOD9263569 Si02
#       6
#     8   8   8   8   8   8
#     4   9  19  37  55  76 110 150 188 229 279 336
#     4   9  19  37  57  75 107 152 187 227 282 339
#     4  10  21  34  53  84 113 141 188 240 277 331
#     4  10  19  34  58  81 110 149 181 232 293 341
#     4   9  19  34  53  80 110 140 185 233 282 341
#     4   9  18  34  54  78 109 146 180 227 288 338
#
# _framework density 23.377153
#
# number of rings (size 3 to 8) (size 9 to 14) (size 15 to 20)
#    0.000    2.667    0.000    3.500    0.000    6.667 
#    0.000    5.000    0.000    3.000    0.000    0.000 
#    0.000    0.000    0.000    0.000    0.000    0.000 
#
# Total GULP energy -133969.872343 kJ/mol
# GULP energy per Si atom -5582.078014 kJ/mol
# Density = 2.332395 g / cm^3
# Si number density = 23.377153 Si / 1000 Ang^3
#
#
#
# Elastic Constant Matrix: (Units=GPa)
#
#
# Indices 1 2 3 4 5 6 
#
# 1 74.5810 17.7213 11.8253 0.0000 20.4060 0.0000
# 2 17.7213 140.0134 13.9049 0.0000 3.1540 0.0000
# 3 11.8253 13.9049 23.4310 0.0000 14.5028 0.0000
# 4 0.0000 0.0000 0.0000 26.5898 0.0000 -1.0972
# 5 20.4060 3.1540 14.5028 0.0000 26.4565 0.0000
# 6 0.0000 0.0000 0.0000 -1.0972 0.0000 32.5034
#
#
#
# Elastic Compliance Matrix: (Units=1/GPa)
#
#
# Indices 1 2 3 4 5 6 
#
# 1 0.017503 -0.001990 0.000842 0.000000 -0.013724 0.000000
# 2 -0.001990 0.007915 -0.006143 0.000000 0.003959 0.000000
# 3 0.000842 -0.006143 0.069392 0.000000 -0.037956 0.000000
# 4 0.000000 0.000000 0.000000 0.037661 0.000000 0.001271
# 5 -0.013724 0.003959 -0.037956 0.000000 0.068718 0.000000
# 6 0.000000 0.000000 0.000000 0.001271 0.000000 0.030809
#
#
# Mechanical properties :
#
#
# Convention : Reuss Voigt Hill
#
# Bulk Modulus (GPa) = 12.46438 36.10317 24.28378
# Shear Modulus (GPa) = 18.29347 30.08155 24.18751
#
# Velocity S-wave (km/s) = 2.80042 3.59108 3.22011
# Velocity P-wave (km/s) = 3.97491 5.71592 4.92299
#
# Compressibility (1/GPa) = 0.08022860
#
# Stress axis : x y z
#
# Youngs Moduli (GPa) = 57.13454 126.34382 14.41084
#
# Poissons Ratio (x) = 0.25139 -0.01214
# Poissons Ratio (y) = 0.11368 0.08853
# Poissons Ratio (z) = -0.04812 0.77613
#
# Static dielectric constant tensor:
#      x y z
#    x 1.834660 0.000000 -0.044500 
#    y 0.000000 1.955320 0.000000 
#    z -0.044500 0.000000 1.866000 
# 
# From -- ./inp_files/32630.got.cif
#   From: 2010.05.17/outbox.cif.g08.bks.cpg/sg15_17_cif.got.tgz:32630.got - 2010.06.03 18:47:42.
