data_PCOD9263812
_publ_section_title
;
Structure prediction by ZEFSAII (Michael W. Deem and Ramdas Pophale) SiO2 
 PCOD9263812
Probable space group: C 2/C
;
_chemical_formula_sum "Si O2"
_cell_formula_units_Z 64
_cell_length_a 25.505418
_cell_length_b 12.040163
_cell_length_c 14.177155
_cell_angle_alpha 90.000000
_cell_angle_beta 42.049588
_cell_angle_gamma 90.000000
_cell_volume 2915.962121
_symmetry_space_group_name_H-M "C 2/C"
_symmetry_group_IT_number 15
_symmetry_cell_setting 'monoclinic'
loop_
_space_group_symop_operation_xyz
x,y,z
-x,y,1/2-z
-x,-y,-z
x,-y,1/2+z
1/2+x,1/2+y,z
1/2-x,1/2+y,1/2-z
1/2-x,1/2-y,-z
1/2+x,1/2-y,1/2+z
loop_
_atom_site_type_symbol
_atom_site_label
_atom_site_fract_x
_atom_site_fract_y
_atom_site_fract_z
Si Si1 0.036458 0.725167 0.911521
Si Si2 0.775876 0.992193 0.154137
Si Si3 0.362990 0.698825 0.593507
Si Si4 0.051551 0.275196 0.601889
Si Si5 0.189267 0.336412 0.124814
Si Si6 0.321325 0.923055 0.554426
Si Si7 0.227683 0.237710 0.421653
Si Si8 0.987393 0.483417 0.373462
O O1 0.113582 0.739373 0.746292
O O2 0.025524 0.592182 0.902395
O O3 0.056814 0.766875 0.988461
O O4 0.952380 0.774794 0.998528
O O5 0.854367 0.921625 0.059580
O O6 0.717811 0.904493 0.178894
O O7 0.751077 0.028112 0.292847
O O8 0.779111 0.107056 0.094187
O O9 0.334178 0.793846 0.560460
O O10 0.299324 0.713194 0.763127
O O11 0.141417 0.289305 0.515866
O O12 0.997380 0.386224 0.655258
O O13 0.000000 0.213221 0.750000
O O14 0.250000 0.250000 0.000000
O O15 0.176468 0.429935 0.060768
O O16 0.394547 0.978743 0.508357
O O17 0.250000 0.250000 0.500000
O O18 0.000000 0.434643 0.250000
#
# Coordination Sequence:
#
# PCOD9263812 Si02
#       8
#     8   8   8   8   8   8   8   8
#     4  11  23  40  69  97 137 173 231 295 346 409
#     4  11  25  42  67  98 137 180 235 280 347 416
#     4  10  22  43  65  98 134 179 224 286 347 409
#     4  11  24  41  63  96 139 182 225 285 347 418
#     4  12  24  42  70 102 134 182 234 289 350 407
#     4  10  21  39  63  95 135 169 222 285 342 403
#     4  11  25  44  68  98 141 184 231 287 343 417
#     4  10  19  34  60  95 128 167 216 278 349 398
#
# _framework density 21.948157999999999
#
# number of rings (size 3 to 8) (size 9 to 14) (size 15 to 20)
#    0.000    1.250    2.500    3.375    5.250    2.000 
#    0.000    1.875    0.000    0.000    0.000    0.000 
#    0.000    0.000    0.000    0.000    0.000    0.000 
#
# Total GULP energy -178378.963556 kJ/mol
# GULP energy per Si atom -5574.342611 kJ/mol
# Density = 2.189820 g / cm^3
# Si number density = 21.948158 Si / 1000 Ang^3
#
#
#
# Elastic Constant Matrix: (Units=GPa)
#
#
# Indices 1 2 3 4 5 6 
#
# 1 122.2765 17.6838 56.9475 0.0000 -0.2109 0.0000
# 2 17.6838 79.1161 24.0697 0.0000 -7.4586 0.0000
# 3 56.9475 24.0697 134.6490 0.0000 -9.8929 0.0000
# 4 0.0000 0.0000 0.0000 14.5130 0.0000 -4.9496
# 5 -0.2109 -7.4586 -9.8929 0.0000 38.9097 0.0000
# 6 0.0000 0.0000 0.0000 -4.9496 0.0000 19.4343
#
#
#
# Elastic Compliance Matrix: (Units=1/GPa)
#
#
# Indices 1 2 3 4 5 6 
#
# 1 0.010321 -0.001130 -0.004254 0.000000 -0.001242 0.000000
# 2 -0.001130 0.013643 -0.001803 0.000000 0.002151 0.000000
# 3 -0.004254 -0.001803 0.009702 0.000000 0.002098 0.000000
# 4 0.000000 0.000000 0.000000 0.075458 0.000000 0.019218
# 5 -0.001242 0.002151 0.002098 0.000000 0.026640 0.000000
# 6 0.000000 0.000000 0.000000 0.019218 0.000000 0.056350
#
#
# Mechanical properties :
#
#
# Convention : Reuss Voigt Hill
#
# Bulk Modulus (GPa) = 51.83353 59.27152 55.55252
# Shear Modulus (GPa) = 23.48308 30.39409 26.93859
#
# Velocity S-wave (km/s) = 3.27453 3.72534 3.50719
# Velocity P-wave (km/s) = 6.16152 6.75042 6.46268
#
# Compressibility (1/GPa) = 0.01929253
#
# Stress axis : x y z
#
# Youngs Moduli (GPa) = 96.89196 73.29514 103.06629
#
# Poissons Ratio (x) = 0.08280 0.43848
# Poissons Ratio (y) = 0.10946 0.18584
# Poissons Ratio (z) = 0.41221 0.13216
#
# Static dielectric constant tensor:
#      x y z
#    x 1.850840 0.000000 0.049360 
#    y 0.000000 1.898340 0.000000 
#    z 0.049360 0.000000 1.903660 
# 
# From -- ./inp_files/177792.got.cif
#   From: 2010.05.17/outbox.cif.g08.bks.cpg/sg15_89_cif.got.tgz:177792.got - 2010.06.03 18:47:42.
