data_PCOD9263010
_publ_section_title
;
Structure prediction by ZEFSAII (Michael W. Deem and Ramdas Pophale) SiO2 
 PCOD9263010
Probable space group: C 2/C
;
_chemical_formula_sum "Si O2"
_cell_formula_units_Z 36
_cell_length_a 8.181361
_cell_length_b 26.308245
_cell_length_c 11.781376
_cell_angle_alpha 90.000000
_cell_angle_beta 139.998688
_cell_angle_gamma 90.000000
_cell_volume 1630.019495
_symmetry_space_group_name_H-M "C 2/C"
_symmetry_group_IT_number 15
_symmetry_cell_setting 'monoclinic'
loop_
_space_group_symop_operation_xyz
x,y,z
-x,y,1/2-z
-x,-y,-z
x,-y,1/2+z
1/2+x,1/2+y,z
1/2-x,1/2+y,1/2-z
1/2-x,1/2-y,-z
1/2+x,1/2-y,1/2+z
loop_
_atom_site_type_symbol
_atom_site_label
_atom_site_fract_x
_atom_site_fract_y
_atom_site_fract_z
Si Si1 0.911841 0.696507 0.880066
Si Si2 0.166371 0.382084 0.654030
Si Si3 0.000000 0.464079 0.750000
Si Si4 0.263878 0.976386 0.942894
Si Si5 0.564494 0.309079 0.987689
O O1 0.181807 0.694496 0.955363
O O2 0.682310 0.681396 0.674774
O O3 0.946964 0.657412 0.001730
O O4 0.909269 0.755941 0.910358
O O5 0.224248 0.415913 0.572082
O O6 0.100847 0.425594 0.709160
O O7 0.383694 0.348960 0.829215
O O8 0.795159 0.501924 0.585247
O O9 0.000000 0.994419 0.750000
O O10 0.500000 0.000000 0.000000
#
# Coordination Sequence:
#
# PCOD9263010 Si02
#       5
#     8   8   4   8   8
#     4  10  19  33  59  91 121 155 195 250 310 372
#     4  11  22  39  61  89 122 164 205 255 320 373
#     4  10  26  44  60  86 126 166 218 264 312 384
#     4  10  23  42  66  92 126 165 217 266 319 375
#     4  10  19  33  59  89 123 154 196 249 308 371
#
# _framework density 22.085623999999999
#
# number of rings (size 3 to 8) (size 9 to 14) (size 15 to 20)
#    0.000    1.778    2.222    2.000    0.000   10.667 
#    0.000    1.111    0.000    0.000    0.000    0.000 
#    0.000    0.000    0.000    0.000    0.000    0.000 
#
# Total GULP energy -100411.636575 kJ/mol
# GULP energy per Si atom -5578.424254 kJ/mol
# Density = 2.203536 g / cm^3
# Si number density = 22.085624 Si / 1000 Ang^3
#
#
#
# Elastic Constant Matrix: (Units=GPa)
#
#
# Indices 1 2 3 4 5 6 
#
# 1 20.2387 26.4939 21.9402 0.0000 -3.4667 0.0000
# 2 26.4939 178.6110 105.7452 0.0000 -15.3412 0.0000
# 3 21.9402 105.7452 188.3748 0.0000 -11.0325 0.0000
# 4 0.0000 0.0000 0.0000 242.3985 0.0000 -243.5694
# 5 -3.4667 -15.3412 -11.0325 0.0000 25.6294 0.0000
# 6 0.0000 0.0000 0.0000 -243.5694 0.0000 313.6733
#
#
#
# Elastic Compliance Matrix: (Units=1/GPa)
#
#
# Indices 1 2 3 4 5 6 
#
# 1 0.062702 -0.007238 -0.003074 0.000000 0.002825 0.000000
# 2 -0.007238 0.009464 -0.004303 0.000000 0.002833 0.000000
# 3 -0.003074 -0.004303 0.008112 0.000000 0.000500 0.000000
# 4 0.000000 0.000000 0.000000 0.018774 0.000000 0.014578
# 5 0.002825 0.002833 0.000500 0.000000 0.041311 0.000000
# 6 0.000000 0.000000 0.000000 0.014578 0.000000 0.014508
#
#
# Mechanical properties :
#
#
# Convention : Reuss Voigt Hill
#
# Bulk Modulus (GPa) = 19.59029 77.28700 48.43864
# Shear Modulus (GPa) = 24.86110 131.87658 78.36884
#
# Velocity S-wave (km/s) = 3.35874 7.73571 5.96332
# Velocity P-wave (km/s) = 4.89192 10.71720 8.33035
#
# Compressibility (1/GPa) = 0.05104570
#
# Stress axis : x y z
#
# Youngs Moduli (GPa) = 15.94842 105.66821 123.27833
#
# Poissons Ratio (x) = 0.76482 0.37901
# Poissons Ratio (y) = 0.11543 0.53053
# Poissons Ratio (z) = 0.04903 0.45474
#
# Static dielectric constant tensor:
#      x y z
#    x 1.933820 0.000000 -0.037100 
#    y 0.000000 1.815080 0.000000 
#    z -0.037100 0.000000 1.805600 
# 
# From -- ./inp_files/81036.got.cif
#   From: 2010.05.17/outbox.cif.g08.bks.cpg/sg15_41_cif.got.tgz:81036.got - 2010.06.03 18:47:42.
