data_PCOD9263442
_publ_section_title
;
Structure prediction by ZEFSAII (Michael W. Deem and Ramdas Pophale) SiO2 
 PCOD9263442
Probable space group: C 2/C
;
_chemical_formula_sum "Si O2"
_cell_formula_units_Z 56
_cell_length_a 15.101359
_cell_length_b 11.003791
_cell_length_c 14.743954
_cell_angle_alpha 90.000000
_cell_angle_beta 96.856844
_cell_angle_gamma 90.000000
_cell_volume 2432.511490
_symmetry_space_group_name_H-M "C 2/C"
_symmetry_group_IT_number 15
_symmetry_cell_setting 'monoclinic'
loop_
_space_group_symop_operation_xyz
x,y,z
-x,y,1/2-z
-x,-y,-z
x,-y,1/2+z
1/2+x,1/2+y,z
1/2-x,1/2+y,1/2-z
1/2-x,1/2-y,-z
1/2+x,1/2-y,1/2+z
loop_
_atom_site_type_symbol
_atom_site_label
_atom_site_fract_x
_atom_site_fract_y
_atom_site_fract_z
Si Si1 0.567724 0.734837 0.832817
Si Si2 0.236035 0.757913 0.604404
Si Si3 0.732873 0.991202 0.678941
Si Si4 0.181147 0.640468 0.011597
Si Si5 0.431053 0.447146 0.668421
Si Si6 0.952870 0.823113 0.486347
Si Si7 0.297844 0.513470 0.885949
O O1 0.500000 0.787409 0.750000
O O2 0.666720 0.788054 0.840416
O O3 0.575626 0.591131 0.813894
O O4 0.529466 0.726437 0.930172
O O5 0.250000 0.750000 0.500000
O O6 0.213492 0.624188 0.635248
O O7 0.172039 0.872680 0.611680
O O8 0.746111 0.024685 0.785312
O O9 0.668787 0.901824 0.614334
O O10 0.826214 0.920275 0.665048
O O11 0.089280 0.702806 0.972720
O O12 0.250000 0.750000 0.000000
O O13 0.226724 0.534681 0.958272
O O14 0.500000 0.395236 0.750000
O O15 0.463483 0.415580 0.571426
O O16 0.879080 0.892643 0.412701
#
# Coordination Sequence:
#
# PCOD9263442 Si02
#       7
#     8   8   8   8   8   8   8
#     4  10  22  37  59  91 125 165 209 255 322 375
#     4  11  22  40  61  93 128 156 209 265 306 372
#     4  11  22  37  60  94 123 159 205 252 314 371
#     4  10  21  39  60  90 122 163 205 253 309 379
#     4  10  19  34  56  90 123 151 207 257 307 368
#     4  11  21  40  64  88 127 165 204 258 320 367
#     4  11  22  37  65  91 123 163 207 258 311 373
#
# _framework density 23.021474999999999
#
# number of rings (size 3 to 8) (size 9 to 14) (size 15 to 20)
#    0.000    1.429    4.286    3.857    6.000    1.143 
#    0.000    0.714    0.000    0.857    0.000    0.000 
#    0.000    0.000    0.000    0.000    0.000    0.000 
#
# Total GULP energy -156001.230976 kJ/mol
# GULP energy per Si atom -5571.472535 kJ/mol
# Density = 2.296908 g / cm^3
# Si number density = 23.021475 Si / 1000 Ang^3
#
#
#
# Elastic Constant Matrix: (Units=GPa)
#
#
# Indices 1 2 3 4 5 6 
#
# 1 44.7779 -0.0485 -18.9125 0.0000 1.8403 0.0000
# 2 -0.0485 81.3147 15.8793 0.0000 7.5909 0.0000
# 3 -18.9125 15.8793 116.9772 0.0000 0.7408 0.0000
# 4 0.0000 0.0000 0.0000 24.7613 0.0000 -2.5548
# 5 1.8403 7.5909 0.7408 0.0000 21.5313 0.0000
# 6 0.0000 0.0000 0.0000 -2.5548 0.0000 11.6088
#
#
#
# Elastic Compliance Matrix: (Units=1/GPa)
#
#
# Indices 1 2 3 4 5 6 
#
# 1 0.024098 -0.000578 0.003987 0.000000 -0.001993 0.000000
# 2 -0.000578 0.013077 -0.001840 0.000000 -0.004498 0.000000
# 3 0.003987 -0.001840 0.009443 0.000000 -0.000017 0.000000
# 4 0.000000 0.000000 0.000000 0.041324 0.000000 0.009094
# 5 -0.001993 -0.004498 -0.000017 0.000000 0.048201 0.000000
# 6 0.000000 0.000000 0.000000 0.009094 0.000000 0.088143
#
#
# Mechanical properties :
#
#
# Convention : Reuss Voigt Hill
#
# Bulk Modulus (GPa) = 20.09830 26.32291 23.21061
# Shear Modulus (GPa) = 21.03202 27.99037 24.51119
#
# Velocity S-wave (km/s) = 3.02583 3.49067 3.26653
# Velocity P-wave (km/s) = 4.57785 5.26358 4.93265
#
# Compressibility (1/GPa) = 0.04975545
#
# Stress axis : x y z
#
# Youngs Moduli (GPa) = 41.49759 76.47160 105.89627
#
# Poissons Ratio (x) = 0.04422 -0.42223
# Poissons Ratio (y) = 0.02399 0.19486
# Poissons Ratio (z) = -0.16546 0.14072
#
# Static dielectric constant tensor:
#      x y z
#    x 1.978460 0.000000 0.011530 
#    y 0.000000 1.858540 0.000000 
#    z 0.011530 0.000000 1.937360 
# 
# From -- ./inp_files/160992.got.cif
#   From: 2010.05.17/outbox.cif.g08.bks.cpg/sg15_81_cif.got.tgz:160992.got - 2010.06.03 18:47:42.
