data_PCOD9263068
_publ_section_title
;
Structure prediction by ZEFSAII (Michael W. Deem and Ramdas Pophale) SiO2 
 PCOD9263068
Probable space group: C 2/C
;
_chemical_formula_sum "Si O2"
_cell_formula_units_Z 56
_cell_length_a 16.309393
_cell_length_b 9.279657
_cell_length_c 23.987308
_cell_angle_alpha 90.000000
_cell_angle_beta 52.667135
_cell_angle_gamma 90.000000
_cell_volume 2886.602966
_symmetry_space_group_name_H-M "C 2/C"
_symmetry_group_IT_number 15
_symmetry_cell_setting 'monoclinic'
loop_
_space_group_symop_operation_xyz
x,y,z
-x,y,1/2-z
-x,-y,-z
x,-y,1/2+z
1/2+x,1/2+y,z
1/2-x,1/2+y,1/2-z
1/2-x,1/2-y,-z
1/2+x,1/2-y,1/2+z
loop_
_atom_site_type_symbol
_atom_site_label
_atom_site_fract_x
_atom_site_fract_y
_atom_site_fract_z
Si Si1 0.451806 0.833154 0.406832
Si Si2 0.891953 0.642011 0.327245
Si Si3 0.789275 0.665844 0.891672
Si Si4 0.643744 0.798310 0.252872
Si Si5 0.958872 0.838107 0.013645
Si Si6 0.299960 0.127309 0.255773
Si Si7 0.009677 0.665686 0.102512
O O1 0.342210 0.783918 0.427104
O O2 0.529394 0.821244 0.322491
O O3 0.488627 0.738731 0.443489
O O4 0.454778 0.001163 0.423357
O O5 0.832055 0.497783 0.369341
O O6 0.823508 0.704688 0.305323
O O7 0.000000 0.606816 0.250000
O O8 0.921691 0.719427 0.372737
O O9 0.839559 0.745441 0.817732
O O10 0.666451 0.669118 0.935551
O O11 0.697605 0.684863 0.270680
O O12 0.698717 0.955108 0.236036
O O13 0.005131 0.755708 0.048123
O O14 0.000000 0.000000 0.000000
O O15 0.394170 0.160042 0.175157
#
# Coordination Sequence:
#
# PCOD9263068 Si02
#       7
#     8   8   8   8   8   8   8
#     4  10  22  38  61  83 111 156 197 228 270 354
#     4   8  16  32  61  84 107 144 196 230 278 337
#     4  10  19  38  59  82 114 152 188 233 285 335
#     4  10  19  33  62  87 112 141 196 232 287 324
#     4  12  25  37  57  85 121 150 184 242 292 326
#     4   9  17  31  57  89 110 143 177 244 277 330
#     4   9  18  39  57  80 109 155 191 219 277 348
#
# _framework density 19.399965999999999
#
# number of rings (size 3 to 8) (size 9 to 14) (size 15 to 20)
#    0.000    2.286    1.429    3.857    4.000    0.000 
#    0.000    4.286    3.143    3.429    0.000    0.000 
#    0.000    0.000    0.000    0.000    0.000    0.000 
#
# Total GULP energy -155973.282803 kJ/mol
# GULP energy per Si atom -5570.474386 kJ/mol
# Density = 1.935581 g / cm^3
# Si number density = 19.399966 Si / 1000 Ang^3
#
#
#
# Elastic Constant Matrix: (Units=GPa)
#
#
# Indices 1 2 3 4 5 6 
#
# 1 101.2733 34.7539 35.9522 0.0000 26.4751 0.0000
# 2 34.7539 46.0732 29.7011 0.0000 16.7400 0.0001
# 3 35.9522 29.7011 74.1743 0.0000 24.7564 0.0000
# 4 0.0000 0.0000 0.0000 7.1230 0.0000 7.1259
# 5 26.4751 16.7400 24.7564 0.0000 35.1320 0.0000
# 6 0.0000 0.0001 0.0000 7.1259 0.0000 23.2459
#
#
#
# Elastic Compliance Matrix: (Units=1/GPa)
#
#
# Indices 1 2 3 4 5 6 
#
# 1 0.014821 -0.007619 -0.002114 0.000000 -0.006049 0.000000
# 2 -0.007619 0.034738 -0.008641 0.000000 -0.004721 0.000000
# 3 -0.002114 -0.008641 0.020999 0.000000 -0.009087 0.000000
# 4 0.000000 0.000000 0.000000 0.202488 0.000000 -0.062071
# 5 -0.006049 -0.004721 -0.009087 0.000000 0.041675 0.000000
# 6 0.000000 0.000000 0.000000 -0.062071 0.000000 0.062046
#
#
# Mechanical properties :
#
#
# Convention : Reuss Voigt Hill
#
# Bulk Modulus (GPa) = 29.57727 46.92613 38.25170
# Shear Modulus (GPa) = 11.77067 21.17443 16.47255
#
# Velocity S-wave (km/s) = 2.46588 3.30732 2.91710
# Velocity P-wave (km/s) = 4.83596 6.23103 5.57729
#
# Compressibility (1/GPa) = 0.03380974
#
# Stress axis : x y z
#
# Youngs Moduli (GPa) = 67.47372 28.78721 47.62050
#
# Poissons Ratio (x) = 0.21933 0.10066
# Poissons Ratio (y) = 0.51408 0.41149
# Poissons Ratio (z) = 0.14263 0.24875
#
# Static dielectric constant tensor:
#      x y z
#    x 1.715660 0.000000 0.020510 
#    y 0.000000 1.672130 0.000000 
#    z 0.020510 0.000000 1.704350 
# 
# From -- ./inp_files/276231.got.cif
#   From: 2010.05.17/outbox.cif.g08.bks.cpg/sg15_139_cif.got.tgz:276231.got - 2010.06.03 18:47:42.
