data_PCOD9263217
_publ_section_title
;
Structure prediction by ZEFSAII (Michael W. Deem and Ramdas Pophale) SiO2 
 PCOD9263217
Probable space group: C 2/C
;
_chemical_formula_sum "Si O2"
_cell_formula_units_Z 44
_cell_length_a 8.145598
_cell_length_b 11.146913
_cell_length_c 27.281979
_cell_angle_alpha 90.000000
_cell_angle_beta 137.297532
_cell_angle_gamma 90.000000
_cell_volume 1679.986088
_symmetry_space_group_name_H-M "C 2/C"
_symmetry_group_IT_number 15
_symmetry_cell_setting 'monoclinic'
loop_
_space_group_symop_operation_xyz
x,y,z
-x,y,1/2-z
-x,-y,-z
x,-y,1/2+z
1/2+x,1/2+y,z
1/2-x,1/2+y,1/2-z
1/2-x,1/2-y,-z
1/2+x,1/2-y,1/2+z
loop_
_atom_site_type_symbol
_atom_site_label
_atom_site_fract_x
_atom_site_fract_y
_atom_site_fract_z
Si Si1 0.688451 0.387336 0.226569
Si Si2 0.000000 0.596974 0.250000
Si Si3 0.634063 0.913221 0.132406
Si Si4 0.960617 0.287806 0.485597
Si Si5 0.719758 0.071705 0.391670
Si Si6 0.407304 0.316830 0.394779
O O1 0.411872 0.423106 0.176591
O O2 0.827003 0.346268 0.306120
O O3 0.705066 0.298986 0.183723
O O4 0.814275 0.509423 0.236749
O O5 0.130488 0.652872 0.325737
O O6 0.492848 0.858008 0.054603
O O7 0.491627 0.032852 0.117537
O O8 0.920557 0.149508 0.461932
O O9 0.695675 0.326467 0.447381
O O10 0.133786 0.278683 0.570613
O O11 0.818520 0.947351 0.392359
#
# Coordination Sequence:
#
# PCOD9263217 Si02
#       6
#     8   4   8   8   8   8
#     4   8  15  32  53  73 106 137 163 216 259 291
#     4   8  16  30  54  78  98 136 174 204 258 310
#     4   9  18  32  54  79 102 133 176 214 250 304
#     4  10  20  35  54  76 104 139 172 210 258 305
#     4  10  19  34  54  76 104 136 171 213 257 302
#     4   9  19  35  51  75 109 136 169 213 257 306
#
# _framework density 26.190694000000001
#
# number of rings (size 3 to 8) (size 9 to 14) (size 15 to 20)
#    0.000    2.909    0.000    0.545    0.000    3.636 
#    0.000   13.636    0.000   45.818    0.000    0.000 
#    0.000    0.000    0.000    0.000    0.000    0.000 
#
# Total GULP energy -122852.918173 kJ/mol
# GULP energy per Si atom -5584.223553 kJ/mol
# Density = 2.613108 g / cm^3
# Si number density = 26.190694 Si / 1000 Ang^3
#
#
#
# Elastic Constant Matrix: (Units=GPa)
#
#
# Indices 1 2 3 4 5 6 
#
# 1 111.4083 41.1119 39.9447 0.0000 -15.1018 0.0000
# 2 41.1119 45.0117 0.7580 0.0000 -14.4325 0.0000
# 3 39.9447 0.7580 130.4210 0.0000 -48.5225 0.0000
# 4 0.0000 0.0000 0.0000 26.6616 0.0000 -19.4874
# 5 -15.1018 -14.4325 -48.5225 0.0000 52.0432 0.0000
# 6 0.0000 0.0000 0.0000 -19.4874 0.0000 40.4659
#
#
#
# Elastic Compliance Matrix: (Units=1/GPa)
#
#
# Indices 1 2 3 4 5 6 
#
# 1 0.017649 -0.018400 -0.008102 0.000000 -0.007535 0.000000
# 2 -0.018400 0.044747 0.012258 0.000000 0.018498 0.000000
# 3 -0.008102 0.012258 0.016027 0.000000 0.015991 0.000000
# 4 0.000000 0.000000 0.000000 0.057880 0.000000 0.027874
# 5 -0.007535 0.018498 0.015991 0.000000 0.037067 0.000000
# 6 0.000000 0.000000 0.000000 0.027874 0.000000 0.038135
#
#
# Mechanical properties :
#
#
# Convention : Reuss Voigt Hill
#
# Bulk Modulus (GPa) = 20.02615 50.05224 35.03919
# Shear Modulus (GPa) = 19.48249 37.50257 28.49253
#
# Velocity S-wave (km/s) = 2.73036 3.78816 3.30189
# Velocity P-wave (km/s) = 4.19556 6.18754 5.28623
#
# Compressibility (1/GPa) = 0.04993472
#
# Stress axis : x y z
#
# Youngs Moduli (GPa) = 56.65889 22.34784 62.39434
#
# Poissons Ratio (x) = 0.41120 0.50552
# Poissons Ratio (y) = 1.04252 -0.76480
# Poissons Ratio (z) = 0.45905 -0.27393
#
# Static dielectric constant tensor:
#      x y z
#    x 2.048170 0.000000 -0.028650 
#    y 0.000000 2.038700 0.000000 
#    z -0.028650 0.000000 2.266970 
# 
# From -- ./inp_files/265076.got.cif
#   From: 2010.05.17/outbox.cif.g08.bks.cpg/sg15_133_cif.got.tgz:265076.got - 2010.06.03 18:47:42.
