data_PCOD9263789
_publ_section_title
;
Structure prediction by ZEFSAII (Michael W. Deem and Ramdas Pophale) SiO2 
 PCOD9263789
Probable space group: C 2/C
;
_chemical_formula_sum "Si O2"
_cell_formula_units_Z 56
_cell_length_a 9.064365
_cell_length_b 24.734655
_cell_length_c 17.712758
_cell_angle_alpha 90.000000
_cell_angle_beta 134.093135
_cell_angle_gamma 90.000000
_cell_volume 2852.204643
_symmetry_space_group_name_H-M "C 2/C"
_symmetry_group_IT_number 15
_symmetry_cell_setting 'monoclinic'
loop_
_space_group_symop_operation_xyz
x,y,z
-x,y,1/2-z
-x,-y,-z
x,-y,1/2+z
1/2+x,1/2+y,z
1/2-x,1/2+y,1/2-z
1/2-x,1/2-y,-z
1/2+x,1/2-y,1/2+z
loop_
_atom_site_type_symbol
_atom_site_label
_atom_site_fract_x
_atom_site_fract_y
_atom_site_fract_z
Si Si1 0.300774 0.910827 0.520153
Si Si2 0.600280 0.204648 0.977840
Si Si3 0.980261 0.583996 0.560404
Si Si4 0.936818 0.290633 0.582373
Si Si5 0.740035 0.487916 0.079219
Si Si6 0.819340 0.093885 0.809918
Si Si7 0.837468 0.796262 0.250981
O O1 0.446648 0.920915 0.499703
O O2 0.345064 0.849793 0.562556
O O3 0.065488 0.915726 0.404977
O O4 0.336515 0.952552 0.601751
O O5 0.630535 0.142007 0.966878
O O6 0.372698 0.214792 0.865628
O O7 0.750000 0.250000 0.000000
O O8 0.582334 0.206678 0.061205
O O9 0.184470 0.580908 0.686706
O O10 0.817955 0.540421 0.530692
O O11 0.750000 0.250000 0.500000
O O12 0.067622 0.260226 0.691166
O O13 0.776206 0.444280 0.158733
O O14 0.500000 0.500000 0.000000
O O15 0.803393 0.159740 0.805432
O O16 0.000000 0.822435 0.250000
#
# Coordination Sequence:
#
# PCOD9263789 Si02
#       7
#     8   8   8   8   8   8   8
#     4  10  20  37  59  90 119 160 197 253 314 375
#     4  10  23  36  58  95 126 159 205 262 311 363
#     4  10  20  37  60  83 118 160 203 252 307 367
#     4  11  20  36  64  88 126 165 203 245 311 383
#     4  10  22  36  56  85 115 153 202 259 302 349
#     4  10  19  34  60  89 115 146 211 257 297 357
#     4  11  20  37  62  93 124 167 209 253 310 382
#
# _framework density 19.633935999999999
#
# number of rings (size 3 to 8) (size 9 to 14) (size 15 to 20)
#    0.000    1.714    2.857    3.000    2.000    0.571 
#    0.000    1.429    3.143    0.000    0.000    0.000 
#    0.000    0.000    0.000    0.000    0.000    0.000 
#
# Total GULP energy -155940.280901 kJ/mol
# GULP energy per Si atom -5569.295746 kJ/mol
# Density = 1.958925 g / cm^3
# Si number density = 19.633936 Si / 1000 Ang^3
#
#
#
# Elastic Constant Matrix: (Units=GPa)
#
#
# Indices 1 2 3 4 5 6 
#
# 1 71.5460 63.6386 17.9886 0.0000 8.3793 0.0000
# 2 63.6386 150.5544 27.3019 0.0000 -12.8493 0.0000
# 3 17.9886 27.3019 43.3175 0.0000 -1.8797 0.0000
# 4 0.0000 0.0000 0.0000 17.1703 0.0000 -4.9504
# 5 8.3793 -12.8493 -1.8797 0.0000 29.4353 0.0000
# 6 0.0000 0.0000 0.0000 -4.9504 0.0000 41.4992
#
#
#
# Elastic Compliance Matrix: (Units=1/GPa)
#
#
# Indices 1 2 3 4 5 6 
#
# 1 0.027097 -0.011777 -0.004400 0.000000 -0.013136 0.000000
# 2 -0.011777 0.012888 -0.002850 0.000000 0.008796 0.000000
# 3 -0.004400 -0.002850 0.026784 0.000000 0.001719 0.000000
# 4 0.000000 0.000000 0.000000 0.060314 0.000000 0.007195
# 5 -0.013136 0.008796 0.001719 0.000000 0.041662 0.000000
# 6 0.000000 0.000000 0.000000 0.007195 0.000000 0.024955
#
#
# Mechanical properties :
#
#
# Convention : Reuss Voigt Hill
#
# Bulk Modulus (GPa) = 34.82653 53.69735 44.26194
# Shear Modulus (GPa) = 20.71887 28.05355 24.38621
#
# Velocity S-wave (km/s) = 3.25200 3.78409 3.52809
# Velocity P-wave (km/s) = 5.64598 6.81917 6.26012
#
# Compressibility (1/GPa) = 0.02871374
#
# Stress axis : x y z
#
# Youngs Moduli (GPa) = 36.90442 77.59260 37.33609
#
# Poissons Ratio (x) = 0.91380 0.16428
# Poissons Ratio (y) = 0.43462 0.10643
# Poissons Ratio (z) = 0.16238 0.22118
#
# Static dielectric constant tensor:
#      x y z
#    x 1.729060 0.000000 -0.023980 
#    y 0.000000 1.694570 0.000000 
#    z -0.023980 0.000000 1.694840 
# 
# From -- ./inp_files/137278.got.cif
#   From: 2010.05.17/outbox.cif.g08.bks.cpg/sg15_69_cif.got.tgz:137278.got - 2010.06.03 18:47:42.
