data_PCOD9263963
_publ_section_title
;
Structure prediction by ZEFSAII (Michael W. Deem and Ramdas Pophale) SiO2 
 PCOD9263963
Probable space group: C 2/C
;
_chemical_formula_sum "Si O2"
_cell_formula_units_Z 64
_cell_length_a 27.605081
_cell_length_b 16.338249
_cell_length_c 8.939353
_cell_angle_alpha 90.000000
_cell_angle_beta 63.436671
_cell_angle_gamma 90.000000
_cell_volume 3606.219386
_symmetry_space_group_name_H-M "C 2/C"
_symmetry_group_IT_number 15
_symmetry_cell_setting 'monoclinic'
loop_
_space_group_symop_operation_xyz
x,y,z
-x,y,1/2-z
-x,-y,-z
x,-y,1/2+z
1/2+x,1/2+y,z
1/2-x,1/2+y,1/2-z
1/2-x,1/2-y,-z
1/2+x,1/2-y,1/2+z
loop_
_atom_site_type_symbol
_atom_site_label
_atom_site_fract_x
_atom_site_fract_y
_atom_site_fract_z
Si Si1 0.346542 0.640312 0.870227
Si Si2 0.294618 0.752624 0.161479
Si Si3 0.208527 0.612910 0.369793
Si Si4 0.797710 0.867607 0.161429
Si Si5 0.558006 0.386097 0.740793
Si Si6 0.558345 0.446223 0.088041
Si Si7 0.250119 0.486394 0.563172
Si Si8 0.148383 0.250871 0.117134
O O1 0.350819 0.648713 0.687154
O O2 0.397727 0.610793 0.891856
O O3 0.325511 0.723128 0.972939
O O4 0.298090 0.573230 0.942586
O O5 0.257987 0.675571 0.265847
O O6 0.253922 0.826078 0.189496
O O7 0.335469 0.774970 0.237418
O O8 0.225237 0.547503 0.474646
O O9 0.204896 0.563140 0.219125
O O10 0.159374 0.670233 0.496371
O O11 0.782634 0.957679 0.136700
O O12 0.806810 0.814708 0.000311
O O13 0.500000 0.365106 0.750000
O O14 0.576840 0.461580 0.607789
O O15 0.594728 0.304867 0.692475
O O16 0.555397 0.424308 0.914829
O O17 0.500000 0.436448 0.250000
#
# Coordination Sequence:
#
# PCOD9263963 Si02
#       8
#     8   8   8   8   8   8   8   8
#     4  11  23  31  51  76 106 147 178 216 262 311
#     4  10  19  35  48  75 107 146 179 211 264 313
#     4  10  20  33  50  77 107 143 174 218 255 321
#     4  11  20  31  51  74 112 143 176 218 254 322
#     4  11  24  40  58  77 105 141 182 228 266 313
#     4  11  24  38  55  79 106 140 187 226 261 304
#     4  11  19  31  50  76 106 139 182 210 257 312
#     4  11  20  36  55  74 107 145 180 215 269 314
#
# _framework density 17.747118
#
# number of rings (size 3 to 8) (size 9 to 14) (size 15 to 20)
#    0.000    1.250    5.000    3.375    5.250    0.000 
#    0.000    0.000    0.000    0.000    0.000    0.875 
#    0.000    0.000    0.000    0.000    0.000    0.000 
#
# Total GULP energy -178322.081676 kJ/mol
# GULP energy per Si atom -5572.565052 kJ/mol
# Density = 1.770672 g / cm^3
# Si number density = 17.747118 Si / 1000 Ang^3
#
#
#
# Elastic Constant Matrix: (Units=GPa)
#
#
# Indices 1 2 3 4 5 6 
#
# 1 74.2150 15.5520 22.0299 0.0000 11.4268 0.0000
# 2 15.5520 45.3872 20.3767 0.0000 2.0411 0.0000
# 3 22.0299 20.3767 68.8140 0.0000 10.0409 0.0000
# 4 0.0000 0.0000 0.0000 32.5565 0.0000 -5.0980
# 5 11.4268 2.0411 10.0409 0.0000 21.1990 0.0000
# 6 0.0000 0.0000 0.0000 -5.0980 0.0000 6.6199
#
#
#
# Elastic Compliance Matrix: (Units=1/GPa)
#
#
# Indices 1 2 3 4 5 6 
#
# 1 0.016263 -0.003896 -0.003038 0.000000 -0.006952 0.000000
# 2 -0.003896 0.026372 -0.006980 0.000000 0.002867 0.000000
# 3 -0.003038 -0.006980 0.018514 0.000000 -0.006459 0.000000
# 4 0.000000 0.000000 0.000000 0.034928 0.000000 0.026898
# 5 -0.006952 0.002867 -0.006459 0.000000 0.053703 0.000000
# 6 0.000000 0.000000 0.000000 0.026898 0.000000 0.171774
#
#
# Mechanical properties :
#
#
# Convention : Reuss Voigt Hill
#
# Bulk Modulus (GPa) = 30.01159 33.81482 31.91320
# Shear Modulus (GPa) = 13.87002 20.77225 17.32114
#
# Velocity S-wave (km/s) = 2.79863 3.42491 3.12748
# Velocity P-wave (km/s) = 5.23359 5.89364 5.57340
#
# Compressibility (1/GPa) = 0.03332046
#
# Stress axis : x y z
#
# Youngs Moduli (GPa) = 61.48903 37.91833 54.01290
#
# Poissons Ratio (x) = 0.14772 0.16411
# Poissons Ratio (y) = 0.23955 0.37703
# Poissons Ratio (z) = 0.18683 0.26468
#
# Static dielectric constant tensor:
#      x y z
#    x 1.611860 0.000000 0.032640 
#    y 0.000000 1.613300 0.000000 
#    z 0.032640 0.000000 1.722300 
# 
# From -- ./inp_files/69927.got.cif
#   From: 2010.05.17/outbox.cif.g08.bks.cpg/sg15_35_cif.got.tgz:69927.got - 2010.06.03 18:47:42.
