data_PCOD9263024
_publ_section_title
;
Structure prediction by ZEFSAII (Michael W. Deem and Ramdas Pophale) SiO2 
 PCOD9263024
Probable space group: C 2/C
;
_chemical_formula_sum "Si O2"
_cell_formula_units_Z 32
_cell_length_a 10.900140
_cell_length_b 7.622498
_cell_length_c 19.486850
_cell_angle_alpha 90.000000
_cell_angle_beta 136.466314
_cell_angle_gamma 90.000000
_cell_volume 1115.198432
_symmetry_space_group_name_H-M "C 2/C"
_symmetry_group_IT_number 15
_symmetry_cell_setting 'monoclinic'
loop_
_space_group_symop_operation_xyz
x,y,z
-x,y,1/2-z
-x,-y,-z
x,-y,1/2+z
1/2+x,1/2+y,z
1/2-x,1/2+y,1/2-z
1/2-x,1/2-y,-z
1/2+x,1/2-y,1/2+z
loop_
_atom_site_type_symbol
_atom_site_label
_atom_site_fract_x
_atom_site_fract_y
_atom_site_fract_z
Si Si1 0.519074 0.350697 0.949477
Si Si2 0.215733 0.516973 0.060010
Si Si3 0.729422 0.532208 0.261985
Si Si4 0.034068 0.282340 0.842598
O O1 0.679940 0.411333 0.965019
O O2 0.355194 0.339424 0.830041
O O3 0.500000 0.500000 0.000000
O O4 0.553076 0.158210 0.996110
O O5 0.303207 0.560269 0.170384
O O6 0.272183 0.309090 0.075503
O O7 0.945241 0.549045 0.342696
O O8 0.604639 0.368307 0.190657
O O9 0.000000 0.323163 0.750000
#
# Coordination Sequence:
#
# PCOD9263024 Si02
#       4
#     8   8   8   8
#     4  10  19  33  59  95 123 156 209 254 302 369
#     4   9  18  34  59  86 123 162 194 250 311 358
#     4  10  19  37  62  84 121 165 201 249 308 367
#     4   9  19  36  57  84 117 158 203 247 299 357
#
# _framework density 28.694443
#
# number of rings (size 3 to 8) (size 9 to 14) (size 15 to 20)
#    0.000    2.500    0.000    5.250    0.000    0.000 
#    0.000   18.750    0.000   33.000    0.000    0.000 
#    0.000    0.000    0.000    0.000    0.000    0.000 
#
# Total GULP energy -89100.116416 kJ/mol
# GULP energy per Si atom -5568.757276 kJ/mol
# Density = 2.862913 g / cm^3
# Si number density = 28.694443 Si / 1000 Ang^3
#
#
#
# Elastic Constant Matrix: (Units=GPa)
#
#
# Indices 1 2 3 4 5 6 
#
# 1 148.2099 33.5479 48.3215 0.0000 12.7785 0.0000
# 2 33.5479 123.3516 80.9233 0.0000 5.8704 0.0000
# 3 48.3215 80.9233 146.3316 0.0000 -28.7238 0.0000
# 4 0.0000 0.0000 0.0000 59.8707 0.0000 -2.9040
# 5 12.7785 5.8704 -28.7238 0.0000 68.2220 0.0000
# 6 0.0000 0.0000 0.0000 -2.9040 0.0000 45.3280
#
#
#
# Elastic Compliance Matrix: (Units=1/GPa)
#
#
# Indices 1 2 3 4 5 6 
#
# 1 0.008044 0.000103 -0.003282 0.000000 -0.002897 0.000000
# 2 0.000103 0.014078 -0.008788 0.000000 -0.004931 0.000000
# 3 -0.003282 -0.008788 0.014222 0.000000 0.007359 0.000000
# 4 0.000000 0.000000 0.000000 0.016755 0.000000 0.001073
# 5 -0.002897 -0.004931 0.007359 0.000000 0.018723 0.000000
# 6 0.000000 0.000000 0.000000 0.001073 0.000000 0.022130
#
#
# Mechanical properties :
#
#
# Convention : Reuss Voigt Hill
#
# Bulk Modulus (GPa) = 80.57156 82.60873 81.59014
# Shear Modulus (GPa) = 40.97635 51.69084 46.33359
#
# Velocity S-wave (km/s) = 3.78302 4.24892 4.02272
# Velocity P-wave (km/s) = 6.87181 7.27480 7.07617
#
# Compressibility (1/GPa) = 0.01241133
#
# Stress axis : x y z
#
# Youngs Moduli (GPa) = 124.32132 71.03081 70.31492
#
# Poissons Ratio (x) = -0.00735 0.23078
# Poissons Ratio (y) = -0.01286 0.61790
# Poissons Ratio (z) = 0.40804 0.62419
#
# Static dielectric constant tensor:
#      x y z
#    x 2.315220 0.000000 0.166200 
#    y 0.000000 2.689570 0.000000 
#    z 0.166200 0.000000 2.263990 
# 
# From -- ./inp_files/235984.got.cif
#   From: 2010.05.17/outbox.cif.g08.bks.cpg/sg15_118_cif.got.tgz:235984.got - 2010.06.03 18:47:42.
