data_PCOD9263491
_publ_section_title
;
Structure prediction by ZEFSAII (Michael W. Deem and Ramdas Pophale) SiO2 
 PCOD9263491
Probable space group: C 2/C
;
_chemical_formula_sum "Si O2"
_cell_formula_units_Z 56
_cell_length_a 17.483874
_cell_length_b 11.200066
_cell_length_c 22.006809
_cell_angle_alpha 90.000000
_cell_angle_beta 36.703257
_cell_angle_gamma 90.000000
_cell_volume 2575.593418
_symmetry_space_group_name_H-M "C 2/C"
_symmetry_group_IT_number 15
_symmetry_cell_setting 'monoclinic'
loop_
_space_group_symop_operation_xyz
x,y,z
-x,y,1/2-z
-x,-y,-z
x,-y,1/2+z
1/2+x,1/2+y,z
1/2-x,1/2+y,1/2-z
1/2-x,1/2-y,-z
1/2+x,1/2-y,1/2+z
loop_
_atom_site_type_symbol
_atom_site_label
_atom_site_fract_x
_atom_site_fract_y
_atom_site_fract_z
Si Si1 0.753769 0.390709 0.568930
Si Si2 0.649523 0.964320 0.394361
Si Si3 0.537291 0.636051 0.988319
Si Si4 0.669903 0.847832 0.155699
Si Si5 0.952419 0.319351 0.139437
Si Si6 0.697424 0.069637 0.058229
Si Si7 0.612293 0.766869 0.512886
O O1 0.759689 0.433904 0.635685
O O2 0.675357 0.270711 0.610917
O O3 0.718295 0.493499 0.544118
O O4 0.903374 0.368405 0.459059
O O5 0.646780 0.913350 0.328610
O O6 0.674154 0.853730 0.423477
O O7 0.500000 0.000000 0.500000
O O8 0.684171 0.641449 0.913902
O O9 0.500000 0.500000 0.000000
O O10 0.457678 0.700603 0.093814
O O11 0.508731 0.711889 0.945151
O O12 0.584014 0.815834 0.267681
O O13 0.642004 0.971064 0.139065
O O14 0.790957 0.161362 0.032057
O O15 0.598544 0.149087 0.081178
#
# Coordination Sequence:
#
# PCOD9263491 Si02
#       7
#     8   8   8   8   8   8   8
#     4   9  19  35  55  81 114 154 200 236 293 355
#     4   8  15  33  56  79 107 147 184 238 293 344
#     4  10  19  37  59  88 120 157 202 259 307 353
#     4  11  21  34  58  91 115 159 200 245 306 357
#     4   9  20  34  55  87 118 148 198 250 298 361
#     4  10  19  34  57  84 113 159 195 239 296 369
#     4   9  18  34  59  84 112 152 199 238 300 358
#
# _framework density 21.742562
#
# number of rings (size 3 to 8) (size 9 to 14) (size 15 to 20)
#    0.000    2.571    1.429    1.286    0.000    1.714 
#    0.000    0.000    6.286    0.000   14.857    0.000 
#    0.000    0.000    0.000    0.000    0.000    0.000 
#
# Total GULP energy -156114.766943 kJ/mol
# GULP energy per Si atom -5575.527391 kJ/mol
# Density = 2.169307 g / cm^3
# Si number density = 21.742562 Si / 1000 Ang^3
#
#
#
# Elastic Constant Matrix: (Units=GPa)
#
#
# Indices 1 2 3 4 5 6 
#
# 1 98.1702 53.4865 27.7406 0.0000 17.2694 0.0000
# 2 53.4865 147.9213 34.5356 0.0000 14.0306 0.0000
# 3 27.7406 34.5356 69.5631 0.0000 19.3079 0.0000
# 4 0.0000 0.0000 0.0000 13.8275 0.0000 19.0101
# 5 17.2694 14.0306 19.3079 0.0000 22.5477 0.0000
# 6 0.0000 0.0000 0.0000 19.0101 0.0000 49.6867
#
#
#
# Elastic Compliance Matrix: (Units=1/GPa)
#
#
# Indices 1 2 3 4 5 6 
#
# 1 0.014068 -0.004042 -0.001720 0.000000 -0.006787 0.000000
# 2 -0.004042 0.008876 -0.002782 0.000000 -0.000045 0.000000
# 3 -0.001720 -0.002782 0.020459 0.000000 -0.014471 0.000000
# 4 0.000000 0.000000 0.000000 0.152571 0.000000 -0.058374
# 5 -0.006787 -0.000045 -0.014471 0.000000 0.061969 0.000000
# 6 0.000000 0.000000 0.000000 -0.058374 0.000000 0.042460
#
#
# Mechanical properties :
#
#
# Convention : Reuss Voigt Hill
#
# Bulk Modulus (GPa) = 37.99998 60.79778 49.39888
# Shear Modulus (GPa) = 15.32512 30.53852 22.93182
#
# Velocity S-wave (km/s) = 2.65777 3.75180 3.25113
# Velocity P-wave (km/s) = 5.18975 6.84041 6.07144
#
# Compressibility (1/GPa) = 0.02631580
#
# Stress axis : x y z
#
# Youngs Moduli (GPa) = 71.08141 112.66860 48.87807
#
# Poissons Ratio (x) = 0.45536 0.08406
# Poissons Ratio (y) = 0.28728 0.13599
# Poissons Ratio (z) = 0.12225 0.31346
#
# Static dielectric constant tensor:
#      x y z
#    x 1.850280 0.000000 0.047120 
#    y 0.000000 1.849380 0.000000 
#    z 0.047120 0.000000 1.791090 
# 
# From -- ./inp_files/252355.got.cif
#   From: 2010.05.17/outbox.cif.g08.bks.cpg/sg15_127_cif.got.tgz:252355.got - 2010.06.03 18:47:42.
