data_PCOD9263451
_publ_section_title
;
Structure prediction by ZEFSAII (Michael W. Deem and Ramdas Pophale) SiO2 
 PCOD9263451
Probable space group: C 2/C
;
_chemical_formula_sum "Si O2"
_cell_formula_units_Z 52
_cell_length_a 24.728718
_cell_length_b 8.225209
_cell_length_c 13.123396
_cell_angle_alpha 90.000000
_cell_angle_beta 107.183017
_cell_angle_gamma 90.000000
_cell_volume 2550.143069
_symmetry_space_group_name_H-M "C 2/C"
_symmetry_group_IT_number 15
_symmetry_cell_setting 'monoclinic'
loop_
_space_group_symop_operation_xyz
x,y,z
-x,y,1/2-z
-x,-y,-z
x,-y,1/2+z
1/2+x,1/2+y,z
1/2-x,1/2+y,1/2-z
1/2-x,1/2-y,-z
1/2+x,1/2-y,1/2+z
loop_
_atom_site_type_symbol
_atom_site_label
_atom_site_fract_x
_atom_site_fract_y
_atom_site_fract_z
Si Si1 0.110297 0.385790 0.787122
Si Si2 0.817871 0.488303 0.868032
Si Si3 0.716432 0.395684 0.926273
Si Si4 0.000000 0.798470 0.250000
Si Si5 0.051936 0.010588 0.454537
Si Si6 0.662499 0.683588 0.006352
Si Si7 0.613093 0.195823 0.915122
O O1 0.153201 0.432910 0.720481
O O2 0.141682 0.276356 0.891130
O O3 0.093620 0.553787 0.831672
O O4 0.050599 0.302924 0.724457
O O5 0.752097 0.440946 0.846399
O O6 0.822425 0.677431 0.903649
O O7 0.851667 0.389416 0.974683
O O8 0.709919 0.554361 0.995285
O O9 0.654046 0.322214 0.878292
O O10 0.750000 0.250000 0.000000
O O11 0.032674 0.911674 0.345872
O O12 0.064535 0.196237 0.435851
O O13 0.110515 0.924594 0.520535
O O14 0.000000 0.000000 0.500000
#
# Coordination Sequence:
#
# PCOD9263451 Si02
#       7
#     8   8   8   4   8   8   8
#     4  10  21  36  53  78 110 141 178 223 271 321
#     4  10  19  34  57  78 103 144 177 211 270 328
#     4   9  18  35  56  79 109 142 176 220 267 317
#     4  10  22  36  52  78 108 138 176 226 272 318
#     4  10  20  36  56  76 103 141 178 218 268 321
#     4   9  20  36  53  80 113 137 176 229 266 311
#     4   9  20  36  52  78 108 133 176 227 260 311
#
# _framework density 20.391013000000001
#
# number of rings (size 3 to 8) (size 9 to 14) (size 15 to 20)
#    0.000    2.462    0.000    1.385    0.000    4.308 
#    0.000   12.308    0.000    0.000    0.000    0.000 
#    0.000    0.000    0.000    0.000    0.000    0.000 
#
# Total GULP energy -144991.404646 kJ/mol
# GULP energy per Si atom -5576.592486 kJ/mol
# Density = 2.034460 g / cm^3
# Si number density = 20.391013 Si / 1000 Ang^3
#
#
#
# Elastic Constant Matrix: (Units=GPa)
#
#
# Indices 1 2 3 4 5 6 
#
# 1 87.4386 36.0138 4.0965 0.0000 -29.8358 0.0000
# 2 36.0138 120.5007 13.7815 0.0000 -16.4759 0.0000
# 3 4.0965 13.7815 14.1828 0.0000 -12.7873 0.0000
# 4 0.0000 0.0000 0.0000 5.0315 0.0000 -7.0787
# 5 -29.8358 -16.4759 -12.7873 0.0000 28.1960 0.0000
# 6 0.0000 0.0000 0.0000 -7.0787 0.0000 34.5457
#
#
#
# Elastic Compliance Matrix: (Units=1/GPa)
#
#
# Indices 1 2 3 4 5 6 
#
# 1 0.025617 -0.006199 0.033493 0.000000 0.038674 0.000000
# 2 -0.006199 0.010923 -0.015196 0.000000 -0.007068 0.000000
# 3 0.033493 -0.015196 0.168409 0.000000 0.102938 0.000000
# 4 0.000000 0.000000 0.000000 0.279252 0.000000 0.057221
# 5 0.038674 -0.007068 0.102938 0.000000 0.118943 0.000000
# 6 0.000000 0.000000 0.000000 0.057221 0.000000 0.040672
#
#
# Mechanical properties :
#
#
# Convention : Reuss Voigt Hill
#
# Bulk Modulus (GPa) = 4.36405 36.65618 20.51011
# Shear Modulus (GPa) = 7.18390 24.76999 15.97694
#
# Velocity S-wave (km/s) = 1.87902 3.48911 2.80219
# Velocity P-wave (km/s) = 2.61772 5.85214 4.53321
#
# Compressibility (1/GPa) = 0.22914519
#
# Stress axis : x y z
#
# Youngs Moduli (GPa) = 39.03652 91.55132 5.93793
#
# Poissons Ratio (x) = 0.56751 -0.19888
# Poissons Ratio (y) = 0.24198 0.09023
# Poissons Ratio (z) = -1.30746 1.39123
#
# Static dielectric constant tensor:
#      x y z
#    x 1.761830 0.000000 -0.001250 
#    y 0.000000 1.746160 0.000000 
#    z -0.001250 0.000000 1.717230 
# 
# From -- ./inp_files/121558.got.cif
#   From: 2010.05.17/outbox.cif.g08.bks.cpg/sg15_61_cif.got.tgz:121558.got - 2010.06.03 18:47:42.
