data_PCOD9263737
_publ_section_title
;
Structure prediction by ZEFSAII (Michael W. Deem and Ramdas Pophale) SiO2 
 PCOD9263737
Probable space group: C 2/C
;
_chemical_formula_sum "Si O2"
_cell_formula_units_Z 52
_cell_length_a 12.479336
_cell_length_b 31.114668
_cell_length_c 12.389235
_cell_angle_alpha 90.000000
_cell_angle_beta 145.153476
_cell_angle_gamma 90.000000
_cell_volume 2748.693332
_symmetry_space_group_name_H-M "C 2/C"
_symmetry_group_IT_number 15
_symmetry_cell_setting 'monoclinic'
loop_
_space_group_symop_operation_xyz
x,y,z
-x,y,1/2-z
-x,-y,-z
x,-y,1/2+z
1/2+x,1/2+y,z
1/2-x,1/2+y,1/2-z
1/2-x,1/2-y,-z
1/2+x,1/2-y,1/2+z
loop_
_atom_site_type_symbol
_atom_site_label
_atom_site_fract_x
_atom_site_fract_y
_atom_site_fract_z
Si Si1 0.000000 0.421607 0.750000
Si Si2 0.501413 0.715592 0.121528
Si Si3 0.508575 0.107436 0.016356
Si Si4 0.333994 0.438347 0.369052
Si Si5 0.412752 0.374806 0.797286
Si Si6 0.592471 0.189651 0.708385
Si Si7 0.863573 0.981876 0.037699
O O1 0.986578 0.394244 0.849538
O O2 0.814636 0.451532 0.587524
O O3 0.500000 0.720459 0.250000
O O4 0.634908 0.674754 0.210452
O O5 0.527549 0.764373 0.106371
O O6 0.306697 0.698367 0.915744
O O7 0.719694 0.099136 0.148380
O O8 0.355488 0.072923 0.850276
O O9 0.444340 0.151544 0.905371
O O10 0.428139 0.396224 0.498295
O O11 0.496368 0.457564 0.427995
O O12 0.295976 0.473873 0.428543
O O13 0.500000 0.374121 0.750000
O O14 0.500000 0.180242 0.750000
O O15 0.000000 0.991712 0.250000
#
# Coordination Sequence:
#
# PCOD9263737 Si02
#       7
#     4   8   8   8   8   8   8
#     4  12  26  46  68  88 128 180 220 262 310 384
#     4  10  19  34  59  91 134 169 201 254 331 385
#     4  12  25  41  66  95 128 173 219 255 320 382
#     4  11  24  41  66  94 124 166 212 264 324 374
#     4  11  22  39  62  99 132 164 206 269 325 385
#     4  11  20  36  59  95 129 167 210 263 318 387
#     4  11  24  45  66  91 125 165 215 265 321 382
#
# _framework density 18.91808
#
# number of rings (size 3 to 8) (size 9 to 14) (size 15 to 20)
#    0.000    0.923    4.615    5.077    0.000    3.077 
#    0.000    0.000    0.000    3.692    0.000    0.000 
#    0.000    0.000    0.000    0.000    0.000    0.000 
#
# Total GULP energy -145080.801819 kJ/mol
# GULP energy per Si atom -5580.030839 kJ/mol
# Density = 1.887502 g / cm^3
# Si number density = 18.918080 Si / 1000 Ang^3
#
#
#
# Elastic Constant Matrix: (Units=GPa)
#
#
# Indices 1 2 3 4 5 6 
#
# 1 77.6715 39.4449 47.1969 0.0000 -2.8870 0.0000
# 2 39.4449 94.9899 33.4667 0.0000 -15.1903 0.0000
# 3 47.1969 33.4667 126.0097 0.0000 -0.9998 0.0000
# 4 0.0000 0.0000 0.0000 29.0633 0.0000 6.0736
# 5 -2.8870 -15.1903 -0.9998 0.0000 37.0919 0.0000
# 6 0.0000 0.0000 0.0000 6.0736 0.0000 17.4869
#
#
#
# Elastic Compliance Matrix: (Units=1/GPa)
#
#
# Indices 1 2 3 4 5 6 
#
# 1 0.019437 -0.006285 -0.005620 0.000000 -0.001212 0.000000
# 2 -0.006285 0.014517 -0.001459 0.000000 0.005417 0.000000
# 3 -0.005620 -0.001459 0.010422 0.000000 -0.000754 0.000000
# 4 0.000000 0.000000 0.000000 0.037101 0.000000 -0.012886
# 5 -0.001212 0.005417 -0.000754 0.000000 0.029064 0.000000
# 6 0.000000 0.000000 0.000000 -0.012886 0.000000 0.061661
#
#
# Mechanical properties :
#
#
# Convention : Reuss Voigt Hill
#
# Bulk Modulus (GPa) = 56.66182 59.87645 58.26913
# Shear Modulus (GPa) = 24.41254 28.63258 26.52256
#
# Velocity S-wave (km/s) = 3.59616 3.89460 3.74835
# Velocity P-wave (km/s) = 6.87454 7.20715 7.04281
#
# Compressibility (1/GPa) = 0.01764857
#
# Stress axis : x y z
#
# Youngs Moduli (GPa) = 51.44934 68.88290 95.94667
#
# Poissons Ratio (x) = 0.43292 0.53926
# Poissons Ratio (y) = 0.32335 0.13996
# Poissons Ratio (z) = 0.28917 0.10048
#
# Static dielectric constant tensor:
#      x y z
#    x 1.666020 0.000000 -0.000860 
#    y 0.000000 1.715470 0.000000 
#    z -0.000860 0.000000 1.743350 
# 
# From -- ./inp_files/92631.got.cif
#   From: 2010.05.17/outbox.cif.g08.bks.cpg/sg15_47_cif.got.tgz:92631.got - 2010.06.03 18:47:42.
