data_PCOD9263707
_publ_section_title
;
Structure prediction by ZEFSAII (Michael W. Deem and Ramdas Pophale) SiO2 
 PCOD9263707
Probable space group: C 2/C
;
_chemical_formula_sum "Si O2"
_cell_formula_units_Z 64
_cell_length_a 12.344052
_cell_length_b 15.509086
_cell_length_c 28.895703
_cell_angle_alpha 90.000000
_cell_angle_beta 141.992692
_cell_angle_gamma 90.000000
_cell_volume 3406.356371
_symmetry_space_group_name_H-M "C 2/C"
_symmetry_group_IT_number 15
_symmetry_cell_setting 'monoclinic'
loop_
_space_group_symop_operation_xyz
x,y,z
-x,y,1/2-z
-x,-y,-z
x,-y,1/2+z
1/2+x,1/2+y,z
1/2-x,1/2+y,1/2-z
1/2-x,1/2-y,-z
1/2+x,1/2-y,1/2+z
loop_
_atom_site_type_symbol
_atom_site_label
_atom_site_fract_x
_atom_site_fract_y
_atom_site_fract_z
Si Si1 0.411624 0.899179 0.796633
Si Si2 0.634701 0.263537 0.336573
Si Si3 0.777606 0.708662 0.327796
Si Si4 0.917777 0.838944 0.876377
Si Si5 0.998227 0.986592 0.444539
Si Si6 0.613028 0.067039 0.831370
Si Si7 0.120837 0.178729 0.933487
Si Si8 0.579091 0.250145 0.847963
O O1 0.543700 0.823283 0.825727
O O2 0.352613 0.877509 0.828962
O O3 0.240722 0.883325 0.707009
O O4 0.510634 0.988372 0.820958
O O5 0.500000 0.294529 0.250000
O O6 0.816377 0.228849 0.375494
O O7 0.654311 0.323689 0.388873
O O8 0.611248 0.738545 0.241105
O O9 0.714008 0.702571 0.358937
O O10 0.926995 0.780712 0.374082
O O11 0.050135 0.790153 0.887641
O O12 0.021616 0.917952 0.933268
O O13 0.794945 0.961174 0.370091
O O14 0.115980 0.912107 0.459992
O O15 0.000000 0.000000 0.500000
O O16 0.500000 0.097428 0.750000
O O17 0.633362 0.150698 0.869515
O O18 0.250000 0.250000 0.000000
#
# Coordination Sequence:
#
# PCOD9263707 Si02
#       8
#     8   8   8   8   8   8   8   8
#     4   9  17  29  57  85 114 145 187 245 289 337
#     4   9  17  34  57  83 115 153 196 247 304 347
#     4   9  18  34  55  85 117 154 190 235 301 349
#     4  10  19  35  56  85 117 147 186 243 301 342
#     4  12  24  37  58  88 118 152 203 249 291 358
#     4  12  18  34  60  88 112 146 202 244 284 345
#     4  11  22  36  59  87 121 159 201 248 300 363
#     4  10  19  34  59  87 118 149 193 247 294 356
#
# _framework density 18.788404
#
# number of rings (size 3 to 8) (size 9 to 14) (size 15 to 20)
#    0.000    1.750    5.000    1.875    1.750    0.000 
#    0.000    1.875    2.750    0.750    0.000    0.000 
#    0.000    0.000    0.000    0.000    0.000    0.000 
#
# Total GULP energy -178284.796016 kJ/mol
# GULP energy per Si atom -5571.399876 kJ/mol
# Density = 1.874564 g / cm^3
# Si number density = 18.788404 Si / 1000 Ang^3
#
#
#
# Elastic Constant Matrix: (Units=GPa)
#
#
# Indices 1 2 3 4 5 6 
#
# 1 127.8544 50.8485 16.7521 0.0000 -18.1633 0.0000
# 2 50.8485 80.7561 1.0756 0.0000 -19.9142 0.0000
# 3 16.7521 1.0756 16.9943 0.0000 -16.2248 0.0000
# 4 0.0000 0.0000 0.0000 14.4544 0.0000 -5.8585
# 5 -18.1633 -19.9142 -16.2248 0.0000 25.1150 0.0000
# 6 0.0000 0.0000 0.0000 -5.8585 0.0000 43.9180
#
#
#
# Elastic Compliance Matrix: (Units=1/GPa)
#
#
# Indices 1 2 3 4 5 6 
#
# 1 0.015790 -0.016479 -0.041997 0.000000 -0.028778 0.000000
# 2 -0.016479 0.040122 0.085326 0.000000 0.075018 0.000000
# 3 -0.041997 0.085326 0.340359 0.000000 0.257162 0.000000
# 4 0.000000 0.000000 0.000000 0.073137 0.000000 0.009756
# 5 -0.028778 0.075018 0.257162 0.000000 0.244618 0.000000
# 6 0.000000 0.000000 0.000000 0.009756 0.000000 0.024071
#
#
# Mechanical properties :
#
#
# Convention : Reuss Voigt Hill
#
# Bulk Modulus (GPa) = 2.22237 40.32856 21.27547
# Shear Modulus (GPa) = 5.99242 27.15940 16.57591
#
# Velocity S-wave (km/s) = 1.78783 3.80615 2.97348
# Velocity P-wave (km/s) = 2.33393 6.38959 4.81010
#
# Compressibility (1/GPa) = 0.44996923
#
# Stress axis : x y z
#
# Youngs Moduli (GPa) = 63.33258 24.92399 2.93808
#
# Poissons Ratio (x) = 0.41073 0.12339
# Poissons Ratio (y) = 1.04368 -0.25069
# Poissons Ratio (z) = 2.65978 -2.12666
#
# Static dielectric constant tensor:
#      x y z
#    x 1.679700 0.000000 -0.041710 
#    y 0.000000 1.687540 0.000000 
#    z -0.041710 0.000000 1.693540 
# 
# From -- ./inp_files/311226.got.cif
#   From: 2010.05.17/outbox.cif.g08.bks.cpg/sg15_156_cif.got.tgz:311226.got - 2010.06.03 18:47:42.
