data_PCOD9263962
_publ_section_title
;
Structure prediction by ZEFSAII (Michael W. Deem and Ramdas Pophale) SiO2 
 PCOD9263962
Probable space group: C 2/C
;
_chemical_formula_sum "Si O2"
_cell_formula_units_Z 48
_cell_length_a 17.250877
_cell_length_b 22.425721
_cell_length_c 15.167587
_cell_angle_alpha 90.000000
_cell_angle_beta 28.922616
_cell_angle_gamma 90.000000
_cell_volume 2837.823926
_symmetry_space_group_name_H-M "C 2/C"
_symmetry_group_IT_number 15
_symmetry_cell_setting 'monoclinic'
loop_
_space_group_symop_operation_xyz
x,y,z
-x,y,1/2-z
-x,-y,-z
x,-y,1/2+z
1/2+x,1/2+y,z
1/2-x,1/2+y,1/2-z
1/2-x,1/2-y,-z
1/2+x,1/2-y,1/2+z
loop_
_atom_site_type_symbol
_atom_site_label
_atom_site_fract_x
_atom_site_fract_y
_atom_site_fract_z
Si Si1 0.000000 0.005128 0.250000
Si Si2 0.206339 0.332489 0.608281
Si Si3 0.166322 0.442065 0.539068
Si Si4 0.500060 0.560678 0.059072
Si Si5 0.000000 0.227189 0.750000
Si Si6 0.332865 0.056328 0.673008
Si Si7 0.330160 0.918165 0.690238
O O1 0.998935 0.043150 0.340171
O O2 0.833115 0.968004 0.411686
O O3 0.171669 0.371730 0.555666
O O4 0.390687 0.313738 0.419974
O O5 0.168414 0.375574 0.726919
O O6 0.108315 0.271447 0.700438
O O7 0.168093 0.451621 0.432450
O O8 0.000000 0.464621 0.750000
O O9 0.334297 0.592409 0.198597
O O10 0.500000 0.500000 0.000000
O O11 0.670696 0.589000 0.863528
O O12 0.500686 0.087621 0.528554
O O13 0.330390 0.989009 0.714588
#
# Coordination Sequence:
#
# PCOD9263962 Si02
#       7
#     4   8   8   8   4   8   8
#     4  12  23  32  50  78 114 148 186 213 260 324
#     4  11  21  36  53  74 109 144 194 223 283 305
#     4  12  21  32  53  78 106 157 184 214 270 325
#     4  10  20  33  46  73 106 143 181 216 255 320
#     4  10  23  36  52  76 100 144 196 249 252 328
#     4  10  20  31  50  76 109 136 192 214 254 335
#     4  10  19  35  48  73 103 144 174 226 259 329
#
# _framework density 16.914368
#
# number of rings (size 3 to 8) (size 9 to 14) (size 15 to 20)
#    0.000    1.333    5.833    2.500    4.667    0.000 
#    0.000    0.000    0.000    0.000    0.000    0.000 
#    0.000    1.333    0.000    0.333    0.000    0.000 
#
# Total GULP energy -133730.441850 kJ/mol
# GULP energy per Si atom -5572.101744 kJ/mol
# Density = 1.687587 g / cm^3
# Si number density = 16.914368 Si / 1000 Ang^3
#
#
#
# Elastic Constant Matrix: (Units=GPa)
#
#
# Indices 1 2 3 4 5 6 
#
# 1 75.3015 12.5662 43.9297 -0.0063 -6.6384 0.0029
# 2 12.5662 41.5697 27.2757 0.0056 3.2870 -0.0011
# 3 43.9297 27.2757 150.1733 -0.0057 -29.4014 0.0101
# 4 -0.0063 0.0056 -0.0057 24.7656 0.0048 2.1789
# 5 -6.6384 3.2870 -29.4014 0.0048 43.6237 -0.0063
# 6 0.0029 -0.0011 0.0101 2.1789 -0.0063 12.2451
#
#
#
# Elastic Compliance Matrix: (Units=1/GPa)
#
#
# Indices 1 2 3 4 5 6 
#
# 1 0.016167 -0.001932 -0.004456 0.000004 -0.000398 -0.000001
# 2 -0.001932 0.029091 -0.005997 -0.000008 -0.006528 0.000006
# 3 -0.004456 -0.005997 0.010377 0.000002 0.006767 -0.000005
# 4 0.000004 -0.000008 0.000002 0.041021 -0.000003 -0.007299
# 5 -0.000398 -0.006528 0.006767 -0.000003 0.027916 0.000009
# 6 -0.000001 0.000006 -0.000005 -0.007299 0.000009 0.082964
#
#
# Mechanical properties :
#
#
# Convention : Reuss Voigt Hill
#
# Bulk Modulus (GPa) = 32.39904 48.28755 40.34330
# Shear Modulus (GPa) = 20.61072 28.34508 24.47790
#
# Velocity S-wave (km/s) = 3.49454 4.09809 3.80829
# Velocity P-wave (km/s) = 5.95640 7.14162 6.57577
#
# Compressibility (1/GPa) = 0.03086511
#
# Stress axis : x y z
#
# Youngs Moduli (GPa) = 61.85452 34.37523 96.37041
#
# Poissons Ratio (x) = 0.06640 0.42945
# Poissons Ratio (y) = 0.11949 0.57789
# Poissons Ratio (z) = 0.27564 0.20613
#
# Static dielectric constant tensor:
#      x y z
#    x 1.617310 0.000000 -0.073020 
#    y 0.000000 1.545340 0.000000 
#    z -0.073020 0.000000 1.669280 
# 
# From -- ./inp_files/40732.got.cif
#   From: 2010.05.17/outbox.cif.g08.bks.cpg/sg15_21_cif.got.tgz:40732.got - 2010.06.03 18:47:42.
