data_PCOD9263810
_publ_section_title
;
Structure prediction by ZEFSAII (Michael W. Deem and Ramdas Pophale) SiO2 
 PCOD9263810
Probable space group: C 2/C
;
_chemical_formula_sum "Si O2"
_cell_formula_units_Z 60
_cell_length_a 10.060897
_cell_length_b 20.605722
_cell_length_c 19.524497
_cell_angle_alpha 90.000000
_cell_angle_beta 139.262497
_cell_angle_gamma 90.000000
_cell_volume 2641.482901
_symmetry_space_group_name_H-M "C 2/C"
_symmetry_group_IT_number 15
_symmetry_cell_setting 'monoclinic'
loop_
_space_group_symop_operation_xyz
x,y,z
-x,y,1/2-z
-x,-y,-z
x,-y,1/2+z
1/2+x,1/2+y,z
1/2-x,1/2+y,1/2-z
1/2-x,1/2-y,-z
1/2+x,1/2-y,1/2+z
loop_
_atom_site_type_symbol
_atom_site_label
_atom_site_fract_x
_atom_site_fract_y
_atom_site_fract_z
Si Si1 0.506551 0.334454 0.410550
Si Si2 0.115858 0.398102 0.589725
Si Si3 0.659224 0.219333 0.555199
Si Si4 0.726381 0.952626 0.952921
Si Si5 0.083073 0.695999 0.684454
Si Si6 0.757476 0.097408 0.989600
Si Si7 0.000000 0.628223 0.250000
Si Si8 0.859649 0.160627 0.299140
O O1 0.587657 0.290859 0.505537
O O2 0.626473 0.300307 0.394237
O O3 0.586950 0.407574 0.449831
O O4 0.268597 0.329877 0.302374
O O5 0.175336 0.413017 0.535432
O O6 0.300921 0.387267 0.714271
O O7 0.003838 0.328313 0.544226
O O8 0.951634 0.445985 0.559112
O O9 0.650010 0.202997 0.631109
O O10 0.633202 0.917933 0.850332
O O11 0.773146 0.027671 0.960742
O O12 0.048183 0.771178 0.690079
O O13 0.891460 0.647785 0.606916
O O14 0.976016 0.128488 0.087475
O O15 0.850765 0.668981 0.240570
#
# Coordination Sequence:
#
# PCOD9263810 Si02
#       8
#     8   8   8   8   8   8   4   8
#     4  10  19  34  60  93 124 159 210 263 311 373
#     4   9  19  39  64  89 121 168 212 262 313 371
#     4   9  18  33  57  93 122 154 206 271 315 354
#     4  10  22  41  64  94 128 166 214 257 314 383
#     4  11  22  36  61  90 127 161 211 262 322 378
#     4  11  24  40  60  91 135 172 206 256 320 394
#     4  10  24  42  70  92 122 168 216 270 318 378
#     4  11  22  40  64  91 123 168 214 269 323 376
#
# _framework density 22.714514999999999
#
# number of rings (size 3 to 8) (size 9 to 14) (size 15 to 20)
#    0.000    1.867    1.333    2.400    3.733    2.667 
#    0.000    5.333    2.933    0.000    0.000    0.000 
#    0.000    0.000    0.000    0.000    0.000    0.000 
#
# Total GULP energy -167865.210887 kJ/mol
# GULP energy per Si atom -5595.507030 kJ/mol
# Density = 2.266282 g / cm^3
# Si number density = 22.714515 Si / 1000 Ang^3
#
#
#
# Elastic Constant Matrix: (Units=GPa)
#
#
# Indices 1 2 3 4 5 6 
#
# 1 79.4447 10.0560 12.7335 0.0000 -15.9361 -0.0001
# 2 10.0560 154.6553 71.1324 0.0000 16.9198 0.0000
# 3 12.7335 71.1324 133.5864 -0.0001 11.1037 -0.0001
# 4 0.0000 0.0000 -0.0001 51.1980 -0.0001 -9.3304
# 5 -15.9361 16.9198 11.1037 -0.0001 24.4256 -0.0001
# 6 -0.0001 0.0000 -0.0001 -9.3304 -0.0001 20.4977
#
#
#
# Elastic Compliance Matrix: (Units=1/GPa)
#
#
# Indices 1 2 3 4 5 6 
#
# 1 0.015429 -0.001553 -0.001632 0.000000 0.011884 0.000000
# 2 -0.001553 0.009115 -0.004257 0.000000 -0.005392 0.000000
# 3 -0.001632 -0.004257 0.010135 0.000000 -0.002722 0.000000
# 4 0.000000 0.000000 0.000000 0.021299 0.000000 0.009695
# 5 0.011884 -0.005392 -0.002722 0.000000 0.053667 0.000000
# 6 0.000000 0.000000 0.000000 0.009695 0.000000 0.053199
#
#
# Mechanical properties :
#
#
# Convention : Reuss Voigt Hill
#
# Bulk Modulus (GPa) = 50.51774 61.72558 56.12166
# Shear Modulus (GPa) = 27.12585 37.47521 32.30053
#
# Velocity S-wave (km/s) = 3.45948 4.06622 3.77506
# Velocity P-wave (km/s) = 6.18433 7.01990 6.61532
#
# Compressibility (1/GPa) = 0.01979503
#
# Stress axis : x y z
#
# Youngs Moduli (GPa) = 64.81165 109.70915 98.67193
#
# Poissons Ratio (x) = 0.17037 0.16099
# Poissons Ratio (y) = 0.10065 0.42008
# Poissons Ratio (z) = 0.10575 0.46707
#
# Static dielectric constant tensor:
#      x y z
#    x 1.896670 0.000000 0.014170 
#    y 0.000000 1.809960 0.000000 
#    z 0.014170 0.000000 1.812850 
# 
# From -- ./inp_files/271062.got.cif
#   From: 2010.05.17/outbox.cif.g08.bks.cpg/sg15_136_cif.got.tgz:271062.got - 2010.06.03 18:47:42.
