data_PCOD9263096
_publ_section_title
;
Structure prediction by ZEFSAII (Michael W. Deem and Ramdas Pophale) SiO2 
 PCOD9263096
Probable space group: C 2/C
;
_chemical_formula_sum "Si O2"
_cell_formula_units_Z 56
_cell_length_a 12.274870
_cell_length_b 22.162550
_cell_length_c 12.806581
_cell_angle_alpha 90.000000
_cell_angle_beta 121.548339
_cell_angle_gamma 90.000000
_cell_volume 2969.004611
_symmetry_space_group_name_H-M "C 2/C"
_symmetry_group_IT_number 15
_symmetry_cell_setting 'monoclinic'
loop_
_space_group_symop_operation_xyz
x,y,z
-x,y,1/2-z
-x,-y,-z
x,-y,1/2+z
1/2+x,1/2+y,z
1/2-x,1/2+y,1/2-z
1/2-x,1/2-y,-z
1/2+x,1/2-y,1/2+z
loop_
_atom_site_type_symbol
_atom_site_label
_atom_site_fract_x
_atom_site_fract_y
_atom_site_fract_z
Si Si1 0.812765 0.328137 0.255994
Si Si2 0.144111 0.394027 0.811388
Si Si3 0.725258 0.343493 0.983054
Si Si4 0.629639 0.079086 0.535810
Si Si5 0.324235 0.941752 0.883726
Si Si6 0.045662 0.256449 0.450172
Si Si7 0.417283 0.240079 0.303428
O O1 0.782781 0.354522 0.127096
O O2 0.823558 0.379919 0.346554
O O3 0.700385 0.282575 0.229624
O O4 0.941284 0.288611 0.327244
O O5 0.214112 0.431935 0.756740
O O6 0.129239 0.326177 0.758181
O O7 0.000000 0.420027 0.750000
O O8 0.184356 0.397189 0.952236
O O9 0.823807 0.295339 0.982603
O O10 0.737073 0.401228 0.915536
O O11 0.590515 0.309212 0.932655
O O12 0.473345 0.080964 0.462172
O O13 0.670890 0.010339 0.576295
O O14 0.001226 0.260319 0.548466
O O15 0.500000 0.264734 0.250000
#
# Coordination Sequence:
#
# PCOD9263096 Si02
#       7
#     8   8   8   8   8   8   8
#     4  11  21  34  55  87 107 139 187 227 275 337
#     4   9  17  33  48  69 105 138 171 219 274 318
#     4  10  20  33  53  75 113 149 177 227 272 328
#     4  10  21  30  50  78 105 143 184 227 271 326
#     4  10  19  34  48  72 110 147 182 222 275 324
#     4  10  19  34  50  79 110 144 179 224 275 320
#     4  10  20  34  56  79 111 142 171 228 283 330
#
# _framework density 18.861540000000002
#
# number of rings (size 3 to 8) (size 9 to 14) (size 15 to 20)
#    0.000    2.000    2.857    2.143    2.000    2.286 
#    0.000    0.000    0.000    0.000    3.714    3.000 
#    0.000    0.000    0.000    0.000    0.000    0.000 
#
# Total GULP energy -156116.631294 kJ/mol
# GULP energy per Si atom -5575.593975 kJ/mol
# Density = 1.881861 g / cm^3
# Si number density = 18.861540 Si / 1000 Ang^3
#
#
#
# Elastic Constant Matrix: (Units=GPa)
#
#
# Indices 1 2 3 4 5 6 
#
# 1 54.6071 28.6146 36.8849 0.0000 -34.5638 0.0000
# 2 28.6146 90.8003 39.7200 0.0000 -20.3582 0.0000
# 3 36.8849 39.7200 86.3725 0.0000 -45.6292 0.0000
# 4 0.0000 0.0000 0.0000 29.8048 0.0000 -5.9761
# 5 -34.5638 -20.3582 -45.6292 0.0000 38.7346 0.0000
# 6 0.0000 0.0000 0.0000 -5.9761 0.0000 24.3877
#
#
#
# Elastic Compliance Matrix: (Units=1/GPa)
#
#
# Indices 1 2 3 4 5 6 
#
# 1 0.047104 -0.007988 0.009386 0.000000 0.048890 0.000000
# 2 -0.007988 0.015146 -0.008246 0.000000 -0.008881 0.000000
# 3 0.009386 -0.008246 0.035735 0.000000 0.046137 0.000000
# 4 0.000000 0.000000 0.000000 0.035285 0.000000 0.008647
# 5 0.048890 -0.008881 0.046137 0.000000 0.119125 0.000000
# 6 0.000000 0.000000 0.000000 0.008647 0.000000 0.043123
#
#
# Mechanical properties :
#
#
# Convention : Reuss Voigt Hill
#
# Bulk Modulus (GPa) = 11.86385 49.13541 30.49963
# Shear Modulus (GPa) = 14.82311 27.02279 20.92295
#
# Velocity S-wave (km/s) = 2.80642 3.78920 3.33422
# Velocity P-wave (km/s) = 4.09938 6.72690 5.57028
#
# Compressibility (1/GPa) = 0.08428966
#
# Stress axis : x y z
#
# Youngs Moduli (GPa) = 21.22962 66.02211 27.98372
#
# Poissons Ratio (x) = 0.52742 -0.26266
# Poissons Ratio (y) = 0.16959 0.23074
# Poissons Ratio (z) = -0.19926 0.54439
#
# Static dielectric constant tensor:
#      x y z
#    x 1.671500 0.000000 -0.028250 
#    y 0.000000 1.647420 0.000000 
#    z -0.028250 0.000000 1.715630 
# 
# From -- ./inp_files/90331.got.cif
#   From: 2010.05.17/outbox.cif.g08.bks.cpg/sg15_46_cif.got.tgz:90331.got - 2010.06.03 18:47:42.
