data_PCOD9263427
_publ_section_title
;
Structure prediction by ZEFSAII (Michael W. Deem and Ramdas Pophale) SiO2 
 PCOD9263427
Probable space group: C 2/C
;
_chemical_formula_sum "Si O2"
_cell_formula_units_Z 48
_cell_length_a 27.490206
_cell_length_b 11.656491
_cell_length_c 11.482182
_cell_angle_alpha 90.000000
_cell_angle_beta 152.340771
_cell_angle_gamma 90.000000
_cell_volume 1707.994688
_symmetry_space_group_name_H-M "C 2/C"
_symmetry_group_IT_number 15
_symmetry_cell_setting 'monoclinic'
loop_
_space_group_symop_operation_xyz
x,y,z
-x,y,1/2-z
-x,-y,-z
x,-y,1/2+z
1/2+x,1/2+y,z
1/2-x,1/2+y,1/2-z
1/2-x,1/2-y,-z
1/2+x,1/2-y,1/2+z
loop_
_atom_site_type_symbol
_atom_site_label
_atom_site_fract_x
_atom_site_fract_y
_atom_site_fract_z
Si Si1 0.500000 0.150276 0.250000
Si Si2 0.000000 0.970297 0.750000
Si Si3 0.465625 0.170629 0.519364
Si Si4 0.926495 0.846134 0.261976
Si Si5 0.720633 0.609432 0.634119
Si Si6 0.713650 0.134732 0.189850
Si Si7 0.862630 0.447277 0.250117
O O1 0.444246 0.235983 0.219163
O O2 0.572854 0.080764 0.492647
O O3 0.997971 0.057782 0.633807
O O4 0.896436 0.902125 0.564311
O O5 0.452816 0.298970 0.444393
O O6 0.400846 0.158011 0.500181
O O7 0.583452 0.129365 0.735394
O O8 0.394733 0.077709 0.295749
O O9 0.804491 0.871945 0.984045
O O10 0.745745 0.745367 0.697329
O O11 0.772583 0.500196 0.818722
O O12 0.748534 0.585301 0.556018
#
# Coordination Sequence:
#
# PCOD9263427 Si02
#       7
#     4   4   8   8   8   8   8
#     4   9  14  26  51  80 106 139 193 230 270 331
#     4   9  20  34  57  82 110 153 191 238 278 339
#     4   9  18  29  52  85 115 139 187 241 282 325
#     4   9  16  30  54  81 107 143 194 235 270 328
#     4  10  20  36  59  82 114 149 198 230 281 334
#     4  10  19  34  56  87 110 149 190 239 279 336
#     4   9  17  31  51  83 113 147 180 239 286 325
#
# _framework density 28.103131000000001
#
# number of rings (size 3 to 8) (size 9 to 14) (size 15 to 20)
#    0.000    2.667    1.667    0.500    2.333    0.000 
#    0.000    4.167    0.000    1.000    0.000    0.000 
#    0.000    0.000    0.000    0.000    0.000    0.000 
#
# Total GULP energy -133690.578574 kJ/mol
# GULP energy per Si atom -5570.440774 kJ/mol
# Density = 2.803917 g / cm^3
# Si number density = 28.103131 Si / 1000 Ang^3
#
#
#
# Elastic Constant Matrix: (Units=GPa)
#
#
# Indices 1 2 3 4 5 6 
#
# 1 166.3225 63.0777 21.2042 0.0000 33.7425 0.0000
# 2 63.0777 188.4766 27.2050 0.0000 -1.8569 0.0000
# 3 21.2042 27.2050 76.1518 0.0000 33.8598 0.0000
# 4 0.0000 0.0000 0.0000-3289.1943 0.0000 603.2841
# 5 33.7425 -1.8569 33.8598 0.0000 47.2723 0.0000
# 6 0.0000 0.0000 0.0000 603.2841 0.0000 -56.0453
#
#
#
# Elastic Compliance Matrix: (Units=1/GPa)
#
#
# Indices 1 2 3 4 5 6 
#
# 1 0.008560 -0.003273 0.002288 0.000000 -0.007878 0.000000
# 2 -0.003273 0.007041 -0.004058 0.000000 0.005519 0.000000
# 3 0.002288 -0.004058 0.021630 0.000000 -0.017286 0.000000
# 4 0.000000 0.000000 0.000000 0.000312 0.000000 0.003359
# 5 -0.007878 0.005519 -0.017286 0.000000 0.039375 0.000000
# 6 0.000000 0.000000 0.000000 0.003359 0.000000 0.018313
#
#
# Mechanical properties :
#
#
# Convention : Reuss Voigt Hill
#
# Bulk Modulus (GPa) = 36.83763 72.65830 54.74796
# Shear Modulus (GPa) = 43.71927 -638.29586 -297.28830
#
# Velocity S-wave (km/s) = 3.94848 -15.08706 -10.29633
# Velocity P-wave (km/s) = 5.82441 16.66080 11.03762
#
# Compressibility (1/GPa) = 0.02714616
#
# Stress axis : x y z
#
# Youngs Moduli (GPa) = 116.82194 142.02241 46.23151
#
# Poissons Ratio (x) = 0.46480 -0.10579
# Poissons Ratio (y) = 0.38233 0.18762
# Poissons Ratio (z) = -0.26733 0.57637
#
# Static dielectric constant tensor:
#      x y z
#    x 2.395950 0.000000 -0.091060 
#    y 0.000000 2.198530 0.000000 
#    z -0.091060 0.000000 2.330880 
# 
# From -- ./inp_files/151988.got.cif
#   From: 2010.05.17/outbox.cif.g08.bks.cpg/sg15_76_cif.got.tgz:151988.got - 2010.06.03 18:47:42.
