data_PCOD9263226
_publ_section_title
;
Structure prediction by ZEFSAII (Michael W. Deem and Ramdas Pophale) SiO2 
 PCOD9263226
Probable space group: C 2/C
;
_chemical_formula_sum "Si O2"
_cell_formula_units_Z 56
_cell_length_a 11.422384
_cell_length_b 23.720964
_cell_length_c 8.671460
_cell_angle_alpha 90.000000
_cell_angle_beta 107.317062
_cell_angle_gamma 90.000000
_cell_volume 2243.032638
_symmetry_space_group_name_H-M "C 2/C"
_symmetry_group_IT_number 15
_symmetry_cell_setting 'monoclinic'
loop_
_space_group_symop_operation_xyz
x,y,z
-x,y,1/2-z
-x,-y,-z
x,-y,1/2+z
1/2+x,1/2+y,z
1/2-x,1/2+y,1/2-z
1/2-x,1/2-y,-z
1/2+x,1/2-y,1/2+z
loop_
_atom_site_type_symbol
_atom_site_label
_atom_site_fract_x
_atom_site_fract_y
_atom_site_fract_z
Si Si1 0.801933 0.345205 0.337691
Si Si2 0.871863 0.175833 0.031375
Si Si3 0.188395 0.598569 0.098981
Si Si4 0.674059 0.048720 0.797897
Si Si5 0.914102 0.124390 0.564335
Si Si6 0.000000 0.556305 0.250000
Si Si7 0.000000 0.725303 0.750000
Si Si8 0.634037 0.491531 0.317588
O O1 0.846714 0.411602 0.359957
O O2 0.711841 0.341449 0.451027
O O3 0.918974 0.308118 0.344097
O O4 0.709231 0.329897 0.157197
O O5 0.788655 0.146585 0.130145
O O6 0.909823 0.236123 0.111027
O O7 0.999494 0.143782 0.040460
O O8 0.264133 0.539344 0.127030
O O9 0.078793 0.596994 0.173263
O O10 0.132332 0.593318 0.907847
O O11 0.818772 0.038438 0.822942
O O12 0.605670 0.991818 0.816659
O O13 0.877734 0.058176 0.560006
O O14 0.000000 0.130969 0.750000
O O15 0.500000 0.516431 0.250000
#
# Coordination Sequence:
#
# PCOD9263226 Si02
#       8
#     8   8   8   8   8   4   4   8
#     4   9  19  38  62  81 108 141 190 238 279 313
#     4  10  22  37  56  81 115 147 182 228 282 334
#     4  10  20  33  52  78 114 151 174 220 270 325
#     4   9  18  33  55  80 101 140 188 227 260 318
#     4   8  16  35  58  82 109 143 185 231 264 322
#     4  10  19  34  54  78 114 144 185 214 268 328
#     4  12  23  36  60  82 110 148 181 234 284 340
#     4   9  17  29  51  82 111 143 180 211 262 322
#
# _framework density 24.966197999999999
#
# number of rings (size 3 to 8) (size 9 to 14) (size 15 to 20)
#    0.000    2.571    0.000    3.857    1.000    2.857 
#    2.571    0.000   11.000    0.000    0.000    0.000 
#    0.000    0.000    0.000    0.000    0.000    0.000 
#
# Total GULP energy -155880.385353 kJ/mol
# GULP energy per Si atom -5567.156620 kJ/mol
# Density = 2.490937 g / cm^3
# Si number density = 24.966198 Si / 1000 Ang^3
#
#
#
# Elastic Constant Matrix: (Units=GPa)
#
#
# Indices 1 2 3 4 5 6 
#
# 1 247.5401 65.9270 40.6267 0.0000 -47.6995 0.0000
# 2 65.9270 75.0798 9.7278 0.0000 -20.4298 0.0000
# 3 40.6267 9.7278 22.8202 0.0000 -7.4195 0.0000
# 4 0.0000 0.0000 0.0000 15.3262 0.0000 8.5425
# 5 -47.6995 -20.4298 -7.4195 0.0000 39.2535 0.0000
# 6 0.0000 0.0000 0.0000 8.5425 0.0000 37.6392
#
#
#
# Elastic Compliance Matrix: (Units=1/GPa)
#
#
# Indices 1 2 3 4 5 6 
#
# 1 0.007926 -0.004092 -0.010577 0.000000 0.005502 0.000000
# 2 -0.004092 0.018026 0.001102 0.000000 0.004618 0.000000
# 3 -0.010577 0.001102 0.061999 0.000000 -0.000560 0.000000
# 4 0.000000 0.000000 0.000000 0.074697 0.000000 -0.016953
# 5 0.005502 0.004618 -0.000560 0.000000 0.034459 0.000000
# 6 0.000000 0.000000 0.000000 -0.016953 0.000000 0.030416
#
#
# Mechanical properties :
#
#
# Convention : Reuss Voigt Hill
#
# Bulk Modulus (GPa) = 16.44281 64.22259 40.33270
# Shear Modulus (GPa) = 18.18664 33.72103 25.95384
#
# Velocity S-wave (km/s) = 2.70191 3.67913 3.22772
# Velocity P-wave (km/s) = 4.04154 6.62025 5.48460
#
# Compressibility (1/GPa) = 0.06081687
#
# Stress axis : x y z
#
# Youngs Moduli (GPa) = 126.17276 55.47559 16.12940
#
# Poissons Ratio (x) = 0.22700 0.17060
# Poissons Ratio (y) = 0.51628 -0.01777
# Poissons Ratio (z) = 1.33450 -0.06113
#
# Static dielectric constant tensor:
#      x y z
#    x 1.972790 0.000000 0.003850 
#    y 0.000000 2.034130 0.000000 
#    z 0.003850 0.000000 2.216650 
# 
# From -- ./inp_files/90432.got.cif
#   From: 2010.05.17/outbox.cif.g08.bks.cpg/sg15_46_cif.got.tgz:90432.got - 2010.06.03 18:47:42.
