data_PCOD9263408
_publ_section_title
;
Structure prediction by ZEFSAII (Michael W. Deem and Ramdas Pophale) SiO2 
 PCOD9263408
Probable space group: C 2/C
;
_chemical_formula_sum "Si O2"
_cell_formula_units_Z 56
_cell_length_a 27.218979
_cell_length_b 10.757429
_cell_length_c 15.449967
_cell_angle_alpha 90.000000
_cell_angle_beta 39.318515
_cell_angle_gamma 90.000000
_cell_volume 2866.449046
_symmetry_space_group_name_H-M "C 2/C"
_symmetry_group_IT_number 15
_symmetry_cell_setting 'monoclinic'
loop_
_space_group_symop_operation_xyz
x,y,z
-x,y,1/2-z
-x,-y,-z
x,-y,1/2+z
1/2+x,1/2+y,z
1/2-x,1/2+y,1/2-z
1/2-x,1/2-y,-z
1/2+x,1/2-y,1/2+z
loop_
_atom_site_type_symbol
_atom_site_label
_atom_site_fract_x
_atom_site_fract_y
_atom_site_fract_z
Si Si1 0.065404 0.457758 0.729155
Si Si2 0.766224 0.449570 0.301041
Si Si3 0.693808 0.061451 0.425938
Si Si4 0.862373 0.806020 0.098352
Si Si5 0.690566 0.194405 0.152875
Si Si6 0.020948 0.273068 0.323187
Si Si7 0.313268 0.285666 0.842363
O O1 0.136523 0.517586 0.578092
O O2 0.108035 0.351074 0.725474
O O3 0.029355 0.577411 0.828712
O O4 0.000000 0.414936 0.750000
O O5 0.806527 0.470722 0.154115
O O6 0.677342 0.420506 0.396854
O O7 0.774497 0.568743 0.351162
O O8 0.807720 0.330790 0.285556
O O9 0.664346 0.189949 0.424988
O O10 0.779521 0.090792 0.344434
O O11 0.827172 0.785004 0.241867
O O12 0.954423 0.792800 0.969519
O O13 0.750000 0.250000 0.000000
O O14 0.102685 0.209680 0.231413
O O15 0.000000 0.263373 0.250000
O O16 0.250000 0.250000 0.000000
#
# Coordination Sequence:
#
# PCOD9263408 Si02
#       7
#     8   8   8   8   8   8   8
#     4  11  20  35  59  91 122 152 199 257 313 337
#     4  10  21  37  58  84 118 157 200 252 306 358
#     4  10  19  34  56  84 117 152 202 247 298 367
#     4  10  21  36  57  86 121 155 201 253 302 356
#     4  11  23  39  61  89 124 164 203 247 305 371
#     4  11  19  34  57  90 122 147 203 256 303 344
#     4  11  19  34  59  85 114 157 201 250 299 365
#
# _framework density 19.536366000000001
#
# number of rings (size 3 to 8) (size 9 to 14) (size 15 to 20)
#    0.000    1.429    5.714    1.714    0.000    1.714 
#    0.000    0.714    0.000    6.000    0.000    0.000 
#    0.000    0.000    0.000    0.000    0.000    0.000 
#
# Total GULP energy -156202.907499 kJ/mol
# GULP energy per Si atom -5578.675268 kJ/mol
# Density = 1.949190 g / cm^3
# Si number density = 19.536366 Si / 1000 Ang^3
#
#
#
# Elastic Constant Matrix: (Units=GPa)
#
#
# Indices 1 2 3 4 5 6 
#
# 1 136.5651 37.5617 34.6034 0.0000 -24.7187 0.0000
# 2 37.5617 42.6750 15.8949 0.0001 -0.7155 0.0000
# 3 34.6034 15.8949 74.3366 0.0000 -9.4216 0.0000
# 4 0.0000 0.0001 0.0000 21.8221 0.0000 -0.7083
# 5 -24.7187 -0.7155 -9.4216 0.0000 39.2536 0.0000
# 6 0.0000 0.0000 0.0000 -0.7083 0.0000 37.2655
#
#
#
# Elastic Compliance Matrix: (Units=1/GPa)
#
#
# Indices 1 2 3 4 5 6 
#
# 1 0.011720 -0.009218 -0.002651 0.000000 0.006576 0.000000
# 2 -0.009218 0.032740 -0.003475 0.000000 -0.006042 0.000000
# 3 -0.002651 -0.003475 0.015687 0.000000 0.002032 0.000000
# 4 0.000000 0.000000 0.000000 0.045853 0.000000 0.000871
# 5 0.006576 -0.006042 0.002032 0.000000 0.029994 0.000000
# 6 0.000000 0.000000 0.000000 0.000871 0.000000 0.026851
#
#
# Mechanical properties :
#
#
# Convention : Reuss Voigt Hill
#
# Bulk Modulus (GPa) = 33.94692 47.74407 40.84549
# Shear Modulus (GPa) = 24.58780 30.70270 27.64525
#
# Velocity S-wave (km/s) = 3.55148 3.96860 3.76582
# Velocity P-wave (km/s) = 5.85075 6.74473 6.31358
#
# Compressibility (1/GPa) = 0.02945775
#
# Stress axis : x y z
#
# Youngs Moduli (GPa) = 85.32513 30.54410 63.74666
#
# Poissons Ratio (x) = 0.28155 0.16900
# Poissons Ratio (y) = 0.78652 0.22154
# Poissons Ratio (z) = 0.22621 0.10615
#
# Static dielectric constant tensor:
#      x y z
#    x 1.729300 0.000000 -0.004360 
#    y 0.000000 1.630000 0.000000 
#    z -0.004360 0.000000 1.725420 
# 
# From -- ./inp_files/160852.got.cif
#   From: 2010.05.17/outbox.cif.g08.bks.cpg/sg15_81_cif.got.tgz:160852.got - 2010.06.03 18:47:42.
