data_PCOD9263228
_publ_section_title
;
Structure prediction by ZEFSAII (Michael W. Deem and Ramdas Pophale) SiO2 
 PCOD9263228
Probable space group: C 2/C
;
_chemical_formula_sum "Si O2"
_cell_formula_units_Z 56
_cell_length_a 16.453276
_cell_length_b 10.310830
_cell_length_c 18.545448
_cell_angle_alpha 90.000000
_cell_angle_beta 139.684377
_cell_angle_gamma 90.000000
_cell_volume 2035.570203
_symmetry_space_group_name_H-M "C 2/C"
_symmetry_group_IT_number 15
_symmetry_cell_setting 'monoclinic'
loop_
_space_group_symop_operation_xyz
x,y,z
-x,y,1/2-z
-x,-y,-z
x,-y,1/2+z
1/2+x,1/2+y,z
1/2-x,1/2+y,1/2-z
1/2-x,1/2-y,-z
1/2+x,1/2-y,1/2+z
loop_
_atom_site_type_symbol
_atom_site_label
_atom_site_fract_x
_atom_site_fract_y
_atom_site_fract_z
Si Si1 0.961178 0.834438 0.935344
Si Si2 0.787303 0.832070 0.696569
Si Si3 0.093211 0.928787 0.375275
Si Si4 0.781501 0.372186 0.073388
Si Si5 0.082694 0.432499 0.460287
Si Si6 0.880769 0.165136 0.831318
Si Si7 0.195609 0.656811 0.588125
O O1 0.902279 0.886266 0.821377
O O2 0.852552 0.797333 0.918791
O O3 0.010873 0.693247 0.939227
O O4 0.069709 0.893443 0.059301
O O5 0.811057 0.694543 0.670156
O O6 0.723670 0.915848 0.591275
O O7 0.679082 0.799218 0.681002
O O8 0.200465 0.847332 0.404753
O O9 0.000000 0.989943 0.250000
O O10 0.996495 0.839350 0.354522
O O11 0.166250 0.028840 0.478295
O O12 0.750000 0.250000 0.000000
O O13 0.901381 0.432983 0.114361
O O14 0.070399 0.577002 0.481158
O O15 0.762614 0.108827 0.707610
#
# Coordination Sequence:
#
# PCOD9263228 Si02
#       7
#     8   8   8   8   8   8   8
#     4  10  19  34  54  79 109 149 175 222 283 327
#     4   9  19  35  49  79 113 139 180 225 268 331
#     4   9  18  35  56  82 106 141 183 226 275 322
#     4   9  18  35  50  75 111 139 179 226 268 324
#     4   9  18  35  53  77 106 142 185 221 273 328
#     4   9  19  35  52  82 105 137 186 220 272 330
#     4   9  18  35  57  77 105 140 185 229 267 329
#
# _framework density 27.510719000000002
#
# number of rings (size 3 to 8) (size 9 to 14) (size 15 to 20)
#    0.000    2.857    0.000    0.429    0.000    1.714 
#   36.000    0.000    0.000    0.000    0.000    0.000 
#    0.000    0.000    0.000    0.000    0.000    0.000 
#
# Total GULP energy -155977.950279 kJ/mol
# GULP energy per Si atom -5570.641081 kJ/mol
# Density = 2.744810 g / cm^3
# Si number density = 27.510719 Si / 1000 Ang^3
#
#
#
# Elastic Constant Matrix: (Units=GPa)
#
#
# Indices 1 2 3 4 5 6 
#
# 1 132.6558 19.6930 30.3743 0.0000 -13.5520 0.0000
# 2 19.6930 35.1376 34.7761 0.0000 -12.5475 0.0000
# 3 30.3743 34.7761 179.0163 0.0000 -28.8481 0.0000
# 4 0.0000 0.0000 0.0000 58.9625 0.0000 -9.2284
# 5 -13.5520 -12.5475 -28.8481 0.0000 34.1602 0.0000
# 6 0.0000 0.0000 0.0000 -9.2284 0.0000 41.5933
#
#
#
# Elastic Compliance Matrix: (Units=1/GPa)
#
#
# Indices 1 2 3 4 5 6 
#
# 1 0.008348 -0.003669 -0.000448 0.000000 0.001586 0.000000
# 2 -0.003669 0.038998 -0.005648 0.000000 0.008099 0.000000
# 3 -0.000448 -0.005648 0.007404 0.000000 0.004000 0.000000
# 4 0.000000 0.000000 0.000000 0.017570 0.000000 0.003898
# 5 0.001586 0.008099 0.004000 0.000000 0.036256 0.000000
# 6 0.000000 0.000000 0.000000 0.003898 0.000000 0.024907
#
#
# Mechanical properties :
#
#
# Convention : Reuss Voigt Hill
#
# Bulk Modulus (GPa) = 28.39342 57.38849 42.89095
# Shear Modulus (GPa) = 30.34861 44.40765 37.37813
#
# Velocity S-wave (km/s) = 3.32498 4.02206 3.69002
# Velocity P-wave (km/s) = 5.00839 6.51729 5.81201
#
# Compressibility (1/GPa) = 0.03521943
#
# Stress axis : x y z
#
# Youngs Moduli (GPa) = 119.79611 25.64245 135.06270
#
# Poissons Ratio (x) = 0.09407 0.06053
# Poissons Ratio (y) = 0.43949 0.76286
# Poissons Ratio (z) = 0.05369 0.14483
#
# Static dielectric constant tensor:
#      x y z
#    x 2.262780 0.000000 0.025920 
#    y 0.000000 2.519500 0.000000 
#    z 0.025920 0.000000 2.169910 
# 
# From -- ./inp_files/105308.got.cif
#   From: 2010.05.17/outbox.cif.g08.bks.cpg/sg15_53_cif.got.tgz:105308.got - 2010.06.03 18:47:42.
