data_PCOD9263387
_publ_section_title
;
Structure prediction by ZEFSAII (Michael W. Deem and Ramdas Pophale) SiO2 
 PCOD9263387
Probable space group: C 2/C
;
_chemical_formula_sum "Si O2"
_cell_formula_units_Z 48
_cell_length_a 9.938493
_cell_length_b 21.680160
_cell_length_c 14.185166
_cell_angle_alpha 90.000000
_cell_angle_beta 118.075410
_cell_angle_gamma 90.000000
_cell_volume 2696.795170
_symmetry_space_group_name_H-M "C 2/C"
_symmetry_group_IT_number 15
_symmetry_cell_setting 'monoclinic'
loop_
_space_group_symop_operation_xyz
x,y,z
-x,y,1/2-z
-x,-y,-z
x,-y,1/2+z
1/2+x,1/2+y,z
1/2-x,1/2+y,1/2-z
1/2-x,1/2-y,-z
1/2+x,1/2-y,1/2+z
loop_
_atom_site_type_symbol
_atom_site_label
_atom_site_fract_x
_atom_site_fract_y
_atom_site_fract_z
Si Si1 0.765012 0.351971 0.970838
Si Si2 0.624250 0.446112 0.052860
Si Si3 0.322872 0.762519 0.167761
Si Si4 0.354914 0.646980 0.766944
Si Si5 0.588410 0.918991 0.064127
Si Si6 0.071393 0.478810 0.868590
O O1 0.711614 0.308075 0.869265
O O2 0.644243 0.402999 0.966677
O O3 0.790930 0.306228 0.067518
O O4 0.926994 0.383770 0.005197
O O5 0.601570 0.401274 0.135043
O O6 0.790527 0.477373 0.118058
O O7 0.500000 0.500000 0.000000
O O8 0.500000 0.769871 0.250000
O O9 0.213374 0.790846 0.210668
O O10 0.500000 0.657935 0.750000
O O11 0.218545 0.618065 0.660381
O O12 0.552349 0.979492 0.115803
O O13 0.633103 0.935139 0.971759
O O14 0.000000 0.451059 0.750000
#
# Coordination Sequence:
#
# PCOD9263387 Si02
#       6
#     8   8   8   8   8   8
#     4   9  20  36  61  86 108 157 204 240 291 355
#     4  10  20  36  57  86 125 150 193 246 298 360
#     4  10  19  38  63  82 113 154 204 247 286 353
#     4  11  21  35  61  88 115 156 200 243 302 351
#     4  10  19  35  58  85 114 153 201 238 295 365
#     4  10  19  34  56  82 117 161 190 235 295 364
#
# _framework density 17.798905000000001
#
# number of rings (size 3 to 8) (size 9 to 14) (size 15 to 20)
#    0.000    2.000    3.333    1.000    0.000    0.000 
#    3.000    1.667    0.000    0.000    0.000    0.000 
#    0.000    0.000    0.000    0.000    0.000    0.000 
#
# Total GULP energy -133788.087624 kJ/mol
# GULP energy per Si atom -5574.503651 kJ/mol
# Density = 1.775839 g / cm^3
# Si number density = 17.798905 Si / 1000 Ang^3
#
#
#
# Elastic Constant Matrix: (Units=GPa)
#
#
# Indices 1 2 3 4 5 6 
#
# 1 106.5942 42.3006 40.4962 0.0000 -12.3050 0.0000
# 2 42.3006 87.0682 42.7211 0.0000 -3.2210 0.0000
# 3 40.4962 42.7211 89.3212 0.0000 -12.4369 0.0000
# 4 0.0000 0.0000 0.0000 21.0417 0.0000 3.1057
# 5 -12.3050 -3.2210 -12.4369 0.0000 22.1041 0.0000
# 6 0.0000 0.0000 0.0000 3.1057 0.0000 23.4230
#
#
#
# Elastic Compliance Matrix: (Units=1/GPa)
#
#
# Indices 1 2 3 4 5 6 
#
# 1 0.012905 -0.004639 -0.002957 0.000000 0.004844 0.000000
# 2 -0.004639 0.016758 -0.006435 0.000000 -0.003762 0.000000
# 3 -0.002957 -0.006435 0.016551 0.000000 0.006728 0.000000
# 4 0.000000 0.000000 0.000000 0.048473 0.000000 -0.006427
# 5 0.004844 -0.003762 0.006728 0.000000 0.051175 0.000000
# 6 0.000000 0.000000 0.000000 -0.006427 0.000000 0.043545
#
#
# Mechanical properties :
#
#
# Convention : Reuss Voigt Hill
#
# Bulk Modulus (GPa) = 55.09767 59.33549 57.21658
# Shear Modulus (GPa) = 22.36922 23.81149 23.09036
#
# Velocity S-wave (km/s) = 3.54895 3.66157 3.60570
# Velocity P-wave (km/s) = 6.91493 7.16136 7.03922
#
# Compressibility (1/GPa) = 0.01814959
#
# Stress axis : x y z
#
# Youngs Moduli (GPa) = 77.48781 59.67426 60.41869
#
# Poissons Ratio (x) = 0.27686 0.17869
# Poissons Ratio (y) = 0.35950 0.38881
# Poissons Ratio (z) = 0.22917 0.38402
#
# Static dielectric constant tensor:
#      x y z
#    x 1.588110 0.000000 -0.018440 
#    y 0.000000 1.629930 0.000000 
#    z -0.018440 0.000000 1.628040 
# 
# From -- ./inp_files/79163.got.cif
#   From: 2010.05.17/outbox.cif.g08.bks.cpg/sg15_40_cif.got.tgz:79163.got - 2010.06.03 18:47:42.
