data_PCOD9263688
_publ_section_title
;
Structure prediction by ZEFSAII (Michael W. Deem and Ramdas Pophale) SiO2 
 PCOD9263688
Probable space group: C 2/C
;
_chemical_formula_sum "Si O2"
_cell_formula_units_Z 48
_cell_length_a 19.441073
_cell_length_b 15.631875
_cell_length_c 8.046283
_cell_angle_alpha 90.000000
_cell_angle_beta 51.052107
_cell_angle_gamma 90.000000
_cell_volume 1901.729489
_symmetry_space_group_name_H-M "C 2/C"
_symmetry_group_IT_number 15
_symmetry_cell_setting 'monoclinic'
loop_
_space_group_symop_operation_xyz
x,y,z
-x,y,1/2-z
-x,-y,-z
x,-y,1/2+z
1/2+x,1/2+y,z
1/2-x,1/2+y,1/2-z
1/2-x,1/2-y,-z
1/2+x,1/2-y,1/2+z
loop_
_atom_site_type_symbol
_atom_site_label
_atom_site_fract_x
_atom_site_fract_y
_atom_site_fract_z
Si Si1 0.500000 0.416817 0.250000
Si Si2 0.500000 0.149932 0.750000
Si Si3 0.025717 0.807943 0.537570
Si Si4 0.624427 0.039010 0.354942
Si Si5 0.688120 0.489814 0.028063
Si Si6 0.214436 0.857285 0.292503
Si Si7 0.908420 0.635027 0.441073
O O1 0.500634 0.360473 0.415880
O O2 0.409439 0.469429 0.387447
O O3 0.477937 0.216687 0.634509
O O4 0.578929 0.093517 0.565784
O O5 0.132007 0.794869 0.385302
O O6 0.000000 0.853581 0.750000
O O7 0.729756 0.043551 0.206367
O O8 0.603914 0.079001 0.208576
O O9 0.589774 0.941691 0.425684
O O10 0.703605 0.592345 0.984872
O O11 0.698082 0.433096 0.180210
O O12 0.313182 0.820532 0.116514
O O13 0.000000 0.681400 0.250000
#
# Coordination Sequence:
#
# PCOD9263688 Si02
#       7
#     4   4   8   8   8   8   8
#     4  10  20  39  56  83 118 150 206 230 286 340
#     4  10  22  39  60  75 116 158 194 234 280 342
#     4   9  22  39  59  81 116 159 190 236 277 345
#     4  10  20  38  55  89 115 145 190 237 296 333
#     4   9  20  32  59  85 114 148 182 249 288 342
#     4   9  19  34  53  87 116 144 190 233 297 335
#     4  10  19  34  59  85 115 144 183 242 293 341
#
# _framework density 25.240183999999999
#
# number of rings (size 3 to 8) (size 9 to 14) (size 15 to 20)
#    0.500    2.000    0.833    0.500    3.500    1.333 
#    1.500    8.333    0.000    0.000    0.000    0.000 
#    0.000    0.000    0.000    0.000    0.000    0.000 
#
# Total GULP energy -133964.176115 kJ/mol
# GULP energy per Si atom -5581.840671 kJ/mol
# Density = 2.518274 g / cm^3
# Si number density = 25.240184 Si / 1000 Ang^3
#
#
#
# Elastic Constant Matrix: (Units=GPa)
#
#
# Indices 1 2 3 4 5 6 
#
# 1 66.5100 0.1283 31.4440 0.0000 -26.0845 0.0000
# 2 0.1283 58.7815 27.2177 0.0000 -2.6934 0.0000
# 3 31.4440 27.2177 113.0187 0.0000 -10.4667 0.0000
# 4 0.0000 0.0000 0.0000 18.8449 0.0000 4.8782
# 5 -26.0845 -2.6934 -10.4667 0.0000 56.9292 0.0000
# 6 0.0000 0.0000 0.0000 4.8782 0.0000 4.8400
#
#
#
# Elastic Compliance Matrix: (Units=1/GPa)
#
#
# Indices 1 2 3 4 5 6 
#
# 1 0.021238 0.003056 -0.005830 0.000000 0.008804 0.000000
# 2 0.003056 0.019587 -0.005445 0.000000 0.001326 0.000000
# 3 -0.005830 -0.005445 0.011709 0.000000 -0.000776 0.000000
# 4 0.000000 0.000000 0.000000 0.071796 0.000000 -0.072362
# 5 0.008804 0.001326 -0.000776 0.000000 0.021520 0.000000
# 6 0.000000 0.000000 0.000000 -0.072362 0.000000 0.279544
#
#
# Mechanical properties :
#
#
# Convention : Reuss Voigt Hill
#
# Bulk Modulus (GPa) = 27.70142 39.54334 33.62238
# Shear Modulus (GPa) = 11.01652 28.09084 19.55368
#
# Velocity S-wave (km/s) = 2.09145 3.33970 2.78637
# Velocity P-wave (km/s) = 4.10258 5.52922 4.86844
#
# Compressibility (1/GPa) = 0.03609923
#
# Stress axis : x y z
#
# Youngs Moduli (GPa) = 47.08458 51.05355 85.40184
#
# Poissons Ratio (x) = -0.15604 0.49786
# Poissons Ratio (y) = -0.14391 0.46498
# Poissons Ratio (z) = 0.27449 0.27797
#
# Static dielectric constant tensor:
#      x y z
#    x 2.138790 0.000000 0.067490 
#    y 0.000000 1.990040 0.000000 
#    z 0.067490 0.000000 2.017420 
# 
# From -- ./inp_files/56441.got.cif
#   From: 2010.05.17/outbox.cif.g08.bks.cpg/sg15_29_cif.got.tgz:56441.got - 2010.06.03 18:47:42.
