data_PCOD9263821
_publ_section_title
;
Structure prediction by ZEFSAII (Michael W. Deem and Ramdas Pophale) SiO2 
 PCOD9263821
Probable space group: C 2/C
;
_chemical_formula_sum "Si O2"
_cell_formula_units_Z 40
_cell_length_a 8.453323
_cell_length_b 19.219698
_cell_length_c 18.701075
_cell_angle_alpha 90.000000
_cell_angle_beta 35.249569
_cell_angle_gamma 90.000000
_cell_volume 1753.561706
_symmetry_space_group_name_H-M "C 2/C"
_symmetry_group_IT_number 15
_symmetry_cell_setting 'monoclinic'
loop_
_space_group_symop_operation_xyz
x,y,z
-x,y,1/2-z
-x,-y,-z
x,-y,1/2+z
1/2+x,1/2+y,z
1/2-x,1/2+y,1/2-z
1/2-x,1/2-y,-z
1/2+x,1/2-y,1/2+z
loop_
_atom_site_type_symbol
_atom_site_label
_atom_site_fract_x
_atom_site_fract_y
_atom_site_fract_z
Si Si1 0.065303 0.348452 0.074852
Si Si2 0.948391 0.076563 0.186207
Si Si3 0.745238 0.942993 0.405136
Si Si4 0.940437 0.343088 0.899549
Si Si5 0.096200 0.772100 0.448297
O O1 0.146329 0.319489 0.122777
O O2 0.809652 0.397321 0.146768
O O3 0.330718 0.390234 0.947779
O O4 0.047162 0.281829 0.030582
O O5 0.650601 0.107067 0.281070
O O6 0.000000 0.099755 0.250000
O O7 0.000180 0.993977 0.171465
O O8 0.686164 0.888317 0.489173
O O9 0.500000 0.000000 0.500000
O O10 0.096578 0.275820 0.876582
O O11 0.679636 0.316768 0.953449
#
# Coordination Sequence:
#
# PCOD9263821 Si02
#       5
#     8   8   8   8   8
#     4   9  18  34  59  84 112 146 180 233 278 329
#     4  11  18  33  60  78 109 152 191 216 276 341
#     4   9  17  32  55  78 107 148 185 220 267 328
#     4  10  19  34  61  83 111 153 180 230 285 329
#     4   9  18  34  59  81 111 143 185 231 286 326
#
# _framework density 22.810717
#
# number of rings (size 3 to 8) (size 9 to 14) (size 15 to 20)
#    0.000    2.400    6.000    0.000    0.000    0.800 
#    0.000    4.000   48.400    0.000    0.000    0.000 
#    0.000    0.000    0.000    0.000    0.000    0.000 
#
# Total GULP energy -111468.334414 kJ/mol
# GULP energy per Si atom -5573.416721 kJ/mol
# Density = 2.275880 g / cm^3
# Si number density = 22.810717 Si / 1000 Ang^3
#
#
#
# Elastic Constant Matrix: (Units=GPa)
#
#
# Indices 1 2 3 4 5 6 
#
# 1 95.6082 70.5207 20.6624 0.0078 -14.2516 -0.0135
# 2 70.5207 146.8662 47.0900 0.0050 -26.3299 -0.0036
# 3 20.6624 47.0900 67.8078 0.0024 -10.9861 -0.0026
# 4 0.0078 0.0050 0.0024 37.8056 -0.0053 -37.7272
# 5 -14.2516 -26.3299 -10.9861 -0.0053 23.7358 0.0061
# 6 -0.0135 -0.0036 -0.0026 -37.7272 0.0061 -5.1977
#
#
#
# Elastic Compliance Matrix: (Units=1/GPa)
#
#
# Indices 1 2 3 4 5 6 
#
# 1 0.016255 -0.007758 0.000672 -0.000005 0.001465 -0.000002
# 2 -0.007758 0.013882 -0.005985 0.000003 0.007971 0.000002
# 3 0.000672 -0.005985 0.019123 -0.000001 0.002615 0.000000
# 4 -0.000005 0.000003 -0.000001 0.003209 0.000007 -0.023291
# 5 0.001465 0.007971 0.002615 0.000007 0.053063 0.000001
# 6 -0.000002 0.000002 0.000000 -0.023291 0.000001 -0.023339
#
#
# Mechanical properties :
#
#
# Convention : Reuss Voigt Hill
#
# Bulk Modulus (GPa) = 43.25753 65.20316 54.23035
# Shear Modulus (GPa) = 43.08850 22.73601 32.91226
#
# Velocity S-wave (km/s) = 4.35093 3.16052 3.80260
# Velocity P-wave (km/s) = 6.65174 6.47804 6.56547
#
# Compressibility (1/GPa) = 0.02311736
#
# Stress axis : x y z
#
# Youngs Moduli (GPa) = 61.52073 72.03572 52.29286
#
# Poissons Ratio (x) = 0.55883 -0.03513
# Poissons Ratio (y) = 0.47726 0.31298
# Poissons Ratio (z) = -0.04132 0.43115
#
# Static dielectric constant tensor:
#      x y z
#    x 1.888950 0.000000 -0.010410 
#    y 0.000000 1.875710 0.000000 
#    z -0.010410 0.000000 1.951220 
# 
# From -- ./inp_files/77878.got.cif
#   From: 2010.05.17/outbox.cif.g08.bks.cpg/sg15_39_cif.got.tgz:77878.got - 2010.06.03 18:47:42.
