data_PCOD9263046
_publ_section_title
;
Structure prediction by ZEFSAII (Michael W. Deem and Ramdas Pophale) SiO2 
 PCOD9263046
Probable space group: C 2/C
;
_chemical_formula_sum "Si O2"
_cell_formula_units_Z 56
_cell_length_a 9.884312
_cell_length_b 28.609461
_cell_length_c 10.713865
_cell_angle_alpha 90.000000
_cell_angle_beta 66.233272
_cell_angle_gamma 90.000000
_cell_volume 2772.779831
_symmetry_space_group_name_H-M "C 2/C"
_symmetry_group_IT_number 15
_symmetry_cell_setting 'monoclinic'
loop_
_space_group_symop_operation_xyz
x,y,z
-x,y,1/2-z
-x,-y,-z
x,-y,1/2+z
1/2+x,1/2+y,z
1/2-x,1/2+y,1/2-z
1/2-x,1/2-y,-z
1/2+x,1/2-y,1/2+z
loop_
_atom_site_type_symbol
_atom_site_label
_atom_site_fract_x
_atom_site_fract_y
_atom_site_fract_z
Si Si1 0.647685 0.474266 0.359934
Si Si2 0.859047 0.572783 0.591257
Si Si3 0.862166 0.928930 0.534744
Si Si4 0.842643 0.856571 0.740229
Si Si5 0.827135 0.345008 0.277227
Si Si6 0.703863 0.917780 0.994999
Si Si7 0.818938 0.755628 0.833472
O O1 0.773804 0.461578 0.215968
O O2 0.500937 0.442999 0.395612
O O3 0.622220 0.529397 0.370139
O O4 0.705897 0.459901 0.476944
O O5 0.791986 0.566669 0.480229
O O6 0.815962 0.624471 0.657442
O O7 0.032918 0.568386 0.547850
O O8 0.869402 0.878030 0.593916
O O9 0.774471 0.804975 0.787156
O O10 0.000000 0.855684 0.750000
O O11 0.748443 0.895257 0.848484
O O12 0.766961 0.376194 0.414104
O O13 0.767799 0.292765 0.289221
O O14 0.000000 0.341690 0.250000
O O15 0.000000 0.755783 0.750000
O O16 0.750000 0.750000 0.000000
#
# Coordination Sequence:
#
# PCOD9263046 Si02
#       7
#     8   8   8   8   8   8   8
#     4  10  22  40  61  81 119 161 200 242 297 360
#     4  10  22  38  59  87 117 152 195 244 300 360
#     4  11  24  38  59  88 120 157 195 247 303 358
#     4  11  22  37  59  88 120 152 206 250 294 362
#     4   8  16  34  58  84 114 152 191 240 296 347
#     4  10  19  38  61  83 116 151 197 245 287 352
#     4  10  19  33  60  92 118 157 209 257 297 361
#
# _framework density 20.196338999999998
#
# number of rings (size 3 to 8) (size 9 to 14) (size 15 to 20)
#    0.000    2.000    2.857    1.714    2.000    1.143 
#    2.571    0.714    0.000    0.000    7.429    0.000 
#    0.000    0.000    0.000    0.000    0.000    0.000 
#
# Total GULP energy -155994.532407 kJ/mol
# GULP energy per Si atom -5571.233300 kJ/mol
# Density = 2.015037 g / cm^3
# Si number density = 20.196339 Si / 1000 Ang^3
#
#
#
# Elastic Constant Matrix: (Units=GPa)
#
#
# Indices 1 2 3 4 5 6 
#
# 1 60.7253 19.5376 6.5389 0.0000 -4.4567 0.0000
# 2 19.5376 105.1929 29.2990 0.0000 0.5910 0.0000
# 3 6.5389 29.2990 49.0284 0.0000 -14.3836 0.0000
# 4 0.0000 0.0000 0.0000 20.6201 0.0000 -5.5905
# 5 -4.4567 0.5910 -14.3836 0.0000 28.5269 0.0000
# 6 0.0000 0.0000 0.0000 -5.5905 0.0000 14.9724
#
#
#
# Elastic Compliance Matrix: (Units=1/GPa)
#
#
# Indices 1 2 3 4 5 6 
#
# 1 0.017756 -0.003498 0.000654 0.000000 0.003176 0.000000
# 2 -0.003498 0.012564 -0.008542 0.000000 -0.005114 0.000000
# 3 0.000654 -0.008542 0.029922 0.000000 0.015366 0.000000
# 4 0.000000 0.000000 0.000000 0.053959 0.000000 0.020147
# 5 0.003176 -0.005114 0.015366 0.000000 0.043404 0.000000
# 6 0.000000 0.000000 0.000000 0.020147 0.000000 0.074312
#
#
# Mechanical properties :
#
#
# Convention : Reuss Voigt Hill
#
# Bulk Modulus (GPa) = 26.68808 36.18862 31.43835
# Shear Modulus (GPa) = 18.71418 23.46198 21.08808
#
# Velocity S-wave (km/s) = 3.04733 3.41206 3.23484
# Velocity P-wave (km/s) = 5.06208 5.78621 5.43621
#
# Compressibility (1/GPa) = 0.03746991
#
# Stress axis : x y z
#
# Youngs Moduli (GPa) = 56.32016 79.59359 33.42078
#
# Poissons Ratio (x) = 0.27840 -0.02186
# Poissons Ratio (y) = 0.19699 0.28547
# Poissons Ratio (z) = -0.03683 0.67987
#
# Static dielectric constant tensor:
#      x y z
#    x 1.713420 0.000000 -0.058150 
#    y 0.000000 1.771090 0.000000 
#    z -0.058150 0.000000 1.793010 
# 
# From -- ./inp_files/82155.got.cif
#   From: 2010.05.17/outbox.cif.g08.bks.cpg/sg15_42_cif.got.tgz:82155.got - 2010.06.03 18:47:42.
