data_PCOD9263139
_publ_section_title
;
Structure prediction by ZEFSAII (Michael W. Deem and Ramdas Pophale) SiO2 
 PCOD9263139
Probable space group: C 2/C
;
_chemical_formula_sum "Si O2"
_cell_formula_units_Z 52
_cell_length_a 18.786641
_cell_length_b 20.101909
_cell_length_c 12.799422
_cell_angle_alpha 90.000000
_cell_angle_beta 32.229484
_cell_angle_gamma 90.000000
_cell_volume 2577.851337
_symmetry_space_group_name_H-M "C 2/C"
_symmetry_group_IT_number 15
_symmetry_cell_setting 'monoclinic'
loop_
_space_group_symop_operation_xyz
x,y,z
-x,y,1/2-z
-x,-y,-z
x,-y,1/2+z
1/2+x,1/2+y,z
1/2-x,1/2+y,1/2-z
1/2-x,1/2-y,-z
1/2+x,1/2-y,1/2+z
loop_
_atom_site_type_symbol
_atom_site_label
_atom_site_fract_x
_atom_site_fract_y
_atom_site_fract_z
Si Si1 0.500000 0.466055 0.750000
Si Si2 0.778603 0.522401 0.957579
Si Si3 0.152866 0.751594 0.521200
Si Si4 0.948258 0.434792 0.626150
Si Si5 0.718010 0.877437 0.247279
Si Si6 0.474200 0.577055 0.506981
Si Si7 0.758221 0.385690 0.685735
O O1 0.632241 0.506756 0.611247
O O2 0.512450 0.419012 0.635025
O O3 0.887420 0.465962 0.806319
O O4 0.790585 0.578502 0.850079
O O5 0.780560 0.559167 0.066152
O O6 0.250000 0.750000 0.500000
O O7 0.215468 0.808193 0.369063
O O8 0.171322 0.680916 0.441715
O O9 0.000000 0.761453 0.750000
O O10 0.827807 0.407964 0.705070
O O11 0.000000 0.500000 0.500000
O O12 0.068860 0.382530 0.477575
O O13 0.818917 0.906633 0.209950
O O14 0.500000 0.500000 0.500000
O O15 0.597407 0.618721 0.398649
#
# Coordination Sequence:
#
# PCOD9263139 Si02
#       7
#     4   8   8   8   8   8   8
#     4   8  16  28  48  74 100 134 172 224 274 322
#     4   9  18  32  52  74 111 143 185 228 276 333
#     4  12  23  34  52  80 114 155 189 217 270 354
#     4  10  21  34  50  76 113 145 183 236 276 328
#     4  10  20  34  48  72 110 147 180 224 270 327
#     4  10  19  34  52  73 104 146 188 230 274 330
#     4  11  21  34  54  80 110 150 186 221 279 336
#
# _framework density 20.171837
#
# number of rings (size 3 to 8) (size 9 to 14) (size 15 to 20)
#    0.000    1.846    1.538    4.615    6.462    0.000 
#    0.000    0.000    0.000    0.000    0.000    0.000 
#    0.000  116.923    0.000    0.000    0.000    0.000 
#
# Total GULP energy -144944.275223 kJ/mol
# GULP energy per Si atom -5574.779816 kJ/mol
# Density = 2.012593 g / cm^3
# Si number density = 20.171837 Si / 1000 Ang^3
#
#
#
# Elastic Constant Matrix: (Units=GPa)
#
#
# Indices 1 2 3 4 5 6 
#
# 1 83.5579 28.9975 34.9816 -0.0002 -33.6926 0.0002
# 2 28.9975 84.6949 36.0891 -0.0003 -3.1224 0.0001
# 3 34.9816 36.0891 108.5886 -0.0005 -32.8637 0.0002
# 4 -0.0002 -0.0003 -0.0005 37.1504 0.0003 5.3033
# 5 -33.6926 -3.1224 -32.8637 0.0003 31.4061 -0.0002
# 6 0.0002 0.0001 0.0002 5.3033 -0.0002 22.3573
#
#
#
# Elastic Compliance Matrix: (Units=1/GPa)
#
#
# Indices 1 2 3 4 5 6 
#
# 1 0.026381 -0.009730 0.004402 0.000000 0.031940 0.000000
# 2 -0.009730 0.017902 -0.007955 0.000000 -0.016983 0.000000
# 3 0.004402 -0.007955 0.017012 0.000000 0.021733 0.000000
# 4 0.000000 0.000000 0.000000 0.027861 0.000000 -0.006609
# 5 0.031940 -0.016983 0.021733 0.000000 0.087160 0.000001
# 6 0.000000 0.000000 0.000000 -0.006609 0.000001 0.046296
#
#
# Mechanical properties :
#
#
# Convention : Reuss Voigt Hill
#
# Bulk Modulus (GPa) = 28.79498 52.99755 40.89626
# Shear Modulus (GPa) = 19.17513 29.96763 24.57138
#
# Velocity S-wave (km/s) = 3.08651 3.85855 3.49392
# Velocity P-wave (km/s) = 5.19691 6.79568 6.04935
#
# Compressibility (1/GPa) = 0.03472827
#
# Stress axis : x y z
#
# Youngs Moduli (GPa) = 37.90650 55.85958 58.78120
#
# Poissons Ratio (x) = 0.54353 -0.25874
# Poissons Ratio (y) = 0.36884 0.46760
# Poissons Ratio (z) = -0.16686 0.44436
#
# Static dielectric constant tensor:
#      x y z
#    x 1.855300 0.000000 -0.059600 
#    y 0.000000 1.736120 0.000000 
#    z -0.059600 0.000000 1.861950 
# 
# From -- ./inp_files/168982.got.cif
#   From: 2010.05.17/outbox.cif.g08.bks.cpg/sg15_85_cif.got.tgz:168982.got - 2010.06.03 18:47:42.
