data_PCOD9263750
_publ_section_title
;
Structure prediction by ZEFSAII (Michael W. Deem and Ramdas Pophale) SiO2 
 PCOD9263750
Probable space group: C 2/C
;
_chemical_formula_sum "Si O2"
_cell_formula_units_Z 60
_cell_length_a 17.446800
_cell_length_b 17.043871
_cell_length_c 10.460818
_cell_angle_alpha 90.000000
_cell_angle_beta 125.076687
_cell_angle_gamma 90.000000
_cell_volume 2545.696303
_symmetry_space_group_name_H-M "C 2/C"
_symmetry_group_IT_number 15
_symmetry_cell_setting 'monoclinic'
loop_
_space_group_symop_operation_xyz
x,y,z
-x,y,1/2-z
-x,-y,-z
x,-y,1/2+z
1/2+x,1/2+y,z
1/2-x,1/2+y,1/2-z
1/2-x,1/2-y,-z
1/2+x,1/2-y,1/2+z
loop_
_atom_site_type_symbol
_atom_site_label
_atom_site_fract_x
_atom_site_fract_y
_atom_site_fract_z
Si Si1 0.879243 0.423788 0.855161
Si Si2 0.559827 0.926527 0.189073
Si Si3 0.648211 0.445798 0.047414
Si Si4 0.088065 0.253504 0.161678
Si Si5 0.000000 0.130391 0.250000
Si Si6 0.760658 0.004607 0.619112
Si Si7 0.428100 0.764816 0.797981
Si Si8 0.245239 0.170995 0.806964
O O1 0.866590 0.505631 0.768607
O O2 0.812873 0.436794 0.913336
O O3 0.870820 0.344995 0.768680
O O4 0.987548 0.421277 0.002014
O O5 0.500000 0.955045 0.250000
O O6 0.590377 0.837509 0.236597
O O7 0.545915 0.421363 0.904578
O O8 0.691032 0.489964 0.967765
O O9 0.662880 0.493415 0.192534
O O10 0.703298 0.365234 0.135267
O O11 0.177316 0.264145 0.153185
O O12 0.077960 0.185394 0.256160
O O13 0.994112 0.248135 0.984641
O O14 0.715301 0.092267 0.586483
O O15 0.500000 0.770837 0.750000
O O16 0.345829 0.701273 0.705375
#
# Coordination Sequence:
#
# PCOD9263750 Si02
#       8
#     8   8   8   8   4   8   8   8
#     4  10  22  35  62  99 135 177 226 276 349 415
#     4  10  19  34  59  96 136 183 212 276 344 414
#     4  10  25  46  71 104 135 181 239 292 346 416
#     4  11  22  41  68 102 145 177 230 287 349 417
#     4  12  24  44  70 104 134 186 238 284 354 408
#     4  10  23  45  66 104 137 177 235 291 342 419
#     4  11  25  46  66 102 143 186 233 287 354 432
#     4  10  24  46  69 102 136 186 232 292 356 420
#
# _framework density 23.569191
#
# number of rings (size 3 to 8) (size 9 to 14) (size 15 to 20)
#    0.800    0.800    3.333    0.400    5.600    2.667 
#    3.600    0.000    0.000    0.000    0.000    0.000 
#    0.000    0.000    0.000    0.000    0.000    0.000 
#
# Total GULP energy -167418.925700 kJ/mol
# GULP energy per Si atom -5580.630857 kJ/mol
# Density = 2.351555 g / cm^3
# Si number density = 23.569191 Si / 1000 Ang^3
#
#
#
# Elastic Constant Matrix: (Units=GPa)
#
#
# Indices 1 2 3 4 5 6 
#
# 1 80.5503 37.7991 6.7880 0.0000 2.8880 0.0000
# 2 37.7991 53.3060 17.2798 0.0000 0.9862 0.0000
# 3 6.7880 17.2798 83.9533 0.0000 0.2159 0.0000
# 4 0.0000 0.0000 0.0000 20.5694 0.0000 1.5076
# 5 2.8880 0.9862 0.2159 0.0000 35.7276 0.0000
# 6 0.0000 0.0000 0.0000 1.5076 0.0000 30.5065
#
#
#
# Elastic Compliance Matrix: (Units=1/GPa)
#
#
# Indices 1 2 3 4 5 6 
#
# 1 0.018785 -0.013724 0.001309 0.000000 -0.001148 0.000000
# 2 -0.013724 0.030137 -0.005094 0.000000 0.000308 0.000000
# 3 0.001309 -0.005094 0.012854 0.000000 -0.000043 0.000000
# 4 0.000000 0.000000 0.000000 0.048793 0.000000 -0.002411
# 5 -0.001148 0.000308 -0.000043 0.000000 0.028074 0.000000
# 6 0.000000 0.000000 0.000000 -0.002411 0.000000 0.032899
#
#
# Mechanical properties :
#
#
# Convention : Reuss Voigt Hill
#
# Bulk Modulus (GPa) = 37.37170 37.94926 37.66048
# Shear Modulus (GPa) = 23.20408 27.75689 25.48049
#
# Velocity S-wave (km/s) = 3.14109 3.43545 3.29156
# Velocity P-wave (km/s) = 5.38942 5.64558 5.51899
#
# Compressibility (1/GPa) = 0.02675821
#
# Stress axis : x y z
#
# Youngs Moduli (GPa) = 53.23271 33.18223 77.79582
#
# Poissons Ratio (x) = 0.45538 -0.10182
# Poissons Ratio (y) = 0.73055 0.39630
# Poissons Ratio (z) = -0.06967 0.16903
#
# Static dielectric constant tensor:
#      x y z
#    x 1.951000 0.000000 0.013610 
#    y 0.000000 1.931250 0.000000 
#    z 0.013610 0.000000 1.927940 
# 
# From -- ./inp_files/106706.got.cif
#   From: 2010.05.17/outbox.cif.g08.bks.cpg/sg15_54_cif.got.tgz:106706.got - 2010.06.03 18:47:42.
