data_PCOD9263412
_publ_section_title
;
Structure prediction by ZEFSAII (Michael W. Deem and Ramdas Pophale) SiO2 
 PCOD9263412
Probable space group: C 2/C
;
_chemical_formula_sum "Si O2"
_cell_formula_units_Z 56
_cell_length_a 20.586604
_cell_length_b 7.840501
_cell_length_c 21.471526
_cell_angle_alpha 90.000000
_cell_angle_beta 44.352739
_cell_angle_gamma 90.000000
_cell_volume 2422.782561
_symmetry_space_group_name_H-M "C 2/C"
_symmetry_group_IT_number 15
_symmetry_cell_setting 'monoclinic'
loop_
_space_group_symop_operation_xyz
x,y,z
-x,y,1/2-z
-x,-y,-z
x,-y,1/2+z
1/2+x,1/2+y,z
1/2-x,1/2+y,1/2-z
1/2-x,1/2-y,-z
1/2+x,1/2-y,1/2+z
loop_
_atom_site_type_symbol
_atom_site_label
_atom_site_fract_x
_atom_site_fract_y
_atom_site_fract_z
Si Si1 0.942095 0.653568 0.507372
Si Si2 0.539811 0.701280 0.382247
Si Si3 0.366278 0.912885 0.815870
Si Si4 0.764003 0.606490 0.786521
Si Si5 0.451138 0.997986 0.378712
Si Si6 0.764969 0.447078 0.655310
Si Si7 0.421618 0.521042 0.754703
O O1 0.957485 0.807316 0.544711
O O2 0.965754 0.650247 0.418659
O O3 0.836997 0.581975 0.580052
O O4 0.000000 0.500000 0.500000
O O5 0.636196 0.807008 0.301156
O O6 0.541084 0.534466 0.338722
O O7 0.455774 0.822156 0.414374
O O8 0.455689 0.006807 0.725683
O O9 0.368207 0.962158 0.887527
O O10 0.390983 0.715238 0.788045
O O11 0.282230 0.975436 0.830146
O O12 0.732343 0.520126 0.744688
O O13 0.697965 0.759737 0.853652
O O14 0.676323 0.422430 0.672033
O O15 0.500000 0.472682 0.750000
#
# Coordination Sequence:
#
# PCOD9263412 Si02
#       7
#     8   8   8   8   8   8   8
#     4   9  18  37  59  85 119 160 196 241 306 357
#     4   8  18  31  56  82 109 149 192 241 289 345
#     4  10  19  34  56  85 111 154 200 242 296 349
#     4   9  18  33  55  83 111 142 192 250 292 338
#     4   9  17  33  58  81 112 155 197 236 295 358
#     4  10  20  34  57  88 115 151 198 248 292 354
#     4  11  21  34  57  85 120 150 199 249 295 337
#
# _framework density 23.113921000000001
#
# number of rings (size 3 to 8) (size 9 to 14) (size 15 to 20)
#    0.000    2.571    1.429    1.714    6.000    0.000 
#    0.000    2.143    0.000    5.143    0.000    3.000 
#    0.000    0.000    0.000    0.000    0.000    0.000 
#
# Total GULP energy -155983.417106 kJ/mol
# GULP energy per Si atom -5570.836325 kJ/mol
# Density = 2.306131 g / cm^3
# Si number density = 23.113921 Si / 1000 Ang^3
#
#
#
# Elastic Constant Matrix: (Units=GPa)
#
#
# Indices 1 2 3 4 5 6 
#
# 1 99.2796 31.7031 29.0297 0.0037 17.5505 -0.0037
# 2 31.7031 66.7543 11.5868 0.0126 8.9142 -0.0123
# 3 29.0297 11.5868 38.3004 -0.0035 21.9712 0.0037
# 4 0.0037 0.0126 -0.0035 -87.9993 -0.0043 105.1783
# 5 17.5505 8.9142 21.9712 -0.0043 26.8237 0.0044
# 6 -0.0037 -0.0123 0.0037 105.1783 0.0044 -84.1119
#
#
#
# Elastic Compliance Matrix: (Units=1/GPa)
#
#
# Indices 1 2 3 4 5 6 
#
# 1 0.014499 -0.005252 -0.009356 0.000000 -0.000078 0.000000
# 2 -0.005252 0.017804 0.000033 0.000001 -0.002507 -0.000001
# 3 -0.009356 0.000033 0.055998 -0.000001 -0.039756 0.000000
# 4 0.000000 0.000001 -0.000001 0.022977 -0.000001 0.028732
# 5 -0.000078 -0.002507 -0.039756 -0.000001 0.070729 0.000001
# 6 0.000000 -0.000001 0.000000 0.028732 0.000001 0.024039
#
#
# Mechanical properties :
#
#
# Convention : Reuss Voigt Hill
#
# Bulk Modulus (GPa) = 16.90617 38.77484 27.84051
# Shear Modulus (GPa) = 19.61463 -20.25652 -0.32095
#
# Velocity S-wave (km/s) = 2.91625 -2.96358 -0.37304
# Velocity P-wave (km/s) = 4.32082 2.25866 3.44754
#
# Compressibility (1/GPa) = 0.05915001
#
# Stress axis : x y z
#
# Youngs Moduli (GPa) = 68.96986 56.16866 17.85793
#
# Poissons Ratio (x) = 0.29497 0.16708
# Poissons Ratio (y) = 0.36220 -0.00058
# Poissons Ratio (z) = 0.64530 -0.00184
#
# Static dielectric constant tensor:
#      x y z
#    x 1.902460 0.000000 -0.010990 
#    y 0.000000 1.914070 0.000000 
#    z -0.010990 0.000000 1.951190 
# 
# From -- ./inp_files/251842.got.cif
#   From: 2010.05.17/outbox.cif.g08.bks.cpg/sg15_126_cif.got.tgz:251842.got - 2010.06.03 18:47:42.
