data_PCOD9263706
_publ_section_title
;
Structure prediction by ZEFSAII (Michael W. Deem and Ramdas Pophale) SiO2 
 PCOD9263706
Probable space group: C 2/C
;
_chemical_formula_sum "Si O2"
_cell_formula_units_Z 56
_cell_length_a 9.558189
_cell_length_b 20.332475
_cell_length_c 19.102765
_cell_angle_alpha 90.000000
_cell_angle_beta 50.570905
_cell_angle_gamma 90.000000
_cell_volume 2867.547571
_symmetry_space_group_name_H-M "C 2/C"
_symmetry_group_IT_number 15
_symmetry_cell_setting 'monoclinic'
loop_
_space_group_symop_operation_xyz
x,y,z
-x,y,1/2-z
-x,-y,-z
x,-y,1/2+z
1/2+x,1/2+y,z
1/2-x,1/2+y,1/2-z
1/2-x,1/2-y,-z
1/2+x,1/2-y,1/2+z
loop_
_atom_site_type_symbol
_atom_site_label
_atom_site_fract_x
_atom_site_fract_y
_atom_site_fract_z
Si Si1 0.162216 0.869008 0.961518
Si Si2 0.284592 0.488044 0.457513
Si Si3 0.046185 0.243876 0.036930
Si Si4 0.490133 0.173654 0.084758
Si Si5 0.098396 0.481522 0.872802
Si Si6 0.649432 0.433457 0.823515
Si Si7 0.363012 0.289743 0.732958
O O1 0.144129 0.920542 0.030335
O O2 0.320612 0.820786 0.935946
O O3 0.230782 0.908929 0.871289
O O4 0.993633 0.825423 0.989950
O O5 0.209666 0.486543 0.401663
O O6 0.456778 0.535028 0.402433
O O7 0.106668 0.509530 0.559050
O O8 0.911911 0.245490 0.145571
O O9 0.250000 0.250000 0.000000
O O10 0.006478 0.300539 0.994541
O O11 0.436020 0.096468 0.101021
O O12 0.339293 0.214345 0.174553
O O13 0.217319 0.479486 0.764317
O O14 0.609941 0.367475 0.791803
O O15 0.500000 0.269207 0.750000
#
# Coordination Sequence:
#
# PCOD9263706 Si02
#       7
#     8   8   8   8   8   8   8
#     4  10  23  37  59  92 121 156 200 254 311 361
#     4  10  19  35  56  87 121 154 189 249 307 367
#     4  11  22  36  61  84 117 157 199 250 306 358
#     4  10  20  39  61  88 121 149 208 260 299 360
#     4   9  20  34  62  89 117 156 207 247 304 360
#     4  10  19  34  59  87 116 154 200 252 297 361
#     4  10  19  34  60  90 109 148 203 255 298 352
#
# _framework density 19.528881999999999
#
# number of rings (size 3 to 8) (size 9 to 14) (size 15 to 20)
#    0.000    2.000    1.429    3.000    2.000    9.143 
#    0.000    0.000   15.714    3.429    0.000    0.000 
#    0.000    0.000    0.000    0.000    0.000    0.000 
#
# Total GULP energy -156129.258238 kJ/mol
# GULP energy per Si atom -5576.044937 kJ/mol
# Density = 1.948443 g / cm^3
# Si number density = 19.528882 Si / 1000 Ang^3
#
#
#
# Elastic Constant Matrix: (Units=GPa)
#
#
# Indices 1 2 3 4 5 6 
#
# 1 123.6270 30.6633 53.0136 0.0000 -0.3875 0.0000
# 2 30.6633 25.3197 33.0460 0.0000 1.6647 0.0000
# 3 53.0136 33.0460 124.5009 0.0000 -3.5285 0.0000
# 4 0.0000 0.0000 0.0000 20.4882 0.0000 14.7634
# 5 -0.3875 1.6647 -3.5285 0.0000 23.5752 0.0000
# 6 0.0000 0.0000 0.0000 14.7634 0.0000 36.1560
#
#
#
# Elastic Compliance Matrix: (Units=1/GPa)
#
#
# Indices 1 2 3 4 5 6 
#
# 1 0.011859 -0.012011 -0.001840 0.000000 0.000768 0.000000
# 2 -0.012011 0.073665 -0.014653 0.000000 -0.007592 0.000000
# 3 -0.001840 -0.014653 0.012788 0.000000 0.002918 0.000000
# 4 0.000000 0.000000 0.000000 0.069157 0.000000 -0.028239
# 5 0.000768 -0.007592 0.002918 0.000000 0.043403 0.000000
# 6 0.000000 0.000000 0.000000 -0.028239 0.000000 0.039188
#
#
# Mechanical properties :
#
#
# Convention : Reuss Voigt Hill
#
# Bulk Modulus (GPa) = 24.21133 56.32148 40.26641
# Shear Modulus (GPa) = 15.58419 26.49220 21.03820
#
# Velocity S-wave (km/s) = 2.82797 3.68715 3.28576
# Velocity P-wave (km/s) = 4.80498 6.85781 5.92104
#
# Compressibility (1/GPa) = 0.04130297
#
# Stress axis : x y z
#
# Youngs Moduli (GPa) = 84.32086 13.57489 78.20030
#
# Poissons Ratio (x) = 0.16305 0.14388
# Poissons Ratio (y) = 1.01281 1.14590
# Poissons Ratio (z) = 0.15515 0.19892
#
# Static dielectric constant tensor:
#      x y z
#    x 1.704150 0.000000 -0.003770 
#    y 0.000000 1.703770 0.000000 
#    z -0.003770 0.000000 1.720850 
# 
# From -- ./inp_files/193179.got.cif
#   From: 2010.05.17/outbox.cif.g08.bks.cpg/sg15_97_cif.got.tgz:193179.got - 2010.06.03 18:47:42.
