data_PCOD9263990
_publ_section_title
;
Structure prediction by ZEFSAII (Michael W. Deem and Ramdas Pophale) SiO2 
 PCOD9263990
Probable space group: C 2/C
;
_chemical_formula_sum "Si O2"
_cell_formula_units_Z 56
_cell_length_a 31.102110
_cell_length_b 8.609612
_cell_length_c 13.708407
_cell_angle_alpha 90.000000
_cell_angle_beta 128.066017
_cell_angle_gamma 90.000000
_cell_volume 2890.021990
_symmetry_space_group_name_H-M "C 2/C"
_symmetry_group_IT_number 15
_symmetry_cell_setting 'monoclinic'
loop_
_space_group_symop_operation_xyz
x,y,z
-x,y,1/2-z
-x,-y,-z
x,-y,1/2+z
1/2+x,1/2+y,z
1/2-x,1/2+y,1/2-z
1/2-x,1/2-y,-z
1/2+x,1/2-y,1/2+z
loop_
_atom_site_type_symbol
_atom_site_label
_atom_site_fract_x
_atom_site_fract_y
_atom_site_fract_z
Si Si1 0.837640 0.485847 0.533316
Si Si2 0.562006 0.216912 0.850736
Si Si3 0.275443 0.198460 0.290337
Si Si4 0.791714 0.673235 0.634522
Si Si5 0.122881 0.929388 0.787907
Si Si6 0.382081 0.395280 0.406323
Si Si7 0.326739 0.628890 0.476247
O O1 0.894418 0.579093 0.602922
O O2 0.798165 0.567312 0.397017
O O3 0.813592 0.522653 0.607607
O O4 0.843815 0.304884 0.522138
O O5 0.500000 0.168707 0.750000
O O6 0.578497 0.348510 0.794714
O O7 0.574348 0.295236 0.972577
O O8 0.239696 0.315410 0.307712
O O9 0.327574 0.289673 0.322267
O O10 0.234532 0.140130 0.150518
O O11 0.750000 0.750000 0.500000
O O12 0.842723 0.790840 0.712967
O O13 0.100472 0.042079 0.673782
O O14 0.164513 0.024353 0.915672
O O15 0.363231 0.541242 0.446412
#
# Coordination Sequence:
#
# PCOD9263990 Si02
#       7
#     8   8   8   8   8   8   8
#     4   9  20  35  53  82 108 144 190 233 275 336
#     4   9  20  41  63  77 106 148 185 239 298 336
#     4  10  19  35  52  76 121 157 182 216 280 333
#     4   9  17  34  49  71 112 156 182 215 274 326
#     4  10  21  37  55  84 116 145 193 234 271 344
#     4  10  21  38  54  84 115 146 193 230 275 340
#     4  11  20  34  55  82 116 148 188 229 271 330
#
# _framework density 19.377015
#
# number of rings (size 3 to 8) (size 9 to 14) (size 15 to 20)
#    0.000    2.286    1.429    3.429    2.000    1.143 
#    7.714    2.857    0.000    1.714    0.000    0.000 
#    0.000    0.000    0.000    0.000    0.000    0.000 
#
# Total GULP energy -156298.840996 kJ/mol
# GULP energy per Si atom -5582.101464 kJ/mol
# Density = 1.933291 g / cm^3
# Si number density = 19.377015 Si / 1000 Ang^3
#
#
#
# Elastic Constant Matrix: (Units=GPa)
#
#
# Indices 1 2 3 4 5 6 
#
# 1 37.0167 13.6347 35.5481 0.0000 6.4640 0.0000
# 2 13.6347 99.0369 21.9328 0.0000 0.0720 0.0000
# 3 35.5481 21.9328 82.6762 0.0000 11.3849 0.0000
# 4 0.0000 0.0000 0.0000 24.8235 0.0000 -6.9992
# 5 6.4640 0.0720 11.3849 0.0000 24.7487 0.0000
# 6 0.0000 0.0000 0.0000 -6.9992 0.0000 8.3234
#
#
#
# Elastic Compliance Matrix: (Units=1/GPa)
#
#
# Indices 1 2 3 4 5 6 
#
# 1 0.046692 -0.002215 -0.019014 0.000000 -0.003442 0.000000
# 2 -0.002215 0.010876 -0.002144 0.000000 0.001533 0.000000
# 3 -0.019014 -0.002144 0.021518 0.000000 -0.004926 0.000000
# 4 0.000000 0.000000 0.000000 0.052805 0.000000 0.044404
# 5 -0.003442 0.001533 -0.004926 0.000000 0.043567 0.000000
# 6 0.000000 0.000000 0.000000 0.044404 0.000000 0.157483
#
#
# Mechanical properties :
#
#
# Convention : Reuss Voigt Hill
#
# Bulk Modulus (GPa) = 30.92222 40.10676 35.51449
# Shear Modulus (GPa) = 12.80522 21.42007 17.11264
#
# Velocity S-wave (km/s) = 2.57348 3.32842 2.97499
# Velocity P-wave (km/s) = 4.98229 5.95938 5.49261
#
# Compressibility (1/GPa) = 0.03233921
#
# Stress axis : x y z
#
# Youngs Moduli (GPa) = 21.41709 91.94669 46.47243
#
# Poissons Ratio (x) = 0.20364 0.88365
# Poissons Ratio (y) = 0.04743 0.09964
# Poissons Ratio (z) = 0.40723 0.19714
#
# Static dielectric constant tensor:
#      x y z
#    x 1.676640 0.000000 -0.036670 
#    y 0.000000 1.713460 0.000000 
#    z -0.036670 0.000000 1.678440 
# 
# From -- ./inp_files/180851.got.cif
#   From: 2010.05.17/outbox.cif.g08.bks.cpg/sg15_91_cif.got.tgz:180851.got - 2010.06.03 18:47:42.
