data_PCOD9263006
_publ_section_title
;
Structure prediction by ZEFSAII (Michael W. Deem and Ramdas Pophale) SiO2 
 PCOD9263006
Probable space group: C 2/C
;
_chemical_formula_sum "Si O2"
_cell_formula_units_Z 60
_cell_length_a 28.742887
_cell_length_b 9.708768
_cell_length_c 19.681508
_cell_angle_alpha 90.000000
_cell_angle_beta 39.023935
_cell_angle_gamma 90.000000
_cell_volume 3458.188246
_symmetry_space_group_name_H-M "C 2/C"
_symmetry_group_IT_number 15
_symmetry_cell_setting 'monoclinic'
loop_
_space_group_symop_operation_xyz
x,y,z
-x,y,1/2-z
-x,-y,-z
x,-y,1/2+z
1/2+x,1/2+y,z
1/2-x,1/2+y,1/2-z
1/2-x,1/2-y,-z
1/2+x,1/2-y,1/2+z
loop_
_atom_site_type_symbol
_atom_site_label
_atom_site_fract_x
_atom_site_fract_y
_atom_site_fract_z
Si Si1 0.229257 0.638916 0.579610
Si Si2 0.940525 0.665240 0.161195
Si Si3 0.467004 0.642038 0.507524
Si Si4 0.929521 0.651849 0.690931
Si Si5 0.437464 0.734203 0.878736
Si Si6 0.884960 0.925418 0.964961
Si Si7 0.821590 0.345669 0.913569
Si Si8 0.500000 0.759520 0.250000
O O1 0.250000 0.750000 0.500000
O O2 0.156999 0.683453 0.703167
O O3 0.300441 0.607566 0.544436
O O4 0.205258 0.499531 0.568798
O O5 0.933340 0.762667 0.104559
O O6 0.939037 0.501412 0.150213
O O7 0.874625 0.693207 0.289851
O O8 0.018499 0.703876 0.107840
O O9 0.500000 0.500000 0.500000
O O10 0.530242 0.733112 0.399179
O O11 0.408727 0.610000 0.514363
O O12 0.965058 0.655017 0.726988
O O13 0.500000 0.717042 0.750000
O O14 0.403069 0.585517 0.932580
O O15 0.373403 0.829436 0.920592
O O16 0.936679 0.836249 0.855230
O O17 0.750000 0.250000 0.000000
#
# Coordination Sequence:
#
# PCOD9263006 Si02
#       8
#     8   8   8   8   8   8   8   4
#     4  11  22  37  57  89 128 152 184 246 312 353
#     4  10  22  38  59  86 124 154 197 247 292 348
#     4  11  23  40  61  86 115 164 208 241 284 355
#     4  10  23  38  60  87 122 153 200 245 303 348
#     4  10  19  33  59  89 117 150 198 250 295 337
#     4  11  20  35  60  87 120 152 205 241 296 348
#     4  10  21  34  58  89 119 150 191 241 301 348
#     4  10  20  34  60  90 112 156 196 254 294 350
#
# _framework density 17.350125999999999
#
# number of rings (size 3 to 8) (size 9 to 14) (size 15 to 20)
#    0.000    1.600    4.667    0.400    4.667    1.067 
#    0.000    4.000    0.000    0.000    0.000    0.000 
#    0.000    0.000    0.000    0.000    0.000    0.000 
#
# Total GULP energy -167466.928372 kJ/mol
# GULP energy per Si atom -5582.230946 kJ/mol
# Density = 1.731064 g / cm^3
# Si number density = 17.350126 Si / 1000 Ang^3
#
#
#
# Elastic Constant Matrix: (Units=GPa)
#
#
# Indices 1 2 3 4 5 6 
#
# 1 120.3971 50.3164 47.4867 -0.0015 -11.9243 0.0002
# 2 50.3164 92.0181 43.6575 -0.0037 1.7704 -0.0012
# 3 47.4867 43.6575 69.5317 -0.0036 -18.8133 -0.0002
# 4 -0.0015 -0.0037 -0.0036 29.8075 -0.0023 -2.1196
# 5 -11.9243 1.7704 -18.8133 -0.0023 33.8621 0.0021
# 6 0.0002 -0.0012 -0.0002 -2.1196 0.0021 28.3157
#
#
#
# Elastic Compliance Matrix: (Units=1/GPa)
#
#
# Indices 1 2 3 4 5 6 
#
# 1 0.012343 -0.004256 -0.005321 0.000000 0.001613 0.000000
# 2 -0.004256 0.018651 -0.011150 0.000000 -0.008668 0.000001
# 3 -0.005321 -0.011150 0.029032 0.000003 0.014839 -0.000001
# 4 0.000000 0.000000 0.000003 0.033728 0.000004 0.002525
# 5 0.001613 -0.008668 0.014839 0.000004 0.038797 -0.000003
# 6 0.000000 0.000001 -0.000001 0.002525 -0.000003 0.035505
#
#
# Mechanical properties :
#
#
# Convention : Reuss Voigt Hill
#
# Bulk Modulus (GPa) = 53.84283 62.76311 58.30297
# Shear Modulus (GPa) = 23.18038 27.76281 25.47160
#
# Velocity S-wave (km/s) = 3.65915 4.00453 3.83573
# Velocity P-wave (km/s) = 6.99664 7.59175 7.30026
#
# Compressibility (1/GPa) = 0.01857257
#
# Stress axis : x y z
#
# Youngs Moduli (GPa) = 81.01865 53.61610 34.44509
#
# Poissons Ratio (x) = 0.22817 0.18329
# Poissons Ratio (y) = 0.34478 0.38405
# Poissons Ratio (z) = 0.43112 0.59780
#
# Static dielectric constant tensor:
#      x y z
#    x 1.587520 0.000000 0.001860 
#    y 0.000000 1.582040 0.000000 
#    z 0.001860 0.000000 1.579720 
# 
# From -- ./inp_files/257199.got.cif
#   From: 2010.05.17/outbox.cif.g08.bks.cpg/sg15_129_cif.got.tgz:257199.got - 2010.06.03 18:47:42.
