data_PCOD9263529
_publ_section_title
;
Structure prediction by ZEFSAII (Michael W. Deem and Ramdas Pophale) SiO2 
 PCOD9263529
Probable space group: C 2/C
;
_chemical_formula_sum "Si O2"
_cell_formula_units_Z 48
_cell_length_a 28.502220
_cell_length_b 19.777748
_cell_length_c 10.113908
_cell_angle_alpha 90.000000
_cell_angle_beta 25.586023
_cell_angle_gamma 90.000000
_cell_volume 2462.199718
_symmetry_space_group_name_H-M "C 2/C"
_symmetry_group_IT_number 15
_symmetry_cell_setting 'monoclinic'
loop_
_space_group_symop_operation_xyz
x,y,z
-x,y,1/2-z
-x,-y,-z
x,-y,1/2+z
1/2+x,1/2+y,z
1/2-x,1/2+y,1/2-z
1/2-x,1/2-y,-z
1/2+x,1/2-y,1/2+z
loop_
_atom_site_type_symbol
_atom_site_label
_atom_site_fract_x
_atom_site_fract_y
_atom_site_fract_z
Si Si1 0.204406 0.056153 0.607971
Si Si2 0.819471 0.507254 0.070034
Si Si3 0.658189 0.273365 0.435547
Si Si4 0.500000 0.914961 0.750000
Si Si5 0.000000 0.885390 0.750000
Si Si6 0.345637 0.819357 0.803699
Si Si7 0.083801 0.646107 0.781996
O O1 0.232469 0.012940 0.408765
O O2 0.263691 0.128589 0.442719
O O3 0.264679 0.024808 0.581290
O O4 0.079975 0.070035 0.957646
O O5 0.858831 0.582035 0.930483
O O6 0.920868 0.463245 0.865195
O O7 0.578343 0.337659 0.640622
O O8 0.633663 0.239293 0.354665
O O9 0.637162 0.216845 0.599763
O O10 0.783004 0.295949 0.095636
O O11 0.571519 0.869777 0.468481
O O12 0.460557 0.851565 0.542138
#
# Coordination Sequence:
#
# PCOD9263529 Si02
#       7
#     8   8   8   4   4   8   8
#     4  11  23  39  60  90 120 160 200 249 300 357
#     4  12  23  37  60  90 124 157 199 247 305 358
#     4  10  20  34  60  88 111 146 201 252 290 346
#     4  12  24  35  52  90 123 164 186 248 306 362
#     4  10  22  39  64  86 117 158 206 252 288 350
#     4  10  19  34  57  88 113 144 191 247 298 342
#     4  12  21  35  59  86 120 155 196 245 303 346
#
# _framework density 19.494762000000001
#
# number of rings (size 3 to 8) (size 9 to 14) (size 15 to 20)
#    0.000    1.000    6.667    1.500    0.000    0.667 
#    0.000    0.833    0.000    0.000    0.000    0.000 
#    0.000    0.000    0.000    0.000    0.000    0.000 
#
# Total GULP energy -134020.467695 kJ/mol
# GULP energy per Si atom -5584.186154 kJ/mol
# Density = 1.945039 g / cm^3
# Si number density = 19.494762 Si / 1000 Ang^3
#
#
#
# Elastic Constant Matrix: (Units=GPa)
#
#
# Indices 1 2 3 4 5 6 
#
# 1 47.1091 14.3620 31.3844 0.0000 16.7975 0.0000
# 2 14.3620 55.9013 40.4838 0.0000 9.6299 0.0000
# 3 31.3844 40.4838 128.9876 0.0000 12.7661 0.0000
# 4 0.0000 0.0000 0.0000 41.9494 0.0000 6.2128
# 5 16.7975 9.6299 12.7661 0.0000 33.5320 0.0000
# 6 0.0000 0.0000 0.0000 6.2128 0.0000 12.0480
#
#
#
# Elastic Compliance Matrix: (Units=1/GPa)
#
#
# Indices 1 2 3 4 5 6 
#
# 1 0.029800 -0.001501 -0.005554 0.000000 -0.012383 0.000000
# 2 -0.001501 0.023764 -0.006746 0.000000 -0.003504 0.000000
# 3 -0.005554 -0.006746 0.011176 0.000000 0.000465 0.000000
# 4 0.000000 0.000000 0.000000 0.025809 0.000000 -0.013309
# 5 -0.012383 -0.003504 0.000465 0.000000 0.036855 0.000000
# 6 0.000000 0.000000 0.000000 -0.013309 0.000000 0.089865
#
#
# Mechanical properties :
#
#
# Convention : Reuss Voigt Hill
#
# Bulk Modulus (GPa) = 26.92754 44.93983 35.93368
# Shear Modulus (GPa) = 19.43634 27.22372 23.33003
#
# Velocity S-wave (km/s) = 3.16096 3.74098 3.46314
# Velocity P-wave (km/s) = 5.21200 6.46237 5.87057
#
# Compressibility (1/GPa) = 0.03713670
#
# Stress axis : x y z
#
# Youngs Moduli (GPa) = 33.55666 42.08095 89.48137
#
# Poissons Ratio (x) = 0.06315 0.49700
# Poissons Ratio (y) = 0.05036 0.60368
# Poissons Ratio (z) = 0.18638 0.28390
#
# Static dielectric constant tensor:
#      x y z
#    x 1.657880 0.000000 0.012320 
#    y 0.000000 1.714870 0.000000 
#    z 0.012320 0.000000 1.737800 
# 
# From -- ./inp_files/67492.got.cif
#   From: 2010.05.17/outbox.cif.g08.bks.cpg/sg15_34_cif.got.tgz:67492.got - 2010.06.03 18:47:42.
