data_PCOD9263800
_publ_section_title
;
Structure prediction by ZEFSAII (Michael W. Deem and Ramdas Pophale) SiO2 
 PCOD9263800
Probable space group: C 2/C
;
_chemical_formula_sum "Si O2"
_cell_formula_units_Z 52
_cell_length_a 8.307924
_cell_length_b 23.300532
_cell_length_c 18.092770
_cell_angle_alpha 90.000000
_cell_angle_beta 136.764388
_cell_angle_gamma 90.000000
_cell_volume 2399.131345
_symmetry_space_group_name_H-M "C 2/C"
_symmetry_group_IT_number 15
_symmetry_cell_setting 'monoclinic'
loop_
_space_group_symop_operation_xyz
x,y,z
-x,y,1/2-z
-x,-y,-z
x,-y,1/2+z
1/2+x,1/2+y,z
1/2-x,1/2+y,1/2-z
1/2-x,1/2-y,-z
1/2+x,1/2-y,1/2+z
loop_
_atom_site_type_symbol
_atom_site_label
_atom_site_fract_x
_atom_site_fract_y
_atom_site_fract_z
Si Si1 0.138513 0.822939 0.532341
Si Si2 0.980878 0.304478 0.962815
Si Si3 0.000000 0.230834 0.250000
Si Si4 0.884943 0.056746 0.791029
Si Si5 0.672515 0.817990 0.191976
Si Si6 0.122691 0.941867 0.515490
Si Si7 0.000000 0.520994 0.250000
Si Si8 0.000000 0.730847 0.250000
O O1 0.333160 0.830199 0.533041
O O2 0.997170 0.881521 0.493336
O O3 0.285666 0.807634 0.654376
O O4 0.008899 0.764499 0.472258
O O5 0.718600 0.310647 0.843670
O O6 0.058328 0.322250 0.071688
O O7 0.990403 0.277137 0.313792
O O8 0.759521 0.119213 0.743974
O O9 0.687488 0.016471 0.764386
O O10 0.000000 0.042119 0.750000
O O11 0.104051 0.056877 0.921184
O O12 0.905729 0.777340 0.276208
O O13 0.361546 0.942395 0.642096
O O14 0.000000 0.000000 0.500000
#
# Coordination Sequence:
#
# PCOD9263800 Si02
#       8
#     8   8   4   8   8   8   4   4
#     4  10  19  37  61  91 124 171 209 267 323 395
#     4  10  22  35  60  92 130 170 211 259 337 400
#     4  12  21  36  52  87 139 166 208 265 310 402
#     4  11  22  40  68  95 126 169 222 283 327 395
#     4  11  21  36  59  92 125 168 212 259 326 400
#     4  10  22  40  66  96 127 168 231 273 325 397
#     4  10  24  44  64  96 126 170 223 275 342 380
#     4  10  19  34  60  91 119 166 211 246 330 400
#
# _framework density 21.674510999999999
#
# number of rings (size 3 to 8) (size 9 to 14) (size 15 to 20)
#    0.000    1.538    2.308    3.231    2.154    1.846 
#    0.000    0.000    5.077    0.000    0.000    0.000 
#    0.000    0.000    0.000    0.000    0.000    0.000 
#
# Total GULP energy -144737.635443 kJ/mol
# GULP energy per Si atom -5566.832132 kJ/mol
# Density = 2.162518 g / cm^3
# Si number density = 21.674511 Si / 1000 Ang^3
#
#
#
# Elastic Constant Matrix: (Units=GPa)
#
#
# Indices 1 2 3 4 5 6 
#
# 1 58.6531 5.7817 18.9332 0.0000 -2.1131 0.0000
# 2 5.7817 95.6217 20.2219 0.0000 -5.8174 0.0000
# 3 18.9332 20.2219 165.5741 0.0001 -13.9940 0.0001
# 4 0.0000 0.0000 0.0001 25.0031 0.0001 -3.2790
# 5 -2.1131 -5.8174 -13.9940 0.0001 30.9765 0.0001
# 6 0.0000 0.0000 0.0001 -3.2790 0.0001 8.2966
#
#
#
# Elastic Compliance Matrix: (Units=1/GPa)
#
#
# Indices 1 2 3 4 5 6 
#
# 1 0.017745 -0.000651 -0.001931 0.000000 0.000216 0.000000
# 2 -0.000651 0.010825 -0.001122 0.000000 0.001481 0.000000
# 3 -0.001931 -0.001122 0.006621 0.000000 0.002649 0.000000
# 4 0.000000 0.000000 0.000000 0.042181 0.000000 0.016671
# 5 0.000216 0.001481 0.002649 0.000000 0.033772 0.000000
# 6 0.000000 0.000000 0.000000 0.016671 0.000000 0.127119
#
#
# Mechanical properties :
#
#
# Convention : Reuss Voigt Hill
#
# Bulk Modulus (GPa) = 35.99608 45.52474 40.76041
# Shear Modulus (GPa) = 19.61290 31.18272 25.39781
#
# Velocity S-wave (km/s) = 3.01139 3.79711 3.42684
# Velocity P-wave (km/s) = 5.36050 6.34614 5.87403
#
# Compressibility (1/GPa) = 0.02778080
#
# Stress axis : x y z
#
# Youngs Moduli (GPa) = 56.35455 92.38091 151.02587
#
# Poissons Ratio (x) = 0.06018 0.29168
# Poissons Ratio (y) = 0.03671 0.16951
# Poissons Ratio (z) = 0.10884 0.10368
#
# Static dielectric constant tensor:
#      x y z
#    x 1.991230 0.000000 -0.021490 
#    y 0.000000 1.793620 0.000000 
#    z -0.021490 0.000000 1.871450 
# 
# From -- ./inp_files/192645.got.cif
#   From: 2010.05.17/outbox.cif.g08.bks.cpg/sg15_97_cif.got.tgz:192645.got - 2010.06.03 18:47:42.
