data_PCOD9263389
_publ_section_title
;
Structure prediction by ZEFSAII (Michael W. Deem and Ramdas Pophale) SiO2 
 PCOD9263389
Probable space group: C 2/C
;
_chemical_formula_sum "Si O2"
_cell_formula_units_Z 60
_cell_length_a 19.863303
_cell_length_b 8.310148
_cell_length_c 20.934928
_cell_angle_alpha 90.000000
_cell_angle_beta 134.182240
_cell_angle_gamma 90.000000
_cell_volume 2478.149908
_symmetry_space_group_name_H-M "C 2/C"
_symmetry_group_IT_number 15
_symmetry_cell_setting 'monoclinic'
loop_
_space_group_symop_operation_xyz
x,y,z
-x,y,1/2-z
-x,-y,-z
x,-y,1/2+z
1/2+x,1/2+y,z
1/2-x,1/2+y,1/2-z
1/2-x,1/2-y,-z
1/2+x,1/2-y,1/2+z
loop_
_atom_site_type_symbol
_atom_site_label
_atom_site_fract_x
_atom_site_fract_y
_atom_site_fract_z
Si Si1 0.576438 0.365129 0.716011
Si Si2 0.194400 0.550577 0.371372
Si Si3 0.238418 0.317073 0.282807
Si Si4 0.000000 0.587766 0.750000
Si Si5 0.100280 0.966301 0.451887
Si Si6 0.575064 0.885069 0.982170
Si Si7 0.915323 0.720012 0.474402
Si Si8 0.219283 0.109707 0.830501
O O1 0.645557 0.290445 0.706807
O O2 0.537810 0.206855 0.722039
O O3 0.486050 0.477194 0.648722
O O4 0.652962 0.463678 0.807413
O O5 0.211611 0.460585 0.314091
O O6 0.285684 0.511860 0.475959
O O7 0.188547 0.735719 0.349572
O O8 0.093369 0.505313 0.332284
O O9 0.314008 0.217339 0.373696
O O10 0.289617 0.368487 0.251844
O O11 0.076637 0.097167 0.493812
O O12 0.089174 0.773053 0.448367
O O13 0.489001 0.827840 0.968901
O O14 0.670515 0.893137 0.085284
O O15 0.567699 0.076983 0.962284
#
# Coordination Sequence:
#
# PCOD9263389 Si02
#       8
#     8   8   8   4   8   8   8   8
#     4  11  22  39  63  87 122 157 198 256 300 363
#     4   9  22  39  64  84 121 160 201 252 293 370
#     4  10  19  35  58  95 123 162 197 239 307 359
#     4  10  24  46  62  86 110 158 214 240 320 362
#     4  10  21  39  58  87 118 161 203 249 305 349
#     4  10  20  33  54  86 125 165 200 237 291 370
#     4  10  19  34  56  82 133 170 192 240 293 364
#     4  11  20  35  61  92 126 153 201 253 301 356
#
# _framework density 24.211608999999999
#
# number of rings (size 3 to 8) (size 9 to 14) (size 15 to 20)
#    0.000    1.867    1.333    2.800    0.000    3.200 
#    7.200    0.000    0.000    2.400    0.000    0.000 
#    0.000    0.000    0.000    0.000    0.000    0.000 
#
# Total GULP energy -167046.193717 kJ/mol
# GULP energy per Si atom -5568.206457 kJ/mol
# Density = 2.415650 g / cm^3
# Si number density = 24.211609 Si / 1000 Ang^3
#
#
#
# Elastic Constant Matrix: (Units=GPa)
#
#
# Indices 1 2 3 4 5 6 
#
# 1 68.7750 26.3011 38.7630 0.0000 38.3483 0.0000
# 2 26.3011 82.1995 19.0908 0.0000 11.0748 0.0000
# 3 38.7630 19.0908 92.1797 0.0000 36.7246 0.0000
# 4 0.0000 0.0000 0.0000 224.6076 0.0000 -60.6529
# 5 38.3483 11.0748 36.7246 0.0000 38.5138 0.0000
# 6 0.0000 0.0000 0.0000 -60.6529 0.0000 48.1570
#
#
#
# Elastic Compliance Matrix: (Units=1/GPa)
#
#
# Indices 1 2 3 4 5 6 
#
# 1 0.036188 -0.006957 -0.000352 0.000000 -0.033696 0.000000
# 2 -0.006957 0.014201 -0.001852 0.000000 0.004610 0.000000
# 3 -0.000352 -0.001852 0.017784 0.000000 -0.016075 0.000000
# 4 0.000000 0.000000 0.000000 0.006747 0.000000 0.008498
# 5 -0.033696 0.004610 -0.016075 0.000000 0.073519 0.000000
# 6 0.000000 0.000000 0.000000 0.008498 0.000000 0.031468
#
#
# Mechanical properties :
#
#
# Convention : Reuss Voigt Hill
#
# Bulk Modulus (GPa) = 20.06014 45.71823 32.88918
# Shear Modulus (GPa) = 23.27253 72.85562 48.06408
#
# Velocity S-wave (km/s) = 3.10371 5.49150 4.46035
# Velocity P-wave (km/s) = 4.59862 7.68976 6.33561
#
# Compressibility (1/GPa) = 0.04985010
#
# Stress axis : x y z
#
# Youngs Moduli (GPa) = 27.63364 70.41927 56.22931
#
# Poissons Ratio (x) = 0.48993 0.01980
# Poissons Ratio (y) = 0.19225 0.10413
# Poissons Ratio (z) = 0.00973 0.13041
#
# Static dielectric constant tensor:
#      x y z
#    x 1.974610 0.000000 -0.029300 
#    y 0.000000 2.018010 0.000000 
#    z -0.029300 0.000000 1.972960 
# 
# From -- ./inp_files/279734.got.cif
#   From: 2010.05.17/outbox.cif.g08.bks.cpg/sg15_140_cif.got.tgz:279734.got - 2010.06.03 18:47:42.
