data_PCOD9263603
_publ_section_title
;
Structure prediction by ZEFSAII (Michael W. Deem and Ramdas Pophale) SiO2 
 PCOD9263603
Probable space group: C 2/C
;
_chemical_formula_sum "Si O2"
_cell_formula_units_Z 32
_cell_length_a 21.772732
_cell_length_b 9.419582
_cell_length_c 7.660513
_cell_angle_alpha 90.000000
_cell_angle_beta 116.505302
_cell_angle_gamma 90.000000
_cell_volume 1405.961912
_symmetry_space_group_name_H-M "C 2/C"
_symmetry_group_IT_number 15
_symmetry_cell_setting 'monoclinic'
loop_
_space_group_symop_operation_xyz
x,y,z
-x,y,1/2-z
-x,-y,-z
x,-y,1/2+z
1/2+x,1/2+y,z
1/2-x,1/2+y,1/2-z
1/2-x,1/2-y,-z
1/2+x,1/2-y,1/2+z
loop_
_atom_site_type_symbol
_atom_site_label
_atom_site_fract_x
_atom_site_fract_y
_atom_site_fract_z
Si Si1 0.071509 0.266488 0.375362
Si Si2 0.714666 0.689412 0.672453
Si Si3 0.070196 0.562593 0.237404
Si Si4 0.722724 0.943745 0.927378
O O1 0.140718 0.179919 0.487330
O O2 0.072885 0.390957 0.231957
O O3 0.068314 0.358238 0.550798
O O4 0.000000 0.186660 0.250000
O O5 0.728670 0.848524 0.758756
O O6 0.767639 0.606325 0.616743
O O7 0.720258 0.606329 0.864185
O O8 0.147000 0.592098 0.407287
O O9 0.000000 0.599318 0.250000
#
# Coordination Sequence:
#
# PCOD9263603 Si02
#       4
#     8   8   8   8
#     4  10  20  35  56  85 118 154 193 238 289 344
#     4  10  22  38  59  86 119 152 195 238 288 345
#     4  10  19  34  58  85 115 148 194 244 282 329
#     4  10  21  39  61  89 116 152 193 240 291 343
#
# _framework density 22.760217999999998
#
# number of rings (size 3 to 8) (size 9 to 14) (size 15 to 20)
#    0.000    2.000    0.000    6.000    0.000    4.000 
#    0.000    6.250    0.000    6.000    0.000    7.000 
#    0.000    0.000    0.000    0.000    0.000    0.000 
#
# Total GULP energy -89186.501989 kJ/mol
# GULP energy per Si atom -5574.156374 kJ/mol
# Density = 2.270841 g / cm^3
# Si number density = 22.760218 Si / 1000 Ang^3
#
#
#
# Elastic Constant Matrix: (Units=GPa)
#
#
# Indices 1 2 3 4 5 6 
#
# 1 138.2083 45.8443 54.5646 0.0000 17.0975 0.0000
# 2 45.8443 51.7731 7.9551 0.0000 12.2031 0.0000
# 3 54.5646 7.9551 109.2730 0.0000 33.0136 0.0000
# 4 0.0000 0.0000 0.0000 28.7791 0.0000 5.8060
# 5 17.0975 12.2031 33.0136 0.0000 43.8937 0.0000
# 6 0.0000 0.0000 0.0000 5.8060 0.0000 23.6645
#
#
#
# Elastic Compliance Matrix: (Units=1/GPa)
#
#
# Indices 1 2 3 4 5 6 
#
# 1 0.013333 -0.011494 -0.006751 0.000000 0.003080 0.000000
# 2 -0.011494 0.030587 0.006120 0.000000 -0.008629 0.000000
# 3 -0.006751 0.006120 0.015265 0.000000 -0.010553 0.000000
# 4 0.000000 0.000000 0.000000 0.036557 0.000000 -0.008969
# 5 0.003080 -0.008629 -0.010553 0.000000 0.031919 0.000000
# 6 0.000000 0.000000 0.000000 -0.008969 0.000000 0.044458
#
#
# Mechanical properties :
#
#
# Convention : Reuss Voigt Hill
#
# Bulk Modulus (GPa) = 28.62599 57.33138 42.97869
# Shear Modulus (GPa) = 24.03680 31.99349 28.01515
#
# Velocity S-wave (km/s) = 3.25328 3.75330 3.51220
# Velocity P-wave (km/s) = 5.16878 6.63529 5.94741
#
# Compressibility (1/GPa) = 0.03493328
#
# Stress axis : x y z
#
# Youngs Moduli (GPa) = 75.00428 32.69388 65.50776
#
# Poissons Ratio (x) = 0.37580 0.44226
# Poissons Ratio (y) = 0.86213 -0.40091
# Poissons Ratio (z) = 0.50637 -0.20009
#
# Static dielectric constant tensor:
#      x y z
#    x 1.923760 0.000000 0.001330 
#    y 0.000000 1.881080 0.000000 
#    z 0.001330 0.000000 1.938350 
# 
# From -- ./inp_files/45968.got.cif
#   From: 2010.05.17/outbox.cif.g08.bks.cpg/sg15_23_cif.got.tgz:45968.got - 2010.06.03 18:47:42.
