data_PCOD9263904
_publ_section_title
;
Structure prediction by ZEFSAII (Michael W. Deem and Ramdas Pophale) SiO2 
 PCOD9263904
Probable space group: C 2/C
;
_chemical_formula_sum "Si O2"
_cell_formula_units_Z 48
_cell_length_a 13.396608
_cell_length_b 19.314401
_cell_length_c 10.919468
_cell_angle_alpha 90.000000
_cell_angle_beta 56.975449
_cell_angle_gamma 90.000000
_cell_volume 2368.907312
_symmetry_space_group_name_H-M "C 2/C"
_symmetry_group_IT_number 15
_symmetry_cell_setting 'monoclinic'
loop_
_space_group_symop_operation_xyz
x,y,z
-x,y,1/2-z
-x,-y,-z
x,-y,1/2+z
1/2+x,1/2+y,z
1/2-x,1/2+y,1/2-z
1/2-x,1/2-y,-z
1/2+x,1/2-y,1/2+z
loop_
_atom_site_type_symbol
_atom_site_label
_atom_site_fract_x
_atom_site_fract_y
_atom_site_fract_z
Si Si1 0.000000 0.826782 0.750000
Si Si2 0.500000 0.720204 0.750000
Si Si3 0.428372 0.005224 0.417619
Si Si4 0.903505 0.716042 0.995662
Si Si5 0.604067 0.161598 0.033121
Si Si6 0.265701 0.396171 0.989956
Si Si7 0.183978 0.165843 0.799132
O O1 0.017514 0.773758 0.625493
O O2 0.118841 0.873499 0.665689
O O3 0.597833 0.773749 0.630077
O O4 0.557834 0.673007 0.815259
O O5 0.500000 0.977239 0.250000
O O6 0.402255 0.085544 0.406843
O O7 0.500000 0.000000 0.500000
O O8 0.304061 0.963825 0.506395
O O9 0.833287 0.664344 0.956192
O O10 0.986373 0.672702 0.029762
O O11 0.808726 0.760750 0.135182
O O12 0.715239 0.161561 0.868936
O O13 0.304898 0.393433 0.105970
#
# Coordination Sequence:
#
# PCOD9263904 Si02
#       7
#     4   4   8   8   8   8   8
#     4  10  20  36  60  98 134 164 212 268 332 396
#     4  10  22  38  58  88 126 168 216 272 338 396
#     4  12  25  43  65  95 135 178 228 275 323 402
#     4  10  19  34  62  96 127 164 211 275 338 392
#     4  11  20  38  60  90 125 166 220 272 330 391
#     4  11  22  38  63  95 133 175 218 273 335 392
#     4  10  21  36  59  90 124 166 214 273 338 389
#
# _framework density 20.262508
#
# number of rings (size 3 to 8) (size 9 to 14) (size 15 to 20)
#    0.000    1.333    2.500    5.500    1.167    0.000 
#    0.000    4.167    0.000    6.000    0.000    0.000 
#    0.000    0.000    0.000    0.000    0.000    0.000 
#
# Total GULP energy -133898.849624 kJ/mol
# GULP energy per Si atom -5579.118734 kJ/mol
# Density = 2.021639 g / cm^3
# Si number density = 20.262508 Si / 1000 Ang^3
#
#
#
# Elastic Constant Matrix: (Units=GPa)
#
#
# Indices 1 2 3 4 5 6 
#
# 1 90.8011 55.5043 16.2956 0.0000 12.3659 0.0000
# 2 55.5043 72.4991 26.2019 0.0000 -10.6934 0.0000
# 3 16.2956 26.2019 111.3381 0.0000 -13.9055 0.0000
# 4 0.0000 0.0000 0.0000 5.1272 0.0000 3.2569
# 5 12.3659 -10.6934 -13.9055 0.0000 37.8287 0.0000
# 6 0.0000 0.0000 0.0000 3.2569 0.0000 35.9103
#
#
#
# Elastic Compliance Matrix: (Units=1/GPa)
#
#
# Indices 1 2 3 4 5 6 
#
# 1 0.027309 -0.023021 -0.000531 0.000000 -0.015630 0.000000
# 2 -0.023021 0.034836 -0.002787 0.000000 0.016348 0.000000
# 3 -0.000531 -0.002787 0.010102 0.000000 0.003099 0.000000
# 4 0.000000 0.000000 0.000000 0.206960 0.000000 -0.018770
# 5 -0.015630 0.016348 0.003099 0.000000 0.037305 0.000000
# 6 0.000000 0.000000 0.000000 -0.018770 0.000000 0.029550
#
#
# Mechanical properties :
#
#
# Convention : Reuss Voigt Hill
#
# Bulk Modulus (GPa) = 51.10080 52.29354 51.69717
# Shear Modulus (GPa) = 12.33766 27.54903 19.94334
#
# Velocity S-wave (km/s) = 2.47025 3.69128 3.14068
# Velocity P-wave (km/s) = 5.78016 6.63562 6.22261
#
# Compressibility (1/GPa) = 0.01956916
#
# Stress axis : x y z
#
# Youngs Moduli (GPa) = 36.61811 28.70590 98.98602
#
# Poissons Ratio (x) = 0.66083 0.05261
# Poissons Ratio (y) = 0.84297 0.27588
# Poissons Ratio (z) = 0.01946 0.08001
#
# Static dielectric constant tensor:
#      x y z
#    x 1.770470 0.000000 0.024200 
#    y 0.000000 1.725450 0.000000 
#    z 0.024200 0.000000 1.784080 
# 
# From -- ./inp_files/99038.got.cif
#   From: 2010.05.17/outbox.cif.g08.bks.cpg/sg15_50_cif.got.tgz:99038.got - 2010.06.03 18:47:42.
