data_PCOD9263487
_publ_section_title
;
Structure prediction by ZEFSAII (Michael W. Deem and Ramdas Pophale) SiO2 
 PCOD9263487
Probable space group: C 2/C
;
_chemical_formula_sum "Si O2"
_cell_formula_units_Z 56
_cell_length_a 23.820845
_cell_length_b 7.592396
_cell_length_c 14.555648
_cell_angle_alpha 90.000000
_cell_angle_beta 115.633460
_cell_angle_gamma 90.000000
_cell_volume 2373.404972
_symmetry_space_group_name_H-M "C 2/C"
_symmetry_group_IT_number 15
_symmetry_cell_setting 'monoclinic'
loop_
_space_group_symop_operation_xyz
x,y,z
-x,y,1/2-z
-x,-y,-z
x,-y,1/2+z
1/2+x,1/2+y,z
1/2-x,1/2+y,1/2-z
1/2-x,1/2-y,-z
1/2+x,1/2-y,1/2+z
loop_
_atom_site_type_symbol
_atom_site_label
_atom_site_fract_x
_atom_site_fract_y
_atom_site_fract_z
Si Si1 0.058636 0.331645 0.338959
Si Si2 0.482582 0.487366 0.093219
Si Si3 0.226957 0.229505 0.621044
Si Si4 0.855953 0.121621 0.446434
Si Si5 0.388190 0.452353 0.762615
Si Si6 0.316917 0.020097 0.567202
Si Si7 0.226575 0.788127 0.337849
O O1 0.110962 0.464574 0.405862
O O2 0.000000 0.420968 0.250000
O O3 0.032461 0.189899 0.391431
O O4 0.093402 0.200714 0.293308
O O5 0.547038 0.432810 0.189191
O O6 0.500000 0.500000 0.000000
O O7 0.417550 0.380337 0.053647
O O8 0.291223 0.144109 0.632999
O O9 0.215401 0.391913 0.544639
O O10 0.223832 0.271896 0.727419
O O11 0.177461 0.071050 0.565418
O O12 0.800939 0.266276 0.411804
O O13 0.879230 0.123930 0.358165
O O14 0.323704 0.552756 0.696402
O O15 0.300959 0.836281 0.602421
#
# Coordination Sequence:
#
# PCOD9263487 Si02
#       7
#     8   8   8   8   8   8   8
#     4  10  19  34  57  84 107 148 200 236 273 352
#     4   9  17  32  57  81 109 142 194 240 281 332
#     4   9  18  33  58  85 119 151 192 230 284 343
#     4   9  16  32  56  85 112 151 193 230 277 347
#     4   9  19  33  54  85 116 145 183 244 292 325
#     4  10  19  34  61  84 113 156 194 231 283 351
#     4  10  20  34  57  89 123 150 181 243 300 338
#
# _framework density 23.594792000000002
#
# number of rings (size 3 to 8) (size 9 to 14) (size 15 to 20)
#    0.000    2.571    1.429    0.857    0.000    0.000 
#    0.000    2.857   15.714    0.857    0.000    0.000 
#    0.000    0.000    0.000    0.000    0.000    0.000 
#
# Total GULP energy -156042.896032 kJ/mol
# GULP energy per Si atom -5572.960573 kJ/mol
# Density = 2.354109 g / cm^3
# Si number density = 23.594792 Si / 1000 Ang^3
#
#
#
# Elastic Constant Matrix: (Units=GPa)
#
#
# Indices 1 2 3 4 5 6 
#
# 1 137.7696 14.9277 53.9962 0.0000 27.6367 0.0000
# 2 14.9277 40.0444 19.9112 0.0000 2.3375 0.0000
# 3 53.9962 19.9112 99.8535 0.0000 18.6116 0.0000
# 4 0.0000 0.0000 0.0000 15.5374 0.0000 7.3535
# 5 27.6367 2.3375 18.6116 0.0000 63.8207 0.0000
# 6 0.0000 0.0000 0.0000 7.3535 0.0000 31.4612
#
#
#
# Elastic Compliance Matrix: (Units=1/GPa)
#
#
# Indices 1 2 3 4 5 6 
#
# 1 0.009720 -0.001230 -0.004478 0.000000 -0.002858 0.000000
# 2 -0.001230 0.027900 -0.005084 0.000000 0.000993 0.000000
# 3 -0.004478 -0.005084 0.013804 0.000000 -0.001900 0.000000
# 4 0.000000 0.000000 0.000000 0.072366 0.000000 -0.016914
# 5 -0.002858 0.000993 -0.001900 0.000000 0.017424 0.000000
# 6 0.000000 0.000000 0.000000 -0.016914 0.000000 0.035739
#
#
# Mechanical properties :
#
#
# Convention : Reuss Voigt Hill
#
# Bulk Modulus (GPa) = 33.51039 50.59307 42.05173
# Shear Modulus (GPa) = 23.98262 34.75269 29.36765
#
# Velocity S-wave (km/s) = 3.19162 3.84200 3.53181
# Velocity P-wave (km/s) = 5.27401 6.41641 5.87305
#
# Compressibility (1/GPa) = 0.02984149
#
# Stress axis : x y z
#
# Youngs Moduli (GPa) = 102.87736 35.84166 72.44182
#
# Poissons Ratio (x) = 0.04408 0.32442
# Poissons Ratio (y) = 0.12653 0.36826
# Poissons Ratio (z) = 0.46072 0.18220
#
# Static dielectric constant tensor:
#      x y z
#    x 1.923420 0.000000 0.060150 
#    y 0.000000 1.997210 0.000000 
#    z 0.060150 0.000000 1.951870 
# 
# From -- ./inp_files/172506.got.cif
#   From: 2010.05.17/outbox.cif.g08.bks.cpg/sg15_87_cif.got.tgz:172506.got - 2010.06.03 18:47:42.
