data_PCOD9263546
_publ_section_title
;
Structure prediction by ZEFSAII (Michael W. Deem and Ramdas Pophale) SiO2 
 PCOD9263546
Probable space group: C 2/C
;
_chemical_formula_sum "Si O2"
_cell_formula_units_Z 32
_cell_length_a 5.294542
_cell_length_b 19.295628
_cell_length_c 13.594117
_cell_angle_alpha 90.000000
_cell_angle_beta 61.059178
_cell_angle_gamma 90.000000
_cell_volume 1215.362737
_symmetry_space_group_name_H-M "C 2/C"
_symmetry_group_IT_number 15
_symmetry_cell_setting 'monoclinic'
loop_
_space_group_symop_operation_xyz
x,y,z
-x,y,1/2-z
-x,-y,-z
x,-y,1/2+z
1/2+x,1/2+y,z
1/2-x,1/2+y,1/2-z
1/2-x,1/2-y,-z
1/2+x,1/2-y,1/2+z
loop_
_atom_site_type_symbol
_atom_site_label
_atom_site_fract_x
_atom_site_fract_y
_atom_site_fract_z
Si Si1 0.569994 0.771096 0.133451
Si Si2 0.822580 0.010253 0.380420
Si Si3 0.181834 0.588856 0.117464
Si Si4 0.387671 0.652133 0.904687
O O1 0.500000 0.728343 0.250000
O O2 0.279898 0.802182 0.142153
O O3 0.785499 0.828314 0.137191
O O4 0.750000 0.750000 0.000000
O O5 0.868436 0.928504 0.381156
O O6 0.000000 0.029953 0.250000
O O7 0.499386 0.032040 0.410992
O O8 0.998135 0.058460 0.423816
O O9 0.000000 0.602460 0.250000
O O10 0.215351 0.655188 0.041537
#
# Coordination Sequence:
#
# PCOD9263546 Si02
#       4
#     8   8   8   8
#     4  12  28  48  70  95 123 163 218 277 332 381
#     4  10  19  34  57  91 135 174 210 251 303 378
#     4  10  21  35  58  96 137 174 208 249 307 376
#     4  12  23  41  68  94 126 169 215 263 319 381
#
# _framework density 26.329588999999999
#
# number of rings (size 3 to 8) (size 9 to 14) (size 15 to 20)
#    0.000    1.000    0.000    7.500    0.000    4.000 
#    0.000    0.000    0.000    0.000    0.000    0.000 
#    0.000    0.000    0.000    0.000    0.000    0.000 
#
# Total GULP energy -89391.766872 kJ/mol
# GULP energy per Si atom -5586.985429 kJ/mol
# Density = 2.626966 g / cm^3
# Si number density = 26.329589 Si / 1000 Ang^3
#
#
#
# Elastic Constant Matrix: (Units=GPa)
#
#
# Indices 1 2 3 4 5 6 
#
# 1 192.7623 49.2342 22.0372 0.0000 4.2476 0.0000
# 2 49.2342 49.8687 23.4040 0.0000 13.2627 0.0000
# 3 22.0372 23.4040 183.9545 0.0000 22.4441 0.0000
# 4 0.0000 0.0000 0.0000 28.1568 0.0000 0.4609
# 5 4.2476 13.2627 22.4441 0.0000 42.5733 0.0000
# 6 0.0000 0.0000 0.0000 0.4609 0.0000 32.6003
#
#
#
# Elastic Compliance Matrix: (Units=1/GPa)
#
#
# Indices 1 2 3 4 5 6 
#
# 1 0.007037 -0.007332 -0.000110 0.000000 0.001640 0.000000
# 2 -0.007332 0.030278 -0.002044 0.000000 -0.007623 0.000000
# 3 -0.000110 -0.002044 0.006017 0.000000 -0.002525 0.000000
# 4 0.000000 0.000000 0.000000 0.035524 0.000000 -0.000502
# 5 0.001640 -0.007623 -0.002525 0.000000 0.027031 0.000000
# 6 0.000000 0.000000 0.000000 -0.000502 0.000000 0.030682
#
#
# Mechanical properties :
#
#
# Convention : Reuss Voigt Hill
#
# Bulk Modulus (GPa) = 41.05013 68.43734 54.74373
# Shear Modulus (GPa) = 30.55116 42.79343 36.67229
#
# Velocity S-wave (km/s) = 3.41007 4.03587 3.73609
# Velocity P-wave (km/s) = 5.57938 6.91134 6.28077
#
# Compressibility (1/GPa) = 0.02436046
#
# Stress axis : x y z
#
# Youngs Moduli (GPa) = 142.10950 33.02761 166.18526
#
# Poissons Ratio (x) = 0.24215 0.01833
# Poissons Ratio (y) = 1.04191 0.33963
# Poissons Ratio (z) = 0.01568 0.06750
#
# Static dielectric constant tensor:
#      x y z
#    x 2.137620 0.000000 -0.087870 
#    y 0.000000 1.992060 0.000000 
#    z -0.087870 0.000000 2.402610 
# 
# From -- ./inp_files/72363.got.cif
#   From: 2010.05.17/outbox.cif.g08.bks.cpg/sg15_37_cif.got.tgz:72363.got - 2010.06.03 18:47:42.
