data_PCOD9263521
_publ_section_title
;
Structure prediction by ZEFSAII (Michael W. Deem and Ramdas Pophale) SiO2 
 PCOD9263521
Probable space group: C 2/C
;
_chemical_formula_sum "Si O2"
_cell_formula_units_Z 56
_cell_length_a 12.490748
_cell_length_b 16.209596
_cell_length_c 15.136706
_cell_angle_alpha 90.000000
_cell_angle_beta 93.784538
_cell_angle_gamma 90.000000
_cell_volume 3058.045341
_symmetry_space_group_name_H-M "C 2/C"
_symmetry_group_IT_number 15
_symmetry_cell_setting 'monoclinic'
loop_
_space_group_symop_operation_xyz
x,y,z
-x,y,1/2-z
-x,-y,-z
x,-y,1/2+z
1/2+x,1/2+y,z
1/2-x,1/2+y,1/2-z
1/2-x,1/2-y,-z
1/2+x,1/2-y,1/2+z
loop_
_atom_site_type_symbol
_atom_site_label
_atom_site_fract_x
_atom_site_fract_y
_atom_site_fract_z
Si Si1 0.166050 0.972140 0.865518
Si Si2 0.500000 0.571279 0.750000
Si Si3 0.432564 0.707675 0.888341
Si Si4 0.511623 0.622490 0.063469
Si Si5 0.000000 0.210876 0.250000
Si Si6 0.269874 0.380676 0.026422
Si Si7 0.852561 0.712647 0.121048
Si Si8 0.234047 0.793773 0.798906
O O1 0.070703 0.951938 0.929461
O O2 0.213602 0.884198 0.839863
O O3 0.243959 0.039031 0.914027
O O4 0.101455 0.016226 0.783022
O O5 0.463600 0.629088 0.829262
O O6 0.520579 0.775381 0.864274
O O7 0.313866 0.739133 0.862123
O O8 0.456633 0.685135 0.991048
O O9 0.523045 0.659138 0.162341
O O10 0.628153 0.604750 0.031680
O O11 0.117257 0.248876 0.277210
O O12 0.304297 0.301592 0.087319
O O13 0.175102 0.351442 0.957809
O O14 0.794210 0.693483 0.209126
#
# Coordination Sequence:
#
# PCOD9263521 Si02
#       8
#     8   4   8   8   4   8   8   8
#     4  11  22  32  54  91 123 149 192 257 314 341
#     4  12  21  36  60  94 117 152 208 248 297 344
#     4  11  22  39  63  87 118 161 205 246 288 371
#     4  10  20  36  57  85 124 151 195 247 308 349
#     4  10  21  34  54  86 117 154 188 236 305 350
#     4  10  19  34  57  87 112 153 207 250 282 355
#     4  10  19  36  61  84 112 161 206 238 293 359
#     4  11  21  37  57  89 126 153 194 250 306 358
#
# _framework density 18.312351
#
# number of rings (size 3 to 8) (size 9 to 14) (size 15 to 20)
#    0.000    1.429    5.714    2.143    0.000    2.286 
#    0.000    0.714    0.000    0.000   18.571    0.000 
#    0.000    0.000    0.000    0.000    0.000    0.000 
#
# Total GULP energy -156105.854659 kJ/mol
# GULP energy per Si atom -5575.209095 kJ/mol
# Density = 1.827067 g / cm^3
# Si number density = 18.312351 Si / 1000 Ang^3
#
#
#
# Elastic Constant Matrix: (Units=GPa)
#
#
# Indices 1 2 3 4 5 6 
#
# 1 87.7226 16.1622 19.1406 0.0000 19.8391 0.0000
# 2 16.1622 42.0178 19.1355 0.0000 1.0848 0.0000
# 3 19.1406 19.1355 85.1546 0.0000 -1.1393 0.0000
# 4 0.0000 0.0000 0.0000 10.7692 0.0000 -17.1040
# 5 19.8391 1.0848 -1.1393 0.0000 30.6161 0.0000
# 6 0.0000 0.0000 0.0000 -17.1040 0.0000 -2.6644
#
#
#
# Elastic Compliance Matrix: (Units=1/GPa)
#
#
# Indices 1 2 3 4 5 6 
#
# 1 0.014920 -0.004350 -0.002505 0.000000 -0.009607 0.000000
# 2 -0.004350 0.027823 -0.005252 0.000000 0.001638 0.000000
# 3 -0.002505 -0.005252 0.013518 0.000000 0.002312 0.000000
# 4 0.000000 0.000000 0.000000 0.008294 0.000000 -0.053244
# 5 -0.009607 0.001638 0.002312 0.000000 0.038916 0.000000
# 6 0.000000 0.000000 0.000000 -0.053244 0.000000 -0.033524
#
#
# Mechanical properties :
#
#
# Convention : Reuss Voigt Hill
#
# Bulk Modulus (GPa) = 31.20558 35.97465 33.59012
# Shear Modulus (GPa) = 47.69022 18.44131 33.06576
#
# Velocity S-wave (km/s) = 5.10874 3.17684 4.25391
# Velocity P-wave (km/s) = 7.20254 5.75709 6.52000
#
# Compressibility (1/GPa) = 0.03204555
#
# Stress axis : x y z
#
# Youngs Moduli (GPa) = 67.02238 35.94205 73.97793
#
# Poissons Ratio (x) = 0.15636 0.18529
# Poissons Ratio (y) = 0.29158 0.38856
# Poissons Ratio (z) = 0.16787 0.18878
#
# Static dielectric constant tensor:
#      x y z
#    x 1.641700 0.000000 0.016050 
#    y 0.000000 1.641100 0.000000 
#    z 0.016050 0.000000 1.672320 
# 
# From -- ./inp_files/153528.got.cif
#   From: 2010.05.17/outbox.cif.g08.bks.cpg/sg15_77_cif.got.tgz:153528.got - 2010.06.03 18:47:42.
