data_PCOD9263149
_publ_section_title
;
Structure prediction by ZEFSAII (Michael W. Deem and Ramdas Pophale) SiO2 
 PCOD9263149
Probable space group: C 2/C
;
_chemical_formula_sum "Si O2"
_cell_formula_units_Z 40
_cell_length_a 20.102458
_cell_length_b 11.404099
_cell_length_c 19.511617
_cell_angle_alpha 90.000000
_cell_angle_beta 156.503352
_cell_angle_gamma 90.000000
_cell_volume 1783.383106
_symmetry_space_group_name_H-M "C 2/C"
_symmetry_group_IT_number 15
_symmetry_cell_setting 'monoclinic'
loop_
_space_group_symop_operation_xyz
x,y,z
-x,y,1/2-z
-x,-y,-z
x,-y,1/2+z
1/2+x,1/2+y,z
1/2-x,1/2+y,1/2-z
1/2-x,1/2-y,-z
1/2+x,1/2-y,1/2+z
loop_
_atom_site_type_symbol
_atom_site_label
_atom_site_fract_x
_atom_site_fract_y
_atom_site_fract_z
Si Si1 0.650285 0.845686 0.668034
Si Si2 0.049455 0.054855 0.973489
Si Si3 0.717736 0.676306 0.607789
Si Si4 0.310445 0.066064 0.899786
Si Si5 0.069659 0.615677 0.891957
O O1 0.676763 0.735269 0.642504
O O2 0.465560 0.854241 0.524246
O O3 0.677458 0.956913 0.642577
O O4 0.789329 0.866193 0.858008
O O5 0.880424 0.109386 0.783360
O O6 0.000000 0.000000 0.000000
O O7 0.106655 0.937580 0.987256
O O8 0.908183 0.635757 0.787867
O O9 0.689307 0.776544 0.524502
O O10 0.347023 0.005621 0.007227
O O11 0.000000 0.616718 0.750000
#
# Coordination Sequence:
#
# PCOD9263149 Si02
#       5
#     8   8   8   8   8
#     4   9  18  34  51  74 108 145 184 233 272 332
#     4  10  19  34  52  78 111 148 178 228 288 334
#     4  11  21  34  53  81 116 154 188 226 279 337
#     4   9  18  34  51  72 107 148 185 226 271 329
#     4  11  21  34  51  77 116 158 191 224 269 341
#
# _framework density 22.429279999999999
#
# number of rings (size 3 to 8) (size 9 to 14) (size 15 to 20)
#    0.000    2.000    2.000    4.200    2.800    0.000 
#    3.600    0.000    0.000    0.000    0.000    0.000 
#    0.000   32.000    0.000    0.000    0.000    0.000 
#
# Total GULP energy -111789.843368 kJ/mol
# GULP energy per Si atom -5589.492168 kJ/mol
# Density = 2.237823 g / cm^3
# Si number density = 22.429280 Si / 1000 Ang^3
#
#
#
# Elastic Constant Matrix: (Units=GPa)
#
#
# Indices 1 2 3 4 5 6 
#
# 1 32.3461 27.9018 42.6517 0.0002 -2.0881 0.0000
# 2 27.9018 77.1895 49.0851 0.0002 4.0491 0.0002
# 3 42.6517 49.0851 191.1461 -0.0004 12.9547 -0.0001
# 4 0.0002 0.0002 -0.0004 37.8451 0.0001 3.7887
# 5 -2.0881 4.0491 12.9547 0.0001 44.0596 0.0001
# 6 0.0000 0.0002 -0.0001 3.7887 0.0001 11.5540
#
#
#
# Elastic Compliance Matrix: (Units=1/GPa)
#
#
# Indices 1 2 3 4 5 6 
#
# 1 0.056299 -0.014850 -0.009206 0.000000 0.006740 0.000000
# 2 -0.014850 0.019403 -0.001531 0.000000 -0.002037 0.000000
# 3 -0.009206 -0.001531 0.007855 0.000000 -0.002605 0.000000
# 4 0.000000 0.000000 0.000000 0.027320 0.000000 -0.008959
# 5 0.006740 -0.002037 -0.002605 0.000000 0.023969 0.000000
# 6 0.000000 0.000000 0.000000 -0.008959 0.000000 0.089488
#
#
# Mechanical properties :
#
#
# Convention : Reuss Voigt Hill
#
# Bulk Modulus (GPa) = 30.87914 59.99543 45.43729
# Shear Modulus (GPa) = 17.46393 30.76128 24.11260
#
# Velocity S-wave (km/s) = 2.79341 3.70737 3.28235
# Velocity P-wave (km/s) = 4.91949 6.71810 5.88788
#
# Compressibility (1/GPa) = 0.03238432
#
# Stress axis : x y z
#
# Youngs Moduli (GPa) = 17.76221 51.53713 127.29973
#
# Poissons Ratio (x) = 0.76533 1.17189
# Poissons Ratio (y) = 0.26377 0.19490
# Poissons Ratio (z) = 0.16352 0.07891
#
# Static dielectric constant tensor:
#      x y z
#    x 1.830590 0.000000 0.016600 
#    y 0.000000 1.974540 0.000000 
#    z 0.016600 0.000000 1.877890 
# 
# From -- ./inp_files/255521.got.cif
#   From: 2010.05.17/outbox.cif.g08.bks.cpg/sg15_128_cif.got.tgz:255521.got - 2010.06.03 18:47:42.
