data_PCOD9263103
_publ_section_title
;
Structure prediction by ZEFSAII (Michael W. Deem and Ramdas Pophale) SiO2 
 PCOD9263103
Probable space group: C 2/C
;
_chemical_formula_sum "Si O2"
_cell_formula_units_Z 64
_cell_length_a 18.406099
_cell_length_b 33.641026
_cell_length_c 5.511365
_cell_angle_alpha 90.000000
_cell_angle_beta 90.769966
_cell_angle_gamma 90.000000
_cell_volume 3412.329369
_symmetry_space_group_name_H-M "C 2/C"
_symmetry_group_IT_number 15
_symmetry_cell_setting 'monoclinic'
loop_
_space_group_symop_operation_xyz
x,y,z
-x,y,1/2-z
-x,-y,-z
x,-y,1/2+z
1/2+x,1/2+y,z
1/2-x,1/2+y,1/2-z
1/2-x,1/2-y,-z
1/2+x,1/2-y,1/2+z
loop_
_atom_site_type_symbol
_atom_site_label
_atom_site_fract_x
_atom_site_fract_y
_atom_site_fract_z
Si Si1 0.087258 0.023293 0.257427
Si Si2 0.543512 0.850299 0.011499
Si Si3 0.278512 0.778125 0.716086
Si Si4 0.152668 0.109101 0.177726
Si Si5 0.294952 0.137512 0.956090
Si Si6 0.071904 0.175795 0.916590
Si Si7 0.931284 0.738810 0.075850
Si Si8 0.293947 0.328343 0.434178
O O1 0.126571 0.065593 0.242278
O O2 0.000000 0.029196 0.250000
O O3 0.105187 0.001531 0.513012
O O4 0.500000 0.863550 0.250000
O O5 0.621123 0.872995 0.000889
O O6 0.500000 0.852680 0.750000
O O7 0.562741 0.803287 0.059449
O O8 0.250000 0.750000 0.500000
O O9 0.281258 0.823278 0.615469
O O10 0.361878 0.766639 0.746798
O O11 0.226012 0.787050 0.937769
O O12 0.173000 0.136765 0.404013
O O13 0.227365 0.108851 0.020896
O O14 0.087319 0.134860 0.055601
O O15 0.279144 0.153709 0.686069
O O16 0.071449 0.218323 0.059043
O O17 0.144844 0.179605 0.761456
O O18 0.000000 0.172728 0.750000
O O19 0.000000 0.741777 0.250000
#
# Coordination Sequence:
#
# PCOD9263103 Si02
#       8
#     8   8   8   8   8   8   8   8
#     4  10  24  42  65  94 124 157 193 232 284 351
#     4  10  22  38  58  81 116 159 198 250 301 347
#     4  10  19  34  49  72 103 141 201 243 306 352
#     4  10  22  38  59  84 115 150 194 238 296 344
#     4   9  21  35  55  81 111 147 196 239 296 353
#     4  10  22  37  50  78 110 147 205 248 303 347
#     4   9  19  35  47  73 107 146 199 254 296 348
#     4  10  21  34  56  76 105 154 187 255 297 353
#
# _framework density 18.755517000000001
#
# number of rings (size 3 to 8) (size 9 to 14) (size 15 to 20)
#    0.000    2.250    0.000    2.250   12.250    2.500 
#   15.750    0.000    0.000    0.000    0.000    0.000 
#    0.000    3.000    0.000    0.000    0.000    0.000 
#
# Total GULP energy -178263.587820 kJ/mol
# GULP energy per Si atom -5570.737119 kJ/mol
# Density = 1.871283 g / cm^3
# Si number density = 18.755517 Si / 1000 Ang^3
#
#
#
# Elastic Constant Matrix: (Units=GPa)
#
#
# Indices 1 2 3 4 5 6 
#
# 1 106.2305 31.1815 29.7533 0.0000 14.3433 0.0000
# 2 31.1815 107.7881 26.8609 0.0000 0.6071 0.0000
# 3 29.7533 26.8609 63.3675 0.0000 2.3997 0.0000
# 4 0.0000 0.0000 0.0000 17.8051 0.0000 -6.1031
# 5 14.3433 0.6071 2.3997 0.0000 25.6151 0.0000
# 6 0.0000 0.0000 0.0000 -6.1031 0.0000 25.1753
#
#
#
# Elastic Compliance Matrix: (Units=1/GPa)
#
#
# Indices 1 2 3 4 5 6 
#
# 1 0.012231 -0.002383 -0.004492 0.000000 -0.006372 0.000000
# 2 -0.002383 0.010838 -0.003529 0.000000 0.001408 0.000000
# 3 -0.004492 -0.003529 0.019356 0.000000 0.000785 0.000000
# 4 0.000000 0.000000 0.000000 0.061254 0.000000 0.014849
# 5 -0.006372 0.001408 0.000785 0.000000 0.042500 0.000000
# 6 0.000000 0.000000 0.000000 0.014849 0.000000 0.043321
#
#
# Mechanical properties :
#
#
# Convention : Reuss Voigt Hill
#
# Bulk Modulus (GPa) = 46.25580 50.33082 48.29331
# Shear Modulus (GPa) = 22.98704 26.35845 24.67274
#
# Velocity S-wave (km/s) = 3.50468 3.75289 3.63091
# Velocity P-wave (km/s) = 6.41039 6.75814 6.58656
#
# Compressibility (1/GPa) = 0.02161891
#
# Stress axis : x y z
#
# Youngs Moduli (GPa) = 81.75729 92.26558 51.66378
#
# Poissons Ratio (x) = 0.21988 0.23205
# Poissons Ratio (y) = 0.19484 0.18230
# Poissons Ratio (z) = 0.36722 0.32557
#
# Static dielectric constant tensor:
#      x y z
#    x 1.696880 0.000000 -0.019200 
#    y 0.000000 1.630070 0.000000 
#    z -0.019200 0.000000 1.852250 
# 
# From -- ./inp_files/12174.got.cif
#   From: 2010.05.17/outbox.cif.g08.bks.cpg/sg15_7_cif.got.tgz:12174.got - 2010.06.03 18:47:42.
