data_PCOD9263874
_publ_section_title
;
Structure prediction by ZEFSAII (Michael W. Deem and Ramdas Pophale) SiO2 
 PCOD9263874
Probable space group: C 2/C
;
_chemical_formula_sum "Si O2"
_cell_formula_units_Z 60
_cell_length_a 11.442252
_cell_length_b 31.183231
_cell_length_c 11.501139
_cell_angle_alpha 90.000000
_cell_angle_beta 130.221750
_cell_angle_gamma 90.000000
_cell_volume 3133.368661
_symmetry_space_group_name_H-M "C 2/C"
_symmetry_group_IT_number 15
_symmetry_cell_setting 'monoclinic'
loop_
_space_group_symop_operation_xyz
x,y,z
-x,y,1/2-z
-x,-y,-z
x,-y,1/2+z
1/2+x,1/2+y,z
1/2-x,1/2+y,1/2-z
1/2-x,1/2-y,-z
1/2+x,1/2-y,1/2+z
loop_
_atom_site_type_symbol
_atom_site_label
_atom_site_fract_x
_atom_site_fract_y
_atom_site_fract_z
Si Si1 0.067222 0.797502 0.422344
Si Si2 0.975682 0.046763 0.864205
Si Si3 0.255827 0.005692 0.637113
Si Si4 0.573152 0.115526 0.525849
Si Si5 0.905109 0.299408 0.571798
Si Si6 0.636616 0.371946 0.110865
Si Si7 0.500000 0.935625 0.750000
Si Si8 0.357403 0.093639 0.583450
O O1 0.091269 0.748393 0.479654
O O2 0.237573 0.814151 0.507402
O O3 0.000000 0.795006 0.250000
O O4 0.954992 0.828408 0.422192
O O5 0.978921 0.088153 0.948522
O O6 0.000000 0.061960 0.750000
O O7 0.813142 0.024045 0.786869
O O8 0.108793 0.013356 0.977127
O O9 0.376184 0.967878 0.726105
O O10 0.320998 0.045752 0.605886
O O11 0.534590 0.165007 0.476381
O O12 0.729409 0.118000 0.704996
O O13 0.578757 0.091991 0.403879
O O14 0.430280 0.094798 0.503292
O O15 0.000000 0.298173 0.750000
O O16 0.716144 0.377384 0.036246
O O17 0.500000 0.110547 0.750000
#
# Coordination Sequence:
#
# PCOD9263874 Si02
#       8
#     8   8   8   8   8   8   4   8
#     4  10  19  34  62  85 115 146 186 232 284 338
#     4  10  21  35  55  77 109 144 190 234 268 331
#     4  10  22  37  51  81 110 145 192 229 286 326
#     4  11  22  36  58  84 115 147 188 235 287 339
#     4  10  21  36  54  91 119 141 178 239 290 339
#     4  10  20  37  60  82 107 152 196 228 274 342
#     4  12  24  34  56  84 116 152 186 238 294 338
#     4   9  20  39  56  79 112 149 192 234 274 335
#
# _framework density 19.148720000000001
#
# number of rings (size 3 to 8) (size 9 to 14) (size 15 to 20)
#    0.000    1.867    2.667    1.200    3.733    0.533 
#    0.000    0.667    0.000    0.000    0.000    0.000 
#    0.000    0.000    0.000    0.000    0.000    0.000 
#
# Total GULP energy -167091.226339 kJ/mol
# GULP energy per Si atom -5569.707545 kJ/mol
# Density = 1.910514 g / cm^3
# Si number density = 19.148720 Si / 1000 Ang^3
#
#
#
# Elastic Constant Matrix: (Units=GPa)
#
#
# Indices 1 2 3 4 5 6 
#
# 1 106.2120 49.8253 15.9878 0.0000 8.4205 0.0000
# 2 49.8253 86.9958 -2.9855 0.0000 5.8606 0.0000
# 3 15.9878 -2.9855 29.1398 0.0000 8.4406 0.0000
# 4 0.0000 0.0000 0.0000 23.3442 0.0000 2.3161
# 5 8.4205 5.8606 8.4406 0.0000 21.1897 0.0000
# 6 0.0000 0.0000 0.0000 2.3161 0.0000 42.4581
#
#
#
# Elastic Compliance Matrix: (Units=1/GPa)
#
#
# Indices 1 2 3 4 5 6 
#
# 1 0.014951 -0.008888 -0.009162 0.000000 0.000167 0.000000
# 2 -0.008888 0.017150 0.007896 0.000000 -0.004356 0.000000
# 3 -0.009162 0.007896 0.044913 0.000000 -0.016433 0.000000
# 4 0.000000 0.000000 0.000000 0.043070 0.000000 -0.002349
# 5 0.000167 -0.004356 -0.016433 0.000000 0.054877 0.000000
# 6 0.000000 0.000000 0.000000 -0.002349 0.000000 0.023681
#
#
# Mechanical properties :
#
#
# Convention : Reuss Voigt Hill
#
# Bulk Modulus (GPa) = 17.63528 38.66698 28.15113
# Shear Modulus (GPa) = 21.02147 28.03309 24.52728
#
# Velocity S-wave (km/s) = 3.31690 3.83033 3.58283
# Velocity P-wave (km/s) = 4.88863 6.30863 5.64347
#
# Compressibility (1/GPa) = 0.05670451
#
# Stress axis : x y z
#
# Youngs Moduli (GPa) = 66.88686 58.30956 22.26530
#
# Poissons Ratio (x) = 0.51827 0.20399
# Poissons Ratio (y) = 0.59451 -0.17580
# Poissons Ratio (z) = 0.61279 -0.46038
#
# Static dielectric constant tensor:
#      x y z
#    x 1.721540 0.000000 0.018170 
#    y 0.000000 1.702650 0.000000 
#    z 0.018170 0.000000 1.668800 
# 
# From -- ./inp_files/92620.got.cif
#   From: 2010.05.17/outbox.cif.g08.bks.cpg/sg15_47_cif.got.tgz:92620.got - 2010.06.03 18:47:42.
