data_PCOD9263668
_publ_section_title
;
Structure prediction by ZEFSAII (Michael W. Deem and Ramdas Pophale) SiO2 
 PCOD9263668
Probable space group: C 2/C
;
_chemical_formula_sum "Si O2"
_cell_formula_units_Z 64
_cell_length_a 22.801679
_cell_length_b 15.859665
_cell_length_c 9.602259
_cell_angle_alpha 90.000000
_cell_angle_beta 52.125564
_cell_angle_gamma 90.000000
_cell_volume 2740.995451
_symmetry_space_group_name_H-M "C 2/C"
_symmetry_group_IT_number 15
_symmetry_cell_setting 'monoclinic'
loop_
_space_group_symop_operation_xyz
x,y,z
-x,y,1/2-z
-x,-y,-z
x,-y,1/2+z
1/2+x,1/2+y,z
1/2-x,1/2+y,1/2-z
1/2-x,1/2-y,-z
1/2+x,1/2-y,1/2+z
loop_
_atom_site_type_symbol
_atom_site_label
_atom_site_fract_x
_atom_site_fract_y
_atom_site_fract_z
Si Si1 0.058122 0.854424 0.781819
Si Si2 0.795263 0.020386 0.748177
Si Si3 0.062682 0.574042 0.770575
Si Si4 0.181206 0.187623 0.897194
Si Si5 0.554280 0.699053 0.838731
Si Si6 0.059142 0.612591 0.341925
Si Si7 0.181191 0.629075 0.409441
Si Si8 0.607397 0.468138 0.138074
O O1 0.138799 0.829097 0.605118
O O2 0.000000 0.822984 0.750000
O O3 0.058153 0.956252 0.773954
O O4 0.024923 0.818014 0.971533
O O5 0.868011 0.994809 0.551507
O O6 0.769569 0.108328 0.718179
O O7 0.818814 0.032072 0.873139
O O8 0.738180 0.945920 0.817070
O O9 0.076692 0.473591 0.735612
O O10 0.136127 0.622652 0.619886
O O11 0.000000 0.598070 0.750000
O O12 0.022967 0.595708 0.973306
O O13 0.116445 0.189649 0.871826
O O14 0.216815 0.279070 0.844698
O O15 0.560242 0.794401 0.775138
O O16 0.572851 0.623394 0.707654
O O17 0.120032 0.617364 0.376948
#
# Coordination Sequence:
#
# PCOD9263668 Si02
#       8
#     8   8   8   8   8   8   8   8
#     4   9  16  31  58  79 106 141 182 222 276 326
#     4  10  22  38  55  77 117 148 185 231 267 318
#     4   9  18  33  53  78 106 133 173 232 279 322
#     4   8  17  34  52  81 104 137 189 230 253 330
#     4   9  16  30  54  81 102 139 177 223 278 330
#     4   9  18  33  54  81 106 131 180 232 274 326
#     4  10  19  34  59  75 100 152 189 215 276 326
#     4  10  21  37  53  81 117 143 185 230 270 321
#
# _framework density 23.349181999999999
#
# number of rings (size 3 to 8) (size 9 to 14) (size 15 to 20)
#    0.000    2.750    0.000    1.875    1.750    3.000 
#    2.250    6.250    5.500    0.000    0.000    0.000 
#    0.000    0.000    0.000    0.000    0.000    0.000 
#
# Total GULP energy -178720.065643 kJ/mol
# GULP energy per Si atom -5585.002051 kJ/mol
# Density = 2.329604 g / cm^3
# Si number density = 23.349182 Si / 1000 Ang^3
#
#
#
# Elastic Constant Matrix: (Units=GPa)
#
#
# Indices 1 2 3 4 5 6 
#
# 1 48.1030 21.7710 11.5865 0.0000 5.9440 0.0000
# 2 21.7710 180.6659 17.7600 0.0000 -16.0612 0.0000
# 3 11.5865 17.7600 15.5172 0.0000 4.1636 0.0000
# 4 0.0000 0.0000 0.0000 25.1493 0.0000 -4.4776
# 5 5.9440 -16.0612 4.1636 0.0000 17.5712 0.0000
# 6 0.0000 0.0000 0.0000 -4.4776 0.0000 22.9998
#
#
#
# Elastic Compliance Matrix: (Units=1/GPa)
#
#
# Indices 1 2 3 4 5 6 
#
# 1 0.026406 -0.002384 -0.014957 0.000000 -0.007568 0.000000
# 2 -0.002384 0.007679 -0.009727 0.000000 0.010131 0.000000
# 3 -0.014957 -0.009727 0.093734 0.000000 -0.026042 0.000000
# 4 0.000000 0.000000 0.000000 0.041190 0.000000 0.008019
# 5 -0.007568 0.010131 -0.026042 0.000000 0.074902 0.000000
# 6 0.000000 0.000000 0.000000 0.008019 0.000000 0.045040
#
#
# Mechanical properties :
#
#
# Convention : Reuss Voigt Hill
#
# Bulk Modulus (GPa) = 13.57193 38.50234 26.03714
# Shear Modulus (GPa) = 13.59992 26.02197 19.81095
#
# Velocity S-wave (km/s) = 2.41604 3.34199 2.91600
# Velocity P-wave (km/s) = 3.68893 5.60513 4.74477
#
# Compressibility (1/GPa) = 0.07368148
#
# Stress axis : x y z
#
# Youngs Moduli (GPa) = 37.87050 130.22120 10.66850
#
# Poissons Ratio (x) = 0.31051 0.15957
# Poissons Ratio (y) = 0.09030 0.10377
# Poissons Ratio (z) = 0.56644 1.26667
#
# Static dielectric constant tensor:
#      x y z
#    x 1.912700 0.000000 0.014190 
#    y 0.000000 1.892760 0.000000 
#    z 0.014190 0.000000 1.869170 
# 
# From -- ./inp_files/126876.got.cif
#   From: 2010.05.17/outbox.cif.g08.bks.cpg/sg15_64_cif.got.tgz:126876.got - 2010.06.03 18:47:42.
