data_PCOD9263093
_publ_section_title
;
Structure prediction by ZEFSAII (Michael W. Deem and Ramdas Pophale) SiO2 
 PCOD9263093
Probable space group: C 2/C
;
_chemical_formula_sum "Si O2"
_cell_formula_units_Z 48
_cell_length_a 12.130554
_cell_length_b 20.498010
_cell_length_c 17.748416
_cell_angle_alpha 90.000000
_cell_angle_beta 140.405684
_cell_angle_gamma 90.000000
_cell_volume 2812.731359
_symmetry_space_group_name_H-M "C 2/C"
_symmetry_group_IT_number 15
_symmetry_cell_setting 'monoclinic'
loop_
_space_group_symop_operation_xyz
x,y,z
-x,y,1/2-z
-x,-y,-z
x,-y,1/2+z
1/2+x,1/2+y,z
1/2-x,1/2+y,1/2-z
1/2-x,1/2-y,-z
1/2+x,1/2-y,1/2+z
loop_
_atom_site_type_symbol
_atom_site_label
_atom_site_fract_x
_atom_site_fract_y
_atom_site_fract_z
Si Si1 0.566034 0.927512 0.200505
Si Si2 0.640665 0.943703 0.552943
Si Si3 0.230135 0.352265 0.908359
Si Si4 0.914661 0.128246 0.824569
Si Si5 0.412044 0.917768 0.812516
Si Si6 0.000000 0.982941 0.250000
Si Si7 0.500000 0.266078 0.250000
O O1 0.500000 0.916217 0.250000
O O2 0.737047 0.886501 0.272879
O O3 0.607248 0.005162 0.213965
O O4 0.427522 0.913826 0.060883
O O5 0.636694 0.901632 0.627416
O O6 0.500000 0.000000 0.500000
O O7 0.829561 0.974750 0.644234
O O8 0.199512 0.379607 0.808194
O O9 0.141834 0.281185 0.862576
O O10 0.109819 0.397069 0.899186
O O11 0.425611 0.356462 0.036820
O O12 0.959060 0.064011 0.798802
O O13 0.907907 0.187591 0.761952
#
# Coordination Sequence:
#
# PCOD9263093 Si02
#       7
#     8   8   8   8   8   4   4
#     4  11  21  35  52  83 120 152 182 229 284 337
#     4  10  19  34  47  78 122 151 184 222 276 349
#     4  10  20  36  59  84 112 145 194 236 287 329
#     4  11  21  33  57  84 111 148 193 234 277 345
#     4   9  18  34  52  79 118 150 167 235 286 326
#     4  11  20  30  56  84 114 156 185 220 296 339
#     4   9  22  38  54  88 108 146 189 244 292 313
#
# _framework density 17.065263000000002
#
# number of rings (size 3 to 8) (size 9 to 14) (size 15 to 20)
#    0.000    2.000    5.000    2.500    2.333    2.000 
#    0.000    0.000    0.000    1.000    8.667    0.000 
#    0.000    0.000    0.000    0.000    0.000    0.000 
#
# Total GULP energy -133820.734320 kJ/mol
# GULP energy per Si atom -5575.863930 kJ/mol
# Density = 1.702642 g / cm^3
# Si number density = 17.065263 Si / 1000 Ang^3
#
#
#
# Elastic Constant Matrix: (Units=GPa)
#
#
# Indices 1 2 3 4 5 6 
#
# 1 135.1272 44.9250 74.1794 0.0000 -11.2284 0.0000
# 2 44.9250 66.3034 34.9076 0.0000 8.1468 0.0000
# 3 74.1794 34.9076 117.4378 -0.0001 13.2806 0.0000
# 4 0.0000 0.0000 -0.0001 -1.8921 0.0000 -1.3049
# 5 -11.2284 8.1468 13.2806 0.0000 37.0766 0.0000
# 6 0.0000 0.0000 0.0000 -1.3049 0.0000 13.9865
#
#
#
# Elastic Compliance Matrix: (Units=1/GPa)
#
#
# Indices 1 2 3 4 5 6 
#
# 1 0.015150 -0.006885 -0.008560 0.000000 0.009167 0.000000
# 2 -0.006885 0.021169 -0.001232 0.000000 -0.006295 0.000000
# 3 -0.008560 -0.001232 0.015165 -0.000001 -0.007754 0.000000
# 4 0.000000 0.000000 -0.000001 -0.496570 0.000000 -0.046327
# 5 0.009167 -0.006295 -0.007754 0.000000 0.033908 0.000000
# 6 0.000000 0.000000 0.000000 -0.046327 0.000000 0.067175
#
#
# Mechanical properties :
#
#
# Convention : Reuss Voigt Hill
#
# Bulk Modulus (GPa) = 55.15259 69.65470 62.40365
# Shear Modulus (GPa) = -16.41462 20.82465 2.20501
#
# Velocity S-wave (km/s) = -3.10477 3.49706 1.13794
# Velocity P-wave (km/s) = 4.41995 7.56381 6.19464
#
# Compressibility (1/GPa) = 0.01813151
#
# Stress axis : x y z
#
# Youngs Moduli (GPa) = 66.00604 47.23848 65.94245
#
# Poissons Ratio (x) = 0.32524 0.56445
# Poissons Ratio (y) = 0.45446 0.08121
# Poissons Ratio (z) = 0.56499 0.05817
#
# Static dielectric constant tensor:
#      x y z
#    x 1.580300 0.000000 -0.026200 
#    y 0.000000 1.572480 0.000000 
#    z -0.026200 0.000000 1.610790 
# 
# From -- ./inp_files/200099.got.cif
#   From: 2010.05.17/outbox.cif.g08.bks.cpg/sg15_101_cif.got.tgz:200099.got - 2010.06.03 18:47:42.
