data_PCOD9263015
_publ_section_title
;
Structure prediction by ZEFSAII (Michael W. Deem and Ramdas Pophale) SiO2 
 PCOD9263015
Probable space group: C 2/C
;
_chemical_formula_sum "Si O2"
_cell_formula_units_Z 52
_cell_length_a 12.249532
_cell_length_b 18.888212
_cell_length_c 10.930095
_cell_angle_alpha 90.000000
_cell_angle_beta 56.872795
_cell_angle_gamma 90.000000
_cell_volume 2117.863687
_symmetry_space_group_name_H-M "C 2/C"
_symmetry_group_IT_number 15
_symmetry_cell_setting 'monoclinic'
loop_
_space_group_symop_operation_xyz
x,y,z
-x,y,1/2-z
-x,-y,-z
x,-y,1/2+z
1/2+x,1/2+y,z
1/2-x,1/2+y,1/2-z
1/2-x,1/2-y,-z
1/2+x,1/2-y,1/2+z
loop_
_atom_site_type_symbol
_atom_site_label
_atom_site_fract_x
_atom_site_fract_y
_atom_site_fract_z
Si Si1 0.893484 0.592416 0.487563
Si Si2 0.654192 0.438957 0.960492
Si Si3 0.691772 0.400868 0.478535
Si Si4 0.634370 0.722197 0.157241
Si Si5 0.000000 0.154926 0.750000
Si Si6 0.822504 0.444772 0.637910
Si Si7 0.254203 0.201212 0.714117
O O1 0.793594 0.578562 0.439112
O O2 0.849498 0.528766 0.606764
O O3 0.861980 0.669366 0.559311
O O4 0.047078 0.584797 0.380256
O O5 0.691581 0.431169 0.795263
O O6 0.630490 0.522890 0.991416
O O7 0.552354 0.393651 0.104074
O O8 0.596104 0.347832 0.607088
O O9 0.804044 0.414185 0.512177
O O10 0.738116 0.358395 0.330983
O O11 0.500000 0.765547 0.250000
O O12 0.699988 0.727172 0.249861
O O13 0.750000 0.750000 0.000000
O O14 0.881104 0.201468 0.773934
#
# Coordination Sequence:
#
# PCOD9263015 Si02
#       7
#     8   8   8   8   4   8   8
#     4   9  19  33  57  91 123 173 210 261 334 399
#     4  10  20  38  57  94 131 171 213 269 338 400
#     4  10  22  37  62  99 129 169 216 278 333 397
#     4  10  24  42  66  96 127 173 224 284 331 384
#     4  10  24  40  66  90 130 182 214 268 338 408
#     4  10  19  33  59  91 132 163 210 269 336 398
#     4  10  21  42  63  91 132 174 226 269 331 395
#
# _framework density 24.553045999999998
#
# number of rings (size 3 to 8) (size 9 to 14) (size 15 to 20)
#    0.000    2.154    1.538    0.462    5.385    3.077 
#    0.000    0.000    3.385    5.538    0.000    0.000 
#    0.000    0.000    0.000    0.000    0.000    0.000 
#
# Total GULP energy -145089.130650 kJ/mol
# GULP energy per Si atom -5580.351179 kJ/mol
# Density = 2.449716 g / cm^3
# Si number density = 24.553046 Si / 1000 Ang^3
#
#
#
# Elastic Constant Matrix: (Units=GPa)
#
#
# Indices 1 2 3 4 5 6 
#
# 1 76.0536 11.3723 19.3975 0.0000 -11.3624 0.0000
# 2 11.3723 55.2844 23.0307 0.0000 3.9018 0.0000
# 3 19.3975 23.0307 97.1228 0.0000 -21.0345 0.0000
# 4 0.0000 0.0000 0.0000 24.1814 0.0000 17.2148
# 5 -11.3624 3.9018 -21.0345 0.0000 31.2988 0.0000
# 6 0.0000 0.0000 0.0000 17.2148 0.0000 15.6112
#
#
#
# Elastic Compliance Matrix: (Units=1/GPa)
#
#
# Indices 1 2 3 4 5 6 
#
# 1 0.014604 -0.002852 -0.001188 0.000000 0.004859 0.000000
# 2 -0.002852 0.021893 -0.006364 0.000000 -0.008041 0.000000
# 3 -0.001188 -0.006364 0.014186 0.000000 0.009895 0.000000
# 4 0.000000 0.000000 0.000000 0.192369 0.000000 -0.212129
# 5 0.004859 -0.008041 0.009895 0.000000 0.041367 0.000000
# 6 0.000000 0.000000 0.000000 -0.212129 0.000000 0.297975
#
#
# Mechanical properties :
#
#
# Convention : Reuss Voigt Hill
#
# Bulk Modulus (GPa) = 33.47207 37.34021 35.40614
# Shear Modulus (GPa) = 8.15449 25.86231 17.00840
#
# Velocity S-wave (km/s) = 1.82438 3.24902 2.63481
# Velocity P-wave (km/s) = 4.25441 5.41441 4.86908
#
# Compressibility (1/GPa) = 0.02987565
#
# Stress axis : x y z
#
# Youngs Moduli (GPa) = 68.47430 45.67571 70.49379
#
# Poissons Ratio (x) = 0.13027 0.08376
# Poissons Ratio (y) = 0.19529 0.44859
# Poissons Ratio (z) = 0.08136 0.29066
#
# Static dielectric constant tensor:
#      x y z
#    x 1.735880 0.000000 -0.139020 
#    y 0.000000 2.038240 0.000000 
#    z -0.139020 0.000000 1.844100 
# 
# From -- ./inp_files/89503.got.cif
#   From: 2010.05.17/outbox.cif.g08.bks.cpg/sg15_45_cif.got.tgz:89503.got - 2010.06.03 18:47:42.
