data_PCOD9263238
_publ_section_title
;
Structure prediction by ZEFSAII (Michael W. Deem and Ramdas Pophale) SiO2 
 PCOD9263238
Probable space group: C 2/C
;
_chemical_formula_sum "Si O2"
_cell_formula_units_Z 40
_cell_length_a 28.837791
_cell_length_b 11.122561
_cell_length_c 12.169242
_cell_angle_alpha 90.000000
_cell_angle_beta 34.647908
_cell_angle_gamma 90.000000
_cell_volume 2219.141963
_symmetry_space_group_name_H-M "C 2/C"
_symmetry_group_IT_number 15
_symmetry_cell_setting 'monoclinic'
loop_
_space_group_symop_operation_xyz
x,y,z
-x,y,1/2-z
-x,-y,-z
x,-y,1/2+z
1/2+x,1/2+y,z
1/2-x,1/2+y,1/2-z
1/2-x,1/2-y,-z
1/2+x,1/2-y,1/2+z
loop_
_atom_site_type_symbol
_atom_site_label
_atom_site_fract_x
_atom_site_fract_y
_atom_site_fract_z
Si Si1 0.725333 0.781694 0.207124
Si Si2 0.456192 0.136930 0.447970
Si Si3 0.589275 0.104429 0.372614
Si Si4 0.758663 0.454364 0.514099
Si Si5 0.796379 0.191046 0.806419
O O1 0.628088 0.790466 0.375749
O O2 0.761793 0.656236 0.092594
O O3 0.744411 0.800758 0.296883
O O4 0.760715 0.890490 0.064059
O O5 0.500000 0.171270 0.250000
O O6 0.516589 0.144091 0.434051
O O7 0.434832 0.994579 0.490316
O O8 0.626276 0.222935 0.354838
O O9 0.657320 0.029805 0.167699
O O10 0.693636 0.552111 0.681602
O O11 0.750000 0.250000 0.000000
#
# Coordination Sequence:
#
# PCOD9263238 Si02
#       5
#     8   8   8   8   8
#     4  10  21  35  58  83 113 150 188 233 290 334
#     4  10  19  34  54  81 114 147 179 236 284 334
#     4   9  20  34  55  84 108 144 191 233 279 334
#     4   9  20  36  55  83 110 148 191 237 277 336
#     4  10  20  33  57  83 110 143 192 231 275 341
#
# _framework density 18.024985000000001
#
# number of rings (size 3 to 8) (size 9 to 14) (size 15 to 20)
#    0.000    2.400    0.000    2.400   11.200    0.000 
#    0.000    1.000    0.000    1.200    0.000    0.000 
#    0.000    0.000    0.000    0.000    0.000    0.000 
#
# Total GULP energy -111377.834228 kJ/mol
# GULP energy per Si atom -5568.891711 kJ/mol
# Density = 1.798396 g / cm^3
# Si number density = 18.024985 Si / 1000 Ang^3
#
#
#
# Elastic Constant Matrix: (Units=GPa)
#
#
# Indices 1 2 3 4 5 6 
#
# 1 83.5688 48.5405 21.1034 0.0000 5.5473 0.0000
# 2 48.5405 99.0070 19.4569 0.0000 -8.3601 0.0000
# 3 21.1034 19.4569 37.0526 0.0000 -0.6312 0.0000
# 4 0.0000 0.0000 0.0000 29.6262 0.0000 -7.4987
# 5 5.5473 -8.3601 -0.6312 0.0000 31.2537 0.0000
# 6 0.0000 0.0000 0.0000 -7.4987 0.0000 8.4109
#
#
#
# Elastic Compliance Matrix: (Units=1/GPa)
#
#
# Indices 1 2 3 4 5 6 
#
# 1 0.018898 -0.008493 -0.006402 0.000000 -0.005755 0.000000
# 2 -0.008493 0.015347 -0.003127 0.000000 0.005550 0.000000
# 3 -0.006402 -0.003127 0.032293 0.000000 0.000952 0.000000
# 4 0.000000 0.000000 0.000000 0.043591 0.000000 0.038863
# 5 -0.005755 0.005550 0.000952 0.000000 0.034521 0.000000
# 6 0.000000 0.000000 0.000000 0.038863 0.000000 0.153541
#
#
# Mechanical properties :
#
#
# Convention : Reuss Voigt Hill
#
# Bulk Modulus (GPa) = 32.79283 44.20333 38.49808
# Shear Modulus (GPa) = 14.51797 22.56001 18.53899
#
# Velocity S-wave (km/s) = 2.84110 3.54163 3.21053
# Velocity P-wave (km/s) = 5.38470 6.42657 5.92856
#
# Compressibility (1/GPa) = 0.03049447
#
# Stress axis : x y z
#
# Youngs Moduli (GPa) = 52.91574 65.15748 30.96634
#
# Poissons Ratio (x) = 0.55339 0.19823
# Poissons Ratio (y) = 0.44942 0.09684
# Poissons Ratio (z) = 0.33874 0.20377
#
# Static dielectric constant tensor:
#      x y z
#    x 1.597630 0.000000 -0.011390 
#    y 0.000000 1.637610 0.000000 
#    z -0.011390 0.000000 1.673830 
# 
# From -- ./inp_files/94626.got.cif
#   From: 2010.05.17/outbox.cif.g08.bks.cpg/sg15_48_cif.got.tgz:94626.got - 2010.06.03 18:47:42.
