data_PCOD9263430
_publ_section_title
;
Structure prediction by ZEFSAII (Michael W. Deem and Ramdas Pophale) SiO2 
 PCOD9263430
Probable space group: C 2/C
;
_chemical_formula_sum "Si O2"
_cell_formula_units_Z 64
_cell_length_a 31.238841
_cell_length_b 20.895323
_cell_length_c 14.634502
_cell_angle_alpha 90.000000
_cell_angle_beta 157.464653
_cell_angle_gamma 90.000000
_cell_volume 3661.068681
_symmetry_space_group_name_H-M "C 2/C"
_symmetry_group_IT_number 15
_symmetry_cell_setting 'monoclinic'
loop_
_space_group_symop_operation_xyz
x,y,z
-x,y,1/2-z
-x,-y,-z
x,-y,1/2+z
1/2+x,1/2+y,z
1/2-x,1/2+y,1/2-z
1/2-x,1/2-y,-z
1/2+x,1/2-y,1/2+z
loop_
_atom_site_type_symbol
_atom_site_label
_atom_site_fract_x
_atom_site_fract_y
_atom_site_fract_z
Si Si1 0.501375 0.611361 0.141609
Si Si2 0.337356 0.436139 0.686946
Si Si3 0.248987 0.801409 0.918732
Si Si4 0.648066 0.199067 0.297100
Si Si5 0.965601 0.088919 0.784637
Si Si6 0.294026 0.425172 0.101307
Si Si7 0.014603 0.739427 0.672232
Si Si8 0.984033 0.237829 0.618860
O O1 0.500000 0.604721 0.250000
O O2 0.601947 0.572409 0.291717
O O3 0.520733 0.686131 0.152826
O O4 0.387608 0.592038 0.863530
O O5 0.274083 0.371422 0.587628
O O6 0.265728 0.500150 0.557323
O O7 0.439180 0.437791 0.960292
O O8 0.146339 0.776885 0.654738
O O9 0.250000 0.750000 0.000000
O O10 0.370398 0.797173 0.115870
O O11 0.750000 0.250000 0.500000
O O12 0.699810 0.129311 0.418314
O O13 0.551070 0.221134 0.176575
O O14 0.587078 0.205608 0.079654
O O15 0.851847 0.074992 0.614598
O O16 0.000000 0.067653 0.750000
O O17 0.966096 0.166196 0.784170
O O18 0.000000 0.743461 0.750000
O O19 0.000000 0.266974 0.750000
#
# Coordination Sequence:
#
# PCOD9263430 Si02
#       8
#     8   8   8   8   8   8   8   8
#     4  10  19  34  56  87 117 146 187 241 298 340
#     4  10  21  35  53  82 114 153 191 229 287 344
#     4  11  20  40  61  79 114 150 192 237 279 338
#     4  12  21  38  57  84 121 149 190 237 284 337
#     4   9  17  32  56  83 112 145 188 239 293 341
#     4  11  22  34  54  83 119 153 186 236 290 342
#     4  11  23  37  62  90 112 148 193 244 289 331
#     4  10  21  34  60  90 111 150 190 236 287 336
#
# _framework density 17.481235000000002
#
# number of rings (size 3 to 8) (size 9 to 14) (size 15 to 20)
#    0.000    1.500    5.000    2.250    1.750    3.000 
#    0.000    0.625    0.000    0.750    0.000    0.000 
#    0.000    0.000    0.000    0.000    0.000    0.000 
#
# Total GULP energy -178323.143793 kJ/mol
# GULP energy per Si atom -5572.598244 kJ/mol
# Density = 1.744145 g / cm^3
# Si number density = 17.481235 Si / 1000 Ang^3
#
#
#
# Elastic Constant Matrix: (Units=GPa)
#
#
# Indices 1 2 3 4 5 6 
#
# 1 68.5607 19.8815 23.5724 0.0000 -14.2080 0.0000
# 2 19.8815 119.8559 51.7373 0.0000 -1.6414 0.0000
# 3 23.5724 51.7373 78.1049 0.0000 3.7325 0.0000
# 4 0.0000 0.0000 0.0000 18.7773 0.0000 -3.9317
# 5 -14.2080 -1.6414 3.7325 0.0000 20.8108 0.0000
# 6 0.0000 0.0000 0.0000 -3.9317 0.0000 -4.8600
#
#
#
# Elastic Compliance Matrix: (Units=1/GPa)
#
#
# Indices 1 2 3 4 5 6 
#
# 1 0.019987 -0.000285 -0.006550 0.000000 0.014798 0.000000
# 2 -0.000285 0.011801 -0.007834 0.000000 0.002141 0.000000
# 3 -0.006550 -0.007834 0.020387 0.000000 -0.008746 0.000000
# 4 0.000000 0.000000 0.000000 0.045542 0.000000 -0.036842
# 5 0.014798 0.002141 -0.008746 0.000000 0.059892 0.000000
# 6 0.000000 0.000000 0.000000 -0.036842 0.000000 -0.175955
#
#
# Mechanical properties :
#
#
# Convention : Reuss Voigt Hill
#
# Bulk Modulus (GPa) = 43.78798 50.76709 47.27754
# Shear Modulus (GPa) = 268.74004 18.36763 143.55383
#
# Velocity S-wave (km/s) = 12.41226 3.24498 9.07177
# Velocity P-wave (km/s) = 15.18295 6.56839 11.69756
#
# Compressibility (1/GPa) = 0.02283732
#
# Stress axis : x y z
#
# Youngs Moduli (GPa) = 50.03229 84.73522 49.05020
#
# Poissons Ratio (x) = 0.02417 0.32130
# Poissons Ratio (y) = 0.01427 0.38424
# Poissons Ratio (z) = 0.32773 0.66378
#
# Static dielectric constant tensor:
#      x y z
#    x 1.614350 0.000000 0.004040 
#    y 0.000000 1.596390 0.000000 
#    z 0.004040 0.000000 1.630390 
# 
# From -- ./inp_files/183172.got.cif
#   From: 2010.05.17/outbox.cif.g08.bks.cpg/sg15_92_cif.got.tgz:183172.got - 2010.06.03 18:47:42.
