data_PCOD9263659
_publ_section_title
;
Structure prediction by ZEFSAII (Michael W. Deem and Ramdas Pophale) SiO2 
 PCOD9263659
Probable space group: C 2/C
;
_chemical_formula_sum "Si O2"
_cell_formula_units_Z 56
_cell_length_a 14.371921
_cell_length_b 17.868794
_cell_length_c 21.587344
_cell_angle_alpha 90.000000
_cell_angle_beta 30.421555
_cell_angle_gamma 90.000000
_cell_volume 2807.159776
_symmetry_space_group_name_H-M "C 2/C"
_symmetry_group_IT_number 15
_symmetry_cell_setting 'monoclinic'
loop_
_space_group_symop_operation_xyz
x,y,z
-x,y,1/2-z
-x,-y,-z
x,-y,1/2+z
1/2+x,1/2+y,z
1/2-x,1/2+y,1/2-z
1/2-x,1/2-y,-z
1/2+x,1/2-y,1/2+z
loop_
_atom_site_type_symbol
_atom_site_label
_atom_site_fract_x
_atom_site_fract_y
_atom_site_fract_z
Si Si1 0.000000 0.659054 0.750000
Si Si2 0.168959 0.075639 0.224914
Si Si3 0.713618 0.770350 0.860548
Si Si4 0.169975 0.066855 0.991628
Si Si5 0.500000 0.555610 0.750000
Si Si6 0.806371 0.895429 0.480966
Si Si7 0.061024 0.848140 0.970651
Si Si8 0.892915 0.357324 0.694516
O O1 0.877422 0.712631 0.777121
O O2 0.860902 0.610118 0.871609
O O3 0.226926 0.147252 0.150609
O O4 0.321354 0.073524 0.192126
O O5 0.975022 0.092106 0.371551
O O6 0.143473 0.000850 0.200924
O O7 0.663886 0.789295 0.818086
O O8 0.538540 0.729272 0.990684
O O9 0.058064 0.086220 0.992947
O O10 0.206869 0.980515 0.985475
O O11 0.596835 0.602001 0.640988
O O12 0.927608 0.854268 0.462537
O O13 0.604407 0.862157 0.588804
O O14 0.265241 0.854229 0.827380
#
# Coordination Sequence:
#
# PCOD9263659 Si02
#       8
#     4   8   8   8   4   8   8   8
#     4  10  19  34  58  92 113 146 206 240 288 352
#     4   8  18  39  57  80 119 152 187 247 286 342
#     4   9  20  39  58  87 115 153 197 235 298 339
#     4   9  20  36  59  89 115 154 197 240 299 335
#     4  10  21  40  58  88 115 156 196 238 298 342
#     4  11  22  39  59  85 121 157 194 239 292 354
#     4  10  20  40  61  88 117 153 194 251 282 344
#     4   9  21  38  60  88 114 160 192 234 300 339
#
# _framework density 19.948989000000001
#
# number of rings (size 3 to 8) (size 9 to 14) (size 15 to 20)
#    0.857    1.714    0.000    1.286    2.000    1.714 
#   12.857    0.000    0.000    0.000    0.000    0.000 
#    0.000    0.000    0.000    0.000    0.000    0.000 
#
# Total GULP energy -155910.516021 kJ/mol
# GULP energy per Si atom -5568.232715 kJ/mol
# Density = 1.990358 g / cm^3
# Si number density = 19.948989 Si / 1000 Ang^3
#
#
#
# Elastic Constant Matrix: (Units=GPa)
#
#
# Indices 1 2 3 4 5 6 
#
# 1 89.7766 14.4459 45.1420 -0.0009 0.2681 0.0006
# 2 14.4459 35.4986 23.8753 -0.0002 -8.9908 0.0005
# 3 45.1420 23.8753 77.4502 0.0018 -4.4177 -0.0009
# 4 -0.0009 -0.0002 0.0018 21.1276 0.0011 1.3825
# 5 0.2681 -8.9908 -4.4177 0.0011 25.9785 -0.0002
# 6 0.0006 0.0005 -0.0009 1.3825 -0.0002 6.7735
#
#
#
# Elastic Compliance Matrix: (Units=1/GPa)
#
#
# Indices 1 2 3 4 5 6 
#
# 1 0.015853 -0.000841 -0.009095 0.000002 -0.002001 -0.000003
# 2 -0.000841 0.038690 -0.010777 0.000001 0.011566 -0.000004
# 3 -0.009095 -0.010777 0.021536 -0.000003 0.000026 0.000005
# 4 0.000002 0.000001 -0.000003 0.047972 -0.000002 -0.009792
# 5 -0.002001 0.011566 0.000026 -0.000002 0.042521 0.000001
# 6 -0.000003 -0.000004 0.000005 -0.009792 0.000001 0.149632
#
#
# Mechanical properties :
#
#
# Convention : Reuss Voigt Hill
#
# Bulk Modulus (GPa) = 28.85714 41.07244 34.96479
# Shear Modulus (GPa) = 13.54344 18.72672 16.13508
#
# Velocity S-wave (km/s) = 2.60840 3.06719 2.84706
# Velocity P-wave (km/s) = 4.85475 5.75995 5.32661
#
# Compressibility (1/GPa) = 0.03465347
#
# Stress axis : x y z
#
# Youngs Moduli (GPa) = 63.07842 25.84643 46.43356
#
# Poissons Ratio (x) = 0.02174 0.42231
# Poissons Ratio (y) = 0.05307 0.50040
# Poissons Ratio (z) = 0.57369 0.27854
#
# Static dielectric constant tensor:
#      x y z
#    x 1.716180 0.000000 0.001430 
#    y 0.000000 1.728370 0.000000 
#    z 0.001430 0.000000 1.683910 
# 
# From -- ./inp_files/245137.got.cif
#   From: 2010.05.17/outbox.cif.g08.bks.cpg/sg15_123_cif.got.tgz:245137.got - 2010.06.03 18:47:42.
