data_PCOD9263266
_publ_section_title
;
Structure prediction by ZEFSAII (Michael W. Deem and Ramdas Pophale) SiO2 
 PCOD9263266
Probable space group: C 2/C
;
_chemical_formula_sum "Si O2"
_cell_formula_units_Z 56
_cell_length_a 12.404888
_cell_length_b 27.155708
_cell_length_c 14.610895
_cell_angle_alpha 90.000000
_cell_angle_beta 138.801366
_cell_angle_gamma 90.000000
_cell_volume 3241.900519
_symmetry_space_group_name_H-M "C 2/C"
_symmetry_group_IT_number 15
_symmetry_cell_setting 'monoclinic'
loop_
_space_group_symop_operation_xyz
x,y,z
-x,y,1/2-z
-x,-y,-z
x,-y,1/2+z
1/2+x,1/2+y,z
1/2-x,1/2+y,1/2-z
1/2-x,1/2-y,-z
1/2+x,1/2-y,1/2+z
loop_
_atom_site_type_symbol
_atom_site_label
_atom_site_fract_x
_atom_site_fract_y
_atom_site_fract_z
Si Si1 0.175000 0.550093 0.409855
Si Si2 0.168668 0.092003 0.163314
Si Si3 0.110539 0.193774 0.226982
Si Si4 0.076497 0.388914 0.394232
Si Si5 0.497028 0.057986 0.475017
Si Si6 0.613456 0.778364 0.471444
Si Si7 0.610104 0.545867 0.411741
O O1 0.270032 0.586249 0.401503
O O2 0.282216 0.501671 0.496221
O O3 0.000000 0.537597 0.250000
O O4 0.126792 0.570093 0.478859
O O5 0.119423 0.145485 0.170249
O O6 0.320293 0.072546 0.321357
O O7 0.013284 0.057992 0.085189
O O8 0.293327 0.207366 0.376317
O O9 0.000000 0.185642 0.250000
O O10 0.034334 0.240045 0.124607
O O11 0.979913 0.412429 0.417077
O O12 0.071059 0.330163 0.398133
O O13 0.261460 0.409416 0.519319
O O14 0.000000 0.405225 0.250000
O O15 0.500000 0.000000 0.500000
O O16 0.750000 0.750000 0.500000
O O17 0.500000 0.540075 0.250000
#
# Coordination Sequence:
#
# PCOD9263266 Si02
#       7
#     8   8   8   8   8   8   8
#     4  10  23  38  56  79 112 157 200 224 274 344
#     4  11  21  36  59  85 111 157 191 233 286 340
#     4  10  19  34  59  82 120 142 184 238 296 342
#     4  12  23  36  59  87 115 152 190 234 292 347
#     4  11  21  38  58  81 116 153 194 234 277 342
#     4  10  19  34  54  86 114 145 179 236 297 343
#     4  12  20  36  56  83 120 147 188 240 290 332
#
# _framework density 17.273817000000001
#
# number of rings (size 3 to 8) (size 9 to 14) (size 15 to 20)
#    0.000    1.143    4.286    4.286    2.000    0.000 
#    2.571    0.000    0.000    0.857    0.000    0.000 
#    0.000    0.000    0.000    0.000    0.000    0.000 
#
# Total GULP energy -156253.589500 kJ/mol
# GULP energy per Si atom -5580.485339 kJ/mol
# Density = 1.723450 g / cm^3
# Si number density = 17.273817 Si / 1000 Ang^3
#
#
#
# Elastic Constant Matrix: (Units=GPa)
#
#
# Indices 1 2 3 4 5 6 
#
# 1 141.8511 51.8969 42.8423 0.0000 -14.4679 0.0000
# 2 51.8969 111.5676 33.6878 0.0000 -5.7860 0.0000
# 3 42.8423 33.6878 82.4988 0.0000 -7.3511 0.0000
# 4 0.0000 0.0000 0.0000 31.6946 0.0000 3.3681
# 5 -14.4679 -5.7860 -7.3511 0.0000 21.7382 0.0000
# 6 0.0000 0.0000 0.0000 3.3681 0.0000 9.7425
#
#
#
# Elastic Compliance Matrix: (Units=1/GPa)
#
#
# Indices 1 2 3 4 5 6 
#
# 1 0.009704 -0.003286 -0.003299 0.000000 0.004468 0.000000
# 2 -0.003286 0.011375 -0.002953 0.000000 -0.000158 0.000000
# 3 -0.003299 -0.002953 0.015234 0.000000 0.002170 0.000000
# 4 0.000000 0.000000 0.000000 0.032754 0.000000 -0.011323
# 5 0.004468 -0.000158 0.002170 0.000000 0.049667 0.000000
# 6 0.000000 0.000000 0.000000 -0.011323 0.000000 0.106558
#
#
# Mechanical properties :
#
#
# Convention : Reuss Voigt Hill
#
# Bulk Modulus (GPa) = 58.01484 65.86349 61.93916
# Shear Modulus (GPa) = 19.99091 26.46778 23.22934
#
# Velocity S-wave (km/s) = 3.40559 3.91864 3.67109
# Velocity P-wave (km/s) = 7.00874 7.66069 7.34196
#
# Compressibility (1/GPa) = 0.01723697
#
# Stress axis : x y z
#
# Youngs Moduli (GPa) = 103.04970 87.91201 65.64350
#
# Poissons Ratio (x) = 0.28887 0.21659
# Poissons Ratio (y) = 0.33862 0.19381
# Poissons Ratio (z) = 0.34001 0.25956
#
# Static dielectric constant tensor:
#      x y z
#    x 1.602450 0.000000 -0.000290 
#    y 0.000000 1.584790 0.000000 
#    z -0.000290 0.000000 1.624480 
# 
# From -- ./inp_files/148558.got.cif
#   From: 2010.05.17/outbox.cif.g08.bks.cpg/sg15_75_cif.got.tgz:148558.got - 2010.06.03 18:47:42.
