data_PCOD9263564
_publ_section_title
;
Structure prediction by ZEFSAII (Michael W. Deem and Ramdas Pophale) SiO2 
 PCOD9263564
Probable space group: C 2/C
;
_chemical_formula_sum "Si O2"
_cell_formula_units_Z 64
_cell_length_a 15.733086
_cell_length_b 8.427001
_cell_length_c 22.480310
_cell_angle_alpha 90.000000
_cell_angle_beta 69.246985
_cell_angle_gamma 90.000000
_cell_volume 2787.115767
_symmetry_space_group_name_H-M "C 2/C"
_symmetry_group_IT_number 15
_symmetry_cell_setting 'monoclinic'
loop_
_space_group_symop_operation_xyz
x,y,z
-x,y,1/2-z
-x,-y,-z
x,-y,1/2+z
1/2+x,1/2+y,z
1/2-x,1/2+y,1/2-z
1/2-x,1/2-y,-z
1/2+x,1/2-y,1/2+z
loop_
_atom_site_type_symbol
_atom_site_label
_atom_site_fract_x
_atom_site_fract_y
_atom_site_fract_z
Si Si1 0.428987 0.704389 0.675959
Si Si2 0.131553 0.277469 0.943974
Si Si3 0.742402 0.805468 0.711101
Si Si4 0.882203 0.264308 0.914864
Si Si5 0.904968 0.131217 0.251237
Si Si6 0.773695 0.974160 0.597096
Si Si7 0.221174 0.018711 0.622861
Si Si8 0.956991 0.824317 0.520329
O O1 0.405319 0.713027 0.611427
O O2 0.347964 0.800294 0.726939
O O3 0.532009 0.770020 0.651435
O O4 0.429192 0.532701 0.708741
O O5 0.185632 0.437928 0.919602
O O6 0.047928 0.277216 0.011057
O O7 0.203211 0.138991 0.939501
O O8 0.834220 0.783409 0.725388
O O9 0.744421 0.969924 0.673457
O O10 0.734584 0.662832 0.665909
O O11 0.806509 0.391966 0.919179
O O12 0.917571 0.263671 0.972452
O O13 0.833908 0.094193 0.917646
O O14 0.844706 0.097315 0.324611
O O15 0.000000 0.202554 0.250000
O O16 0.865775 0.866811 0.577958
O O17 0.000000 0.000000 0.500000
#
# Coordination Sequence:
#
# PCOD9263564 Si02
#       8
#     8   8   8   8   8   8   8   8
#     4  10  19  34  58  80 113 156 189 230 290 351
#     4  10  19  37  59  80 116 150 190 240 291 344
#     4  10  21  34  58  83 116 154 195 234 287 360
#     4  10  20  37  61  86 115 149 203 243 283 357
#     4  11  19  33  56  83 115 150 191 231 284 355
#     4  10  20  36  60  88 112 154 200 243 286 340
#     4  10  21  35  57  86 117 151 191 237 302 337
#     4   9  20  37  62  84 110 158 204 235 293 351
#
# _framework density 22.962807000000002
#
# number of rings (size 3 to 8) (size 9 to 14) (size 15 to 20)
#    0.000    2.000    3.750    0.375    0.000    0.000 
#    0.000    7.500    0.000    0.000    0.000    0.000 
#    0.000    0.000    0.000    0.000    0.000    0.000 
#
# Total GULP energy -178504.718774 kJ/mol
# GULP energy per Si atom -5578.272462 kJ/mol
# Density = 2.291054 g / cm^3
# Si number density = 22.962807 Si / 1000 Ang^3
#
#
#
# Elastic Constant Matrix: (Units=GPa)
#
#
# Indices 1 2 3 4 5 6 
#
# 1 98.0519 24.1199 17.2461 0.0000 -27.2853 0.0000
# 2 24.1199 21.6861 10.3765 0.0000 -9.3800 0.0000
# 3 17.2461 10.3765 58.9193 0.0000 -28.5912 0.0000
# 4 0.0000 0.0000 0.0000 26.7140 0.0000 -9.5014
# 5 -27.2853 -9.3800 -28.5912 0.0000 28.5264 0.0000
# 6 0.0000 0.0000 0.0000 -9.5014 0.0000 19.5284
#
#
#
# Elastic Compliance Matrix: (Units=1/GPa)
#
#
# Indices 1 2 3 4 5 6 
#
# 1 0.017957 -0.014962 0.006476 0.000000 0.018746 0.000000
# 2 -0.014962 0.066316 -0.007131 0.000000 0.000347 0.000000
# 3 0.006476 -0.007131 0.035435 0.000000 0.039365 0.000000
# 4 0.000000 0.000000 0.000000 0.045267 0.000000 0.022024
# 5 0.018746 0.000347 0.039365 0.000000 0.092554 0.000000
# 6 0.000000 0.000000 0.000000 0.022024 0.000000 0.061923
#
#
# Mechanical properties :
#
#
# Convention : Reuss Voigt Hill
#
# Bulk Modulus (GPa) = 11.30292 31.34914 21.32603
# Shear Modulus (GPa) = 13.15171 23.41476 18.28323
#
# Velocity S-wave (km/s) = 2.39579 3.19671 2.82478
# Velocity P-wave (km/s) = 3.54768 5.22561 4.46616
#
# Compressibility (1/GPa) = 0.08847271
#
# Stress axis : x y z
#
# Youngs Moduli (GPa) = 55.68894 15.07926 28.22079
#
# Poissons Ratio (x) = 0.22562 -0.18275
# Poissons Ratio (y) = 0.83324 0.20125
# Poissons Ratio (z) = -0.36063 0.10753
#
# Static dielectric constant tensor:
#      x y z
#    x 1.897870 0.000000 -0.012240 
#    y 0.000000 1.908930 0.000000 
#    z -0.012240 0.000000 1.920570 
# 
# From -- ./inp_files/295205.got.cif
#   From: 2010.05.17/outbox.cif.g08.bks.cpg/sg15_148_cif.got.tgz:295205.got - 2010.06.03 18:47:42.
