data_PCOD9263682
_publ_section_title
;
Structure prediction by ZEFSAII (Michael W. Deem and Ramdas Pophale) SiO2 
 PCOD9263682
Probable space group: C 2/C
;
_chemical_formula_sum "Si O2"
_cell_formula_units_Z 44
_cell_length_a 8.629662
_cell_length_b 27.678007
_cell_length_c 11.975529
_cell_angle_alpha 90.000000
_cell_angle_beta 140.660779
_cell_angle_gamma 90.000000
_cell_volume 1813.222984
_symmetry_space_group_name_H-M "C 2/C"
_symmetry_group_IT_number 15
_symmetry_cell_setting 'monoclinic'
loop_
_space_group_symop_operation_xyz
x,y,z
-x,y,1/2-z
-x,-y,-z
x,-y,1/2+z
1/2+x,1/2+y,z
1/2-x,1/2+y,1/2-z
1/2-x,1/2-y,-z
1/2+x,1/2-y,1/2+z
loop_
_atom_site_type_symbol
_atom_site_label
_atom_site_fract_x
_atom_site_fract_y
_atom_site_fract_z
Si Si1 0.916222 0.922080 0.817748
Si Si2 0.401495 0.816460 0.021193
Si Si3 0.595328 0.284633 0.640066
Si Si4 0.500000 0.488703 0.250000
Si Si5 0.882282 0.409328 0.437160
Si Si6 0.281032 0.640305 0.441987
O O1 0.627979 0.929164 0.633964
O O2 0.935773 0.893913 0.943895
O O3 0.000000 0.894527 0.750000
O O4 0.942209 0.972762 0.618446
O O5 0.293221 0.807738 0.835428
O O6 0.522310 0.869236 0.097609
O O7 0.170843 0.804158 0.970687
O O8 0.589379 0.772760 0.146070
O O9 0.646089 0.305427 0.546322
O O10 0.714337 0.455313 0.322021
O O11 0.724473 0.377991 0.436812
O O12 0.000000 0.635204 0.250000
#
# Coordination Sequence:
#
# PCOD9263682 Si02
#       6
#     8   8   8   4   8   8
#     4   9  19  37  61  79 108 155 196 236 288 351
#     4  10  21  36  63  81 120 155 198 240 287 361
#     4  10  20  38  57  90 110 160 199 232 296 356
#     4  10  24  36  58  88 116 154 198 246 294 348
#     4  11  21  38  57  87 118 151 194 244 298 343
#     4  10  19  34  59  84 112 147 196 237 290 354
#
# _framework density 24.266183000000002
#
# number of rings (size 3 to 8) (size 9 to 14) (size 15 to 20)
#    0.545    1.455    3.636    1.636    0.000    2.909 
#    1.636    0.000    0.000    0.000    0.000    0.000 
#    0.000    0.000    0.000    0.000    0.000    0.000 
#
# Total GULP energy -122731.032120 kJ/mol
# GULP energy per Si atom -5578.683278 kJ/mol
# Density = 2.421095 g / cm^3
# Si number density = 24.266183 Si / 1000 Ang^3
#
#
#
# Elastic Constant Matrix: (Units=GPa)
#
#
# Indices 1 2 3 4 5 6 
#
# 1 77.2246 6.8712 4.6694 0.0000 4.4616 0.0000
# 2 6.8712 125.1105 8.1794 0.0000 21.5347 0.0000
# 3 4.6694 8.1794 48.1375 0.0000 16.2806 0.0000
# 4 0.0000 0.0000 0.0000 18.2512 0.0000 11.3039
# 5 4.4616 21.5347 16.2806 0.0000 11.3861 0.0000
# 6 0.0000 0.0000 0.0000 11.3039 0.0000 48.1217
#
#
#
# Elastic Compliance Matrix: (Units=1/GPa)
#
#
# Indices 1 2 3 4 5 6 
#
# 1 0.013297 0.000651 0.001507 0.000000 -0.008595 0.000000
# 2 0.000651 0.015703 0.014329 0.000000 -0.050442 0.000000
# 3 0.001507 0.014329 0.053365 0.000000 -0.103996 0.000000
# 4 0.000000 0.000000 0.000000 0.064120 0.000000 -0.015062
# 5 -0.008595 -0.050442 -0.103996 0.000000 0.335295 0.000000
# 6 0.000000 0.000000 0.000000 -0.015062 0.000000 0.024319
#
#
# Mechanical properties :
#
#
# Convention : Reuss Voigt Hill
#
# Bulk Modulus (GPa) = 8.67026 32.21250 20.44138
# Shear Modulus (GPa) = 9.77380 30.93531 20.35455
#
# Velocity S-wave (km/s) = 2.00910 3.57435 2.89935
# Velocity P-wave (km/s) = 2.99378 5.50801 4.43288
#
# Compressibility (1/GPa) = 0.11533674
#
# Stress axis : x y z
#
# Youngs Moduli (GPa) = 75.20597 63.68324 18.73872
#
# Poissons Ratio (x) = -0.04144 -0.02823
# Poissons Ratio (y) = -0.04893 -0.26850
# Poissons Ratio (z) = -0.11330 -0.91249
#
# Static dielectric constant tensor:
#      x y z
#    x 1.975380 0.000000 -0.005720 
#    y 0.000000 1.973640 0.000000 
#    z -0.005720 0.000000 2.035580 
# 
# From -- ./inp_files/25651.got.cif
#   From: 2010.05.17/outbox.cif.g08.bks.cpg/sg15_13_cif.got.tgz:25651.got - 2010.06.03 18:47:42.
