data_PCOD9263484
_publ_section_title
;
Structure prediction by ZEFSAII (Michael W. Deem and Ramdas Pophale) SiO2 
 PCOD9263484
Probable space group: C 2/C
;
_chemical_formula_sum "Si O2"
_cell_formula_units_Z 60
_cell_length_a 24.017563
_cell_length_b 8.579263
_cell_length_c 11.537804
_cell_angle_alpha 90.000000
_cell_angle_beta 98.589125
_cell_angle_gamma 90.000000
_cell_volume 2350.735873
_symmetry_space_group_name_H-M "C 2/C"
_symmetry_group_IT_number 15
_symmetry_cell_setting 'monoclinic'
loop_
_space_group_symop_operation_xyz
x,y,z
-x,y,1/2-z
-x,-y,-z
x,-y,1/2+z
1/2+x,1/2+y,z
1/2-x,1/2+y,1/2-z
1/2-x,1/2-y,-z
1/2+x,1/2-y,1/2+z
loop_
_atom_site_type_symbol
_atom_site_label
_atom_site_fract_x
_atom_site_fract_y
_atom_site_fract_z
Si Si1 0.298229 0.764566 0.127661
Si Si2 0.900587 0.345562 0.305327
Si Si3 0.139291 0.454868 0.506856
Si Si4 0.500000 0.937618 0.750000
Si Si5 0.950119 0.742969 0.409507
Si Si6 0.290625 0.459549 0.268521
Si Si7 0.867167 0.750940 0.160541
Si Si8 0.598621 0.442310 0.547481
O O1 0.362156 0.775176 0.194563
O O2 0.279836 0.599534 0.174775
O O3 0.260116 0.900689 0.168924
O O4 0.312995 0.822197 0.001136
O O5 0.858237 0.445299 0.374016
O O6 0.924639 0.205958 0.389852
O O7 0.949721 0.449410 0.270229
O O8 0.078927 0.371719 0.507778
O O9 0.139630 0.587624 0.408174
O O10 0.494377 0.827962 0.633191
O O11 0.909575 0.745398 0.282286
O O12 0.944002 0.914164 0.458323
O O13 0.309431 0.311739 0.197594
O O14 0.342977 0.510156 0.368322
O O15 0.886367 0.883071 0.075415
#
# Coordination Sequence:
#
# PCOD9263484 Si02
#       8
#     8   8   8   4   8   8   8   8
#     4  11  21  37  57  86 121 157 198 248 293 352
#     4   9  21  38  57  81 118 160 200 244 300 351
#     4  10  19  34  57  83 115 153 193 242 295 344
#     4  10  20  38  60  88 120 154 200 254 298 350
#     4  10  21  38  61  91 119 155 203 248 297 355
#     4  10  22  37  61  90 119 161 204 237 296 359
#     4  10  20  40  62  87 125 160 193 248 297 351
#     4   9  20  40  61  86 120 159 199 244 295 355
#
# _framework density 25.523921999999999
#
# number of rings (size 3 to 8) (size 9 to 14) (size 15 to 20)
#    0.000    2.133    0.000    3.200    0.000    3.733 
#    0.000   25.333    0.000    0.000    0.000    0.000 
#    0.000    0.000    0.000    0.000    0.000    0.000 
#
# Total GULP energy -167788.608175 kJ/mol
# GULP energy per Si atom -5592.953606 kJ/mol
# Density = 2.546583 g / cm^3
# Si number density = 25.523922 Si / 1000 Ang^3
#
#
#
# Elastic Constant Matrix: (Units=GPa)
#
#
# Indices 1 2 3 4 5 6 
#
# 1 80.0250 38.0988 37.1382 0.0000 -33.3633 0.0000
# 2 38.0988 135.8860 37.9129 0.0000 -29.8763 0.0000
# 3 37.1382 37.9129 108.4295 0.0000 -20.8152 0.0000
# 4 0.0000 0.0000 0.0000 45.2044 0.0000 -19.1089
# 5 -33.3633 -29.8763 -20.8152 0.0000 59.0400 0.0000
# 6 0.0000 0.0000 0.0000 -19.1089 0.0000 22.2500
#
#
#
# Elastic Compliance Matrix: (Units=1/GPa)
#
#
# Indices 1 2 3 4 5 6 
#
# 1 0.018873 -0.002388 -0.004091 0.000000 0.008014 0.000000
# 2 -0.002388 0.009124 -0.001872 0.000000 0.002608 0.000000
# 3 -0.004091 -0.001872 0.011426 0.000000 0.000770 0.000000
# 4 0.000000 0.000000 0.000000 0.034731 0.000000 0.029828
# 5 0.008014 0.002608 0.000770 0.000000 0.023057 0.000000
# 6 0.000000 0.000000 0.000000 0.029828 0.000000 0.070561
#
#
# Mechanical properties :
#
#
# Convention : Reuss Voigt Hill
#
# Bulk Modulus (GPa) = 44.01045 61.18226 52.59635
# Shear Modulus (GPa) = 26.03538 39.37823 32.70680
#
# Velocity S-wave (km/s) = 3.19727 3.93211 3.58357
# Velocity P-wave (km/s) = 5.55970 6.68116 6.14606
#
# Compressibility (1/GPa) = 0.02272188
#
# Stress axis : x y z
#
# Youngs Moduli (GPa) = 52.98694 109.59805 87.52074
#
# Poissons Ratio (x) = 0.26172 0.35801
# Poissons Ratio (y) = 0.12654 0.16382
# Poissons Ratio (z) = 0.21675 0.20514
#
# Static dielectric constant tensor:
#      x y z
#    x 2.036830 0.000000 0.032350 
#    y 0.000000 2.037810 0.000000 
#    z 0.032350 0.000000 2.050750 
# 
# From -- ./inp_files/121982.got.cif
#   From: 2010.05.17/outbox.cif.g08.bks.cpg/sg15_61_cif.got.tgz:121982.got - 2010.06.03 18:47:42.
