data_PCOD9263449
_publ_section_title
;
Structure prediction by ZEFSAII (Michael W. Deem and Ramdas Pophale) SiO2 
 PCOD9263449
Probable space group: C 2/C
;
_chemical_formula_sum "Si O2"
_cell_formula_units_Z 48
_cell_length_a 24.226031
_cell_length_b 25.670632
_cell_length_c 5.382394
_cell_angle_alpha 90.000000
_cell_angle_beta 54.999168
_cell_angle_gamma 90.000000
_cell_volume 2741.917723
_symmetry_space_group_name_H-M "C 2/C"
_symmetry_group_IT_number 15
_symmetry_cell_setting 'monoclinic'
loop_
_space_group_symop_operation_xyz
x,y,z
-x,y,1/2-z
-x,-y,-z
x,-y,1/2+z
1/2+x,1/2+y,z
1/2-x,1/2+y,1/2-z
1/2-x,1/2-y,-z
1/2+x,1/2-y,1/2+z
loop_
_atom_site_type_symbol
_atom_site_label
_atom_site_fract_x
_atom_site_fract_y
_atom_site_fract_z
Si Si1 0.593866 0.028842 0.117022
Si Si2 0.500000 0.191627 0.750000
Si Si3 0.763143 0.813443 0.235439
Si Si4 0.646078 0.220704 0.349930
Si Si5 0.230594 0.366382 0.811271
Si Si6 0.242769 0.512657 0.253743
Si Si7 0.000000 0.623447 0.250000
O O1 0.572060 0.992290 0.942603
O O2 0.675334 0.023537 0.916219
O O3 0.563593 0.085056 0.136928
O O4 0.567092 0.225224 0.531779
O O5 0.491956 0.157020 0.520956
O O6 0.689995 0.786578 0.483125
O O7 0.817402 0.767431 0.100066
O O8 0.772642 0.848221 0.459543
O O9 0.761151 0.846548 0.990965
O O10 0.662183 0.166267 0.448067
O O11 0.220593 0.427608 0.826691
O O12 0.281087 0.502552 0.901823
#
# Coordination Sequence:
#
# PCOD9263449 Si02
#       7
#     8   4   8   8   8   8   4
#     4  10  21  34  47  58  91 135 186 216 243 281
#     4  12  28  33  56  76 108 132 182 227 262 298
#     4   9  20  36  60  72  97 128 185 216 273 325
#     4   9  23  36  55  78  99 131 177 227 271 308
#     4  10  19  34  57  75  95 138 182 214 261 315
#     4  10  21  30  47  72 101 133 171 221 253 286
#     4  12  26  37  46  68 102 154 182 209 254 302
#
# _framework density 17.505994999999999
#
# number of rings (size 3 to 8) (size 9 to 14) (size 15 to 20)
#    1.000    1.000    0.000    3.000   11.667    0.000 
#    0.000    0.000    0.000    0.000    0.000    0.000 
#    0.000    0.000    0.000   15.000    0.000    0.000 
#
# Total GULP energy -133714.253499 kJ/mol
# GULP energy per Si atom -5571.427229 kJ/mol
# Density = 1.746615 g / cm^3
# Si number density = 17.505995 Si / 1000 Ang^3
#
#
#
# Elastic Constant Matrix: (Units=GPa)
#
#
# Indices 1 2 3 4 5 6 
#
# 1 62.7844 22.8117 54.4066 0.0000 15.7983 0.0000
# 2 22.8117 53.2749 27.2588 0.0000 -6.8838 0.0000
# 3 54.4066 27.2588 74.7151 0.0000 22.8376 0.0000
# 4 0.0000 0.0000 0.0000 19.4736 0.0000 8.6502
# 5 15.7983 -6.8838 22.8376 0.0000 44.1569 0.0000
# 6 0.0000 0.0000 0.0000 8.6502 0.0000 5.0483
#
#
#
# Elastic Compliance Matrix: (Units=1/GPa)
#
#
# Indices 1 2 3 4 5 6 
#
# 1 0.043550 -0.003077 -0.030502 0.000000 -0.000285 0.000000
# 2 -0.003077 0.027170 -0.011050 0.000000 0.011051 0.000000
# 3 -0.030502 -0.011050 0.043731 0.000000 -0.013427 0.000000
# 4 0.000000 0.000000 0.000000 0.214985 0.000000 -0.368376
# 5 -0.000285 0.011051 -0.013427 0.000000 0.031416 0.000000
# 6 0.000000 0.000000 0.000000 -0.368376 0.000000 0.829297
#
#
# Mechanical properties :
#
#
# Convention : Reuss Voigt Hill
#
# Bulk Modulus (GPa) = 39.69553 44.41428 42.05491
# Shear Modulus (GPa) = 3.88258 19.48892 11.68575
#
# Velocity S-wave (km/s) = 1.49086 3.34019 2.58646
# Velocity P-wave (km/s) = 5.06835 6.34837 5.74413
#
# Compressibility (1/GPa) = 0.02519175
#
# Stress axis : x y z
#
# Youngs Moduli (GPa) = 22.96234 36.80535 22.86709
#
# Poissons Ratio (x) = 0.11326 0.69750
# Poissons Ratio (y) = 0.07066 0.25267
# Poissons Ratio (z) = 0.70040 0.40669
#
# Static dielectric constant tensor:
#      x y z
#    x 1.620380 0.000000 0.055540 
#    y 0.000000 1.601160 0.000000 
#    z 0.055540 0.000000 1.666210 
# 
# From -- ./inp_files/16332.got.cif
#   From: 2010.05.17/outbox.cif.g08.bks.cpg/sg15_9_cif.got.tgz:16332.got - 2010.06.03 18:47:42.
