data_PCOD9263205
_publ_section_title
;
Structure prediction by ZEFSAII (Michael W. Deem and Ramdas Pophale) SiO2 
 PCOD9263205
Probable space group: C 2/C
;
_chemical_formula_sum "Si O2"
_cell_formula_units_Z 52
_cell_length_a 21.611785
_cell_length_b 4.870286
_cell_length_c 21.420633
_cell_angle_alpha 90.000000
_cell_angle_beta 108.012735
_cell_angle_gamma 90.000000
_cell_volume 2144.136122
_symmetry_space_group_name_H-M "C 2/C"
_symmetry_group_IT_number 15
_symmetry_cell_setting 'monoclinic'
loop_
_space_group_symop_operation_xyz
x,y,z
-x,y,1/2-z
-x,-y,-z
x,-y,1/2+z
1/2+x,1/2+y,z
1/2-x,1/2+y,1/2-z
1/2-x,1/2-y,-z
1/2+x,1/2-y,1/2+z
loop_
_atom_site_type_symbol
_atom_site_label
_atom_site_fract_x
_atom_site_fract_y
_atom_site_fract_z
Si Si1 0.596858 0.335219 0.596533
Si Si2 0.500000 0.500000 0.500000
Si Si3 0.668720 0.229807 0.411577
Si Si4 0.188598 0.050117 0.292249
Si Si5 0.163698 0.550677 0.207295
Si Si6 0.905927 0.528846 0.518282
Si Si7 0.798287 0.081307 0.953590
O O1 0.542300 0.562238 0.581707
O O2 0.610108 0.096444 0.648352
O O3 0.664563 0.457947 0.594353
O O4 0.567203 0.208284 0.520250
O O5 0.449389 0.289689 0.523003
O O6 0.668663 0.420540 0.351357
O O7 0.685424 0.423029 0.476789
O O8 0.603823 0.081608 0.415536
O O9 0.723446 0.992278 0.420379
O O10 0.156442 0.860932 0.227807
O O11 0.266602 0.027902 0.306343
O O12 0.170088 0.360431 0.270753
O O13 0.832642 0.621485 0.471969
#
# Coordination Sequence:
#
# PCOD9263205 Si02
#       7
#     8   4   8   8   8   8   8
#     4  10  20  37  59  86 118 151 203 250 318 362
#     4  10  22  38  58  88 114 148 208 260 310 358
#     4  10  19  34  53  87 122 157 197 239 312 371
#     4  10  22  36  57  87 127 163 201 237 302 382
#     4  10  22  37  57  88 123 166 195 248 299 376
#     4  10  21  34  58  87 117 156 193 262 309 364
#     4   9  19  32  54  87 120 155 187 247 309 373
#
# _framework density 24.252189999999999
#
# number of rings (size 3 to 8) (size 9 to 14) (size 15 to 20)
#    0.000    2.154    1.538    0.923    6.462    1.231 
#    0.000    0.000    0.000    0.923    0.000    0.000 
#    0.000    0.000    0.000    0.000    0.000    0.000 
#
# Total GULP energy -144978.555190 kJ/mol
# GULP energy per Si atom -5576.098277 kJ/mol
# Density = 2.419699 g / cm^3
# Si number density = 24.252190 Si / 1000 Ang^3
#
#
#
# Elastic Constant Matrix: (Units=GPa)
#
#
# Indices 1 2 3 4 5 6 
#
# 1 76.6961 17.8424 21.1108 -0.0001 -5.7230 0.0000
# 2 17.8424 111.8804 20.7775 0.0000 -10.4337 -0.0001
# 3 21.1108 20.7775 87.5045 -0.0001 -10.3455 0.0001
# 4 -0.0001 0.0000 -0.0001 36.8970 0.0001 2.2124
# 5 -5.7230 -10.4337 -10.3455 0.0001 31.5087 0.0000
# 6 0.0000 -0.0001 0.0001 2.2124 0.0000 36.5997
#
#
#
# Elastic Compliance Matrix: (Units=1/GPa)
#
#
# Indices 1 2 3 4 5 6 
#
# 1 0.014308 -0.001635 -0.002934 0.000000 0.001094 0.000000
# 2 -0.001635 0.009725 -0.001632 0.000000 0.002387 0.000000
# 3 -0.002934 -0.001632 0.012897 0.000000 0.003161 0.000000
# 4 0.000000 0.000000 0.000000 0.027201 0.000000 -0.001644
# 5 0.001094 0.002387 0.003161 0.000000 0.033764 0.000000
# 6 0.000000 0.000000 0.000000 -0.001644 0.000000 0.027422
#
#
# Mechanical properties :
#
#
# Convention : Reuss Voigt Hill
#
# Bulk Modulus (GPa) = 40.77181 43.94916 42.36048
# Shear Modulus (GPa) = 34.27091 35.42444 34.84768
#
# Velocity S-wave (km/s) = 3.76321 3.82602 3.79474
# Velocity P-wave (km/s) = 5.97749 6.13832 6.05844
#
# Compressibility (1/GPa) = 0.02452675
#
# Stress axis : x y z
#
# Youngs Moduli (GPa) = 69.89040 102.83169 77.53595
#
# Poissons Ratio (x) = 0.16811 0.22752
# Poissons Ratio (y) = 0.11426 0.12657
# Poissons Ratio (z) = 0.20508 0.16786
#
# Static dielectric constant tensor:
#      x y z
#    x 2.174750 0.000000 0.138510 
#    y 0.000000 2.179650 0.000000 
#    z 0.138510 0.000000 2.064580 
# 
# From -- ./inp_files/251119.got.cif
#   From: 2010.05.17/outbox.cif.g08.bks.cpg/sg15_126_cif.got.tgz:251119.got - 2010.06.03 18:47:42.
