data_PCOD9263147
_publ_section_title
;
Structure prediction by ZEFSAII (Michael W. Deem and Ramdas Pophale) SiO2 
 PCOD9263147
Probable space group: C 2/C
;
_chemical_formula_sum "Si O2"
_cell_formula_units_Z 64
_cell_length_a 20.218526
_cell_length_b 20.744301
_cell_length_c 8.118219
_cell_angle_alpha 90.000000
_cell_angle_beta 90.858009
_cell_angle_gamma 90.000000
_cell_volume 3404.555053
_symmetry_space_group_name_H-M "C 2/C"
_symmetry_group_IT_number 15
_symmetry_cell_setting 'monoclinic'
loop_
_space_group_symop_operation_xyz
x,y,z
-x,y,1/2-z
-x,-y,-z
x,-y,1/2+z
1/2+x,1/2+y,z
1/2-x,1/2+y,1/2-z
1/2-x,1/2-y,-z
1/2+x,1/2-y,1/2+z
loop_
_atom_site_type_symbol
_atom_site_label
_atom_site_fract_x
_atom_site_fract_y
_atom_site_fract_z
Si Si1 0.929274 0.141926 0.824615
Si Si2 0.790606 0.951418 0.624878
Si Si3 0.428610 0.782962 0.712587
Si Si4 0.571125 0.596472 0.298169
Si Si5 0.431349 0.738962 0.337571
Si Si6 0.208028 0.329024 0.680516
Si Si7 0.703681 0.793795 0.291706
Si Si8 0.707472 0.588622 0.759822
O O1 0.921067 0.219351 0.826671
O O2 0.867889 0.112918 0.720537
O O3 0.000000 0.126835 0.750000
O O4 0.929804 0.117475 0.011018
O O5 0.862992 0.945534 0.712598
O O6 0.742937 0.897903 0.702990
O O7 0.791968 0.931143 0.433583
O O8 0.772145 0.025662 0.640032
O O9 0.500000 0.814118 0.750000
O O10 0.432763 0.754499 0.529661
O O11 0.363953 0.825037 0.740933
O O12 0.500000 0.566477 0.250000
O O13 0.578263 0.662586 0.195239
O O14 0.500000 0.755658 0.250000
O O15 0.370580 0.779044 0.262875
O O16 0.254801 0.271035 0.744149
O O17 0.202926 0.311769 0.485556
O O18 0.742264 0.852795 0.209386
#
# Coordination Sequence:
#
# PCOD9263147 Si02
#       8
#     8   8   8   8   8   8   8   8
#     4  10  19  34  52  76 108 148 186 222 269 318
#     4  10  22  37  55  77 109 148 182 224 273 323
#     4  11  21  33  54  84 112 141 179 227 274 322
#     4  10  19  34  52  76 108 148 186 222 269 318
#     4  11  21  33  54  84 112 141 179 227 274 322
#     4  10  19  37  59  79 109 145 182 224 274 323
#     4  10  19  37  59  79 109 145 182 224 274 323
#     4  10  22  37  55  77 109 148 182 224 273 323
#
# _framework density 18.798345000000001
#
# number of rings (size 3 to 8) (size 9 to 14) (size 15 to 20)
#    0.000    1.750    2.500    4.500    0.000    4.000 
#    0.000    2.500    0.000    0.750    0.000    5.250 
#    0.000    0.000    0.000    0.000    0.000    0.000 
#
# Total GULP energy -178733.938772 kJ/mol
# GULP energy per Si atom -5585.435587 kJ/mol
# Density = 1.875556 g / cm^3
# Si number density = 18.798345 Si / 1000 Ang^3
#
#
#
# Elastic Constant Matrix: (Units=GPa)
#
#
# Indices 1 2 3 4 5 6 
#
# 1 112.3286 41.5654 2.5437 0.0000 -3.9355 0.0000
# 2 41.5654 63.6424 -6.5159 0.0000 -4.5388 0.0000
# 3 2.5437 -6.5159 15.5566 0.0000 -2.9847 0.0000
# 4 0.0000 0.0000 0.0000 22.5747 0.0000 -1.7352
# 5 -3.9355 -4.5388 -2.9847 0.0000 28.7436 0.0000
# 6 0.0000 0.0000 0.0000 -1.7352 0.0000 53.7545
#
#
#
# Elastic Compliance Matrix: (Units=1/GPa)
#
#
# Indices 1 2 3 4 5 6 
#
# 1 0.012186 -0.008554 -0.005626 0.000000 -0.000267 0.000000
# 2 -0.008554 0.022748 0.011623 0.000000 0.003628 0.000000
# 3 -0.005626 0.011623 0.071703 0.000000 0.008511 0.000000
# 4 0.000000 0.000000 0.000000 0.044407 0.000000 0.001433
# 5 -0.000267 0.003628 0.008511 0.000000 0.036210 0.000000
# 6 0.000000 0.000000 0.000000 0.001433 0.000000 0.018649
#
#
# Mechanical properties :
#
#
# Convention : Reuss Voigt Hill
#
# Bulk Modulus (GPa) = 9.85013 29.63491 19.74252
# Shear Modulus (GPa) = 20.41995 31.27685 25.84840
#
# Velocity S-wave (km/s) = 3.29943 4.08341 3.71217
# Velocity P-wave (km/s) = 4.44592 6.16694 5.37575
#
# Compressibility (1/GPa) = 0.10152149
#
# Stress axis : x y z
#
# Youngs Moduli (GPa) = 82.06371 43.96004 13.94651
#
# Poissons Ratio (x) = 0.37602 0.07847
# Poissons Ratio (y) = 0.70194 -0.16210
# Poissons Ratio (z) = 0.46172 -0.51093
#
# Static dielectric constant tensor:
#      x y z
#    x 1.663900 0.000000 0.002580 
#    y 0.000000 1.632790 0.000000 
#    z 0.002580 0.000000 1.690040 
# 
# From -- ./inp_files/50251.got.cif
#   From: 2010.05.17/outbox.cif.g08.bks.cpg/sg15_26_cif.got.tgz:50251.got - 2010.06.03 18:47:42.
