data_PCOD9263917
_publ_section_title
;
Structure prediction by ZEFSAII (Michael W. Deem and Ramdas Pophale) SiO2 
 PCOD9263917
Probable space group: C 2/C
;
_chemical_formula_sum "Si O2"
_cell_formula_units_Z 52
_cell_length_a 12.039208
_cell_length_b 9.399229
_cell_length_c 18.934806
_cell_angle_alpha 90.000000
_cell_angle_beta 103.857319
_cell_angle_gamma 90.000000
_cell_volume 2080.287436
_symmetry_space_group_name_H-M "C 2/C"
_symmetry_group_IT_number 15
_symmetry_cell_setting 'monoclinic'
loop_
_space_group_symop_operation_xyz
x,y,z
-x,y,1/2-z
-x,-y,-z
x,-y,1/2+z
1/2+x,1/2+y,z
1/2-x,1/2+y,1/2-z
1/2-x,1/2-y,-z
1/2+x,1/2-y,1/2+z
loop_
_atom_site_type_symbol
_atom_site_label
_atom_site_fract_x
_atom_site_fract_y
_atom_site_fract_z
Si Si1 0.958583 0.706683 0.894755
Si Si2 0.264047 0.480264 0.042665
Si Si3 0.224450 0.757659 0.334398
Si Si4 0.937118 0.668479 0.436254
Si Si5 0.025259 0.989567 0.098127
Si Si6 0.122314 0.503671 0.378743
Si Si7 0.500000 0.413955 0.250000
O O1 0.846944 0.680749 0.828941
O O2 0.068915 0.654528 0.866948
O O3 0.918523 0.863450 0.913636
O O4 0.993798 0.647371 0.978570
O O5 0.272669 0.330371 0.085914
O O6 0.185569 0.591491 0.075162
O O7 0.395638 0.518019 0.053719
O O8 0.204590 0.486499 0.958565
O O9 0.190655 0.590691 0.330093
O O10 0.115983 0.826398 0.279584
O O11 0.930398 0.836177 0.418101
O O12 0.010948 0.597250 0.385003
O O13 0.018845 0.998694 0.181532
#
# Coordination Sequence:
#
# PCOD9263917 Si02
#       7
#     8   8   8   8   8   8   4
#     4  11  23  37  61  98 122 148 198 263 312 362
#     4  10  19  34  63  89 123 151 188 247 304 368
#     4  11  20  39  62  84 118 164 206 243 296 361
#     4  11  19  36  65  95 118 156 197 245 317 377
#     4  11  24  41  58  88 127 160 199 251 309 362
#     4  11  19  35  65  94 118 152 198 248 310 373
#     4  10  24  44  58  78 114 170 208 232 292 362
#
# _framework density 24.996547
#
# number of rings (size 3 to 8) (size 9 to 14) (size 15 to 20)
#    0.000    1.231    6.154    2.769    0.000    3.692 
#    8.308    0.769    0.000    0.000    0.000    0.000 
#    0.000    0.000    0.000    0.000    0.000    0.000 
#
# Total GULP energy -144881.441892 kJ/mol
# GULP energy per Si atom -5572.363150 kJ/mol
# Density = 2.493965 g / cm^3
# Si number density = 24.996547 Si / 1000 Ang^3
#
#
#
# Elastic Constant Matrix: (Units=GPa)
#
#
# Indices 1 2 3 4 5 6 
#
# 1 72.9051 38.5597 1.5000 0.0000 29.3611 0.0000
# 2 38.5597 126.5825 11.0378 0.0000 9.5794 0.0000
# 3 1.5000 11.0378 65.3282 0.0000 16.9833 0.0000
# 4 0.0000 0.0000 0.0000 -1.5437 0.0000 1.9784
# 5 29.3611 9.5794 16.9833 0.0000 36.5000 0.0000
# 6 0.0000 0.0000 0.0000 1.9784 0.0000 41.2532
#
#
#
# Elastic Compliance Matrix: (Units=1/GPa)
#
#
# Indices 1 2 3 4 5 6 
#
# 1 0.026125 -0.006832 0.006316 0.000000 -0.022161 0.000000
# 2 -0.006832 0.009896 -0.002581 0.000000 0.004099 0.000000
# 3 0.006316 -0.002581 0.019047 0.000000 -0.013265 0.000000
# 4 0.000000 0.000000 0.000000 -0.610299 0.000000 0.029268
# 5 -0.022161 0.004099 -0.013265 0.000000 0.050320 0.000000
# 6 0.000000 0.000000 0.000000 0.029268 0.000000 0.022837
#
#
# Mechanical properties :
#
#
# Convention : Reuss Voigt Hill
#
# Bulk Modulus (GPa) = 20.46100 40.77897 30.61999
# Shear Modulus (GPa) = -10.87928 29.48981 9.30526
#
# Velocity S-wave (km/s) = -2.08848 3.43848 1.93150
# Velocity P-wave (km/s) = 1.54519 5.66688 4.15338
#
# Compressibility (1/GPa) = 0.04887346
#
# Stress axis : x y z
#
# Youngs Moduli (GPa) = 38.27804 101.05182 52.50174
#
# Poissons Ratio (x) = 0.69036 -0.33158
# Poissons Ratio (y) = 0.26151 0.13550
# Poissons Ratio (z) = -0.24175 0.26080
#
# Static dielectric constant tensor:
#      x y z
#    x 2.132150 0.000000 -0.002650 
#    y 0.000000 2.130800 0.000000 
#    z -0.002650 0.000000 2.068590 
# 
# From -- ./inp_files/242527.got.cif
#   From: 2010.05.17/outbox.cif.g08.bks.cpg/sg15_122_cif.got.tgz:242527.got - 2010.06.03 18:47:42.
