data_PCOD9263638
_publ_section_title
;
Structure prediction by ZEFSAII (Michael W. Deem and Ramdas Pophale) SiO2 
 PCOD9263638
Probable space group: C 2/C
;
_chemical_formula_sum "Si O2"
_cell_formula_units_Z 64
_cell_length_a 17.976240
_cell_length_b 26.275437
_cell_length_c 13.008624
_cell_angle_alpha 90.000000
_cell_angle_beta 145.596656
_cell_angle_gamma 90.000000
_cell_volume 3471.684628
_symmetry_space_group_name_H-M "C 2/C"
_symmetry_group_IT_number 15
_symmetry_cell_setting 'monoclinic'
loop_
_space_group_symop_operation_xyz
x,y,z
-x,y,1/2-z
-x,-y,-z
x,-y,1/2+z
1/2+x,1/2+y,z
1/2-x,1/2+y,1/2-z
1/2-x,1/2-y,-z
1/2+x,1/2-y,1/2+z
loop_
_atom_site_type_symbol
_atom_site_label
_atom_site_fract_x
_atom_site_fract_y
_atom_site_fract_z
Si Si1 0.940140 0.581176 0.394790
Si Si2 0.319957 0.665150 0.613630
Si Si3 0.563184 0.182881 0.435440
Si Si4 0.572985 0.438996 0.226485
Si Si5 0.398475 0.295101 0.992853
Si Si6 0.084702 0.524544 0.744302
Si Si7 0.339055 0.607450 0.322446
Si Si8 0.363137 0.455137 0.654727
O O1 0.934576 0.534765 0.307518
O O2 0.793009 0.589739 0.270132
O O3 0.998628 0.633871 0.415512
O O4 0.029656 0.559506 0.589569
O O5 0.215291 0.676966 0.580281
O O6 0.323633 0.603875 0.619447
O O7 0.463564 0.681556 0.813005
O O8 0.303747 0.693565 0.484985
O O9 0.500000 0.189503 0.250000
O O10 0.565263 0.237522 0.492728
O O11 0.500000 0.449045 0.250000
O O12 0.630685 0.493894 0.266119
O O13 0.467582 0.417781 0.024566
O O14 0.347674 0.331862 0.846553
O O15 0.000000 0.534975 0.750000
O O16 0.238367 0.535888 0.939156
O O17 0.337415 0.590474 0.203446
O O18 0.500000 0.447196 0.750000
#
# Coordination Sequence:
#
# PCOD9263638 Si02
#       8
#     8   8   8   8   8   8   8   8
#     4  11  25  39  65  91 123 170 204 249 314 383
#     4  10  19  35  50  82 125 161 183 242 302 358
#     4  12  24  33  59  92 122 159 202 251 308 376
#     4  10  19  34  58  88 124 157 196 244 295 361
#     4  10  21  36  57  82 122 161 197 252 305 362
#     4  11  24  44  60  92 133 164 206 255 314 371
#     4  11  21  40  61  88 124 162 207 250 309 367
#     4  11  24  39  65  89 119 165 209 257 300 366
#
# _framework density 18.434854999999999
#
# number of rings (size 3 to 8) (size 9 to 14) (size 15 to 20)
#    0.000    1.250    5.000    3.375    5.250    2.000 
#    0.000    0.000    0.000    1.500    0.000    0.000 
#    0.000    0.000    0.000    0.000    0.000    0.000 
#
# Total GULP energy -178395.794085 kJ/mol
# GULP energy per Si atom -5574.868565 kJ/mol
# Density = 1.839290 g / cm^3
# Si number density = 18.434855 Si / 1000 Ang^3
#
#
#
# Elastic Constant Matrix: (Units=GPa)
#
#
# Indices 1 2 3 4 5 6 
#
# 1 58.0975 29.1858 20.0263 0.0000 -1.7241 0.0000
# 2 29.1858 136.3627 30.5316 0.0000 -15.6133 0.0000
# 3 20.0263 30.5316 80.0141 0.0000 -3.5161 0.0000
# 4 0.0000 0.0000 0.0000 0.1686 0.0000 -21.5595
# 5 -1.7241 -15.6133 -3.5161 0.0000 17.5573 0.0000
# 6 0.0000 0.0000 0.0000 -21.5595 0.0000 9.3717
#
#
#
# Elastic Compliance Matrix: (Units=1/GPa)
#
#
# Indices 1 2 3 4 5 6 
#
# 1 0.020327 -0.003751 -0.003748 0.000000 -0.002090 0.000000
# 2 -0.003751 0.009541 -0.002366 0.000000 0.007642 0.000000
# 3 -0.003748 -0.002366 0.014356 0.000000 0.000403 0.000000
# 4 0.000000 0.000000 0.000000 -0.020231 0.000000 -0.046541
# 5 -0.002090 0.007642 0.000403 0.000000 0.063628 0.000000
# 6 0.000000 0.000000 0.000000 -0.046541 0.000000 -0.000364
#
#
# Mechanical properties :
#
#
# Convention : Reuss Voigt Hill
#
# Bulk Modulus (GPa) = 40.82570 48.21796 44.52183
# Shear Modulus (GPa) = 43.42128 18.40159 30.91143
#
# Velocity S-wave (km/s) = 4.85850 3.16285 4.09931
# Velocity P-wave (km/s) = 7.32580 6.28894 6.82709
#
# Compressibility (1/GPa) = 0.02449437
#
# Stress axis : x y z
#
# Youngs Moduli (GPa) = 49.19677 104.81170 69.65520
#
# Poissons Ratio (x) = 0.39310 0.26108
# Poissons Ratio (y) = 0.18452 0.16481
# Poissons Ratio (z) = 0.18440 0.24799
#
# Static dielectric constant tensor:
#      x y z
#    x 1.664340 0.000000 0.053480 
#    y 0.000000 1.784740 0.000000 
#    z 0.053480 0.000000 1.679280 
# 
# From -- ./inp_files/101368.got.cif
#   From: 2010.05.17/outbox.cif.g08.bks.cpg/sg15_51_cif.got.tgz:101368.got - 2010.06.03 18:47:42.
