data_PCOD9263712
_publ_section_title
;
Structure prediction by ZEFSAII (Michael W. Deem and Ramdas Pophale) SiO2 
 PCOD9263712
Probable space group: C 2/C
;
_chemical_formula_sum "Si O2"
_cell_formula_units_Z 48
_cell_length_a 20.427798
_cell_length_b 6.940759
_cell_length_c 26.056113
_cell_angle_alpha 90.000000
_cell_angle_beta 29.554033
_cell_angle_gamma 90.000000
_cell_volume 1822.216928
_symmetry_space_group_name_H-M "C 2/C"
_symmetry_group_IT_number 15
_symmetry_cell_setting 'monoclinic'
loop_
_space_group_symop_operation_xyz
x,y,z
-x,y,1/2-z
-x,-y,-z
x,-y,1/2+z
1/2+x,1/2+y,z
1/2-x,1/2+y,1/2-z
1/2-x,1/2-y,-z
1/2+x,1/2-y,1/2+z
loop_
_atom_site_type_symbol
_atom_site_label
_atom_site_fract_x
_atom_site_fract_y
_atom_site_fract_z
Si Si1 0.657759 0.489395 0.040064
Si Si2 0.918144 0.459101 0.905424
Si Si3 0.119875 0.015992 0.379629
Si Si4 0.587430 0.965081 0.391055
Si Si5 0.129168 0.964284 0.266368
Si Si6 0.673258 0.070083 0.179435
O O1 0.617060 0.266832 0.077430
O O2 0.509642 0.579404 0.148294
O O3 0.773227 0.554457 0.000399
O O4 0.736115 0.481992 0.931547
O O5 0.994458 0.489855 0.906082
O O6 0.022744 0.500774 0.788673
O O7 0.118299 0.238757 0.364778
O O8 0.251164 0.984706 0.322624
O O9 0.095818 0.884021 0.346786
O O10 0.000000 0.000000 0.500000
O O11 0.729340 0.053619 0.313084
O O12 0.500000 0.000000 0.500000
O O13 0.161417 0.801777 0.201251
#
# Coordination Sequence:
#
# PCOD9263712 Si02
#       6
#     8   8   8   8   8   8
#     4  10  20  36  60  88 123 164 207 258 314 381
#     4  10  20  36  57  90 123 160 207 259 313 372
#     4  11  21  36  62  90 124 165 208 263 318 376
#     4  11  24  39  61  92 127 162 214 268 316 381
#     4  10  21  36  58  91 121 161 209 261 318 373
#     4  10  19  34  59  87 120 159 208 255 310 377
#
# _framework density 26.341539000000001
#
# number of rings (size 3 to 8) (size 9 to 14) (size 15 to 20)
#    0.000    1.667    3.333    2.500    2.333    0.000 
#    0.000    3.333    0.000    0.000    0.000    2.333 
#    0.000    0.000    0.000    0.000    0.000    0.000 
#
# Total GULP energy -133824.988132 kJ/mol
# GULP energy per Si atom -5576.041172 kJ/mol
# Density = 2.628158 g / cm^3
# Si number density = 26.341539 Si / 1000 Ang^3
#
#
#
# Elastic Constant Matrix: (Units=GPa)
#
#
# Indices 1 2 3 4 5 6 
#
# 1 153.4885 17.5071 98.5894 0.0144 -42.3331 -0.0562
# 2 17.5071 82.8242 27.5274 0.0208 -7.4633 -0.0392
# 3 98.5894 27.5274 195.8648 -0.0051 -42.9763 0.0206
# 4 0.0144 0.0208 -0.0051 20.4799 -0.0021 -3.4857
# 5 -42.3331 -7.4633 -42.9763 -0.0021 70.5290 0.0185
# 6 -0.0562 -0.0392 0.0206 -3.4857 0.0185 19.6495
#
#
#
# Elastic Compliance Matrix: (Units=1/GPa)
#
#
# Indices 1 2 3 4 5 6 
#
# 1 0.010339 -0.000415 -0.004379 -0.000003 0.003493 0.000030
# 2 -0.000415 0.012687 -0.001540 -0.000009 0.000155 0.000024
# 3 -0.004379 -0.001540 0.007981 0.000003 0.002072 -0.000025
# 4 -0.000003 -0.000009 0.000003 0.050349 -0.000002 0.008932
# 5 0.003493 0.000155 0.002072 -0.000002 0.017554 -0.000009
# 6 0.000030 0.000024 -0.000025 0.008932 -0.000009 0.052476
#
#
# Mechanical properties :
#
#
# Convention : Reuss Voigt Hill
#
# Bulk Modulus (GPa) = 54.53170 79.93613 67.23391
# Shear Modulus (GPa) = 29.38273 41.36860 35.37566
#
# Velocity S-wave (km/s) = 3.34346 3.96721 3.66862
# Velocity P-wave (km/s) = 5.97091 7.16917 6.59730
#
# Compressibility (1/GPa) = 0.01833796
#
# Stress axis : x y z
#
# Youngs Moduli (GPa) = 96.72221 78.81846 125.29897
#
# Poissons Ratio (x) = 0.03272 0.54872
# Poissons Ratio (y) = 0.04015 0.19298
# Poissons Ratio (z) = 0.42358 0.12140
#
# Static dielectric constant tensor:
#      x y z
#    x 2.153260 -0.000010 -0.056130 
#    y -0.000010 2.291880 0.000000 
#    z -0.056130 0.000000 2.126130 
# 
# From -- ./inp_files/257110.got.cif
#   From: 2010.05.17/outbox.cif.g08.bks.cpg/sg15_129_cif.got.tgz:257110.got - 2010.06.03 18:47:42.
