data_PCOD9263239
_publ_section_title
;
Structure prediction by ZEFSAII (Michael W. Deem and Ramdas Pophale) SiO2 
 PCOD9263239
Probable space group: C 2/C
;
_chemical_formula_sum "Si O2"
_cell_formula_units_Z 44
_cell_length_a 6.563861
_cell_length_b 14.226702
_cell_length_c 22.452812
_cell_angle_alpha 90.000000
_cell_angle_beta 58.828207
_cell_angle_gamma 90.000000
_cell_volume 1793.968708
_symmetry_space_group_name_H-M "C 2/C"
_symmetry_group_IT_number 15
_symmetry_cell_setting 'monoclinic'
loop_
_space_group_symop_operation_xyz
x,y,z
-x,y,1/2-z
-x,-y,-z
x,-y,1/2+z
1/2+x,1/2+y,z
1/2-x,1/2+y,1/2-z
1/2-x,1/2-y,-z
1/2+x,1/2-y,1/2+z
loop_
_atom_site_type_symbol
_atom_site_label
_atom_site_fract_x
_atom_site_fract_y
_atom_site_fract_z
Si Si1 0.471608 0.538642 0.858185
Si Si2 0.279825 0.790195 0.061192
Si Si3 0.117952 0.554858 0.800241
Si Si4 0.528918 0.148060 0.343990
Si Si5 0.152733 0.592741 0.459999
Si Si6 0.500000 0.232141 0.750000
O O1 0.423613 0.629509 0.904845
O O2 0.265888 0.552290 0.838893
O O3 0.701227 0.542225 0.782427
O O4 0.414737 0.448943 0.908208
O O5 0.198560 0.715930 0.122880
O O6 0.250000 0.750000 0.000000
O O7 0.546933 0.832614 0.022823
O O8 0.983847 0.454996 0.824568
O O9 0.006395 0.657552 0.804526
O O10 0.585211 0.130590 0.405065
O O11 0.764703 0.201968 0.283800
O O12 0.000000 0.500000 0.500000
#
# Coordination Sequence:
#
# PCOD9263239 Si02
#       6
#     8   8   8   8   8   4
#     4   9  16  34  53  81 112 145 196 239 284 344
#     4   9  16  29  55  84 107 149 192 229 286 353
#     4  10  21  35  57  83 117 150 194 250 287 346
#     4  10  19  34  54  81 114 147 193 236 292 351
#     4   8  15  28  57  82 103 148 192 230 285 344
#     4  12  22  38  58  86 120 156 192 244 300 348
#
# _framework density 24.526624000000002
#
# number of rings (size 3 to 8) (size 9 to 14) (size 15 to 20)
#    0.000    2.545    1.818    2.182    0.000    0.000 
#    3.273    0.000    0.000   34.909    0.000    0.000 
#    0.000    0.000    0.000    0.000    0.000    0.000 
#
# Total GULP energy -122519.980699 kJ/mol
# GULP energy per Si atom -5569.090032 kJ/mol
# Density = 2.447080 g / cm^3
# Si number density = 24.526624 Si / 1000 Ang^3
#
#
#
# Elastic Constant Matrix: (Units=GPa)
#
#
# Indices 1 2 3 4 5 6 
#
# 1 39.9149 21.1219 11.8910 -0.0003 0.4323 0.0000
# 2 21.1219 106.2703 39.0009 -0.0003 -1.2796 0.0001
# 3 11.8910 39.0009 132.8877 -0.0003 -21.3257 0.0000
# 4 -0.0003 -0.0003 -0.0003 36.7703 0.0004 -5.3136
# 5 0.4323 -1.2796 -21.3257 0.0004 12.4137 -0.0001
# 6 0.0000 0.0001 0.0000 -5.3136 -0.0001 25.6549
#
#
#
# Elastic Compliance Matrix: (Units=1/GPa)
#
#
# Indices 1 2 3 4 5 6 
#
# 1 0.028294 -0.005020 -0.001794 0.000000 -0.004585 0.000000
# 2 -0.005020 0.011752 -0.003835 0.000000 -0.005201 0.000000
# 3 -0.001794 -0.003835 0.012091 0.000000 0.020439 0.000000
# 4 0.000000 0.000000 0.000000 0.028035 -0.000001 0.005807
# 5 -0.004585 -0.005201 0.020439 -0.000001 0.115291 0.000000
# 6 0.000000 0.000000 0.000000 0.005807 0.000000 0.040182
#
#
# Mechanical properties :
#
#
# Convention : Reuss Voigt Hill
#
# Bulk Modulus (GPa) = 32.42632 47.01117 39.71875
# Shear Modulus (GPa) = 18.71090 28.77173 23.74132
#
# Velocity S-wave (km/s) = 2.76503 3.42874 3.11462
# Velocity P-wave (km/s) = 4.84184 5.90627 5.40035
#
# Compressibility (1/GPa) = 0.03083914
#
# Stress axis : x y z
#
# Youngs Moduli (GPa) = 35.34307 85.08837 82.70545
#
# Poissons Ratio (x) = 0.42718 0.14839
# Poissons Ratio (y) = 0.17744 0.31715
# Poissons Ratio (z) = 0.06341 0.32629
#
# Static dielectric constant tensor:
#      x y z
#    x 1.904440 0.000000 -0.008500 
#    y 0.000000 2.058360 0.000000 
#    z -0.008500 0.000000 1.939190 
# 
# From -- ./inp_files/230647.got.cif
#   From: 2010.05.17/outbox.cif.g08.bks.cpg/sg15_116_cif.got.tgz:230647.got - 2010.06.03 18:47:42.
