data_PCOD9263565
_publ_section_title
;
Structure prediction by ZEFSAII (Michael W. Deem and Ramdas Pophale) SiO2 
 PCOD9263565
Probable space group: C 2/C
;
_chemical_formula_sum "Si O2"
_cell_formula_units_Z 40
_cell_length_a 18.105437
_cell_length_b 11.350265
_cell_length_c 9.526731
_cell_angle_alpha 90.000000
_cell_angle_beta 129.976910
_cell_angle_gamma 90.000000
_cell_volume 1500.236338
_symmetry_space_group_name_H-M "C 2/C"
_symmetry_group_IT_number 15
_symmetry_cell_setting 'monoclinic'
loop_
_space_group_symop_operation_xyz
x,y,z
-x,y,1/2-z
-x,-y,-z
x,-y,1/2+z
1/2+x,1/2+y,z
1/2-x,1/2+y,1/2-z
1/2-x,1/2-y,-z
1/2+x,1/2-y,1/2+z
loop_
_atom_site_type_symbol
_atom_site_label
_atom_site_fract_x
_atom_site_fract_y
_atom_site_fract_z
Si Si1 0.156646 0.838012 0.202172
Si Si2 0.843560 0.353251 0.007850
Si Si3 0.367604 0.783909 0.559490
Si Si4 0.537417 0.840849 0.090236
Si Si5 0.374894 0.599016 0.343244
O O1 0.263869 0.839900 0.399930
O O2 0.111604 0.741324 0.253862
O O3 0.103895 0.961995 0.141947
O O4 0.263948 0.605886 0.155535
O O5 0.875393 0.385484 0.203555
O O6 0.938210 0.387899 0.032123
O O7 0.836544 0.216428 0.944992
O O8 0.436106 0.856059 0.539589
O O9 0.369252 0.651820 0.494075
O O10 0.554776 0.698087 0.137853
#
# Coordination Sequence:
#
# PCOD9263565 Si02
#       5
#     8   8   8   8   8
#     4  10  19  34  58  80 115 144 186 227 281 333
#     4  10  20  36  57  81 113 145 180 239 270 327
#     4   8  20  35  50  84 111 145 182 231 273 326
#     4   9  20  36  55  82 110 141 191 223 281 317
#     4   9  20  33  58  80 109 151 182 222 283 327
#
# _framework density 26.662466999999999
#
# number of rings (size 3 to 8) (size 9 to 14) (size 15 to 20)
#    1.200    1.600    0.000    0.600    2.800    1.600 
#    0.000    1.000    0.000    4.800    0.000    0.000 
#    0.000    0.000    0.000    0.000    0.000    0.000 
#
# Total GULP energy -111462.185401 kJ/mol
# GULP energy per Si atom -5573.109270 kJ/mol
# Density = 2.660178 g / cm^3
# Si number density = 26.662467 Si / 1000 Ang^3
#
#
#
# Elastic Constant Matrix: (Units=GPa)
#
#
# Indices 1 2 3 4 5 6 
#
# 1 125.3576 9.8021 32.8984 0.0000 15.0505 0.0000
# 2 9.8021 123.9432 24.4494 0.0000 6.5675 0.0000
# 3 32.8984 24.4494 81.9010 0.0000 -4.1656 0.0000
# 4 0.0000 0.0000 0.0000 -0.3797 0.0000 5.3729
# 5 15.0505 6.5675 -4.1656 0.0000 57.0205 0.0000
# 6 0.0000 0.0000 0.0000 5.3729 0.0000 0.6323
#
#
#
# Elastic Compliance Matrix: (Units=1/GPa)
#
#
# Indices 1 2 3 4 5 6 
#
# 1 0.009331 0.000187 -0.003945 0.000000 -0.002773 0.000000
# 2 0.000187 0.008656 -0.002723 0.000000 -0.001245 0.000000
# 3 -0.003945 -0.002723 0.014731 0.000000 0.002431 0.000000
# 4 0.000000 0.000000 0.000000 -0.021721 0.000000 0.184585
# 5 -0.002773 -0.001245 0.002431 0.000000 0.018590 0.000000
# 6 0.000000 0.000000 0.000000 0.184585 0.000000 0.013043
#
#
# Mechanical properties :
#
#
# Convention : Reuss Voigt Hill
#
# Bulk Modulus (GPa) = 50.61431 51.72240 51.16835
# Shear Modulus (GPa) = 80.41527 29.05809 54.73668
#
# Velocity S-wave (km/s) = 5.49781 3.30487 4.53586
# Velocity P-wave (km/s) = 7.70233 5.83129 6.83117
#
# Compressibility (1/GPa) = 0.01975726
#
# Stress axis : x y z
#
# Youngs Moduli (GPa) = 107.17306 115.52041 67.88455
#
# Poissons Ratio (x) = -0.02162 0.26780
# Poissons Ratio (y) = -0.02006 0.18483
# Poissons Ratio (z) = 0.42279 0.31453
#
# Static dielectric constant tensor:
#      x y z
#    x 2.185060 0.000000 0.111210 
#    y 0.000000 2.091050 0.000000 
#    z 0.111210 0.000000 2.090840 
# 
# From -- ./inp_files/118229.got.cif
#   From: 2010.05.17/outbox.cif.g08.bks.cpg/sg15_60_cif.got.tgz:118229.got - 2010.06.03 18:47:42.
