data_PCOD9263366
_publ_section_title
;
Structure prediction by ZEFSAII (Michael W. Deem and Ramdas Pophale) SiO2 
 PCOD9263366
Probable space group: C 2/C
;
_chemical_formula_sum "Si O2"
_cell_formula_units_Z 48
_cell_length_a 25.267173
_cell_length_b 8.905255
_cell_length_c 16.015078
_cell_angle_alpha 90.000000
_cell_angle_beta 131.906950
_cell_angle_gamma 90.000000
_cell_volume 2681.881319
_symmetry_space_group_name_H-M "C 2/C"
_symmetry_group_IT_number 15
_symmetry_cell_setting 'monoclinic'
loop_
_space_group_symop_operation_xyz
x,y,z
-x,y,1/2-z
-x,-y,-z
x,-y,1/2+z
1/2+x,1/2+y,z
1/2-x,1/2+y,1/2-z
1/2-x,1/2-y,-z
1/2+x,1/2-y,1/2+z
loop_
_atom_site_type_symbol
_atom_site_label
_atom_site_fract_x
_atom_site_fract_y
_atom_site_fract_z
Si Si1 0.086959 0.813875 0.495606
Si Si2 0.572153 0.820266 0.160619
Si Si3 0.322901 0.171283 0.050526
Si Si4 0.827924 0.682299 0.576541
Si Si5 0.539041 0.121123 0.206543
Si Si6 0.049352 0.126904 0.382104
O O1 0.094025 0.750956 0.596115
O O2 0.149574 0.746903 0.504957
O O3 0.014057 0.744037 0.383376
O O4 0.078756 0.989698 0.468118
O O5 0.635899 0.809774 0.294309
O O6 0.504190 0.727953 0.121050
O O7 0.550431 0.994814 0.148392
O O8 0.386553 0.190752 0.185122
O O9 0.319917 0.990759 0.039791
O O10 0.250000 0.250000 0.000000
O O11 0.750000 0.750000 0.500000
O O12 0.883828 0.774868 0.579153
O O13 0.500000 0.055097 0.250000
O O14 0.000000 0.077486 0.250000
#
# Coordination Sequence:
#
# PCOD9263366 Si02
#       6
#     8   8   8   8   8   8
#     4  11  20  33  55  84 107 132 179 233 267 306
#     4  10  20  35  54  80 109 137 175 225 270 314
#     4  10  20  36  56  78 106 143 182 218 265 329
#     4  10  21  38  56  74 106 150 182 211 267 334
#     4   9  18  34  56  79 106 143 177 212 269 327
#     4  10  19  34  56  79 108 145 180 215 266 328
#
# _framework density 17.897884000000001
#
# number of rings (size 3 to 8) (size 9 to 14) (size 15 to 20)
#    0.000    2.000    0.000    7.000    0.000    1.333 
#    0.000    6.667    0.000    0.000    0.000    0.000 
#    0.000    0.000    0.000    0.000    0.000    0.000 
#
# Total GULP energy -133844.422223 kJ/mol
# GULP energy per Si atom -5576.850926 kJ/mol
# Density = 1.785715 g / cm^3
# Si number density = 17.897884 Si / 1000 Ang^3
#
#
#
# Elastic Constant Matrix: (Units=GPa)
#
#
# Indices 1 2 3 4 5 6 
#
# 1 123.4732 56.1338 61.2446 0.0000 16.1093 0.0000
# 2 56.1338 96.8157 43.6724 0.0000 8.3626 0.0000
# 3 61.2446 43.6724 44.2852 0.0000 18.0416 0.0000
# 4 0.0000 0.0000 0.0000 20.1008 0.0000 4.6013
# 5 16.1093 8.3626 18.0416 0.0000 35.2740 0.0000
# 6 0.0000 0.0000 0.0000 4.6013 0.0000 25.2534
#
#
#
# Elastic Compliance Matrix: (Units=1/GPa)
#
#
# Indices 1 2 3 4 5 6 
#
# 1 0.028624 0.004104 -0.047890 0.000000 0.010449 0.000000
# 2 0.004104 0.020365 -0.029090 0.000000 0.008176 0.000000
# 3 -0.047890 -0.029090 0.133621 0.000000 -0.039576 0.000000
# 4 0.000000 0.000000 0.000000 0.051915 0.000000 -0.009459
# 5 0.010449 0.008176 -0.039576 0.000000 0.041881 0.000000
# 6 0.000000 0.000000 0.000000 -0.009459 0.000000 0.041322
#
#
# Mechanical properties :
#
#
# Convention : Reuss Voigt Hill
#
# Bulk Modulus (GPa) = 27.13069 65.18618 46.15844
# Shear Modulus (GPa) = 10.50934 23.02719 16.76827
#
# Velocity S-wave (km/s) = 2.42582 3.59079 3.06418
# Velocity P-wave (km/s) = 4.79975 7.32748 6.19393
#
# Compressibility (1/GPa) = 0.03685863
#
# Stress axis : x y z
#
# Youngs Moduli (GPa) = 34.93557 49.10268 7.48384
#
# Poissons Ratio (x) = -0.20150 0.35840
# Poissons Ratio (y) = -0.14337 0.21771
# Poissons Ratio (z) = 1.67306 1.42840
#
# Static dielectric constant tensor:
#      x y z
#    x 1.602050 0.000000 -0.019950 
#    y 0.000000 1.658880 0.000000 
#    z -0.019950 0.000000 1.610760 
# 
# From -- ./inp_files/218375.got.cif
#   From: 2010.05.17/outbox.cif.g08.bks.cpg/sg15_110_cif.got.tgz:218375.got - 2010.06.03 18:47:42.
