data_PCOD9263840
_publ_section_title
;
Structure prediction by ZEFSAII (Michael W. Deem and Ramdas Pophale) SiO2 
 PCOD9263840
Probable space group: C 2/C
;
_chemical_formula_sum "Si O2"
_cell_formula_units_Z 40
_cell_length_a 10.010836
_cell_length_b 10.748213
_cell_length_c 27.821374
_cell_angle_alpha 90.000000
_cell_angle_beta 36.996745
_cell_angle_gamma 90.000000
_cell_volume 1801.422020
_symmetry_space_group_name_H-M "C 2/C"
_symmetry_group_IT_number 15
_symmetry_cell_setting 'monoclinic'
loop_
_space_group_symop_operation_xyz
x,y,z
-x,y,1/2-z
-x,-y,-z
x,-y,1/2+z
1/2+x,1/2+y,z
1/2-x,1/2+y,1/2-z
1/2-x,1/2-y,-z
1/2+x,1/2-y,1/2+z
loop_
_atom_site_type_symbol
_atom_site_label
_atom_site_fract_x
_atom_site_fract_y
_atom_site_fract_z
Si Si1 0.340108 0.683450 0.696153
Si Si2 0.000000 0.864790 0.250000
Si Si3 0.792160 0.924196 0.580493
Si Si4 0.382758 0.064971 0.127469
Si Si5 0.306808 0.170427 0.531562
Si Si6 0.500000 0.991982 0.250000
O O1 0.401033 0.712365 0.733801
O O2 0.297542 0.806097 0.676336
O O3 0.566271 0.615098 0.613008
O O4 0.135279 0.593603 0.748482
O O5 0.799748 0.958456 0.321510
O O6 0.592506 0.961633 0.601549
O O7 0.850704 0.777951 0.557741
O O8 0.691719 0.945726 0.662265
O O9 0.000000 0.000000 0.500000
O O10 0.485619 0.090870 0.045309
O O11 0.250000 0.250000 0.500000
#
# Coordination Sequence:
#
# PCOD9263840 Si02
#       6
#     8   4   8   8   8   4
#     4  10  22  38  62  89 125 162 212 262 313 382
#     4  12  23  41  64  94 130 168 209 265 324 386
#     4  10  19  34  61  90 121 164 212 255 322 380
#     4  10  21  40  61  88 125 170 206 262 328 379
#     4   8  18  37  57  85 121 165 197 270 313 371
#     4  12  19  35  62  94 116 168 215 261 318 386
#
# _framework density 22.20468
#
# number of rings (size 3 to 8) (size 9 to 14) (size 15 to 20)
#    0.000    2.400    2.000    4.200    0.000    4.000 
#    0.000    0.000    0.000    6.000    0.000    0.000 
#    0.000    0.000    0.000    0.000    0.000    0.000 
#
# Total GULP energy -111462.372559 kJ/mol
# GULP energy per Si atom -5573.118628 kJ/mol
# Density = 2.215414 g / cm^3
# Si number density = 22.204680 Si / 1000 Ang^3
#
#
#
# Elastic Constant Matrix: (Units=GPa)
#
#
# Indices 1 2 3 4 5 6 
#
# 1 65.6330 11.0064 18.7247 0.0000 14.3555 0.0000
# 2 11.0064 48.2802 39.6783 -0.0001 0.7687 0.0001
# 3 18.7247 39.6783 123.3437 -0.0015 4.5715 0.0017
# 4 0.0000 -0.0001 -0.0015 44.0711 0.0003 1.3961
# 5 14.3555 0.7687 4.5715 0.0003 43.2153 0.0000
# 6 0.0000 0.0001 0.0017 1.3961 0.0000 23.1688
#
#
#
# Elastic Compliance Matrix: (Units=1/GPa)
#
#
# Indices 1 2 3 4 5 6 
#
# 1 0.017334 -0.002541 -0.001608 0.000000 -0.005543 0.000000
# 2 -0.002541 0.028538 -0.008842 0.000000 0.001272 0.000001
# 3 -0.001608 -0.008842 0.011214 0.000000 -0.000495 -0.000001
# 4 0.000000 0.000000 0.000000 0.022734 0.000000 -0.001370
# 5 -0.005543 0.001272 -0.000495 0.000000 0.025011 0.000000
# 6 0.000000 0.000001 -0.000001 -0.001370 0.000000 0.043244
#
#
# Mechanical properties :
#
#
# Convention : Reuss Voigt Hill
#
# Bulk Modulus (GPa) = 32.15153 41.78618 36.96885
# Shear Modulus (GPa) = 27.11126 33.28087 30.19607
#
# Velocity S-wave (km/s) = 3.49803 3.87566 3.69168
# Velocity P-wave (km/s) = 5.55212 6.23596 5.90395
#
# Compressibility (1/GPa) = 0.03110272
#
# Stress axis : x y z
#
# Youngs Moduli (GPa) = 57.69140 35.04110 89.17271
#
# Poissons Ratio (x) = 0.08905 0.14343
# Poissons Ratio (y) = 0.14662 0.78843
# Poissons Ratio (z) = 0.09279 0.30982
#
# Static dielectric constant tensor:
#      x y z
#    x 1.887040 0.000000 0.148850 
#    y 0.000000 1.883920 0.000000 
#    z 0.148850 0.000000 2.016070 
# 
# From -- ./inp_files/310744.got.cif
#   From: 2010.05.17/outbox.cif.g08.bks.cpg/sg15_156_cif.got.tgz:310744.got - 2010.06.03 18:47:42.
