data_PCOD9263082
_publ_section_title
;
Structure prediction by ZEFSAII (Michael W. Deem and Ramdas Pophale) SiO2 
 PCOD9263082
Probable space group: C 2/C
;
_chemical_formula_sum "Si O2"
_cell_formula_units_Z 56
_cell_length_a 18.790909
_cell_length_b 16.381643
_cell_length_c 8.337537
_cell_angle_alpha 90.000000
_cell_angle_beta 109.411733
_cell_angle_gamma 90.000000
_cell_volume 2420.616095
_symmetry_space_group_name_H-M "C 2/C"
_symmetry_group_IT_number 15
_symmetry_cell_setting 'monoclinic'
loop_
_space_group_symop_operation_xyz
x,y,z
-x,y,1/2-z
-x,-y,-z
x,-y,1/2+z
1/2+x,1/2+y,z
1/2-x,1/2+y,1/2-z
1/2-x,1/2-y,-z
1/2+x,1/2-y,1/2+z
loop_
_atom_site_type_symbol
_atom_site_label
_atom_site_fract_x
_atom_site_fract_y
_atom_site_fract_z
Si Si1 0.362136 0.475846 0.621851
Si Si2 0.065414 0.396442 0.408790
Si Si3 0.786812 0.431882 0.391016
Si Si4 0.691494 0.797200 0.342528
Si Si5 0.563206 0.327477 0.655510
Si Si6 0.612833 0.948149 0.757994
Si Si7 0.452425 0.576774 0.899383
O O1 0.280681 0.514483 0.584947
O O2 0.385230 0.407635 0.769959
O O3 0.417806 0.551774 0.704073
O O4 0.381514 0.429848 0.471120
O O5 0.143108 0.352256 0.428027
O O6 0.058171 0.400920 0.594604
O O7 0.073069 0.486658 0.342273
O O8 0.000000 0.357997 0.250000
O O9 0.770717 0.355806 0.261896
O O10 0.835257 0.399408 0.579039
O O11 0.834581 0.495614 0.317915
O O12 0.750000 0.750000 0.500000
O O13 0.626106 0.742627 0.208028
O O14 0.500000 0.323302 0.750000
O O15 0.505159 0.344796 0.465927
O O16 0.500000 0.500000 0.000000
#
# Coordination Sequence:
#
# PCOD9263082 Si02
#       7
#     8   8   8   8   8   8   8
#     4  10  19  33  64  91 119 160 212 266 310 376
#     4  10  20  39  65  91 120 161 215 266 321 381
#     4  10  21  37  61  96 131 165 215 263 336 385
#     4  11  25  39  60  88 129 178 211 255 333 404
#     4   9  20  36  61  87 123 164 214 259 315 381
#     4   9  20  36  63  95 123 157 214 275 311 379
#     4   9  18  34  58  89 117 155 206 262 313 362
#
# _framework density 23.134605000000001
#
# number of rings (size 3 to 8) (size 9 to 14) (size 15 to 20)
#    0.000    2.286    0.000    3.000   10.000    0.000 
#    0.000    0.714    0.000    3.429    0.000    0.000 
#    0.000    0.000    0.000    0.000    0.000    0.000 
#
# Total GULP energy -156020.615464 kJ/mol
# GULP energy per Si atom -5572.164838 kJ/mol
# Density = 2.308195 g / cm^3
# Si number density = 23.134605 Si / 1000 Ang^3
#
#
#
# Elastic Constant Matrix: (Units=GPa)
#
#
# Indices 1 2 3 4 5 6 
#
# 1 76.4924 24.8786 41.5359 0.0000 19.4962 0.0000
# 2 24.8786 68.7664 37.1353 0.0000 13.0357 0.0000
# 3 41.5359 37.1353 155.9888 0.0000 5.1109 0.0000
# 4 0.0000 0.0000 0.0000 28.0712 0.0000 13.8900
# 5 19.4962 13.0357 5.1109 0.0000 31.4826 0.0000
# 6 0.0000 0.0000 0.0000 13.8900 0.0000 36.6724
#
#
#
# Elastic Compliance Matrix: (Units=1/GPa)
#
#
# Indices 1 2 3 4 5 6 
#
# 1 0.018610 -0.002733 -0.003985 0.000000 -0.009746 0.000000
# 2 -0.002733 0.018431 -0.003484 0.000000 -0.005373 0.000000
# 3 -0.003985 -0.003484 0.008217 0.000000 0.002577 0.000000
# 4 0.000000 0.000000 0.000000 0.043840 0.000000 -0.016605
# 5 -0.009746 -0.005373 0.002577 0.000000 0.039606 0.000000
# 6 0.000000 0.000000 0.000000 -0.016605 0.000000 0.033558
#
#
# Mechanical properties :
#
#
# Convention : Reuss Voigt Hill
#
# Bulk Modulus (GPa) = 40.23662 56.48303 48.35983
# Shear Modulus (GPa) = 26.18476 32.42509 29.30492
#
# Velocity S-wave (km/s) = 3.36794 3.74783 3.56295
# Velocity P-wave (km/s) = 5.70563 6.57239 6.15429
#
# Compressibility (1/GPa) = 0.02485298
#
# Stress axis : x y z
#
# Youngs Moduli (GPa) = 53.73358 54.25709 121.70035
#
# Poissons Ratio (x) = 0.14829 0.48503
# Poissons Ratio (y) = 0.14686 0.42399
# Poissons Ratio (z) = 0.21415 0.18902
#
# Static dielectric constant tensor:
#      x y z
#    x 1.974000 0.000000 0.011120 
#    y 0.000000 1.885420 0.000000 
#    z 0.011120 0.000000 1.987690 
# 
# From -- ./inp_files/56732.got.cif
#   From: 2010.05.17/outbox.cif.g08.bks.cpg/sg15_29_cif.got.tgz:56732.got - 2010.06.03 18:47:42.
