data_PCOD9263852
_publ_section_title
;
Structure prediction by ZEFSAII (Michael W. Deem and Ramdas Pophale) SiO2 
 PCOD9263852
Probable space group: C 2/C
;
_chemical_formula_sum "Si O2"
_cell_formula_units_Z 48
_cell_length_a 7.773857
_cell_length_b 14.924483
_cell_length_c 15.963889
_cell_angle_alpha 90.000000
_cell_angle_beta 82.507444
_cell_angle_gamma 90.000000
_cell_volume 1836.329172
_symmetry_space_group_name_H-M "C 2/C"
_symmetry_group_IT_number 15
_symmetry_cell_setting 'monoclinic'
loop_
_space_group_symop_operation_xyz
x,y,z
-x,y,1/2-z
-x,-y,-z
x,-y,1/2+z
1/2+x,1/2+y,z
1/2-x,1/2+y,1/2-z
1/2-x,1/2-y,-z
1/2+x,1/2-y,1/2+z
loop_
_atom_site_type_symbol
_atom_site_label
_atom_site_fract_x
_atom_site_fract_y
_atom_site_fract_z
Si Si1 0.427559 0.024253 0.095743
Si Si2 0.754135 0.307850 0.369162
Si Si3 0.063379 0.137586 0.152667
Si Si4 0.933384 0.695627 0.350376
Si Si5 0.248142 0.858839 0.172436
Si Si6 0.939912 0.031590 0.594322
O O1 0.243670 0.079893 0.124424
O O2 0.565356 0.093863 0.123346
O O3 0.397348 0.929012 0.142347
O O4 0.500000 0.000000 0.000000
O O5 0.898401 0.236327 0.386228
O O6 0.580936 0.248187 0.392385
O O7 0.758309 0.337184 0.270548
O O8 0.718502 0.402039 0.414049
O O9 0.000000 0.159802 0.250000
O O10 0.920298 0.063709 0.139163
O O11 0.922997 0.911276 0.355680
O O12 0.768548 0.760279 0.367117
O O13 0.000000 0.698083 0.250000
O O14 0.000000 0.000000 0.500000
#
# Coordination Sequence:
#
# PCOD9263852 Si02
#       6
#     8   8   8   8   8   8
#     4  10  20  35  59  91 126 159 199 262 325 383
#     4   9  18  37  64  88 117 165 221 267 309 375
#     4  10  21  41  65  89 121 169 224 267 313 385
#     4   8  16  34  60  86 115 157 208 257 306 372
#     4   9  18  37  60  83 118 166 214 258 311 378
#     4  10  19  34  61  93 129 166 200 262 334 390
#
# _framework density 26.139104
#
# number of rings (size 3 to 8) (size 9 to 14) (size 15 to 20)
#    0.000    2.667    0.000    3.500    0.000    2.000 
#    0.000   22.500    0.000    0.000    0.000    0.000 
#    0.000    0.000    0.000    0.000    0.000    0.000 
#
# Total GULP energy -133765.589056 kJ/mol
# GULP energy per Si atom -5573.566211 kJ/mol
# Density = 2.607961 g / cm^3
# Si number density = 26.139104 Si / 1000 Ang^3
#
#
#
# Elastic Constant Matrix: (Units=GPa)
#
#
# Indices 1 2 3 4 5 6 
#
# 1 138.2591 53.9436 2.9775 0.0000 -23.4971 0.0000
# 2 53.9436 269.2177 22.9324 0.0000 -16.1930 0.0000
# 3 2.9775 22.9324 40.3132 0.0000 -11.4146 0.0000
# 4 0.0000 0.0000 0.0000 -82.5208 0.0000 -30.7718
# 5 -23.4971 -16.1930 -11.4146 0.0000 23.1074 0.0000
# 6 0.0000 0.0000 0.0000 -30.7718 0.0000 34.7387
#
#
#
# Elastic Compliance Matrix: (Units=1/GPa)
#
#
# Indices 1 2 3 4 5 6 
#
# 1 0.009481 -0.001553 0.003029 0.000000 0.010049 0.000000
# 2 -0.001553 0.004232 -0.002209 0.000000 0.000295 0.000000
# 3 0.003029 -0.002209 0.030545 0.000000 0.016620 0.000000
# 4 0.000000 0.000000 0.000000 -0.009109 0.000000 -0.008069
# 5 0.010049 0.000295 0.016620 0.000000 0.061911 0.000000
# 6 0.000000 0.000000 0.000000 -0.008069 0.000000 0.021639
#
#
# Mechanical properties :
#
#
# Convention : Reuss Voigt Hill
#
# Bulk Modulus (GPa) = 23.36983 67.49967 45.43475
# Shear Modulus (GPa) = 37.19434 19.59416 28.39425
#
# Velocity S-wave (km/s) = 3.77628 2.74087 3.29944
# Velocity P-wave (km/s) = 5.28901 5.99131 5.65108
#
# Compressibility (1/GPa) = 0.04279021
#
# Stress axis : x y z
#
# Youngs Moduli (GPa) = 105.46916 236.31688 32.73896
#
# Poissons Ratio (x) = 0.36709 -0.09916
# Poissons Ratio (y) = 0.16383 0.07232
# Poissons Ratio (z) = -0.31943 0.52203
#
# Static dielectric constant tensor:
#      x y z
#    x 1.996710 0.000000 -0.135660 
#    y 0.000000 1.988150 0.000000 
#    z -0.135660 0.000000 1.946960 
# 
# From -- ./inp_files/236849.got.cif
#   From: 2010.05.17/outbox.cif.g08.bks.cpg/sg15_119_cif.got.tgz:236849.got - 2010.06.03 18:47:42.
