data_PCOD9263456
_publ_section_title
;
Structure prediction by ZEFSAII (Michael W. Deem and Ramdas Pophale) SiO2 
 PCOD9263456
Probable space group: C 2/C
;
_chemical_formula_sum "Si O2"
_cell_formula_units_Z 56
_cell_length_a 25.979754
_cell_length_b 20.845459
_cell_length_c 19.356774
_cell_angle_alpha 90.000000
_cell_angle_beta 161.859591
_cell_angle_gamma 90.000000
_cell_volume 3263.801779
_symmetry_space_group_name_H-M "C 2/C"
_symmetry_group_IT_number 15
_symmetry_cell_setting 'monoclinic'
loop_
_space_group_symop_operation_xyz
x,y,z
-x,y,1/2-z
-x,-y,-z
x,-y,1/2+z
1/2+x,1/2+y,z
1/2-x,1/2+y,1/2-z
1/2-x,1/2-y,-z
1/2+x,1/2-y,1/2+z
loop_
_atom_site_type_symbol
_atom_site_label
_atom_site_fract_x
_atom_site_fract_y
_atom_site_fract_z
Si Si1 0.428156 0.985648 0.273106
Si Si2 0.122208 0.619154 0.527893
Si Si3 0.543566 0.627211 0.637639
Si Si4 0.231931 0.942960 0.788372
Si Si5 0.749132 0.454248 0.185694
Si Si6 0.602761 0.507417 0.267764
Si Si7 0.055903 0.251398 0.742998
O O1 0.575785 0.935098 0.446892
O O2 0.365347 0.975223 0.271233
O O3 0.511858 0.056013 0.368874
O O4 0.267073 0.979754 0.020516
O O5 0.285743 0.625364 0.688535
O O6 0.183335 0.606262 0.684594
O O7 0.014889 0.682387 0.377981
O O8 0.387354 0.613138 0.388992
O O9 0.559963 0.568229 0.712825
O O10 0.513460 0.692666 0.639100
O O11 0.142771 0.975867 0.739279
O O12 0.241875 0.991141 0.735826
O O13 0.559352 0.452320 0.917981
O O14 0.000000 0.242865 0.750000
O O15 0.250000 0.250000 0.000000
#
# Coordination Sequence:
#
# PCOD9263456 Si02
#       7
#     8   8   8   8   8   8   8
#     4  11  22  31  58  90 114 138 185 242 288 327
#     4  11  21  39  56  75 118 158 181 229 283 333
#     4  11  21  38  57  77 115 158 188 224 277 341
#     4  10  19  34  57  79 106 152 190 217 283 355
#     4  10  20  36  54  83 112 148 186 230 286 342
#     4  11  19  34  58  84 113 148 181 229 292 341
#     4  12  26  38  57  85 113 153 201 229 265 330
#
# _framework density 17.157905
#
# number of rings (size 3 to 8) (size 9 to 14) (size 15 to 20)
#    0.000    1.143    5.714    4.286    0.000    5.714 
#    0.000    0.000    0.000    0.000    0.000    6.000 
#    0.000    0.000    0.000    0.000    0.000    0.000 
#
# Total GULP energy -156114.532477 kJ/mol
# GULP energy per Si atom -5575.519017 kJ/mol
# Density = 1.711885 g / cm^3
# Si number density = 17.157905 Si / 1000 Ang^3
#
#
#
# Elastic Constant Matrix: (Units=GPa)
#
#
# Indices 1 2 3 4 5 6 
#
# 1 88.7647 45.9229 29.3535 0.0001 13.6961 0.0000
# 2 45.9229 95.9884 60.6705 0.0000 -4.8855 0.0000
# 3 29.3535 60.6705 158.9168 0.0001 3.0335 0.0001
# 4 0.0001 0.0000 0.0001 31.0266 0.0000 -2.5406
# 5 13.6961 -4.8855 3.0335 0.0000 33.9458 0.0000
# 6 0.0000 0.0000 0.0001 -2.5406 0.0000 18.5910
#
#
#
# Elastic Compliance Matrix: (Units=1/GPa)
#
#
# Indices 1 2 3 4 5 6 
#
# 1 0.016918 -0.008738 0.000366 0.000000 -0.008116 0.000000
# 2 -0.008738 0.018451 -0.005558 0.000000 0.006678 0.000000
# 3 0.000366 -0.005558 0.008379 0.000000 -0.001696 0.000000
# 4 0.000000 0.000000 0.000000 0.032595 0.000000 0.004454
# 5 -0.008116 0.006678 -0.001696 0.000000 0.033846 0.000000
# 6 0.000000 0.000000 0.000000 0.004454 0.000000 0.054398
#
#
# Mechanical properties :
#
#
# Convention : Reuss Voigt Hill
#
# Bulk Modulus (GPa) = 62.93890 68.39595 65.66742
# Shear Modulus (GPa) = 25.28533 30.56089 27.92311
#
# Velocity S-wave (km/s) = 3.84302 4.22495 4.03851
# Velocity P-wave (km/s) = 7.51356 7.98433 7.75252
#
# Compressibility (1/GPa) = 0.01588843
#
# Stress axis : x y z
#
# Youngs Moduli (GPa) = 59.10942 54.19714 119.34441
#
# Poissons Ratio (x) = 0.47359 -0.04370
# Poissons Ratio (y) = 0.51652 0.66327
# Poissons Ratio (z) = -0.02164 0.30121
#
# Static dielectric constant tensor:
#      x y z
#    x 1.590420 0.000000 -0.017660 
#    y 0.000000 1.572580 0.000000 
#    z -0.017660 0.000000 1.677860 
# 
# From -- ./inp_files/220201.got.cif
#   From: 2010.05.17/outbox.cif.g08.bks.cpg/sg15_111_cif.got.tgz:220201.got - 2010.06.03 18:47:42.
