data_PCOD9263511
_publ_section_title
;
Structure prediction by ZEFSAII (Michael W. Deem and Ramdas Pophale) SiO2 
 PCOD9263511
Probable space group: C 2/C
;
_chemical_formula_sum "Si O2"
_cell_formula_units_Z 40
_cell_length_a 10.057921
_cell_length_b 12.345499
_cell_length_c 15.281199
_cell_angle_alpha 90.000000
_cell_angle_beta 63.363259
_cell_angle_gamma 90.000000
_cell_volume 1696.083264
_symmetry_space_group_name_H-M "C 2/C"
_symmetry_group_IT_number 15
_symmetry_cell_setting 'monoclinic'
loop_
_space_group_symop_operation_xyz
x,y,z
-x,y,1/2-z
-x,-y,-z
x,-y,1/2+z
1/2+x,1/2+y,z
1/2-x,1/2+y,1/2-z
1/2-x,1/2-y,-z
1/2+x,1/2-y,1/2+z
loop_
_atom_site_type_symbol
_atom_site_label
_atom_site_fract_x
_atom_site_fract_y
_atom_site_fract_z
Si Si1 0.429936 0.722103 0.409153
Si Si2 0.153569 0.713593 0.390987
Si Si3 0.329947 0.503690 0.517759
Si Si4 0.419454 0.654661 0.853158
Si Si5 0.263477 0.861340 0.806947
O O1 0.322859 0.753682 0.360875
O O2 0.433399 0.802477 0.491607
O O3 0.331180 0.620839 0.474512
O O4 0.592790 0.676731 0.344009
O O5 0.166946 0.624552 0.310116
O O6 0.053597 0.805245 0.374808
O O7 0.500000 0.500000 0.500000
O O8 0.313277 0.416628 0.444576
O O9 0.234387 0.463455 0.628396
O O10 0.500000 0.591367 0.750000
O O11 0.341814 0.760148 0.833781
#
# Coordination Sequence:
#
# PCOD9263511 Si02
#       5
#     8   8   8   8   8
#     4  10  21  37  59  82 114 141 190 229 273 324
#     4  10  20  36  56  85 111 149 179 225 281 334
#     4  10  19  34  57  86 107 140 187 238 260 320
#     4  10  20  35  59  83 111 147 188 223 275 332
#     4  10  20  35  60  81 112 148 184 225 277 329
#
# _framework density 23.583748
#
# number of rings (size 3 to 8) (size 9 to 14) (size 15 to 20)
#    0.000    2.000    4.000    1.200    0.000    3.200 
#    0.000    1.000    0.000    4.800    0.000    0.000 
#    0.000    0.000    0.000    0.000    0.000    0.000 
#
# Total GULP energy -111350.620959 kJ/mol
# GULP energy per Si atom -5567.531048 kJ/mol
# Density = 2.353007 g / cm^3
# Si number density = 23.583748 Si / 1000 Ang^3
#
#
#
# Elastic Constant Matrix: (Units=GPa)
#
#
# Indices 1 2 3 4 5 6 
#
# 1 78.9907 6.2973 -16.7857 0.0000 13.7616 0.0000
# 2 6.2973 45.1886 18.2355 0.0000 -3.9200 0.0000
# 3 -16.7857 18.2355 101.6194 0.0000 5.0454 0.0000
# 4 0.0000 0.0000 0.0000 21.6300 0.0000 -9.1518
# 5 13.7616 -3.9200 5.0454 0.0000 26.2241 0.0000
# 6 0.0000 0.0000 0.0000 -9.1518 0.0000 18.6741
#
#
#
# Elastic Compliance Matrix: (Units=1/GPa)
#
#
# Indices 1 2 3 4 5 6 
#
# 1 0.015505 -0.004544 0.003851 0.000000 -0.009557 0.000000
# 2 -0.004544 0.025710 -0.005728 0.000000 0.007330 0.000000
# 3 0.003851 -0.005728 0.011760 0.000000 -0.005140 0.000000
# 4 0.000000 0.000000 0.000000 0.058327 0.000000 0.028585
# 5 -0.009557 0.007330 -0.005140 0.000000 0.045233 0.000000
# 6 0.000000 0.000000 0.000000 0.028585 0.000000 0.067559
#
#
# Mechanical properties :
#
#
# Convention : Reuss Voigt Hill
#
# Bulk Modulus (GPa) = 24.91689 26.81031 25.86360
# Shear Modulus (GPa) = 19.97499 27.84240 23.90870
#
# Velocity S-wave (km/s) = 2.91345 3.43968 3.18744
# Velocity P-wave (km/s) = 4.68036 5.21229 4.95347
#
# Compressibility (1/GPa) = 0.04013342
#
# Stress axis : x y z
#
# Youngs Moduli (GPa) = 64.49401 38.89529 85.03499
#
# Poissons Ratio (x) = 0.17674 -0.32748
# Poissons Ratio (y) = 0.29305 0.48709
# Poissons Ratio (z) = -0.24837 0.22280
#
# Static dielectric constant tensor:
#      x y z
#    x 1.928220 0.000000 0.045470 
#    y 0.000000 1.971400 0.000000 
#    z 0.045470 0.000000 2.036410 
# 
# From -- ./inp_files/142876.got.cif
#   From: 2010.05.17/outbox.cif.g08.bks.cpg/sg15_72_cif.got.tgz:142876.got - 2010.06.03 18:47:42.
