data_PCOD9263130
_publ_section_title
;
Structure prediction by ZEFSAII (Michael W. Deem and Ramdas Pophale) SiO2 
 PCOD9263130
Probable space group: C 2/C
;
_chemical_formula_sum "Si O2"
_cell_formula_units_Z 60
_cell_length_a 26.546480
_cell_length_b 28.003865
_cell_length_c 5.258249
_cell_angle_alpha 90.000000
_cell_angle_beta 123.715091
_cell_angle_gamma 90.000000
_cell_volume 3251.540255
_symmetry_space_group_name_H-M "C 2/C"
_symmetry_group_IT_number 15
_symmetry_cell_setting 'monoclinic'
loop_
_space_group_symop_operation_xyz
x,y,z
-x,y,1/2-z
-x,-y,-z
x,-y,1/2+z
1/2+x,1/2+y,z
1/2-x,1/2+y,1/2-z
1/2-x,1/2-y,-z
1/2+x,1/2-y,1/2+z
loop_
_atom_site_type_symbol
_atom_site_label
_atom_site_fract_x
_atom_site_fract_y
_atom_site_fract_z
Si Si1 0.690079 0.224695 0.714811
Si Si2 0.227304 0.830366 0.366248
Si Si3 0.438290 0.378579 0.196645
Si Si4 0.225985 0.369614 0.500216
Si Si5 0.220038 0.527937 0.157056
Si Si6 0.888592 0.204324 0.231255
Si Si7 0.866384 0.028812 0.582639
Si Si8 0.000000 0.804763 0.750000
O O1 0.715554 0.205743 0.516359
O O2 0.636570 0.260964 0.619366
O O3 0.750000 0.250000 0.000000
O O4 0.680155 0.174593 0.833455
O O5 0.229591 0.852207 0.650218
O O6 0.239559 0.869556 0.176099
O O7 0.165547 0.803956 0.121211
O O8 0.500000 0.399645 0.250000
O O9 0.396719 0.419731 0.190290
O O10 0.460645 0.339661 0.461900
O O11 0.404268 0.347505 0.888843
O O12 0.199092 0.419678 0.510506
O O13 0.202514 0.509416 0.386526
O O14 0.293394 0.532332 0.369608
O O15 0.950510 0.222721 0.278343
O O16 0.884408 0.004234 0.368784
#
# Coordination Sequence:
#
# PCOD9263130 Si02
#       8
#     8   8   8   8   8   8   8   4
#     4   8  19  33  50  82 100 132 168 210 264 300
#     4   9  20  31  55  76 103 129 166 213 258 291
#     4  10  23  38  50  70  94 129 177 221 274 309
#     4  10  19  34  51  82 104 133 171 210 259 303
#     4  10  20  33  50  73 103 136 168 203 256 313
#     4  10  20  36  51  75 101 133 169 214 254 329
#     4  10  23  36  53  71  90 126 173 221 274 305
#     4  10  24  34  54  72  96 138 172 210 280 306
#
# _framework density 18.452794000000001
#
# number of rings (size 3 to 8) (size 9 to 14) (size 15 to 20)
#    0.800    1.600    0.000    1.600    7.467    4.800 
#    0.000    0.000    0.000    0.000    0.000    0.000 
#    0.000    0.000    0.000    1.200    0.000    0.800 
#
# Total GULP energy -167237.096621 kJ/mol
# GULP energy per Si atom -5574.569887 kJ/mol
# Density = 1.841079 g / cm^3
# Si number density = 18.452794 Si / 1000 Ang^3
#
#
#
# Elastic Constant Matrix: (Units=GPa)
#
#
# Indices 1 2 3 4 5 6 
#
# 1 48.6973 8.0394 11.6948 0.0000 1.2276 0.0000
# 2 8.0394 60.6686 7.1699 0.0000 7.8437 0.0000
# 3 11.6948 7.1699 44.2200 0.0000 -15.8124 0.0000
# 4 0.0000 0.0000 0.0000 18.4936 0.0000 1.1391
# 5 1.2276 7.8437 -15.8124 0.0000 20.5558 0.0000
# 6 0.0000 0.0000 0.0000 1.1391 0.0000 21.0977
#
#
#
# Elastic Compliance Matrix: (Units=1/GPa)
#
#
# Indices 1 2 3 4 5 6 
#
# 1 0.022971 -0.001040 -0.008628 0.000000 -0.007612 0.000000
# 2 -0.001040 0.019191 -0.007494 0.000000 -0.013026 0.000000
# 3 -0.008628 -0.007494 0.037684 0.000000 0.032363 0.000000
# 4 0.000000 0.000000 0.000000 0.054253 0.000000 -0.002929
# 5 -0.007612 -0.013026 0.032363 0.000000 0.078968 0.000000
# 6 0.000000 0.000000 0.000000 -0.002929 0.000000 0.047557
#
#
# Mechanical properties :
#
#
# Convention : Reuss Voigt Hill
#
# Bulk Modulus (GPa) = 21.96858 23.04379 22.50618
# Shear Modulus (GPa) = 16.12268 20.47486 18.29877
#
# Velocity S-wave (km/s) = 2.95909 3.33465 3.15247
# Velocity P-wave (km/s) = 4.85861 5.22892 5.04716
#
# Compressibility (1/GPa) = 0.04551956
#
# Stress axis : x y z
#
# Youngs Moduli (GPa) = 43.53357 52.10896 26.53656
#
# Poissons Ratio (x) = 0.05419 0.22897
# Poissons Ratio (y) = 0.04528 0.19887
# Poissons Ratio (z) = 0.37563 0.39052
#
# Static dielectric constant tensor:
#      x y z
#    x 1.683760 0.000000 -0.051510 
#    y 0.000000 1.674040 0.000000 
#    z -0.051510 0.000000 1.688430 
# 
# From -- ./inp_files/17855.got.cif
#   From: 2010.05.17/outbox.cif.g08.bks.cpg/sg15_9_cif.got.tgz:17855.got - 2010.06.03 18:47:42.
