data_PCOD9263348
_publ_section_title
;
Structure prediction by ZEFSAII (Michael W. Deem and Ramdas Pophale) SiO2 
 PCOD9263348
Probable space group: C 2/C
;
_chemical_formula_sum "Si O2"
_cell_formula_units_Z 56
_cell_length_a 12.157564
_cell_length_b 19.037821
_cell_length_c 15.189990
_cell_angle_alpha 90.000000
_cell_angle_beta 58.358531
_cell_angle_gamma 90.000000
_cell_volume 2993.147637
_symmetry_space_group_name_H-M "C 2/C"
_symmetry_group_IT_number 15
_symmetry_cell_setting 'monoclinic'
loop_
_space_group_symop_operation_xyz
x,y,z
-x,y,1/2-z
-x,-y,-z
x,-y,1/2+z
1/2+x,1/2+y,z
1/2-x,1/2+y,1/2-z
1/2-x,1/2-y,-z
1/2+x,1/2-y,1/2+z
loop_
_atom_site_type_symbol
_atom_site_label
_atom_site_fract_x
_atom_site_fract_y
_atom_site_fract_z
Si Si1 0.361579 0.414418 0.065192
Si Si2 0.220421 0.172773 0.552422
Si Si3 0.445937 0.209222 0.574493
Si Si4 0.171800 0.073368 0.413206
Si Si5 0.273552 0.688681 0.250204
Si Si6 0.557635 0.294176 0.358016
Si Si7 0.722738 0.828101 0.975804
O O1 0.302240 0.490903 0.106339
O O2 0.351670 0.358189 0.148569
O O3 0.516125 0.420968 0.986994
O O4 0.299214 0.381596 0.004502
O O5 0.250000 0.250000 0.500000
O O6 0.325605 0.166358 0.584718
O O7 0.230305 0.112342 0.474504
O O8 0.068811 0.177859 0.638665
O O9 0.391728 0.260506 0.672687
O O10 0.501621 0.259411 0.472523
O O11 0.568285 0.162625 0.548529
O O12 0.216023 0.119209 0.312046
O O13 0.144647 0.733225 0.280077
O O14 0.265927 0.671192 0.356154
O O15 0.750000 0.750000 0.000000
#
# Coordination Sequence:
#
# PCOD9263348 Si02
#       7
#     8   8   8   8   8   8   8
#     4  10  19  39  56  85 123 152 189 246 303 334
#     4   9  16  35  55  82 118 149 192 240 294 330
#     4  10  19  34  55  89 115 150 199 240 288 340
#     4  10  20  35  63  86 116 162 190 243 301 350
#     4  11  19  34  60  92 110 153 206 231 290 356
#     4   9  18  34  56  87 115 147 193 253 281 338
#     4  11  21  37  58  87 120 152 191 245 289 341
#
# _framework density 18.709399999999999
#
# number of rings (size 3 to 8) (size 9 to 14) (size 15 to 20)
#    0.000    2.000    7.143    0.000    0.000    2.857 
#    2.571    2.143    0.000   13.714    0.000    0.000 
#    0.000    0.000    0.000    0.000    0.000    0.000 
#
# Total GULP energy -156129.176472 kJ/mol
# GULP energy per Si atom -5576.042017 kJ/mol
# Density = 1.866682 g / cm^3
# Si number density = 18.709400 Si / 1000 Ang^3
#
#
#
# Elastic Constant Matrix: (Units=GPa)
#
#
# Indices 1 2 3 4 5 6 
#
# 1 100.1626 33.1680 21.0531 0.0000 14.9559 0.0000
# 2 33.1680 121.8104 38.8402 0.0000 14.4262 0.0000
# 3 21.0531 38.8402 85.0624 0.0000 0.9679 0.0000
# 4 0.0000 0.0000 0.0000 25.2347 0.0000 -0.9615
# 5 14.9559 14.4262 0.9679 0.0000 17.1175 0.0000
# 6 0.0000 0.0000 0.0000 -0.9615 0.0000 22.5193
#
#
#
# Elastic Compliance Matrix: (Units=1/GPa)
#
#
# Indices 1 2 3 4 5 6 
#
# 1 0.012367 -0.001538 -0.002252 0.000000 -0.009382 0.000000
# 2 -0.001538 0.010985 -0.004548 0.000000 -0.007657 0.000000
# 3 -0.002252 -0.004548 0.014333 0.000000 0.004990 0.000000
# 4 0.000000 0.000000 0.000000 0.039693 0.000000 0.001695
# 5 -0.009382 -0.007657 0.004990 0.000000 0.072788 0.000000
# 6 0.000000 0.000000 0.000000 0.001695 0.000000 0.044479
#
#
# Mechanical properties :
#
#
# Convention : Reuss Voigt Hill
#
# Bulk Modulus (GPa) = 47.59761 54.79532 51.19646
# Shear Modulus (GPa) = 22.90168 27.23924 25.07046
#
# Velocity S-wave (km/s) = 3.50247 3.81978 3.66456
# Velocity P-wave (km/s) = 6.46932 6.98609 6.73267
#
# Compressibility (1/GPa) = 0.02100946
#
# Stress axis : x y z
#
# Youngs Moduli (GPa) = 80.85818 91.02973 69.76753
#
# Poissons Ratio (x) = 0.14005 0.15710
# Poissons Ratio (y) = 0.12440 0.31731
# Poissons Ratio (z) = 0.18207 0.41402
#
# Static dielectric constant tensor:
#      x y z
#    x 1.707430 0.000000 -0.000300 
#    y 0.000000 1.642920 0.000000 
#    z -0.000300 0.000000 1.688140 
# 
# From -- ./inp_files/145961.got.cif
#   From: 2010.05.17/outbox.cif.g08.bks.cpg/sg15_73_cif.got.tgz:145961.got - 2010.06.03 18:47:42.
