data_PCOD9263814
_publ_section_title
;
Structure prediction by ZEFSAII (Michael W. Deem and Ramdas Pophale) SiO2 
 PCOD9263814
Probable space group: C 2/C
;
_chemical_formula_sum "Si O2"
_cell_formula_units_Z 24
_cell_length_a 9.330503
_cell_length_b 24.254020
_cell_length_c 8.640835
_cell_angle_alpha 90.000000
_cell_angle_beta 148.768899
_cell_angle_gamma 90.000000
_cell_volume 1013.878519
_symmetry_space_group_name_H-M "C 2/C"
_symmetry_group_IT_number 15
_symmetry_cell_setting 'monoclinic'
loop_
_space_group_symop_operation_xyz
x,y,z
-x,y,1/2-z
-x,-y,-z
x,-y,1/2+z
1/2+x,1/2+y,z
1/2-x,1/2+y,1/2-z
1/2-x,1/2-y,-z
1/2+x,1/2-y,1/2+z
loop_
_atom_site_type_symbol
_atom_site_label
_atom_site_fract_x
_atom_site_fract_y
_atom_site_fract_z
Si Si1 0.659784 0.277083 0.730113
Si Si2 0.559507 0.559806 0.985548
Si Si3 0.974501 0.387603 0.404439
O O1 0.500000 0.271024 0.750000
O O2 0.380254 0.268870 0.374907
O O3 0.856201 0.330214 0.927928
O O4 0.500000 0.558751 0.750000
O O5 0.348758 0.605512 0.860007
O O6 0.500000 0.500000 0.000000
O O7 0.865576 0.574965 0.323915
O O8 0.000000 0.406583 0.250000
#
# Coordination Sequence:
#
# PCOD9263814 Si02
#       3
#     8   8   8
#     4  10  19  34  60  97 133 166 211 265 314 368
#     4  12  26  45  66  92 128 169 215 266 326 389
#     4  12  23  40  67  98 129 166 215 268 320 376
#
# _framework density 23.671475000000001
#
# number of rings (size 3 to 8) (size 9 to 14) (size 15 to 20)
#    0.000    0.667    0.000   12.000    0.000    0.000 
#    0.000    0.000    0.000   20.000    0.000    0.000 
#    0.000    0.000    0.000    0.000    0.000    0.000 
#
# Total GULP energy -66881.285602 kJ/mol
# GULP energy per Si atom -5573.440467 kJ/mol
# Density = 2.361760 g / cm^3
# Si number density = 23.671475 Si / 1000 Ang^3
#
#
#
# Elastic Constant Matrix: (Units=GPa)
#
#
# Indices 1 2 3 4 5 6 
#
# 1 88.1834 6.8891 18.4286 0.0000 -11.4099 0.0000
# 2 6.8891 85.8766 4.3746 0.0000 10.4639 0.0000
# 3 18.4286 4.3746 151.3045 0.0000 21.8201 0.0000
# 4 0.0000 0.0000 0.0000 26.4257 0.0000 6.9761
# 5 -11.4099 10.4639 21.8201 0.0000 58.3702 0.0000
# 6 0.0000 0.0000 0.0000 6.9761 0.0000 14.4470
#
#
#
# Elastic Compliance Matrix: (Units=1/GPa)
#
#
# Indices 1 2 3 4 5 6 
#
# 1 0.012282 -0.001296 -0.001943 0.000000 0.003359 0.000000
# 2 -0.001296 0.012042 0.000166 0.000000 -0.002474 0.000000
# 3 -0.001943 0.000166 0.007293 0.000000 -0.003136 0.000000
# 4 0.000000 0.000000 0.000000 0.043370 0.000000 -0.020942
# 5 0.003359 -0.002474 -0.003136 0.000000 0.019405 0.000000
# 6 0.000000 0.000000 0.000000 -0.020942 0.000000 0.079331
#
#
# Mechanical properties :
#
#
# Convention : Reuss Voigt Hill
#
# Bulk Modulus (GPa) = 39.25794 42.74990 41.00392
# Shear Modulus (GPa) = 26.54522 39.56007 33.05264
#
# Velocity S-wave (km/s) = 3.35237 4.09248 3.74077
# Velocity P-wave (km/s) = 5.62183 6.35847 6.00146
#
# Compressibility (1/GPa) = 0.02547256
#
# Stress axis : x y z
#
# Youngs Moduli (GPa) = 81.42050 83.04584 137.11263
#
# Poissons Ratio (x) = 0.10760 0.26640
# Poissons Ratio (y) = 0.10549 -0.02282
# Poissons Ratio (z) = 0.15819 -0.01382
#
# Static dielectric constant tensor:
#      x y z
#    x 1.908460 0.000000 -0.114260 
#    y 0.000000 2.043070 0.000000 
#    z -0.114260 0.000000 2.009180 
# 
# From -- ./inp_files/1865.got.cif
#   From: 2010.05.17/outbox.cif.g08.bks.cpg/sg15_1_cif.got.tgz:1865.got - 2010.06.03 18:47:42.
