data_PCOD9263509
_publ_section_title
;
Structure prediction by ZEFSAII (Michael W. Deem and Ramdas Pophale) SiO2 
 PCOD9263509
Probable space group: C 2/C
;
_chemical_formula_sum "Si O2"
_cell_formula_units_Z 56
_cell_length_a 16.698615
_cell_length_b 30.845808
_cell_length_c 5.300628
_cell_angle_alpha 90.000000
_cell_angle_beta 65.363744
_cell_angle_gamma 90.000000
_cell_volume 2481.730844
_symmetry_space_group_name_H-M "C 2/C"
_symmetry_group_IT_number 15
_symmetry_cell_setting 'monoclinic'
loop_
_space_group_symop_operation_xyz
x,y,z
-x,y,1/2-z
-x,-y,-z
x,-y,1/2+z
1/2+x,1/2+y,z
1/2-x,1/2+y,1/2-z
1/2-x,1/2-y,-z
1/2+x,1/2-y,1/2+z
loop_
_atom_site_type_symbol
_atom_site_label
_atom_site_fract_x
_atom_site_fract_y
_atom_site_fract_z
Si Si1 0.765399 0.613549 0.732546
Si Si2 0.377440 0.522109 0.025125
Si Si3 0.179345 0.485199 0.347526
Si Si4 0.183065 0.820268 0.954182
Si Si5 0.588032 0.387712 0.794789
Si Si6 0.336913 0.191666 0.895237
Si Si7 0.099155 0.736858 0.202193
O O1 0.799665 0.565366 0.638267
O O2 0.741205 0.643563 0.523398
O O3 0.672684 0.609005 0.000614
O O4 0.832015 0.641076 0.820676
O O5 0.410815 0.494471 0.216417
O O6 0.271947 0.512081 0.180121
O O7 0.401514 0.571412 0.036357
O O8 0.132585 0.506863 0.644454
O O9 0.100277 0.844502 0.940825
O O10 0.240881 0.801382 0.648348
O O11 0.151652 0.781653 0.173993
O O12 0.500000 0.388946 0.750000
O O13 0.397148 0.207640 0.049842
O O14 0.357982 0.215108 0.604084
O O15 0.000000 0.745919 0.250000
#
# Coordination Sequence:
#
# PCOD9263509 Si02
#       7
#     8   8   8   8   8   8   8
#     4  11  23  40  65  88 129 172 220 267 313 380
#     4  10  19  37  53  75 117 165 218 268 314 356
#     4  10  19  34  57  85 122 164 210 266 306 360
#     4  11  25  42  67  89 132 173 220 265 318 379
#     4  11  25  36  55  89 127 175 229 273 315 364
#     4  11  25  46  68  97 127 171 216 258 327 387
#     4  12  27  45  70  98 130 164 211 269 325 389
#
# _framework density 22.564899
#
# number of rings (size 3 to 8) (size 9 to 14) (size 15 to 20)
#    0.000    1.143    4.286    3.000    8.000    0.571 
#    0.000    0.000    0.000    0.000    0.000    0.000 
#    0.000   11.429    0.000    0.000    0.000    0.000 
#
# Total GULP energy -156517.523426 kJ/mol
# GULP energy per Si atom -5589.911551 kJ/mol
# Density = 2.251354 g / cm^3
# Si number density = 22.564899 Si / 1000 Ang^3
#
#
#
# Elastic Constant Matrix: (Units=GPa)
#
#
# Indices 1 2 3 4 5 6 
#
# 1 33.0560 34.5906 3.7487 0.0000 15.1457 0.0000
# 2 34.5906 121.1657 38.4951 0.0000 10.8611 0.0000
# 3 3.7487 38.4951 100.9896 0.0000 27.3418 0.0000
# 4 0.0000 0.0000 0.0000 27.8043 0.0000 18.4691
# 5 15.1457 10.8611 27.3418 0.0000 30.3185 0.0000
# 6 0.0000 0.0000 0.0000 18.4691 0.0000 24.8678
#
#
#
# Elastic Compliance Matrix: (Units=1/GPa)
#
#
# Indices 1 2 3 4 5 6 
#
# 1 0.071206 -0.021994 0.017514 0.000000 -0.043487 0.000000
# 2 -0.021994 0.016185 -0.008941 0.000000 0.013252 0.000000
# 3 0.017514 -0.008941 0.018736 0.000000 -0.022443 0.000000
# 4 0.000000 0.000000 0.000000 0.070985 0.000000 -0.052720
# 5 -0.043487 0.013252 -0.022443 0.000000 0.070199 0.000000
# 6 0.000000 0.000000 0.000000 -0.052720 0.000000 0.079367
#
#
# Mechanical properties :
#
#
# Convention : Reuss Voigt Hill
#
# Bulk Modulus (GPa) = 12.61275 45.43111 29.02193
# Shear Modulus (GPa) = 13.15968 28.48990 20.82479
#
# Velocity S-wave (km/s) = 2.41756 3.55713 3.04120
# Velocity P-wave (km/s) = 3.65984 6.08672 5.02208
#
# Compressibility (1/GPa) = 0.07928483
#
# Stress axis : x y z
#
# Youngs Moduli (GPa) = 14.04382 61.78654 53.37270
#
# Poissons Ratio (x) = 1.35895 -0.93478
# Poissons Ratio (y) = 0.30888 0.47720
# Poissons Ratio (z) = -0.24597 0.55242
#
# Static dielectric constant tensor:
#      x y z
#    x 1.831930 0.000000 0.096010 
#    y 0.000000 1.851500 0.000000 
#    z 0.096010 0.000000 1.828370 
# 
# From -- ./inp_files/11489.got.cif
#   From: 2010.05.17/outbox.cif.g08.bks.cpg/sg15_6_cif.got.tgz:11489.got - 2010.06.03 18:47:42.
