data_PCOD9263948
_publ_section_title
;
Structure prediction by ZEFSAII (Michael W. Deem and Ramdas Pophale) SiO2 
 PCOD9263948
Probable space group: C 2/C
;
_chemical_formula_sum "Si O2"
_cell_formula_units_Z 48
_cell_length_a 11.227153
_cell_length_b 14.029774
_cell_length_c 19.822364
_cell_angle_alpha 90.000000
_cell_angle_beta 133.612706
_cell_angle_gamma 90.000000
_cell_volume 2260.610154
_symmetry_space_group_name_H-M "C 2/C"
_symmetry_group_IT_number 15
_symmetry_cell_setting 'monoclinic'
loop_
_space_group_symop_operation_xyz
x,y,z
-x,y,1/2-z
-x,-y,-z
x,-y,1/2+z
1/2+x,1/2+y,z
1/2-x,1/2+y,1/2-z
1/2-x,1/2-y,-z
1/2+x,1/2-y,1/2+z
loop_
_atom_site_type_symbol
_atom_site_label
_atom_site_fract_x
_atom_site_fract_y
_atom_site_fract_z
Si Si1 0.652399 0.751274 0.682683
Si Si2 0.661806 0.119881 0.842617
Si Si3 0.022042 0.345329 0.497688
Si Si4 0.219283 0.965033 0.976020
Si Si5 0.493918 0.711191 0.129229
Si Si6 0.321723 0.675150 0.582238
O O1 0.718434 0.658058 0.668309
O O2 0.590049 0.823160 0.599094
O O3 0.811034 0.790845 0.783200
O O4 0.498972 0.718900 0.668094
O O5 0.500000 0.068655 0.750000
O O6 0.585019 0.214332 0.848827
O O7 0.748143 0.058257 0.933296
O O8 0.057763 0.255212 0.463018
O O9 0.823869 0.345098 0.421575
O O10 0.113184 0.434616 0.498544
O O11 0.086004 0.891399 0.895184
O O12 0.161828 0.071925 0.944870
O O13 0.250000 0.750000 0.500000
#
# Coordination Sequence:
#
# PCOD9263948 Si02
#       6
#     8   8   8   8   8   8
#     4  10  19  37  56  86 126 154 192 251 317 344
#     4   9  17  33  61  92 118 148 201 265 298 345
#     4  10  19  39  60  87 122 157 201 255 301 359
#     4  11  19  37  65  94 109 164 217 239 298 365
#     4  10  19  34  65  89 114 155 209 254 291 356
#     4  10  24  39  57  84 131 165 189 252 316 360
#
# _framework density 21.233205999999999
#
# number of rings (size 3 to 8) (size 9 to 14) (size 15 to 20)
#    0.000    2.000    3.333    1.500    0.000    1.333 
#    0.000   13.333    0.000    0.000    0.000    0.000 
#    0.000    0.000    0.000    0.000    0.000    0.000 
#
# Total GULP energy -133942.193669 kJ/mol
# GULP energy per Si atom -5580.924736 kJ/mol
# Density = 2.118488 g / cm^3
# Si number density = 21.233206 Si / 1000 Ang^3
#
#
#
# Elastic Constant Matrix: (Units=GPa)
#
#
# Indices 1 2 3 4 5 6 
#
# 1 68.7941 6.4881 35.7552 0.0000 32.5738 0.0000
# 2 6.4881 80.7476 8.8259 0.0000 1.8232 0.0000
# 3 35.7552 8.8259 93.3642 0.0000 18.0856 0.0000
# 4 0.0000 0.0000 0.0000 7.6102 0.0000 5.6515
# 5 32.5738 1.8232 18.0856 0.0000 39.5665 0.0000
# 6 0.0000 0.0000 0.0000 5.6515 0.0000 19.6201
#
#
#
# Elastic Compliance Matrix: (Units=1/GPa)
#
#
# Indices 1 2 3 4 5 6 
#
# 1 0.027214 -0.001031 -0.006576 0.000000 -0.019351 0.000000
# 2 -0.001031 0.012553 -0.000926 0.000000 0.000694 0.000000
# 3 -0.006576 -0.000926 0.013451 0.000000 -0.000692 0.000000
# 4 0.000000 0.000000 0.000000 0.167158 0.000000 -0.048149
# 5 -0.019351 0.000694 -0.000692 0.000000 0.041489 0.000000
# 6 0.000000 0.000000 0.000000 -0.048149 0.000000 0.064837
#
#
# Mechanical properties :
#
#
# Convention : Reuss Voigt Hill
#
# Bulk Modulus (GPa) = 27.66185 38.33825 33.00005
# Shear Modulus (GPa) = 14.05211 26.14848 20.10030
#
# Velocity S-wave (km/s) = 2.57534 3.51307 3.08010
# Velocity P-wave (km/s) = 4.67964 5.87797 5.31270
#
# Compressibility (1/GPa) = 0.03615087
#
# Stress axis : x y z
#
# Youngs Moduli (GPa) = 36.74614 79.66425 74.34577
#
# Poissons Ratio (x) = 0.08213 0.48890
# Poissons Ratio (y) = 0.03788 0.06886
# Poissons Ratio (z) = 0.24164 0.07378
#
# Static dielectric constant tensor:
#      x y z
#    x 1.835910 0.000000 0.023080 
#    y 0.000000 1.731810 0.000000 
#    z 0.023080 0.000000 1.784340 
# 
# From -- ./inp_files/238947.got.cif
#   From: 2010.05.17/outbox.cif.g08.bks.cpg/sg15_120_cif.got.tgz:238947.got - 2010.06.03 18:47:42.
