data_PCOD9263032
_publ_section_title
;
Structure prediction by ZEFSAII (Michael W. Deem and Ramdas Pophale) SiO2 
 PCOD9263032
Probable space group: C 2/C
;
_chemical_formula_sum "Si O2"
_cell_formula_units_Z 36
_cell_length_a 7.206945
_cell_length_b 11.338681
_cell_length_c 19.040203
_cell_angle_alpha 90.000000
_cell_angle_beta 65.779503
_cell_angle_gamma 90.000000
_cell_volume 1418.951319
_symmetry_space_group_name_H-M "C 2/C"
_symmetry_group_IT_number 15
_symmetry_cell_setting 'monoclinic'
loop_
_space_group_symop_operation_xyz
x,y,z
-x,y,1/2-z
-x,-y,-z
x,-y,1/2+z
1/2+x,1/2+y,z
1/2-x,1/2+y,1/2-z
1/2-x,1/2-y,-z
1/2+x,1/2-y,1/2+z
loop_
_atom_site_type_symbol
_atom_site_label
_atom_site_fract_x
_atom_site_fract_y
_atom_site_fract_z
Si Si1 0.905748 0.655981 0.411611
Si Si2 0.000000 0.693983 0.250000
Si Si3 0.672638 0.843973 0.360423
Si Si4 0.803173 0.842366 0.068183
Si Si5 0.660098 0.502762 0.057904
O O1 0.086711 0.727371 0.419414
O O2 0.810408 0.563684 0.479332
O O3 0.979368 0.617631 0.322987
O O4 0.737560 0.754328 0.414273
O O5 0.807707 0.784109 0.278424
O O6 0.436207 0.846022 0.381219
O O7 0.754111 0.968514 0.379175
O O8 0.843405 0.870646 0.979161
O O9 0.936198 0.946055 0.085813
#
# Coordination Sequence:
#
# PCOD9263032 Si02
#       5
#     8   4   8   8   8
#     4   9  20  37  52  78 113 140 185 233 271 333
#     4   8  20  36  52  72 116 142 170 230 276 328
#     4   9  18  35  55  75 109 143 177 230 276 331
#     4  10  19  33  60  81 104 149 186 226 296 326
#     4  10  20  34  56  87 107 137 195 240 264 338
#
# _framework density 25.370850000000001
#
# number of rings (size 3 to 8) (size 9 to 14) (size 15 to 20)
#    1.333    1.333    0.000    3.333    0.000    4.444 
#    0.000    2.222    0.000    0.000    0.000    0.000 
#    0.000    0.000    0.000    0.000    0.000    0.000 
#
# Total GULP energy -100509.960271 kJ/mol
# GULP energy per Si atom -5583.886682 kJ/mol
# Density = 2.531311 g / cm^3
# Si number density = 25.370850 Si / 1000 Ang^3
#
#
#
# Elastic Constant Matrix: (Units=GPa)
#
#
# Indices 1 2 3 4 5 6 
#
# 1 224.5896 24.5738 38.3026 0.0000 -34.9673 0.0000
# 2 24.5738 72.0533 19.9808 0.0000 2.0390 0.0000
# 3 38.3026 19.9808 85.8296 0.0000 -5.5976 0.0000
# 4 0.0000 0.0000 0.0000 30.5295 0.0000 8.2609
# 5 -34.9673 2.0390 -5.5976 0.0000 42.1693 0.0000
# 6 0.0000 0.0000 0.0000 8.2609 0.0000 43.0281
#
#
#
# Elastic Compliance Matrix: (Units=1/GPa)
#
#
# Indices 1 2 3 4 5 6 
#
# 1 0.005640 -0.001533 -0.001866 0.000000 0.004503 0.000000
# 2 -0.001533 0.015312 -0.003038 0.000000 -0.002415 0.000000
# 3 -0.001866 -0.003038 0.013214 0.000000 0.000353 0.000000
# 4 0.000000 0.000000 0.000000 0.034550 0.000000 -0.006633
# 5 0.004503 -0.002415 0.000353 0.000000 0.027612 0.000000
# 6 0.000000 0.000000 0.000000 -0.006633 0.000000 0.024514
#
#
# Mechanical properties :
#
#
# Convention : Reuss Voigt Hill
#
# Bulk Modulus (GPa) = 46.96758 60.90966 53.93862
# Shear Modulus (GPa) = 35.50793 43.11974 39.31384
#
# Velocity S-wave (km/s) = 3.74512 4.12707 3.94072
# Velocity P-wave (km/s) = 6.10359 6.83887 6.48166
#
# Compressibility (1/GPa) = 0.02129128
#
# Stress axis : x y z
#
# Youngs Moduli (GPa) = 177.31501 65.30688 75.67700
#
# Poissons Ratio (x) = 0.10014 0.14123
# Poissons Ratio (y) = 0.27188 0.22990
# Poissons Ratio (z) = 0.33090 0.19839
#
# Static dielectric constant tensor:
#      x y z
#    x 2.034920 0.000000 0.038790 
#    y 0.000000 2.208320 0.000000 
#    z 0.038790 0.000000 2.021710 
# 
# From -- ./inp_files/260083.got.cif
#   From: 2010.05.17/outbox.cif.g08.bks.cpg/sg15_131_cif.got.tgz:260083.got - 2010.06.03 18:47:42.
