data_PCOD9263988
_publ_section_title
;
Structure prediction by ZEFSAII (Michael W. Deem and Ramdas Pophale) SiO2 
 PCOD9263988
Probable space group: C 2/C
;
_chemical_formula_sum "Si O2"
_cell_formula_units_Z 56
_cell_length_a 31.132951
_cell_length_b 9.972267
_cell_length_c 9.732447
_cell_angle_alpha 90.000000
_cell_angle_beta 66.275779
_cell_angle_gamma 90.000000
_cell_volume 2766.247717
_symmetry_space_group_name_H-M "C 2/C"
_symmetry_group_IT_number 15
_symmetry_cell_setting 'monoclinic'
loop_
_space_group_symop_operation_xyz
x,y,z
-x,y,1/2-z
-x,-y,-z
x,-y,1/2+z
1/2+x,1/2+y,z
1/2-x,1/2+y,1/2-z
1/2-x,1/2-y,-z
1/2+x,1/2-y,1/2+z
loop_
_atom_site_type_symbol
_atom_site_label
_atom_site_fract_x
_atom_site_fract_y
_atom_site_fract_z
Si Si1 0.267260 0.426036 0.604403
Si Si2 0.606229 0.400191 0.316035
Si Si3 0.127642 0.861723 0.971997
Si Si4 0.422853 0.123400 0.580782
Si Si5 0.447363 0.955938 0.317290
Si Si6 0.712598 0.661213 0.731314
Si Si7 0.520353 0.236685 0.359997
O O1 0.316815 0.376588 0.602324
O O2 0.264448 0.574822 0.673864
O O3 0.272379 0.412446 0.432088
O O4 0.229565 0.314822 0.698996
O O5 0.603438 0.544023 0.390714
O O6 0.655673 0.341790 0.309361
O O7 0.558660 0.316738 0.396198
O O8 0.611970 0.404221 0.144102
O O9 0.113335 0.711733 0.955721
O O10 0.428222 0.983328 0.492733
O O11 0.474565 0.189023 0.499930
O O12 0.413422 0.114588 0.753872
O O13 0.500000 0.897508 0.250000
O O14 0.455848 0.103821 0.237618
O O15 0.500000 0.312382 0.250000
#
# Coordination Sequence:
#
# PCOD9263988 Si02
#       7
#     8   8   8   8   8   8   8
#     4   9  19  37  59  81 108 144 175 221 275 318
#     4  10  19  37  56  74 109 141 174 214 273 302
#     4  10  20  37  54  77 107 139 174 221 259 317
#     4  10  19  35  52  75 106 140 179 216 264 313
#     4   9  17  33  54  69 102 143 171 221 262 305
#     4   9  19  36  60  81 110 141 178 221 270 328
#     4   9  16  32  53  72 100 145 169 215 254 312
#
# _framework density 20.244028
#
# number of rings (size 3 to 8) (size 9 to 14) (size 15 to 20)
#    0.000    2.857    2.857    1.714    0.000    1.143 
#    7.714    0.000    0.000    0.000    0.000    0.000 
#    0.000    0.000    0.000    0.000    0.000    0.000 
#
# Total GULP energy -155952.235975 kJ/mol
# GULP energy per Si atom -5569.722713 kJ/mol
# Density = 2.019795 g / cm^3
# Si number density = 20.244028 Si / 1000 Ang^3
#
#
#
# Elastic Constant Matrix: (Units=GPa)
#
#
# Indices 1 2 3 4 5 6 
#
# 1 33.0544 9.9320 14.0961 0.0000 9.9885 0.0000
# 2 9.9320 14.2405 1.2096 0.0000 5.4287 0.0000
# 3 14.0961 1.2096 39.7823 0.0000 21.0672 0.0000
# 4 0.0000 0.0000 0.0000 17.6365 0.0000 11.4157
# 5 9.9885 5.4287 21.0672 0.0000 31.8386 0.0000
# 6 0.0000 0.0000 0.0000 11.4157 0.0000 27.6806
#
#
#
# Elastic Compliance Matrix: (Units=1/GPa)
#
#
# Indices 1 2 3 4 5 6 
#
# 1 0.046132 -0.031420 -0.016262 0.000000 0.001645 0.000000
# 2 -0.031420 0.097764 0.018116 0.000000 -0.018799 0.000000
# 3 -0.016262 0.018116 0.045078 0.000000 -0.027815 0.000000
# 4 0.000000 0.000000 0.000000 0.077348 0.000000 -0.031899
# 5 0.001645 -0.018799 -0.027815 0.000000 0.052502 0.000000
# 6 0.000000 0.000000 0.000000 -0.031899 0.000000 0.049282
#
#
# Mechanical properties :
#
#
# Convention : Reuss Voigt Hill
#
# Bulk Modulus (GPa) = 7.70169 15.28362 11.49265
# Shear Modulus (GPa) = 10.62656 19.55376 15.09016
#
# Velocity S-wave (km/s) = 2.29361 3.11127 2.73319
# Velocity P-wave (km/s) = 3.29042 4.52468 3.95598
#
# Compressibility (1/GPa) = 0.12984168
#
# Stress axis : x y z
#
# Youngs Moduli (GPa) = 21.67697 10.22868 22.18394
#
# Poissons Ratio (x) = 0.32139 0.36075
# Poissons Ratio (y) = 0.68110 -0.40189
# Poissons Ratio (z) = 0.35251 -0.18530
#
# Static dielectric constant tensor:
#      x y z
#    x 1.731660 0.000000 0.013800 
#    y 0.000000 1.739210 0.000000 
#    z 0.013800 0.000000 1.764540 
# 
# From -- ./inp_files/69046.got.cif
#   From: 2010.05.17/outbox.cif.g08.bks.cpg/sg15_35_cif.got.tgz:69046.got - 2010.06.03 18:47:42.
