data_PCOD9263411
_publ_section_title
;
Structure prediction by ZEFSAII (Michael W. Deem and Ramdas Pophale) SiO2 
 PCOD9263411
Probable space group: C 2/C
;
_chemical_formula_sum "Si O2"
_cell_formula_units_Z 48
_cell_length_a 5.334436
_cell_length_b 13.770220
_cell_length_c 28.884791
_cell_angle_alpha 90.000000
_cell_angle_beta 83.816135
_cell_angle_gamma 90.000000
_cell_volume 2109.425657
_symmetry_space_group_name_H-M "C 2/C"
_symmetry_group_IT_number 15
_symmetry_cell_setting 'monoclinic'
loop_
_space_group_symop_operation_xyz
x,y,z
-x,y,1/2-z
-x,-y,-z
x,-y,1/2+z
1/2+x,1/2+y,z
1/2-x,1/2+y,1/2-z
1/2-x,1/2-y,-z
1/2+x,1/2-y,1/2+z
loop_
_atom_site_type_symbol
_atom_site_label
_atom_site_fract_x
_atom_site_fract_y
_atom_site_fract_z
Si Si1 0.716929 0.907486 0.326014
Si Si2 0.766216 0.611395 0.221039
Si Si3 0.161920 0.430057 0.431610
Si Si4 0.246067 0.595122 0.487508
Si Si5 0.510248 0.269711 0.446898
Si Si6 0.216230 0.789912 0.342255
O O1 0.659955 0.951415 0.378035
O O2 0.479089 0.837952 0.321564
O O3 0.979569 0.849309 0.325652
O O4 0.732948 0.997772 0.291545
O O5 0.500000 0.634672 0.250000
O O6 0.794652 0.680396 0.175944
O O7 0.000000 0.632237 0.250000
O O8 0.343644 0.506706 0.454556
O O9 0.250348 0.318477 0.435777
O O10 0.907390 0.442752 0.465087
O O11 0.433980 0.671713 0.506766
O O12 0.056081 0.658698 0.459231
O O13 0.686705 0.292010 0.398731
#
# Coordination Sequence:
#
# PCOD9263411 Si02
#       6
#     8   8   8   8   8   8
#     4  11  24  44  68  96 132 169 211 265 323 382
#     4  12  27  46  70 100 126 162 214 267 332 398
#     4  10  20  35  56  86 121 164 209 252 303 361
#     4  10  19  34  56  84 123 164 212 251 296 358
#     4  10  20  35  56  86 121 164 209 252 303 361
#     4  11  24  44  68  96 132 169 211 265 323 382
#
# _framework density 22.755009000000001
#
# number of rings (size 3 to 8) (size 9 to 14) (size 15 to 20)
#    0.000    1.333    1.667    4.000    0.000    4.000 
#    0.000    0.000    0.000    0.000    0.000    0.000 
#    0.000    0.000    0.000    0.000    0.000    0.000 
#
# Total GULP energy -134074.978439 kJ/mol
# GULP energy per Si atom -5586.457435 kJ/mol
# Density = 2.270322 g / cm^3
# Si number density = 22.755009 Si / 1000 Ang^3
#
#
#
# Elastic Constant Matrix: (Units=GPa)
#
#
# Indices 1 2 3 4 5 6 
#
# 1 110.4193 24.4414 22.6379 0.0000 9.2309 0.0000
# 2 24.4414 108.6217 20.0981 0.0000 5.8103 0.0000
# 3 22.6379 20.0981 51.2738 0.0000 2.0403 0.0000
# 4 0.0000 0.0000 0.0000 42.0818 0.0000 56.6412
# 5 9.2309 5.8103 2.0403 0.0000 19.9977 0.0000
# 6 0.0000 0.0000 0.0000 56.6412 0.0000-2166.2885
#
#
#
# Elastic Compliance Matrix: (Units=1/GPa)
#
#
# Indices 1 2 3 4 5 6 
#
# 1 0.010513 -0.001424 -0.003923 0.000000 -0.004039 0.000000
# 2 -0.001424 0.010245 -0.003308 0.000000 -0.001982 0.000000
# 3 -0.003923 -0.003308 0.022513 0.000000 0.000475 0.000000
# 4 0.000000 0.000000 0.000000 0.022955 0.000000 0.000600
# 5 -0.004039 -0.001982 0.000475 0.000000 0.052398 0.000000
# 6 0.000000 0.000000 0.000000 0.000600 0.000000 -0.000446
#
#
# Mechanical properties :
#
#
# Convention : Reuss Voigt Hill
#
# Bulk Modulus (GPa) = 38.51892 44.96329 41.74111
# Shear Modulus (GPa) = 34.68802 -407.29931 -186.30565
#
# Velocity S-wave (km/s) = 3.90861 -13.39335 -9.05827
# Velocity P-wave (km/s) = 6.11016 14.81125 9.54042
#
# Compressibility (1/GPa) = 0.02596127
#
# Stress axis : x y z
#
# Youngs Moduli (GPa) = 95.11594 97.61085 44.41875
#
# Poissons Ratio (x) = 0.13897 0.17425
# Poissons Ratio (y) = 0.13542 0.14695
# Poissons Ratio (z) = 0.37314 0.32292
#
# Static dielectric constant tensor:
#      x y z
#    x 2.036020 0.000000 0.063060 
#    y 0.000000 1.878640 0.000000 
#    z 0.063060 0.000000 1.844230 
# 
# From -- ./inp_files/285556.got.cif
#   From: 2010.05.17/outbox.cif.g08.bks.cpg/sg15_143_cif.got.tgz:285556.got - 2010.06.03 18:47:42.
