data_PCOD9263516
_publ_section_title
;
Structure prediction by ZEFSAII (Michael W. Deem and Ramdas Pophale) SiO2 
 PCOD9263516
Probable space group: C 2/C
;
_chemical_formula_sum "Si O2"
_cell_formula_units_Z 64
_cell_length_a 32.037272
_cell_length_b 5.386211
_cell_length_c 17.328808
_cell_angle_alpha 90.000000
_cell_angle_beta 86.452843
_cell_angle_gamma 90.000000
_cell_volume 2984.521885
_symmetry_space_group_name_H-M "C 2/C"
_symmetry_group_IT_number 15
_symmetry_cell_setting 'monoclinic'
loop_
_space_group_symop_operation_xyz
x,y,z
-x,y,1/2-z
-x,-y,-z
x,-y,1/2+z
1/2+x,1/2+y,z
1/2-x,1/2+y,1/2-z
1/2-x,1/2-y,-z
1/2+x,1/2-y,1/2+z
loop_
_atom_site_type_symbol
_atom_site_label
_atom_site_fract_x
_atom_site_fract_y
_atom_site_fract_z
Si Si1 0.005298 0.308585 0.069265
Si Si2 0.558498 0.428166 0.438544
Si Si3 0.069887 0.298766 0.198159
Si Si4 0.654874 0.721258 0.931926
Si Si5 0.839429 0.247862 0.384066
Si Si6 0.204979 0.749500 0.106102
Si Si7 0.301491 0.775332 0.081386
Si Si8 0.545838 0.717809 0.779117
O O1 0.029726 0.345810 0.146399
O O2 0.037774 0.114817 0.023876
O O3 0.959101 0.195769 0.084088
O O4 0.000000 0.500000 0.000000
O O5 0.606836 0.362354 0.431212
O O6 0.540028 0.265789 0.371349
O O7 0.112575 0.279003 0.145309
O O8 0.071990 0.546597 0.248703
O O9 0.064475 0.044024 0.246802
O O10 0.680903 0.491136 0.895316
O O11 0.669674 0.989420 0.899238
O O12 0.663079 0.739291 0.022696
O O13 0.812340 0.486543 0.361758
O O14 0.821233 0.983242 0.360101
O O15 0.253857 0.798764 0.114183
O O16 0.199734 0.735873 0.012789
O O17 0.500000 0.724789 0.750000
#
# Coordination Sequence:
#
# PCOD9263516 Si02
#       8
#     8   8   8   8   8   8   8   8
#     4  11  25  41  67  89 125 163 218 257 317 376
#     4  11  25  42  61  96 121 173 206 266 315 371
#     4  12  25  43  63  93 124 169 213 261 312 373
#     4  10  20  33  57  85 125 153 203 252 310 364
#     4  10  19  34  57  86 118 158 200 257 298 367
#     4   9  17  31  54  83 124 154 193 243 320 367
#     4   9  18  31  51  88 121 158 187 249 315 378
#     4  12  26  44  64  87 128 170 216 260 313 374
#
# _framework density 21.443973
#
# number of rings (size 3 to 8) (size 9 to 14) (size 15 to 20)
#    0.000    1.500    2.500    2.625    5.250    4.000 
#    0.000    0.000    0.000    0.000    0.000   17.500 
#    0.000    0.000    0.000    0.000    0.000    0.000 
#
# Total GULP energy -178503.172778 kJ/mol
# GULP energy per Si atom -5578.224149 kJ/mol
# Density = 2.139517 g / cm^3
# Si number density = 21.443973 Si / 1000 Ang^3
#
#
#
# Elastic Constant Matrix: (Units=GPa)
#
#
# Indices 1 2 3 4 5 6 
#
# 1 91.0861 55.6327 -16.5413 0.0000 -0.3997 0.0000
# 2 55.6327 167.6826 25.8292 0.0000 -15.3243 0.0000
# 3 -16.5413 25.8292 38.1739 0.0000 1.3175 0.0000
# 4 0.0000 0.0000 0.0000 23.1167 0.0000 -10.5856
# 5 -0.3997 -15.3243 1.3175 0.0000 12.0124 0.0000
# 6 0.0000 0.0000 0.0000 -10.5856 0.0000 29.3060
#
#
#
# Elastic Compliance Matrix: (Units=1/GPa)
#
#
# Indices 1 2 3 4 5 6 
#
# 1 0.020471 -0.010705 0.016624 0.000000 -0.014798 0.000000
# 2 -0.010705 0.013396 -0.014334 0.000000 0.018306 0.000000
# 3 0.016624 -0.014334 0.043876 0.000000 -0.022546 0.000000
# 4 0.000000 0.000000 0.000000 0.051832 0.000000 0.018722
# 5 -0.014798 0.018306 -0.022546 0.000000 0.108580 0.000000
# 6 0.000000 0.000000 0.000000 0.018722 0.000000 0.040885
#
#
# Mechanical properties :
#
#
# Convention : Reuss Voigt Hill
#
# Bulk Modulus (GPa) = 16.41681 47.42043 31.91862
# Shear Modulus (GPa) = 15.81400 28.35516 22.08458
#
# Velocity S-wave (km/s) = 2.71856 3.64028 3.21265
# Velocity P-wave (km/s) = 4.18645 6.31114 5.35522
#
# Compressibility (1/GPa) = 0.06091316
#
# Stress axis : x y z
#
# Youngs Moduli (GPa) = 48.85006 74.64829 22.79128
#
# Poissons Ratio (x) = 0.79909 -0.37888
# Poissons Ratio (y) = 0.52293 0.32670
# Poissons Ratio (z) = -0.81209 1.07004
#
# Static dielectric constant tensor:
#      x y z
#    x 1.869490 0.000000 -0.009770 
#    y 0.000000 1.812380 0.000000 
#    z -0.009770 0.000000 1.844710 
# 
# From -- ./inp_files/223894.got.cif
#   From: 2010.05.17/outbox.cif.g08.bks.cpg/sg15_112_cif.got.tgz:223894.got - 2010.06.03 18:47:42.
