data_PCOD9263985
_publ_section_title
;
Structure prediction by ZEFSAII (Michael W. Deem and Ramdas Pophale) SiO2 
 PCOD9263985
Probable space group: C 2/C
;
_chemical_formula_sum "Si O2"
_cell_formula_units_Z 56
_cell_length_a 14.425558
_cell_length_b 28.403970
_cell_length_c 14.463937
_cell_angle_alpha 90.000000
_cell_angle_beta 32.152825
_cell_angle_gamma 90.000000
_cell_volume 3153.960333
_symmetry_space_group_name_H-M "C 2/C"
_symmetry_group_IT_number 15
_symmetry_cell_setting 'monoclinic'
loop_
_space_group_symop_operation_xyz
x,y,z
-x,y,1/2-z
-x,-y,-z
x,-y,1/2+z
1/2+x,1/2+y,z
1/2-x,1/2+y,1/2-z
1/2-x,1/2-y,-z
1/2+x,1/2-y,1/2+z
loop_
_atom_site_type_symbol
_atom_site_label
_atom_site_fract_x
_atom_site_fract_y
_atom_site_fract_z
Si Si1 0.731690 0.423437 0.220740
Si Si2 0.165810 0.720922 0.656350
Si Si3 0.094416 0.897261 0.906408
Si Si4 0.503527 0.961720 0.355232
Si Si5 0.015911 0.814660 0.846577
Si Si6 0.465369 0.074707 0.172233
Si Si7 0.118354 0.025079 0.241812
O O1 0.567041 0.391743 0.387061
O O2 0.851341 0.434951 0.208830
O O3 0.649295 0.472102 0.250807
O O4 0.873173 0.406932 0.025483
O O5 0.250000 0.750000 0.500000
O O6 0.100772 0.762376 0.778568
O O7 0.321936 0.688020 0.553385
O O8 0.000000 0.695957 0.750000
O O9 0.115531 0.853716 0.819010
O O10 0.277466 0.906874 0.800662
O O11 0.044310 0.942488 0.885574
O O12 0.500000 0.950341 0.250000
O O13 0.309681 0.954162 0.557914
O O14 0.538294 0.017780 0.336921
O O15 0.000000 0.826445 0.750000
O O16 0.500000 0.084245 0.250000
O O17 0.000000 0.025604 0.250000
#
# Coordination Sequence:
#
# PCOD9263985 Si02
#       7
#     8   8   8   8   8   8   8
#     4  11  22  37  51  78 104 148 199 223 277 323
#     4   7  13  31  54  74 103 141 170 197 249 333
#     4  12  22  34  53  82 114 136 184 237 272 320
#     4  10  19  35  52  72 101 146 196 224 274 325
#     4   9  18  34  53  84 111 145 174 208 267 333
#     4  10  22  38  54  71 102 145 189 238 268 310
#     4  11  21  33  52  74 110 154 189 234 273 310
#
# _framework density 17.755455000000001
#
# number of rings (size 3 to 8) (size 9 to 14) (size 15 to 20)
#    0.000    2.286    2.857    2.571    6.000    0.000 
#    7.714    0.000    0.000    0.000    0.000    1.000 
#    0.000    0.000    0.000    0.000    0.000    0.000 
#
# Total GULP energy -156102.700312 kJ/mol
# GULP energy per Si atom -5575.096440 kJ/mol
# Density = 1.771504 g / cm^3
# Si number density = 17.755455 Si / 1000 Ang^3
#
#
#
# Elastic Constant Matrix: (Units=GPa)
#
#
# Indices 1 2 3 4 5 6 
#
# 1 111.2844 27.5366 44.7464 0.0000 -13.9146 0.0001
# 2 27.5366 24.1928 15.8048 0.0000 -6.4182 0.0000
# 3 44.7464 15.8048 112.7440 0.0002 -4.5466 -0.0003
# 4 0.0000 0.0000 0.0002 11.3507 -0.0002 1.7193
# 5 -13.9146 -6.4182 -4.5466 -0.0002 28.0738 0.0001
# 6 0.0001 0.0000 -0.0003 1.7193 0.0001 13.3079
#
#
#
# Elastic Compliance Matrix: (Units=1/GPa)
#
#
# Indices 1 2 3 4 5 6 
#
# 1 0.014017 -0.012651 -0.003650 0.000000 0.003464 0.000000
# 2 -0.012651 0.059544 -0.003050 0.000000 0.006848 0.000000
# 3 -0.003650 -0.003050 0.010715 0.000000 -0.000771 0.000000
# 4 0.000000 0.000000 0.000000 0.089859 0.000001 -0.011609
# 5 0.003464 0.006848 -0.000771 0.000001 0.038778 0.000000
# 6 0.000000 0.000000 0.000000 -0.011609 0.000000 0.076643
#
#
# Mechanical properties :
#
#
# Convention : Reuss Voigt Hill
#
# Bulk Modulus (GPa) = 21.94251 47.15519 34.54885
# Shear Modulus (GPa) = 14.55822 21.22206 17.89014
#
# Velocity S-wave (km/s) = 2.86655 3.46098 3.17769
# Velocity P-wave (km/s) = 4.83127 6.52587 5.74143
#
# Compressibility (1/GPa) = 0.04557364
#
# Stress axis : x y z
#
# Youngs Moduli (GPa) = 71.34093 16.79443 93.32945
#
# Poissons Ratio (x) = 0.21247 0.34066
# Poissons Ratio (y) = 0.90254 0.28464
# Poissons Ratio (z) = 0.26040 0.05122
#
# Static dielectric constant tensor:
#      x y z
#    x 1.606440 0.000000 -0.003900 
#    y 0.000000 1.607680 0.000000 
#    z -0.003900 0.000000 1.689470 
# 
# From -- ./inp_files/157448.got.cif
#   From: 2010.05.17/outbox.cif.g08.bks.cpg/sg15_79_cif.got.tgz:157448.got - 2010.06.03 18:47:42.
