data_PCOD9263709
_publ_section_title
;
Structure prediction by ZEFSAII (Michael W. Deem and Ramdas Pophale) SiO2 
 PCOD9263709
Probable space group: C 2/C
;
_chemical_formula_sum "Si O2"
_cell_formula_units_Z 48
_cell_length_a 19.709294
_cell_length_b 20.623701
_cell_length_c 9.826964
_cell_angle_alpha 90.000000
_cell_angle_beta 32.132289
_cell_angle_gamma 90.000000
_cell_volume 2124.551881
_symmetry_space_group_name_H-M "C 2/C"
_symmetry_group_IT_number 15
_symmetry_cell_setting 'monoclinic'
loop_
_space_group_symop_operation_xyz
x,y,z
-x,y,1/2-z
-x,-y,-z
x,-y,1/2+z
1/2+x,1/2+y,z
1/2-x,1/2+y,1/2-z
1/2-x,1/2-y,-z
1/2+x,1/2-y,1/2+z
loop_
_atom_site_type_symbol
_atom_site_label
_atom_site_fract_x
_atom_site_fract_y
_atom_site_fract_z
Si Si1 0.226769 0.954638 0.138936
Si Si2 0.500000 0.009681 0.750000
Si Si3 0.000000 0.293382 0.250000
Si Si4 0.300231 0.815395 0.988099
Si Si5 0.009190 0.609024 0.960759
Si Si6 0.779935 0.208538 0.585197
Si Si7 0.209375 0.065004 0.963176
O O1 0.168765 0.960299 0.386233
O O2 0.208954 0.879354 0.129297
O O3 0.380858 0.969855 0.891549
O O4 0.177979 0.011320 0.126273
O O5 0.447246 0.055702 0.962959
O O6 0.055830 0.338725 0.271135
O O7 0.887062 0.247527 0.486470
O O8 0.422552 0.846950 0.704810
O O9 0.250000 0.750000 0.000000
O O10 0.317635 0.803856 0.122179
O O11 0.135483 0.575598 0.804360
O O12 0.750000 0.250000 0.500000
O O13 0.833664 0.139010 0.445391
#
# Coordination Sequence:
#
# PCOD9263709 Si02
#       7
#     8   4   4   8   8   8   8
#     4  10  20  33  53  85 118 157 187 242 299 365
#     4   9  18  32  56  88 123 150 186 232 317 378
#     4  11  20  38  60  82 123 156 202 244 301 348
#     4  11  22  35  56  85 121 156 203 244 298 361
#     4  10  19  34  59  87 118 159 185 245 303 368
#     4  11  23  39  58  87 117 164 204 246 303 361
#     4  10  21  37  60  88 123 155 200 242 307 369
#
# _framework density 22.592998000000001
#
# number of rings (size 3 to 8) (size 9 to 14) (size 15 to 20)
#    0.000    1.667    3.333    2.000    0.000    6.000 
#    0.000    0.000    0.000    4.000    0.000    0.000 
#    0.000    0.000    0.000    0.000    0.000    0.000 
#
# Total GULP energy -133661.756222 kJ/mol
# GULP energy per Si atom -5569.239843 kJ/mol
# Density = 2.254158 g / cm^3
# Si number density = 22.592998 Si / 1000 Ang^3
#
#
#
# Elastic Constant Matrix: (Units=GPa)
#
#
# Indices 1 2 3 4 5 6 
#
# 1 52.6272 65.2033 24.5527 0.0002 32.9495 -0.0003
# 2 65.2033 207.9416 41.9998 0.0001 40.6028 -0.0001
# 3 24.5527 41.9998 65.2566 0.0002 38.6305 -0.0002
# 4 0.0002 0.0001 0.0002 32.4889 -0.0001 8.7044
# 5 32.9495 40.6028 38.6305 -0.0001 38.5266 0.0002
# 6 -0.0003 -0.0001 -0.0002 8.7044 0.0002 44.4818
#
#
#
# Elastic Compliance Matrix: (Units=1/GPa)
#
#
# Indices 1 2 3 4 5 6 
#
# 1 0.062686 -0.011729 0.020626 -0.000001 -0.061931 0.000001
# 2 -0.011729 0.008252 -0.004153 0.000000 0.005499 0.000000
# 3 0.020626 -0.004153 0.044506 -0.000001 -0.057889 0.000001
# 4 -0.000001 0.000000 -0.000001 0.032483 0.000001 -0.006356
# 5 -0.061931 0.005499 -0.057889 0.000001 0.131172 -0.000001
# 6 0.000001 0.000000 0.000001 -0.006356 -0.000001 0.023725
#
#
# Mechanical properties :
#
#
# Convention : Reuss Voigt Hill
#
# Bulk Modulus (GPa) = 8.00449 65.48187 36.74318
# Shear Modulus (GPa) = 14.92626 36.03743 25.48185
#
# Velocity S-wave (km/s) = 2.57312 3.99817 3.36201
# Velocity P-wave (km/s) = 3.51831 7.09648 5.60082
#
# Compressibility (1/GPa) = 0.12492989
#
# Stress axis : x y z
#
# Youngs Moduli (GPa) = 15.95257 121.18174 22.46901
#
# Poissons Ratio (x) = 1.42138 -0.46344
# Poissons Ratio (y) = 0.18711 0.09332
# Poissons Ratio (z) = -0.32903 0.50331
#
# Static dielectric constant tensor:
#      x y z
#    x 1.906820 0.000000 -0.014370 
#    y 0.000000 1.870620 0.000000 
#    z -0.014370 0.000000 1.946830 
# 
# From -- ./inp_files/57755.got.cif
#   From: 2010.05.17/outbox.cif.g08.bks.cpg/sg15_29_cif.got.tgz:57755.got - 2010.06.03 18:47:42.
