data_PCOD9263163
_publ_section_title
;
Structure prediction by ZEFSAII (Michael W. Deem and Ramdas Pophale) SiO2 
 PCOD9263163
Probable space group: C 2/C
;
_chemical_formula_sum "Si O2"
_cell_formula_units_Z 60
_cell_length_a 10.149968
_cell_length_b 22.769225
_cell_length_c 18.776500
_cell_angle_alpha 90.000000
_cell_angle_beta 50.197819
_cell_angle_gamma 90.000000
_cell_volume 3333.767501
_symmetry_space_group_name_H-M "C 2/C"
_symmetry_group_IT_number 15
_symmetry_cell_setting 'monoclinic'
loop_
_space_group_symop_operation_xyz
x,y,z
-x,y,1/2-z
-x,-y,-z
x,-y,1/2+z
1/2+x,1/2+y,z
1/2-x,1/2+y,1/2-z
1/2-x,1/2-y,-z
1/2+x,1/2-y,1/2+z
loop_
_atom_site_type_symbol
_atom_site_label
_atom_site_fract_x
_atom_site_fract_y
_atom_site_fract_z
Si Si1 0.500000 0.724172 0.750000
Si Si2 0.264747 0.897672 0.804835
Si Si3 0.361523 0.970113 0.248088
Si Si4 0.735649 0.148678 0.927617
Si Si5 0.960951 0.670279 0.363384
Si Si6 0.900316 0.932684 0.957448
Si Si7 0.020001 0.446568 0.046754
Si Si8 0.512667 0.432265 0.408552
O O1 0.337321 0.686952 0.833768
O O2 0.475003 0.768568 0.692217
O O3 0.375014 0.872896 0.700632
O O4 0.327502 0.860354 0.852462
O O5 0.060580 0.899183 0.866003
O O6 0.315234 0.966188 0.797350
O O7 0.500000 0.939102 0.250000
O O8 0.455858 0.975287 0.141797
O O9 0.184009 0.936364 0.302561
O O10 0.606513 0.104813 0.933254
O O11 0.879939 0.112269 0.920683
O O12 0.625255 0.178108 0.030052
O O13 0.712232 0.922429 0.991627
O O14 0.924090 0.919048 0.033136
O O15 0.929362 0.002892 0.939512
O O16 0.000000 0.500000 0.000000
#
# Coordination Sequence:
#
# PCOD9263163 Si02
#       8
#     4   8   8   8   8   8   8   8
#     4  10  24  40  62  90 114 144 206 264 316 338
#     4   9  18  32  57  83 110 154 208 234 274 347
#     4  11  19  32  51  80 124 163 195 226 287 365
#     4  12  22  40  59  91 122 151 198 258 301 345
#     4  10  20  38  65  88 105 153 206 262 296 350
#     4  10  19  34  52  87 121 163 194 225 278 365
#     4  12  24  34  53  89 131 162 194 240 297 355
#     4  10  20  32  57  80 121 163 196 225 282 363
#
# _framework density 17.997655000000002
#
# number of rings (size 3 to 8) (size 9 to 14) (size 15 to 20)
#    0.000    1.600    5.333    2.000    0.000    0.000 
#    0.000    2.000    0.000    3.200    6.933    0.000 
#    0.000    0.000    0.000    0.000    0.000    0.000 
#
# Total GULP energy -167175.536116 kJ/mol
# GULP energy per Si atom -5572.517871 kJ/mol
# Density = 1.795669 g / cm^3
# Si number density = 17.997655 Si / 1000 Ang^3
#
#
#
# Elastic Constant Matrix: (Units=GPa)
#
#
# Indices 1 2 3 4 5 6 
#
# 1 107.9503 32.4984 42.1056 0.0000 -22.0242 0.0000
# 2 32.4984 62.5269 34.6200 0.0000 -10.3231 0.0000
# 3 42.1056 34.6200 120.9545 0.0000 -13.5224 0.0000
# 4 0.0000 0.0000 0.0000 29.2020 0.0000 -5.9451
# 5 -22.0242 -10.3231 -13.5224 0.0000 33.3068 0.0000
# 6 0.0000 0.0000 0.0000 -5.9451 0.0000 11.7811
#
#
#
# Elastic Compliance Matrix: (Units=1/GPa)
#
#
# Indices 1 2 3 4 5 6 
#
# 1 0.012776 -0.004216 -0.002558 0.000000 0.006103 0.000000
# 2 -0.004216 0.020881 -0.004292 0.000000 0.001941 0.000000
# 3 -0.002558 -0.004292 0.010527 0.000000 0.001252 0.000000
# 4 0.000000 0.000000 0.000000 0.038165 0.000000 0.019259
# 5 0.006103 0.001941 0.001252 0.000000 0.035169 0.000000
# 6 0.000000 0.000000 0.000000 0.019259 0.000000 0.094600
#
#
# Mechanical properties :
#
#
# Convention : Reuss Voigt Hill
#
# Bulk Modulus (GPa) = 45.35009 56.65330 51.00169
# Shear Modulus (GPa) = 20.69522 27.00516 23.85019
#
# Velocity S-wave (km/s) = 3.39467 3.87781 3.64426
# Velocity P-wave (km/s) = 6.37319 7.18306 6.79021
#
# Compressibility (1/GPa) = 0.02205067
#
# Stress axis : x y z
#
# Youngs Moduli (GPa) = 78.27339 47.88947 94.99769
#
# Poissons Ratio (x) = 0.20191 0.24304
# Poissons Ratio (y) = 0.33001 0.40773
# Poissons Ratio (z) = 0.20025 0.20554
#
# Static dielectric constant tensor:
#      x y z
#    x 1.600900 0.000000 -0.031090 
#    y 0.000000 1.622560 0.000000 
#    z -0.031090 0.000000 1.672100 
# 
# From -- ./inp_files/192512.got.cif
#   From: 2010.05.17/outbox.cif.g08.bks.cpg/sg15_97_cif.got.tgz:192512.got - 2010.06.03 18:47:42.
