data_PCOD9263677
_publ_section_title
;
Structure prediction by ZEFSAII (Michael W. Deem and Ramdas Pophale) SiO2 
 PCOD9263677
Probable space group: C 2/C
;
_chemical_formula_sum "Si O2"
_cell_formula_units_Z 48
_cell_length_a 17.150907
_cell_length_b 20.638134
_cell_length_c 10.378057
_cell_angle_alpha 90.000000
_cell_angle_beta 52.763797
_cell_angle_gamma 90.000000
_cell_volume 2924.605121
_symmetry_space_group_name_H-M "C 2/C"
_symmetry_group_IT_number 15
_symmetry_cell_setting 'monoclinic'
loop_
_space_group_symop_operation_xyz
x,y,z
-x,y,1/2-z
-x,-y,-z
x,-y,1/2+z
1/2+x,1/2+y,z
1/2-x,1/2+y,1/2-z
1/2-x,1/2-y,-z
1/2+x,1/2-y,1/2+z
loop_
_atom_site_type_symbol
_atom_site_label
_atom_site_fract_x
_atom_site_fract_y
_atom_site_fract_z
Si Si1 0.883176 0.561812 0.866825
Si Si2 0.693193 0.147824 0.789257
Si Si3 0.387394 0.287843 0.017337
Si Si4 0.806807 0.647824 0.175644
Si Si5 0.387393 0.712156 0.207877
Si Si6 0.117084 0.592344 0.132915
O O1 0.837899 0.595540 0.786430
O O2 0.866815 0.484989 0.883185
O O3 0.000000 0.573524 0.750000
O O4 0.837900 0.595539 0.037775
O O5 0.807654 0.165320 0.660980
O O6 0.637215 0.214815 0.811717
O O7 0.663112 0.123229 0.959232
O O8 0.362786 0.214815 0.086146
O O9 0.500000 0.303425 0.933785
O O10 0.373324 0.290332 0.876677
O O11 0.692347 0.665320 0.276286
O O12 0.836887 0.623230 0.285460
O O13 0.000000 0.603364 0.250000
#
# Coordination Sequence:
#
# PCOD9263677 Si02
#       6
#     8   8   8   8   8   8
#     4  11  20  35  57  77 105 145 183 214 258 321
#     4  11  20  36  55  82 109 140 176 219 267 314
#     4  10  19  34  59  83 104 137 180 224 265 312
#     4  11  20  36  55  82 109 140 176 219 267 314
#     4  10  19  34  59  83 104 137 180 224 265 312
#     4  11  24  35  51  81 115 143 171 218 270 315
#
# _framework density 16.412471
#
# number of rings (size 3 to 8) (size 9 to 14) (size 15 to 20)
#    0.000    1.333    3.333    5.000    0.000    5.333 
#    0.000    2.500    0.000    6.000    0.000    0.000 
#    0.000    0.000    0.000    0.000    0.000    0.000 
#
# Total GULP energy -134073.650771 kJ/mol
# GULP energy per Si atom -5586.402115 kJ/mol
# Density = 1.637512 g / cm^3
# Si number density = 16.412471 Si / 1000 Ang^3
#
#
#
# Elastic Constant Matrix: (Units=GPa)
#
#
# Indices 1 2 3 4 5 6 
#
# 1 152.2703 78.7074 98.7405 0.0000 -5.1624 0.0000
# 2 78.7074 91.5438 74.5675 0.0000 -5.2696 0.0000
# 3 98.7405 74.5675 151.8435 0.0000 4.6125 0.0000
# 4 0.0000 0.0000 0.0000 5.8618 0.0000 -13.6902
# 5 -5.1624 -5.2696 4.6125 0.0000 37.1748 0.0000
# 6 0.0000 0.0000 0.0000 -13.6902 0.0000 16.6193
#
#
#
# Elastic Compliance Matrix: (Units=1/GPa)
#
#
# Indices 1 2 3 4 5 6 
#
# 1 0.014087 -0.007534 -0.005508 0.000000 0.001572 0.000000
# 2 -0.007534 0.022759 -0.006367 0.000000 0.002970 0.000000
# 3 -0.005508 -0.006367 0.013396 0.000000 -0.003330 0.000000
# 4 0.000000 0.000000 0.000000 -0.184652 0.000000 -0.152108
# 5 0.001572 0.002970 -0.003330 0.000000 0.027952 0.000000
# 6 0.000000 0.000000 0.000000 -0.152108 0.000000 -0.065129
#
#
# Mechanical properties :
#
#
# Convention : Reuss Voigt Hill
#
# Bulk Modulus (GPa) = 87.55167 99.96539 93.75853
# Shear Modulus (GPa) = -38.77159 21.50734 -8.63213
#
# Velocity S-wave (km/s) = -4.86565 3.62391 -2.29585
# Velocity P-wave (km/s) = 4.67914 8.86288 7.08679
#
# Compressibility (1/GPa) = 0.01142183
#
# Stress axis : x y z
#
# Youngs Moduli (GPa) = 70.98867 43.93833 74.65191
#
# Poissons Ratio (x) = 0.33105 0.41119
# Poissons Ratio (y) = 0.53486 0.47533
# Poissons Ratio (z) = 0.39101 0.27977
#
# Static dielectric constant tensor:
#      x y z
#    x 1.546310 0.000000 -0.011710 
#    y 0.000000 1.526800 0.000000 
#    z -0.011710 0.000000 1.537110 
# 
# From -- ./inp_files/40932.got.cif
#   From: 2010.05.17/outbox.cif.g08.bks.cpg/sg15_21_cif.got.tgz:40932.got - 2010.06.03 18:47:42.
