data_PCOD9263264
_publ_section_title
;
Structure prediction by ZEFSAII (Michael W. Deem and Ramdas Pophale) SiO2 
 PCOD9263264
Probable space group: C 2/C
;
_chemical_formula_sum "Si O2"
_cell_formula_units_Z 56
_cell_length_a 12.987129
_cell_length_b 17.864977
_cell_length_c 14.612802
_cell_angle_alpha 90.000000
_cell_angle_beta 124.252386
_cell_angle_gamma 90.000000
_cell_volume 2802.378653
_symmetry_space_group_name_H-M "C 2/C"
_symmetry_group_IT_number 15
_symmetry_cell_setting 'monoclinic'
loop_
_space_group_symop_operation_xyz
x,y,z
-x,y,1/2-z
-x,-y,-z
x,-y,1/2+z
1/2+x,1/2+y,z
1/2-x,1/2+y,1/2-z
1/2-x,1/2-y,-z
1/2+x,1/2-y,1/2+z
loop_
_atom_site_type_symbol
_atom_site_label
_atom_site_fract_x
_atom_site_fract_y
_atom_site_fract_z
Si Si1 0.290951 0.579056 0.605184
Si Si2 0.945016 0.222238 0.623605
Si Si3 0.385012 0.041331 0.257973
Si Si4 0.060347 0.635807 0.685438
Si Si5 0.979987 0.630318 0.032765
Si Si6 0.142562 0.003631 0.536643
Si Si7 0.173778 0.129757 0.680198
O O1 0.340384 0.659759 0.592190
O O2 0.141090 0.575809 0.528800
O O3 0.345941 0.518237 0.563307
O O4 0.334761 0.576449 0.733094
O O5 0.926803 0.297041 0.557829
O O6 0.000000 0.243421 0.750000
O O7 0.052925 0.179170 0.623339
O O8 0.500000 0.064368 0.250000
O O9 0.406606 0.092259 0.357158
O O10 0.249725 0.046161 0.142066
O O11 0.412480 0.953883 0.293495
O O12 0.986677 0.647986 0.555261
O O13 0.196496 0.672169 0.740385
O O14 0.000000 0.659389 0.750000
O O15 0.182122 0.085927 0.589349
O O16 0.000000 0.000000 0.500000
#
# Coordination Sequence:
#
# PCOD9263264 Si02
#       7
#     8   8   8   8   8   8   8
#     4  10  20  35  58  84 119 154 190 236 303 351
#     4  10  20  34  55  84 121 150 190 236 295 360
#     4  10  19  34  54  86 112 142 194 248 288 339
#     4   9  20  37  57  78 111 151 194 239 301 345
#     4  11  20  35  58  87 113 150 193 250 292 344
#     4  11  20  34  57  80 117 154 190 236 288 352
#     4   9  20  37  54  84 112 154 191 234 296 356
#
# _framework density 19.983025999999999
#
# number of rings (size 3 to 8) (size 9 to 14) (size 15 to 20)
#    0.000    2.000    2.857    1.286    0.000    0.000 
#    0.000    0.714    0.000    1.714    0.000    0.000 
#    0.000    0.000    0.000    0.000    0.000    0.000 
#
# Total GULP energy -155996.061635 kJ/mol
# GULP energy per Si atom -5571.287916 kJ/mol
# Density = 1.993754 g / cm^3
# Si number density = 19.983026 Si / 1000 Ang^3
#
#
#
# Elastic Constant Matrix: (Units=GPa)
#
#
# Indices 1 2 3 4 5 6 
#
# 1 96.3187 2.9198 38.7566 0.0000 -4.6658 0.0000
# 2 2.9198 23.8559 9.5366 0.0000 -8.2418 0.0000
# 3 38.7566 9.5366 68.7403 0.0000 -3.3971 0.0000
# 4 0.0000 0.0000 0.0000 11.6811 0.0000 19.1145
# 5 -4.6658 -8.2418 -3.3971 0.0000 40.9519 0.0000
# 6 0.0000 0.0000 0.0000 19.1145 0.0000 -26.9388
#
#
#
# Elastic Compliance Matrix: (Units=1/GPa)
#
#
# Indices 1 2 3 4 5 6 
#
# 1 0.013539 0.001917 -0.007836 0.000000 0.001278 0.000000
# 2 0.001917 0.047772 -0.007252 0.000000 0.009231 0.000000
# 3 -0.007836 -0.007252 0.019937 0.000000 -0.000699 0.000000
# 4 0.000000 0.000000 0.000000 0.039614 0.000000 0.028108
# 5 0.001278 0.009231 -0.000699 0.000000 0.026364 0.000000
# 6 0.000000 0.000000 0.000000 0.028108 0.000000 -0.017177
#
#
# Mechanical properties :
#
#
# Convention : Reuss Voigt Hill
#
# Bulk Modulus (GPa) = 18.21309 32.37122 25.29216
# Shear Modulus (GPa) = 28.62144 14.31896 21.47020
#
# Velocity S-wave (km/s) = 3.78866 2.67976 3.28139
# Velocity P-wave (km/s) = 5.31721 5.08029 5.20010
#
# Compressibility (1/GPa) = 0.05490555
#
# Stress axis : x y z
#
# Youngs Moduli (GPa) = 73.85960 20.93279 50.15712
#
# Poissons Ratio (x) = -0.04013 0.39305
# Poissons Ratio (y) = -0.14160 0.36375
# Poissons Ratio (z) = 0.57879 0.15181
#
# Static dielectric constant tensor:
#      x y z
#    x 1.754630 0.000000 0.015020 
#    y 0.000000 1.723840 0.000000 
#    z 0.015020 0.000000 1.765200 
# 
# From -- ./inp_files/154919.got.cif
#   From: 2010.05.17/outbox.cif.g08.bks.cpg/sg15_78_cif.got.tgz:154919.got - 2010.06.03 18:47:42.
