data_PCOD9263071
_publ_section_title
;
Structure prediction by ZEFSAII (Michael W. Deem and Ramdas Pophale) SiO2 
 PCOD9263071
Probable space group: C 2/C
;
_chemical_formula_sum "Si O2"
_cell_formula_units_Z 60
_cell_length_a 17.713553
_cell_length_b 8.576019
_cell_length_c 20.651753
_cell_angle_alpha 90.000000
_cell_angle_beta 120.526066
_cell_angle_gamma 90.000000
_cell_volume 2702.416501
_symmetry_space_group_name_H-M "C 2/C"
_symmetry_group_IT_number 15
_symmetry_cell_setting 'monoclinic'
loop_
_space_group_symop_operation_xyz
x,y,z
-x,y,1/2-z
-x,-y,-z
x,-y,1/2+z
1/2+x,1/2+y,z
1/2-x,1/2+y,1/2-z
1/2-x,1/2-y,-z
1/2+x,1/2-y,1/2+z
loop_
_atom_site_type_symbol
_atom_site_label
_atom_site_fract_x
_atom_site_fract_y
_atom_site_fract_z
Si Si1 0.576833 0.130965 0.029968
Si Si2 0.000000 0.703757 0.250000
Si Si3 0.776900 0.995898 0.125361
Si Si4 0.567106 0.667910 0.653648
Si Si5 0.129070 0.424577 0.300406
Si Si6 0.850158 0.222891 0.063846
Si Si7 0.276662 0.807556 0.693966
Si Si8 0.121146 0.158893 0.209690
O O1 0.557029 0.247946 0.080920
O O2 0.675092 0.052429 0.077489
O O3 0.586163 0.231727 0.967378
O O4 0.500000 0.000000 0.000000
O O5 0.999158 0.794019 0.316548
O O6 0.919749 0.586606 0.215403
O O7 0.784461 0.810951 0.137477
O O8 0.838992 0.055405 0.093792
O O9 0.818958 0.077826 0.207840
O O10 0.656560 0.744553 0.721927
O O11 0.568491 0.481297 0.655214
O O12 0.134037 0.341271 0.370354
O O13 0.219307 0.503860 0.314588
O O14 0.082347 0.307489 0.230213
O O15 0.750000 0.250000 0.000000
O O16 0.181591 0.772175 0.680974
#
# Coordination Sequence:
#
# PCOD9263071 Si02
#       8
#     8   4   8   8   8   8   8   8
#     4  11  21  37  63  87 130 179 217 251 312 404
#     4  10  22  36  56  86 124 152 200 250 326 386
#     4   9  19  36  58  91 118 155 214 266 320 361
#     4  10  21  36  59  91 121 159 203 263 319 370
#     4  10  20  36  58  88 115 159 196 253 324 374
#     4   9  20  36  57  83 118 162 214 247 299 369
#     4  10  19  33  63  91 119 144 206 278 318 361
#     4  10  19  33  62  92 116 147 208 278 319 362
#
# _framework density 22.202351
#
# number of rings (size 3 to 8) (size 9 to 14) (size 15 to 20)
#    0.000    2.133    1.333    2.400    5.600    0.533 
#    0.000    2.667    0.000    4.000    0.000    0.000 
#    0.000    0.000    0.000    0.000    0.000    0.000 
#
# Total GULP energy -167122.353302 kJ/mol
# GULP energy per Si atom -5570.745110 kJ/mol
# Density = 2.215182 g / cm^3
# Si number density = 22.202351 Si / 1000 Ang^3
#
#
#
# Elastic Constant Matrix: (Units=GPa)
#
#
# Indices 1 2 3 4 5 6 
#
# 1 86.3902 52.2210 37.4693 0.0000 -29.7314 0.0000
# 2 52.2210 151.0089 61.3530 0.0000 -27.3313 0.0000
# 3 37.4693 61.3530 82.1129 0.0000 -34.8560 0.0000
# 4 0.0000 0.0000 0.0000 33.7119 0.0000 -4.2932
# 5 -29.7314 -27.3313 -34.8560 0.0000 42.3020 0.0000
# 6 0.0000 0.0000 0.0000 -4.2932 0.0000 127.0800
#
#
#
# Elastic Compliance Matrix: (Units=1/GPa)
#
#
# Indices 1 2 3 4 5 6 
#
# 1 0.017527 -0.003932 -0.001399 0.000000 0.008626 0.000000
# 2 -0.003932 0.010396 -0.006606 0.000000 -0.001490 0.000000
# 3 -0.001399 -0.006606 0.023874 0.000000 0.014420 0.000000
# 4 0.000000 0.000000 0.000000 0.029791 0.000000 0.001006
# 5 0.008626 -0.001490 0.014420 0.000000 0.040622 0.000000
# 6 0.000000 0.000000 0.000000 0.001006 0.000000 0.007903
#
#
# Mechanical properties :
#
#
# Convention : Reuss Voigt Hill
#
# Bulk Modulus (GPa) = 35.81071 69.06650 52.43861
# Shear Modulus (GPa) = 30.61960 51.85002 41.23481
#
# Velocity S-wave (km/s) = 3.71767 4.83778 4.31423
# Velocity P-wave (km/s) = 5.88153 7.89815 6.96323
#
# Compressibility (1/GPa) = 0.02792461
#
# Stress axis : x y z
#
# Youngs Moduli (GPa) = 57.05380 96.19019 41.88715
#
# Poissons Ratio (x) = 0.37819 0.05858
# Poissons Ratio (y) = 0.22432 0.27670
# Poissons Ratio (z) = 0.07979 0.63543
#
# Static dielectric constant tensor:
#      x y z
#    x 6.775240 0.000000 0.179160 
#    y 0.000000 1.888390 0.000000 
#    z 0.179160 0.000000 1.834340 
# 
# From -- ./inp_files/247557.got.cif
#   From: 2010.05.17/outbox.cif.g08.bks.cpg/sg15_124_cif.got.tgz:247557.got - 2010.06.03 18:47:42.
