data_PCOD9263001
_publ_section_title
;
Structure prediction by ZEFSAII (Michael W. Deem and Ramdas Pophale) SiO2 
 PCOD9263001
Probable space group: C 2/C
;
_chemical_formula_sum "Si O2"
_cell_formula_units_Z 56
_cell_length_a 11.443716
_cell_length_b 17.376866
_cell_length_c 26.485819
_cell_angle_alpha 90.000000
_cell_angle_beta 36.856585
_cell_angle_gamma 90.000000
_cell_volume 3159.138047
_symmetry_space_group_name_H-M "C 2/C"
_symmetry_group_IT_number 15
_symmetry_cell_setting 'monoclinic'
loop_
_space_group_symop_operation_xyz
x,y,z
-x,y,1/2-z
-x,-y,-z
x,-y,1/2+z
1/2+x,1/2+y,z
1/2-x,1/2+y,1/2-z
1/2-x,1/2-y,-z
1/2+x,1/2-y,1/2+z
loop_
_atom_site_type_symbol
_atom_site_label
_atom_site_fract_x
_atom_site_fract_y
_atom_site_fract_z
Si Si1 0.979396 0.495662 0.130367
Si Si2 0.728843 0.381455 0.656986
Si Si3 0.770964 0.709035 0.841770
Si Si4 0.327944 0.446736 0.581131
Si Si5 0.791908 0.445976 0.293323
Si Si6 0.163929 0.634023 0.495204
Si Si7 0.559560 0.700825 0.018104
O O1 0.143906 0.535083 0.109054
O O2 0.073763 0.434076 0.059630
O O3 0.858440 0.557933 0.141590
O O4 0.834700 0.455038 0.220100
O O5 0.500000 0.388799 0.750000
O O6 0.799546 0.294677 0.646158
O O7 0.764755 0.390792 0.584661
O O8 0.687042 0.634539 0.842265
O O9 0.000000 0.712810 0.750000
O O10 0.722962 0.695546 0.917285
O O11 0.500000 0.500000 0.500000
O O12 0.298662 0.480149 0.647848
O O13 0.389387 0.357711 0.561368
O O14 0.000000 0.439699 0.250000
O O15 0.345569 0.667978 0.463854
O O16 0.021452 0.708371 0.537930
#
# Coordination Sequence:
#
# PCOD9263001 Si02
#       7
#     8   8   8   8   8   8   8
#     4  11  22  37  56  82 112 152 187 231 282 335
#     4  10  23  37  56  79 112 150 191 220 272 342
#     4   9  16  33  54  81 108 139 184 232 267 322
#     4  11  19  34  59  87 110 137 185 245 283 325
#     4   9  18  32  55  80 108 137 182 234 281 319
#     4  10  20  36  57  83 113 149 186 229 275 341
#     4  10  19  33  59  88 108 143 189 233 283 323
#
# _framework density 17.726355000000002
#
# number of rings (size 3 to 8) (size 9 to 14) (size 15 to 20)
#    0.000    2.000    2.857    2.143    2.000    1.143 
#    0.000    2.857    3.143    0.000    0.000    0.000 
#    0.000    0.000    0.000    0.000    0.000    0.000 
#
# Total GULP energy -155966.122247 kJ/mol
# GULP energy per Si atom -5570.218652 kJ/mol
# Density = 1.768601 g / cm^3
# Si number density = 17.726355 Si / 1000 Ang^3
#
#
#
# Elastic Constant Matrix: (Units=GPa)
#
#
# Indices 1 2 3 4 5 6 
#
# 1 67.6504 52.4782 36.4141 0.0010 17.7038 0.0009
# 2 52.4782 117.5588 45.7461 0.0024 15.0569 -0.0001
# 3 36.4141 45.7461 89.5435 0.0042 29.1408 -0.0007
# 4 0.0010 0.0024 0.0042 23.5084 -0.0020 2.6538
# 5 17.7038 15.0569 29.1408 -0.0020 27.0004 -0.0008
# 6 0.0009 -0.0001 -0.0007 2.6538 -0.0008 25.4914
#
#
#
# Elastic Compliance Matrix: (Units=1/GPa)
#
#
# Indices 1 2 3 4 5 6 
#
# 1 0.025811 -0.009268 -0.002984 0.000000 -0.008535 -0.000001
# 2 -0.009268 0.013945 -0.004319 0.000000 0.002962 0.000000
# 3 -0.002984 -0.004319 0.020296 -0.000005 -0.017539 0.000001
# 4 0.000000 0.000000 -0.000005 0.043044 0.000008 -0.004481
# 5 -0.008535 0.002962 -0.017539 0.000008 0.059911 0.000001
# 6 -0.000001 0.000000 0.000001 -0.004481 0.000001 0.039695
#
#
# Mechanical properties :
#
#
# Convention : Reuss Voigt Hill
#
# Bulk Modulus (GPa) = 37.16132 60.44773 48.80453
# Shear Modulus (GPa) = 20.42374 24.54102 22.48238
#
# Velocity S-wave (km/s) = 3.39804 3.72484 3.56519
# Velocity P-wave (km/s) = 6.03365 7.25767 6.67378
#
# Compressibility (1/GPa) = 0.02690970
#
# Stress axis : x y z
#
# Youngs Moduli (GPa) = 38.74358 71.71128 49.27102
#
# Poissons Ratio (x) = 0.66459 0.14703
# Poissons Ratio (y) = 0.35906 0.21281
# Poissons Ratio (z) = 0.11561 0.30974
#
# Static dielectric constant tensor:
#      x y z
#    x 1.582840 0.000000 0.000430 
#    y 0.000000 1.669570 0.000000 
#    z 0.000430 0.000000 1.637250 
# 
# From -- ./inp_files/270352.got.cif
#   From: 2010.05.17/outbox.cif.g08.bks.cpg/sg15_136_cif.got.tgz:270352.got - 2010.06.03 18:47:42.
