data_PCOD9263645
_publ_section_title
;
Structure prediction by ZEFSAII (Michael W. Deem and Ramdas Pophale) SiO2 
 PCOD9263645
Probable space group: C 2/C
;
_chemical_formula_sum "Si O2"
_cell_formula_units_Z 52
_cell_length_a 19.887920
_cell_length_b 13.014322
_cell_length_c 11.878117
_cell_angle_alpha 90.000000
_cell_angle_beta 115.300800
_cell_angle_gamma 90.000000
_cell_volume 2779.481138
_symmetry_space_group_name_H-M "C 2/C"
_symmetry_group_IT_number 15
_symmetry_cell_setting 'monoclinic'
loop_
_space_group_symop_operation_xyz
x,y,z
-x,y,1/2-z
-x,-y,-z
x,-y,1/2+z
1/2+x,1/2+y,z
1/2-x,1/2+y,1/2-z
1/2-x,1/2-y,-z
1/2+x,1/2-y,1/2+z
loop_
_atom_site_type_symbol
_atom_site_label
_atom_site_fract_x
_atom_site_fract_y
_atom_site_fract_z
Si Si1 0.262491 0.989693 0.105545
Si Si2 0.692007 0.299518 0.544929
Si Si3 0.361446 0.139326 0.510000
Si Si4 0.077277 0.774805 0.288804
Si Si5 0.585798 0.938724 0.680135
Si Si6 0.000000 0.609880 0.750000
Si Si7 0.292771 0.303092 0.292080
O O1 0.234292 0.909711 0.177326
O O2 0.201700 0.077755 0.041297
O O3 0.333569 0.049945 0.204652
O O4 0.296717 0.924126 0.026919
O O5 0.750000 0.250000 0.500000
O O6 0.613755 0.262917 0.438619
O O7 0.722695 0.256674 0.685302
O O8 0.398970 0.068920 0.440729
O O9 0.429159 0.166725 0.643620
O O10 0.326545 0.234193 0.416989
O O11 0.057120 0.668666 0.209941
O O12 0.142073 0.818731 0.254033
O O13 0.000000 0.833788 0.250000
O O14 0.536716 0.033685 0.684375
#
# Coordination Sequence:
#
# PCOD9263645 Si02
#       7
#     8   8   8   8   8   4   8
#     4  11  21  36  61  86 115 156 199 245 286 352
#     4  10  20  37  60  90 109 155 204 237 288 347
#     4  10  21  36  53  87 121 153 193 239 308 351
#     4  10  20  38  60  88 120 149 195 250 289 351
#     4  10  19  34  58  89 116 146 191 248 304 345
#     4  10  20  32  54  86 120 156 188 238 310 362
#     4  10  22  38  57  86 123 155 195 243 296 348
#
# _framework density 18.708527
#
# number of rings (size 3 to 8) (size 9 to 14) (size 15 to 20)
#    0.000    1.846    5.385    0.923    4.308    0.000 
#   11.077    0.769    1.692    0.000    0.000    0.000 
#    0.000    0.000    0.000    0.000    0.000    0.000 
#
# Total GULP energy -144824.813506 kJ/mol
# GULP energy per Si atom -5570.185135 kJ/mol
# Density = 1.866595 g / cm^3
# Si number density = 18.708527 Si / 1000 Ang^3
#
#
#
# Elastic Constant Matrix: (Units=GPa)
#
#
# Indices 1 2 3 4 5 6 
#
# 1 75.7650 11.0781 18.7630 0.0000 -7.3019 0.0000
# 2 11.0781 46.8698 14.6630 0.0000 -9.0371 0.0000
# 3 18.7630 14.6630 58.5556 0.0000 7.4047 0.0000
# 4 0.0000 0.0000 0.0000 2.0724 0.0000 -0.8586
# 5 -7.3019 -9.0371 7.4047 0.0000 27.8516 0.0000
# 6 0.0000 0.0000 0.0000 -0.8586 0.0000 11.8364
#
#
#
# Elastic Compliance Matrix: (Units=1/GPa)
#
#
# Indices 1 2 3 4 5 6 
#
# 1 0.015124 -0.000961 -0.005244 0.000000 0.005048 0.000000
# 2 -0.000961 0.025840 -0.007441 0.000000 0.010111 0.000000
# 3 -0.005244 -0.007441 0.021835 0.000000 -0.009594 0.000000
# 4 0.000000 0.000000 0.000000 0.497472 0.000000 0.036085
# 5 0.005048 0.010111 -0.009594 0.000000 0.043059 0.000000
# 6 0.000000 0.000000 0.000000 0.036085 0.000000 0.087102
#
#
# Mechanical properties :
#
#
# Convention : Reuss Voigt Hill
#
# Bulk Modulus (GPa) = 28.16357 30.02203 29.09280
# Shear Modulus (GPa) = 6.85343 17.46451 12.15897
#
# Velocity S-wave (km/s) = 1.91604 3.05865 2.55211
# Velocity P-wave (km/s) = 4.47007 5.34377 4.92632
#
# Compressibility (1/GPa) = 0.03550686
#
# Stress axis : x y z
#
# Youngs Moduli (GPa) = 66.11866 38.69913 45.79849
#
# Poissons Ratio (x) = 0.03719 0.24016
# Poissons Ratio (y) = 0.06354 0.34080
# Poissons Ratio (z) = 0.34672 0.28797
#
# Static dielectric constant tensor:
#      x y z
#    x 1.676900 0.000000 0.015850 
#    y 0.000000 1.644750 0.000000 
#    z 0.015850 0.000000 1.725580 
# 
# From -- ./inp_files/111184.got.cif
#   From: 2010.05.17/outbox.cif.g08.bks.cpg/sg15_56_cif.got.tgz:111184.got - 2010.06.03 18:47:42.
