data_PCOD9263901
_publ_section_title
;
Structure prediction by ZEFSAII (Michael W. Deem and Ramdas Pophale) SiO2 
 PCOD9263901
Probable space group: C 2/C
;
_chemical_formula_sum "Si O2"
_cell_formula_units_Z 64
_cell_length_a 18.490964
_cell_length_b 31.944845
_cell_length_c 11.271229
_cell_angle_alpha 90.000000
_cell_angle_beta 153.122403
_cell_angle_gamma 90.000000
_cell_volume 3009.904023
_symmetry_space_group_name_H-M "C 2/C"
_symmetry_group_IT_number 15
_symmetry_cell_setting 'monoclinic'
loop_
_space_group_symop_operation_xyz
x,y,z
-x,y,1/2-z
-x,-y,-z
x,-y,1/2+z
1/2+x,1/2+y,z
1/2-x,1/2+y,1/2-z
1/2-x,1/2-y,-z
1/2+x,1/2-y,1/2+z
loop_
_atom_site_type_symbol
_atom_site_label
_atom_site_fract_x
_atom_site_fract_y
_atom_site_fract_z
Si Si1 0.631195 0.837751 0.771744
Si Si2 0.361027 0.488014 0.951230
Si Si3 0.857749 0.212916 0.448293
Si Si4 0.629364 0.083805 0.116587
Si Si5 0.978295 0.064086 0.023958
Si Si6 0.279049 0.098330 0.526974
Si Si7 0.296290 0.810782 0.352537
Si Si8 0.033886 0.158587 0.116424
O O1 0.684031 0.882342 0.794513
O O2 0.439375 0.836301 0.501174
O O3 0.697280 0.804233 0.774514
O O4 0.695460 0.824127 0.995405
O O5 0.500000 0.490091 0.250000
O O6 0.448582 0.459575 0.980536
O O7 0.204205 0.461480 0.753626
O O8 0.337980 0.534581 0.865069
O O9 0.842078 0.262256 0.405927
O O10 0.000000 0.205750 0.750000
O O11 0.902398 0.186429 0.398082
O O12 0.437953 0.086365 0.827093
O O13 0.683774 0.096629 0.061368
O O14 0.866661 0.066529 0.162034
O O15 0.954557 0.113200 0.964638
O O16 0.190628 0.142733 0.416786
O O17 0.115499 0.817748 0.045778
#
# Coordination Sequence:
#
# PCOD9263901 Si02
#       8
#     8   8   8   8   8   8   8   8
#     4  11  21  34  53  92 129 159 202 263 313 384
#     4  10  19  34  62  95 118 151 208 266 307 378
#     4  12  19  35  61  94 120 166 213 256 322 385
#     4  10  19  35  64  90 119 160 217 259 309 374
#     4   8  19  38  58  88 124 156 201 261 309 371
#     4   8  18  38  60  86 113 165 216 255 301 379
#     4  11  23  34  54  91 139 158 195 273 329 362
#     4  10  20  37  63  84 122 175 205 251 323 379
#
# _framework density 21.263135999999999
#
# number of rings (size 3 to 8) (size 9 to 14) (size 15 to 20)
#    0.750    1.250    3.750    1.125    1.750    1.000 
#    2.250    1.250    0.000    6.000    0.000    0.000 
#    0.000    0.000    0.000    0.000    0.000    0.000 
#
# Total GULP energy -178220.981936 kJ/mol
# GULP energy per Si atom -5569.405686 kJ/mol
# Density = 2.121474 g / cm^3
# Si number density = 21.263136 Si / 1000 Ang^3
#
#
#
# Elastic Constant Matrix: (Units=GPa)
#
#
# Indices 1 2 3 4 5 6 
#
# 1 77.1870 45.5569 20.3930 0.0000 13.5970 0.0000
# 2 45.5569 127.5674 27.5256 0.0000 -3.3442 0.0000
# 3 20.3930 27.5256 97.0069 0.0000 13.7141 0.0000
# 4 0.0000 0.0000 0.0000 15.8191 0.0000 7.3483
# 5 13.5970 -3.3442 13.7141 0.0000 24.2228 0.0000
# 6 0.0000 0.0000 0.0000 7.3483 0.0000 37.2469
#
#
#
# Elastic Compliance Matrix: (Units=1/GPa)
#
#
# Indices 1 2 3 4 5 6 
#
# 1 0.019299 -0.007109 -0.000402 0.000000 -0.011587 0.000000
# 2 -0.007109 0.011136 -0.002660 0.000000 0.007034 0.000000
# 3 -0.000402 -0.002660 0.012139 0.000000 -0.007015 0.000000
# 4 0.000000 0.000000 0.000000 0.069593 0.000000 -0.013730
# 5 -0.011587 0.007034 -0.007015 0.000000 0.052730 0.000000
# 6 0.000000 0.000000 0.000000 -0.013730 0.000000 0.029557
#
#
# Mechanical properties :
#
#
# Convention : Reuss Voigt Hill
#
# Bulk Modulus (GPa) = 44.97811 54.30135 49.63973
# Shear Modulus (GPa) = 22.50172 29.34346 25.92259
#
# Velocity S-wave (km/s) = 3.25661 3.71889 3.49540
# Velocity P-wave (km/s) = 5.94472 6.63577 6.29972
#
# Compressibility (1/GPa) = 0.02223304
#
# Stress axis : x y z
#
# Youngs Moduli (GPa) = 51.81707 89.79831 82.37658
#
# Poissons Ratio (x) = 0.63838 0.03310
# Poissons Ratio (y) = 0.36837 0.21910
# Poissons Ratio (z) = 0.02082 0.23884
#
# Static dielectric constant tensor:
#      x y z
#    x 1.819270 0.000000 -0.018200 
#    y 0.000000 1.787720 0.000000 
#    z -0.018200 0.000000 1.824230 
# 
# From -- ./inp_files/108660.got.cif
#   From: 2010.05.17/outbox.cif.g08.bks.cpg/sg15_55_cif.got.tgz:108660.got - 2010.06.03 18:47:42.
