data_PCOD9263481
_publ_section_title
;
Structure prediction by ZEFSAII (Michael W. Deem and Ramdas Pophale) SiO2 
 PCOD9263481
Probable space group: C 2/C
;
_chemical_formula_sum "Si O2"
_cell_formula_units_Z 48
_cell_length_a 25.849521
_cell_length_b 16.192247
_cell_length_c 9.387594
_cell_angle_alpha 90.000000
_cell_angle_beta 146.828422
_cell_angle_gamma 90.000000
_cell_volume 2149.902638
_symmetry_space_group_name_H-M "C 2/C"
_symmetry_group_IT_number 15
_symmetry_cell_setting 'monoclinic'
loop_
_space_group_symop_operation_xyz
x,y,z
-x,y,1/2-z
-x,-y,-z
x,-y,1/2+z
1/2+x,1/2+y,z
1/2-x,1/2+y,1/2-z
1/2-x,1/2-y,-z
1/2+x,1/2-y,1/2+z
loop_
_atom_site_type_symbol
_atom_site_label
_atom_site_fract_x
_atom_site_fract_y
_atom_site_fract_z
Si Si1 0.864842 0.077556 0.351851
Si Si2 0.349980 0.241077 0.153800
Si Si3 0.396921 0.760742 0.445190
Si Si4 0.867037 0.920495 0.180795
Si Si5 0.365461 0.079345 0.348521
Si Si6 0.362337 0.082419 0.670361
O O1 0.886574 0.170467 0.352540
O O2 0.898458 0.071040 0.590990
O O3 0.751129 0.072608 0.095944
O O4 0.898363 0.999563 0.340412
O O5 0.334496 0.234714 0.946932
O O6 0.395443 0.159037 0.324795
O O7 0.250000 0.250000 0.000000
O O8 0.399623 0.328727 0.300300
O O9 0.500000 0.769012 0.750000
O O10 0.380163 0.833307 0.296128
O O11 0.750980 0.920227 0.918286
O O12 0.395390 0.082938 0.582573
O O13 0.396857 0.995927 0.341728
#
# Coordination Sequence:
#
# PCOD9263481 Si02
#       6
#     8   8   8   8   8   8
#     4   9  18  33  54  80 108 141 182 222 267 325
#     4   9  18  35  56  80 111 146 183 227 272 325
#     4  11  23  38  54  81 116 148 183 231 280 325
#     4   8  16  29  52  82 107 135 178 229 269 311
#     4   9  17  31  55  84 108 137 186 233 270 321
#     4  10  19  34  57  83 110 147 187 228 273 329
#
# _framework density 22.326592999999999
#
# number of rings (size 3 to 8) (size 9 to 14) (size 15 to 20)
#    0.000    2.667    0.000    2.500    0.000    5.333 
#    0.000    7.500    0.000    0.000    0.000    0.000 
#    0.000    0.000    0.000    0.000    0.000    0.000 
#
# Total GULP energy -134070.662132 kJ/mol
# GULP energy per Si atom -5586.277589 kJ/mol
# Density = 2.227578 g / cm^3
# Si number density = 22.326593 Si / 1000 Ang^3
#
#
#
# Elastic Constant Matrix: (Units=GPa)
#
#
# Indices 1 2 3 4 5 6 
#
# 1 92.3570 64.4485 27.4933 0.0000 -16.3452 0.0000
# 2 64.4485 281.9360 65.5135 0.0000 -69.0875 0.0000
# 3 27.4933 65.5135 48.8442 0.0000 -22.1886 0.0000
# 4 0.0000 0.0000 0.0000 36.4758 0.0000 -24.7676
# 5 -16.3452 -69.0875 -22.1886 0.0000 36.0852 0.0000
# 6 0.0000 0.0000 0.0000 -24.7676 0.0000 14.6450
#
#
#
# Elastic Compliance Matrix: (Units=1/GPa)
#
#
# Indices 1 2 3 4 5 6 
#
# 1 0.013737 -0.002219 -0.005355 0.000000 -0.001319 0.000000
# 2 -0.002219 0.007788 -0.003996 0.000000 0.011449 0.000000
# 3 -0.005355 -0.003996 0.033677 0.000000 0.010631 0.000000
# 4 0.000000 0.000000 0.000000 -0.184807 0.000000 -0.312545
# 5 -0.001319 0.011449 0.010631 0.000000 0.055571 0.000000
# 6 0.000000 0.000000 0.000000 -0.312545 0.000000 -0.460291
#
#
# Mechanical properties :
#
#
# Convention : Reuss Voigt Hill
#
# Bulk Modulus (GPa) = 31.19021 82.00529 56.59775
# Shear Modulus (GPa) = -9.99005 35.15334 12.58164
#
# Velocity S-wave (km/s) = -2.11760 3.97231 2.37645
# Velocity P-wave (km/s) = 2.83220 7.60583 5.73890
#
# Compressibility (1/GPa) = 0.03206134
#
# Stress axis : x y z
#
# Youngs Moduli (GPa) = 72.79794 128.39879 29.69391
#
# Poissons Ratio (x) = 0.28491 0.15901
# Poissons Ratio (y) = 0.16154 0.11867
# Poissons Ratio (z) = 0.38983 0.51313
#
# Static dielectric constant tensor:
#      x y z
#    x 1.890500 0.000000 0.045900 
#    y 0.000000 1.824570 0.000000 
#    z 0.045900 0.000000 1.804150 
# 
# From -- ./inp_files/70007.got.cif
#   From: 2010.05.17/outbox.cif.g08.bks.cpg/sg15_36_cif.got.tgz:70007.got - 2010.06.03 18:47:42.
