data_PCOD9263679
_publ_section_title
;
Structure prediction by ZEFSAII (Michael W. Deem and Ramdas Pophale) SiO2 
 PCOD9263679
Probable space group: C 2/C
;
_chemical_formula_sum "Si O2"
_cell_formula_units_Z 56
_cell_length_a 12.740428
_cell_length_b 15.852372
_cell_length_c 15.116926
_cell_angle_alpha 90.000000
_cell_angle_beta 87.766392
_cell_angle_gamma 90.000000
_cell_volume 3050.785473
_symmetry_space_group_name_H-M "C 2/C"
_symmetry_group_IT_number 15
_symmetry_cell_setting 'monoclinic'
loop_
_space_group_symop_operation_xyz
x,y,z
-x,y,1/2-z
-x,-y,-z
x,-y,1/2+z
1/2+x,1/2+y,z
1/2-x,1/2+y,1/2-z
1/2-x,1/2-y,-z
1/2+x,1/2-y,1/2+z
loop_
_atom_site_type_symbol
_atom_site_label
_atom_site_fract_x
_atom_site_fract_y
_atom_site_fract_z
Si Si1 0.199287 0.242170 0.788663
Si Si2 0.099582 0.377129 0.683207
Si Si3 0.252880 0.988883 0.391426
Si Si4 0.827899 0.304270 0.436330
Si Si5 0.991881 0.245318 0.562096
Si Si6 0.623898 0.426478 0.226516
Si Si7 0.407428 0.439421 0.468275
O O1 0.186423 0.330108 0.740237
O O2 0.306564 0.229554 0.838268
O O3 0.103201 0.232760 0.863142
O O4 0.176986 0.165886 0.722630
O O5 0.144408 0.462454 0.643467
O O6 0.000000 0.389986 0.750000
O O7 0.067091 0.312173 0.607343
O O8 0.187430 0.046598 0.460870
O O9 0.287541 0.900529 0.434578
O O10 0.180650 0.970453 0.307584
O O11 0.750000 0.250000 0.500000
O O12 0.940020 0.286650 0.476516
O O13 0.046174 0.155589 0.540644
O O14 0.500000 0.418194 0.250000
O O15 0.630058 0.465621 0.128931
O O16 0.500000 0.500000 0.500000
#
# Coordination Sequence:
#
# PCOD9263679 Si02
#       7
#     8   8   8   8   8   8   8
#     4   9  16  35  60  80 107 165 205 239 298 382
#     4  10  21  39  62  83 119 166 213 243 302 380
#     4  11  25  37  59  98 123 160 213 262 308 368
#     4   9  19  36  58  85 118 157 208 247 306 383
#     4  10  19  34  59  83 116 167 202 249 311 373
#     4  11  18  37  58  84 123 157 197 250 316 368
#     4  12  21  34  62  94 123 154 205 270 310 359
#
# _framework density 18.355929
#
# number of rings (size 3 to 8) (size 9 to 14) (size 15 to 20)
#    0.000    1.714    4.286    2.143    0.000    5.714 
#    0.000    0.000    3.143    0.000    0.000    0.000 
#    0.000    0.000    0.000    0.000    0.000    0.000 
#
# Total GULP energy -156115.447064 kJ/mol
# GULP energy per Si atom -5575.551681 kJ/mol
# Density = 1.831415 g / cm^3
# Si number density = 18.355929 Si / 1000 Ang^3
#
#
#
# Elastic Constant Matrix: (Units=GPa)
#
#
# Indices 1 2 3 4 5 6 
#
# 1 48.7682 38.6166 36.4050 0.0000 18.8980 0.0000
# 2 38.6166 113.2099 49.3650 0.0000 6.9393 0.0000
# 3 36.4050 49.3650 99.3773 0.0000 21.7962 0.0000
# 4 0.0000 0.0000 0.0000 32.4165 0.0000 3.1924
# 5 18.8980 6.9393 21.7962 0.0000 26.2103 0.0000
# 6 0.0000 0.0000 0.0000 3.1924 0.0000 18.3580
#
#
#
# Elastic Compliance Matrix: (Units=1/GPa)
#
#
# Indices 1 2 3 4 5 6 
#
# 1 0.041470 -0.010611 -0.004867 0.000000 -0.023044 0.000000
# 2 -0.010611 0.014081 -0.004853 0.000000 0.007958 0.000000
# 3 -0.004867 -0.004853 0.016150 0.000000 -0.008637 0.000000
# 4 0.000000 0.000000 0.000000 0.031386 0.000000 -0.005458
# 5 -0.023044 0.007958 -0.008637 0.000000 0.059843 0.000000
# 6 0.000000 0.000000 0.000000 -0.005458 0.000000 0.055421
#
#
# Mechanical properties :
#
#
# Convention : Reuss Voigt Hill
#
# Bulk Modulus (GPa) = 32.21636 56.68096 44.44866
# Shear Modulus (GPa) = 18.56253 24.52822 21.54538
#
# Velocity S-wave (km/s) = 3.18347 3.65945 3.42973
# Velocity P-wave (km/s) = 5.57689 6.98579 6.32072
#
# Compressibility (1/GPa) = 0.03104013
#
# Stress axis : x y z
#
# Youngs Moduli (GPa) = 24.11383 71.01786 61.91809
#
# Poissons Ratio (x) = 0.75358 0.30133
# Poissons Ratio (y) = 0.25587 0.30048
# Poissons Ratio (z) = 0.11735 0.34465
#
# Static dielectric constant tensor:
#      x y z
#    x 1.642220 0.000000 0.030560 
#    y 0.000000 1.634280 0.000000 
#    z 0.030560 0.000000 1.672770 
# 
# From -- ./inp_files/153443.got.cif
#   From: 2010.05.17/outbox.cif.g08.bks.cpg/sg15_77_cif.got.tgz:153443.got - 2010.06.03 18:47:42.
