data_PCOD9263081
_publ_section_title
;
Structure prediction by ZEFSAII (Michael W. Deem and Ramdas Pophale) SiO2 
 PCOD9263081
Probable space group: C 2/C
;
_chemical_formula_sum "Si O2"
_cell_formula_units_Z 36
_cell_length_a 14.395091
_cell_length_b 7.674493
_cell_length_c 24.302926
_cell_angle_alpha 90.000000
_cell_angle_beta 30.098660
_cell_angle_gamma 90.000000
_cell_volume 1346.434982
_symmetry_space_group_name_H-M "C 2/C"
_symmetry_group_IT_number 15
_symmetry_cell_setting 'monoclinic'
loop_
_space_group_symop_operation_xyz
x,y,z
-x,y,1/2-z
-x,-y,-z
x,-y,1/2+z
1/2+x,1/2+y,z
1/2-x,1/2+y,1/2-z
1/2-x,1/2-y,-z
1/2+x,1/2-y,1/2+z
loop_
_atom_site_type_symbol
_atom_site_label
_atom_site_fract_x
_atom_site_fract_y
_atom_site_fract_z
Si Si1 0.956567 0.236741 0.184136
Si Si2 0.215491 0.813735 0.417272
Si Si3 0.610304 0.895956 0.810618
Si Si4 0.130214 0.223694 0.473908
Si Si5 0.000000 0.243499 0.750000
O O1 0.835369 0.287597 0.300192
O O2 0.825667 0.104369 0.218789
O O3 0.957637 0.409333 0.147398
O O4 0.163546 0.213346 0.099531
O O5 0.011909 0.756295 0.503676
O O6 0.195753 0.020117 0.442639
O O7 0.579956 0.841142 0.763008
O O8 0.482847 0.775015 0.914090
O O9 0.312690 0.339629 0.369547
#
# Coordination Sequence:
#
# PCOD9263081 Si02
#       5
#     8   8   8   8   4
#     4  10  19  37  59  90 117 149 190 242 288 343
#     4   9  17  35  62  84 111 148 204 238 272 341
#     4  11  22  36  61  86 117 153 195 235 291 345
#     4  10  19  33  64  87 108 151 206 239 279 334
#     4  12  20  38  56  86 120 154 194 242 286 346
#
# _framework density 26.737273999999999
#
# number of rings (size 3 to 8) (size 9 to 14) (size 15 to 20)
#    0.000    1.778    4.444    0.667    0.000    0.000 
#    0.000    6.667    0.000    0.000    0.000    0.000 
#    0.000    0.000    0.000    0.000    0.000    0.000 
#
# Total GULP energy -100674.841704 kJ/mol
# GULP energy per Si atom -5593.046761 kJ/mol
# Density = 2.667642 g / cm^3
# Si number density = 26.737274 Si / 1000 Ang^3
#
#
#
# Elastic Constant Matrix: (Units=GPa)
#
#
# Indices 1 2 3 4 5 6 
#
# 1 181.9921 44.4644 75.5319 0.0000 -41.9909 0.0000
# 2 44.4644 62.7668 27.0865 0.0000 -10.3682 0.0001
# 3 75.5319 27.0865 148.1582 -0.0002 -23.3740 0.0000
# 4 0.0000 0.0000 -0.0002 14.7010 0.0000 4.6201
# 5 -41.9909 -10.3682 -23.3740 0.0000 84.4375 0.0000
# 6 0.0000 0.0001 0.0000 4.6201 0.0000 18.8240
#
#
#
# Elastic Compliance Matrix: (Units=1/GPa)
#
#
# Indices 1 2 3 4 5 6 
#
# 1 0.008458 -0.004186 -0.003099 0.000000 0.002834 0.000000
# 2 -0.004186 0.019507 -0.001446 0.000000 -0.000087 0.000000
# 3 -0.003099 -0.001446 0.008703 0.000000 0.000690 0.000000
# 4 0.000000 0.000000 0.000000 0.073708 0.000000 -0.018091
# 5 0.002834 -0.000087 0.000690 0.000000 0.013433 0.000000
# 6 0.000000 0.000000 0.000000 -0.018091 0.000000 0.057564
#
#
# Mechanical properties :
#
#
# Convention : Reuss Voigt Hill
#
# Bulk Modulus (GPa) = 52.06953 76.34252 64.20603
# Shear Modulus (GPa) = 24.36219 39.98145 32.17182
#
# Velocity S-wave (km/s) = 3.02183 3.87116 3.47256
# Velocity P-wave (km/s) = 5.62957 6.97109 6.33593
#
# Compressibility (1/GPa) = 0.01920509
#
# Stress axis : x y z
#
# Youngs Moduli (GPa) = 118.23606 51.26381 114.90438
#
# Poissons Ratio (x) = 0.21458 0.35613
# Poissons Ratio (y) = 0.49491 0.16615
# Poissons Ratio (z) = 0.36646 0.07413
#
# Static dielectric constant tensor:
#      x y z
#    x 2.082540 0.000000 -0.005060 
#    y 0.000000 2.082680 0.000000 
#    z -0.005060 0.000000 2.103020 
# 
# From -- ./inp_files/141657.got.cif
#   From: 2010.05.17/outbox.cif.g08.bks.cpg/sg15_71_cif.got.tgz:141657.got - 2010.06.03 18:47:42.
