data_PCOD9263369
_publ_section_title
;
Structure prediction by ZEFSAII (Michael W. Deem and Ramdas Pophale) SiO2 
 PCOD9263369
Probable space group: C 2/C
;
_chemical_formula_sum "Si O2"
_cell_formula_units_Z 32
_cell_length_a 7.402292
_cell_length_b 34.719307
_cell_length_c 5.068284
_cell_angle_alpha 90.000000
_cell_angle_beta 85.526614
_cell_angle_gamma 90.000000
_cell_volume 1298.593366
_symmetry_space_group_name_H-M "C 2/C"
_symmetry_group_IT_number 15
_symmetry_cell_setting 'monoclinic'
loop_
_space_group_symop_operation_xyz
x,y,z
-x,y,1/2-z
-x,-y,-z
x,-y,1/2+z
1/2+x,1/2+y,z
1/2-x,1/2+y,1/2-z
1/2-x,1/2-y,-z
1/2+x,1/2-y,1/2+z
loop_
_atom_site_type_symbol
_atom_site_label
_atom_site_fract_x
_atom_site_fract_y
_atom_site_fract_z
Si Si1 0.721443 0.862470 0.234729
Si Si2 0.781670 0.590690 0.271719
Si Si3 0.710790 0.223684 0.749169
Si Si4 0.706545 0.515763 0.621219
O O1 0.500000 0.863335 0.250000
O O2 0.770178 0.875528 0.521324
O O3 0.792275 0.818954 0.200149
O O4 0.778830 0.894080 0.008450
O O5 0.710293 0.552945 0.432386
O O6 0.000000 0.586763 0.250000
O O7 0.500000 0.215824 0.750000
O O8 0.750000 0.250000 0.500000
O O9 0.750000 0.250000 0.000000
O O10 0.500000 0.509962 0.750000
O O11 0.793768 0.484579 0.405518
#
# Coordination Sequence:
#
# PCOD9263369 Si02
#       4
#     8   8   8   8
#     4   9  19  35  56  82 112 147 186 235 294 347
#     4  10  19  34  56  80 106 141 188 235 281 339
#     4  11  22  39  62  88 121 160 202 248 302 361
#     4  10  21  36  53  76 109 146 181 224 286 349
#
# _framework density 24.642049
#
# number of rings (size 3 to 8) (size 9 to 14) (size 15 to 20)
#    0.000    2.000    0.000    3.750    0.000    5.000 
#    0.000    5.000    0.000    1.500    0.000    0.000 
#    0.000    0.000    0.000    0.000    0.000    0.000 
#
# Total GULP energy -89216.981443 kJ/mol
# GULP energy per Si atom -5576.061340 kJ/mol
# Density = 2.458596 g / cm^3
# Si number density = 24.642049 Si / 1000 Ang^3
#
#
#
# Elastic Constant Matrix: (Units=GPa)
#
#
# Indices 1 2 3 4 5 6 
#
# 1 61.5042 1.5691 12.1320 0.0000 -4.8640 0.0000
# 2 1.5691 164.8660 64.2267 0.0000 -23.8128 0.0000
# 3 12.1320 64.2267 219.0936 0.0000 -3.1226 0.0000
# 4 0.0000 0.0000 0.0000 48.3563 0.0000 -6.2425
# 5 -4.8640 -23.8128 -3.1226 0.0000 22.8471 0.0000
# 6 0.0000 0.0000 0.0000 -6.2425 0.0000 20.5052
#
#
#
# Elastic Compliance Matrix: (Units=1/GPa)
#
#
# Indices 1 2 3 4 5 6 
#
# 1 0.016806 0.000915 -0.001136 0.000000 0.004376 0.000000
# 2 0.000915 0.008177 -0.002328 0.000000 0.008399 0.000000
# 3 -0.001136 -0.002328 0.005282 0.000000 -0.001946 0.000000
# 4 0.000000 0.000000 0.000000 0.021526 0.000000 0.006553
# 5 0.004376 0.008399 -0.001946 0.000000 0.053189 0.000000
# 6 0.000000 0.000000 0.000000 0.006553 0.000000 0.050763
#
#
# Mechanical properties :
#
#
# Convention : Reuss Voigt Hill
#
# Bulk Modulus (GPa) = 39.73681 66.81324 53.27503
# Shear Modulus (GPa) = 29.54553 42.84411 36.19482
#
# Velocity S-wave (km/s) = 3.46640 4.17425 3.83668
# Velocity P-wave (km/s) = 5.67290 7.09963 6.42599
#
# Compressibility (1/GPa) = 0.02516558
#
# Stress axis : x y z
#
# Youngs Moduli (GPa) = 59.50272 122.29606 189.32630
#
# Poissons Ratio (x) = -0.11188 0.21515
# Poissons Ratio (y) = -0.05443 0.44075
# Poissons Ratio (z) = 0.06762 0.28470
#
# Static dielectric constant tensor:
#      x y z
#    x 2.090070 0.000000 0.085560 
#    y 0.000000 2.072200 0.000000 
#    z 0.085560 0.000000 1.917900 
# 
# From -- ./inp_files/2564.got.cif
#   From: 2010.05.17/outbox.cif.g08.bks.cpg/sg15_2_cif.got.tgz:2564.got - 2010.06.03 18:47:42.
