data_PCOD9263403
_publ_section_title
;
Structure prediction by ZEFSAII (Michael W. Deem and Ramdas Pophale) SiO2 
 PCOD9263403
Probable space group: C 2/C
;
_chemical_formula_sum "Si O2"
_cell_formula_units_Z 40
_cell_length_a 11.944263
_cell_length_b 20.417500
_cell_length_c 11.002741
_cell_angle_alpha 90.000000
_cell_angle_beta 44.652717
_cell_angle_gamma 90.000000
_cell_volume 1885.816513
_symmetry_space_group_name_H-M "C 2/C"
_symmetry_group_IT_number 15
_symmetry_cell_setting 'monoclinic'
loop_
_space_group_symop_operation_xyz
x,y,z
-x,y,1/2-z
-x,-y,-z
x,-y,1/2+z
1/2+x,1/2+y,z
1/2-x,1/2+y,1/2-z
1/2-x,1/2-y,-z
1/2+x,1/2-y,1/2+z
loop_
_atom_site_type_symbol
_atom_site_label
_atom_site_fract_x
_atom_site_fract_y
_atom_site_fract_z
Si Si1 0.389005 0.741900 0.575745
Si Si2 0.608496 0.155167 0.768270
Si Si3 0.298127 0.305077 0.560415
Si Si4 0.320357 0.026271 0.652188
Si Si5 0.194107 0.548018 0.098746
O O1 0.491482 0.790014 0.413347
O O2 0.265830 0.693704 0.604185
O O3 0.514994 0.699998 0.556239
O O4 0.291479 0.786033 0.745895
O O5 0.500000 0.120631 0.750000
O O6 0.662997 0.102519 0.825111
O O7 0.250000 0.250000 0.500000
O O8 0.246099 0.376738 0.561830
O O9 0.247509 0.018238 0.574573
O O10 0.500000 0.000000 0.500000
O O11 0.248460 0.989001 0.824030
O O12 0.000000 0.546470 0.250000
#
# Coordination Sequence:
#
# PCOD9263403 Si02
#       5
#     8   8   8   8   8
#     4  10  22  35  56  87 114 149 193 244 298 349
#     4  11  21  38  59  83 116 152 195 242 297 355
#     4  11  20  35  58  85 116 149 191 247 296 344
#     4  10  20  34  56  83 111 153 197 237 286 354
#     4  10  19  34  56  84 114 151 197 240 285 346
#
# _framework density 21.210971000000001
#
# number of rings (size 3 to 8) (size 9 to 14) (size 15 to 20)
#    0.000    1.600    0.000    9.000    0.000    0.000 
#    0.000    1.000    0.000    2.400    0.000    0.000 
#    0.000    0.000    0.000    0.000    0.000    0.000 
#
# Total GULP energy -111704.559010 kJ/mol
# GULP energy per Si atom -5585.227950 kJ/mol
# Density = 2.116269 g / cm^3
# Si number density = 21.210971 Si / 1000 Ang^3
#
#
#
# Elastic Constant Matrix: (Units=GPa)
#
#
# Indices 1 2 3 4 5 6 
#
# 1 99.3673 31.7651 33.8020 0.0000 23.5706 0.0000
# 2 31.7651 88.6170 33.8064 0.0000 2.4625 0.0000
# 3 33.8020 33.8064 52.2008 0.0000 9.4251 0.0000
# 4 0.0000 0.0000 0.0000 34.2014 0.0000 4.1764
# 5 23.5706 2.4625 9.4251 0.0000 33.4047 0.0000
# 6 0.0000 0.0000 0.0000 4.1764 0.0000 30.9300
#
#
#
# Elastic Compliance Matrix: (Units=1/GPa)
#
#
# Indices 1 2 3 4 5 6 
#
# 1 0.015215 -0.002726 -0.006516 0.000000 -0.008696 0.000000
# 2 -0.002726 0.015570 -0.008912 0.000000 0.003290 0.000000
# 3 -0.006516 -0.008912 0.029713 0.000000 -0.003128 0.000000
# 4 0.000000 0.000000 0.000000 0.029729 0.000000 -0.004014
# 5 -0.008696 0.003290 -0.003128 0.000000 0.036712 0.000000
# 6 0.000000 0.000000 0.000000 -0.004014 0.000000 0.032873
#
#
# Mechanical properties :
#
#
# Convention : Reuss Voigt Hill
#
# Bulk Modulus (GPa) = 41.34283 48.77023 45.05653
# Shear Modulus (GPa) = 24.48764 29.09466 26.79115
#
# Velocity S-wave (km/s) = 3.40145 3.70764 3.55784
# Velocity P-wave (km/s) = 5.91270 6.43208 6.17785
#
# Compressibility (1/GPa) = 0.02418799
#
# Stress axis : x y z
#
# Youngs Moduli (GPa) = 65.72637 64.22492 33.65504
#
# Poissons Ratio (x) = 0.17509 0.21931
# Poissons Ratio (y) = 0.17918 0.29995
# Poissons Ratio (z) = 0.42830 0.57240
#
# Static dielectric constant tensor:
#      x y z
#    x 1.802500 0.000000 0.049750 
#    y 0.000000 1.767960 0.000000 
#    z 0.049750 0.000000 1.771970 
# 
# From -- ./inp_files/30521.got.cif
#   From: 2010.05.17/outbox.cif.g08.bks.cpg/sg15_16_cif.got.tgz:30521.got - 2010.06.03 18:47:42.
