data_PCOD9263906
_publ_section_title
;
Structure prediction by ZEFSAII (Michael W. Deem and Ramdas Pophale) SiO2 
 PCOD9263906
Probable space group: C 2/C
;
_chemical_formula_sum "Si O2"
_cell_formula_units_Z 52
_cell_length_a 8.999162
_cell_length_b 10.987097
_cell_length_c 28.268284
_cell_angle_alpha 90.000000
_cell_angle_beta 123.685815
_cell_angle_gamma 90.000000
_cell_volume 2325.709894
_symmetry_space_group_name_H-M "C 2/C"
_symmetry_group_IT_number 15
_symmetry_cell_setting 'monoclinic'
loop_
_space_group_symop_operation_xyz
x,y,z
-x,y,1/2-z
-x,-y,-z
x,-y,1/2+z
1/2+x,1/2+y,z
1/2-x,1/2+y,1/2-z
1/2-x,1/2-y,-z
1/2+x,1/2-y,1/2+z
loop_
_atom_site_type_symbol
_atom_site_label
_atom_site_fract_x
_atom_site_fract_y
_atom_site_fract_z
Si Si1 0.629011 0.951643 0.662914
Si Si2 0.532282 0.228698 0.656842
Si Si3 0.025303 0.960054 0.058929
Si Si4 0.665328 0.813141 0.571029
Si Si5 0.000000 0.145771 0.250000
Si Si6 0.803045 0.339133 0.465281
Si Si7 0.790570 0.331230 0.638363
O O1 0.639947 0.903520 0.610913
O O2 0.825286 0.938138 0.718924
O O3 0.494356 0.865151 0.667473
O O4 0.548302 0.085855 0.651363
O O5 0.374106 0.290095 0.597561
O O6 0.489858 0.268244 0.702456
O O7 0.722893 0.283155 0.676098
O O8 0.831384 0.951551 0.050134
O O9 0.105142 0.823922 0.075453
O O10 0.168592 0.051606 0.105620
O O11 0.000000 0.000000 0.000000
O O12 0.516220 0.854069 0.506850
O O13 0.750000 0.250000 0.500000
O O14 0.756821 0.271201 0.408903
#
# Coordination Sequence:
#
# PCOD9263906 Si02
#       7
#     8   8   8   8   4   8   8
#     4  11  23  47  70  90 134 164 213 284 333 391
#     4  11  27  44  70 100 124 170 223 273 340 398
#     4  11  18  35  66  93 139 189 218 249 309 380
#     4  10  20  40  63  97 140 177 215 265 314 376
#     4  10  28  50  64  96 124 158 218 284 350 402
#     4  10  19  34  62  98 139 182 218 257 306 374
#     4  12  23  39  68 101 127 178 226 257 323 396
#
# _framework density 22.358765999999999
#
# number of rings (size 3 to 8) (size 9 to 14) (size 15 to 20)
#    0.000    1.231    7.692    0.000    0.000    6.154 
#    0.000    1.538    0.000    0.000    0.000    0.000 
#    0.000    0.000    0.000    0.000    0.000    0.000 
#
# Total GULP energy -145338.076428 kJ/mol
# GULP energy per Si atom -5589.926016 kJ/mol
# Density = 2.230788 g / cm^3
# Si number density = 22.358766 Si / 1000 Ang^3
#
#
#
# Elastic Constant Matrix: (Units=GPa)
#
#
# Indices 1 2 3 4 5 6 
#
# 1 132.0537 31.4918 32.8944 0.0000 35.4130 0.0000
# 2 31.4918 94.8999 26.1976 0.0000 5.7914 0.0000
# 3 32.8944 26.1976 55.5978 0.0000 27.2459 0.0000
# 4 0.0000 0.0000 0.0000 13.2336 0.0000 1.5720
# 5 35.4130 5.7914 27.2459 0.0000 44.3957 0.0000
# 6 0.0000 0.0000 0.0000 1.5720 0.0000 38.8411
#
#
#
# Elastic Compliance Matrix: (Units=1/GPa)
#
#
# Indices 1 2 3 4 5 6 
#
# 1 0.010474 -0.002636 -0.001472 0.000000 -0.007108 0.000000
# 2 -0.002636 0.013016 -0.006824 0.000000 0.004592 0.000000
# 3 -0.001472 -0.006824 0.030119 0.000000 -0.016420 0.000000
# 4 0.000000 0.000000 0.000000 0.075930 0.000000 -0.003073
# 5 -0.007108 0.004592 -0.016420 0.000000 0.037672 0.000000
# 6 0.000000 0.000000 0.000000 -0.003073 0.000000 0.025870
#
#
# Mechanical properties :
#
#
# Convention : Reuss Voigt Hill
#
# Bulk Modulus (GPa) = 31.50034 51.52432 41.51233
# Shear Modulus (GPa) = 22.17030 32.09192 27.13111
#
# Velocity S-wave (km/s) = 3.15234 3.79267 3.48723
# Velocity P-wave (km/s) = 5.23152 6.50181 5.90094
#
# Compressibility (1/GPa) = 0.03174569
#
# Stress axis : x y z
#
# Youngs Moduli (GPa) = 95.47532 76.83088 33.20118
#
# Poissons Ratio (x) = 0.20250 0.04887
# Poissons Ratio (y) = 0.25164 0.22657
# Poissons Ratio (z) = 0.14053 0.52430
#
# Static dielectric constant tensor:
#      x y z
#    x 1.876300 0.000000 0.032800 
#    y 0.000000 1.892710 0.000000 
#    z 0.032800 0.000000 1.812430 
# 
# From -- ./inp_files/307299.got.cif
#   From: 2010.05.17/outbox.cif.g08.bks.cpg/sg15_154_cif.got.tgz:307299.got - 2010.06.03 18:47:42.
