data_PCOD9263651
_publ_section_title
;
Structure prediction by ZEFSAII (Michael W. Deem and Ramdas Pophale) SiO2 
 PCOD9263651
Probable space group: C 2/C
;
_chemical_formula_sum "Si O2"
_cell_formula_units_Z 48
_cell_length_a 11.834657
_cell_length_b 17.703671
_cell_length_c 16.262947
_cell_angle_alpha 90.000000
_cell_angle_beta 36.798879
_cell_angle_gamma 90.000000
_cell_volume 2041.036755
_symmetry_space_group_name_H-M "C 2/C"
_symmetry_group_IT_number 15
_symmetry_cell_setting 'monoclinic'
loop_
_space_group_symop_operation_xyz
x,y,z
-x,y,1/2-z
-x,-y,-z
x,-y,1/2+z
1/2+x,1/2+y,z
1/2-x,1/2+y,1/2-z
1/2-x,1/2-y,-z
1/2+x,1/2-y,1/2+z
loop_
_atom_site_type_symbol
_atom_site_label
_atom_site_fract_x
_atom_site_fract_y
_atom_site_fract_z
Si Si1 0.719425 0.945913 0.603742
Si Si2 0.777855 0.281840 0.892805
Si Si3 0.714204 0.529288 0.625374
Si Si4 0.812969 0.142733 0.398386
Si Si5 0.228864 0.391897 0.131005
Si Si6 0.121382 0.341812 0.363088
O O1 0.500000 0.940315 0.750000
O O2 0.810090 0.865098 0.568994
O O3 0.721838 0.958709 0.504843
O O4 0.791088 0.020966 0.607095
O O5 0.701704 0.221853 0.873939
O O6 0.000000 0.287903 0.750000
O O7 0.750000 0.250000 0.000000
O O8 0.500000 0.559416 0.750000
O O9 0.702615 0.438564 0.640024
O O10 0.837923 0.576455 0.617586
O O11 0.828395 0.133522 0.488468
O O12 0.601968 0.174318 0.513014
O O13 0.000000 0.180513 0.250000
O O14 0.231987 0.344045 0.212139
O O15 0.000000 0.395678 0.250000
#
# Coordination Sequence:
#
# PCOD9263651 Si02
#       6
#     8   8   8   8   8   8
#     4   9  18  35  57  85 132 164 199 262 314 373
#     4  11  23  40  63  93 138 167 205 256 326 399
#     4  10  19  34  58  89 135 164 201 263 323 381
#     4   9  19  36  57  90 128 164 217 273 304 361
#     4   8  17  35  59  89 128 165 208 262 314 372
#     4  11  20  35  61  93 128 177 208 252 335 384
#
# _framework density 23.517458999999999
#
# number of rings (size 3 to 8) (size 9 to 14) (size 15 to 20)
#    0.000    2.333    1.667    2.000    0.000    0.000 
#    0.000   10.833    0.000    0.000    0.000   22.167 
#    0.000    0.000    0.000    0.000    0.000    0.000 
#
# Total GULP energy -134083.638182 kJ/mol
# GULP energy per Si atom -5586.818258 kJ/mol
# Density = 2.346393 g / cm^3
# Si number density = 23.517459 Si / 1000 Ang^3
#
#
#
# Elastic Constant Matrix: (Units=GPa)
#
#
# Indices 1 2 3 4 5 6 
#
# 1 74.7801 38.9378 38.9119 -0.0024 4.9127 0.0012
# 2 38.9378 75.2802 13.3351 -0.0059 19.6108 0.0039
# 3 38.9119 13.3351 176.6934 -0.0079 0.6150 0.0039
# 4 -0.0024 -0.0059 -0.0079 14.8419 0.0060 14.9603
# 5 4.9127 19.6108 0.6150 0.0060 38.3203 -0.0026
# 6 0.0012 0.0039 0.0039 14.9603 -0.0026 24.6663
#
#
#
# Elastic Compliance Matrix: (Units=1/GPa)
#
#
# Indices 1 2 3 4 5 6 
#
# 1 0.020793 -0.010856 -0.003770 -0.000015 0.002950 0.000011
# 2 -0.010856 0.021223 0.000822 0.000038 -0.009483 -0.000027
# 3 -0.003770 0.000822 0.006428 0.000011 -0.000040 -0.000007
# 4 -0.000015 0.000038 0.000011 0.173360 -0.000052 -0.105145
# 5 0.002950 -0.009483 -0.000040 -0.000052 0.030571 0.000036
# 6 0.000011 -0.000027 -0.000007 -0.105145 0.000036 0.104312
#
#
# Mechanical properties :
#
#
# Convention : Reuss Voigt Hill
#
# Bulk Modulus (GPa) = 47.99237 56.56923 52.28080
# Shear Modulus (GPa) = 12.77984 31.27030 22.02507
#
# Velocity S-wave (km/s) = 2.33366 3.65041 3.06362
# Velocity P-wave (km/s) = 5.26429 6.47099 5.89858
#
# Compressibility (1/GPa) = 0.02083665
#
# Stress axis : x y z
#
# Youngs Moduli (GPa) = 48.09302 47.11774 155.57215
#
# Poissons Ratio (x) = 0.51150 0.58652
# Poissons Ratio (y) = 0.52208 -0.12787
# Poissons Ratio (z) = 0.18131 -0.03873
#
# Static dielectric constant tensor:
#      x y z
#    x 1.875350 0.000000 -0.046150 
#    y 0.000000 1.982170 0.000000 
#    z -0.046150 0.000000 1.845210 
# 
# From -- ./inp_files/147353.got.cif
#   From: 2010.05.17/outbox.cif.g08.bks.cpg/sg15_74_cif.got.tgz:147353.got - 2010.06.03 18:47:42.
