data_PCOD9263743
_publ_section_title
;
Structure prediction by ZEFSAII (Michael W. Deem and Ramdas Pophale) SiO2 
 PCOD9263743
Probable space group: C 2/C
;
_chemical_formula_sum "Si O2"
_cell_formula_units_Z 60
_cell_length_a 27.935137
_cell_length_b 18.977610
_cell_length_c 13.862318
_cell_angle_alpha 90.000000
_cell_angle_beta 154.972745
_cell_angle_gamma 90.000000
_cell_volume 3108.989083
_symmetry_space_group_name_H-M "C 2/C"
_symmetry_group_IT_number 15
_symmetry_cell_setting 'monoclinic'
loop_
_space_group_symop_operation_xyz
x,y,z
-x,y,1/2-z
-x,-y,-z
x,-y,1/2+z
1/2+x,1/2+y,z
1/2-x,1/2+y,1/2-z
1/2-x,1/2-y,-z
1/2+x,1/2-y,1/2+z
loop_
_atom_site_type_symbol
_atom_site_label
_atom_site_fract_x
_atom_site_fract_y
_atom_site_fract_z
Si Si1 0.225366 0.746410 0.304480
Si Si2 0.453101 0.664696 0.451729
Si Si3 0.889769 0.515689 0.231646
Si Si4 0.000000 0.412793 0.750000
Si Si5 0.294113 0.860881 0.043314
Si Si6 0.198958 0.867009 0.417250
Si Si7 0.977259 0.746255 0.813979
Si Si8 0.361194 0.200574 0.873240
O O1 0.225929 0.814940 0.375646
O O2 0.294417 0.683766 0.478309
O O3 0.271898 0.768466 0.285939
O O4 0.097774 0.717503 0.069541
O O5 0.563941 0.616694 0.666317
O O6 0.451835 0.690805 0.339232
O O7 0.451210 0.737961 0.509473
O O8 0.326263 0.637026 0.229903
O O9 0.930208 0.541511 0.199813
O O10 0.832271 0.440269 0.121385
O O11 0.000000 0.500000 0.500000
O O12 0.794536 0.572401 0.093320
O O13 0.923430 0.362502 0.542430
O O14 0.383070 0.813478 0.146776
O O15 0.303507 0.825202 0.167883
O O16 0.000000 0.773869 0.750000
#
# Coordination Sequence:
#
# PCOD9263743 Si02
#       8
#     8   8   8   4   8   8   8   8
#     4  10  19  35  63  90 121 152 210 265 307 362
#     4  10  22  38  61  92 125 161 208 261 322 368
#     4  12  25  44  63  92 130 167 214 260 315 387
#     4  12  24  40  68  90 122 170 214 264 322 378
#     4  11  23  39  60  91 134 168 203 254 321 386
#     4  10  22  38  59  92 119 161 209 259 308 368
#     4  10  19  34  59  93 123 156 204 263 315 360
#     4  11  20  39  64  94 123 163 209 265 325 376
#
# _framework density 19.298877999999998
#
# number of rings (size 3 to 8) (size 9 to 14) (size 15 to 20)
#    0.000    1.333    2.667    4.800    4.667    0.533 
#    2.400    0.000    0.000    0.000    3.467    0.000 
#    0.000    0.000    0.000    0.000    0.000    0.000 
#
# Total GULP energy -167265.454377 kJ/mol
# GULP energy per Si atom -5575.515146 kJ/mol
# Density = 1.925495 g / cm^3
# Si number density = 19.298878 Si / 1000 Ang^3
#
#
#
# Elastic Constant Matrix: (Units=GPa)
#
#
# Indices 1 2 3 4 5 6 
#
# 1 82.9062 31.0556 7.6051 0.0000 7.2831 0.0000
# 2 31.0556 75.2461 42.8062 0.0000 10.7784 0.0000
# 3 7.6051 42.8062 121.1585 0.0000 20.7801 0.0000
# 4 0.0000 0.0000 0.0000 27.4770 0.0000 -2.6350
# 5 7.2831 10.7784 20.7801 0.0000 26.6130 0.0000
# 6 0.0000 0.0000 0.0000 -2.6350 0.0000 13.9504
#
#
#
# Elastic Compliance Matrix: (Units=1/GPa)
#
#
# Indices 1 2 3 4 5 6 
#
# 1 0.014660 -0.006758 0.001947 0.000000 -0.002795 0.000000
# 2 -0.006758 0.019891 -0.006395 0.000000 -0.001213 0.000000
# 3 0.001947 -0.006395 0.011590 0.000000 -0.006993 0.000000
# 4 0.000000 0.000000 0.000000 0.037065 0.000000 0.007001
# 5 -0.002795 -0.001213 -0.006993 0.000000 0.044292 0.000000
# 6 0.000000 0.000000 0.000000 0.007001 0.000000 0.073005
#
#
# Mechanical properties :
#
#
# Convention : Reuss Voigt Hill
#
# Bulk Modulus (GPa) = 42.14323 49.13829 45.64076
# Shear Modulus (GPa) = 21.66145 26.79768 24.22957
#
# Velocity S-wave (km/s) = 3.35389 3.73038 3.54713
# Velocity P-wave (km/s) = 6.07311 6.63863 6.36215
#
# Compressibility (1/GPa) = 0.02372861
#
# Stress axis : x y z
#
# Youngs Moduli (GPa) = 68.21235 50.27489 86.27928
#
# Poissons Ratio (x) = 0.33974 -0.16796
# Poissons Ratio (y) = 0.46095 0.55178
# Poissons Ratio (z) = -0.13279 0.32152
#
# Static dielectric constant tensor:
#      x y z
#    x 1.691660 0.000000 -0.000980 
#    y 0.000000 1.642440 0.000000 
#    z -0.000980 0.000000 1.773060 
# 
# From -- ./inp_files/183091.got.cif
#   From: 2010.05.17/outbox.cif.g08.bks.cpg/sg15_92_cif.got.tgz:183091.got - 2010.06.03 18:47:42.
