data_PCOD9263447
_publ_section_title
;
Structure prediction by ZEFSAII (Michael W. Deem and Ramdas Pophale) SiO2 
 PCOD9263447
Probable space group: C 2/C
;
_chemical_formula_sum "Si O2"
_cell_formula_units_Z 60
_cell_length_a 15.586115
_cell_length_b 16.517004
_cell_length_c 10.658458
_cell_angle_alpha 90.000000
_cell_angle_beta 108.196931
_cell_angle_gamma 90.000000
_cell_volume 2606.645697
_symmetry_space_group_name_H-M "C 2/C"
_symmetry_group_IT_number 15
_symmetry_cell_setting 'monoclinic'
loop_
_space_group_symop_operation_xyz
x,y,z
-x,y,1/2-z
-x,-y,-z
x,-y,1/2+z
1/2+x,1/2+y,z
1/2-x,1/2+y,1/2-z
1/2-x,1/2-y,-z
1/2+x,1/2-y,1/2+z
loop_
_atom_site_type_symbol
_atom_site_label
_atom_site_fract_x
_atom_site_fract_y
_atom_site_fract_z
Si Si1 0.377829 0.696222 0.561820
Si Si2 0.276340 0.165070 0.666530
Si Si3 0.500000 0.563044 0.750000
Si Si4 0.849302 0.322913 0.931699
Si Si5 0.670402 0.489470 0.210365
Si Si6 0.602159 0.873922 0.809557
Si Si7 0.957839 0.269868 0.363166
Si Si8 0.244846 0.061912 0.994465
O O1 0.437933 0.624069 0.644417
O O2 0.393494 0.780703 0.640189
O O3 0.408198 0.708194 0.432927
O O4 0.279896 0.657116 0.538955
O O5 0.215797 0.246565 0.632227
O O6 0.305801 0.143229 0.538557
O O7 0.209941 0.097857 0.689189
O O8 0.372060 0.173482 0.784288
O O9 0.435771 0.511863 0.810503
O O10 0.853821 0.375294 0.808167
O O11 0.953751 0.300799 0.018404
O O12 0.695674 0.542486 0.103035
O O13 0.714557 0.496339 0.369012
O O14 0.500000 0.897700 0.750000
O O15 0.650443 0.934369 0.926961
O O16 0.000000 0.240157 0.250000
#
# Coordination Sequence:
#
# PCOD9263447 Si02
#       8
#     8   8   4   8   8   8   8   8
#     4  11  19  39  65  98 129 163 219 285 339 389
#     4  10  21  37  64  90 138 173 213 276 336 402
#     4  10  22  42  70  98 128 176 214 282 342 390
#     4  10  20  36  62 101 127 168 216 275 349 395
#     4  11  25  46  65  93 136 178 226 263 324 410
#     4  12  22  39  70  99 129 164 227 283 334 391
#     4  10  19  34  56  99 130 165 210 273 344 398
#     4  11  27  43  66  94 132 184 224 267 336 391
#
# _framework density 23.018087999999999
#
# number of rings (size 3 to 8) (size 9 to 14) (size 15 to 20)
#    0.000    1.333    2.000    4.400    1.867    2.133 
#    3.600    2.667    0.000    0.000    0.000    0.000 
#    0.000    0.000    0.000    0.000    0.000    0.000 
#
# Total GULP energy -167481.945993 kJ/mol
# GULP energy per Si atom -5582.731533 kJ/mol
# Density = 2.296570 g / cm^3
# Si number density = 23.018088 Si / 1000 Ang^3
#
#
#
# Elastic Constant Matrix: (Units=GPa)
#
#
# Indices 1 2 3 4 5 6 
#
# 1 109.2503 6.4619 25.4330 0.0000 2.1501 0.0000
# 2 6.4619 9.4863 4.5098 0.0000 0.4529 0.0000
# 3 25.4330 4.5098 92.3892 0.0000 -1.6479 0.0000
# 4 0.0000 0.0000 0.0000 -2.7959 0.0000 9.9898
# 5 2.1501 0.4529 -1.6479 0.0000 53.4204 0.0000
# 6 0.0000 0.0000 0.0000 9.9898 0.0000 8.2791
#
#
#
# Elastic Compliance Matrix: (Units=1/GPa)
#
#
# Indices 1 2 3 4 5 6 
#
# 1 0.010080 -0.005654 -0.002507 0.000000 -0.000435 0.000000
# 2 -0.005654 0.111153 -0.003884 0.000000 -0.000835 0.000000
# 3 -0.002507 -0.003884 0.011712 0.000000 0.000495 0.000000
# 4 0.000000 0.000000 0.000000 -0.067341 0.000000 0.081255
# 5 -0.000435 -0.000835 0.000495 0.000000 0.018759 0.000000
# 6 0.000000 0.000000 0.000000 0.081255 0.000000 0.022741
#
#
# Mechanical properties :
#
#
# Convention : Reuss Voigt Hill
#
# Bulk Modulus (GPa) = 9.18645 31.54836 20.36741
# Shear Modulus (GPa) = 29.85446 23.42880 26.64163
#
# Velocity S-wave (km/s) = 3.60530 3.19383 3.40578
# Velocity P-wave (km/s) = 4.61850 5.22842 4.93289
#
# Compressibility (1/GPa) = 0.10885592
#
# Stress axis : x y z
#
# Youngs Moduli (GPa) = 99.20854 8.99660 85.38096
#
# Poissons Ratio (x) = 0.05087 0.21401
# Poissons Ratio (y) = 0.56091 0.33164
# Poissons Ratio (z) = 0.24867 0.03495
#
# Static dielectric constant tensor:
#      x y z
#    x 1.897600 0.000000 0.074400 
#    y 0.000000 1.837160 0.000000 
#    z 0.074400 0.000000 1.901880 
# 
# From -- ./inp_files/98808.got.cif
#   From: 2010.05.17/outbox.cif.g08.bks.cpg/sg15_50_cif.got.tgz:98808.got - 2010.06.03 18:47:42.
