data_PCOD9263649
_publ_section_title
;
Structure prediction by ZEFSAII (Michael W. Deem and Ramdas Pophale) SiO2 
 PCOD9263649
Probable space group: C 2/C
;
_chemical_formula_sum "Si O2"
_cell_formula_units_Z 52
_cell_length_a 20.731682
_cell_length_b 12.951997
_cell_length_c 14.138895
_cell_angle_alpha 90.000000
_cell_angle_beta 40.378181
_cell_angle_gamma 90.000000
_cell_volume 2459.504935
_symmetry_space_group_name_H-M "C 2/C"
_symmetry_group_IT_number 15
_symmetry_cell_setting 'monoclinic'
loop_
_space_group_symop_operation_xyz
x,y,z
-x,y,1/2-z
-x,-y,-z
x,-y,1/2+z
1/2+x,1/2+y,z
1/2-x,1/2+y,1/2-z
1/2-x,1/2-y,-z
1/2+x,1/2-y,1/2+z
loop_
_atom_site_type_symbol
_atom_site_label
_atom_site_fract_x
_atom_site_fract_y
_atom_site_fract_z
Si Si1 0.500000 0.295311 0.250000
Si Si2 0.793459 0.545091 0.025470
Si Si3 0.209036 0.322970 0.130380
Si Si4 0.722161 0.327077 0.768663
Si Si5 0.870871 0.960985 0.059907
Si Si6 0.194966 0.300666 0.471532
Si Si7 0.080498 0.975450 0.278027
O O1 0.421208 0.232057 0.398830
O O2 0.567675 0.371832 0.234919
O O3 0.801944 0.615291 0.110646
O O4 0.809905 0.424400 0.023307
O O5 0.673573 0.542492 0.140461
O O6 0.845559 0.591268 0.873894
O O7 0.161857 0.245424 0.260741
O O8 0.292380 0.385858 0.097666
O O9 0.250000 0.250000 0.000000
O O10 0.669597 0.421145 0.883404
O O11 0.750016 0.248196 0.819682
O O12 0.897630 0.940581 0.139130
O O13 0.976345 0.964841 0.889624
O O14 0.250000 0.250000 0.500000
#
# Coordination Sequence:
#
# PCOD9263649 Si02
#       7
#     4   8   8   8   8   8   8
#     4  12  22  36  56  90 124 156 212 238 314 366
#     4  10  21  38  61  90 118 157 198 252 311 358
#     4  10  21  37  59  89 125 162 200 247 308 374
#     4  10  20  36  60  87 119 158 198 245 306 365
#     4  10  19  34  58  90 126 152 200 258 320 354
#     4  12  23  37  61  87 120 161 198 249 307 367
#     4  10  19  34  58  89 126 147 200 276 310 350
#
# _framework density 21.142467
#
# number of rings (size 3 to 8) (size 9 to 14) (size 15 to 20)
#    0.000    1.538    3.077    3.692    0.000    0.000 
#    0.000    0.000    0.000   24.000    0.000    0.000 
#    0.000    0.000    0.000    0.000    0.000    0.000 
#
# Total GULP energy -144747.862511 kJ/mol
# GULP energy per Si atom -5567.225481 kJ/mol
# Density = 2.109435 g / cm^3
# Si number density = 21.142467 Si / 1000 Ang^3
#
#
#
# Elastic Constant Matrix: (Units=GPa)
#
#
# Indices 1 2 3 4 5 6 
#
# 1 56.3179 38.0028 14.7662 0.0000 29.5482 0.0000
# 2 38.0028 141.3804 21.7802 0.0000 21.4760 0.0000
# 3 14.7662 21.7802 37.9373 0.0000 14.1857 0.0000
# 4 0.0000 0.0000 0.0000 26.3175 0.0000 14.3769
# 5 29.5482 21.4760 14.1857 0.0000 41.1629 0.0000
# 6 0.0000 0.0000 0.0000 14.3769 0.0000 38.3718
#
#
#
# Elastic Compliance Matrix: (Units=1/GPa)
#
#
# Indices 1 2 3 4 5 6 
#
# 1 0.032207 -0.005352 -0.002138 0.000000 -0.019590 0.000000
# 2 -0.005352 0.008959 -0.003156 0.000000 0.000255 0.000000
# 3 -0.002138 -0.003156 0.031928 0.000000 -0.007822 0.000000
# 4 0.000000 0.000000 0.000000 0.047776 0.000000 -0.017901
# 5 -0.019590 0.000255 -0.007822 0.000000 0.040919 0.000000
# 6 0.000000 0.000000 0.000000 -0.017901 0.000000 0.032768
#
#
# Mechanical properties :
#
#
# Convention : Reuss Voigt Hill
#
# Bulk Modulus (GPa) = 19.30409 42.74822 31.02615
# Shear Modulus (GPa) = 21.44863 31.90954 26.67908
#
# Velocity S-wave (km/s) = 3.18855 3.88914 3.55614
# Velocity P-wave (km/s) = 4.76509 6.35848 5.61855
#
# Compressibility (1/GPa) = 0.05180249
#
# Stress axis : x y z
#
# Youngs Moduli (GPa) = 31.04959 111.61807 31.32047
#
# Poissons Ratio (x) = 0.59738 0.06696
# Poissons Ratio (y) = 0.16618 0.09884
# Poissons Ratio (z) = 0.06638 0.35225
#
# Static dielectric constant tensor:
#      x y z
#    x 1.803090 0.000000 0.013390 
#    y 0.000000 1.839430 0.000000 
#    z 0.013390 0.000000 1.839050 
# 
# From -- ./inp_files/167554.got.cif
#   From: 2010.05.17/outbox.cif.g08.bks.cpg/sg15_84_cif.got.tgz:167554.got - 2010.06.03 18:47:42.
