data_PCOD9263253
_publ_section_title
;
Structure prediction by ZEFSAII (Michael W. Deem and Ramdas Pophale) SiO2 
 PCOD9263253
Probable space group: C 2/C
;
_chemical_formula_sum "Si O2"
_cell_formula_units_Z 60
_cell_length_a 10.988448
_cell_length_b 25.792050
_cell_length_c 11.982939
_cell_angle_alpha 90.000000
_cell_angle_beta 116.676688
_cell_angle_gamma 90.000000
_cell_volume 3034.634801
_symmetry_space_group_name_H-M "C 2/C"
_symmetry_group_IT_number 15
_symmetry_cell_setting 'monoclinic'
loop_
_space_group_symop_operation_xyz
x,y,z
-x,y,1/2-z
-x,-y,-z
x,-y,1/2+z
1/2+x,1/2+y,z
1/2-x,1/2+y,1/2-z
1/2-x,1/2-y,-z
1/2+x,1/2-y,1/2+z
loop_
_atom_site_type_symbol
_atom_site_label
_atom_site_fract_x
_atom_site_fract_y
_atom_site_fract_z
Si Si1 0.565981 0.277695 0.974662
Si Si2 0.849093 0.849084 0.305049
Si Si3 0.866085 0.005086 0.023540
Si Si4 0.187024 0.156828 0.180450
Si Si5 0.851517 0.111947 0.562356
Si Si6 0.646435 0.917164 0.359944
Si Si7 0.818106 0.670034 0.454863
Si Si8 0.000000 0.080912 0.250000
O O1 0.413327 0.295142 0.886062
O O2 0.668640 0.310704 0.937590
O O3 0.616203 0.294997 0.119487
O O4 0.586208 0.216953 0.967076
O O5 0.828580 0.854828 0.164704
O O6 0.722547 0.876234 0.311176
O O7 0.985742 0.881644 0.391149
O O8 0.905320 0.044399 0.137407
O O9 0.827897 0.949306 0.058959
O O10 0.740994 0.032348 0.909159
O O11 0.000000 0.000000 0.000000
O O12 0.305372 0.167809 0.316605
O O13 0.090948 0.115172 0.204554
O O14 0.225569 0.134131 0.076464
O O15 0.500000 0.929247 0.250000
O O16 0.641862 0.884375 0.473554
#
# Coordination Sequence:
#
# PCOD9263253 Si02
#       8
#     8   8   8   8   8   8   8   4
#     4   9  18  30  55  82 113 149 195 250 310 354
#     4   9  18  37  55  88 118 153 202 259 304 358
#     4  12  21  34  60  93 116 160 207 251 309 357
#     4  11  18  33  54  86 119 145 197 260 296 347
#     4  10  20  33  61  86 118 154 205 262 297 346
#     4  11  23  39  57  86 128 158 199 255 311 371
#     4  10  19  34  54  83 114 153 193 246 310 357
#     4  12  18  32  56  88 122 138 198 268 290 340
#
# _framework density 19.771737000000002
#
# number of rings (size 3 to 8) (size 9 to 14) (size 15 to 20)
#    0.000    1.600    5.333    1.600    0.000    3.200 
#    0.000    1.333    0.000    3.200    0.000    0.000 
#    0.000    0.000    0.000    0.000    0.000    0.000 
#
# Total GULP energy -167401.955003 kJ/mol
# GULP energy per Si atom -5580.065167 kJ/mol
# Density = 1.972674 g / cm^3
# Si number density = 19.771737 Si / 1000 Ang^3
#
#
#
# Elastic Constant Matrix: (Units=GPa)
#
#
# Indices 1 2 3 4 5 6 
#
# 1 32.7917 6.9783 21.1118 0.0000 11.7278 0.0000
# 2 6.9783 60.9489 13.2274 0.0000 4.2480 0.0000
# 3 21.1118 13.2274 117.4510 0.0000 -4.8538 0.0000
# 4 0.0000 0.0000 0.0000 14.6895 0.0000 -6.9742
# 5 11.7278 4.2480 -4.8538 0.0000 28.4675 0.0000
# 6 0.0000 0.0000 0.0000 -6.9742 0.0000 4.6447
#
#
#
# Elastic Compliance Matrix: (Units=1/GPa)
#
#
# Indices 1 2 3 4 5 6 
#
# 1 0.042961 -0.001805 -0.008298 0.000000 -0.018844 0.000000
# 2 -0.001805 0.017127 -0.001691 0.000000 -0.002101 0.000000
# 3 -0.008298 -0.001691 0.010421 0.000000 0.005448 0.000000
# 4 0.000000 0.000000 0.000000 0.237117 0.000000 0.356044
# 5 -0.018844 -0.002101 0.005448 0.000000 0.044134 0.000000
# 6 0.000000 0.000000 0.000000 0.356044 0.000000 0.749919
#
#
# Mechanical properties :
#
#
# Convention : Reuss Voigt Hill
#
# Bulk Modulus (GPa) = 21.31172 32.64742 26.97957
# Shear Modulus (GPa) = 4.38247 20.88527 12.63387
#
# Velocity S-wave (km/s) = 1.49042 3.25363 2.53056
# Velocity P-wave (km/s) = 3.71000 5.53740 4.71312
#
# Compressibility (1/GPa) = 0.04692254
#
# Stress axis : x y z
#
# Youngs Moduli (GPa) = 23.27668 58.38633 95.95691
#
# Poissons Ratio (x) = 0.10536 0.79624
# Poissons Ratio (y) = 0.04200 0.16230
# Poissons Ratio (z) = 0.19315 0.09875
#
# Static dielectric constant tensor:
#      x y z
#    x 1.699570 0.000000 -0.025760 
#    y 0.000000 1.695880 0.000000 
#    z -0.025760 0.000000 1.729650 
# 
# From -- ./inp_files/90871.got.cif
#   From: 2010.05.17/outbox.cif.g08.bks.cpg/sg15_46_cif.got.tgz:90871.got - 2010.06.03 18:47:42.
