data_PCOD9263663
_publ_section_title
;
Structure prediction by ZEFSAII (Michael W. Deem and Ramdas Pophale) SiO2 
 PCOD9263663
Probable space group: C 2/C
;
_chemical_formula_sum "Si O2"
_cell_formula_units_Z 40
_cell_length_a 13.567050
_cell_length_b 18.955943
_cell_length_c 16.250601
_cell_angle_alpha 90.000000
_cell_angle_beta 27.971731
_cell_angle_gamma 90.000000
_cell_volume 1960.226719
_symmetry_space_group_name_H-M "C 2/C"
_symmetry_group_IT_number 15
_symmetry_cell_setting 'monoclinic'
loop_
_space_group_symop_operation_xyz
x,y,z
-x,y,1/2-z
-x,-y,-z
x,-y,1/2+z
1/2+x,1/2+y,z
1/2-x,1/2+y,1/2-z
1/2-x,1/2-y,-z
1/2+x,1/2-y,1/2+z
loop_
_atom_site_type_symbol
_atom_site_label
_atom_site_fract_x
_atom_site_fract_y
_atom_site_fract_z
Si Si1 0.482443 0.164393 0.945640
Si Si2 0.303538 0.565479 0.448024
Si Si3 0.000000 0.213451 0.750000
Si Si4 0.000000 0.455231 0.750000
Si Si5 0.540254 0.835927 0.596656
Si Si6 0.737904 0.190065 0.611511
O O1 0.361656 0.098559 0.994935
O O2 0.498531 0.160531 0.031172
O O3 0.351608 0.235538 0.022260
O O4 0.700119 0.170245 0.734602
O O5 0.500000 0.541421 0.250000
O O6 0.190846 0.505386 0.583279
O O7 0.355207 0.630262 0.472149
O O8 0.044374 0.266148 0.794187
O O9 0.207194 0.169102 0.578328
O O10 0.952822 0.403371 0.708948
O O11 0.500000 0.192849 0.750000
#
# Coordination Sequence:
#
# PCOD9263663 Si02
#       6
#     8   8   4   4   8   8
#     4  11  19  35  61  93 121 153 209 258 289 353
#     4  11  22  40  61  87 127 167 194 242 310 365
#     4   9  20  42  60  90 117 158 206 254 315 336
#     4  11  24  44  60  86 129 166 202 238 311 372
#     4  10  22  38  66  88 120 159 204 257 297 360
#     4  10  19  34  58  93 125 157 195 250 310 352
#
# _framework density 20.405801
#
# number of rings (size 3 to 8) (size 9 to 14) (size 15 to 20)
#    0.000    1.600    3.000    5.400    1.400    0.800 
#    0.000    3.000    0.000    0.000    0.000    0.000 
#    0.000    0.000    0.000    0.000    0.000    0.000 
#
# Total GULP energy -111740.500703 kJ/mol
# GULP energy per Si atom -5587.025035 kJ/mol
# Density = 2.035936 g / cm^3
# Si number density = 20.405801 Si / 1000 Ang^3
#
#
#
# Elastic Constant Matrix: (Units=GPa)
#
#
# Indices 1 2 3 4 5 6 
#
# 1 64.1023 36.4217 25.9436 -0.0762 43.6028 0.0815
# 2 36.4217 96.5861 52.4691 0.0134 7.8966 0.0274
# 3 25.9436 52.4691 150.8904 0.0237 24.9911 0.0430
# 4 -0.0762 0.0134 0.0237 39.8871 0.0276 10.6644
# 5 43.6028 7.8966 24.9911 0.0276 42.5219 -0.0451
# 6 0.0815 0.0274 0.0430 10.6644 -0.0451 8.9260
#
#
#
# Elastic Compliance Matrix: (Units=1/GPa)
#
#
# Indices 1 2 3 4 5 6 
#
# 1 0.108413 -0.039051 0.013462 0.001015 -0.111832 -0.002713
# 2 -0.039051 0.026834 -0.009332 -0.000362 0.040546 0.000956
# 3 0.013462 -0.009332 0.010588 0.000145 -0.018294 -0.000411
# 4 0.001015 -0.000362 0.000145 0.036848 -0.001129 -0.044039
# 5 -0.111832 0.040546 -0.018294 -0.001129 0.141418 0.003049
# 6 -0.002713 0.000956 -0.000411 -0.044039 0.003049 0.164688
#
#
# Mechanical properties :
#
#
# Convention : Reuss Voigt Hill
#
# Bulk Modulus (GPa) = 13.15926 60.13862 36.64894
# Shear Modulus (GPa) = 8.56220 31.38330 19.97275
#
# Velocity S-wave (km/s) = 2.05063 3.92594 3.13194
# Velocity P-wave (km/s) = 3.47412 7.07714 5.57474
#
# Compressibility (1/GPa) = 0.07599212
#
# Stress axis : x y z
#
# Youngs Moduli (GPa) = 9.22396 37.26677 94.44743
#
# Poissons Ratio (x) = 1.45530 -1.27142
# Poissons Ratio (y) = 0.36020 0.88140
# Poissons Ratio (z) = -0.12417 0.34778
#
# Static dielectric constant tensor:
#      x y z
#    x 1.743590 -0.000010 0.006870 
#    y -0.000010 1.721030 0.000020 
#    z 0.006870 0.000020 1.782740 
# 
# From -- ./inp_files/62362.got.cif
#   From: 2010.05.17/outbox.cif.g08.bks.cpg/sg15_32_cif.got.tgz:62362.got - 2010.06.03 18:47:42.
