data_PCOD9263125
_publ_section_title
;
Structure prediction by ZEFSAII (Michael W. Deem and Ramdas Pophale) SiO2 
 PCOD9263125
Probable space group: C 2/C
;
_chemical_formula_sum "Si O2"
_cell_formula_units_Z 64
_cell_length_a 17.122218
_cell_length_b 22.133371
_cell_length_c 26.462821
_cell_angle_alpha 90.000000
_cell_angle_beta 158.649276
_cell_angle_gamma 90.000000
_cell_volume 3651.200437
_symmetry_space_group_name_H-M "C 2/C"
_symmetry_group_IT_number 15
_symmetry_cell_setting 'monoclinic'
loop_
_space_group_symop_operation_xyz
x,y,z
-x,y,1/2-z
-x,-y,-z
x,-y,1/2+z
1/2+x,1/2+y,z
1/2-x,1/2+y,1/2-z
1/2-x,1/2-y,-z
1/2+x,1/2-y,1/2+z
loop_
_atom_site_type_symbol
_atom_site_label
_atom_site_fract_x
_atom_site_fract_y
_atom_site_fract_z
Si Si1 0.111185 0.182272 0.602704
Si Si2 0.623458 0.475645 0.624383
Si Si3 0.001486 0.155410 0.077898
Si Si4 0.054496 0.820373 0.341763
Si Si5 0.937546 0.634623 0.652391
Si Si6 0.488541 0.418685 0.104181
Si Si7 0.558092 0.993622 0.844009
Si Si8 0.540906 0.784987 0.639163
O O1 0.366125 0.166946 0.758149
O O2 0.987423 0.127861 0.556447
O O3 0.045732 0.241425 0.593419
O O4 0.050704 0.184266 0.507866
O O5 0.500000 0.500000 0.500000
O O6 0.501927 0.416913 0.570166
O O7 0.640531 0.527602 0.676754
O O8 0.861962 0.460216 0.752191
O O9 0.241492 0.176677 0.234472
O O10 0.797746 0.165284 0.992014
O O11 0.313758 0.819352 0.504256
O O12 0.000000 0.821259 0.250000
O O13 0.965022 0.877841 0.319117
O O14 0.964163 0.760258 0.315347
O O15 0.929021 0.563894 0.631771
O O16 0.000000 0.635588 0.750000
O O17 0.268521 0.454666 0.978406
O O18 0.500000 0.995607 0.750000
#
# Coordination Sequence:
#
# PCOD9263125 Si02
#       8
#     8   8   8   8   8   8   8   8
#     4  10  19  34  51  77 113 146 181 217 277 325
#     4  12  18  30  50  83 119 140 170 220 281 335
#     4  11  19  32  52  82 115 141 177 229 270 319
#     4  10  22  41  56  77 108 141 186 231 278 328
#     4   9  17  28  48  76 111 143 167 212 277 324
#     4  11  20  31  53  81 104 146 175 214 276 339
#     4  11  17  27  47  79 114 139 166 215 275 329
#     4  10  22  36  58  80 100 144 192 231 268 319
#
# _framework density 17.528482
#
# number of rings (size 3 to 8) (size 9 to 14) (size 15 to 20)
#    0.000    1.500    5.000    2.250    0.000    0.500 
#    0.000    1.250    0.000    3.000    0.000    0.000 
#    0.000    0.000    0.000    0.000    0.000    0.000 
#
# Total GULP energy -178345.968111 kJ/mol
# GULP energy per Si atom -5573.311503 kJ/mol
# Density = 1.748859 g / cm^3
# Si number density = 17.528482 Si / 1000 Ang^3
#
#
#
# Elastic Constant Matrix: (Units=GPa)
#
#
# Indices 1 2 3 4 5 6 
#
# 1 58.8152 8.6697 7.4490 -0.0065 4.7185 -0.0015
# 2 8.6697 45.0869 3.3769 0.0107 -4.8608 -0.0071
# 3 7.4490 3.3769 47.4826 0.0054 15.9718 -0.0129
# 4 -0.0065 0.0107 0.0054 19.9516 -0.0116 9.7927
# 5 4.7185 -4.8608 15.9718 -0.0116 36.1960 -0.0043
# 6 -0.0015 -0.0071 -0.0129 9.7927 -0.0043 24.0565
#
#
#
# Elastic Compliance Matrix: (Units=1/GPa)
#
#
# Indices 1 2 3 4 5 6 
#
# 1 0.017919 -0.003516 -0.001898 0.000010 -0.001970 -0.000005
# 2 -0.003516 0.023584 -0.002754 -0.000017 0.004841 0.000013
# 3 -0.001898 -0.002754 0.025359 -0.000022 -0.011312 0.000020
# 4 0.000010 -0.000017 -0.000022 0.062636 0.000023 -0.025497
# 5 -0.001970 0.004841 -0.011312 0.000023 0.033526 -0.000008
# 6 -0.000005 0.000013 0.000020 -0.025497 -0.000008 0.051948
#
#
# Mechanical properties :
#
#
# Convention : Reuss Voigt Hill
#
# Bulk Modulus (GPa) = 19.79189 21.15288 20.47238
# Shear Modulus (GPa) = 20.14907 24.83342 22.49125
#
# Velocity S-wave (km/s) = 3.39411 3.76805 3.58596
# Velocity P-wave (km/s) = 5.16486 5.57000 5.37125
#
# Compressibility (1/GPa) = 0.05052574
#
# Stress axis : x y z
#
# Youngs Moduli (GPa) = 55.80611 42.40229 39.43347
#
# Poissons Ratio (x) = 0.14908 0.07485
# Poissons Ratio (y) = 0.19621 0.10860
# Poissons Ratio (z) = 0.10593 0.11677
#
# Static dielectric constant tensor:
#      x y z
#    x 1.600280 0.000010 0.042670 
#    y 0.000010 1.617110 0.000010 
#    z 0.042670 0.000010 1.627030 
# 
# From -- ./inp_files/107503.got.cif
#   From: 2010.05.17/outbox.cif.g08.bks.cpg/sg15_54_cif.got.tgz:107503.got - 2010.06.03 18:47:42.
