data_PCOD9263038
_publ_section_title
;
Structure prediction by ZEFSAII (Michael W. Deem and Ramdas Pophale) SiO2 
 PCOD9263038
Probable space group: C 2/C
;
_chemical_formula_sum "Si O2"
_cell_formula_units_Z 36
_cell_length_a 19.805829
_cell_length_b 17.778595
_cell_length_c 14.426634
_cell_angle_alpha 90.000000
_cell_angle_beta 157.636994
_cell_angle_gamma 90.000000
_cell_volume 1932.767952
_symmetry_space_group_name_H-M "C 2/C"
_symmetry_group_IT_number 15
_symmetry_cell_setting 'monoclinic'
loop_
_space_group_symop_operation_xyz
x,y,z
-x,y,1/2-z
-x,-y,-z
x,-y,1/2+z
1/2+x,1/2+y,z
1/2-x,1/2+y,1/2-z
1/2-x,1/2-y,-z
1/2+x,1/2-y,1/2+z
loop_
_atom_site_type_symbol
_atom_site_label
_atom_site_fract_x
_atom_site_fract_y
_atom_site_fract_z
Si Si1 0.500000 0.276628 0.750000
Si Si2 0.500000 0.785322 0.750000
Si Si3 0.500000 0.532151 0.750000
Si Si4 0.419590 0.862501 0.023008
Si Si5 0.713149 0.842163 0.847580
Si Si6 0.215742 0.907499 0.927321
O O1 0.421879 0.219318 0.575221
O O2 0.628831 0.331546 0.857383
O O3 0.587743 0.832632 0.778196
O O4 0.343771 0.730672 0.512995
O O5 0.342681 0.586407 0.517769
O O6 0.587916 0.476297 0.787306
O O7 0.396976 0.851193 0.886159
O O8 0.259647 0.902750 0.874510
O O9 0.596917 0.907343 0.278962
#
# Coordination Sequence:
#
# PCOD9263038 Si02
#       6
#     4   4   4   8   8   8
#     4   9  18  33  55  90 115 144 178 252 281 334
#     4   9  22  41  55  88 111 150 192 244 275 322
#     4  10  22  42  52  78 126 156 190 226 276 338
#     4  10  19  33  60  87 109 148 193 234 285 333
#     4  10  22  38  62  81 114 153 191 235 283 334
#     4   9  20  36  55  86 121 146 182 238 284 341
#
# _framework density 18.626135999999999
#
# number of rings (size 3 to 8) (size 9 to 14) (size 15 to 20)
#    0.000    2.667    0.000    2.667    6.222    3.556 
#    0.000    0.000    0.000    0.000    0.000    0.000 
#    0.000    0.000    0.000    0.000    0.000    0.000 
#
# Total GULP energy -100296.632856 kJ/mol
# GULP energy per Si atom -5572.035159 kJ/mol
# Density = 1.858374 g / cm^3
# Si number density = 18.626136 Si / 1000 Ang^3
#
#
#
# Elastic Constant Matrix: (Units=GPa)
#
#
# Indices 1 2 3 4 5 6 
#
# 1 152.6412 54.4437 58.3146 0.0000 7.7654 0.0000
# 2 54.4437 91.5818 22.1692 0.0000 8.0967 0.0000
# 3 58.3146 22.1692 43.0651 0.0000 2.6858 0.0000
# 4 0.0000 0.0000 0.0000 -0.0036 0.0000 0.8545
# 5 7.7654 8.0967 2.6858 0.0000 37.7469 0.0000
# 6 0.0000 0.0000 0.0000 0.8545 0.0000 3.0961
#
#
#
# Elastic Compliance Matrix: (Units=1/GPa)
#
#
# Indices 1 2 3 4 5 6 
#
# 1 0.015124 -0.004536 -0.018091 0.000000 -0.000851 0.000000
# 2 -0.004536 0.014024 -0.000951 0.000000 -0.002007 0.000000
# 3 -0.018091 -0.000951 0.048177 0.000000 0.000498 0.000000
# 4 0.000000 0.000000 0.000000 -4.177437 0.000000 1.152938
# 5 -0.000851 -0.002007 0.000498 0.000000 0.027062 0.000000
# 6 0.000000 0.000000 0.000000 1.152938 0.000000 0.004791
#
#
# Mechanical properties :
#
#
# Convention : Reuss Voigt Hill
#
# Bulk Modulus (GPa) = 33.14906 61.90479 47.52693
# Shear Modulus (GPa) = -1.24656 18.32525 8.53934
#
# Velocity S-wave (km/s) = -0.81897 3.14003 2.14349
# Velocity P-wave (km/s) = 4.11600 6.81572 5.63007
#
# Compressibility (1/GPa) = 0.03016677
#
# Stress axis : x y z
#
# Youngs Moduli (GPa) = 66.11888 71.30759 20.75680
#
# Poissons Ratio (x) = 0.32348 0.37552
# Poissons Ratio (y) = 0.29994 0.01974
# Poissons Ratio (z) = 1.19619 0.06783
#
# Static dielectric constant tensor:
#      x y z
#    x 1.660250 0.000000 0.036030 
#    y 0.000000 1.650540 0.000000 
#    z 0.036030 0.000000 1.657410 
# 
# From -- ./inp_files/28771.got.cif
#   From: 2010.05.17/outbox.cif.g08.bks.cpg/sg15_15_cif.got.tgz:28771.got - 2010.06.03 18:47:42.
