data_PCOD9263884
_publ_section_title
;
Structure prediction by ZEFSAII (Michael W. Deem and Ramdas Pophale) SiO2 
 PCOD9263884
Probable space group: C 2/C
;
_chemical_formula_sum "Si O2"
_cell_formula_units_Z 64
_cell_length_a 32.556276
_cell_length_b 11.891998
_cell_length_c 17.976823
_cell_angle_alpha 90.000000
_cell_angle_beta 22.355894
_cell_angle_gamma 90.000000
_cell_volume 2647.254393
_symmetry_space_group_name_H-M "C 2/C"
_symmetry_group_IT_number 15
_symmetry_cell_setting 'monoclinic'
loop_
_space_group_symop_operation_xyz
x,y,z
-x,y,1/2-z
-x,-y,-z
x,-y,1/2+z
1/2+x,1/2+y,z
1/2-x,1/2+y,1/2-z
1/2-x,1/2-y,-z
1/2+x,1/2-y,1/2+z
loop_
_atom_site_type_symbol
_atom_site_label
_atom_site_fract_x
_atom_site_fract_y
_atom_site_fract_z
Si Si1 0.735635 0.617790 0.818919
Si Si2 0.015226 0.314546 0.311675
Si Si3 0.238027 0.096569 0.100402
Si Si4 0.331576 0.116036 0.391040
Si Si5 0.410057 0.591711 0.292223
Si Si6 0.841652 0.864004 0.433473
Si Si7 0.050693 0.517719 0.995104
Si Si8 0.207800 0.863328 0.814948
O O1 0.647480 0.611000 0.031900
O O2 0.850921 0.601906 0.666908
O O3 0.732670 0.739242 0.784986
O O4 0.735142 0.498871 0.775371
O O5 0.000000 0.331481 0.250000
O O6 0.935868 0.396546 0.489178
O O7 0.142182 0.348721 0.110977
O O8 0.998212 0.184995 0.362847
O O9 0.181809 0.136611 0.269973
O O10 0.167012 0.120508 0.147327
O O11 0.256071 0.961293 0.068844
O O12 0.277184 0.095721 0.399777
O O13 0.344807 0.245395 0.388161
O O14 0.450616 0.070773 0.206083
O O15 0.426991 0.457684 0.262990
O O16 0.851156 0.852859 0.506007
O O17 0.000000 0.500000 0.000000
#
# Coordination Sequence:
#
# PCOD9263884 Si02
#       8
#     8   8   8   8   8   8   8   8
#     4  11  23  39  61  94 127 168 212 267 321 386
#     4  11  22  36  59  91 125 159 204 266 319 366
#     4  10  19  34  62  89 117 166 212 261 308 388
#     4   9  19  38  62  88 125 162 212 255 328 384
#     4  10  21  39  63  87 124 171 212 248 323 396
#     4   9  19  37  60  89 119 171 205 259 316 396
#     4  11  23  38  63  94 125 157 208 272 320 377
#     4  11  21  35  60  90 127 155 220 260 314 372
#
# _framework density 24.175991
#
# number of rings (size 3 to 8) (size 9 to 14) (size 15 to 20)
#    0.000    1.750    1.250    4.875    1.750    1.000 
#    0.000    2.500    0.000    0.750    0.000    0.000 
#    0.000    0.000    0.000    0.000    0.000    0.000 
#
# Total GULP energy -178241.946172 kJ/mol
# GULP energy per Si atom -5570.060818 kJ/mol
# Density = 2.412097 g / cm^3
# Si number density = 24.175991 Si / 1000 Ang^3
#
#
#
# Elastic Constant Matrix: (Units=GPa)
#
#
# Indices 1 2 3 4 5 6 
#
# 1 93.5278 49.0639 9.0345 0.0000 11.8089 0.0000
# 2 49.0639 206.8103 24.6170 0.0000 3.5070 0.0000
# 3 9.0345 24.6170 26.8575 0.0000 -4.3078 0.0000
# 4 0.0000 0.0000 0.0000 24.7812 0.0000 0.9422
# 5 11.8089 3.5070 -4.3078 0.0000 20.9776 0.0000
# 6 0.0000 0.0000 0.0000 0.9422 0.0000 38.7428
#
#
#
# Elastic Compliance Matrix: (Units=1/GPa)
#
#
# Indices 1 2 3 4 5 6 
#
# 1 0.013383 -0.002648 -0.003322 0.000000 -0.007773 0.000000
# 2 -0.002648 0.006033 -0.004717 0.000000 -0.000487 0.000000
# 3 -0.003322 -0.004717 0.044569 0.000000 0.011811 0.000000
# 4 0.000000 0.000000 0.000000 0.040390 0.000000 -0.000982
# 5 -0.007773 -0.000487 0.011811 0.000000 0.054553 0.000000
# 6 0.000000 0.000000 0.000000 -0.000982 0.000000 0.025835
#
#
# Mechanical properties :
#
#
# Convention : Reuss Voigt Hill
#
# Bulk Modulus (GPa) = 23.46766 54.73627 39.10197
# Shear Modulus (GPa) = 22.69197 33.19901 27.94549
#
# Velocity S-wave (km/s) = 3.06701 3.70972 3.40357
# Velocity P-wave (km/s) = 4.71912 6.40619 5.62625
#
# Compressibility (1/GPa) = 0.04261183
#
# Stress axis : x y z
#
# Youngs Moduli (GPa) = 74.71934 165.74656 22.43696
#
# Poissons Ratio (x) = 0.43888 0.07453
# Poissons Ratio (y) = 0.19785 0.10584
# Poissons Ratio (z) = 0.24821 0.78189
#
# Static dielectric constant tensor:
#      x y z
#    x 1.952680 0.000000 -0.123000 
#    y 0.000000 2.031770 0.000000 
#    z -0.123000 0.000000 2.086740 
# 
# From -- ./inp_files/225155.got.cif
#   From: 2010.05.17/outbox.cif.g08.bks.cpg/sg15_113_cif.got.tgz:225155.got - 2010.06.03 18:47:42.
