data_PCOD9263888
_publ_section_title
;
Structure prediction by ZEFSAII (Michael W. Deem and Ramdas Pophale) SiO2 
 PCOD9263888
Probable space group: C 2/C
;
_chemical_formula_sum "Si O2"
_cell_formula_units_Z 32
_cell_length_a 21.652429
_cell_length_b 9.827431
_cell_length_c 14.176654
_cell_angle_alpha 90.000000
_cell_angle_beta 155.286207
_cell_angle_gamma 90.000000
_cell_volume 1261.205199
_symmetry_space_group_name_H-M "C 2/C"
_symmetry_group_IT_number 15
_symmetry_cell_setting 'monoclinic'
loop_
_space_group_symop_operation_xyz
x,y,z
-x,y,1/2-z
-x,-y,-z
x,-y,1/2+z
1/2+x,1/2+y,z
1/2-x,1/2+y,1/2-z
1/2-x,1/2-y,-z
1/2+x,1/2-y,1/2+z
loop_
_atom_site_type_symbol
_atom_site_label
_atom_site_fract_x
_atom_site_fract_y
_atom_site_fract_z
Si Si1 0.393844 0.653088 0.692702
Si Si2 0.648186 0.707934 0.181533
Si Si3 0.166455 0.541219 0.824471
Si Si4 0.850850 0.475561 0.412762
O O1 0.500000 0.680011 0.750000
O O2 0.250000 0.750000 0.500000
O O3 0.322594 0.504403 0.580089
O O4 0.492322 0.662588 0.922826
O O5 0.643378 0.800706 0.267924
O O6 0.755063 0.580646 0.337335
O O7 0.701172 0.820899 0.176014
O O8 0.159006 0.471968 0.709681
O O9 0.022966 0.483304 0.677533
#
# Coordination Sequence:
#
# PCOD9263888 Si02
#       4
#     8   8   8   8
#     4  12  20  35  66  97 128 170 223 274 325 397
#     4  10  19  34  62  90 125 175 213 273 338 384
#     4   9  19  35  57  93 132 166 224 279 322 394
#     4   9  17  35  56  86 126 167 215 265 331 390
#
# _framework density 25.372554999999998
#
# number of rings (size 3 to 8) (size 9 to 14) (size 15 to 20)
#    1.500    0.500    5.000    0.000    0.000    0.000 
#    0.000    1.250    5.500   10.500    0.000    0.000 
#    0.000    0.000    0.000    0.000    0.000    0.000 
#
# Total GULP energy -89371.278049 kJ/mol
# GULP energy per Si atom -5585.704878 kJ/mol
# Density = 2.531481 g / cm^3
# Si number density = 25.372555 Si / 1000 Ang^3
#
#
#
# Elastic Constant Matrix: (Units=GPa)
#
#
# Indices 1 2 3 4 5 6 
#
# 1 109.7497 23.2567 27.6191 0.0000 10.6200 0.0000
# 2 23.2567 84.7533 54.6038 0.0000 0.6977 0.0000
# 3 27.6191 54.6038 134.8292 0.0000 13.0102 0.0000
# 4 0.0000 0.0000 0.0000 54.5899 0.0000 9.2137
# 5 10.6200 0.6977 13.0102 0.0000 26.8858 0.0000
# 6 0.0000 0.0000 0.0000 9.2137 0.0000 26.4974
#
#
#
# Elastic Compliance Matrix: (Units=1/GPa)
#
#
# Indices 1 2 3 4 5 6 
#
# 1 0.010134 -0.002211 -0.000839 0.000000 -0.003540 0.000000
# 2 -0.002211 0.016657 -0.006646 0.000000 0.003657 0.000000
# 3 -0.000839 -0.006646 0.010733 0.000000 -0.004690 0.000000
# 4 0.000000 0.000000 0.000000 0.019460 0.000000 -0.006767
# 5 -0.003540 0.003657 -0.004690 0.000000 0.040767 0.000000
# 6 0.000000 0.000000 0.000000 -0.006767 0.000000 0.040093
#
#
# Mechanical properties :
#
#
# Convention : Reuss Voigt Hill
#
# Bulk Modulus (GPa) = 55.15124 60.03237 57.59181
# Shear Modulus (GPa) = 30.62229 36.51812 33.57021
#
# Velocity S-wave (km/s) = 3.47782 3.79790 3.64138
# Velocity P-wave (km/s) = 6.15717 6.55315 6.35824
#
# Compressibility (1/GPa) = 0.01813196
#
# Stress axis : x y z
#
# Youngs Moduli (GPa) = 98.67953 60.03352 93.17372
#
# Poissons Ratio (x) = 0.13275 0.07815
# Poissons Ratio (y) = 0.21820 0.61922
# Poissons Ratio (z) = 0.08277 0.39898
#
# Static dielectric constant tensor:
#      x y z
#    x 2.065610 0.000000 -0.042270 
#    y 0.000000 2.047850 0.000000 
#    z -0.042270 0.000000 1.968870 
# 
# From -- ./inp_files/122553.got.cif
#   From: 2010.05.17/outbox.cif.g08.bks.cpg/sg15_62_cif.got.tgz:122553.got - 2010.06.03 18:47:42.
