data_PCOD9263713
_publ_section_title
;
Structure prediction by ZEFSAII (Michael W. Deem and Ramdas Pophale) SiO2 
 PCOD9263713
Probable space group: C 2/C
;
_chemical_formula_sum "Si O2"
_cell_formula_units_Z 60
_cell_length_a 23.751778
_cell_length_b 23.322547
_cell_length_c 13.891250
_cell_angle_alpha 90.000000
_cell_angle_beta 22.578508
_cell_angle_gamma 90.000000
_cell_volume 2954.520199
_symmetry_space_group_name_H-M "C 2/C"
_symmetry_group_IT_number 15
_symmetry_cell_setting 'monoclinic'
loop_
_space_group_symop_operation_xyz
x,y,z
-x,y,1/2-z
-x,-y,-z
x,-y,1/2+z
1/2+x,1/2+y,z
1/2-x,1/2+y,1/2-z
1/2-x,1/2-y,-z
1/2+x,1/2-y,1/2+z
loop_
_atom_site_type_symbol
_atom_site_label
_atom_site_fract_x
_atom_site_fract_y
_atom_site_fract_z
Si Si1 0.792194 0.047682 0.798067
Si Si2 0.011478 0.403830 0.446348
Si Si3 0.180865 0.334176 0.049575
Si Si4 0.500000 0.558110 0.750000
Si Si5 0.831316 0.208437 0.509881
Si Si6 0.605788 0.144933 0.993179
Si Si7 0.212607 0.489911 0.628695
Si Si8 0.398956 0.420091 0.602668
O O1 0.695124 0.087783 0.883853
O O2 0.947721 0.076883 0.580694
O O3 0.835648 0.984633 0.693397
O O4 0.700972 0.035211 0.039556
O O5 0.011900 0.368814 0.545341
O O6 0.152374 0.446206 0.226442
O O7 0.879099 0.448631 0.656492
O O8 0.030551 0.363789 0.323724
O O9 0.258737 0.317663 0.028070
O O10 0.282524 0.379597 0.835774
O O11 0.167113 0.276624 0.010094
O O12 0.619929 0.517076 0.608146
O O13 0.563292 0.597004 0.565493
O O14 0.730018 0.189455 0.759751
O O15 0.000000 0.188599 0.250000
O O16 0.500000 0.161082 0.250000
#
# Coordination Sequence:
#
# PCOD9263713 Si02
#       8
#     8   8   8   4   8   8   8   8
#     4  10  19  34  59  87 127 152 191 235 308 365
#     4  10  20  35  59  84 122 154 195 242 296 361
#     4  10  21  40  63  85 114 157 206 248 299 353
#     4  10  22  34  50  80 128 160 196 228 286 362
#     4  10  23  42  63  85 114 157 214 259 296 356
#     4  11  21  37  61  92 117 154 202 259 304 360
#     4  10  19  35  53  87 126 161 186 232 297 363
#     4  10  20  36  56  88 121 159 190 242 296 370
#
# _framework density 20.307867000000002
#
# number of rings (size 3 to 8) (size 9 to 14) (size 15 to 20)
#    0.000    1.867    2.667    1.600    0.000    1.067 
#    7.200    0.667    0.000    3.200    0.000    0.000 
#    0.000    0.000    0.000    0.000    0.000    0.000 
#
# Total GULP energy -167512.098338 kJ/mol
# GULP energy per Si atom -5583.736611 kJ/mol
# Density = 2.026165 g / cm^3
# Si number density = 20.307867 Si / 1000 Ang^3
#
#
#
# Elastic Constant Matrix: (Units=GPa)
#
#
# Indices 1 2 3 4 5 6 
#
# 1 48.8218 18.7815 25.9265 0.0020 17.4221 -0.0011
# 2 18.7815 79.6891 44.2215 -0.0017 22.0345 0.0009
# 3 25.9265 44.2215 117.6382 -0.0015 32.0763 0.0001
# 4 0.0020 -0.0017 -0.0015 30.4063 0.0005 11.7215
# 5 17.4221 22.0345 32.0763 0.0005 33.0692 0.0010
# 6 -0.0011 0.0009 0.0001 11.7215 0.0010 16.8836
#
#
#
# Elastic Compliance Matrix: (Units=1/GPa)
#
#
# Indices 1 2 3 4 5 6 
#
# 1 0.026101 -0.002120 -0.002164 -0.000004 -0.010240 0.000005
# 2 -0.002120 0.017129 -0.004302 0.000002 -0.006124 -0.000002
# 3 -0.002164 -0.004302 0.012919 0.000001 -0.008525 0.000000
# 4 -0.000004 0.000002 0.000001 0.044906 0.000000 -0.031176
# 5 -0.010240 -0.006124 -0.008525 0.000000 0.047984 -0.000003
# 6 0.000005 -0.000002 0.000000 -0.031176 -0.000003 0.080873
#
#
# Mechanical properties :
#
#
# Convention : Reuss Voigt Hill
#
# Bulk Modulus (GPa) = 25.65492 47.11201 36.38346
# Shear Modulus (GPa) = 19.22520 26.55313 22.88916
#
# Velocity S-wave (km/s) = 3.08017 3.61990 3.36089
# Velocity P-wave (km/s) = 5.03094 6.38129 5.74592
#
# Compressibility (1/GPa) = 0.03897887
#
# Stress axis : x y z
#
# Youngs Moduli (GPa) = 38.31241 58.38098 77.40451
#
# Poissons Ratio (x) = 0.12374 0.16747
# Poissons Ratio (y) = 0.08121 0.33300
# Poissons Ratio (z) = 0.08289 0.25116
#
# Static dielectric constant tensor:
#      x y z
#    x 1.758800 0.000000 0.017340 
#    y 0.000000 1.694480 0.000000 
#    z 0.017340 0.000000 1.761470 
# 
# From -- ./inp_files/179140.got.cif
#   From: 2010.05.17/outbox.cif.g08.bks.cpg/sg15_90_cif.got.tgz:179140.got - 2010.06.03 18:47:42.
