data_PCOD9263116
_publ_section_title
;
Structure prediction by ZEFSAII (Michael W. Deem and Ramdas Pophale) SiO2 
 PCOD9263116
Probable space group: C 2/C
;
_chemical_formula_sum "Si O2"
_cell_formula_units_Z 48
_cell_length_a 5.853024
_cell_length_b 13.706487
_cell_length_c 21.102360
_cell_angle_alpha 90.000000
_cell_angle_beta 90.022701
_cell_angle_gamma 90.000000
_cell_volume 1692.923981
_symmetry_space_group_name_H-M "C 2/C"
_symmetry_group_IT_number 15
_symmetry_cell_setting 'monoclinic'
loop_
_space_group_symop_operation_xyz
x,y,z
-x,y,1/2-z
-x,-y,-z
x,-y,1/2+z
1/2+x,1/2+y,z
1/2-x,1/2+y,1/2-z
1/2-x,1/2-y,-z
1/2+x,1/2-y,1/2+z
loop_
_atom_site_type_symbol
_atom_site_label
_atom_site_fract_x
_atom_site_fract_y
_atom_site_fract_z
Si Si1 0.099006 0.900075 0.330812
Si Si2 0.531832 0.104454 0.326959
Si Si3 0.467527 0.367313 0.677730
Si Si4 0.659442 0.407840 0.482551
Si Si5 0.596929 0.876235 0.329046
Si Si6 0.466639 0.214194 0.536923
O O1 0.112959 0.888499 0.407514
O O2 0.340238 0.867472 0.300174
O O3 0.858619 0.856016 0.309517
O O4 0.060319 0.014718 0.318021
O O5 0.500000 0.104502 0.250000
O O6 0.290364 0.147487 0.350375
O O7 0.772723 0.152167 0.346305
O O8 0.574514 0.991629 0.346014
O O9 0.500000 0.329543 0.750000
O O10 0.500000 0.500000 0.500000
O O11 0.602957 0.314386 0.525633
O O12 0.933721 0.390687 0.487199
O O13 0.572403 0.808754 0.390331
O O14 0.250000 0.250000 0.500000
#
# Coordination Sequence:
#
# PCOD9263116 Si02
#       6
#     8   8   8   8   8   8
#     4   9  16  28  43  65  93 125 159 202 248 292
#     4   8  13  21  35  59  87 116 151 195 241 287
#     4   8  13  21  36  58  86 117 150 192 241 289
#     4  10  21  34  50  73 100 135 172 214 257 311
#     4   9  16  27  45  64  92 128 160 200 249 296
#     4  10  19  34  51  70 100 135 171 209 260 308
#
# _framework density 28.353311999999999
#
# number of rings (size 3 to 8) (size 9 to 14) (size 15 to 20)
#    0.000    3.000    1.667    0.000    0.000    0.667 
#    0.000    0.000    0.000    0.000    0.000    1.167 
#    0.000    0.000    0.000    0.000    0.000    0.000 
#
# Total GULP energy -133636.947682 kJ/mol
# GULP energy per Si atom -5568.206153 kJ/mol
# Density = 2.828878 g / cm^3
# Si number density = 28.353312 Si / 1000 Ang^3
#
#
#
# Elastic Constant Matrix: (Units=GPa)
#
#
# Indices 1 2 3 4 5 6 
#
# 1 349.9844 69.4344 65.7267 0.0000 8.4903 0.0000
# 2 69.4344 159.8212 0.5572 0.0000 -6.2775 0.0000
# 3 65.7267 0.5572 54.3800 0.0000 32.3971 0.0000
# 4 0.0000 0.0000 0.0000 44.8959 0.0000 -14.5109
# 5 8.4903 -6.2775 32.3971 0.0000 32.9873 0.0000
# 6 0.0000 0.0000 0.0000 -14.5109 0.0000 35.5830
#
#
#
# Elastic Compliance Matrix: (Units=1/GPa)
#
#
# Indices 1 2 3 4 5 6 
#
# 1 0.005457 -0.001880 -0.013320 0.000000 0.011320 0.000000
# 2 -0.001880 0.007032 0.002686 0.000000 -0.000816 0.000000
# 3 -0.013320 0.002686 0.077401 0.000000 -0.072077 0.000000
# 4 0.000000 0.000000 0.000000 0.025655 0.000000 0.010462
# 5 0.011320 -0.000816 -0.072077 0.000000 0.098033 0.000000
# 6 0.000000 0.000000 0.000000 0.010462 0.000000 0.032370
#
#
# Mechanical properties :
#
#
# Convention : Reuss Voigt Hill
#
# Bulk Modulus (GPa) = 15.41721 92.84693 54.13207
# Shear Modulus (GPa) = 17.08833 51.25773 34.17303
#
# Velocity S-wave (km/s) = 2.45764 4.25646 3.47545
# Velocity P-wave (km/s) = 3.67460 7.54812 5.93619
#
# Compressibility (1/GPa) = 0.06486258
#
# Stress axis : x y z
#
# Youngs Moduli (GPa) = 183.24646 142.20185 12.91972
#
# Poissons Ratio (x) = 0.26731 0.17209
# Poissons Ratio (y) = 0.34447 -0.03470
# Poissons Ratio (z) = 2.44089 -0.38197
#
# Static dielectric constant tensor:
#      x y z
#    x 6.604490 0.000000 -1.565050 
#    y 0.000000 2.116680 0.000000 
#    z -1.565050 0.000000 2.664330 
# 
# From -- ./inp_files/285573.got.cif
#   From: 2010.05.17/outbox.cif.g08.bks.cpg/sg15_143_cif.got.tgz:285573.got - 2010.06.03 18:47:42.
