data_PCOD9263607
_publ_section_title
;
Structure prediction by ZEFSAII (Michael W. Deem and Ramdas Pophale) SiO2 
 PCOD9263607
Probable space group: C 2/C
;
_chemical_formula_sum "Si O2"
_cell_formula_units_Z 56
_cell_length_a 13.700162
_cell_length_b 25.638656
_cell_length_c 11.706541
_cell_angle_alpha 90.000000
_cell_angle_beta 36.241458
_cell_angle_gamma 90.000000
_cell_volume 2430.950950
_symmetry_space_group_name_H-M "C 2/C"
_symmetry_group_IT_number 15
_symmetry_cell_setting 'monoclinic'
loop_
_space_group_symop_operation_xyz
x,y,z
-x,y,1/2-z
-x,-y,-z
x,-y,1/2+z
1/2+x,1/2+y,z
1/2-x,1/2+y,1/2-z
1/2-x,1/2-y,-z
1/2+x,1/2-y,1/2+z
loop_
_atom_site_type_symbol
_atom_site_label
_atom_site_fract_x
_atom_site_fract_y
_atom_site_fract_z
Si Si1 0.467232 0.241442 0.987222
Si Si2 0.302432 0.988993 0.411185
Si Si3 0.696264 0.896217 0.538434
Si Si4 0.694658 0.326928 0.871198
Si Si5 0.698448 0.105952 0.423946
Si Si6 0.246017 0.318004 0.085060
Si Si7 0.187647 0.410559 0.280080
O O1 0.547106 0.287071 0.988348
O O2 0.601642 0.206149 0.798543
O O3 0.351882 0.206454 0.176460
O O4 0.377608 0.272412 0.968981
O O5 0.500000 0.992509 0.250000
O O6 0.246433 0.945039 0.556223
O O7 0.275243 0.966557 0.309974
O O8 0.239277 0.047370 0.481001
O O9 0.500000 0.891716 0.750000
O O10 0.782978 0.849312 0.523592
O O11 0.712767 0.899439 0.387584
O O12 0.697789 0.377035 0.783700
O O13 0.705635 0.156264 0.502027
O O14 0.507366 0.097214 0.567816
O O15 0.295966 0.369132 0.108755
#
# Coordination Sequence:
#
# PCOD9263607 Si02
#       7
#     8   8   8   8   8   8   8
#     4  10  23  39  59  87 116 156 204 247 293 345
#     4   8  19  30  55  91 116 149 186 245 302 344
#     4  11  20  34  59  84 122 156 193 242 297 352
#     4  11  23  38  58  88 120 156 201 244 292 351
#     4  10  19  34  58  85 125 144 194 240 301 355
#     4  10  20  38  58  84 114 154 190 249 296 339
#     4  10  19  36  54  86 120 151 190 243 290 358
#
# _framework density 23.036252000000001
#
# number of rings (size 3 to 8) (size 9 to 14) (size 15 to 20)
#    0.000    2.000    2.857    1.286    2.000    5.714 
#    0.000    8.571    0.000    3.429    7.429    0.000 
#    0.000    0.000    0.000    0.000    0.000    0.000 
#
# Total GULP energy -156439.357819 kJ/mol
# GULP energy per Si atom -5587.119922 kJ/mol
# Density = 2.298382 g / cm^3
# Si number density = 23.036252 Si / 1000 Ang^3
#
#
#
# Elastic Constant Matrix: (Units=GPa)
#
#
# Indices 1 2 3 4 5 6 
#
# 1 115.2034 50.0189 24.3506 0.0000 37.6393 0.0000
# 2 50.0189 96.1866 5.3189 0.0000 3.6923 0.0000
# 3 24.3506 5.3189 20.7896 0.0000 16.8987 0.0000
# 4 0.0000 0.0000 0.0000 -3.3384 0.0000 7.0924
# 5 37.6393 3.6923 16.8987 0.0000 36.2296 0.0000
# 6 0.0000 0.0000 0.0000 7.0924 0.0000 30.8912
#
#
#
# Elastic Compliance Matrix: (Units=1/GPa)
#
#
# Indices 1 2 3 4 5 6 
#
# 1 0.019293 -0.009013 -0.007644 0.000000 -0.015559 0.000000
# 2 -0.009013 0.014758 0.000632 0.000000 0.007565 0.000000
# 3 -0.007644 0.000632 0.081322 0.000000 -0.030054 0.000000
# 4 0.000000 0.000000 0.000000 -0.201340 0.000000 0.046226
# 5 -0.015559 0.007565 -0.030054 0.000000 0.057014 0.000000
# 6 0.000000 0.000000 0.000000 0.046226 0.000000 0.021759
#
#
# Mechanical properties :
#
#
# Convention : Reuss Voigt Hill
#
# Bulk Modulus (GPa) = 12.00147 43.50626 27.75386
# Shear Modulus (GPa) = 95.00314 22.92255 58.96285
#
# Velocity S-wave (km/s) = 6.42886 3.15789 5.06471
# Velocity P-wave (km/s) = 7.76712 5.67656 6.80263
#
# Compressibility (1/GPa) = 0.08332314
#
# Stress axis : x y z
#
# Youngs Moduli (GPa) = 51.83314 67.76047 12.29674
#
# Poissons Ratio (x) = 0.61070 0.09400
# Poissons Ratio (y) = 0.46715 -0.00777
# Poissons Ratio (z) = 0.39622 -0.04281
#
# Static dielectric constant tensor:
#      x y z
#    x 1.927880 0.000000 -0.032600 
#    y 0.000000 1.866080 0.000000 
#    z -0.032600 0.000000 1.867300 
# 
# From -- ./inp_files/91975.got.cif
#   From: 2010.05.17/outbox.cif.g08.bks.cpg/sg15_46_cif.got.tgz:91975.got - 2010.06.03 18:47:42.
