data_PCOD9263055
_publ_section_title
;
Structure prediction by ZEFSAII (Michael W. Deem and Ramdas Pophale) SiO2 
 PCOD9263055
Probable space group: C 2/C
;
_chemical_formula_sum "Si O2"
_cell_formula_units_Z 52
_cell_length_a 13.795801
_cell_length_b 11.791164
_cell_length_c 23.791796
_cell_angle_alpha 90.000000
_cell_angle_beta 139.766554
_cell_angle_gamma 90.000000
_cell_volume 2499.760635
_symmetry_space_group_name_H-M "C 2/C"
_symmetry_group_IT_number 15
_symmetry_cell_setting 'monoclinic'
loop_
_space_group_symop_operation_xyz
x,y,z
-x,y,1/2-z
-x,-y,-z
x,-y,1/2+z
1/2+x,1/2+y,z
1/2-x,1/2+y,1/2-z
1/2-x,1/2-y,-z
1/2+x,1/2-y,1/2+z
loop_
_atom_site_type_symbol
_atom_site_label
_atom_site_fract_x
_atom_site_fract_y
_atom_site_fract_z
Si Si1 0.694570 0.241153 0.377377
Si Si2 0.000000 0.455950 0.750000
Si Si3 0.045597 0.274049 0.925229
Si Si4 0.197105 0.793489 0.798128
Si Si5 0.732801 0.969786 0.141510
Si Si6 0.104004 0.534111 0.966737
Si Si7 0.571996 0.832587 0.353729
O O1 0.637984 0.129773 0.320181
O O2 0.856173 0.225784 0.479556
O O3 0.587289 0.272592 0.382710
O O4 0.694349 0.349303 0.337003
O O5 0.006713 0.545209 0.803791
O O6 0.869952 0.270578 0.859981
O O7 0.103178 0.404207 0.945965
O O8 0.178647 0.929563 0.789487
O O9 0.075354 0.742478 0.701751
O O10 0.158466 0.730451 0.840813
O O11 0.570943 0.944853 0.097098
O O12 0.693451 0.029040 0.064270
O O13 0.159410 0.628289 0.947684
#
# Coordination Sequence:
#
# PCOD9263055 Si02
#       7
#     8   4   8   8   8   8   8
#     4  10  19  33  61  84 115 138 185 232 289 323
#     4  10  20  34  54  86 108 148 180 224 286 346
#     4   9  18  36  60  83 108 150 183 233 274 335
#     4   9  20  37  55  79 117 147 190 226 274 337
#     4   9  19  34  58  86 106 142 188 238 270 335
#     4   9  17  36  60  78 110 151 187 216 293 341
#     4  10  21  38  57  75 117 159 179 228 285 330
#
# _framework density 20.801991999999998
#
# number of rings (size 3 to 8) (size 9 to 14) (size 15 to 20)
#    0.000    2.769    1.538    0.923    0.000    3.077 
#    0.000    6.154    3.385    0.000    0.000    0.000 
#    0.000    0.000    0.000    0.000    0.000    0.000 
#
# Total GULP energy -144864.876764 kJ/mol
# GULP energy per Si atom -5571.726029 kJ/mol
# Density = 2.075465 g / cm^3
# Si number density = 20.801992 Si / 1000 Ang^3
#
#
#
# Elastic Constant Matrix: (Units=GPa)
#
#
# Indices 1 2 3 4 5 6 
#
# 1 28.6396 2.3929 -0.6319 0.0000 18.4892 0.0000
# 2 2.3929 109.6887 12.5459 0.0000 16.7480 0.0000
# 3 -0.6319 12.5459 18.7120 0.0000 11.9476 0.0000
# 4 0.0000 0.0000 0.0000 27.4009 0.0000 5.0816
# 5 18.4892 16.7480 11.9476 0.0000 23.9520 0.0000
# 6 0.0000 0.0000 0.0000 5.0816 0.0000 14.7700
#
#
#
# Elastic Compliance Matrix: (Units=1/GPa)
#
#
# Indices 1 2 3 4 5 6 
#
# 1 0.161265 0.012180 0.120615 0.000000 -0.193166 0.000000
# 2 0.012180 0.011272 0.005707 0.000000 -0.020131 0.000000
# 3 0.120615 0.005707 0.169747 0.000000 -0.181769 0.000000
# 4 0.000000 0.000000 0.000000 0.038982 0.000000 -0.013412
# 5 -0.193166 -0.020131 -0.181769 0.000000 0.295606 0.000000
# 6 0.000000 0.000000 0.000000 -0.013412 0.000000 0.072319
#
#
# Mechanical properties :
#
#
# Convention : Reuss Voigt Hill
#
# Bulk Modulus (GPa) = 1.61476 20.62825 11.12150
# Shear Modulus (GPa) = 7.36795 22.74014 15.05404
#
# Velocity S-wave (km/s) = 1.88405 3.30990 2.69305
# Velocity P-wave (km/s) = 2.34750 4.95432 3.87660
#
# Compressibility (1/GPa) = 0.61928838
#
# Stress axis : x y z
#
# Youngs Moduli (GPa) = 6.20099 88.71617 5.89112
#
# Poissons Ratio (x) = -1.08057 -0.71056
# Poissons Ratio (y) = -0.07553 -0.03362
# Poissons Ratio (z) = -0.74793 -0.50632
#
# Static dielectric constant tensor:
#      x y z
#    x 1.795260 0.000000 -0.056730 
#    y 0.000000 1.755720 0.000000 
#    z -0.056730 0.000000 1.835540 
# 
# From -- ./inp_files/295782.got.cif
#   From: 2010.05.17/outbox.cif.g08.bks.cpg/sg15_148_cif.got.tgz:295782.got - 2010.06.03 18:47:42.
