data_PCOD9263258
_publ_section_title
;
Structure prediction by ZEFSAII (Michael W. Deem and Ramdas Pophale) SiO2 
 PCOD9263258
Probable space group: C 2/C
;
_chemical_formula_sum "Si O2"
_cell_formula_units_Z 64
_cell_length_a 11.770421
_cell_length_b 22.852574
_cell_length_c 10.297301
_cell_angle_alpha 90.000000
_cell_angle_beta 91.773239
_cell_angle_gamma 90.000000
_cell_volume 2768.487103
_symmetry_space_group_name_H-M "C 2/C"
_symmetry_group_IT_number 15
_symmetry_cell_setting 'monoclinic'
loop_
_space_group_symop_operation_xyz
x,y,z
-x,y,1/2-z
-x,-y,-z
x,-y,1/2+z
1/2+x,1/2+y,z
1/2-x,1/2+y,1/2-z
1/2-x,1/2-y,-z
1/2+x,1/2-y,1/2+z
loop_
_atom_site_type_symbol
_atom_site_label
_atom_site_fract_x
_atom_site_fract_y
_atom_site_fract_z
Si Si1 0.649292 0.381065 0.738596
Si Si2 0.117365 0.561704 0.277391
Si Si3 0.925651 0.237821 0.586145
Si Si4 0.889727 0.101288 0.568224
Si Si5 0.877376 0.922187 0.494803
Si Si6 0.685064 0.256186 0.686977
Si Si7 0.195987 0.481721 0.054439
Si Si8 0.313559 0.707838 0.902801
O O1 0.780025 0.397567 0.759575
O O2 0.628637 0.394345 0.587763
O O3 0.635825 0.312284 0.759000
O O4 0.590427 0.416323 0.851365
O O5 0.126207 0.509137 0.171425
O O6 0.128345 0.543490 0.428526
O O7 0.000000 0.593563 0.250000
O O8 0.899455 0.168561 0.610335
O O9 0.814242 0.271356 0.639998
O O10 0.901849 0.252750 0.433714
O O11 0.061325 0.238220 0.621774
O O12 0.782415 0.066436 0.616390
O O13 0.009597 0.067750 0.586055
O O14 0.837213 0.857375 0.453005
O O15 0.780115 0.970447 0.489824
O O16 0.720108 0.204995 0.784229
O O17 0.250000 0.750000 0.000000
#
# Coordination Sequence:
#
# PCOD9263258 Si02
#       8
#     8   8   8   8   8   8   8   8
#     4   9  18  33  55  81 105 144 191 235 270 334
#     4  10  21  37  57  80 109 151 190 236 282 338
#     4   9  21  35  56  82 109 152 189 233 286 337
#     4   9  18  34  57  84 109 144 183 234 286 338
#     4  10  19  34  54  85 115 143 181 231 286 342
#     4  10  19  37  55  79 114 146 192 236 280 343
#     4  10  21  37  59  83 113 146 192 233 290 339
#     4  11  21  34  55  81 115 147 185 232 288 335
#
# _framework density 23.117318999999998
#
# number of rings (size 3 to 8) (size 9 to 14) (size 15 to 20)
#    0.000    2.250    1.250    1.500    0.000    2.500 
#    0.000    3.125    5.500    0.000    0.000    0.000 
#    0.000    0.000    0.000    0.000    0.000    0.000 
#
# Total GULP energy -178328.476616 kJ/mol
# GULP energy per Si atom -5572.764894 kJ/mol
# Density = 2.306470 g / cm^3
# Si number density = 23.117319 Si / 1000 Ang^3
#
#
#
# Elastic Constant Matrix: (Units=GPa)
#
#
# Indices 1 2 3 4 5 6 
#
# 1 87.5880 0.7118 -21.5618 0.0000 2.1274 0.0000
# 2 0.7118 27.6582 -6.7696 0.0000 4.1016 0.0000
# 3 -21.5618 -6.7696 33.2827 0.0000 10.2692 0.0000
# 4 0.0000 0.0000 0.0000 22.0263 0.0000 -5.8124
# 5 2.1274 4.1016 10.2692 0.0000 32.2779 0.0000
# 6 0.0000 0.0000 0.0000 -5.8124 0.0000 3.3855
#
#
#
# Elastic Compliance Matrix: (Units=1/GPa)
#
#
# Indices 1 2 3 4 5 6 
#
# 1 0.014339 0.003183 0.011480 0.000000 -0.005002 0.000000
# 2 0.003183 0.040763 0.013324 0.000000 -0.009628 0.000000
# 3 0.011480 0.013324 0.045406 0.000000 -0.016895 0.000000
# 4 0.000000 0.000000 0.000000 0.083007 0.000000 0.142511
# 5 -0.005002 -0.009628 -0.016895 0.000000 0.037909 0.000000
# 6 0.000000 0.000000 0.000000 0.142511 0.000000 0.540054
#
#
# Mechanical properties :
#
#
# Convention : Reuss Voigt Hill
#
# Bulk Modulus (GPa) = 6.39064 10.36551 8.37808
# Shear Modulus (GPa) = 6.59922 23.28117 14.94020
#
# Velocity S-wave (km/s) = 1.69141 3.17691 2.54496
# Velocity P-wave (km/s) = 2.56611 4.23681 3.50254
#
# Compressibility (1/GPa) = 0.15647878
#
# Stress axis : x y z
#
# Youngs Moduli (GPa) = 69.74129 24.53221 22.02370
#
# Poissons Ratio (x) = -0.07807 -0.25283
# Poissons Ratio (y) = -0.22195 -0.29344
# Poissons Ratio (z) = -0.80061 -0.32686
#
# Static dielectric constant tensor:
#      x y z
#    x 1.907290 0.000000 0.003160 
#    y 0.000000 1.840970 0.000000 
#    z 0.003160 0.000000 1.951150 
# 
# From -- ./inp_files/90852.got.cif
#   From: 2010.05.17/outbox.cif.g08.bks.cpg/sg15_46_cif.got.tgz:90852.got - 2010.06.03 18:47:42.
