data_PCOD9263935
_publ_section_title
;
Structure prediction by ZEFSAII (Michael W. Deem and Ramdas Pophale) SiO2 
 PCOD9263935
Probable space group: C 2/C
;
_chemical_formula_sum "Si O2"
_cell_formula_units_Z 56
_cell_length_a 7.853809
_cell_length_b 12.887709
_cell_length_c 28.813770
_cell_angle_alpha 90.000000
_cell_angle_beta 127.687797
_cell_angle_gamma 90.000000
_cell_volume 2307.952210
_symmetry_space_group_name_H-M "C 2/C"
_symmetry_group_IT_number 15
_symmetry_cell_setting 'monoclinic'
loop_
_space_group_symop_operation_xyz
x,y,z
-x,y,1/2-z
-x,-y,-z
x,-y,1/2+z
1/2+x,1/2+y,z
1/2-x,1/2+y,1/2-z
1/2-x,1/2-y,-z
1/2+x,1/2-y,1/2+z
loop_
_atom_site_type_symbol
_atom_site_label
_atom_site_fract_x
_atom_site_fract_y
_atom_site_fract_z
Si Si1 0.842064 0.130301 0.957262
Si Si2 0.981264 0.912778 0.659945
Si Si3 0.683976 0.375215 0.226351
Si Si4 0.229825 0.284010 0.169072
Si Si5 0.816916 0.709383 0.944417
Si Si6 0.695985 0.257460 0.138501
Si Si7 0.307050 0.501674 0.535378
O O1 0.730211 0.201280 0.899899
O O2 0.729195 0.073003 0.981395
O O3 0.965150 0.044248 0.946775
O O4 0.023269 0.203694 0.010493
O O5 0.808579 0.853035 0.662948
O O6 0.859101 0.948828 0.592867
O O7 0.160356 0.829105 0.674808
O O8 0.087384 0.011530 0.701803
O O9 0.483884 0.296902 0.201155
O O10 0.812795 0.363461 0.295534
O O11 0.770680 0.333771 0.191861
O O12 0.141239 0.306454 0.103015
O O13 0.564700 0.743371 0.906997
O O14 0.832433 0.603657 0.976781
#
# Coordination Sequence:
#
# PCOD9263935 Si02
#       7
#     8   8   8   8   8   8   8
#     4  10  19  38  64  92 134 176 205 259 311 387
#     4  12  22  42  67  94 127 167 210 270 323 375
#     4  10  23  46  62  89 129 166 214 273 318 383
#     4  10  22  41  68  88 123 170 215 262 324 382
#     4  10  19  42  63  92 135 174 209 259 314 386
#     4  10  22  38  64  97 129 167 217 261 318 375
#     4  10  19  34  64  89 126 170 201 251 323 357
#
# _framework density 24.263933999999999
#
# number of rings (size 3 to 8) (size 9 to 14) (size 15 to 20)
#    0.000    1.714    5.714    1.714    0.000    3.429 
#    0.000   14.286    0.000    0.000    0.000    0.000 
#    0.000    0.000    0.000    0.000    0.000    0.000 
#
# Total GULP energy -156582.716976 kJ/mol
# GULP energy per Si atom -5592.239892 kJ/mol
# Density = 2.420871 g / cm^3
# Si number density = 24.263934 Si / 1000 Ang^3
#
#
#
# Elastic Constant Matrix: (Units=GPa)
#
#
# Indices 1 2 3 4 5 6 
#
# 1 109.8430 46.3134 40.5903 0.0000 -14.6800 0.0000
# 2 46.3134 136.5044 56.2942 0.0000 -5.4146 0.0000
# 3 40.5903 56.2942 141.7331 0.0000 -27.7729 0.0000
# 4 0.0000 0.0000 0.0000 25.6703 0.0000 1.6688
# 5 -14.6800 -5.4146 -27.7729 0.0000 41.2693 0.0000
# 6 0.0000 0.0000 0.0000 1.6688 0.0000 27.1638
#
#
#
# Elastic Compliance Matrix: (Units=1/GPa)
#
#
# Indices 1 2 3 4 5 6 
#
# 1 0.011320 -0.003123 -0.001489 0.000000 0.002615 0.000000
# 2 -0.003123 0.009690 -0.003367 0.000000 -0.002105 0.000000
# 3 -0.001489 -0.003367 0.009940 0.000000 0.005718 0.000000
# 4 0.000000 0.000000 0.000000 0.039112 0.000000 -0.002403
# 5 0.002615 -0.002105 0.005718 0.000000 0.028733 0.000000
# 6 0.000000 0.000000 0.000000 -0.002403 0.000000 0.036961
#
#
# Mechanical properties :
#
#
# Convention : Reuss Voigt Hill
#
# Bulk Modulus (GPa) = 66.70190 74.94180 70.82185
# Shear Modulus (GPa) = 31.90564 35.14619 33.52591
#
# Velocity S-wave (km/s) = 3.63015 3.81004 3.72118
# Velocity P-wave (km/s) = 6.71717 7.09284 6.90756
#
# Compressibility (1/GPa) = 0.01499208
#
# Stress axis : x y z
#
# Youngs Moduli (GPa) = 88.33600 103.19515 100.60627
#
# Poissons Ratio (x) = 0.32227 0.14983
# Poissons Ratio (y) = 0.27587 0.33875
# Poissons Ratio (z) = 0.13155 0.34746
#
# Static dielectric constant tensor:
#      x y z
#    x 2.013130 0.000000 -0.003860 
#    y 0.000000 1.912300 0.000000 
#    z -0.003860 0.000000 1.961520 
# 
# From -- ./inp_files/307534.got.cif
#   From: 2010.05.17/outbox.cif.g08.bks.cpg/sg15_154_cif.got.tgz:307534.got - 2010.06.03 18:47:42.
