data_PCOD9263162
_publ_section_title
;
Structure prediction by ZEFSAII (Michael W. Deem and Ramdas Pophale) SiO2 
 PCOD9263162
Probable space group: C 2/C
;
_chemical_formula_sum "Si O2"
_cell_formula_units_Z 60
_cell_length_a 22.347533
_cell_length_b 21.343012
_cell_length_c 8.300784
_cell_angle_alpha 90.000000
_cell_angle_beta 125.123511
_cell_angle_gamma 90.000000
_cell_volume 3238.261307
_symmetry_space_group_name_H-M "C 2/C"
_symmetry_group_IT_number 15
_symmetry_cell_setting 'monoclinic'
loop_
_space_group_symop_operation_xyz
x,y,z
-x,y,1/2-z
-x,-y,-z
x,-y,1/2+z
1/2+x,1/2+y,z
1/2-x,1/2+y,1/2-z
1/2-x,1/2-y,-z
1/2+x,1/2-y,1/2+z
loop_
_atom_site_type_symbol
_atom_site_label
_atom_site_fract_x
_atom_site_fract_y
_atom_site_fract_z
Si Si1 0.037624 0.061341 0.638100
Si Si2 0.470817 0.175987 0.891169
Si Si3 0.467240 0.318372 0.876264
Si Si4 0.672120 0.597304 0.353098
Si Si5 0.352033 0.981425 0.444765
Si Si6 0.837459 0.404005 0.103414
Si Si7 0.500000 0.093155 0.250000
Si Si8 0.182838 0.029457 0.714121
O O1 0.124786 0.057406 0.750113
O O2 0.000000 0.060366 0.750000
O O3 0.014638 0.127540 0.529791
O O4 0.000000 0.000000 0.500000
O O5 0.500000 0.169816 0.750000
O O6 0.472039 0.248081 0.949096
O O7 0.389063 0.151140 0.738357
O O8 0.502565 0.133835 0.087496
O O9 0.500000 0.313017 0.750000
O O10 0.386243 0.347894 0.748505
O O11 0.755152 0.619489 0.471326
O O12 0.665072 0.560328 0.513502
O O13 0.665989 0.544635 0.204483
O O14 0.346075 0.958308 0.251963
O O15 0.425366 0.948243 0.625394
O O16 0.269928 0.963464 0.383419
O O17 0.358155 0.056387 0.476735
#
# Coordination Sequence:
#
# PCOD9263162 Si02
#       8
#     8   8   8   8   8   8   4   8
#     4  12  22  33  56  84 113 151 191 239 286 342
#     4  10  24  40  59  82 115 154 198 241 288 346
#     4  11  22  38  55  80 108 156 197 229 284 341
#     4  10  19  34  56  80 117 146 185 234 287 347
#     4   9  20  34  60  86 112 146 181 242 296 346
#     4   9  20  36  56  88 113 146 185 236 296 344
#     4  10  22  42  62  86 114 150 196 244 298 356
#     4  10  19  34  52  84 119 141 183 240 293 336
#
# _framework density 18.528462000000001
#
# number of rings (size 3 to 8) (size 9 to 14) (size 15 to 20)
#    0.000    1.867    2.667    1.200    3.733    1.600 
#    0.000    0.000    0.000    0.800    0.000    0.000 
#    0.000    0.000    0.000    0.000    0.000    0.000 
#
# Total GULP energy -167024.732119 kJ/mol
# GULP energy per Si atom -5567.491071 kJ/mol
# Density = 1.848629 g / cm^3
# Si number density = 18.528462 Si / 1000 Ang^3
#
#
#
# Elastic Constant Matrix: (Units=GPa)
#
#
# Indices 1 2 3 4 5 6 
#
# 1 75.9161 30.1799 26.5020 0.0000 11.0172 0.0000
# 2 30.1799 56.9121 4.4407 0.0000 13.5260 0.0000
# 3 26.5020 4.4407 46.1156 0.0000 17.0847 0.0000
# 4 0.0000 0.0000 0.0000 23.4450 0.0000 -7.3250
# 5 11.0172 13.5260 17.0847 0.0000 28.2094 0.0000
# 6 0.0000 0.0000 0.0000 -7.3250 0.0000 17.1771
#
#
#
# Elastic Compliance Matrix: (Units=1/GPa)
#
#
# Indices 1 2 3 4 5 6 
#
# 1 0.021704 -0.011702 -0.013260 0.000000 0.005165 0.000000
# 2 -0.011702 0.026296 0.009245 0.000000 -0.013638 0.000000
# 3 -0.013260 0.009245 0.036278 0.000000 -0.021226 0.000000
# 4 0.000000 0.000000 0.000000 0.049209 0.000000 0.020985
# 5 0.005165 -0.013638 -0.021226 0.000000 0.052826 0.000000
# 6 0.000000 0.000000 0.000000 0.020985 0.000000 0.067166
#
#
# Mechanical properties :
#
#
# Convention : Reuss Voigt Hill
#
# Bulk Modulus (GPa) = 18.92318 33.46544 26.19431
# Shear Modulus (GPa) = 16.52742 21.62106 19.07424
#
# Velocity S-wave (km/s) = 2.98988 3.41971 3.21199
# Velocity P-wave (km/s) = 4.70684 5.80460 5.28431
#
# Compressibility (1/GPa) = 0.05284524
#
# Stress axis : x y z
#
# Youngs Moduli (GPa) = 46.07469 38.02814 27.56484
#
# Poissons Ratio (x) = 0.44502 0.36550
# Poissons Ratio (y) = 0.53918 -0.25485
# Poissons Ratio (z) = 0.61093 -0.35158
#
# Static dielectric constant tensor:
#      x y z
#    x 1.667750 0.000000 -0.010990 
#    y 0.000000 1.578330 0.000000 
#    z -0.010990 0.000000 1.697960 
# 
# From -- ./inp_files/58110.got.cif
#   From: 2010.05.17/outbox.cif.g08.bks.cpg/sg15_30_cif.got.tgz:58110.got - 2010.06.03 18:47:42.
