data_PCOD9263989
_publ_section_title
;
Structure prediction by ZEFSAII (Michael W. Deem and Ramdas Pophale) SiO2 
 PCOD9263989
Probable space group: C 2/C
;
_chemical_formula_sum "Si O2"
_cell_formula_units_Z 56
_cell_length_a 19.222151
_cell_length_b 15.779664
_cell_length_c 9.402564
_cell_angle_alpha 90.000000
_cell_angle_beta 100.717456
_cell_angle_gamma 90.000000
_cell_volume 2802.227740
_symmetry_space_group_name_H-M "C 2/C"
_symmetry_group_IT_number 15
_symmetry_cell_setting 'monoclinic'
loop_
_space_group_symop_operation_xyz
x,y,z
-x,y,1/2-z
-x,-y,-z
x,-y,1/2+z
1/2+x,1/2+y,z
1/2-x,1/2+y,1/2-z
1/2-x,1/2-y,-z
1/2+x,1/2-y,1/2+z
loop_
_atom_site_type_symbol
_atom_site_label
_atom_site_fract_x
_atom_site_fract_y
_atom_site_fract_z
Si Si1 0.856475 0.626881 0.668548
Si Si2 0.804495 0.903276 0.322989
Si Si3 0.842574 0.782469 0.832797
Si Si4 0.451484 0.027090 0.111131
Si Si5 0.173182 0.065715 0.994032
Si Si6 0.190897 0.292714 0.643097
Si Si7 0.172846 0.645828 0.438063
O O1 0.782458 0.595709 0.713915
O O2 0.884624 0.711846 0.758391
O O3 0.912403 0.552337 0.671391
O O4 0.832553 0.655979 0.502265
O O5 0.822009 0.807435 0.373905
O O6 0.831746 0.971586 0.446471
O O7 0.836271 0.923532 0.178771
O O8 0.868715 0.868247 0.918706
O O9 0.774902 0.803172 0.707595
O O10 0.816894 0.726298 0.957359
O O11 0.500000 0.069163 0.250000
O O12 0.390273 0.088017 0.031487
O O13 0.500000 0.000000 0.000000
O O14 0.255206 0.093297 0.044581
O O15 0.154302 0.325153 0.772189
#
# Coordination Sequence:
#
# PCOD9263989 Si02
#       7
#     8   8   8   8   8   8   8
#     4  11  22  35  53  74 113 151 188 234 277 320
#     4  11  21  32  51  82 112 141 184 214 280 348
#     4  10  19  35  52  76 106 150 185 218 283 353
#     4  12  26  39  55  82 110 153 209 241 264 313
#     4  11  21  31  53  80 111 144 180 220 275 353
#     4  10  20  33  52  79 106 147 188 220 276 355
#     4  11  19  37  55  68 113 154 184 233 283 313
#
# _framework density 19.984100999999999
#
# number of rings (size 3 to 8) (size 9 to 14) (size 15 to 20)
#    0.000    1.143    5.714    4.286    6.000    0.000 
#    0.000    0.000    0.000    0.000    0.000    0.000 
#    0.000   22.857    0.000    0.000    0.000    0.000 
#
# Total GULP energy -156272.050368 kJ/mol
# GULP energy per Si atom -5581.144656 kJ/mol
# Density = 1.993862 g / cm^3
# Si number density = 19.984101 Si / 1000 Ang^3
#
#
#
# Elastic Constant Matrix: (Units=GPa)
#
#
# Indices 1 2 3 4 5 6 
#
# 1 30.3423 4.6036 -9.0905 0.0000 -5.5231 0.0000
# 2 4.6036 49.2453 2.2092 0.0000 -3.1792 0.0000
# 3 -9.0905 2.2092 88.1773 0.0000 -6.6834 0.0000
# 4 0.0000 0.0000 0.0000 39.1971 0.0000 -9.9275
# 5 -5.5231 -3.1792 -6.6834 0.0000 19.2510 0.0000
# 6 0.0000 0.0000 0.0000 -9.9275 0.0000 15.7505
#
#
#
# Elastic Compliance Matrix: (Units=1/GPa)
#
#
# Indices 1 2 3 4 5 6 
#
# 1 0.036976 -0.002910 0.004778 0.000000 0.011787 0.000000
# 2 -0.002910 0.020760 -0.000640 0.000000 0.002371 0.000000
# 3 0.004778 -0.000640 0.012268 0.000000 0.005524 0.000000
# 4 0.000000 0.000000 0.000000 0.030358 0.000000 0.019135
# 5 0.011787 0.002371 0.005524 0.000000 0.057636 0.000000
# 6 0.000000 0.000000 0.000000 0.019135 0.000000 0.075551
#
#
# Mechanical properties :
#
#
# Convention : Reuss Voigt Hill
#
# Bulk Modulus (GPa) = 13.80073 18.13440 15.96757
# Shear Modulus (GPa) = 19.58882 26.17589 22.88235
#
# Velocity S-wave (km/s) = 3.13424 3.62309 3.38750
# Velocity P-wave (km/s) = 4.47424 5.15718 4.82780
#
# Compressibility (1/GPa) = 0.07245992
#
# Stress axis : x y z
#
# Youngs Moduli (GPa) = 27.04467 48.16866 81.51193
#
# Poissons Ratio (x) = 0.14017 -0.38948
# Poissons Ratio (y) = 0.07870 0.05220
# Poissons Ratio (z) = -0.12923 0.03085
#
# Static dielectric constant tensor:
#      x y z
#    x 1.691280 0.000000 -0.025550 
#    y 0.000000 1.727990 0.000000 
#    z -0.025550 0.000000 1.749830 
# 
# From -- ./inp_files/56179.got.cif
#   From: 2010.05.17/outbox.cif.g08.bks.cpg/sg15_29_cif.got.tgz:56179.got - 2010.06.03 18:47:42.
