data_PCOD9263390
_publ_section_title
;
Structure prediction by ZEFSAII (Michael W. Deem and Ramdas Pophale) SiO2 
 PCOD9263390
Probable space group: C 2/C
;
_chemical_formula_sum "Si O2"
_cell_formula_units_Z 48
_cell_length_a 20.771263
_cell_length_b 9.308615
_cell_length_c 15.519628
_cell_angle_alpha 90.000000
_cell_angle_beta 117.412747
_cell_angle_gamma 90.000000
_cell_volume 2663.801444
_symmetry_space_group_name_H-M "C 2/C"
_symmetry_group_IT_number 15
_symmetry_cell_setting 'monoclinic'
loop_
_space_group_symop_operation_xyz
x,y,z
-x,y,1/2-z
-x,-y,-z
x,-y,1/2+z
1/2+x,1/2+y,z
1/2-x,1/2+y,1/2-z
1/2-x,1/2-y,-z
1/2+x,1/2-y,1/2+z
loop_
_atom_site_type_symbol
_atom_site_label
_atom_site_fract_x
_atom_site_fract_y
_atom_site_fract_z
Si Si1 0.784298 0.404647 0.540153
Si Si2 0.075895 0.247931 0.834863
Si Si3 0.887192 0.020037 0.261353
Si Si4 0.257123 0.338540 0.593727
Si Si5 0.320106 0.579731 0.900257
Si Si6 0.963435 0.006708 0.070260
O O1 0.750000 0.250000 0.500000
O O2 0.867164 0.372551 0.613772
O O3 0.775682 0.507434 0.451981
O O4 0.739575 0.479346 0.590061
O O5 0.000000 0.300009 0.750000
O O6 0.108389 0.128760 0.789256
O O7 0.058421 0.150677 0.908024
O O8 0.837544 0.130931 0.178415
O O9 0.971284 0.063018 0.329198
O O10 0.848976 0.987445 0.329321
O O11 0.250000 0.250000 0.500000
O O12 0.213371 0.237811 0.632466
O O13 0.388297 0.589052 0.008494
O O14 0.000000 0.000000 0.000000
#
# Coordination Sequence:
#
# PCOD9263390 Si02
#       6
#     8   8   8   8   8   8
#     4  11  19  35  58  80 111 152 187 234 292 339
#     4  10  19  34  56  83 109 150 198 228 280 348
#     4  10  20  33  58  81 112 154 194 234 284 347
#     4  10  21  36  52  84 117 148 189 238 285 342
#     4  10  21  35  56  86 117 142 197 245 287 336
#     4   9  18  35  56  82 110 151 198 239 278 344
#
# _framework density 18.019362000000001
#
# number of rings (size 3 to 8) (size 9 to 14) (size 15 to 20)
#    0.000    2.000    3.333    1.000    2.333    0.000 
#    0.000    3.333    0.000    9.000    0.000    0.000 
#    0.000    0.000    0.000    0.000    0.000    0.000 
#
# Total GULP energy -133691.050477 kJ/mol
# GULP energy per Si atom -5570.460437 kJ/mol
# Density = 1.797835 g / cm^3
# Si number density = 18.019362 Si / 1000 Ang^3
#
#
#
# Elastic Constant Matrix: (Units=GPa)
#
#
# Indices 1 2 3 4 5 6 
#
# 1 108.7518 34.0400 50.8028 0.0000 11.4190 0.0000
# 2 34.0400 77.9922 32.3152 0.0000 16.3803 0.0000
# 3 50.8028 32.3152 104.5424 0.0000 28.6935 0.0000
# 4 0.0000 0.0000 0.0000 26.3548 0.0000 10.3030
# 5 11.4190 16.3803 28.6935 0.0000 54.1375 0.0000
# 6 0.0000 0.0000 0.0000 10.3030 0.0000 22.6204
#
#
#
# Elastic Compliance Matrix: (Units=1/GPa)
#
#
# Indices 1 2 3 4 5 6 
#
# 1 0.012712 -0.003568 -0.005424 0.000000 0.001273 0.000000
# 2 -0.003568 0.015975 -0.002439 0.000000 -0.002788 0.000000
# 3 -0.005424 -0.002439 0.014556 0.000000 -0.005833 0.000000
# 4 0.000000 0.000000 0.000000 0.046164 0.000000 -0.021026
# 5 0.001273 -0.002788 -0.005833 0.000000 0.022138 0.000000
# 6 0.000000 0.000000 0.000000 -0.021026 0.000000 0.053785
#
#
# Mechanical properties :
#
#
# Convention : Reuss Voigt Hill
#
# Bulk Modulus (GPa) = 49.06406 58.40026 53.73216
# Shear Modulus (GPa) = 25.64285 32.23110 28.93697
#
# Velocity S-wave (km/s) = 3.77645 4.23388 4.01169
# Velocity P-wave (km/s) = 6.80464 7.50873 7.16534
#
# Compressibility (1/GPa) = 0.02038152
#
# Stress axis : x y z
#
# Youngs Moduli (GPa) = 78.66418 62.59656 68.69968
#
# Poissons Ratio (x) = 0.22337 0.37263
# Poissons Ratio (y) = 0.28070 0.16754
# Poissons Ratio (z) = 0.42667 0.15266
#
# Static dielectric constant tensor:
#      x y z
#    x 1.653630 0.000000 0.008770 
#    y 0.000000 1.608810 0.000000 
#    z 0.008770 0.000000 1.681250 
# 
# From -- ./inp_files/213555.got.cif
#   From: 2010.05.17/outbox.cif.g08.bks.cpg/sg15_107_cif.got.tgz:213555.got - 2010.06.03 18:47:42.
