data_PCOD9263474
_publ_section_title
;
Structure prediction by ZEFSAII (Michael W. Deem and Ramdas Pophale) SiO2 
 PCOD9263474
Probable space group: C 2/C
;
_chemical_formula_sum "Si O2"
_cell_formula_units_Z 40
_cell_length_a 5.180585
_cell_length_b 24.532365
_cell_length_c 12.729015
_cell_angle_alpha 90.000000
_cell_angle_beta 93.615711
_cell_angle_gamma 90.000000
_cell_volume 1614.535815
_symmetry_space_group_name_H-M "C 2/C"
_symmetry_group_IT_number 15
_symmetry_cell_setting 'monoclinic'
loop_
_space_group_symop_operation_xyz
x,y,z
-x,y,1/2-z
-x,-y,-z
x,-y,1/2+z
1/2+x,1/2+y,z
1/2-x,1/2+y,1/2-z
1/2-x,1/2-y,-z
1/2+x,1/2-y,1/2+z
loop_
_atom_site_type_symbol
_atom_site_label
_atom_site_fract_x
_atom_site_fract_y
_atom_site_fract_z
Si Si1 0.593240 0.665293 0.862674
Si Si2 0.095337 0.711901 0.875717
Si Si3 0.720206 0.946093 0.082185
Si Si4 0.261531 0.826843 0.822641
Si Si5 0.701965 0.436669 0.945112
O O1 0.500000 0.690380 0.750000
O O2 0.316939 0.668641 0.911687
O O3 0.707744 0.605452 0.844852
O O4 0.823265 0.698220 0.923921
O O5 0.218011 0.771582 0.888211
O O6 0.000000 0.705926 0.750000
O O7 0.782639 0.007017 0.121007
O O8 0.422395 0.944558 0.039886
O O9 0.915688 0.935121 0.988440
O O10 0.500000 0.819614 0.750000
O O11 0.280460 0.883498 0.883690
O O12 0.000000 0.831084 0.750000
#
# Coordination Sequence:
#
# PCOD9263474 Si02
#       5
#     8   8   8   8   8
#     4  10  19  34  57  82 108 142 184 223 265 324
#     4   9  18  33  53  80 111 141 173 223 280 316
#     4  10  21  39  57  78 114 149 179 224 280 327
#     4  11  21  37  60  83 109 143 187 228 266 325
#     4  10  22  39  57  79 112 150 181 223 282 325
#
# _framework density 24.774923000000001
#
# number of rings (size 3 to 8) (size 9 to 14) (size 15 to 20)
#    0.000    2.000    0.000    5.400    0.000    0.800 
#    0.000    9.000    0.000    0.000    0.000    0.000 
#    0.000    0.000    0.000    0.000    0.000    0.000 
#
# Total GULP energy -111718.482251 kJ/mol
# GULP energy per Si atom -5585.924113 kJ/mol
# Density = 2.471853 g / cm^3
# Si number density = 24.774923 Si / 1000 Ang^3
#
#
#
# Elastic Constant Matrix: (Units=GPa)
#
#
# Indices 1 2 3 4 5 6 
#
# 1 175.6289 34.9218 13.0354 0.0000 12.4444 0.0000
# 2 34.9218 182.4250 18.9656 0.0000 -2.2241 0.0000
# 3 13.0354 18.9656 25.6990 0.0000 -3.8376 0.0000
# 4 0.0000 0.0000 0.0000 34.4937 0.0000 1.5390
# 5 12.4444 -2.2241 -3.8376 0.0000 20.5989 0.0000
# 6 0.0000 0.0000 0.0000 1.5390 0.0000 39.6289
#
#
#
# Elastic Compliance Matrix: (Units=1/GPa)
#
#
# Indices 1 2 3 4 5 6 
#
# 1 0.006451 -0.000953 -0.003257 0.000000 -0.004607 0.000000
# 2 -0.000953 0.006079 -0.003928 0.000000 0.000500 0.000000
# 3 -0.003257 -0.003928 0.044944 0.000000 0.009917 0.000000
# 4 0.000000 0.000000 0.000000 0.029041 0.000000 -0.001128
# 5 -0.004607 0.000500 0.009917 0.000000 0.053231 0.000000
# 6 0.000000 0.000000 0.000000 -0.001128 0.000000 0.025278
#
#
# Mechanical properties :
#
#
# Convention : Reuss Voigt Hill
#
# Bulk Modulus (GPa) = 24.27303 57.51093 40.89198
# Shear Modulus (GPa) = 25.63670 40.06631 32.85151
#
# Velocity S-wave (km/s) = 3.22030 4.02582 3.64538
# Velocity P-wave (km/s) = 4.86269 6.69876 5.85317
#
# Compressibility (1/GPa) = 0.04119800
#
# Stress axis : x y z
#
# Youngs Moduli (GPa) = 155.00408 164.51376 22.24987
#
# Poissons Ratio (x) = 0.15670 0.07248
# Poissons Ratio (y) = 0.14764 0.08740
# Poissons Ratio (z) = 0.50492 0.64622
#
# Static dielectric constant tensor:
#      x y z
#    x 2.031150 0.000000 -0.101160 
#    y 0.000000 2.037770 0.000000 
#    z -0.101160 0.000000 2.033590 
# 
# From -- ./inp_files/129107.got.cif
#   From: 2010.05.17/outbox.cif.g08.bks.cpg/sg15_65_cif.got.tgz:129107.got - 2010.06.03 18:47:42.
