data_PCOD9263110
_publ_section_title
;
Structure prediction by ZEFSAII (Michael W. Deem and Ramdas Pophale) SiO2 
 PCOD9263110
Probable space group: C 2/C
;
_chemical_formula_sum "Si O2"
_cell_formula_units_Z 60
_cell_length_a 14.022621
_cell_length_b 30.783329
_cell_length_c 8.481036
_cell_angle_alpha 90.000000
_cell_angle_beta 97.420422
_cell_angle_gamma 90.000000
_cell_volume 3630.289324
_symmetry_space_group_name_H-M "C 2/C"
_symmetry_group_IT_number 15
_symmetry_cell_setting 'monoclinic'
loop_
_space_group_symop_operation_xyz
x,y,z
-x,y,1/2-z
-x,-y,-z
x,-y,1/2+z
1/2+x,1/2+y,z
1/2-x,1/2+y,1/2-z
1/2-x,1/2-y,-z
1/2+x,1/2-y,1/2+z
loop_
_atom_site_type_symbol
_atom_site_label
_atom_site_fract_x
_atom_site_fract_y
_atom_site_fract_z
Si Si1 0.893693 0.929889 0.143576
Si Si2 0.105179 0.230273 0.027793
Si Si3 0.307114 0.182190 0.554353
Si Si4 0.200162 0.253626 0.733970
Si Si5 0.075149 0.023080 0.397643
Si Si6 0.826768 0.106400 0.927384
Si Si7 0.474589 0.636146 0.428878
Si Si8 0.000000 0.709665 0.750000
O O1 0.820901 0.904845 0.241686
O O2 0.000000 0.929787 0.250000
O O3 0.864400 0.980401 0.135310
O O4 0.912518 0.904056 0.985835
O O5 0.204732 0.235130 0.144945
O O6 0.030559 0.259738 0.109695
O O7 0.076086 0.180452 0.036051
O O8 0.120691 0.243885 0.849731
O O9 0.230496 0.211723 0.636413
O O10 0.320972 0.207437 0.392095
O O11 0.261604 0.134383 0.528561
O O12 0.406703 0.183236 0.672720
O O13 0.140492 0.061748 0.477633
O O14 0.000000 0.038881 0.250000
O O15 0.000000 0.000000 0.500000
O O16 0.922168 0.135250 0.965896
O O17 0.500000 0.634906 0.250000
#
# Coordination Sequence:
#
# PCOD9263110 Si02
#       8
#     8   8   8   8   8   8   8   4
#     4   9  19  31  44  71 107 142 170 201 254 315
#     4  10  19  34  50  77 104 144 175 225 268 314
#     4  10  21  37  51  76  98 141 183 232 268 317
#     4   9  20  35  53  71 107 135 184 229 265 315
#     4  11  18  33  50  75 112 145 165 197 263 327
#     4  11  21  32  50  74 106 139 175 216 253 322
#     4  11  19  27  47  76 104 138 179 209 251 312
#     4  10  22  38  54  68 104 140 188 232 278 304
#
# _framework density 16.527609000000002
#
# number of rings (size 3 to 8) (size 9 to 14) (size 15 to 20)
#    0.000    1.867    4.667    2.000    3.733    0.533 
#    0.000    0.000    0.000    0.000    0.000    0.933 
#    0.000    0.000    0.000    0.000    0.000    0.000 
#
# Total GULP energy -167138.791001 kJ/mol
# GULP energy per Si atom -5571.293033 kJ/mol
# Density = 1.648999 g / cm^3
# Si number density = 16.527609 Si / 1000 Ang^3
#
#
#
# Elastic Constant Matrix: (Units=GPa)
#
#
# Indices 1 2 3 4 5 6 
#
# 1 46.0294 46.2513 28.8537 0.0000 -9.9109 0.0000
# 2 46.2513 120.3972 50.2489 0.0000 -7.5460 0.0000
# 3 28.8537 50.2489 99.4669 0.0000 -27.5089 0.0000
# 4 0.0000 0.0000 0.0000 15.3990 0.0000 0.9413
# 5 -9.9109 -7.5460 -27.5089 0.0000 23.5395 0.0000
# 6 0.0000 0.0000 0.0000 0.9413 0.0000 24.7080
#
#
#
# Elastic Compliance Matrix: (Units=1/GPa)
#
#
# Indices 1 2 3 4 5 6 
#
# 1 0.038398 -0.013471 -0.001561 0.000000 0.010024 0.000000
# 2 -0.013471 0.015539 -0.006107 0.000000 -0.007827 0.000000
# 3 -0.001561 -0.006107 0.019014 0.000000 0.019605 0.000000
# 4 0.000000 0.000000 0.000000 0.065091 0.000000 -0.002480
# 5 0.010024 -0.007827 0.019605 0.000000 0.067104 0.000000
# 6 0.000000 0.000000 0.000000 -0.002480 0.000000 0.040567
#
#
# Mechanical properties :
#
#
# Convention : Reuss Voigt Hill
#
# Bulk Modulus (GPa) = 32.60248 57.40015 45.00131
# Shear Modulus (GPa) = 16.76644 22.09863 19.43254
#
# Velocity S-wave (km/s) = 3.18850 3.66057 3.43266
# Velocity P-wave (km/s) = 5.77272 7.25752 6.55728
#
# Compressibility (1/GPa) = 0.03067252
#
# Stress axis : x y z
#
# Youngs Moduli (GPa) = 26.04292 64.35378 52.59410
#
# Poissons Ratio (x) = 0.86692 0.08210
# Poissons Ratio (y) = 0.35083 0.32120
# Poissons Ratio (z) = 0.04065 0.39301
#
# Static dielectric constant tensor:
#      x y z
#    x 1.556680 0.000000 -0.030940 
#    y 0.000000 1.624700 0.000000 
#    z -0.030940 0.000000 1.562170 
# 
# From -- ./inp_files/43190.got.cif
#   From: 2010.05.17/outbox.cif.g08.bks.cpg/sg15_22_cif.got.tgz:43190.got - 2010.06.03 18:47:42.
