data_PCOD9263173
_publ_section_title
;
Structure prediction by ZEFSAII (Michael W. Deem and Ramdas Pophale) SiO2 
 PCOD9263173
Probable space group: C 2/C
;
_chemical_formula_sum "Si O2"
_cell_formula_units_Z 48
_cell_length_a 23.250818
_cell_length_b 13.334064
_cell_length_c 26.759443
_cell_angle_alpha 90.000000
_cell_angle_beta 159.449530
_cell_angle_gamma 90.000000
_cell_volume 2912.225212
_symmetry_space_group_name_H-M "C 2/C"
_symmetry_group_IT_number 15
_symmetry_cell_setting 'monoclinic'
loop_
_space_group_symop_operation_xyz
x,y,z
-x,y,1/2-z
-x,-y,-z
x,-y,1/2+z
1/2+x,1/2+y,z
1/2-x,1/2+y,1/2-z
1/2-x,1/2-y,-z
1/2+x,1/2-y,1/2+z
loop_
_atom_site_type_symbol
_atom_site_label
_atom_site_fract_x
_atom_site_fract_y
_atom_site_fract_z
Si Si1 0.680314 0.353863 0.884939
Si Si2 0.292416 0.056990 0.374680
Si Si3 0.820683 0.377332 0.108817
Si Si4 0.958517 0.944073 0.544365
Si Si5 0.441885 0.653169 0.923418
Si Si6 0.119726 0.654248 0.596270
O O1 0.500000 0.392668 0.750000
O O2 0.760356 0.413947 0.905372
O O3 0.666609 0.236256 0.859099
O O4 0.770228 0.363002 0.010477
O O5 0.454496 0.114527 0.488457
O O6 0.131336 0.085381 0.211035
O O7 0.321641 0.938746 0.390004
O O8 0.000000 0.424845 0.250000
O O9 0.686026 0.432683 0.032827
O O10 0.923203 0.877074 0.466599
O O11 0.982281 0.056840 0.543106
O O12 0.266545 0.674733 0.754925
O O13 0.563864 0.747252 0.021325
#
# Coordination Sequence:
#
# PCOD9263173 Si02
#       6
#     8   8   8   8   8   8
#     4  10  19  34  53  75 106 140 168 212 259 311
#     4  10  20  35  56  78 105 139 177 211 260 315
#     4  10  21  32  51  81 108 136 171 210 262 311
#     4  10  20  36  54  78 108 138 172 218 261 309
#     4  10  21  35  55  77 106 139 173 218 264 305
#     4  10  21  35  54  80 104 138 175 216 262 310
#
# _framework density 16.482243
#
# number of rings (size 3 to 8) (size 9 to 14) (size 15 to 20)
#    0.000    2.000    1.667    2.000    2.333    1.333 
#    0.000    0.000    0.000    2.000    0.000    0.000 
#    0.000    0.000    0.000    0.000    0.000    0.000 
#
# Total GULP energy -133818.134174 kJ/mol
# GULP energy per Si atom -5575.755591 kJ/mol
# Density = 1.644473 g / cm^3
# Si number density = 16.482243 Si / 1000 Ang^3
#
#
#
# Elastic Constant Matrix: (Units=GPa)
#
#
# Indices 1 2 3 4 5 6 
#
# 1 110.5256 34.8174 40.8185 0.0029 6.1131 0.0005
# 2 34.8174 57.7823 37.1449 -0.0063 -1.4351 -0.0005
# 3 40.8185 37.1449 115.3213 0.0009 8.1031 0.0001
# 4 0.0029 -0.0063 0.0009 28.4779 -0.0002 -3.2304
# 5 6.1131 -1.4351 8.1031 -0.0002 22.4239 0.0003
# 6 0.0005 -0.0005 0.0001 -3.2304 0.0003 18.6846
#
#
#
# Elastic Compliance Matrix: (Units=1/GPa)
#
#
# Indices 1 2 3 4 5 6 
#
# 1 0.011822 -0.005841 -0.002103 -0.000003 -0.002836 -0.000001
# 2 -0.005841 0.025075 -0.006396 0.000007 0.005508 0.000002
# 3 -0.002103 -0.006396 0.011763 -0.000002 -0.004087 0.000000
# 4 -0.000003 0.000007 -0.000002 0.035817 0.000002 0.006193
# 5 -0.002836 0.005508 -0.004087 0.000002 0.047198 0.000000
# 6 -0.000001 0.000002 0.000000 0.006193 0.000000 0.054591
#
#
# Mechanical properties :
#
#
# Convention : Reuss Voigt Hill
#
# Bulk Modulus (GPa) = 50.05599 56.57674 53.31637
# Shear Modulus (GPa) = 22.56258 25.30720 23.93489
#
# Velocity S-wave (km/s) = 3.70388 3.92270 3.81486
# Velocity P-wave (km/s) = 6.98049 7.41061 7.19876
#
# Compressibility (1/GPa) = 0.01997763
#
# Stress axis : x y z
#
# Youngs Moduli (GPa) = 84.59127 39.88110 85.01076
#
# Poissons Ratio (x) = 0.23296 0.17882
# Poissons Ratio (y) = 0.49414 0.54372
# Poissons Ratio (z) = 0.17793 0.25508
#
# Static dielectric constant tensor:
#      x y z
#    x 1.496470 0.000000 0.029540 
#    y 0.000000 1.559520 0.000000 
#    z 0.029540 0.000000 1.535120 
# 
# From -- ./inp_files/55413.got.cif
#   From: 2010.05.17/outbox.cif.g08.bks.cpg/sg15_28_cif.got.tgz:55413.got - 2010.06.03 18:47:42.
