data_PCOD9263596
_publ_section_title
;
Structure prediction by ZEFSAII (Michael W. Deem and Ramdas Pophale) SiO2 
 PCOD9263596
Probable space group: C 2/C
;
_chemical_formula_sum "Si O2"
_cell_formula_units_Z 40
_cell_length_a 6.986783
_cell_length_b 14.449706
_cell_length_c 20.186096
_cell_angle_alpha 90.000000
_cell_angle_beta 54.021930
_cell_angle_gamma 90.000000
_cell_volume 1649.175851
_symmetry_space_group_name_H-M "C 2/C"
_symmetry_group_IT_number 15
_symmetry_cell_setting 'monoclinic'
loop_
_space_group_symop_operation_xyz
x,y,z
-x,y,1/2-z
-x,-y,-z
x,-y,1/2+z
1/2+x,1/2+y,z
1/2-x,1/2+y,1/2-z
1/2-x,1/2-y,-z
1/2+x,1/2-y,1/2+z
loop_
_atom_site_type_symbol
_atom_site_label
_atom_site_fract_x
_atom_site_fract_y
_atom_site_fract_z
Si Si1 0.119641 0.641431 0.055120
Si Si2 0.132438 0.438022 0.081749
Si Si3 0.976937 0.163537 0.613276
Si Si4 0.441454 0.674072 0.435642
Si Si5 0.153914 0.293034 0.286354
O O1 0.039614 0.541935 0.095715
O O2 0.335282 0.666355 0.060883
O O3 0.949995 0.729857 0.091117
O O4 0.254337 0.636810 0.957803
O O5 0.319525 0.410425 0.103485
O O6 0.924971 0.370046 0.145345
O O7 0.280901 0.416007 0.984373
O O8 0.905277 0.181354 0.703260
O O9 0.250000 0.750000 0.500000
O O10 0.569557 0.699458 0.340622
O O11 0.000000 0.299390 0.250000
#
# Coordination Sequence:
#
# PCOD9263596 Si02
#       5
#     8   8   8   8   8
#     4  10  19  34  58  85 105 151 195 228 285 349
#     4   9  18  36  58  81 105 151 192 230 281 344
#     4   9  18  33  52  83 118 136 182 245 283 321
#     4   9  17  31  54  79 106 145 185 221 283 344
#     4   9  18  34  53  77 111 148 177 234 293 328
#
# _framework density 24.254539000000001
#
# number of rings (size 3 to 8) (size 9 to 14) (size 15 to 20)
#    0.000    2.800    0.000    3.600    0.000    0.800 
#   14.400    0.000    0.000  102.000    0.000    0.000 
#    0.000    0.000    0.000    0.000    0.000    0.000 
#
# Total GULP energy -111357.381534 kJ/mol
# GULP energy per Si atom -5567.869077 kJ/mol
# Density = 2.419933 g / cm^3
# Si number density = 24.254539 Si / 1000 Ang^3
#
#
#
# Elastic Constant Matrix: (Units=GPa)
#
#
# Indices 1 2 3 4 5 6 
#
# 1 68.9973 0.8744 27.2539 -0.0004 11.6362 0.0006
# 2 0.8744 97.4986 26.8584 -0.0002 16.5981 0.0003
# 3 27.2539 26.8584 187.3103 -0.0002 12.7255 0.0002
# 4 -0.0004 -0.0002 -0.0002 23.4849 0.0002 4.2385
# 5 11.6362 16.5981 12.7255 0.0002 37.5002 -0.0003
# 6 0.0006 0.0003 0.0002 4.2385 -0.0003 21.3373
#
#
#
# Elastic Compliance Matrix: (Units=1/GPa)
#
#
# Indices 1 2 3 4 5 6 
#
# 1 0.016165 0.001287 -0.002208 0.000000 -0.004836 -0.000001
# 2 0.001287 0.011506 -0.001498 0.000000 -0.004984 0.000000
# 3 -0.002208 -0.001498 0.005920 0.000000 -0.000660 0.000000
# 4 0.000000 0.000000 0.000000 0.044164 -0.000001 -0.008773
# 5 -0.004836 -0.004984 -0.000660 -0.000001 0.030597 0.000001
# 6 -0.000001 0.000000 0.000000 -0.008773 0.000001 0.048609
#
#
# Mechanical properties :
#
#
# Convention : Reuss Voigt Hill
#
# Bulk Modulus (GPa) = 34.78150 51.53108 43.15629
# Shear Modulus (GPa) = 29.17425 36.38577 32.78001
#
# Velocity S-wave (km/s) = 3.47196 3.87740 3.68026
# Velocity P-wave (km/s) = 5.51761 6.42944 5.99090
#
# Compressibility (1/GPa) = 0.02875092
#
# Stress axis : x y z
#
# Youngs Moduli (GPa) = 61.86305 86.90965 168.92666
#
# Poissons Ratio (x) = -0.11181 0.37298
# Poissons Ratio (y) = -0.07959 0.25314
# Poissons Ratio (z) = 0.13659 0.13023
#
# Static dielectric constant tensor:
#      x y z
#    x 2.104770 0.000000 -0.029760 
#    y 0.000000 1.979030 0.000000 
#    z -0.029760 0.000000 2.055480 
# 
# From -- ./inp_files/230962.got.cif
#   From: 2010.05.17/outbox.cif.g08.bks.cpg/sg15_116_cif.got.tgz:230962.got - 2010.06.03 18:47:42.
