data_PCOD9263454
_publ_section_title
;
Structure prediction by ZEFSAII (Michael W. Deem and Ramdas Pophale) SiO2 
 PCOD9263454
Probable space group: C 2/C
;
_chemical_formula_sum "Si O2"
_cell_formula_units_Z 64
_cell_length_a 12.639946
_cell_length_b 17.199558
_cell_length_c 30.569879
_cell_angle_alpha 90.000000
_cell_angle_beta 32.915448
_cell_angle_gamma 90.000000
_cell_volume 3611.407569
_symmetry_space_group_name_H-M "C 2/C"
_symmetry_group_IT_number 15
_symmetry_cell_setting 'monoclinic'
loop_
_space_group_symop_operation_xyz
x,y,z
-x,y,1/2-z
-x,-y,-z
x,-y,1/2+z
1/2+x,1/2+y,z
1/2-x,1/2+y,1/2-z
1/2-x,1/2-y,-z
1/2+x,1/2-y,1/2+z
loop_
_atom_site_type_symbol
_atom_site_label
_atom_site_fract_x
_atom_site_fract_y
_atom_site_fract_z
Si Si1 0.305100 0.532040 0.590503
Si Si2 0.081883 0.473011 0.827264
Si Si3 0.723305 0.182201 0.673725
Si Si4 0.705006 0.625826 0.754850
Si Si5 0.780127 0.587721 0.308645
Si Si6 0.239443 0.756654 0.168338
Si Si7 0.800597 0.199443 0.910903
Si Si8 0.021602 0.321438 0.588633
O O1 0.500000 0.500000 0.500000
O O2 0.284250 0.621990 0.613728
O O3 0.304643 0.483932 0.635794
O O4 0.118102 0.506023 0.625868
O O5 0.215442 0.546186 0.792505
O O6 0.201800 0.428018 0.748328
O O7 0.041930 0.408252 0.877439
O O8 0.500000 0.207698 0.750000
O O9 0.730642 0.136013 0.717371
O O10 0.862768 0.257166 0.628878
O O11 0.785419 0.692376 0.694687
O O12 0.473862 0.639878 0.839338
O O13 0.684881 0.669701 0.352022
O O14 0.000000 0.593190 0.250000
O O15 0.306095 0.787257 0.097986
O O16 0.000000 0.755973 0.250000
O O17 0.890764 0.281580 0.897370
O O18 0.676243 0.173624 0.995668
#
# Coordination Sequence:
#
# PCOD9263454 Si02
#       8
#     8   8   8   8   8   8   8   8
#     4  11  22  31  56  86 118 145 184 244 305 339
#     4  11  20  35  51  85 114 152 191 239 281 356
#     4  11  20  39  55  85 122 161 187 239 305 365
#     4  10  19  34  57  78 114 151 194 234 295 343
#     4   9  16  30  51  75 105 133 179 229 277 333
#     4   9  17  32  55  80 103 146 191 235 281 345
#     4   9  19  36  57  87 110 147 190 252 285 341
#     4  10  22  33  61  87 119 148 196 243 298 350
#
# _framework density 17.721622
#
# number of rings (size 3 to 8) (size 9 to 14) (size 15 to 20)
#    0.000    2.000    2.500    4.125    7.000    0.000 
#    0.000    2.500    0.000    4.500    0.000    0.000 
#    0.000    0.000    0.000    0.000    0.000    0.000 
#
# Total GULP energy -178145.456115 kJ/mol
# GULP energy per Si atom -5567.045504 kJ/mol
# Density = 1.768129 g / cm^3
# Si number density = 17.721622 Si / 1000 Ang^3
#
#
#
# Elastic Constant Matrix: (Units=GPa)
#
#
# Indices 1 2 3 4 5 6 
#
# 1 29.2554 24.8640 22.9949 -0.0024 5.1956 0.0007
# 2 24.8640 101.7228 33.2120 0.0004 -0.5066 -0.0013
# 3 22.9949 33.2120 78.2885 -0.0030 4.4555 -0.0010
# 4 -0.0024 0.0004 -0.0030 23.4216 0.0042 2.9366
# 5 5.1956 -0.5066 4.4555 0.0042 16.9581 -0.0001
# 6 0.0007 -0.0013 -0.0010 2.9366 -0.0001 11.1583
#
#
#
# Elastic Compliance Matrix: (Units=1/GPa)
#
#
# Indices 1 2 3 4 5 6 
#
# 1 0.053234 -0.009554 -0.010800 0.000008 -0.013758 -0.000008
# 2 -0.009554 0.013171 -0.003015 -0.000003 0.004113 0.000003
# 3 -0.010800 -0.003015 0.017300 0.000001 -0.001327 0.000002
# 4 0.000008 -0.000003 0.000001 0.044152 -0.000014 -0.011620
# 5 -0.013758 0.004113 -0.001327 -0.000014 0.063655 0.000005
# 6 -0.000008 0.000003 0.000002 -0.011620 0.000005 0.092678
#
#
# Mechanical properties :
#
#
# Convention : Reuss Voigt Hill
#
# Bulk Modulus (GPa) = 27.05172 41.26762 34.15967
# Shear Modulus (GPa) = 14.56661 18.85399 16.71030
#
# Velocity S-wave (km/s) = 2.87011 3.26528 3.07405
# Velocity P-wave (km/s) = 5.12653 6.12807 5.64954
#
# Compressibility (1/GPa) = 0.03696622
#
# Stress axis : x y z
#
# Youngs Moduli (GPa) = 18.78508 75.92478 57.80355
#
# Poissons Ratio (x) = 0.72541 0.62426
# Poissons Ratio (y) = 0.17948 0.17429
# Poissons Ratio (z) = 0.20287 0.22893
#
# Static dielectric constant tensor:
#      x y z
#    x 1.644400 0.000000 -0.008680 
#    y 0.000000 1.647040 0.000000 
#    z -0.008680 0.000000 1.627300 
# 
# From -- ./inp_files/314268.got.cif
#   From: 2010.05.17/outbox.cif.g08.bks.cpg/sg15_158_cif.got.tgz:314268.got - 2010.06.03 18:47:42.
