data_PCOD9263237
_publ_section_title
;
Structure prediction by ZEFSAII (Michael W. Deem and Ramdas Pophale) SiO2 
 PCOD9263237
Probable space group: C 2/C
;
_chemical_formula_sum "Si O2"
_cell_formula_units_Z 48
_cell_length_a 28.512308
_cell_length_b 6.969098
_cell_length_c 11.427389
_cell_angle_alpha 90.000000
_cell_angle_beta 132.475956
_cell_angle_gamma 90.000000
_cell_volume 1674.764600
_symmetry_space_group_name_H-M "C 2/C"
_symmetry_group_IT_number 15
_symmetry_cell_setting 'monoclinic'
loop_
_space_group_symop_operation_xyz
x,y,z
-x,y,1/2-z
-x,-y,-z
x,-y,1/2+z
1/2+x,1/2+y,z
1/2-x,1/2+y,1/2-z
1/2-x,1/2-y,-z
1/2+x,1/2-y,1/2+z
loop_
_atom_site_type_symbol
_atom_site_label
_atom_site_fract_x
_atom_site_fract_y
_atom_site_fract_z
Si Si1 0.577432 0.230506 0.584408
Si Si2 0.392688 0.334759 0.366704
Si Si3 0.603161 0.229811 0.370187
Si Si4 0.069404 0.165484 0.326951
Si Si5 0.723751 0.128176 0.851545
Si Si6 0.250749 0.194223 0.863969
O O1 0.572198 0.462174 0.570564
O O2 0.564373 0.179494 0.423691
O O3 0.558174 0.209938 0.690530
O O4 0.649197 0.155168 0.715005
O O5 0.419635 0.210335 0.303645
O O6 0.400441 0.237947 0.506610
O O7 0.318638 0.393042 0.225171
O O8 0.608675 0.466012 0.379414
O O9 0.674681 0.140058 0.493750
O O10 0.000000 0.104981 0.250000
O O11 0.752939 0.207497 0.782266
O O12 0.742114 0.907935 0.899024
O O13 0.750000 0.250000 0.000000
#
# Coordination Sequence:
#
# PCOD9263237 Si02
#       6
#     8   8   8   8   8   8
#     4   9  19  34  50  80 114 147 197 244 292 350
#     4  10  19  34  54  81 113 152 193 237 295 349
#     4   9  19  31  50  81 114 145 187 240 293 345
#     4  10  20  36  57  80 112 153 199 248 297 348
#     4  11  21  34  54  83 121 160 197 238 293 360
#     4  11  21  35  56  85 123 157 192 238 297 363
#
# _framework density 28.660744999999999
#
# number of rings (size 3 to 8) (size 9 to 14) (size 15 to 20)
#    0.000    2.000    0.000    6.500    0.000    8.667 
#    0.000    0.000    0.000    1.000    0.000   15.167 
#    0.000    0.000    0.000    0.000    0.000    0.000 
#
# Total GULP energy -134001.418710 kJ/mol
# GULP energy per Si atom -5583.392446 kJ/mol
# Density = 2.859551 g / cm^3
# Si number density = 28.660745 Si / 1000 Ang^3
#
#
#
# Elastic Constant Matrix: (Units=GPa)
#
#
# Indices 1 2 3 4 5 6 
#
# 1 145.9414 -9.8042 43.0995 0.0000 -29.3737 0.0000
# 2 -9.8042 93.5431 -13.3522 0.0000 13.5872 0.0000
# 3 43.0995 -13.3522 174.1893 0.0000 -42.5335 0.0000
# 4 0.0000 0.0000 0.0000 3.4333 0.0000 -2.1119
# 5 -29.3737 13.5872 -42.5335 0.0000 66.9551 0.0000
# 6 0.0000 0.0000 0.0000 -2.1119 0.0000 16.9558
#
#
#
# Elastic Compliance Matrix: (Units=1/GPa)
#
#
# Indices 1 2 3 4 5 6 
#
# 1 0.007758 0.000262 -0.001280 0.000000 0.002537 0.000000
# 2 0.000262 0.011042 0.000311 0.000000 -0.001929 0.000000
# 3 -0.001280 0.000311 0.007017 0.000000 0.003833 0.000000
# 4 0.000000 0.000000 0.000000 0.315434 0.000000 0.039287
# 5 0.002537 -0.001929 0.003833 0.000000 0.018875 0.000000
# 6 0.000000 0.000000 0.000000 0.039287 0.000000 0.063870
#
#
# Mechanical properties :
#
#
# Convention : Reuss Voigt Hill
#
# Bulk Modulus (GPa) = 40.97824 50.39553 45.68688
# Shear Modulus (GPa) = 11.53281 43.71755 27.62518
#
# Velocity S-wave (km/s) = 2.00814 3.90980 3.10799
# Velocity P-wave (km/s) = 4.43910 6.16472 5.37165
#
# Compressibility (1/GPa) = 0.02440320
#
# Stress axis : x y z
#
# Youngs Moduli (GPa) = 128.89304 90.56186 142.50288
#
# Poissons Ratio (x) = -0.02372 0.18240
# Poissons Ratio (y) = -0.03376 -0.04428
# Poissons Ratio (z) = 0.16498 -0.02814
#
# Static dielectric constant tensor:
#      x y z
#    x 2.292340 0.000000 -0.261890 
#    y 0.000000 2.214810 0.000000 
#    z -0.261890 0.000000 2.636840 
# 
# From -- ./inp_files/121643.got.cif
#   From: 2010.05.17/outbox.cif.g08.bks.cpg/sg15_61_cif.got.tgz:121643.got - 2010.06.03 18:47:42.
