data_PCOD9263945
_publ_section_title
;
Structure prediction by ZEFSAII (Michael W. Deem and Ramdas Pophale) SiO2 
 PCOD9263945
Probable space group: C 2/C
;
_chemical_formula_sum "Si O2"
_cell_formula_units_Z 56
_cell_length_a 18.833317
_cell_length_b 5.577666
_cell_length_c 25.822861
_cell_angle_alpha 90.000000
_cell_angle_beta 73.943021
_cell_angle_gamma 90.000000
_cell_volume 2606.761148
_symmetry_space_group_name_H-M "C 2/C"
_symmetry_group_IT_number 15
_symmetry_cell_setting 'monoclinic'
loop_
_space_group_symop_operation_xyz
x,y,z
-x,y,1/2-z
-x,-y,-z
x,-y,1/2+z
1/2+x,1/2+y,z
1/2-x,1/2+y,1/2-z
1/2-x,1/2-y,-z
1/2+x,1/2-y,1/2+z
loop_
_atom_site_type_symbol
_atom_site_label
_atom_site_fract_x
_atom_site_fract_y
_atom_site_fract_z
Si Si1 0.235696 0.539422 0.584470
Si Si2 0.594479 0.082761 0.541828
Si Si3 0.552172 0.261830 0.887884
Si Si4 0.688762 0.085264 0.374986
Si Si5 0.287854 0.792201 0.803534
Si Si6 0.354395 0.542952 0.703379
Si Si7 0.893093 0.089738 0.021416
O O1 0.169413 0.541352 0.558318
O O2 0.275839 0.796483 0.581879
O O3 0.205157 0.465170 0.647968
O O4 0.305623 0.379085 0.553290
O O5 0.525159 0.127988 0.594120
O O6 0.600277 0.338860 0.510859
O O7 0.582084 0.837372 0.511605
O O8 0.576662 0.381880 0.828735
O O9 0.559384 0.441660 0.935421
O O10 0.618072 0.082640 0.890518
O O11 0.661801 0.295418 0.343098
O O12 0.755508 0.945394 0.335568
O O13 0.355291 0.713040 0.753352
O O14 0.220799 0.884391 0.780177
#
# Coordination Sequence:
#
# PCOD9263945 Si02
#       7
#     8   8   8   8   8   8   8
#     4  11  24  41  65  98 132 176 220 285 329 404
#     4  12  29  42  66  98 142 181 226 272 345 388
#     4  11  24  41  65  98 132 176 220 285 329 404
#     4  10  19  37  66  88 136 159 224 266 344 380
#     4  10  19  34  65 100 125 164 221 281 336 393
#     4  10  19  34  65 100 125 164 221 281 336 393
#     4  12  24  43  68  97 131 186 232 276 324 400
#
# _framework density 21.482599
#
# number of rings (size 3 to 8) (size 9 to 14) (size 15 to 20)
#    0.000    1.143    5.714    2.571    4.000    0.000 
#    0.000    0.000    0.000    5.143    0.000    0.000 
#    0.000    0.000    0.000    0.000    0.000    0.000 
#
# Total GULP energy -156110.182243 kJ/mol
# GULP energy per Si atom -5575.363652 kJ/mol
# Density = 2.143370 g / cm^3
# Si number density = 21.482599 Si / 1000 Ang^3
#
#
#
# Elastic Constant Matrix: (Units=GPa)
#
#
# Indices 1 2 3 4 5 6 
#
# 1 66.0964 8.1281 23.9720 -0.0006 -18.0070 -0.0010
# 2 8.1281 91.5393 29.6119 -0.0007 -4.8033 -0.0012
# 3 23.9720 29.6119 81.1706 -0.0001 -12.3089 -0.0003
# 4 -0.0006 -0.0007 -0.0001 46.0446 -0.0008 -7.5054
# 5 -18.0070 -4.8033 -12.3089 -0.0008 13.3556 -0.0009
# 6 -0.0010 -0.0012 -0.0003 -7.5054 -0.0009 20.1245
#
#
#
# Elastic Compliance Matrix: (Units=1/GPa)
#
#
# Indices 1 2 3 4 5 6 
#
# 1 0.024375 0.000304 -0.002685 0.000001 0.030499 0.000003
# 2 0.000304 0.012391 -0.004501 0.000000 0.000718 0.000001
# 3 -0.002685 -0.004501 0.016228 0.000000 0.009718 0.000000
# 4 0.000001 0.000000 0.000000 0.023124 0.000004 0.008624
# 5 0.030499 0.000718 0.009718 0.000004 0.125210 0.000009
# 6 0.000003 0.000001 0.000000 0.008624 0.000009 0.052907
#
#
# Mechanical properties :
#
#
# Convention : Reuss Voigt Hill
#
# Bulk Modulus (GPa) = 25.49006 40.24781 32.86894
# Shear Modulus (GPa) = 17.78881 27.71122 22.75002
#
# Velocity S-wave (km/s) = 2.88072 3.59547 3.25775
# Velocity P-wave (km/s) = 4.79123 6.00102 5.42993
#
# Compressibility (1/GPa) = 0.03923097
#
# Stress axis : x y z
#
# Youngs Moduli (GPa) = 41.02622 80.70326 61.62028
#
# Poissons Ratio (x) = -0.02457 0.16543
# Poissons Ratio (y) = -0.01249 0.27738
# Poissons Ratio (z) = 0.11014 0.36328
#
# Static dielectric constant tensor:
#      x y z
#    x 1.750030 0.000000 -0.041790 
#    y 0.000000 1.872190 0.000000 
#    z -0.041790 0.000000 1.877270 
# 
# From -- ./inp_files/297729.got.cif
#   From: 2010.05.17/outbox.cif.g08.bks.cpg/sg15_149_cif.got.tgz:297729.got - 2010.06.03 18:47:42.
