data_PCOD9263701
_publ_section_title
;
Structure prediction by ZEFSAII (Michael W. Deem and Ramdas Pophale) SiO2 
 PCOD9263701
Probable space group: C 2/C
;
_chemical_formula_sum "Si O2"
_cell_formula_units_Z 60
_cell_length_a 22.662715
_cell_length_b 7.888997
_cell_length_c 26.349935
_cell_angle_alpha 90.000000
_cell_angle_beta 145.308483
_cell_angle_gamma 90.000000
_cell_volume 2681.303429
_symmetry_space_group_name_H-M "C 2/C"
_symmetry_group_IT_number 15
_symmetry_cell_setting 'monoclinic'
loop_
_space_group_symop_operation_xyz
x,y,z
-x,y,1/2-z
-x,-y,-z
x,-y,1/2+z
1/2+x,1/2+y,z
1/2-x,1/2+y,1/2-z
1/2-x,1/2-y,-z
1/2+x,1/2-y,1/2+z
loop_
_atom_site_type_symbol
_atom_site_label
_atom_site_fract_x
_atom_site_fract_y
_atom_site_fract_z
Si Si1 0.392305 0.710355 0.959829
Si Si2 0.778850 0.474340 0.419431
Si Si3 0.041726 0.650237 0.389273
Si Si4 0.676505 0.204701 0.836765
Si Si5 0.646068 0.076607 0.709920
Si Si6 0.500303 0.598592 0.941478
Si Si7 0.701450 0.724812 0.148064
Si Si8 0.500000 0.957951 0.750000
O O1 0.406620 0.669900 0.910066
O O2 0.364709 0.906442 0.949847
O O3 0.292880 0.629663 0.918092
O O4 0.487477 0.604262 0.050840
O O5 0.842030 0.394748 0.510442
O O6 0.691012 0.610504 0.371078
O O7 0.738602 0.336015 0.351617
O O8 0.005723 0.821807 0.390625
O O9 0.026841 0.645892 0.319045
O O10 0.965638 0.509037 0.360378
O O11 0.654812 0.215444 0.761118
O O12 0.595850 0.081345 0.804942
O O13 0.728093 0.926775 0.781050
O O14 0.668558 0.155554 0.671439
O O15 0.600459 0.666233 0.044228
#
# Coordination Sequence:
#
# PCOD9263701 Si02
#       8
#     8   8   8   8   8   8   8   4
#     4   9  18  34  58  89 117 148 195 248 295 363
#     4   9  19  37  58  82 112 151 207 242 300 357
#     4  10  22  37  59  84 113 162 200 250 294 358
#     4   9  20  39  58  83 117 159 200 252 296 355
#     4  11  21  32  52  85 126 156 193 239 312 348
#     4  10  19  34  59  86 123 156 198 239 301 371
#     4  11  20  31  53  86 123 159 187 241 302 376
#     4  10  22  42  62  82 122 160 212 250 302 342
#
# _framework density 22.377177
#
# number of rings (size 3 to 8) (size 9 to 14) (size 15 to 20)
#    0.800    1.333    1.333    2.400    1.867    2.667 
#    0.000    3.333    0.000    4.000    0.000    0.000 
#    0.000    0.000    0.000    0.000    0.000    0.000 
#
# Total GULP energy -167239.265694 kJ/mol
# GULP energy per Si atom -5574.642190 kJ/mol
# Density = 2.232625 g / cm^3
# Si number density = 22.377177 Si / 1000 Ang^3
#
#
#
# Elastic Constant Matrix: (Units=GPa)
#
#
# Indices 1 2 3 4 5 6 
#
# 1 88.2601 16.2979 41.4195 0.0000 -20.7499 0.0001
# 2 16.2979 64.4346 32.1593 -0.0003 -17.6386 -0.0001
# 3 41.4195 32.1593 87.7027 0.0000 -20.5562 0.0000
# 4 0.0000 -0.0003 0.0000 21.7371 0.0000 -7.3029
# 5 -20.7499 -17.6386 -20.5562 0.0000 31.5823 0.0000
# 6 0.0001 -0.0001 0.0000 -7.3029 0.0000 20.6371
#
#
#
# Elastic Compliance Matrix: (Units=1/GPa)
#
#
# Indices 1 2 3 4 5 6 
#
# 1 0.015637 0.000979 -0.006145 0.000000 0.006821 0.000000
# 2 0.000979 0.020540 -0.006083 0.000000 0.008156 0.000000
# 3 -0.006145 -0.006083 0.017455 0.000000 0.003927 0.000000
# 4 0.000000 0.000000 0.000000 0.052212 0.000000 0.018476
# 5 0.006821 0.008156 0.003927 0.000000 0.043255 0.000000
# 6 0.000000 0.000000 0.000000 0.018476 0.000000 0.054995
#
#
# Mechanical properties :
#
#
# Convention : Reuss Voigt Hill
#
# Bulk Modulus (GPa) = 32.11840 46.68341 39.40091
# Shear Modulus (GPa) = 21.09973 24.82601 22.96287
#
# Velocity S-wave (km/s) = 3.07402 3.33443 3.20687
# Velocity P-wave (km/s) = 5.19460 5.97762 5.59981
#
# Compressibility (1/GPa) = 0.03113480
#
# Stress axis : x y z
#
# Youngs Moduli (GPa) = 63.95198 48.68441 57.28990
#
# Poissons Ratio (x) = -0.04766 0.35205
# Poissons Ratio (y) = -0.06261 0.34847
# Poissons Ratio (z) = 0.39299 0.29613
#
# Static dielectric constant tensor:
#      x y z
#    x 1.810510 0.000000 0.044500 
#    y 0.000000 1.894190 0.000000 
#    z 0.044500 0.000000 1.898720 
# 
# From -- ./inp_files/279701.got.cif
#   From: 2010.05.17/outbox.cif.g08.bks.cpg/sg15_140_cif.got.tgz:279701.got - 2010.06.03 18:47:42.
