data_PCOD9263710
_publ_section_title
;
Structure prediction by ZEFSAII (Michael W. Deem and Ramdas Pophale) SiO2 
 PCOD9263710
Probable space group: C 2/C
;
_chemical_formula_sum "Si O2"
_cell_formula_units_Z 56
_cell_length_a 12.305078
_cell_length_b 14.193133
_cell_length_c 15.473841
_cell_angle_alpha 90.000000
_cell_angle_beta 62.566111
_cell_angle_gamma 90.000000
_cell_volume 2398.557824
_symmetry_space_group_name_H-M "C 2/C"
_symmetry_group_IT_number 15
_symmetry_cell_setting 'monoclinic'
loop_
_space_group_symop_operation_xyz
x,y,z
-x,y,1/2-z
-x,-y,-z
x,-y,1/2+z
1/2+x,1/2+y,z
1/2-x,1/2+y,1/2-z
1/2-x,1/2-y,-z
1/2+x,1/2-y,1/2+z
loop_
_atom_site_type_symbol
_atom_site_label
_atom_site_fract_x
_atom_site_fract_y
_atom_site_fract_z
Si Si1 0.268627 0.448895 0.719012
Si Si2 0.951957 0.569823 0.682803
Si Si3 0.851002 0.685344 0.508973
Si Si4 0.710941 0.227147 0.771884
Si Si5 0.795636 0.483859 0.455655
Si Si6 0.036455 0.998573 0.587931
Si Si7 0.520347 0.299722 0.340926
O O1 0.163459 0.507736 0.808294
O O2 0.259144 0.337511 0.740573
O O3 0.242882 0.480616 0.627949
O O4 0.413828 0.465755 0.681832
O O5 0.893471 0.668044 0.737653
O O6 0.000000 0.514769 0.750000
O O7 0.080213 0.578255 0.585100
O O8 0.750000 0.750000 0.500000
O O9 0.832950 0.705119 0.615250
O O10 0.833306 0.578449 0.490809
O O11 0.977957 0.722591 0.424205
O O12 0.837730 0.177342 0.701236
O O13 0.667733 0.446630 0.543574
O O14 0.055016 0.105289 0.613745
O O15 0.000000 0.000000 0.500000
O O16 0.500000 0.267537 0.250000
#
# Coordination Sequence:
#
# PCOD9263710 Si02
#       7
#     8   8   8   8   8   8   8
#     4  10  19  37  60  86 116 168 215 252 312 392
#     4  10  23  41  63  90 126 172 218 264 322 390
#     4  12  20  35  60 100 128 153 208 276 334 379
#     4  12  23  39  65  94 130 169 218 268 327 390
#     4  10  19  36  58  88 125 158 202 268 322 384
#     4  10  19  34  59  87 118 164 215 256 314 385
#     4  12  21  36  63  96 128 160 206 274 329 381
#
# _framework density 23.347362
#
# number of rings (size 3 to 8) (size 9 to 14) (size 15 to 20)
#    0.000    1.143    5.714    1.714    0.000    1.714 
#    0.000    1.429    0.000    0.000    0.000    0.000 
#    0.000    0.000    0.000    0.000    0.000    0.000 
#
# Total GULP energy -156115.560144 kJ/mol
# GULP energy per Si atom -5575.555719 kJ/mol
# Density = 2.329422 g / cm^3
# Si number density = 23.347362 Si / 1000 Ang^3
#
#
#
# Elastic Constant Matrix: (Units=GPa)
#
#
# Indices 1 2 3 4 5 6 
#
# 1 110.1708 22.3071 50.3124 0.0000 -62.6374 0.0000
# 2 22.3071 58.3551 11.3899 0.0000 -10.6930 0.0000
# 3 50.3124 11.3899 92.2737 0.0000 -35.0750 0.0000
# 4 0.0000 0.0000 0.0000 17.3543 0.0000 -3.0848
# 5 -62.6374 -10.6930 -35.0750 0.0000 56.3067 0.0000
# 6 0.0000 0.0000 0.0000 -3.0848 0.0000 25.7410
#
#
#
# Elastic Compliance Matrix: (Units=1/GPa)
#
#
# Indices 1 2 3 4 5 6 
#
# 1 0.027015 -0.004656 -0.004020 0.000000 0.026665 0.000000
# 2 -0.004656 0.018658 -0.000506 0.000000 -0.001952 0.000000
# 3 -0.004020 -0.000506 0.014878 0.000000 0.004700 0.000000
# 4 0.000000 0.000000 0.000000 0.058877 0.000000 0.007056
# 5 0.026665 -0.001952 0.004700 0.000000 0.049980 0.000000
# 6 0.000000 0.000000 0.000000 0.007056 0.000000 0.039694
#
#
# Mechanical properties :
#
#
# Convention : Reuss Voigt Hill
#
# Bulk Modulus (GPa) = 23.70416 47.64648 35.67532
# Shear Modulus (GPa) = 20.70147 31.66640 26.18394
#
# Velocity S-wave (km/s) = 2.98094 3.68682 3.35251
# Velocity P-wave (km/s) = 4.69285 6.21091 5.50446
#
# Compressibility (1/GPa) = 0.04218669
#
# Stress axis : x y z
#
# Youngs Moduli (GPa) = 37.01583 53.59757 67.21240
#
# Poissons Ratio (x) = 0.24957 0.27018
# Poissons Ratio (y) = 0.17236 0.03401
# Poissons Ratio (z) = 0.14879 0.02712
#
# Static dielectric constant tensor:
#      x y z
#    x -0.030810 0.000000 -0.803760 
#    y 0.000000 1.151680 0.000000 
#    z -0.803760 0.000000 1.647780 
# 
# From -- ./inp_files/198200.got.cif
#   From: 2010.05.17/outbox.cif.g08.bks.cpg/sg15_100_cif.got.tgz:198200.got - 2010.06.03 18:47:42.
