data_PCOD9263654
_publ_section_title
;
Structure prediction by ZEFSAII (Michael W. Deem and Ramdas Pophale) SiO2 
 PCOD9263654
Probable space group: C 2/C
;
_chemical_formula_sum "Si O2"
_cell_formula_units_Z 40
_cell_length_a 24.501705
_cell_length_b 8.373677
_cell_length_c 8.233712
_cell_angle_alpha 90.000000
_cell_angle_beta 80.235770
_cell_angle_gamma 90.000000
_cell_volume 1664.834120
_symmetry_space_group_name_H-M "C 2/C"
_symmetry_group_IT_number 15
_symmetry_cell_setting 'monoclinic'
loop_
_space_group_symop_operation_xyz
x,y,z
-x,y,1/2-z
-x,-y,-z
x,-y,1/2+z
1/2+x,1/2+y,z
1/2-x,1/2+y,1/2-z
1/2-x,1/2-y,-z
1/2+x,1/2-y,1/2+z
loop_
_atom_site_type_symbol
_atom_site_label
_atom_site_fract_x
_atom_site_fract_y
_atom_site_fract_z
Si Si1 0.385167 0.416377 0.346140
Si Si2 0.700733 0.168414 0.627045
Si Si3 0.593392 0.264551 0.519661
Si Si4 0.221710 0.117163 0.408109
Si Si5 0.014673 0.179466 0.552659
O O1 0.387068 0.340279 0.165633
O O2 0.412120 0.591953 0.346224
O O3 0.325050 0.449566 0.449357
O O4 0.419266 0.308191 0.460010
O O5 0.750000 0.250000 0.500000
O O6 0.643056 0.152703 0.558063
O O7 0.692719 0.289241 0.778257
O O8 0.730471 0.005474 0.669088
O O9 0.529912 0.210134 0.518584
O O10 0.250000 0.250000 0.500000
O O11 0.000000 0.189661 0.750000
O O12 0.000000 0.000000 0.500000
#
# Coordination Sequence:
#
# PCOD9263654 Si02
#       5
#     8   8   8   8   8
#     4  10  19  35  58  89 126 164 210 261 310 375
#     4  12  24  40  61  87 127 167 212 261 317 381
#     4  10  19  34  58  90 126 166 207 260 318 364
#     4  12  26  42  62  90 124 168 212 259 322 386
#     4   8  16  30  53  85 122 159 200 261 312 361
#
# _framework density 24.026416000000001
#
# number of rings (size 3 to 8) (size 9 to 14) (size 15 to 20)
#    0.000    1.600    2.000    3.600    0.000    1.600 
#    0.000    0.000    0.000    1.200    0.000    2.800 
#    0.000    0.000    0.000    0.000    0.000    0.000 
#
# Total GULP energy -111499.846868 kJ/mol
# GULP energy per Si atom -5574.992343 kJ/mol
# Density = 2.397173 g / cm^3
# Si number density = 24.026416 Si / 1000 Ang^3
#
#
#
# Elastic Constant Matrix: (Units=GPa)
#
#
# Indices 1 2 3 4 5 6 
#
# 1 163.8071 30.2768 31.7194 0.0000 43.6182 0.0000
# 2 30.2768 43.9052 16.9326 0.0000 12.5781 0.0000
# 3 31.7194 16.9326 92.7633 0.0000 21.2767 0.0000
# 4 0.0000 0.0000 0.0000 23.1372 0.0000 8.8674
# 5 43.6182 12.5781 21.2767 0.0000 46.6283 0.0000
# 6 0.0000 0.0000 0.0000 8.8674 0.0000 21.5394
#
#
#
# Elastic Compliance Matrix: (Units=1/GPa)
#
#
# Indices 1 2 3 4 5 6 
#
# 1 0.008773 -0.003805 -0.000735 0.000000 -0.006845 0.000000
# 2 -0.003805 0.027289 -0.003136 0.000000 -0.002370 0.000000
# 3 -0.000735 -0.003136 0.012568 0.000000 -0.004201 0.000000
# 4 0.000000 0.000000 0.000000 0.051317 0.000000 -0.021127
# 5 -0.006845 -0.002370 -0.004201 0.000000 0.030405 0.000000
# 6 0.000000 0.000000 0.000000 -0.021127 0.000000 0.055124
#
#
# Mechanical properties :
#
#
# Convention : Reuss Voigt Hill
#
# Bulk Modulus (GPa) = 30.05191 50.92591 40.48891
# Shear Modulus (GPa) = 23.59354 33.03078 28.31216
#
# Velocity S-wave (km/s) = 3.13706 3.71181 3.43647
# Velocity P-wave (km/s) = 5.06523 6.29380 5.71264
#
# Compressibility (1/GPa) = 0.03327575
#
# Stress axis : x y z
#
# Youngs Moduli (GPa) = 113.98528 36.64457 79.57004
#
# Poissons Ratio (x) = 0.13945 0.05851
# Poissons Ratio (y) = 0.43376 0.24956
# Poissons Ratio (z) = 0.08381 0.11493
#
# Static dielectric constant tensor:
#      x y z
#    x 2.583590 0.000000 -0.098480 
#    y 0.000000 1.915570 0.000000 
#    z -0.098480 0.000000 2.027170 
# 
# From -- ./inp_files/60037.got.cif
#   From: 2010.05.17/outbox.cif.g08.bks.cpg/sg15_31_cif.got.tgz:60037.got - 2010.06.03 18:47:42.
