data_PCOD9263600
_publ_section_title
;
Structure prediction by ZEFSAII (Michael W. Deem and Ramdas Pophale) SiO2 
 PCOD9263600
Probable space group: C 2/C
;
_chemical_formula_sum "Si O2"
_cell_formula_units_Z 48
_cell_length_a 21.667602
_cell_length_b 11.269974
_cell_length_c 13.010798
_cell_angle_alpha 90.000000
_cell_angle_beta 61.027718
_cell_angle_gamma 90.000000
_cell_volume 2779.542699
_symmetry_space_group_name_H-M "C 2/C"
_symmetry_group_IT_number 15
_symmetry_cell_setting 'monoclinic'
loop_
_space_group_symop_operation_xyz
x,y,z
-x,y,1/2-z
-x,-y,-z
x,-y,1/2+z
1/2+x,1/2+y,z
1/2-x,1/2+y,1/2-z
1/2-x,1/2-y,-z
1/2+x,1/2-y,1/2+z
loop_
_atom_site_type_symbol
_atom_site_label
_atom_site_fract_x
_atom_site_fract_y
_atom_site_fract_z
Si Si1 0.816457 0.178242 0.565930
Si Si2 0.113376 0.045426 0.386838
Si Si3 0.926946 0.653211 0.078627
Si Si4 0.158369 0.233275 0.185340
Si Si5 0.959350 0.430545 0.180954
Si Si6 0.502159 0.376278 0.370059
O O1 0.857081 0.288764 0.586503
O O2 0.842738 0.173647 0.426561
O O3 0.733243 0.200568 0.633158
O O4 0.838112 0.059307 0.608124
O O5 0.151354 0.138271 0.282201
O O6 0.073307 0.107433 0.514252
O O7 0.051840 0.983093 0.369386
O O8 0.919206 0.536844 0.154989
O O9 0.963449 0.755687 0.116240
O O10 0.981133 0.619376 0.944142
O O11 0.094550 0.326262 0.246688
O O12 0.000000 0.473600 0.250000
O O13 0.500000 0.377247 0.250000
#
# Coordination Sequence:
#
# PCOD9263600 Si02
#       6
#     8   8   8   8   8   8
#     4  10  23  39  59  85 118 153 199 235 287 355
#     4  10  21  36  59  85 110 153 190 241 289 341
#     4  10  21  37  56  86 113 151 193 236 288 340
#     4  11  22  39  60  84 117 157 193 238 295 347
#     4  11  21  36  61  84 115 155 193 241 286 343
#     4  10  19  34  58  85 113 140 188 245 287 340
#
# _framework density 17.269027999999999
#
# number of rings (size 3 to 8) (size 9 to 14) (size 15 to 20)
#    0.000    1.667    3.333    1.500    2.333    0.667 
#    0.000    0.000    0.000    3.000    0.000    0.000 
#    0.000    0.000    0.000    0.000    0.000    0.000 
#
# Total GULP energy -133974.888555 kJ/mol
# GULP energy per Si atom -5582.287023 kJ/mol
# Density = 1.722972 g / cm^3
# Si number density = 17.269028 Si / 1000 Ang^3
#
#
#
# Elastic Constant Matrix: (Units=GPa)
#
#
# Indices 1 2 3 4 5 6 
#
# 1 54.6323 4.8046 25.2195 0.0000 14.4807 0.0000
# 2 4.8046 43.7639 30.8420 0.0000 1.7490 0.0000
# 3 25.2195 30.8420 116.7855 0.0000 22.3362 0.0000
# 4 0.0000 0.0000 0.0000 15.3344 0.0000 3.6004
# 5 14.4807 1.7490 22.3362 0.0000 27.5161 0.0000
# 6 0.0000 0.0000 0.0000 3.6004 0.0000 14.4075
#
#
#
# Elastic Compliance Matrix: (Units=1/GPa)
#
#
# Indices 1 2 3 4 5 6 
#
# 1 0.022137 0.000083 -0.003046 0.000000 -0.009182 0.000000
# 2 0.000083 0.028672 -0.008562 0.000000 0.005084 0.000000
# 3 -0.003046 -0.008562 0.013106 0.000000 -0.008491 0.000000
# 4 0.000000 0.000000 0.000000 0.069278 0.000000 -0.017313
# 5 -0.009182 0.005084 -0.008491 0.000000 0.047744 0.000000
# 6 0.000000 0.000000 0.000000 -0.017313 0.000000 0.073735
#
#
# Mechanical properties :
#
#
# Convention : Reuss Voigt Hill
#
# Bulk Modulus (GPa) = 24.47129 37.43489 30.95309
# Shear Modulus (GPa) = 17.16190 21.73930 19.45060
#
# Velocity S-wave (km/s) = 3.15587 3.55189 3.35972
# Velocity P-wave (km/s) = 5.24221 6.20853 5.74572
#
# Compressibility (1/GPa) = 0.04086421
#
# Stress axis : x y z
#
# Youngs Moduli (GPa) = 45.17341 34.87750 76.30209
#
# Poissons Ratio (x) = -0.00291 0.23243
# Poissons Ratio (y) = -0.00377 0.65333
# Poissons Ratio (z) = 0.13761 0.29863
#
# Static dielectric constant tensor:
#      x y z
#    x 1.561260 0.000000 0.006530 
#    y 0.000000 1.571010 0.000000 
#    z 0.006530 0.000000 1.567600 
# 
# From -- ./inp_files/104160.got.cif
#   From: 2010.05.17/outbox.cif.g08.bks.cpg/sg15_53_cif.got.tgz:104160.got - 2010.06.03 18:47:42.
